
     RDKit          3D

 57 60  0  0  0  0  0  0  0  0999 V2000
  141.0780   74.1670  221.9930 O   0  0  0  0  0  0  0  0  0  0  0  0
  139.9710   74.7730  221.8950 C   0  0  0  0  0  0  0  0  0  0  0  0
  138.7980   74.1310  221.4090 N   0  0  0  0  0  0  0  0  0  0  0  0
  138.8070   72.7530  221.0010 C   0  0  0  0  0  0  0  0  0  0  0  0
  137.5690   72.0330  221.4280 C   0  0  0  0  0  0  0  0  0  0  0  0
  136.5170   72.1290  220.7260 O   0  0  0  0  0  0  0  0  0  0  0  0
  137.6210   71.2560  222.6220 N   0  0  0  0  0  0  0  0  0  0  0  0
  136.7570   71.5490  223.7520 C   0  0  0  0  0  0  0  0  0  0  0  0
  136.4600   70.3440  224.6090 C   0  0  0  0  0  0  0  0  0  0  0  0
  136.5220   69.1300  223.7060 C   0  0  0  0  0  0  0  0  0  0  0  0
  138.0010   68.9580  223.4000 C   0  0  0  0  0  0  0  0  0  0  0  0
  138.5500   70.1730  222.6790 C   0  0  2  0  0  0  0  0  0  0  0  0
  139.8970   70.5170  223.2140 C   0  0  0  0  0  0  0  0  0  0  0  0
  139.9640   71.5720  224.2560 C   0  0  0  0  0  0  0  0  0  0  0  0
  140.2980   70.9850  225.6050 C   0  0  0  0  0  0  0  0  0  0  0  0
  140.1710   69.6350  225.8430 C   0  0  0  0  0  0  0  0  0  0  0  0
  140.4720   69.0860  227.0660 C   0  0  0  0  0  0  0  0  0  0  0  0
  140.9170   69.8840  228.1100 C   0  0  0  0  0  0  0  0  0  0  0  0
  141.0500   71.2410  227.8890 C   0  0  0  0  0  0  0  0  0  0  0  0
  140.7420   71.7840  226.6450 C   0  0  0  0  0  0  0  0  0  0  0  0
  139.8620   76.1920  222.2900 C   0  0  0  0  0  0  0  0  0  0  0  0
  138.6280   76.7950  222.4070 C   0  0  0  0  0  0  0  0  0  0  0  0
  138.5800   78.1350  222.7820 C   0  0  0  0  0  0  0  0  0  0  0  0
  139.7200   78.8670  223.0360 C   0  0  0  0  0  0  0  0  0  0  0  0
  139.6990   80.1950  223.4090 C   0  0  0  0  0  0  0  0  0  0  0  0
  140.8830   80.8710  223.6500 C   0  0  0  0  0  0  0  0  0  0  0  0
  142.1070   80.2230  223.5200 C   0  0  0  0  0  0  0  0  0  0  0  0
  142.1110   78.8910  223.1460 C   0  0  0  0  0  0  0  0  0  0  0  0
  140.9250   78.2270  222.9080 C   0  0  0  0  0  0  0  0  0  0  0  0
  140.9620   76.9370  222.5470 N   0  0  0  0  0  0  0  0  0  0  0  0
  137.9010   74.6980  221.3530 H   0  0  0  0  0  0  0  0  0  0  0  0
  138.8833   72.7080  219.9046 H   0  0  0  0  0  0  0  0  0  0  0  0
  139.6669   72.2629  221.4810 H   0  0  0  0  0  0  0  0  0  0  0  0
  137.2475   72.3092  224.3777 H   0  0  0  0  0  0  0  0  0  0  0  0
  135.7980   71.9009  223.3440 H   0  0  0  0  0  0  0  0  0  0  0  0
  137.2086   70.2570  225.4103 H   0  0  0  0  0  0  0  0  0  0  0  0
  135.4695   70.4323  225.0793 H   0  0  0  0  0  0  0  0  0  0  0  0
  136.1256   68.2422  224.2205 H   0  0  0  0  0  0  0  0  0  0  0  0
  135.9183   69.2552  222.7950 H   0  0  0  0  0  0  0  0  0  0  0  0
  138.5501   68.8205  224.3432 H   0  0  0  0  0  0  0  0  0  0  0  0
  138.1252   68.0787  222.7508 H   0  0  0  0  0  0  0  0  0  0  0  0
  138.6949   69.9224  221.6178 H   0  0  0  0  0  0  0  0  0  0  0  0
  140.3265   69.5999  223.6435 H   0  0  0  0  0  0  0  0  0  0  0  0
  140.4457   70.9313  222.3554 H   0  0  0  0  0  0  0  0  0  0  0  0
  140.7402   72.3008  223.9795 H   0  0  0  0  0  0  0  0  0  0  0  0
  138.9803   72.0598  224.3220 H   0  0  0  0  0  0  0  0  0  0  0  0
  139.8195   68.9789  225.0331 H   0  0  0  0  0  0  0  0  0  0  0  0
  140.3590   68.0026  227.2190 H   0  0  0  0  0  0  0  0  0  0  0  0
  141.1581   69.4466  229.0901 H   0  0  0  0  0  0  0  0  0  0  0  0
  141.4011   71.8958  228.7002 H   0  0  0  0  0  0  0  0  0  0  0  0
  140.8532   72.8666  226.4853 H   0  0  0  0  0  0  0  0  0  0  0  0
  137.7042   76.2316  222.2090 H   0  0  0  0  0  0  0  0  0  0  0  0
  137.6002   78.6256  222.8787 H   0  0  0  0  0  0  0  0  0  0  0  0
  138.7377   80.7189  223.5154 H   0  0  0  0  0  0  0  0  0  0  0  0
  140.8555   81.9298  223.9469 H   0  0  0  0  0  0  0  0  0  0  0  0
  143.0496   80.7571  223.7101 H   0  0  0  0  0  0  0  0  0  0  0  0
  143.0667   78.3573  223.0375 H   0  0  0  0  0  0  0  0  0  0  0  0
  1  2  2  0
  2  3  1  0
  3  4  1  0
  4  5  1  0
  5  6  2  0
  5  7  1  0
  7  8  1  0
  8  9  1  0
  9 10  1  0
 10 11  1  0
 11 12  1  0
 12 13  1  0
 13 14  1  0
 14 15  1  0
 15 16  2  0
 16 17  1  0
 17 18  2  0
 18 19  1  0
 19 20  2  0
  2 21  1  0
 21 22  2  0
 22 23  1  0
 23 24  2  0
 24 25  1  0
 25 26  2  0
 26 27  1  0
 27 28  2  0
 28 29  1  0
 29 30  2  0
 12  7  1  0
 20 15  1  0
 30 21  1  0
 29 24  1  0
  3 31  1  0
  4 32  1  0
  4 33  1  0
  8 34  1  0
  8 35  1  0
  9 36  1  0
  9 37  1  0
 10 38  1  0
 10 39  1  0
 11 40  1  0
 11 41  1  0
 12 42  1  6
 13 43  1  0
 13 44  1  0
 14 45  1  0
 14 46  1  0
 16 47  1  0
 17 48  1  0
 18 49  1  0
 19 50  1  0
 20 51  1  0
 22 52  1  0
 23 53  1  0
 25 54  1  0
 26 55  1  0
 27 56  1  0
 28 57  1  0
M  END
>  <smiles>  (1) 
O=C(NCC(=O)N1CCCCC1CCc1ccccc1)c1ccc2ccccc2n1

>  <score_type>  (1) 
oracle

>  <origin>  (1) 
autodockgpu

>  <m_score__min__energy>  (1) 
-9.2300000000000004

>  <m_primary>  (1) 
energy

>  <rmsd>  (1) 
8.049658048133267

>  <m_score__min__rmsd>  (1) 
8.049658048133267

>  <meeko>  (1) 
{"free_energy": -8.2, "intermolecular_energy": -10.29, "internal_energy": -1.81, "cluster_size": 8, "cluster_id": 2, "rank_in_cluster": 7}

>  <energy>  (1) 
-9.23

>  <cluster_rmsd>  (1) 
0.0

>  <cluster>  (1) 
1

$$$$

     RDKit          3D

 57 60  0  0  0  0  0  0  0  0999 V2000
  141.4810   72.6200  220.7000 O   0  0  0  0  0  0  0  0  0  0  0  0
  140.7580   73.2700  221.5110 C   0  0  0  0  0  0  0  0  0  0  0  0
  139.8900   72.6230  222.4350 N   0  0  0  0  0  0  0  0  0  0  0  0
  139.7870   71.1910  222.4970 C   0  0  0  0  0  0  0  0  0  0  0  0
  138.9280   70.7400  223.6330 C   0  0  0  0  0  0  0  0  0  0  0  0
  138.7130   71.5250  224.6060 O   0  0  0  0  0  0  0  0  0  0  0  0
  138.3770   69.4260  223.5790 N   0  0  0  0  0  0  0  0  0  0  0  0
  137.0330   69.1910  223.0780 C   0  0  0  0  0  0  0  0  0  0  0  0
  136.8430   67.8150  222.4920 C   0  0  0  0  0  0  0  0  0  0  0  0
  138.1880   67.3730  221.9520 C   0  0  0  0  0  0  0  0  0  0  0  0
  139.0210   67.0890  223.1910 C   0  0  0  0  0  0  0  0  0  0  0  0
  139.1840   68.3390  224.0320 C   0  0  2  0  0  0  0  0  0  0  0  0
  139.0460   68.0010  225.4760 C   0  0  0  0  0  0  0  0  0  0  0  0
  140.2650   68.1090  226.3170 C   0  0  0  0  0  0  0  0  0  0  0  0
  140.5090   69.5350  226.7420 C   0  0  0  0  0  0  0  0  0  0  0  0
  141.2210   70.4040  225.9450 C   0  0  0  0  0  0  0  0  0  0  0  0
  141.4490   71.7050  226.3180 C   0  0  0  0  0  0  0  0  0  0  0  0
  140.9660   72.1910  227.5250 C   0  0  0  0  0  0  0  0  0  0  0  0
  140.2490   71.3350  228.3380 C   0  0  0  0  0  0  0  0  0  0  0  0
  140.0250   70.0180  227.9470 C   0  0  0  0  0  0  0  0  0  0  0  0
  140.7950   74.7470  221.5240 C   0  0  0  0  0  0  0  0  0  0  0  0
  141.7640   75.4300  220.8220 C   0  0  0  0  0  0  0  0  0  0  0  0
  141.7550   76.8210  220.8670 C   0  0  0  0  0  0  0  0  0  0  0  0
  140.8130   77.5260  221.5860 C   0  0  0  0  0  0  0  0  0  0  0  0
  140.7830   78.9040  221.6460 C   0  0  0  0  0  0  0  0  0  0  0  0
  139.8080   79.5490  222.3880 C   0  0  0  0  0  0  0  0  0  0  0  0
  138.8480   78.8190  223.0820 C   0  0  0  0  0  0  0  0  0  0  0  0
  138.8920   77.4380  223.0110 C   0  0  0  0  0  0  0  0  0  0  0  0
  139.8690   76.8060  222.2680 C   0  0  0  0  0  0  0  0  0  0  0  0
  139.8840   75.4660  222.2200 N   0  0  0  0  0  0  0  0  0  0  0  0
  139.3110   73.2280  223.0890 H   0  0  0  0  0  0  0  0  0  0  0  0
  139.3514   70.8253  221.5555 H   0  0  0  0  0  0  0  0  0  0  0  0
  140.7971   70.7843  222.6527 H   0  0  0  0  0  0  0  0  0  0  0  0
  136.3242   69.3164  223.9098 H   0  0  0  0  0  0  0  0  0  0  0  0
  136.8576   69.9150  222.2686 H   0  0  0  0  0  0  0  0  0  0  0  0
  136.5007   67.1171  223.2703 H   0  0  0  0  0  0  0  0  0  0  0  0
  136.0857   67.8295  221.6944 H   0  0  0  0  0  0  0  0  0  0  0  0
  138.0817   66.4661  221.3387 H   0  0  0  0  0  0  0  0  0  0  0  0
  138.6485   68.1329  221.3036 H   0  0  0  0  0  0  0  0  0  0  0  0
  138.5214   66.3141  223.7909 H   0  0  0  0  0  0  0  0  0  0  0  0
  140.0171   66.7469  222.8736 H   0  0  0  0  0  0  0  0  0  0  0  0
  140.2053   68.7264  223.9023 H   0  0  0  0  0  0  0  0  0  0  0  0
  138.2886   68.6749  225.9028 H   0  0  0  0  0  0  0  0  0  0  0  0
  138.7826   66.9331  225.4937 H   0  0  0  0  0  0  0  0  0  0  0  0
  140.1392   67.4839  227.2133 H   0  0  0  0  0  0  0  0  0  0  0  0
  141.1278   67.7691  225.7254 H   0  0  0  0  0  0  0  0  0  0  0  0
  141.6176   70.0456  224.9836 H   0  0  0  0  0  0  0  0  0  0  0  0
  142.0206   72.3695  225.6533 H   0  0  0  0  0  0  0  0  0  0  0  0
  141.1498   73.2327  227.8268 H   0  0  0  0  0  0  0  0  0  0  0  0
  139.8532   71.6957  229.2988 H   0  0  0  0  0  0  0  0  0  0  0  0
  139.4534   69.3486  228.6067 H   0  0  0  0  0  0  0  0  0  0  0  0
  142.5255   74.8895  220.2407 H   0  0  0  0  0  0  0  0  0  0  0  0
  142.5246   77.3762  220.3107 H   0  0  0  0  0  0  0  0  0  0  0  0
  141.5366   79.4926  221.1022 H   0  0  0  0  0  0  0  0  0  0  0  0
  139.7922   80.6481  222.4292 H   0  0  0  0  0  0  0  0  0  0  0  0
  138.0724   79.3279  223.6732 H   0  0  0  0  0  0  0  0  0  0  0  0
  138.1432   76.8393  223.5504 H   0  0  0  0  0  0  0  0  0  0  0  0
  1  2  2  0
  2  3  1  0
  3  4  1  0
  4  5  1  0
  5  6  2  0
  5  7  1  0
  7  8  1  0
  8  9  1  0
  9 10  1  0
 10 11  1  0
 11 12  1  0
 12 13  1  0
 13 14  1  0
 14 15  1  0
 15 16  2  0
 16 17  1  0
 17 18  2  0
 18 19  1  0
 19 20  2  0
  2 21  1  0
 21 22  2  0
 22 23  1  0
 23 24  2  0
 24 25  1  0
 25 26  2  0
 26 27  1  0
 27 28  2  0
 28 29  1  0
 29 30  2  0
 12  7  1  0
 20 15  1  0
 30 21  1  0
 29 24  1  0
  3 31  1  0
  4 32  1  0
  4 33  1  0
  8 34  1  0
  8 35  1  0
  9 36  1  0
  9 37  1  0
 10 38  1  0
 10 39  1  0
 11 40  1  0
 11 41  1  0
 12 42  1  1
 13 43  1  0
 13 44  1  0
 14 45  1  0
 14 46  1  0
 16 47  1  0
 17 48  1  0
 18 49  1  0
 19 50  1  0
 20 51  1  0
 22 52  1  0
 23 53  1  0
 25 54  1  0
 26 55  1  0
 27 56  1  0
 28 57  1  0
M  END
>  <smiles>  (2) 
O=C(NCC(=O)N1CCCCC1CCc1ccccc1)c1ccc2ccccc2n1

>  <score_type>  (2) 
oracle

>  <origin>  (2) 
autodockgpu

>  <m_score__min__energy>  (2) 
-9.2300000000000004

>  <m_primary>  (2) 
energy

>  <rmsd>  (2) 
8.428243883522157

>  <m_score__min__rmsd>  (2) 
8.428243883522157

>  <meeko>  (2) 
{"free_energy": -8.06, "intermolecular_energy": -10.15, "internal_energy": -2.47, "cluster_size": 8, "cluster_id": 2, "rank_in_cluster": 8}

>  <energy>  (2) 
-9.22

>  <cluster_rmsd>  (2) 
0.36

>  <cluster>  (2) 
1

$$$$

     RDKit          3D

 57 60  0  0  0  0  0  0  0  0999 V2000
  141.5260   71.9370  221.6260 O   0  0  0  0  0  0  0  0  0  0  0  0
  140.5730   72.2720  222.3900 C   0  0  0  0  0  0  0  0  0  0  0  0
  139.7450   73.3970  222.1170 N   0  0  0  0  0  0  0  0  0  0  0  0
  139.9470   74.2170  220.9540 C   0  0  0  0  0  0  0  0  0  0  0  0
  140.9310   75.3130  221.2050 C   0  0  0  0  0  0  0  0  0  0  0  0
  141.0620   75.7790  222.3780 O   0  0  0  0  0  0  0  0  0  0  0  0
  141.6940   75.7970  220.1030 N   0  0  0  0  0  0  0  0  0  0  0  0
  143.0400   75.3130  219.8450 C   0  0  0  0  0  0  0  0  0  0  0  0
  143.4390   75.3940  218.3930 C   0  0  0  0  0  0  0  0  0  0  0  0
  142.1710   75.2620  217.5760 C   0  0  0  0  0  0  0  0  0  0  0  0
  141.4410   76.5780  217.7890 C   0  0  0  0  0  0  0  0  0  0  0  0
  141.0990   76.7760  219.2520 C   0  0  2  0  0  0  0  0  0  0  0  0
  141.3420   78.1930  219.6430 C   0  0  0  0  0  0  0  0  0  0  0  0
  140.4200   78.7890  220.6440 C   0  0  0  0  0  0  0  0  0  0  0  0
  141.1760   79.2840  221.8520 C   0  0  0  0  0  0  0  0  0  0  0  0
  141.1140   78.6140  223.0530 C   0  0  0  0  0  0  0  0  0  0  0  0
  141.7980   79.0530  224.1610 C   0  0  0  0  0  0  0  0  0  0  0  0
  142.5800   80.1980  224.1030 C   0  0  0  0  0  0  0  0  0  0  0  0
  142.6540   80.8820  222.9060 C   0  0  0  0  0  0  0  0  0  0  0  0
  141.9570   80.4270  221.7910 C   0  0  0  0  0  0  0  0  0  0  0  0
  140.2870   71.4910  223.6110 C   0  0  0  0  0  0  0  0  0  0  0  0
  139.5450   70.3310  223.5440 C   0  0  0  0  0  0  0  0  0  0  0  0
  139.3030   69.6320  224.7230 C   0  0  0  0  0  0  0  0  0  0  0  0
  139.7800   70.0640  225.9420 C   0  0  0  0  0  0  0  0  0  0  0  0
  139.5540   69.3890  227.1250 C   0  0  0  0  0  0  0  0  0  0  0  0
  140.0630   69.8790  228.3150 C   0  0  0  0  0  0  0  0  0  0  0  0
  140.8060   71.0550  228.3380 C   0  0  0  0  0  0  0  0  0  0  0  0
  141.0240   71.7190  227.1430 C   0  0  0  0  0  0  0  0  0  0  0  0
  140.5120   71.2210  225.9620 C   0  0  0  0  0  0  0  0  0  0  0  0
  140.7400   71.8880  224.8220 N   0  0  0  0  0  0  0  0  0  0  0  0
  138.9630   73.6230  222.7990 H   0  0  0  0  0  0  0  0  0  0  0  0
  140.3207   73.5852  220.1347 H   0  0  0  0  0  0  0  0  0  0  0  0
  138.9835   74.6791  220.6930 H   0  0  0  0  0  0  0  0  0  0  0  0
  143.7461   75.9162  220.4345 H   0  0  0  0  0  0  0  0  0  0  0  0
  143.0622   74.2504  220.1284 H   0  0  0  0  0  0  0  0  0  0  0  0
  143.9216   76.3609  218.1875 H   0  0  0  0  0  0  0  0  0  0  0  0
  144.1542   74.5981  218.1380 H   0  0  0  0  0  0  0  0  0  0  0  0
  142.4078   75.1168  216.5117 H   0  0  0  0  0  0  0  0  0  0  0  0
  141.5664   74.3948  217.8801 H   0  0  0  0  0  0  0  0  0  0  0  0
  142.0845   77.4051  217.4544 H   0  0  0  0  0  0  0  0  0  0  0  0
  140.5065   76.5594  217.2090 H   0  0  0  0  0  0  0  0  0  0  0  0
  140.0231   76.5965  219.3944 H   0  0  0  0  0  0  0  0  0  0  0  0
  142.3604   78.2527  220.0544 H   0  0  0  0  0  0  0  0  0  0  0  0
  141.1755   78.7733  218.7235 H   0  0  0  0  0  0  0  0  0  0  0  0
  139.8867   79.6335  220.1831 H   0  0  0  0  0  0  0  0  0  0  0  0
  139.7099   78.0145  220.9695 H   0  0  0  0  0  0  0  0  0  0  0  0
  140.5011   77.7037  223.1276 H   0  0  0  0  0  0  0  0  0  0  0  0
  141.7249   78.4910  225.1038 H   0  0  0  0  0  0  0  0  0  0  0  0
  143.1275   80.5519  224.9890 H   0  0  0  0  0  0  0  0  0  0  0  0
  143.2676   81.7921  222.8334 H   0  0  0  0  0  0  0  0  0  0  0  0
  142.0272   80.9841  220.8451 H   0  0  0  0  0  0  0  0  0  0  0  0
  139.1539   69.9669  222.5825 H   0  0  0  0  0  0  0  0  0  0  0  0
  138.7121   68.7051  224.6807 H   0  0  0  0  0  0  0  0  0  0  0  0
  138.9673   68.4585  227.1217 H   0  0  0  0  0  0  0  0  0  0  0  0
  139.8783   69.3332  229.2520 H   0  0  0  0  0  0  0  0  0  0  0  0
  141.2104   71.4476  229.2826 H   0  0  0  0  0  0  0  0  0  0  0  0
  141.6095   72.6502  227.1347 H   0  0  0  0  0  0  0  0  0  0  0  0
  1  2  2  0
  2  3  1  0
  3  4  1  0
  4  5  1  0
  5  6  2  0
  5  7  1  0
  7  8  1  0
  8  9  1  0
  9 10  1  0
 10 11  1  0
 11 12  1  0
 12 13  1  0
 13 14  1  0
 14 15  1  0
 15 16  2  0
 16 17  1  0
 17 18  2  0
 18 19  1  0
 19 20  2  0
  2 21  1  0
 21 22  2  0
 22 23  1  0
 23 24  2  0
 24 25  1  0
 25 26  2  0
 26 27  1  0
 27 28  2  0
 28 29  1  0
 29 30  2  0
 12  7  1  0
 20 15  1  0
 30 21  1  0
 29 24  1  0
  3 31  1  0
  4 32  1  0
  4 33  1  0
  8 34  1  0
  8 35  1  0
  9 36  1  0
  9 37  1  0
 10 38  1  0
 10 39  1  0
 11 40  1  0
 11 41  1  0
 12 42  1  6
 13 43  1  0
 13 44  1  0
 14 45  1  0
 14 46  1  0
 16 47  1  0
 17 48  1  0
 18 49  1  0
 19 50  1  0
 20 51  1  0
 22 52  1  0
 23 53  1  0
 25 54  1  0
 26 55  1  0
 27 56  1  0
 28 57  1  0
M  END
>  <smiles>  (3) 
O=C(NCC(=O)N1CCCCC1CCc1ccccc1)c1ccc2ccccc2n1

>  <score_type>  (3) 
oracle

>  <origin>  (3) 
autodockgpu

>  <m_score__min__energy>  (3) 
-9.2300000000000004

>  <m_primary>  (3) 
energy

>  <rmsd>  (3) 
2.18952551665673

>  <m_score__min__rmsd>  (3) 
2.18952551665673

>  <meeko>  (3) 
{"free_energy": -9.1, "intermolecular_energy": -11.19, "internal_energy": -1.63, "cluster_size": 40, "cluster_id": 1, "rank_in_cluster": 5}

>  <energy>  (3) 
-9.22

>  <cluster_rmsd>  (3) 
1.57

>  <cluster>  (3) 
1

$$$$

     RDKit          3D

 57 60  0  0  0  0  0  0  0  0999 V2000
  137.1440   76.6970  222.1070 O   0  0  0  0  0  0  0  0  0  0  0  0
  138.3840   76.6700  222.3630 C   0  0  0  0  0  0  0  0  0  0  0  0
  139.1440   75.4690  222.2890 N   0  0  0  0  0  0  0  0  0  0  0  0
  138.5420   74.2170  221.9190 C   0  0  0  0  0  0  0  0  0  0  0  0
  139.5180   73.0870  221.9770 C   0  0  0  0  0  0  0  0  0  0  0  0
  140.7110   73.3090  222.3460 O   0  0  0  0  0  0  0  0  0  0  0  0
  139.0630   71.7860  221.6130 N   0  0  0  0  0  0  0  0  0  0  0  0
  137.9050   71.6040  220.7530 C   0  0  0  0  0  0  0  0  0  0  0  0
  137.9390   70.3190  219.9660 C   0  0  0  0  0  0  0  0  0  0  0  0
  139.3960   69.9730  219.7420 C   0  0  0  0  0  0  0  0  0  0  0  0
  139.8970   69.5330  221.1080 C   0  0  0  0  0  0  0  0  0  0  0  0
  139.7780   70.6580  222.1160 C   0  0  2  0  0  0  0  0  0  0  0  0
  139.2920   70.1240  223.4190 C   0  0  0  0  0  0  0  0  0  0  0  0
  139.3350   71.0410  224.5870 C   0  0  0  0  0  0  0  0  0  0  0  0
  139.9410   70.3620  225.7890 C   0  0  0  0  0  0  0  0  0  0  0  0
  140.4440   71.0940  226.8420 C   0  0  0  0  0  0  0  0  0  0  0  0
  140.9970   70.4880  227.9430 C   0  0  0  0  0  0  0  0  0  0  0  0
  141.0690   69.1060  228.0300 C   0  0  0  0  0  0  0  0  0  0  0  0
  140.5700   68.3550  226.9840 C   0  0  0  0  0  0  0  0  0  0  0  0
  140.0110   68.9810  225.8740 C   0  0  0  0  0  0  0  0  0  0  0  0
  139.0910   77.9060  222.7530 C   0  0  0  0  0  0  0  0  0  0  0  0
  138.3880   79.0180  223.1620 C   0  0  0  0  0  0  0  0  0  0  0  0
  139.1020   80.1580  223.5190 C   0  0  0  0  0  0  0  0  0  0  0  0
  140.4790   80.2050  223.4730 C   0  0  0  0  0  0  0  0  0  0  0  0
  141.2100   81.3220  223.8210 C   0  0  0  0  0  0  0  0  0  0  0  0
  142.5930   81.3000  223.7520 C   0  0  0  0  0  0  0  0  0  0  0  0
  143.2640   80.1560  223.3320 C   0  0  0  0  0  0  0  0  0  0  0  0
  142.5160   79.0440  222.9870 C   0  0  0  0  0  0  0  0  0  0  0  0
  141.1380   79.0770  223.0600 C   0  0  0  0  0  0  0  0  0  0  0  0
  140.4420   77.9830  222.7180 N   0  0  0  0  0  0  0  0  0  0  0  0
  140.1800   75.5150  222.5170 H   0  0  0  0  0  0  0  0  0  0  0  0
  137.7118   74.0048  222.6087 H   0  0  0  0  0  0  0  0  0  0  0  0
  138.1858   74.3050  220.8820 H   0  0  0  0  0  0  0  0  0  0  0  0
  137.0014   71.6047  221.3803 H   0  0  0  0  0  0  0  0  0  0  0  0
  137.9077   72.4297  220.0262 H   0  0  0  0  0  0  0  0  0  0  0  0
  137.4433   69.5166  220.5320 H   0  0  0  0  0  0  0  0  0  0  0  0
  137.4116   70.4327  219.0074 H   0  0  0  0  0  0  0  0  0  0  0  0
  139.4939   69.1572  219.0106 H   0  0  0  0  0  0  0  0  0  0  0  0
  139.9700   70.8204  219.3390 H   0  0  0  0  0  0  0  0  0  0  0  0
  139.2989   68.6764  221.4522 H   0  0  0  0  0  0  0  0  0  0  0  0
  140.9566   69.2512  221.0195 H   0  0  0  0  0  0  0  0  0  0  0  0
  140.7786   71.0730  222.3071 H   0  0  0  0  0  0  0  0  0  0  0  0
  138.2458   69.8139  223.2801 H   0  0  0  0  0  0  0  0  0  0  0  0
  139.9897   69.3116  223.6705 H   0  0  0  0  0  0  0  0  0  0  0  0
  139.9403   71.9226  224.3294 H   0  0  0  0  0  0  0  0  0  0  0  0
  138.3055   71.3378  224.8359 H   0  0  0  0  0  0  0  0  0  0  0  0
  140.4015   72.1924  226.7997 H   0  0  0  0  0  0  0  0  0  0  0  0
  141.3873   71.1058  228.7652 H   0  0  0  0  0  0  0  0  0  0  0  0
  141.5129   68.6195  228.9111 H   0  0  0  0  0  0  0  0  0  0  0  0
  140.6146   67.2568  227.0285 H   0  0  0  0  0  0  0  0  0  0  0  0
  139.6177   68.3684  225.0494 H   0  0  0  0  0  0  0  0  0  0  0  0
  137.2889   79.0051  223.2053 H   0  0  0  0  0  0  0  0  0  0  0  0
  138.5497   81.0504  223.8485 H   0  0  0  0  0  0  0  0  0  0  0  0
  140.6925   82.2335  224.1545 H   0  0  0  0  0  0  0  0  0  0  0  0
  143.1666   82.1959  224.0320 H   0  0  0  0  0  0  0  0  0  0  0  0
  144.3624   80.1358  223.2755 H   0  0  0  0  0  0  0  0  0  0  0  0
  143.0233   78.1272  222.6522 H   0  0  0  0  0  0  0  0  0  0  0  0
  1  2  2  0
  2  3  1  0
  3  4  1  0
  4  5  1  0
  5  6  2  0
  5  7  1  0
  7  8  1  0
  8  9  1  0
  9 10  1  0
 10 11  1  0
 11 12  1  0
 12 13  1  0
 13 14  1  0
 14 15  1  0
 15 16  2  0
 16 17  1  0
 17 18  2  0
 18 19  1  0
 19 20  2  0
  2 21  1  0
 21 22  2  0
 22 23  1  0
 23 24  2  0
 24 25  1  0
 25 26  2  0
 26 27  1  0
 27 28  2  0
 28 29  1  0
 29 30  2  0
 12  7  1  0
 20 15  1  0
 30 21  1  0
 29 24  1  0
  3 31  1  0
  4 32  1  0
  4 33  1  0
  8 34  1  0
  8 35  1  0
  9 36  1  0
  9 37  1  0
 10 38  1  0
 10 39  1  0
 11 40  1  0
 11 41  1  0
 12 42  1  1
 13 43  1  0
 13 44  1  0
 14 45  1  0
 14 46  1  0
 16 47  1  0
 17 48  1  0
 18 49  1  0
 19 50  1  0
 20 51  1  0
 22 52  1  0
 23 53  1  0
 25 54  1  0
 26 55  1  0
 27 56  1  0
 28 57  1  0
M  END
>  <smiles>  (4) 
O=C(NCC(=O)N1CCCCC1CCc1ccccc1)c1ccc2ccccc2n1

>  <score_type>  (4) 
oracle

>  <origin>  (4) 
autodockgpu

>  <m_score__min__energy>  (4) 
-9.2300000000000004

>  <m_primary>  (4) 
energy

>  <rmsd>  (4) 
8.19318181192344

>  <m_score__min__rmsd>  (4) 
8.19318181192344

>  <meeko>  (4) 
{"free_energy": -8.29, "intermolecular_energy": -10.38, "internal_energy": -2.06, "cluster_size": 8, "cluster_id": 2, "rank_in_cluster": 6}

>  <energy>  (4) 
-9.2

>  <cluster_rmsd>  (4) 
1.23

>  <cluster>  (4) 
1

$$$$

     RDKit          3D

 57 60  0  0  0  0  0  0  0  0999 V2000
  138.7770   70.7500  221.4210 O   0  0  0  0  0  0  0  0  0  0  0  0
  139.0870   71.4700  222.4160 C   0  0  0  0  0  0  0  0  0  0  0  0
  139.0920   72.8910  222.3470 N   0  0  0  0  0  0  0  0  0  0  0  0
  138.7450   73.5890  221.1390 C   0  0  0  0  0  0  0  0  0  0  0  0
  139.8390   73.5310  220.1240 C   0  0  0  0  0  0  0  0  0  0  0  0
  139.5870   73.1080  218.9550 O   0  0  0  0  0  0  0  0  0  0  0  0
  141.1420   73.9600  220.5130 N   0  0  0  0  0  0  0  0  0  0  0  0
  142.1910   73.0030  220.8230 C   0  0  0  0  0  0  0  0  0  0  0  0
  143.5800   73.5370  220.5810 C   0  0  0  0  0  0  0  0  0  0  0  0
  143.4760   74.5600  219.4680 C   0  0  0  0  0  0  0  0  0  0  0  0
  142.7750   75.7480  220.1060 C   0  0  0  0  0  0  0  0  0  0  0  0
  141.3920   75.3630  220.5920 C   0  0  2  0  0  0  0  0  0  0  0  0
  141.1280   75.9840  221.9200 C   0  0  0  0  0  0  0  0  0  0  0  0
  140.2800   77.2040  221.9430 C   0  0  0  0  0  0  0  0  0  0  0  0
  141.0910   78.4230  222.3040 C   0  0  0  0  0  0  0  0  0  0  0  0
  141.5420   78.6230  223.5890 C   0  0  0  0  0  0  0  0  0  0  0  0
  142.2810   79.7280  223.9320 C   0  0  0  0  0  0  0  0  0  0  0  0
  142.6000   80.6890  222.9830 C   0  0  0  0  0  0  0  0  0  0  0  0
  142.1570   80.5050  221.6880 C   0  0  0  0  0  0  0  0  0  0  0  0
  141.4080   79.3810  221.3540 C   0  0  0  0  0  0  0  0  0  0  0  0
  139.4590   70.8450  223.7010 C   0  0  0  0  0  0  0  0  0  0  0  0
  139.2840   69.4930  223.9010 C   0  0  0  0  0  0  0  0  0  0  0  0
  139.6500   68.9530  225.1300 C   0  0  0  0  0  0  0  0  0  0  0  0
  140.1770   69.7260  226.1420 C   0  0  0  0  0  0  0  0  0  0  0  0
  140.5480   69.2150  227.3700 C   0  0  0  0  0  0  0  0  0  0  0  0
  141.0720   70.0490  228.3430 C   0  0  0  0  0  0  0  0  0  0  0  0
  141.2310   71.4090  228.1000 C   0  0  0  0  0  0  0  0  0  0  0  0
  140.8550   71.9050  226.8640 C   0  0  0  0  0  0  0  0  0  0  0  0
  140.3340   71.0650  225.9010 C   0  0  0  0  0  0  0  0  0  0  0  0
  139.9780   71.5770  224.7140 N   0  0  0  0  0  0  0  0  0  0  0  0
  139.3620   73.4360  223.2180 H   0  0  0  0  0  0  0  0  0  0  0  0
  137.8402   73.1316  220.7122 H   0  0  0  0  0  0  0  0  0  0  0  0
  138.5749   74.6453  221.3945 H   0  0  0  0  0  0  0  0  0  0  0  0
  142.1051   72.7229  221.8833 H   0  0  0  0  0  0  0  0  0  0  0  0
  142.0531   72.1418  220.1526 H   0  0  0  0  0  0  0  0  0  0  0  0
  143.9664   74.0117  221.4950 H   0  0  0  0  0  0  0  0  0  0  0  0
  144.2689   72.7254  220.3039 H   0  0  0  0  0  0  0  0  0  0  0  0
  144.4754   74.8458  219.1082 H   0  0  0  0  0  0  0  0  0  0  0  0
  142.9310   74.1730  218.5943 H   0  0  0  0  0  0  0  0  0  0  0  0
  143.3712   76.1019  220.9600 H   0  0  0  0  0  0  0  0  0  0  0  0
  142.6740   76.5427  219.3522 H   0  0  0  0  0  0  0  0  0  0  0  0
  140.6431   75.7802  219.9027 H   0  0  0  0  0  0  0  0  0  0  0  0
  140.6352   75.2266  222.5473 H   0  0  0  0  0  0  0  0  0  0  0  0
  142.1134   76.3170  222.2780 H   0  0  0  0  0  0  0  0  0  0  0  0
  139.8347   77.3507  220.9479 H   0  0  0  0  0  0  0  0  0  0  0  0
  139.4953   77.0694  222.7020 H   0  0  0  0  0  0  0  0  0  0  0  0
  141.3039   77.8774  224.3619 H   0  0  0  0  0  0  0  0  0  0  0  0
  142.6238   79.8529  224.9697 H   0  0  0  0  0  0  0  0  0  0  0  0
  143.1913   81.5756  223.2556 H   0  0  0  0  0  0  0  0  0  0  0  0
  142.3976   81.2511  220.9164 H   0  0  0  0  0  0  0  0  0  0  0  0
  141.0615   79.2505  220.3182 H   0  0  0  0  0  0  0  0  0  0  0  0
  138.8650   68.8559  223.1082 H   0  0  0  0  0  0  0  0  0  0  0  0
  139.5144   67.8746  225.2993 H   0  0  0  0  0  0  0  0  0  0  0  0
  140.4268   68.1413  227.5760 H   0  0  0  0  0  0  0  0  0  0  0  0
  141.3654   69.6319  229.3176 H   0  0  0  0  0  0  0  0  0  0  0  0
  141.6456   72.0744  228.8716 H   0  0  0  0  0  0  0  0  0  0  0  0
  140.9723   72.9771  226.6475 H   0  0  0  0  0  0  0  0  0  0  0  0
  1  2  2  0
  2  3  1  0
  3  4  1  0
  4  5  1  0
  5  6  2  0
  5  7  1  0
  7  8  1  0
  8  9  1  0
  9 10  1  0
 10 11  1  0
 11 12  1  0
 12 13  1  0
 13 14  1  0
 14 15  1  0
 15 16  2  0
 16 17  1  0
 17 18  2  0
 18 19  1  0
 19 20  2  0
  2 21  1  0
 21 22  2  0
 22 23  1  0
 23 24  2  0
 24 25  1  0
 25 26  2  0
 26 27  1  0
 27 28  2  0
 28 29  1  0
 29 30  2  0
 12  7  1  0
 20 15  1  0
 30 21  1  0
 29 24  1  0
  3 31  1  0
  4 32  1  0
  4 33  1  0
  8 34  1  0
  8 35  1  0
  9 36  1  0
  9 37  1  0
 10 38  1  0
 10 39  1  0
 11 40  1  0
 11 41  1  0
 12 42  1  6
 13 43  1  0
 13 44  1  0
 14 45  1  0
 14 46  1  0
 16 47  1  0
 17 48  1  0
 18 49  1  0
 19 50  1  0
 20 51  1  0
 22 52  1  0
 23 53  1  0
 25 54  1  0
 26 55  1  0
 27 56  1  0
 28 57  1  0
M  END
>  <smiles>  (5) 
O=C(NCC(=O)N1CCCCC1CCc1ccccc1)c1ccc2ccccc2n1

>  <score_type>  (5) 
oracle

>  <origin>  (5) 
autodockgpu

>  <m_score__min__energy>  (5) 
-9.2300000000000004

>  <m_primary>  (5) 
energy

>  <rmsd>  (5) 
2.6059412648074116

>  <m_score__min__rmsd>  (5) 
2.6059412648074116

>  <meeko>  (5) 
{"free_energy": -8.93, "intermolecular_energy": -11.02, "internal_energy": -1.96, "cluster_size": 40, "cluster_id": 1, "rank_in_cluster": 13}

>  <energy>  (5) 
-9.1

>  <cluster_rmsd>  (5) 
0.57

>  <cluster>  (5) 
1

$$$$

     RDKit          3D

 57 60  0  0  0  0  0  0  0  0999 V2000
  140.6770   71.4370  221.2800 O   0  0  0  0  0  0  0  0  0  0  0  0
  140.2520   72.0100  222.3270 C   0  0  0  0  0  0  0  0  0  0  0  0
  139.9150   73.3920  222.3480 N   0  0  0  0  0  0  0  0  0  0  0  0
  140.0410   74.2170  221.1780 C   0  0  0  0  0  0  0  0  0  0  0  0
  140.2370   75.6570  221.5250 C   0  0  0  0  0  0  0  0  0  0  0  0
  139.9310   76.0680  222.6850 O   0  0  0  0  0  0  0  0  0  0  0  0
  140.7700   76.5230  220.5260 N   0  0  0  0  0  0  0  0  0  0  0  0
  142.1800   76.4950  220.1750 C   0  0  0  0  0  0  0  0  0  0  0  0
  142.4560   76.9380  218.7610 C   0  0  0  0  0  0  0  0  0  0  0  0
  141.2300   76.5940  217.9400 C   0  0  0  0  0  0  0  0  0  0  0  0
  140.1750   77.5890  218.3960 C   0  0  0  0  0  0  0  0  0  0  0  0
  139.8770   77.4240  219.8720 C   0  0  2  0  0  0  0  0  0  0  0  0
  139.7370   78.7610  220.5150 C   0  0  0  0  0  0  0  0  0  0  0  0
  139.6390   78.7950  221.9970 C   0  0  0  0  0  0  0  0  0  0  0  0
  140.8190   79.5130  222.6030 C   0  0  0  0  0  0  0  0  0  0  0  0
  140.6410   80.5800  223.4560 C   0  0  0  0  0  0  0  0  0  0  0  0
  141.7050   81.2420  224.0160 C   0  0  0  0  0  0  0  0  0  0  0  0
  143.0080   80.8550  223.7360 C   0  0  0  0  0  0  0  0  0  0  0  0
  143.2060   79.7870  222.8830 C   0  0  0  0  0  0  0  0  0  0  0  0
  142.1180   79.1240  222.3220 C   0  0  0  0  0  0  0  0  0  0  0  0
  140.0900   71.2460  223.5800 C   0  0  0  0  0  0  0  0  0  0  0  0
  139.5300   69.9870  223.5670 C   0  0  0  0  0  0  0  0  0  0  0  0
  139.3990   69.3090  224.7760 C   0  0  0  0  0  0  0  0  0  0  0  0
  139.8110   69.8560  225.9720 C   0  0  0  0  0  0  0  0  0  0  0  0
  139.6930   69.2040  227.1830 C   0  0  0  0  0  0  0  0  0  0  0  0
  140.1280   69.8120  228.3470 C   0  0  0  0  0  0  0  0  0  0  0  0
  140.6890   71.0850  228.3160 C   0  0  0  0  0  0  0  0  0  0  0  0
  140.8000   71.7250  227.0940 C   0  0  0  0  0  0  0  0  0  0  0  0
  140.3630   71.1090  225.9380 C   0  0  0  0  0  0  0  0  0  0  0  0
  140.4850   71.7550  224.7700 N   0  0  0  0  0  0  0  0  0  0  0  0
  139.5650   73.8100  223.2600 H   0  0  0  0  0  0  0  0  0  0  0  0
  140.9059   73.8723  220.5922 H   0  0  0  0  0  0  0  0  0  0  0  0
  139.1086   74.1312  220.6006 H   0  0  0  0  0  0  0  0  0  0  0  0
  142.7230   77.1617  220.8611 H   0  0  0  0  0  0  0  0  0  0  0  0
  142.5136   75.4501  220.2579 H   0  0  0  0  0  0  0  0  0  0  0  0
  142.6364   78.0228  218.7337 H   0  0  0  0  0  0  0  0  0  0  0  0
  143.3493   76.4363  218.3605 H   0  0  0  0  0  0  0  0  0  0  0  0
  141.4361   76.7108  216.8658 H   0  0  0  0  0  0  0  0  0  0  0  0
  140.9105   75.5511  218.0822 H   0  0  0  0  0  0  0  0  0  0  0  0
  140.5412   78.6103  218.2147 H   0  0  0  0  0  0  0  0  0  0  0  0
  139.2507   77.4053  217.8286 H   0  0  0  0  0  0  0  0  0  0  0  0
  138.9041   76.9234  219.9851 H   0  0  0  0  0  0  0  0  0  0  0  0
  140.6138   79.3598  220.2276 H   0  0  0  0  0  0  0  0  0  0  0  0
  138.7709   79.1473  220.1581 H   0  0  0  0  0  0  0  0  0  0  0  0
  138.7145   79.3174  222.2840 H   0  0  0  0  0  0  0  0  0  0  0  0
  139.6303   77.7603  222.3703 H   0  0  0  0  0  0  0  0  0  0  0  0
  139.6192   80.9102  223.6946 H   0  0  0  0  0  0  0  0  0  0  0  0
  141.5229   82.0886  224.6943 H   0  0  0  0  0  0  0  0  0  0  0  0
  143.8619   81.3857  224.1823 H   0  0  0  0  0  0  0  0  0  0  0  0
  144.2286   79.4586  222.6457 H   0  0  0  0  0  0  0  0  0  0  0  0
  142.2933   78.2761  221.6435 H   0  0  0  0  0  0  0  0  0  0  0  0
  139.1948   69.5290  222.6248 H   0  0  0  0  0  0  0  0  0  0  0  0
  138.9521   68.3039  224.7766 H   0  0  0  0  0  0  0  0  0  0  0  0
  139.2514   68.1973  227.2226 H   0  0  0  0  0  0  0  0  0  0  0  0
  140.0294   69.2837  229.3068 H   0  0  0  0  0  0  0  0  0  0  0  0
  141.0357   71.5707  229.2401 H   0  0  0  0  0  0  0  0  0  0  0  0
  141.2397   72.7320  227.0432 H   0  0  0  0  0  0  0  0  0  0  0  0
  1  2  2  0
  2  3  1  0
  3  4  1  0
  4  5  1  0
  5  6  2  0
  5  7  1  0
  7  8  1  0
  8  9  1  0
  9 10  1  0
 10 11  1  0
 11 12  1  0
 12 13  1  0
 13 14  1  0
 14 15  1  0
 15 16  2  0
 16 17  1  0
 17 18  2  0
 18 19  1  0
 19 20  2  0
  2 21  1  0
 21 22  2  0
 22 23  1  0
 23 24  2  0
 24 25  1  0
 25 26  2  0
 26 27  1  0
 27 28  2  0
 28 29  1  0
 29 30  2  0
 12  7  1  0
 20 15  1  0
 30 21  1  0
 29 24  1  0
  3 31  1  0
  4 32  1  0
  4 33  1  0
  8 34  1  0
  8 35  1  0
  9 36  1  0
  9 37  1  0
 10 38  1  0
 10 39  1  0
 11 40  1  0
 11 41  1  0
 12 42  1  6
 13 43  1  0
 13 44  1  0
 14 45  1  0
 14 46  1  0
 16 47  1  0
 17 48  1  0
 18 49  1  0
 19 50  1  0
 20 51  1  0
 22 52  1  0
 23 53  1  0
 25 54  1  0
 26 55  1  0
 27 56  1  0
 28 57  1  0
M  END
>  <smiles>  (6) 
O=C(NCC(=O)N1CCCCC1CCc1ccccc1)c1ccc2ccccc2n1

>  <score_type>  (6) 
oracle

>  <origin>  (6) 
autodockgpu

>  <m_score__min__energy>  (6) 
-9.2300000000000004

>  <m_primary>  (6) 
energy

>  <rmsd>  (6) 
2.175031053307662

>  <m_score__min__rmsd>  (6) 
2.175031053307662

>  <meeko>  (6) 
{"free_energy": -8.89, "intermolecular_energy": -10.98, "internal_energy": -2.02, "cluster_size": 40, "cluster_id": 1, "rank_in_cluster": 18}

>  <energy>  (6) 
-9.09

>  <cluster_rmsd>  (6) 
1.05

>  <cluster>  (6) 
1

$$$$

     RDKit          3D

 57 60  0  0  0  0  0  0  0  0999 V2000
  139.0940   71.0390  221.3420 O   0  0  0  0  0  0  0  0  0  0  0  0
  139.3660   71.7330  222.3660 C   0  0  0  0  0  0  0  0  0  0  0  0
  139.3920   73.1550  222.3310 N   0  0  0  0  0  0  0  0  0  0  0  0
  139.1100   73.8850  221.1260 C   0  0  0  0  0  0  0  0  0  0  0  0
  140.2450   73.8280  220.1570 C   0  0  0  0  0  0  0  0  0  0  0  0
  140.1520   73.0970  219.1250 O   0  0  0  0  0  0  0  0  0  0  0  0
  141.4050   74.6100  220.4340 N   0  0  0  0  0  0  0  0  0  0  0  0
  142.7250   74.0050  220.5020 C   0  0  0  0  0  0  0  0  0  0  0  0
  143.8410   74.9590  220.1580 C   0  0  0  0  0  0  0  0  0  0  0  0
  143.2720   75.9780  219.1920 C   0  0  0  0  0  0  0  0  0  0  0  0
  142.3540   76.8400  220.0430 C   0  0  0  0  0  0  0  0  0  0  0  0
  141.2370   76.0120  220.6440 C   0  0  2  0  0  0  0  0  0  0  0  0
  141.0030   76.4210  222.0570 C   0  0  0  0  0  0  0  0  0  0  0  0
  140.0990   77.5760  222.2890 C   0  0  0  0  0  0  0  0  0  0  0  0
  140.8690   78.7840  222.7600 C   0  0  0  0  0  0  0  0  0  0  0  0
  142.2320   78.8710  222.5880 C   0  0  0  0  0  0  0  0  0  0  0  0
  142.9460   79.9650  223.0110 C   0  0  0  0  0  0  0  0  0  0  0  0
  142.3080   81.0280  223.6340 C   0  0  0  0  0  0  0  0  0  0  0  0
  140.9410   80.9590  223.8160 C   0  0  0  0  0  0  0  0  0  0  0  0
  140.2300   79.8450  223.3810 C   0  0  0  0  0  0  0  0  0  0  0  0
  139.6710   71.0730  223.6520 C   0  0  0  0  0  0  0  0  0  0  0  0
  139.4360   69.7260  223.8230 C   0  0  0  0  0  0  0  0  0  0  0  0
  139.7400   69.1520  225.0540 C   0  0  0  0  0  0  0  0  0  0  0  0
  140.2630   69.8880  226.0960 C   0  0  0  0  0  0  0  0  0  0  0  0
  140.5730   69.3430  227.3260 C   0  0  0  0  0  0  0  0  0  0  0  0
  141.0970   70.1400  228.3290 C   0  0  0  0  0  0  0  0  0  0  0  0
  141.3170   71.4970  228.1150 C   0  0  0  0  0  0  0  0  0  0  0  0
  141.0020   72.0270  226.8760 C   0  0  0  0  0  0  0  0  0  0  0  0
  140.4800   71.2230  225.8830 C   0  0  0  0  0  0  0  0  0  0  0  0
  140.1850   71.7680  224.6940 N   0  0  0  0  0  0  0  0  0  0  0  0
  139.6280   73.6760  223.2270 H   0  0  0  0  0  0  0  0  0  0  0  0
  138.2161   73.4544  220.6512 H   0  0  0  0  0  0  0  0  0  0  0  0
  138.9487   74.9386  221.3977 H   0  0  0  0  0  0  0  0  0  0  0  0
  142.8862   73.6346  221.5251 H   0  0  0  0  0  0  0  0  0  0  0  0
  142.7494   73.1957  219.7574 H   0  0  0  0  0  0  0  0  0  0  0  0
  144.2021   75.4614  221.0675 H   0  0  0  0  0  0  0  0  0  0  0  0
  144.6900   74.4235  219.7081 H   0  0  0  0  0  0  0  0  0  0  0  0
  144.0756   76.5852  218.7498 H   0  0  0  0  0  0  0  0  0  0  0  0
  142.7416   75.5063  218.3517 H   0  0  0  0  0  0  0  0  0  0  0  0
  142.9395   77.2974  220.8542 H   0  0  0  0  0  0  0  0  0  0  0  0
  141.9099   77.6171  219.4036 H   0  0  0  0  0  0  0  0  0  0  0  0
  140.3038   76.2271  220.1028 H   0  0  0  0  0  0  0  0  0  0  0  0
  140.5765   75.5557  222.5855 H   0  0  0  0  0  0  0  0  0  0  0  0
  141.9861   76.7529  222.4223 H   0  0  0  0  0  0  0  0  0  0  0  0
  139.5836   77.8229  221.3491 H   0  0  0  0  0  0  0  0  0  0  0  0
  139.3731   77.2997  223.0679 H   0  0  0  0  0  0  0  0  0  0  0  0
  142.7636   78.0417  222.0984 H   0  0  0  0  0  0  0  0  0  0  0  0
  144.0343   79.9990  222.8544 H   0  0  0  0  0  0  0  0  0  0  0  0
  142.8778   81.9050  223.9749 H   0  0  0  0  0  0  0  0  0  0  0  0
  140.4116   81.7887  224.3072 H   0  0  0  0  0  0  0  0  0  0  0  0
  139.1412   79.8059  223.5328 H   0  0  0  0  0  0  0  0  0  0  0  0
  139.0182   69.1190  223.0063 H   0  0  0  0  0  0  0  0  0  0  0  0
  139.5572   68.0772  225.2002 H   0  0  0  0  0  0  0  0  0  0  0  0
  140.4030   68.2718  227.5095 H   0  0  0  0  0  0  0  0  0  0  0  0
  141.3420   69.6960  229.3051 H   0  0  0  0  0  0  0  0  0  0  0  0
  141.7312   72.1331  228.9112 H   0  0  0  0  0  0  0  0  0  0  0  0
  141.1688   73.0967  226.6812 H   0  0  0  0  0  0  0  0  0  0  0  0
  1  2  2  0
  2  3  1  0
  3  4  1  0
  4  5  1  0
  5  6  2  0
  5  7  1  0
  7  8  1  0
  8  9  1  0
  9 10  1  0
 10 11  1  0
 11 12  1  0
 12 13  1  0
 13 14  1  0
 14 15  1  0
 15 16  2  0
 16 17  1  0
 17 18  2  0
 18 19  1  0
 19 20  2  0
  2 21  1  0
 21 22  2  0
 22 23  1  0
 23 24  2  0
 24 25  1  0
 25 26  2  0
 26 27  1  0
 27 28  2  0
 28 29  1  0
 29 30  2  0
 12  7  1  0
 20 15  1  0
 30 21  1  0
 29 24  1  0
  3 31  1  0
  4 32  1  0
  4 33  1  0
  8 34  1  0
  8 35  1  0
  9 36  1  0
  9 37  1  0
 10 38  1  0
 10 39  1  0
 11 40  1  0
 11 41  1  0
 12 42  1  6
 13 43  1  0
 13 44  1  0
 14 45  1  0
 14 46  1  0
 16 47  1  0
 17 48  1  0
 18 49  1  0
 19 50  1  0
 20 51  1  0
 22 52  1  0
 23 53  1  0
 25 54  1  0
 26 55  1  0
 27 56  1  0
 28 57  1  0
M  END
>  <smiles>  (7) 
O=C(NCC(=O)N1CCCCC1CCc1ccccc1)c1ccc2ccccc2n1

>  <score_type>  (7) 
oracle

>  <origin>  (7) 
autodockgpu

>  <m_score__min__energy>  (7) 
-9.2300000000000004

>  <m_primary>  (7) 
energy

>  <rmsd>  (7) 
2.5220664958463757

>  <m_score__min__rmsd>  (7) 
2.5220664958463757

>  <meeko>  (7) 
{"free_energy": -9.2, "intermolecular_energy": -11.29, "internal_energy": -1.82, "cluster_size": 40, "cluster_id": 1, "rank_in_cluster": 4}

>  <energy>  (7) 
-9.04

>  <cluster_rmsd>  (7) 
0.91

>  <cluster>  (7) 
1

$$$$

     RDKit          3D

 57 60  0  0  0  0  0  0  0  0999 V2000
  141.3790   72.3670  221.7990 O   0  0  0  0  0  0  0  0  0  0  0  0
  140.3630   72.4430  222.5520 C   0  0  0  0  0  0  0  0  0  0  0  0
  139.3340   73.4020  222.3370 N   0  0  0  0  0  0  0  0  0  0  0  0
  139.3930   74.3410  221.2510 C   0  0  0  0  0  0  0  0  0  0  0  0
  138.8150   75.6670  221.6230 C   0  0  0  0  0  0  0  0  0  0  0  0
  137.6770   75.7200  222.1810 O   0  0  0  0  0  0  0  0  0  0  0  0
  139.5760   76.8370  221.3340 N   0  0  0  0  0  0  0  0  0  0  0  0
  141.0060   76.8910  221.5900 C   0  0  0  0  0  0  0  0  0  0  0  0
  141.7410   77.8520  220.6900 C   0  0  0  0  0  0  0  0  0  0  0  0
  140.9700   77.9200  219.3880 C   0  0  0  0  0  0  0  0  0  0  0  0
  139.7080   78.6940  219.7330 C   0  0  0  0  0  0  0  0  0  0  0  0
  138.8940   77.9630  220.7820 C   0  0  2  0  0  0  0  0  0  0  0  0
  138.3580   78.9350  221.7770 C   0  0  0  0  0  0  0  0  0  0  0  0
  138.9200   78.8790  223.1500 C   0  0  0  0  0  0  0  0  0  0  0  0
  140.2160   79.6460  223.2400 C   0  0  0  0  0  0  0  0  0  0  0  0
  140.3270   80.9170  222.7200 C   0  0  0  0  0  0  0  0  0  0  0  0
  141.4990   81.6270  222.7960 C   0  0  0  0  0  0  0  0  0  0  0  0
  142.6210   81.0820  223.4030 C   0  0  0  0  0  0  0  0  0  0  0  0
  142.5280   79.8090  223.9300 C   0  0  0  0  0  0  0  0  0  0  0  0
  141.3340   79.0990  223.8470 C   0  0  0  0  0  0  0  0  0  0  0  0
  140.2130   71.5210  223.6960 C   0  0  0  0  0  0  0  0  0  0  0  0
  139.6060   70.2950  223.5350 C   0  0  0  0  0  0  0  0  0  0  0  0
  139.4890   69.4640  224.6450 C   0  0  0  0  0  0  0  0  0  0  0  0
  139.9600   69.8300  225.8880 C   0  0  0  0  0  0  0  0  0  0  0  0
  139.8560   69.0240  227.0040 C   0  0  0  0  0  0  0  0  0  0  0  0
  140.3520   69.4540  228.2230 C   0  0  0  0  0  0  0  0  0  0  0  0
  140.9580   70.7000  228.3410 C   0  0  0  0  0  0  0  0  0  0  0  0
  141.0540   71.4960  227.2130 C   0  0  0  0  0  0  0  0  0  0  0  0
  140.5570   71.0570  226.0030 C   0  0  0  0  0  0  0  0  0  0  0  0
  140.6650   71.8520  224.9290 N   0  0  0  0  0  0  0  0  0  0  0  0
  138.5090   73.4120  223.0060 H   0  0  0  0  0  0  0  0  0  0  0  0
  140.4445   74.4814  220.9602 H   0  0  0  0  0  0  0  0  0  0  0  0
  138.7997   73.9342  220.4188 H   0  0  0  0  0  0  0  0  0  0  0  0
  141.1616   77.2025  222.6334 H   0  0  0  0  0  0  0  0  0  0  0  0
  141.4091   75.8872  221.3904 H   0  0  0  0  0  0  0  0  0  0  0  0
  141.7839   78.8476  221.1557 H   0  0  0  0  0  0  0  0  0  0  0  0
  142.7736   77.5148  220.5167 H   0  0  0  0  0  0  0  0  0  0  0  0
  141.5521   78.4484  218.6186 H   0  0  0  0  0  0  0  0  0  0  0  0
  140.7504   76.9226  218.9793 H   0  0  0  0  0  0  0  0  0  0  0  0
  139.9879   79.6847  220.1204 H   0  0  0  0  0  0  0  0  0  0  0  0
  139.0983   78.7951  218.8230 H   0  0  0  0  0  0  0  0  0  0  0  0
  138.0198   77.5020  220.2989 H   0  0  0  0  0  0  0  0  0  0  0  0
  138.5425   79.9460  221.3847 H   0  0  0  0  0  0  0  0  0  0  0  0
  137.2976   78.6666  221.8932 H   0  0  0  0  0  0  0  0  0  0  0  0
  138.1950   79.3156  223.8527 H   0  0  0  0  0  0  0  0  0  0  0  0
  139.1192   77.8271  223.4025 H   0  0  0  0  0  0  0  0  0  0  0  0
  139.4540   81.3744  222.2315 H   0  0  0  0  0  0  0  0  0  0  0  0
  141.5493   82.6402  222.3706 H   0  0  0  0  0  0  0  0  0  0  0  0
  143.5613   81.6497  223.4630 H   0  0  0  0  0  0  0  0  0  0  0  0
  143.4024   79.3537  224.4180 H   0  0  0  0  0  0  0  0  0  0  0  0
  141.2773   78.0856  224.2710 H   0  0  0  0  0  0  0  0  0  0  0  0
  139.2231   69.9805  222.5529 H   0  0  0  0  0  0  0  0  0  0  0  0
  139.0050   68.4833  224.5269 H   0  0  0  0  0  0  0  0  0  0  0  0
  139.3774   68.0368  226.9244 H   0  0  0  0  0  0  0  0  0  0  0  0
  140.2659   68.8040  229.1063 H   0  0  0  0  0  0  0  0  0  0  0  0
  141.3519   71.0449  229.3084 H   0  0  0  0  0  0  0  0  0  0  0  0
  141.5298   72.4854  227.2815 H   0  0  0  0  0  0  0  0  0  0  0  0
  1  2  2  0
  2  3  1  0
  3  4  1  0
  4  5  1  0
  5  6  2  0
  5  7  1  0
  7  8  1  0
  8  9  1  0
  9 10  1  0
 10 11  1  0
 11 12  1  0
 12 13  1  0
 13 14  1  0
 14 15  1  0
 15 16  2  0
 16 17  1  0
 17 18  2  0
 18 19  1  0
 19 20  2  0
  2 21  1  0
 21 22  2  0
 22 23  1  0
 23 24  2  0
 24 25  1  0
 25 26  2  0
 26 27  1  0
 27 28  2  0
 28 29  1  0
 29 30  2  0
 12  7  1  0
 20 15  1  0
 30 21  1  0
 29 24  1  0
  3 31  1  0
  4 32  1  0
  4 33  1  0
  8 34  1  0
  8 35  1  0
  9 36  1  0
  9 37  1  0
 10 38  1  0
 10 39  1  0
 11 40  1  0
 11 41  1  0
 12 42  1  6
 13 43  1  0
 13 44  1  0
 14 45  1  0
 14 46  1  0
 16 47  1  0
 17 48  1  0
 18 49  1  0
 19 50  1  0
 20 51  1  0
 22 52  1  0
 23 53  1  0
 25 54  1  0
 26 55  1  0
 27 56  1  0
 28 57  1  0
M  END
>  <smiles>  (8) 
O=C(NCC(=O)N1CCCCC1CCc1ccccc1)c1ccc2ccccc2n1

>  <score_type>  (8) 
oracle

>  <origin>  (8) 
autodockgpu

>  <m_score__min__energy>  (8) 
-9.2300000000000004

>  <m_primary>  (8) 
energy

>  <rmsd>  (8) 
2.7324116919619232

>  <m_score__min__rmsd>  (8) 
2.7324116919619232

>  <meeko>  (8) 
{"free_energy": -8.92, "intermolecular_energy": -11.01, "internal_energy": -1.93, "cluster_size": 40, "cluster_id": 1, "rank_in_cluster": 15}

>  <energy>  (8) 
-9.02

>  <cluster_rmsd>  (8) 
0.97

>  <cluster>  (8) 
1

$$$$

     RDKit          3D

 57 60  0  0  0  0  0  0  0  0999 V2000
  140.2500   71.3890  221.1920 O   0  0  0  0  0  0  0  0  0  0  0  0
  140.0230   71.9830  222.2880 C   0  0  0  0  0  0  0  0  0  0  0  0
  139.7850   73.3840  222.3520 N   0  0  0  0  0  0  0  0  0  0  0  0
  139.7900   74.2050  221.1720 C   0  0  0  0  0  0  0  0  0  0  0  0
  139.9940   75.6490  221.4940 C   0  0  0  0  0  0  0  0  0  0  0  0
  140.0490   76.0180  222.7070 O   0  0  0  0  0  0  0  0  0  0  0  0
  140.1230   76.5680  220.4120 N   0  0  0  0  0  0  0  0  0  0  0  0
  141.3300   76.6190  219.6030 C   0  0  0  0  0  0  0  0  0  0  0  0
  141.0910   77.1150  218.1990 C   0  0  0  0  0  0  0  0  0  0  0  0
  139.6720   76.7350  217.8300 C   0  0  0  0  0  0  0  0  0  0  0  0
  138.8000   77.6650  218.6580 C   0  0  0  0  0  0  0  0  0  0  0  0
  139.0290   77.4440  220.1400 C   0  0  2  0  0  0  0  0  0  0  0  0
  139.0690   78.7540  220.8490 C   0  0  0  0  0  0  0  0  0  0  0  0
  139.2350   78.7210  222.3250 C   0  0  0  0  0  0  0  0  0  0  0  0
  140.5250   79.3830  222.7410 C   0  0  0  0  0  0  0  0  0  0  0  0
  140.5230   80.5630  223.4500 C   0  0  0  0  0  0  0  0  0  0  0  0
  141.6900   81.1760  223.8360 C   0  0  0  0  0  0  0  0  0  0  0  0
  142.9210   80.6190  223.5200 C   0  0  0  0  0  0  0  0  0  0  0  0
  142.9430   79.4340  222.8100 C   0  0  0  0  0  0  0  0  0  0  0  0
  141.7530   78.8240  222.4250 C   0  0  0  0  0  0  0  0  0  0  0  0
  139.9970   71.2250  223.5550 C   0  0  0  0  0  0  0  0  0  0  0  0
  139.5010   69.9400  223.5940 C   0  0  0  0  0  0  0  0  0  0  0  0
  139.4990   69.2680  224.8130 C   0  0  0  0  0  0  0  0  0  0  0  0
  139.9750   69.8480  225.9700 C   0  0  0  0  0  0  0  0  0  0  0  0
  139.9840   69.2040  227.1900 C   0  0  0  0  0  0  0  0  0  0  0  0
  140.4770   69.8450  228.3140 C   0  0  0  0  0  0  0  0  0  0  0  0
  140.9690   71.1440  228.2300 C   0  0  0  0  0  0  0  0  0  0  0  0
  140.9530   71.7750  226.9990 C   0  0  0  0  0  0  0  0  0  0  0  0
  140.4590   71.1270  225.8850 C   0  0  0  0  0  0  0  0  0  0  0  0
  140.4570   71.7660  224.7070 N   0  0  0  0  0  0  0  0  0  0  0  0
  139.6000   73.8200  223.3030 H   0  0  0  0  0  0  0  0  0  0  0  0
  140.6028   73.8707  220.5106 H   0  0  0  0  0  0  0  0  0  0  0  0
  138.8101   74.1018  220.6830 H   0  0  0  0  0  0  0  0  0  0  0  0
  142.0494   77.2919  220.0925 H   0  0  0  0  0  0  0  0  0  0  0  0
  141.7103   75.5899  219.5229 H   0  0  0  0  0  0  0  0  0  0  0  0
  141.2120   78.2076  218.1587 H   0  0  0  0  0  0  0  0  0  0  0  0
  141.8115   76.6692  217.4975 H   0  0  0  0  0  0  0  0  0  0  0  0
  139.4950   76.8905  216.7555 H   0  0  0  0  0  0  0  0  0  0  0  0
  139.4583   75.6745  218.0291 H   0  0  0  0  0  0  0  0  0  0  0  0
  139.0456   78.7075  218.4071 H   0  0  0  0  0  0  0  0  0  0  0  0
  137.7449   77.4534  218.4299 H   0  0  0  0  0  0  0  0  0  0  0  0
  138.1715   76.8946  220.5559 H   0  0  0  0  0  0  0  0  0  0  0  0
  139.9095   79.3296  220.4340 H   0  0  0  0  0  0  0  0  0  0  0  0
  138.0754   79.1964  220.6847 H   0  0  0  0  0  0  0  0  0  0  0  0
  138.3921   79.2504  222.7933 H   0  0  0  0  0  0  0  0  0  0  0  0
  139.2604   77.6706  222.6505 H   0  0  0  0  0  0  0  0  0  0  0  0
  139.5614   81.0272  223.7144 H   0  0  0  0  0  0  0  0  0  0  0  0
  141.6483   82.1185  224.4016 H   0  0  0  0  0  0  0  0  0  0  0  0
  143.8566   81.1090  223.8273 H   0  0  0  0  0  0  0  0  0  0  0  0
  143.9056   78.9706  222.5478 H   0  0  0  0  0  0  0  0  0  0  0  0
  141.7877   77.8810  221.8596 H   0  0  0  0  0  0  0  0  0  0  0  0
  139.1160   69.4569  222.6838 H   0  0  0  0  0  0  0  0  0  0  0  0
  139.1052   68.2417  224.8547 H   0  0  0  0  0  0  0  0  0  0  0  0
  139.5979   68.1771  227.2702 H   0  0  0  0  0  0  0  0  0  0  0  0
  140.4798   69.3227  229.2821 H   0  0  0  0  0  0  0  0  0  0  0  0
  141.3611   71.6566  229.1208 H   0  0  0  0  0  0  0  0  0  0  0  0
  141.3372   72.8016  226.9073 H   0  0  0  0  0  0  0  0  0  0  0  0
  1  2  2  0
  2  3  1  0
  3  4  1  0
  4  5  1  0
  5  6  2  0
  5  7  1  0
  7  8  1  0
  8  9  1  0
  9 10  1  0
 10 11  1  0
 11 12  1  0
 12 13  1  0
 13 14  1  0
 14 15  1  0
 15 16  2  0
 16 17  1  0
 17 18  2  0
 18 19  1  0
 19 20  2  0
  2 21  1  0
 21 22  2  0
 22 23  1  0
 23 24  2  0
 24 25  1  0
 25 26  2  0
 26 27  1  0
 27 28  2  0
 28 29  1  0
 29 30  2  0
 12  7  1  0
 20 15  1  0
 30 21  1  0
 29 24  1  0
  3 31  1  0
  4 32  1  0
  4 33  1  0
  8 34  1  0
  8 35  1  0
  9 36  1  0
  9 37  1  0
 10 38  1  0
 10 39  1  0
 11 40  1  0
 11 41  1  0
 12 42  1  1
 13 43  1  0
 13 44  1  0
 14 45  1  0
 14 46  1  0
 16 47  1  0
 17 48  1  0
 18 49  1  0
 19 50  1  0
 20 51  1  0
 22 52  1  0
 23 53  1  0
 25 54  1  0
 26 55  1  0
 27 56  1  0
 28 57  1  0
M  END
>  <smiles>  (9) 
O=C(NCC(=O)N1CCCCC1CCc1ccccc1)c1ccc2ccccc2n1

>  <score_type>  (9) 
oracle

>  <origin>  (9) 
autodockgpu

>  <m_score__min__energy>  (9) 
-9.2300000000000004

>  <m_primary>  (9) 
energy

>  <rmsd>  (9) 
2.0752225378889495

>  <m_score__min__rmsd>  (9) 
2.0752225378889495

>  <meeko>  (9) 
{"free_energy": -8.49, "intermolecular_energy": -10.58, "internal_energy": -2.12, "cluster_size": 40, "cluster_id": 1, "rank_in_cluster": 35}

>  <energy>  (9) 
-9.02

>  <cluster_rmsd>  (9) 
1.94

>  <cluster>  (9) 
1

$$$$

     RDKit          3D

 57 60  0  0  0  0  0  0  0  0999 V2000
  140.7470   71.4590  221.2810 O   0  0  0  0  0  0  0  0  0  0  0  0
  140.3020   72.0270  222.3210 C   0  0  0  0  0  0  0  0  0  0  0  0
  139.9610   73.4090  222.3390 N   0  0  0  0  0  0  0  0  0  0  0  0
  140.1050   74.2370  221.1730 C   0  0  0  0  0  0  0  0  0  0  0  0
  140.2630   75.6800  221.5260 C   0  0  0  0  0  0  0  0  0  0  0  0
  139.9770   76.0720  222.6980 O   0  0  0  0  0  0  0  0  0  0  0  0
  140.7360   76.5710  220.5190 N   0  0  0  0  0  0  0  0  0  0  0  0
  142.1570   76.8140  220.3320 C   0  0  0  0  0  0  0  0  0  0  0  0
  142.5170   77.2110  218.9230 C   0  0  0  0  0  0  0  0  0  0  0  0
  141.4990   76.5670  218.0050 C   0  0  0  0  0  0  0  0  0  0  0  0
  140.2190   77.3490  218.2490 C   0  0  0  0  0  0  0  0  0  0  0  0
  139.7730   77.2220  219.6910 C   0  0  2  0  0  0  0  0  0  0  0  0
  139.2900   78.5400  220.1920 C   0  0  0  0  0  0  0  0  0  0  0  0
  140.2570   79.6670  220.1770 C   0  0  0  0  0  0  0  0  0  0  0  0
  141.0240   79.7430  221.4740 C   0  0  0  0  0  0  0  0  0  0  0  0
  140.5650   79.1120  222.6090 C   0  0  0  0  0  0  0  0  0  0  0  0
  141.2540   79.1720  223.7960 C   0  0  0  0  0  0  0  0  0  0  0  0
  142.4440   79.8770  223.8900 C   0  0  0  0  0  0  0  0  0  0  0  0
  142.9200   80.5160  222.7610 C   0  0  0  0  0  0  0  0  0  0  0  0
  142.2130   80.4470  221.5650 C   0  0  0  0  0  0  0  0  0  0  0  0
  140.1200   71.2590  223.5690 C   0  0  0  0  0  0  0  0  0  0  0  0
  139.5410   70.0100  223.5460 C   0  0  0  0  0  0  0  0  0  0  0  0
  139.3910   69.3270  224.7500 C   0  0  0  0  0  0  0  0  0  0  0  0
  139.8030   69.8630  225.9520 C   0  0  0  0  0  0  0  0  0  0  0  0
  139.6660   69.2070  227.1590 C   0  0  0  0  0  0  0  0  0  0  0  0
  140.1020   69.8040  228.3300 C   0  0  0  0  0  0  0  0  0  0  0  0
  140.6810   71.0680  228.3080 C   0  0  0  0  0  0  0  0  0  0  0  0
  140.8110   71.7120  227.0900 C   0  0  0  0  0  0  0  0  0  0  0  0
  140.3740   71.1080  225.9290 C   0  0  0  0  0  0  0  0  0  0  0  0
  140.5130   71.7580  224.7650 N   0  0  0  0  0  0  0  0  0  0  0  0
  139.5930   73.8240  223.2460 H   0  0  0  0  0  0  0  0  0  0  0  0
  140.9930   73.9094  220.6125 H   0  0  0  0  0  0  0  0  0  0  0  0
  139.1918   74.1336  220.5686 H   0  0  0  0  0  0  0  0  0  0  0  0
  142.4647   77.6226  221.0113 H   0  0  0  0  0  0  0  0  0  0  0  0
  142.6785   75.8695  220.5461 H   0  0  0  0  0  0  0  0  0  0  0  0
  142.4804   78.3054  218.8183 H   0  0  0  0  0  0  0  0  0  0  0  0
  143.5355   76.8805  218.6713 H   0  0  0  0  0  0  0  0  0  0  0  0
  141.8132   76.6533  216.9544 H   0  0  0  0  0  0  0  0  0  0  0  0
  141.3770   75.4920  218.2039 H   0  0  0  0  0  0  0  0  0  0  0  0
  140.3961   78.4100  218.0192 H   0  0  0  0  0  0  0  0  0  0  0  0
  139.4297   76.9413  217.6004 H   0  0  0  0  0  0  0  0  0  0  0  0
  138.9122   76.5388  219.7386 H   0  0  0  0  0  0  0  0  0  0  0  0
  138.4293   78.8341  219.5733 H   0  0  0  0  0  0  0  0  0  0  0  0
  139.0643   78.3739  221.2557 H   0  0  0  0  0  0  0  0  0  0  0  0
  140.9659   79.5209  219.3486 H   0  0  0  0  0  0  0  0  0  0  0  0
  139.6976   80.6052  220.0469 H   0  0  0  0  0  0  0  0  0  0  0  0
  139.6230   78.5458  222.5639 H   0  0  0  0  0  0  0  0  0  0  0  0
  140.8570   78.6548  224.6819 H   0  0  0  0  0  0  0  0  0  0  0  0
  142.9959   79.9265  224.8402 H   0  0  0  0  0  0  0  0  0  0  0  0
  143.8622   81.0817  222.8083 H   0  0  0  0  0  0  0  0  0  0  0  0
  142.6056   80.9611  220.6753 H   0  0  0  0  0  0  0  0  0  0  0  0
  139.2050   69.5624  222.5990 H   0  0  0  0  0  0  0  0  0  0  0  0
  138.9294   68.3286  224.7422 H   0  0  0  0  0  0  0  0  0  0  0  0
  139.2091   68.2069  227.1907 H   0  0  0  0  0  0  0  0  0  0  0  0
  139.9892   69.2731  229.2868 H   0  0  0  0  0  0  0  0  0  0  0  0
  141.0275   71.5448  229.2368 H   0  0  0  0  0  0  0  0  0  0  0  0
  141.2660   72.7126  227.0472 H   0  0  0  0  0  0  0  0  0  0  0  0
  1  2  2  0
  2  3  1  0
  3  4  1  0
  4  5  1  0
  5  6  2  0
  5  7  1  0
  7  8  1  0
  8  9  1  0
  9 10  1  0
 10 11  1  0
 11 12  1  0
 12 13  1  0
 13 14  1  0
 14 15  1  0
 15 16  2  0
 16 17  1  0
 17 18  2  0
 18 19  1  0
 19 20  2  0
  2 21  1  0
 21 22  2  0
 22 23  1  0
 23 24  2  0
 24 25  1  0
 25 26  2  0
 26 27  1  0
 27 28  2  0
 28 29  1  0
 29 30  2  0
 12  7  1  0
 20 15  1  0
 30 21  1  0
 29 24  1  0
  3 31  1  0
  4 32  1  0
  4 33  1  0
  8 34  1  0
  8 35  1  0
  9 36  1  0
  9 37  1  0
 10 38  1  0
 10 39  1  0
 11 40  1  0
 11 41  1  0
 12 42  1  6
 13 43  1  0
 13 44  1  0
 14 45  1  0
 14 46  1  0
 16 47  1  0
 17 48  1  0
 18 49  1  0
 19 50  1  0
 20 51  1  0
 22 52  1  0
 23 53  1  0
 25 54  1  0
 26 55  1  0
 27 56  1  0
 28 57  1  0
M  END
>  <smiles>  (10) 
O=C(NCC(=O)N1CCCCC1CCc1ccccc1)c1ccc2ccccc2n1

>  <score_type>  (10) 
oracle

>  <origin>  (10) 
autodockgpu

>  <m_score__min__energy>  (10) 
-9.2300000000000004

>  <m_primary>  (10) 
energy

>  <rmsd>  (10) 
2.242280045370702

>  <m_score__min__rmsd>  (10) 
2.242280045370702

>  <meeko>  (10) 
{"free_energy": -8.57, "intermolecular_energy": -10.66, "internal_energy": -2.32, "cluster_size": 40, "cluster_id": 1, "rank_in_cluster": 33}

>  <energy>  (10) 
-8.99

>  <cluster_rmsd>  (10) 
0.7

>  <cluster>  (10) 
1

$$$$

     RDKit          3D

 57 60  0  0  0  0  0  0  0  0999 V2000
  139.5660   71.0470  221.5150 O   0  0  0  0  0  0  0  0  0  0  0  0
  139.6580   71.7910  222.5360 C   0  0  0  0  0  0  0  0  0  0  0  0
  139.4700   73.1990  222.4640 N   0  0  0  0  0  0  0  0  0  0  0  0
  139.1650   73.8570  221.2230 C   0  0  0  0  0  0  0  0  0  0  0  0
  140.3080   73.8020  220.2630 C   0  0  0  0  0  0  0  0  0  0  0  0
  140.4600   72.7790  219.5290 O   0  0  0  0  0  0  0  0  0  0  0  0
  141.1950   74.9170  220.2080 N   0  0  0  0  0  0  0  0  0  0  0  0
  142.6110   74.7730  220.5050 C   0  0  0  0  0  0  0  0  0  0  0  0
  143.4760   75.7930  219.8110 C   0  0  0  0  0  0  0  0  0  0  0  0
  142.7730   76.1710  218.5240 C   0  0  0  0  0  0  0  0  0  0  0  0
  141.5810   77.0020  218.9710 C   0  0  0  0  0  0  0  0  0  0  0  0
  140.6540   76.1890  219.8510 C   0  0  2  0  0  0  0  0  0  0  0  0
  140.1760   77.0210  220.9910 C   0  0  0  0  0  0  0  0  0  0  0  0
  141.0300   77.0630  222.2050 C   0  0  0  0  0  0  0  0  0  0  0  0
  141.1730   78.4740  222.7200 C   0  0  0  0  0  0  0  0  0  0  0  0
  140.0750   79.1970  223.1290 C   0  0  0  0  0  0  0  0  0  0  0  0
  140.1910   80.4810  223.6010 C   0  0  0  0  0  0  0  0  0  0  0  0
  141.4310   81.0980  223.6810 C   0  0  0  0  0  0  0  0  0  0  0  0
  142.5440   80.3880  223.2750 C   0  0  0  0  0  0  0  0  0  0  0  0
  142.4130   79.0870  222.7990 C   0  0  0  0  0  0  0  0  0  0  0  0
  139.9690   71.2070  223.8570 C   0  0  0  0  0  0  0  0  0  0  0  0
  140.6970   71.9190  224.7840 C   0  0  0  0  0  0  0  0  0  0  0  0
  140.9640   71.3230  226.0140 C   0  0  0  0  0  0  0  0  0  0  0  0
  140.5240   70.0550  226.3250 C   0  0  0  0  0  0  0  0  0  0  0  0
  140.7740   69.4420  227.5360 C   0  0  0  0  0  0  0  0  0  0  0  0
  140.3010   68.1650  227.7830 C   0  0  0  0  0  0  0  0  0  0  0  0
  139.5700   67.4810  226.8170 C   0  0  0  0  0  0  0  0  0  0  0  0
  139.3270   68.1090  225.6080 C   0  0  0  0  0  0  0  0  0  0  0  0
  139.8030   69.3830  225.3730 C   0  0  0  0  0  0  0  0  0  0  0  0
  139.5510   69.9640  224.1910 N   0  0  0  0  0  0  0  0  0  0  0  0
  139.5620   73.7650  223.3590 H   0  0  0  0  0  0  0  0  0  0  0  0
  138.2935   73.3657  220.7657 H   0  0  0  0  0  0  0  0  0  0  0  0
  138.9569   74.9147  221.4422 H   0  0  0  0  0  0  0  0  0  0  0  0
  142.7517   74.8778  221.5909 H   0  0  0  0  0  0  0  0  0  0  0  0
  142.9200   73.7829  220.1387 H   0  0  0  0  0  0  0  0  0  0  0  0
  143.5983   76.6807  220.4489 H   0  0  0  0  0  0  0  0  0  0  0  0
  144.4760   75.3835  219.6053 H   0  0  0  0  0  0  0  0  0  0  0  0
  143.4380   76.7617  217.8768 H   0  0  0  0  0  0  0  0  0  0  0  0
  142.4724   75.2903  217.9374 H   0  0  0  0  0  0  0  0  0  0  0  0
  141.9417   77.8738  219.5366 H   0  0  0  0  0  0  0  0  0  0  0  0
  141.0243   77.3257  218.0792 H   0  0  0  0  0  0  0  0  0  0  0  0
  139.7596   75.9166  219.2715 H   0  0  0  0  0  0  0  0  0  0  0  0
  140.0692   78.0530  220.6256 H   0  0  0  0  0  0  0  0  0  0  0  0
  139.2408   76.5432  221.3184 H   0  0  0  0  0  0  0  0  0  0  0  0
  140.5729   76.4395  222.9875 H   0  0  0  0  0  0  0  0  0  0  0  0
  142.0288   76.6839  221.9429 H   0  0  0  0  0  0  0  0  0  0  0  0
  139.0787   78.7337  223.0762 H   0  0  0  0  0  0  0  0  0  0  0  0
  139.2905   81.0267  223.9193 H   0  0  0  0  0  0  0  0  0  0  0  0
  141.5254   82.1269  224.0583 H   0  0  0  0  0  0  0  0  0  0  0  0
  143.5393   80.8535  223.3282 H   0  0  0  0  0  0  0  0  0  0  0  0
  143.3097   78.5355  222.4798 H   0  0  0  0  0  0  0  0  0  0  0  0
  141.0586   72.9331  224.5586 H   0  0  0  0  0  0  0  0  0  0  0  0
  141.5451   71.8828  226.7616 H   0  0  0  0  0  0  0  0  0  0  0  0
  141.3518   69.9708  228.3084 H   0  0  0  0  0  0  0  0  0  0  0  0
  140.5050   67.6864  228.7522 H   0  0  0  0  0  0  0  0  0  0  0  0
  139.1942   66.4653  227.0096 H   0  0  0  0  0  0  0  0  0  0  0  0
  138.7504   67.5891  224.8288 H   0  0  0  0  0  0  0  0  0  0  0  0
  1  2  2  0
  2  3  1  0
  3  4  1  0
  4  5  1  0
  5  6  2  0
  5  7  1  0
  7  8  1  0
  8  9  1  0
  9 10  1  0
 10 11  1  0
 11 12  1  0
 12 13  1  0
 13 14  1  0
 14 15  1  0
 15 16  2  0
 16 17  1  0
 17 18  2  0
 18 19  1  0
 19 20  2  0
  2 21  1  0
 21 22  2  0
 22 23  1  0
 23 24  2  0
 24 25  1  0
 25 26  2  0
 26 27  1  0
 27 28  2  0
 28 29  1  0
 29 30  2  0
 12  7  1  0
 20 15  1  0
 30 21  1  0
 29 24  1  0
  3 31  1  0
  4 32  1  0
  4 33  1  0
  8 34  1  0
  8 35  1  0
  9 36  1  0
  9 37  1  0
 10 38  1  0
 10 39  1  0
 11 40  1  0
 11 41  1  0
 12 42  1  6
 13 43  1  0
 13 44  1  0
 14 45  1  0
 14 46  1  0
 16 47  1  0
 17 48  1  0
 18 49  1  0
 19 50  1  0
 20 51  1  0
 22 52  1  0
 23 53  1  0
 25 54  1  0
 26 55  1  0
 27 56  1  0
 28 57  1  0
M  END
>  <smiles>  (11) 
O=C(NCC(=O)N1CCCCC1CCc1ccccc1)c1ccc2ccccc2n1

>  <score_type>  (11) 
oracle

>  <origin>  (11) 
autodockgpu

>  <m_score__min__energy>  (11) 
-9.2300000000000004

>  <m_primary>  (11) 
energy

>  <rmsd>  (11) 
3.125394710763256

>  <m_score__min__rmsd>  (11) 
3.125394710763256

>  <meeko>  (11) 
{"free_energy": -8.7, "intermolecular_energy": -10.78, "internal_energy": -1.47, "cluster_size": 40, "cluster_id": 1, "rank_in_cluster": 27}

>  <energy>  (11) 
-8.95

>  <cluster_rmsd>  (11) 
0.89

>  <cluster>  (11) 
1

$$$$

     RDKit          3D

 57 60  0  0  0  0  0  0  0  0999 V2000
  140.8270   71.4870  221.2510 O   0  0  0  0  0  0  0  0  0  0  0  0
  140.3520   72.0810  222.2630 C   0  0  0  0  0  0  0  0  0  0  0  0
  139.9710   73.4520  222.2250 N   0  0  0  0  0  0  0  0  0  0  0  0
  140.1060   74.2390  221.0300 C   0  0  0  0  0  0  0  0  0  0  0  0
  140.5040   75.6480  221.3290 C   0  0  0  0  0  0  0  0  0  0  0  0
  140.2970   76.1250  222.4860 O   0  0  0  0  0  0  0  0  0  0  0  0
  141.1100   76.4110  220.2880 N   0  0  0  0  0  0  0  0  0  0  0  0
  142.5470   76.3870  220.0720 C   0  0  0  0  0  0  0  0  0  0  0  0
  142.9440   76.6740  218.6460 C   0  0  0  0  0  0  0  0  0  0  0  0
  141.8080   76.2010  217.7640 C   0  0  0  0  0  0  0  0  0  0  0  0
  140.6950   77.2080  218.0030 C   0  0  0  0  0  0  0  0  0  0  0  0
  140.2630   77.2040  219.4560 C   0  0  2  0  0  0  0  0  0  0  0  0
  140.0370   78.6000  219.9230 C   0  0  0  0  0  0  0  0  0  0  0  0
  141.2000   79.5230  219.8920 C   0  0  0  0  0  0  0  0  0  0  0  0
  141.6000   79.9420  221.2840 C   0  0  0  0  0  0  0  0  0  0  0  0
  142.1260   79.0350  222.1770 C   0  0  0  0  0  0  0  0  0  0  0  0
  142.4950   79.4040  223.4470 C   0  0  0  0  0  0  0  0  0  0  0  0
  142.3460   80.7140  223.8770 C   0  0  0  0  0  0  0  0  0  0  0  0
  141.8200   81.6380  222.9950 C   0  0  0  0  0  0  0  0  0  0  0  0
  141.4510   81.2520  221.7100 C   0  0  0  0  0  0  0  0  0  0  0  0
  140.1760   71.3560  223.5380 C   0  0  0  0  0  0  0  0  0  0  0  0
  139.5340   70.1380  223.5690 C   0  0  0  0  0  0  0  0  0  0  0  0
  139.3930   69.4950  224.7960 C   0  0  0  0  0  0  0  0  0  0  0  0
  139.8740   70.0390  225.9680 C   0  0  0  0  0  0  0  0  0  0  0  0
  139.7480   69.4230  227.1960 C   0  0  0  0  0  0  0  0  0  0  0  0
  140.2550   70.0260  228.3340 C   0  0  0  0  0  0  0  0  0  0  0  0
  140.8960   71.2580  228.2580 C   0  0  0  0  0  0  0  0  0  0  0  0
  141.0150   71.8620  227.0190 C   0  0  0  0  0  0  0  0  0  0  0  0
  140.5060   71.2520  225.8900 C   0  0  0  0  0  0  0  0  0  0  0  0
  140.6370   71.8640  224.7050 N   0  0  0  0  0  0  0  0  0  0  0  0
  139.5800   73.8900  223.1110 H   0  0  0  0  0  0  0  0  0  0  0  0
  140.8738   73.7817  220.3886 H   0  0  0  0  0  0  0  0  0  0  0  0
  139.1284   74.2619  220.5263 H   0  0  0  0  0  0  0  0  0  0  0  0
  143.0098   77.1444  220.7218 H   0  0  0  0  0  0  0  0  0  0  0  0
  142.8933   75.3696  220.3066 H   0  0  0  0  0  0  0  0  0  0  0  0
  143.1039   77.7536  218.5088 H   0  0  0  0  0  0  0  0  0  0  0  0
  143.8806   76.1576  218.3888 H   0  0  0  0  0  0  0  0  0  0  0  0
  142.1112   76.2004  216.7066 H   0  0  0  0  0  0  0  0  0  0  0  0
  141.4979   75.1719  217.9979 H   0  0  0  0  0  0  0  0  0  0  0  0
  141.0556   78.2127  217.7375 H   0  0  0  0  0  0  0  0  0  0  0  0
  139.8319   76.9316  217.3795 H   0  0  0  0  0  0  0  0  0  0  0  0
  139.2936   76.6908  219.5390 H   0  0  0  0  0  0  0  0  0  0  0  0
  139.2506   79.0373  219.2903 H   0  0  0  0  0  0  0  0  0  0  0  0
  139.7795   78.5043  220.9881 H   0  0  0  0  0  0  0  0  0  0  0  0
  142.0492   79.0143  219.4123 H   0  0  0  0  0  0  0  0  0  0  0  0
  140.9164   80.4221  219.3253 H   0  0  0  0  0  0  0  0  0  0  0  0
  142.2538   77.9880  221.8648 H   0  0  0  0  0  0  0  0  0  0  0  0
  142.9138   78.6516  224.1315 H   0  0  0  0  0  0  0  0  0  0  0  0
  142.6393   81.0100  224.8950 H   0  0  0  0  0  0  0  0  0  0  0  0
  141.6922   82.6841  223.3100 H   0  0  0  0  0  0  0  0  0  0  0  0
  141.0336   82.0002  221.0201 H   0  0  0  0  0  0  0  0  0  0  0  0
  139.1421   69.6841  222.6468 H   0  0  0  0  0  0  0  0  0  0  0  0
  138.8815   68.5218  224.8314 H   0  0  0  0  0  0  0  0  0  0  0  0
  139.2426   68.4488  227.2710 H   0  0  0  0  0  0  0  0  0  0  0  0
  140.1500   69.5259  229.3081 H   0  0  0  0  0  0  0  0  0  0  0  0
  141.2985   71.7404  229.1609 H   0  0  0  0  0  0  0  0  0  0  0  0
  141.5191   72.8359  226.9328 H   0  0  0  0  0  0  0  0  0  0  0  0
  1  2  2  0
  2  3  1  0
  3  4  1  0
  4  5  1  0
  5  6  2  0
  5  7  1  0
  7  8  1  0
  8  9  1  0
  9 10  1  0
 10 11  1  0
 11 12  1  0
 12 13  1  0
 13 14  1  0
 14 15  1  0
 15 16  2  0
 16 17  1  0
 17 18  2  0
 18 19  1  0
 19 20  2  0
  2 21  1  0
 21 22  2  0
 22 23  1  0
 23 24  2  0
 24 25  1  0
 25 26  2  0
 26 27  1  0
 27 28  2  0
 28 29  1  0
 29 30  2  0
 12  7  1  0
 20 15  1  0
 30 21  1  0
 29 24  1  0
  3 31  1  0
  4 32  1  0
  4 33  1  0
  8 34  1  0
  8 35  1  0
  9 36  1  0
  9 37  1  0
 10 38  1  0
 10 39  1  0
 11 40  1  0
 11 41  1  0
 12 42  1  6
 13 43  1  0
 13 44  1  0
 14 45  1  0
 14 46  1  0
 16 47  1  0
 17 48  1  0
 18 49  1  0
 19 50  1  0
 20 51  1  0
 22 52  1  0
 23 53  1  0
 25 54  1  0
 26 55  1  0
 27 56  1  0
 28 57  1  0
M  END
>  <smiles>  (12) 
O=C(NCC(=O)N1CCCCC1CCc1ccccc1)c1ccc2ccccc2n1

>  <score_type>  (12) 
oracle

>  <origin>  (12) 
autodockgpu

>  <m_score__min__energy>  (12) 
-9.2300000000000004

>  <m_primary>  (12) 
energy

>  <rmsd>  (12) 
2.1953742157592613

>  <m_score__min__rmsd>  (12) 
2.1953742157592613

>  <meeko>  (12) 
{"free_energy": -8.95, "intermolecular_energy": -11.04, "internal_energy": -2.02, "cluster_size": 40, "cluster_id": 1, "rank_in_cluster": 11}

>  <energy>  (12) 
-8.93

>  <cluster_rmsd>  (12) 
0.9

>  <cluster>  (12) 
1

$$$$

     RDKit          3D

 57 60  0  0  0  0  0  0  0  0999 V2000
  139.6600   70.8680  221.3350 O   0  0  0  0  0  0  0  0  0  0  0  0
  139.7510   71.4930  222.4330 C   0  0  0  0  0  0  0  0  0  0  0  0
  139.8150   72.9130  222.4910 N   0  0  0  0  0  0  0  0  0  0  0  0
  139.7800   73.7190  221.3020 C   0  0  0  0  0  0  0  0  0  0  0  0
  141.1400   74.1940  220.9060 C   0  0  0  0  0  0  0  0  0  0  0  0
  142.0870   73.3570  220.7950 O   0  0  0  0  0  0  0  0  0  0  0  0
  141.3220   75.5870  220.6630 N   0  0  0  0  0  0  0  0  0  0  0  0
  142.5570   76.1000  220.0940 C   0  0  0  0  0  0  0  0  0  0  0  0
  142.3750   77.3860  219.3280 C   0  0  0  0  0  0  0  0  0  0  0  0
  140.9640   77.3800  218.7770 C   0  0  0  0  0  0  0  0  0  0  0  0
  140.0800   77.5960  219.9930 C   0  0  0  0  0  0  0  0  0  0  0  0
  140.2520   76.4720  220.9950 C   0  0  2  0  0  0  0  0  0  0  0  0
  140.2880   77.0250  222.3780 C   0  0  0  0  0  0  0  0  0  0  0  0
  139.8130   78.4200  222.5630 C   0  0  0  0  0  0  0  0  0  0  0  0
  140.9370   79.3220  223.0100 C   0  0  0  0  0  0  0  0  0  0  0  0
  140.6880   80.4560  223.7500 C   0  0  0  0  0  0  0  0  0  0  0  0
  141.7020   81.2850  224.1640 C   0  0  0  0  0  0  0  0  0  0  0  0
  143.0220   81.0040  223.8450 C   0  0  0  0  0  0  0  0  0  0  0  0
  143.2910   79.8710  223.1030 C   0  0  0  0  0  0  0  0  0  0  0  0
  142.2550   79.0380  222.6900 C   0  0  0  0  0  0  0  0  0  0  0  0
  139.7940   70.7520  223.7100 C   0  0  0  0  0  0  0  0  0  0  0  0
  139.3010   69.4680  223.7940 C   0  0  0  0  0  0  0  0  0  0  0  0
  139.3650   68.8130  225.0210 C   0  0  0  0  0  0  0  0  0  0  0  0
  139.9030   69.4090  226.1420 C   0  0  0  0  0  0  0  0  0  0  0  0
  139.9780   68.7810  227.3690 C   0  0  0  0  0  0  0  0  0  0  0  0
  140.5320   69.4380  228.4550 C   0  0  0  0  0  0  0  0  0  0  0  0
  141.0180   70.7350  228.3260 C   0  0  0  0  0  0  0  0  0  0  0  0
  140.9350   71.3500  227.0890 C   0  0  0  0  0  0  0  0  0  0  0  0
  140.3820   70.6860  226.0130 C   0  0  0  0  0  0  0  0  0  0  0  0
  140.3160   71.3090  224.8280 N   0  0  0  0  0  0  0  0  0  0  0  0
  139.8910   73.3750  223.4450 H   0  0  0  0  0  0  0  0  0  0  0  0
  139.3597   73.1209  220.4800 H   0  0  0  0  0  0  0  0  0  0  0  0
  139.1591   74.6030  221.5096 H   0  0  0  0  0  0  0  0  0  0  0  0
  143.2697   76.2796  220.9124 H   0  0  0  0  0  0  0  0  0  0  0  0
  142.9234   75.3467  219.3811 H   0  0  0  0  0  0  0  0  0  0  0  0
  142.5149   78.2473  219.9978 H   0  0  0  0  0  0  0  0  0  0  0  0
  143.1123   77.4657  218.5156 H   0  0  0  0  0  0  0  0  0  0  0  0
  140.8278   78.1924  218.0480 H   0  0  0  0  0  0  0  0  0  0  0  0
  140.7258   76.4458  218.2473 H   0  0  0  0  0  0  0  0  0  0  0  0
  140.3518   78.5488  220.4708 H   0  0  0  0  0  0  0  0  0  0  0  0
  139.0303   77.6157  219.6646 H   0  0  0  0  0  0  0  0  0  0  0  0
  139.3714   75.8144  220.9489 H   0  0  0  0  0  0  0  0  0  0  0  0
  139.6641   76.3762  223.0103 H   0  0  0  0  0  0  0  0  0  0  0  0
  141.3546   77.0504  222.6459 H   0  0  0  0  0  0  0  0  0  0  0  0
  139.4115   78.7922  221.6090 H   0  0  0  0  0  0  0  0  0  0  0  0
  139.0329   78.4234  223.3386 H   0  0  0  0  0  0  0  0  0  0  0  0
  139.6502   80.7046  224.0166 H   0  0  0  0  0  0  0  0  0  0  0  0
  141.4643   82.1817  224.7551 H   0  0  0  0  0  0  0  0  0  0  0  0
  143.8349   81.6675  224.1750 H   0  0  0  0  0  0  0  0  0  0  0  0
  144.3296   79.6253  222.8368 H   0  0  0  0  0  0  0  0  0  0  0  0
  142.4865   78.1392  222.0997 H   0  0  0  0  0  0  0  0  0  0  0  0
  138.8673   68.9724  222.9129 H   0  0  0  0  0  0  0  0  0  0  0  0
  138.9741   67.7877  225.0985 H   0  0  0  0  0  0  0  0  0  0  0  0
  139.5966   67.7557  227.4845 H   0  0  0  0  0  0  0  0  0  0  0  0
  140.5882   68.9294  229.4288 H   0  0  0  0  0  0  0  0  0  0  0  0
  141.4580   71.2595  229.1870 H   0  0  0  0  0  0  0  0  0  0  0  0
  141.3125   72.3754  226.9626 H   0  0  0  0  0  0  0  0  0  0  0  0
  1  2  2  0
  2  3  1  0
  3  4  1  0
  4  5  1  0
  5  6  2  0
  5  7  1  0
  7  8  1  0
  8  9  1  0
  9 10  1  0
 10 11  1  0
 11 12  1  0
 12 13  1  0
 13 14  1  0
 14 15  1  0
 15 16  2  0
 16 17  1  0
 17 18  2  0
 18 19  1  0
 19 20  2  0
  2 21  1  0
 21 22  2  0
 22 23  1  0
 23 24  2  0
 24 25  1  0
 25 26  2  0
 26 27  1  0
 27 28  2  0
 28 29  1  0
 29 30  2  0
 12  7  1  0
 20 15  1  0
 30 21  1  0
 29 24  1  0
  3 31  1  0
  4 32  1  0
  4 33  1  0
  8 34  1  0
  8 35  1  0
  9 36  1  0
  9 37  1  0
 10 38  1  0
 10 39  1  0
 11 40  1  0
 11 41  1  0
 12 42  1  1
 13 43  1  0
 13 44  1  0
 14 45  1  0
 14 46  1  0
 16 47  1  0
 17 48  1  0
 18 49  1  0
 19 50  1  0
 20 51  1  0
 22 52  1  0
 23 53  1  0
 25 54  1  0
 26 55  1  0
 27 56  1  0
 28 57  1  0
M  END
>  <smiles>  (13) 
O=C(NCC(=O)N1CCCCC1CCc1ccccc1)c1ccc2ccccc2n1

>  <score_type>  (13) 
oracle

>  <origin>  (13) 
autodockgpu

>  <m_score__min__energy>  (13) 
-9.2300000000000004

>  <m_primary>  (13) 
energy

>  <rmsd>  (13) 
2.348778431287768

>  <m_score__min__rmsd>  (13) 
2.348778431287768

>  <meeko>  (13) 
{"free_energy": -8.92, "intermolecular_energy": -11.01, "internal_energy": -1.82, "cluster_size": 40, "cluster_id": 1, "rank_in_cluster": 14}

>  <energy>  (13) 
-8.93

>  <cluster_rmsd>  (13) 
1.25

>  <cluster>  (13) 
1

$$$$

     RDKit          3D

 57 60  0  0  0  0  0  0  0  0999 V2000
  139.5790   70.7820  221.5870 O   0  0  0  0  0  0  0  0  0  0  0  0
  139.0800   71.0790  222.7120 C   0  0  0  0  0  0  0  0  0  0  0  0
  138.2660   72.2310  222.8980 N   0  0  0  0  0  0  0  0  0  0  0  0
  137.9660   73.1250  221.8130 C   0  0  0  0  0  0  0  0  0  0  0  0
  138.8340   74.3400  221.8310 C   0  0  0  0  0  0  0  0  0  0  0  0
  140.0780   74.2170  222.0440 O   0  0  0  0  0  0  0  0  0  0  0  0
  138.2220   75.6070  221.6040 N   0  0  0  0  0  0  0  0  0  0  0  0
  136.9370   75.7170  220.9330 C   0  0  0  0  0  0  0  0  0  0  0  0
  136.1560   76.9440  221.3290 C   0  0  0  0  0  0  0  0  0  0  0  0
  136.5590   77.2900  222.7470 C   0  0  0  0  0  0  0  0  0  0  0  0
  137.9750   77.8290  222.6200 C   0  0  0  0  0  0  0  0  0  0  0  0
  138.9070   76.7760  222.0560 C   0  0  2  0  0  0  0  0  0  0  0  0
  139.8330   77.3940  221.0670 C   0  0  0  0  0  0  0  0  0  0  0  0
  141.2790   77.4080  221.4070 C   0  0  0  0  0  0  0  0  0  0  0  0
  141.6490   78.6630  222.1570 C   0  0  0  0  0  0  0  0  0  0  0  0
  141.8290   78.6490  223.5220 C   0  0  0  0  0  0  0  0  0  0  0  0
  142.1670   79.7840  224.2170 C   0  0  0  0  0  0  0  0  0  0  0  0
  142.3390   80.9930  223.5590 C   0  0  0  0  0  0  0  0  0  0  0  0
  142.1630   81.0260  222.1900 C   0  0  0  0  0  0  0  0  0  0  0  0
  141.8210   79.8690  221.4970 C   0  0  0  0  0  0  0  0  0  0  0  0
  139.3320   70.2210  223.8880 C   0  0  0  0  0  0  0  0  0  0  0  0
  138.9920   68.8860  223.8700 C   0  0  0  0  0  0  0  0  0  0  0  0
  139.2500   68.1220  225.0040 C   0  0  0  0  0  0  0  0  0  0  0  0
  139.8320   68.6580  226.1320 C   0  0  0  0  0  0  0  0  0  0  0  0
  140.0990   67.9220  227.2690 C   0  0  0  0  0  0  0  0  0  0  0  0
  140.6850   68.5250  228.3680 C   0  0  0  0  0  0  0  0  0  0  0  0
  141.0130   69.8770  228.3450 C   0  0  0  0  0  0  0  0  0  0  0  0
  140.7390   70.6000  227.1980 C   0  0  0  0  0  0  0  0  0  0  0  0
  140.1540   69.9890  226.1070 C   0  0  0  0  0  0  0  0  0  0  0  0
  139.9010   70.7180  225.0110 N   0  0  0  0  0  0  0  0  0  0  0  0
  137.8790   72.4220  223.8690 H   0  0  0  0  0  0  0  0  0  0  0  0
  138.1195   72.5933  220.8623 H   0  0  0  0  0  0  0  0  0  0  0  0
  136.9217   73.4527  221.9225 H   0  0  0  0  0  0  0  0  0  0  0  0
  137.1126   75.7511  219.8476 H   0  0  0  0  0  0  0  0  0  0  0  0
  136.3399   74.8427  221.2313 H   0  0  0  0  0  0  0  0  0  0  0  0
  136.3967   77.7786  220.6540 H   0  0  0  0  0  0  0  0  0  0  0  0
  135.0739   76.7571  221.2641 H   0  0  0  0  0  0  0  0  0  0  0  0
  135.8882   78.0544  223.1662 H   0  0  0  0  0  0  0  0  0  0  0  0
  136.5005   76.4231  223.4216 H   0  0  0  0  0  0  0  0  0  0  0  0
  137.9694   78.7010  221.9495 H   0  0  0  0  0  0  0  0  0  0  0  0
  138.3327   78.1149  223.6201 H   0  0  0  0  0  0  0  0  0  0  0  0
  139.5384   76.3867  222.8683 H   0  0  0  0  0  0  0  0  0  0  0  0
  139.7209   76.8446  220.1206 H   0  0  0  0  0  0  0  0  0  0  0  0
  139.5406   78.4537  221.0287 H   0  0  0  0  0  0  0  0  0  0  0  0
  141.5090   76.5339  222.0340 H   0  0  0  0  0  0  0  0  0  0  0  0
  141.8577   77.3766  220.4721 H   0  0  0  0  0  0  0  0  0  0  0  0
  141.6986   77.7041  224.0699 H   0  0  0  0  0  0  0  0  0  0  0  0
  142.3029   79.7340  225.3074 H   0  0  0  0  0  0  0  0  0  0  0  0
  142.6091   81.9033  224.1144 H   0  0  0  0  0  0  0  0  0  0  0  0
  142.2938   81.9721  221.6443 H   0  0  0  0  0  0  0  0  0  0  0  0
  141.6848   79.9125  220.4063 H   0  0  0  0  0  0  0  0  0  0  0  0
  138.5278   68.4349  222.9806 H   0  0  0  0  0  0  0  0  0  0  0  0
  138.9806   67.0555  224.9998 H   0  0  0  0  0  0  0  0  0  0  0  0
  139.8450   66.8522  227.3015 H   0  0  0  0  0  0  0  0  0  0  0  0
  140.8936   67.9294  229.2690 H   0  0  0  0  0  0  0  0  0  0  0  0
  141.4786   70.3589  229.2173 H   0  0  0  0  0  0  0  0  0  0  0  0
  140.9892   71.6703  227.1549 H   0  0  0  0  0  0  0  0  0  0  0  0
  1  2  2  0
  2  3  1  0
  3  4  1  0
  4  5  1  0
  5  6  2  0
  5  7  1  0
  7  8  1  0
  8  9  1  0
  9 10  1  0
 10 11  1  0
 11 12  1  0
 12 13  1  0
 13 14  1  0
 14 15  1  0
 15 16  2  0
 16 17  1  0
 17 18  2  0
 18 19  1  0
 19 20  2  0
  2 21  1  0
 21 22  2  0
 22 23  1  0
 23 24  2  0
 24 25  1  0
 25 26  2  0
 26 27  1  0
 27 28  2  0
 28 29  1  0
 29 30  2  0
 12  7  1  0
 20 15  1  0
 30 21  1  0
 29 24  1  0
  3 31  1  0
  4 32  1  0
  4 33  1  0
  8 34  1  0
  8 35  1  0
  9 36  1  0
  9 37  1  0
 10 38  1  0
 10 39  1  0
 11 40  1  0
 11 41  1  0
 12 42  1  1
 13 43  1  0
 13 44  1  0
 14 45  1  0
 14 46  1  0
 16 47  1  0
 17 48  1  0
 18 49  1  0
 19 50  1  0
 20 51  1  0
 22 52  1  0
 23 53  1  0
 25 54  1  0
 26 55  1  0
 27 56  1  0
 28 57  1  0
M  END
>  <smiles>  (14) 
O=C(NCC(=O)N1CCCCC1CCc1ccccc1)c1ccc2ccccc2n1

>  <score_type>  (14) 
oracle

>  <origin>  (14) 
autodockgpu

>  <m_score__min__energy>  (14) 
-9.2300000000000004

>  <m_primary>  (14) 
energy

>  <rmsd>  (14) 
2.5555154005350484

>  <m_score__min__rmsd>  (14) 
2.5555154005350484

>  <meeko>  (14) 
{"free_energy": -9.02, "intermolecular_energy": -11.11, "internal_energy": -1.47, "cluster_size": 40, "cluster_id": 1, "rank_in_cluster": 9}

>  <energy>  (14) 
-8.92

>  <cluster_rmsd>  (14) 
1.15

>  <cluster>  (14) 
1

$$$$

     RDKit          3D

 57 60  0  0  0  0  0  0  0  0999 V2000
  140.9670   71.3080  221.2910 O   0  0  0  0  0  0  0  0  0  0  0  0
  140.4800   71.9240  222.2840 C   0  0  0  0  0  0  0  0  0  0  0  0
  140.1540   73.3080  222.2280 N   0  0  0  0  0  0  0  0  0  0  0  0
  140.3620   74.0850  221.0370 C   0  0  0  0  0  0  0  0  0  0  0  0
  140.3980   75.5510  221.3220 C   0  0  0  0  0  0  0  0  0  0  0  0
  139.9440   75.9850  222.4240 O   0  0  0  0  0  0  0  0  0  0  0  0
  140.9510   76.4150  220.3320 N   0  0  0  0  0  0  0  0  0  0  0  0
  142.3830   76.4690  220.0900 C   0  0  0  0  0  0  0  0  0  0  0  0
  142.7390   76.8800  218.6840 C   0  0  0  0  0  0  0  0  0  0  0  0
  141.6040   76.4270  217.7880 C   0  0  0  0  0  0  0  0  0  0  0  0
  140.4570   77.3660  218.1230 C   0  0  0  0  0  0  0  0  0  0  0  0
  140.0560   77.2330  219.5790 C   0  0  2  0  0  0  0  0  0  0  0  0
  139.7820   78.5790  220.1560 C   0  0  0  0  0  0  0  0  0  0  0  0
  140.9110   79.5440  220.1900 C   0  0  0  0  0  0  0  0  0  0  0  0
  141.4550   79.6950  221.5890 C   0  0  0  0  0  0  0  0  0  0  0  0
  142.1740   80.8110  221.9560 C   0  0  0  0  0  0  0  0  0  0  0  0
  142.6740   80.9620  223.2260 C   0  0  0  0  0  0  0  0  0  0  0  0
  142.4690   79.9850  224.1890 C   0  0  0  0  0  0  0  0  0  0  0  0
  141.7500   78.8590  223.8390 C   0  0  0  0  0  0  0  0  0  0  0  0
  141.2480   78.7180  222.5490 C   0  0  0  0  0  0  0  0  0  0  0  0
  140.2300   71.2120  223.5530 C   0  0  0  0  0  0  0  0  0  0  0  0
  139.5580   70.0090  223.5620 C   0  0  0  0  0  0  0  0  0  0  0  0
  139.3480   69.3770  224.7850 C   0  0  0  0  0  0  0  0  0  0  0  0
  139.7880   69.9180  225.9740 C   0  0  0  0  0  0  0  0  0  0  0  0
  139.5930   69.3130  227.1990 C   0  0  0  0  0  0  0  0  0  0  0  0
  140.0620   69.9110  228.3550 C   0  0  0  0  0  0  0  0  0  0  0  0
  140.7350   71.1280  228.3010 C   0  0  0  0  0  0  0  0  0  0  0  0
  140.9230   71.7210  227.0660 C   0  0  0  0  0  0  0  0  0  0  0  0
  140.4510   71.1160  225.9190 C   0  0  0  0  0  0  0  0  0  0  0  0
  140.6490   71.7170  224.7370 N   0  0  0  0  0  0  0  0  0  0  0  0
  139.7480   73.7650  223.0980 H   0  0  0  0  0  0  0  0  0  0  0  0
  141.3188   73.7884  220.5825 H   0  0  0  0  0  0  0  0  0  0  0  0
  139.5201   73.8928  220.3557 H   0  0  0  0  0  0  0  0  0  0  0  0
  142.8272   77.1940  220.7879 H   0  0  0  0  0  0  0  0  0  0  0  0
  142.7755   75.4524  220.2396 H   0  0  0  0  0  0  0  0  0  0  0  0
  142.8518   77.9727  218.6272 H   0  0  0  0  0  0  0  0  0  0  0  0
  143.6906   76.4252  218.3716 H   0  0  0  0  0  0  0  0  0  0  0  0
  141.8848   76.5187  216.7284 H   0  0  0  0  0  0  0  0  0  0  0  0
  141.3406   75.3711  217.9480 H   0  0  0  0  0  0  0  0  0  0  0  0
  140.7716   78.4021  217.9294 H   0  0  0  0  0  0  0  0  0  0  0  0
  139.5929   77.1029  217.4952 H   0  0  0  0  0  0  0  0  0  0  0  0
  139.1104   76.6744  219.6398 H   0  0  0  0  0  0  0  0  0  0  0  0
  138.9743   79.0348  219.5645 H   0  0  0  0  0  0  0  0  0  0  0  0
  139.5367   78.3912  221.2117 H   0  0  0  0  0  0  0  0  0  0  0  0
  141.7130   79.1819  219.5299 H   0  0  0  0  0  0  0  0  0  0  0  0
  140.5434   80.5236  219.8507 H   0  0  0  0  0  0  0  0  0  0  0  0
  142.3523   81.6018  221.2125 H   0  0  0  0  0  0  0  0  0  0  0  0
  143.2433   81.8676  223.4824 H   0  0  0  0  0  0  0  0  0  0  0  0
  142.8693   80.1041  225.2066 H   0  0  0  0  0  0  0  0  0  0  0  0
  141.5732   78.0693  224.5841 H   0  0  0  0  0  0  0  0  0  0  0  0
  140.6769   77.8151  222.2869 H   0  0  0  0  0  0  0  0  0  0  0  0
  139.1962   69.5588  222.6258 H   0  0  0  0  0  0  0  0  0  0  0  0
  138.8140   68.4155  224.8028 H   0  0  0  0  0  0  0  0  0  0  0  0
  139.0624   68.3512  227.2565 H   0  0  0  0  0  0  0  0  0  0  0  0
  139.9014   69.4199  229.3261 H   0  0  0  0  0  0  0  0  0  0  0  0
  141.1083   71.6065  229.2184 H   0  0  0  0  0  0  0  0  0  0  0  0
  141.4529   72.6825  226.9973 H   0  0  0  0  0  0  0  0  0  0  0  0
  1  2  2  0
  2  3  1  0
  3  4  1  0
  4  5  1  0
  5  6  2  0
  5  7  1  0
  7  8  1  0
  8  9  1  0
  9 10  1  0
 10 11  1  0
 11 12  1  0
 12 13  1  0
 13 14  1  0
 14 15  1  0
 15 16  2  0
 16 17  1  0
 17 18  2  0
 18 19  1  0
 19 20  2  0
  2 21  1  0
 21 22  2  0
 22 23  1  0
 23 24  2  0
 24 25  1  0
 25 26  2  0
 26 27  1  0
 27 28  2  0
 28 29  1  0
 29 30  2  0
 12  7  1  0
 20 15  1  0
 30 21  1  0
 29 24  1  0
  3 31  1  0
  4 32  1  0
  4 33  1  0
  8 34  1  0
  8 35  1  0
  9 36  1  0
  9 37  1  0
 10 38  1  0
 10 39  1  0
 11 40  1  0
 11 41  1  0
 12 42  1  6
 13 43  1  0
 13 44  1  0
 14 45  1  0
 14 46  1  0
 16 47  1  0
 17 48  1  0
 18 49  1  0
 19 50  1  0
 20 51  1  0
 22 52  1  0
 23 53  1  0
 25 54  1  0
 26 55  1  0
 27 56  1  0
 28 57  1  0
M  END
>  <smiles>  (15) 
O=C(NCC(=O)N1CCCCC1CCc1ccccc1)c1ccc2ccccc2n1

>  <score_type>  (15) 
oracle

>  <origin>  (15) 
autodockgpu

>  <m_score__min__energy>  (15) 
-9.2300000000000004

>  <m_primary>  (15) 
energy

>  <rmsd>  (15) 
2.2240157922580277

>  <m_score__min__rmsd>  (15) 
2.2240157922580277

>  <meeko>  (15) 
{"free_energy": -8.75, "intermolecular_energy": -10.84, "internal_energy": -2.18, "cluster_size": 40, "cluster_id": 1, "rank_in_cluster": 25}

>  <energy>  (15) 
-8.92

>  <cluster_rmsd>  (15) 
1.38

>  <cluster>  (15) 
1

$$$$

     RDKit          3D

 57 60  0  0  0  0  0  0  0  0999 V2000
  137.1090   76.6130  222.4340 O   0  0  0  0  0  0  0  0  0  0  0  0
  138.3750   76.6590  222.4190 C   0  0  0  0  0  0  0  0  0  0  0  0
  139.1680   75.5330  222.0620 N   0  0  0  0  0  0  0  0  0  0  0  0
  138.5730   74.2770  221.6980 C   0  0  0  0  0  0  0  0  0  0  0  0
  139.4770   73.1230  221.9870 C   0  0  0  0  0  0  0  0  0  0  0  0
  140.7300   73.3130  222.0570 O   0  0  0  0  0  0  0  0  0  0  0  0
  138.8890   71.8380  222.1750 N   0  0  0  0  0  0  0  0  0  0  0  0
  137.6610   71.4620  221.4960 C   0  0  0  0  0  0  0  0  0  0  0  0
  137.5290   69.9770  221.2730 C   0  0  0  0  0  0  0  0  0  0  0  0
  138.9320   69.4200  221.1510 C   0  0  0  0  0  0  0  0  0  0  0  0
  139.4930   69.4900  222.5620 C   0  0  0  0  0  0  0  0  0  0  0  0
  139.5430   70.9230  223.0540 C   0  0  2  0  0  0  0  0  0  0  0  0
  139.1100   70.9860  224.4780 C   0  0  0  0  0  0  0  0  0  0  0  0
  138.5190   69.7560  225.0630 C   0  0  0  0  0  0  0  0  0  0  0  0
  139.3980   69.1960  226.1530 C   0  0  0  0  0  0  0  0  0  0  0  0
  140.0340   67.9830  226.0030 C   0  0  0  0  0  0  0  0  0  0  0  0
  140.8380   67.4620  226.9860 C   0  0  0  0  0  0  0  0  0  0  0  0
  141.0360   68.1470  228.1760 C   0  0  0  0  0  0  0  0  0  0  0  0
  140.4070   69.3650  228.3450 C   0  0  0  0  0  0  0  0  0  0  0  0
  139.5950   69.8820  227.3400 C   0  0  0  0  0  0  0  0  0  0  0  0
  139.0780   77.9070  222.7790 C   0  0  0  0  0  0  0  0  0  0  0  0
  138.3700   79.0420  223.1090 C   0  0  0  0  0  0  0  0  0  0  0  0
  139.0810   80.1930  223.4400 C   0  0  0  0  0  0  0  0  0  0  0  0
  140.4590   80.2260  223.4450 C   0  0  0  0  0  0  0  0  0  0  0  0
  141.1870   81.3540  223.7690 C   0  0  0  0  0  0  0  0  0  0  0  0
  142.5700   81.3180  223.7550 C   0  0  0  0  0  0  0  0  0  0  0  0
  143.2460   80.1510  223.4150 C   0  0  0  0  0  0  0  0  0  0  0  0
  142.5020   79.0290  223.0930 C   0  0  0  0  0  0  0  0  0  0  0  0
  141.1220   79.0760  223.1100 C   0  0  0  0  0  0  0  0  0  0  0  0
  140.4300   77.9730  222.7930 N   0  0  0  0  0  0  0  0  0  0  0  0
  140.2250   75.6400  222.0700 H   0  0  0  0  0  0  0  0  0  0  0  0
  137.6403   74.1482  222.2667 H   0  0  0  0  0  0  0  0  0  0  0  0
  138.3806   74.2941  220.6151 H   0  0  0  0  0  0  0  0  0  0  0  0
  136.8090   71.8000  222.1042 H   0  0  0  0  0  0  0  0  0  0  0  0
  137.6800   71.9382  220.5046 H   0  0  0  0  0  0  0  0  0  0  0  0
  137.0109   69.5119  222.1246 H   0  0  0  0  0  0  0  0  0  0  0  0
  136.9436   69.7673  220.3656 H   0  0  0  0  0  0  0  0  0  0  0  0
  138.9078   68.3801  220.7933 H   0  0  0  0  0  0  0  0  0  0  0  0
  139.5437   69.9812  220.4292 H   0  0  0  0  0  0  0  0  0  0  0  0
  138.8519   68.9007  223.2341 H   0  0  0  0  0  0  0  0  0  0  0  0
  140.5158   69.0854  222.5539 H   0  0  0  0  0  0  0  0  0  0  0  0
  140.5858   71.2724  223.0333 H   0  0  0  0  0  0  0  0  0  0  0  0
  139.9921   71.2482  225.0807 H   0  0  0  0  0  0  0  0  0  0  0  0
  138.2968   71.7265  224.4944 H   0  0  0  0  0  0  0  0  0  0  0  0
  137.5326   69.9975  225.4856 H   0  0  0  0  0  0  0  0  0  0  0  0
  138.4252   69.0015  224.2680 H   0  0  0  0  0  0  0  0  0  0  0  0
  139.8937   67.4169  225.0704 H   0  0  0  0  0  0  0  0  0  0  0  0
  141.3305   66.4911  226.8285 H   0  0  0  0  0  0  0  0  0  0  0  0
  141.6783   67.7303  228.9658 H   0  0  0  0  0  0  0  0  0  0  0  0
  140.5486   69.9292  229.2786 H   0  0  0  0  0  0  0  0  0  0  0  0
  139.1007   70.8530  227.4910 H   0  0  0  0  0  0  0  0  0  0  0  0
  137.2700   79.0392  223.1110 H   0  0  0  0  0  0  0  0  0  0  0  0
  138.5254   81.1044  223.7058 H   0  0  0  0  0  0  0  0  0  0  0  0
  140.6655   82.2841  224.0391 H   0  0  0  0  0  0  0  0  0  0  0  0
  143.1408   82.2216  224.0154 H   0  0  0  0  0  0  0  0  0  0  0  0
  144.3455   80.1204  223.4023 H   0  0  0  0  0  0  0  0  0  0  0  0
  143.0135   78.0937  222.8218 H   0  0  0  0  0  0  0  0  0  0  0  0
  1  2  2  0
  2  3  1  0
  3  4  1  0
  4  5  1  0
  5  6  2  0
  5  7  1  0
  7  8  1  0
  8  9  1  0
  9 10  1  0
 10 11  1  0
 11 12  1  0
 12 13  1  0
 13 14  1  0
 14 15  1  0
 15 16  2  0
 16 17  1  0
 17 18  2  0
 18 19  1  0
 19 20  2  0
  2 21  1  0
 21 22  2  0
 22 23  1  0
 23 24  2  0
 24 25  1  0
 25 26  2  0
 26 27  1  0
 27 28  2  0
 28 29  1  0
 29 30  2  0
 12  7  1  0
 20 15  1  0
 30 21  1  0
 29 24  1  0
  3 31  1  0
  4 32  1  0
  4 33  1  0
  8 34  1  0
  8 35  1  0
  9 36  1  0
  9 37  1  0
 10 38  1  0
 10 39  1  0
 11 40  1  0
 11 41  1  0
 12 42  1  1
 13 43  1  0
 13 44  1  0
 14 45  1  0
 14 46  1  0
 16 47  1  0
 17 48  1  0
 18 49  1  0
 19 50  1  0
 20 51  1  0
 22 52  1  0
 23 53  1  0
 25 54  1  0
 26 55  1  0
 27 56  1  0
 28 57  1  0
M  END
>  <smiles>  (16) 
O=C(NCC(=O)N1CCCCC1CCc1ccccc1)c1ccc2ccccc2n1

>  <score_type>  (16) 
oracle

>  <origin>  (16) 
autodockgpu

>  <m_score__min__energy>  (16) 
-9.2300000000000004

>  <m_primary>  (16) 
energy

>  <rmsd>  (16) 
8.293269298730591

>  <m_score__min__rmsd>  (16) 
8.293269298730591

>  <meeko>  (16) 
{"free_energy": -8.41, "intermolecular_energy": -10.5, "internal_energy": -2.02, "cluster_size": 8, "cluster_id": 2, "rank_in_cluster": 4}

>  <energy>  (16) 
-8.92

>  <cluster_rmsd>  (16) 
0.77

>  <cluster>  (16) 
1

$$$$

     RDKit          3D

 57 60  0  0  0  0  0  0  0  0999 V2000
  141.1010   72.1900  221.8770 O   0  0  0  0  0  0  0  0  0  0  0  0
  140.0820   72.1580  222.6280 C   0  0  0  0  0  0  0  0  0  0  0  0
  138.9630   73.0120  222.4220 N   0  0  0  0  0  0  0  0  0  0  0  0
  138.9290   73.9630  221.3450 C   0  0  0  0  0  0  0  0  0  0  0  0
  139.7150   75.1940  221.6580 C   0  0  0  0  0  0  0  0  0  0  0  0
  140.9330   75.0890  221.9960 O   0  0  0  0  0  0  0  0  0  0  0  0
  139.0570   76.4550  221.5620 N   0  0  0  0  0  0  0  0  0  0  0  0
  137.6300   76.5450  221.3010 C   0  0  0  0  0  0  0  0  0  0  0  0
  136.9970   77.7980  221.8500 C   0  0  0  0  0  0  0  0  0  0  0  0
  137.8050   78.2080  223.0650 C   0  0  0  0  0  0  0  0  0  0  0  0
  139.1150   78.7260  222.4940 C   0  0  0  0  0  0  0  0  0  0  0  0
  139.8400   77.6360  221.7300 C   0  0  2  0  0  0  0  0  0  0  0  0
  140.4260   78.1960  220.4790 C   0  0  0  0  0  0  0  0  0  0  0  0
  141.8070   78.7370  220.5600 C   0  0  0  0  0  0  0  0  0  0  0  0
  141.9390   79.7240  221.6930 C   0  0  0  0  0  0  0  0  0  0  0  0
  142.5810   79.3830  222.8620 C   0  0  0  0  0  0  0  0  0  0  0  0
  142.7090   80.2720  223.9010 C   0  0  0  0  0  0  0  0  0  0  0  0
  142.1900   81.5550  223.8040 C   0  0  0  0  0  0  0  0  0  0  0  0
  141.5430   81.9150  222.6390 C   0  0  0  0  0  0  0  0  0  0  0  0
  141.4200   81.0050  221.5930 C   0  0  0  0  0  0  0  0  0  0  0  0
  140.0240   71.2140  223.7630 C   0  0  0  0  0  0  0  0  0  0  0  0
  139.4570   69.9680  223.6110 C   0  0  0  0  0  0  0  0  0  0  0  0
  139.4260   69.1160  224.7120 C   0  0  0  0  0  0  0  0  0  0  0  0
  139.9420   69.4820  225.9360 C   0  0  0  0  0  0  0  0  0  0  0  0
  139.9250   68.6560  227.0420 C   0  0  0  0  0  0  0  0  0  0  0  0
  140.4620   69.0880  228.2430 C   0  0  0  0  0  0  0  0  0  0  0  0
  141.0250   70.3550  228.3530 C   0  0  0  0  0  0  0  0  0  0  0  0
  141.0350   71.1700  227.2350 C   0  0  0  0  0  0  0  0  0  0  0  0
  140.4970   70.7300  226.0430 C   0  0  0  0  0  0  0  0  0  0  0  0
  140.5220   71.5440  224.9780 N   0  0  0  0  0  0  0  0  0  0  0  0
  138.1400   72.9330  223.0900 H   0  0  0  0  0  0  0  0  0  0  0  0
  139.3494   73.4933  220.4435 H   0  0  0  0  0  0  0  0  0  0  0  0
  137.8816   74.2603  221.1883 H   0  0  0  0  0  0  0  0  0  0  0  0
  137.4730   76.5236  220.2125 H   0  0  0  0  0  0  0  0  0  0  0  0
  137.1537   75.6927  221.8077 H   0  0  0  0  0  0  0  0  0  0  0  0
  137.0214   78.5961  221.0934 H   0  0  0  0  0  0  0  0  0  0  0  0
  135.9455   77.6203  222.1200 H   0  0  0  0  0  0  0  0  0  0  0  0
  137.2868   78.9983  223.6279 H   0  0  0  0  0  0  0  0  0  0  0  0
  137.9553   77.3752  223.7677 H   0  0  0  0  0  0  0  0  0  0  0  0
  138.9049   79.5642  221.8134 H   0  0  0  0  0  0  0  0  0  0  0  0
  139.7544   79.0575  223.3255 H   0  0  0  0  0  0  0  0  0  0  0  0
  140.6866   77.2792  222.3349 H   0  0  0  0  0  0  0  0  0  0  0  0
  140.4284   77.3937  219.7265 H   0  0  0  0  0  0  0  0  0  0  0  0
  139.7954   79.0632  220.2336 H   0  0  0  0  0  0  0  0  0  0  0  0
  142.5091   77.9062  220.7239 H   0  0  0  0  0  0  0  0  0  0  0  0
  142.0345   79.2557  219.6170 H   0  0  0  0  0  0  0  0  0  0  0  0
  143.0024   78.3723  222.9667 H   0  0  0  0  0  0  0  0  0  0  0  0
  143.2287   79.9634  224.8201 H   0  0  0  0  0  0  0  0  0  0  0  0
  142.2916   82.2681  224.6354 H   0  0  0  0  0  0  0  0  0  0  0  0
  141.1224   82.9263  222.5368 H   0  0  0  0  0  0  0  0  0  0  0  0
  140.9019   81.3079  220.6711 H   0  0  0  0  0  0  0  0  0  0  0  0
  139.0388   69.6536  222.6434 H   0  0  0  0  0  0  0  0  0  0  0  0
  138.9751   68.1188  224.6010 H   0  0  0  0  0  0  0  0  0  0  0  0
  139.4833   67.6512  226.9690 H   0  0  0  0  0  0  0  0  0  0  0  0
  140.4431   68.4225  229.1187 H   0  0  0  0  0  0  0  0  0  0  0  0
  141.4520   70.7008  229.3059 H   0  0  0  0  0  0  0  0  0  0  0  0
  141.4751   72.1762  227.2969 H   0  0  0  0  0  0  0  0  0  0  0  0
  1  2  2  0
  2  3  1  0
  3  4  1  0
  4  5  1  0
  5  6  2  0
  5  7  1  0
  7  8  1  0
  8  9  1  0
  9 10  1  0
 10 11  1  0
 11 12  1  0
 12 13  1  0
 13 14  1  0
 14 15  1  0
 15 16  2  0
 16 17  1  0
 17 18  2  0
 18 19  1  0
 19 20  2  0
  2 21  1  0
 21 22  2  0
 22 23  1  0
 23 24  2  0
 24 25  1  0
 25 26  2  0
 26 27  1  0
 27 28  2  0
 28 29  1  0
 29 30  2  0
 12  7  1  0
 20 15  1  0
 30 21  1  0
 29 24  1  0
  3 31  1  0
  4 32  1  0
  4 33  1  0
  8 34  1  0
  8 35  1  0
  9 36  1  0
  9 37  1  0
 10 38  1  0
 10 39  1  0
 11 40  1  0
 11 41  1  0
 12 42  1  1
 13 43  1  0
 13 44  1  0
 14 45  1  0
 14 46  1  0
 16 47  1  0
 17 48  1  0
 18 49  1  0
 19 50  1  0
 20 51  1  0
 22 52  1  0
 23 53  1  0
 25 54  1  0
 26 55  1  0
 27 56  1  0
 28 57  1  0
M  END
>  <smiles>  (17) 
O=C(NCC(=O)N1CCCCC1CCc1ccccc1)c1ccc2ccccc2n1

>  <score_type>  (17) 
oracle

>  <origin>  (17) 
autodockgpu

>  <m_score__min__energy>  (17) 
-9.2300000000000004

>  <m_primary>  (17) 
energy

>  <rmsd>  (17) 
2.49479976552109

>  <m_score__min__rmsd>  (17) 
2.49479976552109

>  <meeko>  (17) 
{"free_energy": -9.22, "intermolecular_energy": -11.3, "internal_energy": -1.46, "cluster_size": 40, "cluster_id": 1, "rank_in_cluster": 3}

>  <energy>  (17) 
-8.9

>  <cluster_rmsd>  (17) 
1.26

>  <cluster>  (17) 
1

$$$$

     RDKit          3D

 57 60  0  0  0  0  0  0  0  0999 V2000
  140.7550   71.5240  221.2310 O   0  0  0  0  0  0  0  0  0  0  0  0
  140.3090   72.1040  222.2650 C   0  0  0  0  0  0  0  0  0  0  0  0
  139.9180   73.4720  222.2540 N   0  0  0  0  0  0  0  0  0  0  0  0
  140.0090   74.2730  221.0640 C   0  0  0  0  0  0  0  0  0  0  0  0
  140.7720   75.5370  221.2960 C   0  0  0  0  0  0  0  0  0  0  0  0
  140.8030   76.0440  222.4580 O   0  0  0  0  0  0  0  0  0  0  0  0
  141.4440   76.1300  220.1870 N   0  0  0  0  0  0  0  0  0  0  0  0
  142.8840   76.0170  220.0280 C   0  0  0  0  0  0  0  0  0  0  0  0
  143.3380   76.0970  218.5930 C   0  0  0  0  0  0  0  0  0  0  0  0
  142.2070   75.5610  217.7390 C   0  0  0  0  0  0  0  0  0  0  0  0
  141.1360   76.6380  217.8050 C   0  0  0  0  0  0  0  0  0  0  0  0
  140.6610   76.8420  219.2300 C   0  0  2  0  0  0  0  0  0  0  0  0
  140.4870   78.2960  219.5040 C   0  0  0  0  0  0  0  0  0  0  0  0
  139.8000   78.6710  220.7660 C   0  0  0  0  0  0  0  0  0  0  0  0
  140.7820   79.1870  221.7880 C   0  0  0  0  0  0  0  0  0  0  0  0
  140.6680   78.8490  223.1180 C   0  0  0  0  0  0  0  0  0  0  0  0
  141.5560   79.3100  224.0580 C   0  0  0  0  0  0  0  0  0  0  0  0
  142.6070   80.1400  223.6940 C   0  0  0  0  0  0  0  0  0  0  0  0
  142.7370   80.4890  222.3640 C   0  0  0  0  0  0  0  0  0  0  0  0
  141.8310   80.0150  221.4210 C   0  0  0  0  0  0  0  0  0  0  0  0
  140.1780   71.3640  223.5360 C   0  0  0  0  0  0  0  0  0  0  0  0
  139.5870   70.1200  223.5660 C   0  0  0  0  0  0  0  0  0  0  0  0
  139.4880   69.4640  224.7900 C   0  0  0  0  0  0  0  0  0  0  0  0
  139.9600   70.0200  225.9600 C   0  0  0  0  0  0  0  0  0  0  0  0
  139.8740   69.3900  227.1850 C   0  0  0  0  0  0  0  0  0  0  0  0
  140.3700   70.0060  228.3220 C   0  0  0  0  0  0  0  0  0  0  0  0
  140.9590   71.2640  228.2460 C   0  0  0  0  0  0  0  0  0  0  0  0
  141.0380   71.8810  227.0100 C   0  0  0  0  0  0  0  0  0  0  0  0
  140.5410   71.2580  225.8840 C   0  0  0  0  0  0  0  0  0  0  0  0
  140.6320   71.8830  224.7010 N   0  0  0  0  0  0  0  0  0  0  0  0
  139.5510   73.8980  223.1560 H   0  0  0  0  0  0  0  0  0  0  0  0
  140.5172   73.6901  220.2817 H   0  0  0  0  0  0  0  0  0  0  0  0
  138.9877   74.5442  220.7585 H   0  0  0  0  0  0  0  0  0  0  0  0
  143.3616   76.8329  220.5904 H   0  0  0  0  0  0  0  0  0  0  0  0
  143.1745   75.0252  220.4047 H   0  0  0  0  0  0  0  0  0  0  0  0
  143.5530   77.1414  218.3227 H   0  0  0  0  0  0  0  0  0  0  0  0
  144.2568   75.5120  218.4392 H   0  0  0  0  0  0  0  0  0  0  0  0
  142.5414   75.4084  216.7022 H   0  0  0  0  0  0  0  0  0  0  0  0
  141.8416   74.5858  218.0933 H   0  0  0  0  0  0  0  0  0  0  0  0
  141.5516   77.5830  217.4252 H   0  0  0  0  0  0  0  0  0  0  0  0
  140.2801   76.3205  217.1913 H   0  0  0  0  0  0  0  0  0  0  0  0
  139.6668   76.3853  219.3439 H   0  0  0  0  0  0  0  0  0  0  0  0
  141.4882   78.7511  219.5243 H   0  0  0  0  0  0  0  0  0  0  0  0
  139.8263   78.6586  218.7028 H   0  0  0  0  0  0  0  0  0  0  0  0
  139.0591   79.4554  220.5520 H   0  0  0  0  0  0  0  0  0  0  0  0
  139.3091   77.7757  221.1751 H   0  0  0  0  0  0  0  0  0  0  0  0
  139.8442   78.1927  223.4354 H   0  0  0  0  0  0  0  0  0  0  0  0
  141.4331   79.0182  225.1115 H   0  0  0  0  0  0  0  0  0  0  0  0
  143.3189   80.5108  224.4462 H   0  0  0  0  0  0  0  0  0  0  0  0
  143.5615   81.1454  222.0488 H   0  0  0  0  0  0  0  0  0  0  0  0
  141.9491   80.3023  220.3658 H   0  0  0  0  0  0  0  0  0  0  0  0
  139.2027   69.6563  222.6455 H   0  0  0  0  0  0  0  0  0  0  0  0
  139.0181   68.4700  224.8247 H   0  0  0  0  0  0  0  0  0  0  0  0
  139.4100   68.3954  227.2585 H   0  0  0  0  0  0  0  0  0  0  0  0
  140.2975   69.4959  229.2939 H   0  0  0  0  0  0  0  0  0  0  0  0
  141.3527   71.7566  229.1473 H   0  0  0  0  0  0  0  0  0  0  0  0
  141.5004   72.8754  226.9247 H   0  0  0  0  0  0  0  0  0  0  0  0
  1  2  2  0
  2  3  1  0
  3  4  1  0
  4  5  1  0
  5  6  2  0
  5  7  1  0
  7  8  1  0
  8  9  1  0
  9 10  1  0
 10 11  1  0
 11 12  1  0
 12 13  1  0
 13 14  1  0
 14 15  1  0
 15 16  2  0
 16 17  1  0
 17 18  2  0
 18 19  1  0
 19 20  2  0
  2 21  1  0
 21 22  2  0
 22 23  1  0
 23 24  2  0
 24 25  1  0
 25 26  2  0
 26 27  1  0
 27 28  2  0
 28 29  1  0
 29 30  2  0
 12  7  1  0
 20 15  1  0
 30 21  1  0
 29 24  1  0
  3 31  1  0
  4 32  1  0
  4 33  1  0
  8 34  1  0
  8 35  1  0
  9 36  1  0
  9 37  1  0
 10 38  1  0
 10 39  1  0
 11 40  1  0
 11 41  1  0
 12 42  1  6
 13 43  1  0
 13 44  1  0
 14 45  1  0
 14 46  1  0
 16 47  1  0
 17 48  1  0
 18 49  1  0
 19 50  1  0
 20 51  1  0
 22 52  1  0
 23 53  1  0
 25 54  1  0
 26 55  1  0
 27 56  1  0
 28 57  1  0
M  END
>  <smiles>  (18) 
O=C(NCC(=O)N1CCCCC1CCc1ccccc1)c1ccc2ccccc2n1

>  <score_type>  (18) 
oracle

>  <origin>  (18) 
autodockgpu

>  <m_score__min__energy>  (18) 
-9.2300000000000004

>  <m_primary>  (18) 
energy

>  <rmsd>  (18) 
2.162398195739922

>  <m_score__min__rmsd>  (18) 
2.162398195739922

>  <meeko>  (18) 
{"free_energy": -8.81, "intermolecular_energy": -10.9, "internal_energy": -1.95, "cluster_size": 40, "cluster_id": 1, "rank_in_cluster": 24}

>  <energy>  (18) 
-8.89

>  <cluster_rmsd>  (18) 
1.03

>  <cluster>  (18) 
1

$$$$

     RDKit          3D

 57 60  0  0  0  0  0  0  0  0999 V2000
  140.4750   71.3610  221.2080 O   0  0  0  0  0  0  0  0  0  0  0  0
  140.1540   71.9670  222.2730 C   0  0  0  0  0  0  0  0  0  0  0  0
  139.8300   73.3530  222.2850 N   0  0  0  0  0  0  0  0  0  0  0  0
  139.8500   74.1420  221.0840 C   0  0  0  0  0  0  0  0  0  0  0  0
  141.2050   74.7080  220.8070 C   0  0  0  0  0  0  0  0  0  0  0  0
  142.2370   74.0190  221.0720 O   0  0  0  0  0  0  0  0  0  0  0  0
  141.2860   76.0160  220.2470 N   0  0  0  0  0  0  0  0  0  0  0  0
  142.5660   76.6720  220.0400 C   0  0  0  0  0  0  0  0  0  0  0  0
  142.5510   77.6780  218.9170 C   0  0  0  0  0  0  0  0  0  0  0  0
  141.5090   77.2150  217.9210 C   0  0  0  0  0  0  0  0  0  0  0  0
  140.1800   77.4750  218.6110 C   0  0  0  0  0  0  0  0  0  0  0  0
  140.0690   76.6720  219.8910 C   0  0  2  0  0  0  0  0  0  0  0  0
  139.4560   77.5060  220.9630 C   0  0  0  0  0  0  0  0  0  0  0  0
  140.0880   77.4540  222.3060 C   0  0  0  0  0  0  0  0  0  0  0  0
  140.9850   78.6460  222.5320 C   0  0  0  0  0  0  0  0  0  0  0  0
  141.7390   78.7620  223.6780 C   0  0  0  0  0  0  0  0  0  0  0  0
  142.5600   79.8410  223.8950 C   0  0  0  0  0  0  0  0  0  0  0  0
  142.6560   80.8590  222.9580 C   0  0  0  0  0  0  0  0  0  0  0  0
  141.9070   80.7590  221.8020 C   0  0  0  0  0  0  0  0  0  0  0  0
  141.0790   79.6610  221.5940 C   0  0  0  0  0  0  0  0  0  0  0  0
  140.1060   71.2410  223.5580 C   0  0  0  0  0  0  0  0  0  0  0  0
  139.5760   69.9710  223.6270 C   0  0  0  0  0  0  0  0  0  0  0  0
  139.5530   69.3300  224.8620 C   0  0  0  0  0  0  0  0  0  0  0  0
  140.0420   69.9240  226.0050 C   0  0  0  0  0  0  0  0  0  0  0  0
  140.0310   69.3100  227.2410 C   0  0  0  0  0  0  0  0  0  0  0  0
  140.5400   69.9650  228.3500 C   0  0  0  0  0  0  0  0  0  0  0  0
  141.0660   71.2470  228.2360 C   0  0  0  0  0  0  0  0  0  0  0  0
  141.0700   71.8490  226.9900 C   0  0  0  0  0  0  0  0  0  0  0  0
  140.5610   71.1870  225.8910 C   0  0  0  0  0  0  0  0  0  0  0  0
  140.5780   71.7980  224.6980 N   0  0  0  0  0  0  0  0  0  0  0  0
  139.5690   73.8000  223.2130 H   0  0  0  0  0  0  0  0  0  0  0  0
  139.5508   73.5069  220.2371 H   0  0  0  0  0  0  0  0  0  0  0  0
  139.1525   74.9819  221.2183 H   0  0  0  0  0  0  0  0  0  0  0  0
  142.8456   77.1909  220.9687 H   0  0  0  0  0  0  0  0  0  0  0  0
  143.2896   75.8905  219.7650 H   0  0  0  0  0  0  0  0  0  0  0  0
  142.2870   78.6729  219.3048 H   0  0  0  0  0  0  0  0  0  0  0  0
  143.5410   77.7519  218.4433 H   0  0  0  0  0  0  0  0  0  0  0  0
  141.5812   77.7912  216.9868 H   0  0  0  0  0  0  0  0  0  0  0  0
  141.6363   76.1582  217.6437 H   0  0  0  0  0  0  0  0  0  0  0  0
  140.1016   78.5459  218.8498 H   0  0  0  0  0  0  0  0  0  0  0  0
  139.3675   77.1717  217.9343 H   0  0  0  0  0  0  0  0  0  0  0  0
  139.3814   75.8295  219.7253 H   0  0  0  0  0  0  0  0  0  0  0  0
  139.4826   78.5523  220.6247 H   0  0  0  0  0  0  0  0  0  0  0  0
  138.4484   77.0888  221.1066 H   0  0  0  0  0  0  0  0  0  0  0  0
  139.3001   77.4469  223.0736 H   0  0  0  0  0  0  0  0  0  0  0  0
  140.6984   76.5411  222.3692 H   0  0  0  0  0  0  0  0  0  0  0  0
  141.6823   77.9700  224.4393 H   0  0  0  0  0  0  0  0  0  0  0  0
  143.1483   79.8987  224.8227 H   0  0  0  0  0  0  0  0  0  0  0  0
  143.3124   81.7245  223.1312 H   0  0  0  0  0  0  0  0  0  0  0  0
  141.9656   81.5519  221.0418 H   0  0  0  0  0  0  0  0  0  0  0  0
  140.4883   79.5975  220.6682 H   0  0  0  0  0  0  0  0  0  0  0  0
  139.1807   69.4759  222.7278 H   0  0  0  0  0  0  0  0  0  0  0  0
  139.1308   68.3164  224.9278 H   0  0  0  0  0  0  0  0  0  0  0  0
  139.6164   68.2965  227.3456 H   0  0  0  0  0  0  0  0  0  0  0  0
  140.5280   69.4663  229.3304 H   0  0  0  0  0  0  0  0  0  0  0  0
  141.4694   71.7703  229.1154 H   0  0  0  0  0  0  0  0  0  0  0  0
  141.4818   72.8624  226.8746 H   0  0  0  0  0  0  0  0  0  0  0  0
  1  2  2  0
  2  3  1  0
  3  4  1  0
  4  5  1  0
  5  6  2  0
  5  7  1  0
  7  8  1  0
  8  9  1  0
  9 10  1  0
 10 11  1  0
 11 12  1  0
 12 13  1  0
 13 14  1  0
 14 15  1  0
 15 16  2  0
 16 17  1  0
 17 18  2  0
 18 19  1  0
 19 20  2  0
  2 21  1  0
 21 22  2  0
 22 23  1  0
 23 24  2  0
 24 25  1  0
 25 26  2  0
 26 27  1  0
 27 28  2  0
 28 29  1  0
 29 30  2  0
 12  7  1  0
 20 15  1  0
 30 21  1  0
 29 24  1  0
  3 31  1  0
  4 32  1  0
  4 33  1  0
  8 34  1  0
  8 35  1  0
  9 36  1  0
  9 37  1  0
 10 38  1  0
 10 39  1  0
 11 40  1  0
 11 41  1  0
 12 42  1  6
 13 43  1  0
 13 44  1  0
 14 45  1  0
 14 46  1  0
 16 47  1  0
 17 48  1  0
 18 49  1  0
 19 50  1  0
 20 51  1  0
 22 52  1  0
 23 53  1  0
 25 54  1  0
 26 55  1  0
 27 56  1  0
 28 57  1  0
M  END
>  <smiles>  (19) 
O=C(NCC(=O)N1CCCCC1CCc1ccccc1)c1ccc2ccccc2n1

>  <score_type>  (19) 
oracle

>  <origin>  (19) 
autodockgpu

>  <m_score__min__energy>  (19) 
-9.2300000000000004

>  <m_primary>  (19) 
energy

>  <rmsd>  (19) 
2.2766033694187104

>  <m_score__min__rmsd>  (19) 
2.2766033694187104

>  <meeko>  (19) 
{"free_energy": -8.86, "intermolecular_energy": -10.95, "internal_energy": -1.89, "cluster_size": 40, "cluster_id": 1, "rank_in_cluster": 20}

>  <energy>  (19) 
-8.86

>  <cluster_rmsd>  (19) 
0.6

>  <cluster>  (19) 
1

$$$$

     RDKit          3D

 57 60  0  0  0  0  0  0  0  0999 V2000
  141.5500   72.3040  221.8120 O   0  0  0  0  0  0  0  0  0  0  0  0
  140.5190   72.3820  222.5430 C   0  0  0  0  0  0  0  0  0  0  0  0
  139.5870   73.4510  222.4240 N   0  0  0  0  0  0  0  0  0  0  0  0
  139.7670   74.5050  221.4630 C   0  0  0  0  0  0  0  0  0  0  0  0
  139.0350   75.7480  221.8510 C   0  0  0  0  0  0  0  0  0  0  0  0
  137.9980   75.6630  222.5770 O   0  0  0  0  0  0  0  0  0  0  0  0
  139.5370   76.9980  221.3840 N   0  0  0  0  0  0  0  0  0  0  0  0
  140.9630   77.2290  221.2290 C   0  0  0  0  0  0  0  0  0  0  0  0
  141.2940   78.2590  220.1790 C   0  0  0  0  0  0  0  0  0  0  0  0
  140.1850   78.2140  219.1480 C   0  0  0  0  0  0  0  0  0  0  0  0
  138.9870   78.8340  219.8490 C   0  0  0  0  0  0  0  0  0  0  0  0
  138.5960   78.0250  221.0690 C   0  0  2  0  0  0  0  0  0  0  0  0
  138.2490   78.9370  222.1950 C   0  0  0  0  0  0  0  0  0  0  0  0
  138.8630   80.2900  222.1860 C   0  0  0  0  0  0  0  0  0  0  0  0
  140.2820   80.2460  222.6960 C   0  0  0  0  0  0  0  0  0  0  0  0
  140.6380   79.4200  223.7390 C   0  0  0  0  0  0  0  0  0  0  0  0
  141.9250   79.3690  224.2130 C   0  0  0  0  0  0  0  0  0  0  0  0
  142.9190   80.1580  223.6520 C   0  0  0  0  0  0  0  0  0  0  0  0
  142.5810   80.9920  222.6050 C   0  0  0  0  0  0  0  0  0  0  0  0
  141.2720   81.0340  222.1330 C   0  0  0  0  0  0  0  0  0  0  0  0
  140.2470   71.3460  223.5600 C   0  0  0  0  0  0  0  0  0  0  0  0
  139.5390   70.2110  223.2330 C   0  0  0  0  0  0  0  0  0  0  0  0
  139.3090   69.2650  224.2280 C   0  0  0  0  0  0  0  0  0  0  0  0
  139.7670   69.4320  225.5180 C   0  0  0  0  0  0  0  0  0  0  0  0
  139.5530   68.5090  226.5220 C   0  0  0  0  0  0  0  0  0  0  0  0
  140.0410   68.7410  227.7960 C   0  0  0  0  0  0  0  0  0  0  0  0
  140.7520   69.9020  228.0840 C   0  0  0  0  0  0  0  0  0  0  0  0
  140.9580   70.8160  227.0650 C   0  0  0  0  0  0  0  0  0  0  0  0
  140.4670   70.5750  225.7980 C   0  0  0  0  0  0  0  0  0  0  0  0
  140.6830   71.4810  224.8340 N   0  0  0  0  0  0  0  0  0  0  0  0
  138.7420   73.4560  223.0680 H   0  0  0  0  0  0  0  0  0  0  0  0
  140.8399   74.7346  221.3847 H   0  0  0  0  0  0  0  0  0  0  0  0
  139.3624   74.1593  220.5003 H   0  0  0  0  0  0  0  0  0  0  0  0
  141.3671   77.5719  222.1929 H   0  0  0  0  0  0  0  0  0  0  0  0
  141.4115   76.2788  220.9034 H   0  0  0  0  0  0  0  0  0  0  0  0
  141.3460   79.2590  220.6342 H   0  0  0  0  0  0  0  0  0  0  0  0
  142.2690   78.0474  219.7157 H   0  0  0  0  0  0  0  0  0  0  0  0
  140.4589   78.7978  218.2568 H   0  0  0  0  0  0  0  0  0  0  0  0
  139.9812   77.1913  218.7978 H   0  0  0  0  0  0  0  0  0  0  0  0
  139.2427   79.8570  220.1621 H   0  0  0  0  0  0  0  0  0  0  0  0
  138.1384   78.8471  219.1492 H   0  0  0  0  0  0  0  0  0  0  0  0
  137.6831   77.4554  220.8407 H   0  0  0  0  0  0  0  0  0  0  0  0
  137.1570   79.0690  222.1896 H   0  0  0  0  0  0  0  0  0  0  0  0
  138.6547   78.4471  223.0924 H   0  0  0  0  0  0  0  0  0  0  0  0
  138.8631   80.6776  221.1566 H   0  0  0  0  0  0  0  0  0  0  0  0
  138.2749   80.9449  222.8457 H   0  0  0  0  0  0  0  0  0  0  0  0
  139.8704   78.7843  224.2045 H   0  0  0  0  0  0  0  0  0  0  0  0
  142.1712   78.6952  225.0469 H   0  0  0  0  0  0  0  0  0  0  0  0
  143.9506   80.1199  224.0320 H   0  0  0  0  0  0  0  0  0  0  0  0
  143.3503   81.6269  222.1412 H   0  0  0  0  0  0  0  0  0  0  0  0
  141.0197   81.7047  221.2984 H   0  0  0  0  0  0  0  0  0  0  0  0
  139.1643   70.0557  222.2105 H   0  0  0  0  0  0  0  0  0  0  0  0
  138.7439   68.3552  223.9772 H   0  0  0  0  0  0  0  0  0  0  0  0
  138.9930   67.5865  226.3087 H   0  0  0  0  0  0  0  0  0  0  0  0
  139.8650   67.9998  228.5895 H   0  0  0  0  0  0  0  0  0  0  0  0
  141.1406   70.0888  229.0960 H   0  0  0  0  0  0  0  0  0  0  0  0
  141.5173   71.7415  227.2667 H   0  0  0  0  0  0  0  0  0  0  0  0
  1  2  2  0
  2  3  1  0
  3  4  1  0
  4  5  1  0
  5  6  2  0
  5  7  1  0
  7  8  1  0
  8  9  1  0
  9 10  1  0
 10 11  1  0
 11 12  1  0
 12 13  1  0
 13 14  1  0
 14 15  1  0
 15 16  2  0
 16 17  1  0
 17 18  2  0
 18 19  1  0
 19 20  2  0
  2 21  1  0
 21 22  2  0
 22 23  1  0
 23 24  2  0
 24 25  1  0
 25 26  2  0
 26 27  1  0
 27 28  2  0
 28 29  1  0
 29 30  2  0
 12  7  1  0
 20 15  1  0
 30 21  1  0
 29 24  1  0
  3 31  1  0
  4 32  1  0
  4 33  1  0
  8 34  1  0
  8 35  1  0
  9 36  1  0
  9 37  1  0
 10 38  1  0
 10 39  1  0
 11 40  1  0
 11 41  1  0
 12 42  1  6
 13 43  1  0
 13 44  1  0
 14 45  1  0
 14 46  1  0
 16 47  1  0
 17 48  1  0
 18 49  1  0
 19 50  1  0
 20 51  1  0
 22 52  1  0
 23 53  1  0
 25 54  1  0
 26 55  1  0
 27 56  1  0
 28 57  1  0
M  END
>  <smiles>  (20) 
O=C(NCC(=O)N1CCCCC1CCc1ccccc1)c1ccc2ccccc2n1

>  <score_type>  (20) 
oracle

>  <origin>  (20) 
autodockgpu

>  <m_score__min__energy>  (20) 
-9.2300000000000004

>  <m_primary>  (20) 
energy

>  <rmsd>  (20) 
2.8185225895278987

>  <m_score__min__rmsd>  (20) 
2.8185225895278987

>  <meeko>  (20) 
{"free_energy": -8.44, "intermolecular_energy": -10.52, "internal_energy": -2.15, "cluster_size": 40, "cluster_id": 1, "rank_in_cluster": 39}

>  <energy>  (20) 
-8.86

>  <cluster_rmsd>  (20) 
1.05

>  <cluster>  (20) 
1

$$$$

     RDKit          3D

 57 60  0  0  0  0  0  0  0  0999 V2000
  137.9090   70.4950  221.8830 O   0  0  0  0  0  0  0  0  0  0  0  0
  138.6100   71.0220  222.7960 C   0  0  0  0  0  0  0  0  0  0  0  0
  139.0290   72.3810  222.7370 N   0  0  0  0  0  0  0  0  0  0  0  0
  138.6790   73.2310  221.6320 C   0  0  0  0  0  0  0  0  0  0  0  0
  139.4880   74.4870  221.6130 C   0  0  0  0  0  0  0  0  0  0  0  0
  140.6890   74.4650  222.0210 O   0  0  0  0  0  0  0  0  0  0  0  0
  138.8700   75.6770  221.1280 N   0  0  0  0  0  0  0  0  0  0  0  0
  138.9260   76.0380  219.7210 C   0  0  0  0  0  0  0  0  0  0  0  0
  137.7620   76.8850  219.2730 C   0  0  0  0  0  0  0  0  0  0  0  0
  136.5820   76.5200  220.1510 C   0  0  0  0  0  0  0  0  0  0  0  0
  136.9180   77.1170  221.5070 C   0  0  0  0  0  0  0  0  0  0  0  0
  138.1900   76.5110  222.0660 C   0  0  2  0  0  0  0  0  0  0  0  0
  139.0230   77.5710  222.6980 C   0  0  0  0  0  0  0  0  0  0  0  0
  140.4320   77.6890  222.2420 C   0  0  0  0  0  0  0  0  0  0  0  0
  141.0350   79.0030  222.6720 C   0  0  0  0  0  0  0  0  0  0  0  0
  142.1760   79.0440  223.4420 C   0  0  0  0  0  0  0  0  0  0  0  0
  142.7360   80.2330  223.8400 C   0  0  0  0  0  0  0  0  0  0  0  0
  142.1630   81.4430  223.4760 C   0  0  0  0  0  0  0  0  0  0  0  0
  141.0190   81.4220  222.7040 C   0  0  0  0  0  0  0  0  0  0  0  0
  140.4610   80.2100  222.3070 C   0  0  0  0  0  0  0  0  0  0  0  0
  139.0200   70.2290  223.9720 C   0  0  0  0  0  0  0  0  0  0  0  0
  138.8040   68.8690  224.0110 C   0  0  0  0  0  0  0  0  0  0  0  0
  139.2090   68.1670  225.1430 C   0  0  0  0  0  0  0  0  0  0  0  0
  139.8130   68.7890  226.2140 C   0  0  0  0  0  0  0  0  0  0  0  0
  140.2240   68.1160  227.3470 C   0  0  0  0  0  0  0  0  0  0  0  0
  140.8250   68.8040  228.3870 C   0  0  0  0  0  0  0  0  0  0  0  0
  141.0240   70.1780  228.3070 C   0  0  0  0  0  0  0  0  0  0  0  0
  140.6070   70.8380  227.1640 C   0  0  0  0  0  0  0  0  0  0  0  0
  140.0090   70.1420  226.1330 C   0  0  0  0  0  0  0  0  0  0  0  0
  139.6160   70.8110  225.0400 N   0  0  0  0  0  0  0  0  0  0  0  0
  139.6160   72.7610  223.5370 H   0  0  0  0  0  0  0  0  0  0  0  0
  138.8519   72.6831  220.6940 H   0  0  0  0  0  0  0  0  0  0  0  0
  137.6207   73.5105  221.7406 H   0  0  0  0  0  0  0  0  0  0  0  0
  139.8549   76.5993  219.5418 H   0  0  0  0  0  0  0  0  0  0  0  0
  138.8875   75.1022  219.1440 H   0  0  0  0  0  0  0  0  0  0  0  0
  138.0041   77.9516  219.3904 H   0  0  0  0  0  0  0  0  0  0  0  0
  137.5317   76.7049  218.2125 H   0  0  0  0  0  0  0  0  0  0  0  0
  135.6528   76.9549  219.7541 H   0  0  0  0  0  0  0  0  0  0  0  0
  136.4182   75.4334  220.2013 H   0  0  0  0  0  0  0  0  0  0  0  0
  137.0543   78.2031  221.3983 H   0  0  0  0  0  0  0  0  0  0  0  0
  136.0919   76.9003  222.2003 H   0  0  0  0  0  0  0  0  0  0  0  0
  137.9274   75.8066  222.8691 H   0  0  0  0  0  0  0  0  0  0  0  0
  138.5313   78.5362  222.5068 H   0  0  0  0  0  0  0  0  0  0  0  0
  139.0909   77.2842  223.7578 H   0  0  0  0  0  0  0  0  0  0  0  0
  141.0195   76.8657  222.6746 H   0  0  0  0  0  0  0  0  0  0  0  0
  140.4482   77.6407  221.1432 H   0  0  0  0  0  0  0  0  0  0  0  0
  142.6512   78.0997  223.7462 H   0  0  0  0  0  0  0  0  0  0  0  0
  143.6487   80.2260  224.4540 H   0  0  0  0  0  0  0  0  0  0  0  0
  142.6097   82.3963  223.7950 H   0  0  0  0  0  0  0  0  0  0  0  0
  140.5459   82.3677  222.4009 H   0  0  0  0  0  0  0  0  0  0  0  0
  139.5484   80.2106  221.6928 H   0  0  0  0  0  0  0  0  0  0  0  0
  138.3233   68.3504  223.1684 H   0  0  0  0  0  0  0  0  0  0  0  0
  139.0414   67.0806  225.1838 H   0  0  0  0  0  0  0  0  0  0  0  0
  140.0734   67.0291  227.4237 H   0  0  0  0  0  0  0  0  0  0  0  0
  141.1484   68.2584  229.2857 H   0  0  0  0  0  0  0  0  0  0  0  0
  141.5013   70.7270  229.1321 H   0  0  0  0  0  0  0  0  0  0  0  0
  140.7532   71.9247  227.0767 H   0  0  0  0  0  0  0  0  0  0  0  0
  1  2  2  0
  2  3  1  0
  3  4  1  0
  4  5  1  0
  5  6  2  0
  5  7  1  0
  7  8  1  0
  8  9  1  0
  9 10  1  0
 10 11  1  0
 11 12  1  0
 12 13  1  0
 13 14  1  0
 14 15  1  0
 15 16  2  0
 16 17  1  0
 17 18  2  0
 18 19  1  0
 19 20  2  0
  2 21  1  0
 21 22  2  0
 22 23  1  0
 23 24  2  0
 24 25  1  0
 25 26  2  0
 26 27  1  0
 27 28  2  0
 28 29  1  0
 29 30  2  0
 12  7  1  0
 20 15  1  0
 30 21  1  0
 29 24  1  0
  3 31  1  0
  4 32  1  0
  4 33  1  0
  8 34  1  0
  8 35  1  0
  9 36  1  0
  9 37  1  0
 10 38  1  0
 10 39  1  0
 11 40  1  0
 11 41  1  0
 12 42  1  1
 13 43  1  0
 13 44  1  0
 14 45  1  0
 14 46  1  0
 16 47  1  0
 17 48  1  0
 18 49  1  0
 19 50  1  0
 20 51  1  0
 22 52  1  0
 23 53  1  0
 25 54  1  0
 26 55  1  0
 27 56  1  0
 28 57  1  0
M  END
>  <smiles>  (21) 
O=C(NCC(=O)N1CCCCC1CCc1ccccc1)c1ccc2ccccc2n1

>  <score_type>  (21) 
oracle

>  <origin>  (21) 
autodockgpu

>  <m_score__min__energy>  (21) 
-9.2300000000000004

>  <m_primary>  (21) 
energy

>  <rmsd>  (21) 
2.446157422912986

>  <m_score__min__rmsd>  (21) 
2.446157422912986

>  <meeko>  (21) 
{"free_energy": -8.6, "intermolecular_energy": -10.69, "internal_energy": -1.88, "cluster_size": 40, "cluster_id": 1, "rank_in_cluster": 32}

>  <energy>  (21) 
-8.84

>  <cluster_rmsd>  (21) 
1.22

>  <cluster>  (21) 
1

$$$$

     RDKit          3D

 57 60  0  0  0  0  0  0  0  0999 V2000
  140.9340   71.5220  221.3300 O   0  0  0  0  0  0  0  0  0  0  0  0
  140.3940   72.0590  222.3420 C   0  0  0  0  0  0  0  0  0  0  0  0
  139.9280   73.4030  222.3260 N   0  0  0  0  0  0  0  0  0  0  0  0
  140.0440   74.2270  221.1540 C   0  0  0  0  0  0  0  0  0  0  0  0
  141.0410   75.3250  221.3370 C   0  0  0  0  0  0  0  0  0  0  0  0
  140.9530   76.0890  222.3460 O   0  0  0  0  0  0  0  0  0  0  0  0
  142.0670   75.4720  220.3580 N   0  0  0  0  0  0  0  0  0  0  0  0
  143.3280   74.7570  220.4720 C   0  0  0  0  0  0  0  0  0  0  0  0
  143.9930   74.4980  219.1440 C   0  0  0  0  0  0  0  0  0  0  0  0
  142.8920   74.3940  218.1090 C   0  0  0  0  0  0  0  0  0  0  0  0
  142.3850   75.8180  217.9480 C   0  0  0  0  0  0  0  0  0  0  0  0
  141.8230   76.3430  219.2540 C   0  0  2  0  0  0  0  0  0  0  0  0
  142.2430   77.7590  219.4550 C   0  0  0  0  0  0  0  0  0  0  0  0
  141.1840   78.7350  219.8200 C   0  0  0  0  0  0  0  0  0  0  0  0
  141.1470   78.9660  221.3100 C   0  0  0  0  0  0  0  0  0  0  0  0
  139.9660   78.8790  222.0140 C   0  0  0  0  0  0  0  0  0  0  0  0
  139.9180   79.0860  223.3700 C   0  0  0  0  0  0  0  0  0  0  0  0
  141.0690   79.3920  224.0820 C   0  0  0  0  0  0  0  0  0  0  0  0
  142.2620   79.4830  223.3920 C   0  0  0  0  0  0  0  0  0  0  0  0
  142.2970   79.2710  222.0180 C   0  0  0  0  0  0  0  0  0  0  0  0
  140.2310   71.2920  223.5940 C   0  0  0  0  0  0  0  0  0  0  0  0
  139.6190   70.0580  223.5850 C   0  0  0  0  0  0  0  0  0  0  0  0
  139.4890   69.3750  224.7920 C   0  0  0  0  0  0  0  0  0  0  0  0
  139.9520   69.8960  225.9820 C   0  0  0  0  0  0  0  0  0  0  0  0
  139.8350   69.2400  227.1900 C   0  0  0  0  0  0  0  0  0  0  0  0
  140.3220   69.8210  228.3490 C   0  0  0  0  0  0  0  0  0  0  0  0
  140.9330   71.0710  228.3120 C   0  0  0  0  0  0  0  0  0  0  0  0
  141.0420   71.7150  227.0920 C   0  0  0  0  0  0  0  0  0  0  0  0
  140.5530   71.1260  225.9440 C   0  0  0  0  0  0  0  0  0  0  0  0
  140.6740   71.7760  224.7780 N   0  0  0  0  0  0  0  0  0  0  0  0
  139.4850   73.7930  223.2100 H   0  0  0  0  0  0  0  0  0  0  0  0
  140.3593   73.5986  220.3081 H   0  0  0  0  0  0  0  0  0  0  0  0
  139.0631   74.6874  220.9644 H   0  0  0  0  0  0  0  0  0  0  0  0
  144.0119   75.3536  221.0937 H   0  0  0  0  0  0  0  0  0  0  0  0
  143.1058   73.7772  220.9199 H   0  0  0  0  0  0  0  0  0  0  0  0
  144.6703   75.3275  218.8927 H   0  0  0  0  0  0  0  0  0  0  0  0
  144.5884   73.5737  219.1773 H   0  0  0  0  0  0  0  0  0  0  0  0
  143.2885   74.0125  217.1565 H   0  0  0  0  0  0  0  0  0  0  0  0
  142.0960   73.6986  218.4136 H   0  0  0  0  0  0  0  0  0  0  0  0
  143.2172   76.4627  217.6290 H   0  0  0  0  0  0  0  0  0  0  0  0
  141.5843   75.8228  217.1937 H   0  0  0  0  0  0  0  0  0  0  0  0
  140.7248   76.3519  219.1917 H   0  0  0  0  0  0  0  0  0  0  0  0
  142.9949   77.7706  220.2578 H   0  0  0  0  0  0  0  0  0  0  0  0
  142.6070   78.0897  218.4711 H   0  0  0  0  0  0  0  0  0  0  0  0
  141.3862   79.6903  219.3135 H   0  0  0  0  0  0  0  0  0  0  0  0
  140.2115   78.3283  219.5058 H   0  0  0  0  0  0  0  0  0  0  0  0
  139.0377   78.6374  221.4756 H   0  0  0  0  0  0  0  0  0  0  0  0
  138.9563   79.0084  223.8982 H   0  0  0  0  0  0  0  0  0  0  0  0
  141.0322   79.5579  225.1688 H   0  0  0  0  0  0  0  0  0  0  0  0
  143.1893   79.7244  223.9321 H   0  0  0  0  0  0  0  0  0  0  0  0
  143.2557   79.3470  221.4841 H   0  0  0  0  0  0  0  0  0  0  0  0
  139.2422   69.6226  222.6477 H   0  0  0  0  0  0  0  0  0  0  0  0
  139.0016   68.3889  224.7961 H   0  0  0  0  0  0  0  0  0  0  0  0
  139.3532   68.2520  227.2328 H   0  0  0  0  0  0  0  0  0  0  0  0
  140.2251   69.2898  229.3074 H   0  0  0  0  0  0  0  0  0  0  0  0
  141.3200   71.5360  229.2307 H   0  0  0  0  0  0  0  0  0  0  0  0
  141.5218   72.7033  227.0370 H   0  0  0  0  0  0  0  0  0  0  0  0
  1  2  2  0
  2  3  1  0
  3  4  1  0
  4  5  1  0
  5  6  2  0
  5  7  1  0
  7  8  1  0
  8  9  1  0
  9 10  1  0
 10 11  1  0
 11 12  1  0
 12 13  1  0
 13 14  1  0
 14 15  1  0
 15 16  2  0
 16 17  1  0
 17 18  2  0
 18 19  1  0
 19 20  2  0
  2 21  1  0
 21 22  2  0
 22 23  1  0
 23 24  2  0
 24 25  1  0
 25 26  2  0
 26 27  1  0
 27 28  2  0
 28 29  1  0
 29 30  2  0
 12  7  1  0
 20 15  1  0
 30 21  1  0
 29 24  1  0
  3 31  1  0
  4 32  1  0
  4 33  1  0
  8 34  1  0
  8 35  1  0
  9 36  1  0
  9 37  1  0
 10 38  1  0
 10 39  1  0
 11 40  1  0
 11 41  1  0
 12 42  1  6
 13 43  1  0
 13 44  1  0
 14 45  1  0
 14 46  1  0
 16 47  1  0
 17 48  1  0
 18 49  1  0
 19 50  1  0
 20 51  1  0
 22 52  1  0
 23 53  1  0
 25 54  1  0
 26 55  1  0
 27 56  1  0
 28 57  1  0
M  END
>  <smiles>  (22) 
O=C(NCC(=O)N1CCCCC1CCc1ccccc1)c1ccc2ccccc2n1

>  <score_type>  (22) 
oracle

>  <origin>  (22) 
autodockgpu

>  <m_score__min__energy>  (22) 
-9.2300000000000004

>  <m_primary>  (22) 
energy

>  <rmsd>  (22) 
2.3900051674154583

>  <m_score__min__rmsd>  (22) 
2.3900051674154583

>  <meeko>  (22) 
{"free_energy": -8.81, "intermolecular_energy": -10.9, "internal_energy": -1.93, "cluster_size": 40, "cluster_id": 1, "rank_in_cluster": 22}

>  <energy>  (22) 
-8.81

>  <cluster_rmsd>  (22) 
0.65

>  <cluster>  (22) 
1

$$$$

     RDKit          3D

 57 60  0  0  0  0  0  0  0  0999 V2000
  136.8260   76.5750  222.2130 O   0  0  0  0  0  0  0  0  0  0  0  0
  138.0820   76.5830  222.3710 C   0  0  0  0  0  0  0  0  0  0  0  0
  138.8690   75.4060  222.2310 N   0  0  0  0  0  0  0  0  0  0  0  0
  138.2780   74.1380  221.9020 C   0  0  0  0  0  0  0  0  0  0  0  0
  139.2140   73.0010  222.1500 C   0  0  0  0  0  0  0  0  0  0  0  0
  140.3800   73.2350  222.5910 O   0  0  0  0  0  0  0  0  0  0  0  0
  138.7540   71.6790  221.8780 N   0  0  0  0  0  0  0  0  0  0  0  0
  137.7370   71.4250  220.8710 C   0  0  0  0  0  0  0  0  0  0  0  0
  137.8260   70.0480  220.2630 C   0  0  0  0  0  0  0  0  0  0  0  0
  139.2800   69.6290  220.3230 C   0  0  0  0  0  0  0  0  0  0  0  0
  139.5370   69.3540  221.7960 C   0  0  0  0  0  0  0  0  0  0  0  0
  139.3210   70.6030  222.6250 C   0  0  2  0  0  0  0  0  0  0  0  0
  138.6090   70.2580  223.8880 C   0  0  0  0  0  0  0  0  0  0  0  0
  139.3390   69.4170  224.8710 C   0  0  0  0  0  0  0  0  0  0  0  0
  139.9440   70.2610  225.9650 C   0  0  0  0  0  0  0  0  0  0  0  0
  140.7710   71.3220  225.6700 C   0  0  0  0  0  0  0  0  0  0  0  0
  141.3280   72.0990  226.6560 C   0  0  0  0  0  0  0  0  0  0  0  0
  141.0720   71.8360  227.9940 C   0  0  0  0  0  0  0  0  0  0  0  0
  140.2450   70.7760  228.3090 C   0  0  0  0  0  0  0  0  0  0  0  0
  139.6870   69.9970  227.3000 C   0  0  0  0  0  0  0  0  0  0  0  0
  138.7810   77.8380  222.7130 C   0  0  0  0  0  0  0  0  0  0  0  0
  138.0690   78.9690  223.0470 C   0  0  0  0  0  0  0  0  0  0  0  0
  138.7760   80.1270  223.3600 C   0  0  0  0  0  0  0  0  0  0  0  0
  140.1540   80.1720  223.3450 C   0  0  0  0  0  0  0  0  0  0  0  0
  140.8770   81.3070  223.6510 C   0  0  0  0  0  0  0  0  0  0  0  0
  142.2610   81.2820  223.6160 C   0  0  0  0  0  0  0  0  0  0  0  0
  142.9400   80.1180  223.2720 C   0  0  0  0  0  0  0  0  0  0  0  0
  142.2000   78.9890  222.9680 C   0  0  0  0  0  0  0  0  0  0  0  0
  140.8210   79.0250  223.0060 C   0  0  0  0  0  0  0  0  0  0  0  0
  140.1330   77.9140  222.7060 N   0  0  0  0  0  0  0  0  0  0  0  0
  139.9190   75.4820  222.3780 H   0  0  0  0  0  0  0  0  0  0  0  0
  137.3770   73.9963  222.5169 H   0  0  0  0  0  0  0  0  0  0  0  0
  138.0320   74.1468  220.8299 H   0  0  0  0  0  0  0  0  0  0  0  0
  136.7477   71.5361  221.3390 H   0  0  0  0  0  0  0  0  0  0  0  0
  137.8968   72.1493  220.0587 H   0  0  0  0  0  0  0  0  0  0  0  0
  137.2058   69.3420  220.8348 H   0  0  0  0  0  0  0  0  0  0  0  0
  137.4623   70.0537  219.2249 H   0  0  0  0  0  0  0  0  0  0  0  0
  139.4484   68.7224  219.7232 H   0  0  0  0  0  0  0  0  0  0  0  0
  139.9538   70.3982  219.9175 H   0  0  0  0  0  0  0  0  0  0  0  0
  138.8481   68.5690  222.1413 H   0  0  0  0  0  0  0  0  0  0  0  0
  140.5811   69.0290  221.9158 H   0  0  0  0  0  0  0  0  0  0  0  0
  140.2997   71.0070  222.9233 H   0  0  0  0  0  0  0  0  0  0  0  0
  138.3481   71.2018  224.3892 H   0  0  0  0  0  0  0  0  0  0  0  0
  137.7519   69.6453  223.5719 H   0  0  0  0  0  0  0  0  0  0  0  0
  138.6379   68.6973  225.3187 H   0  0  0  0  0  0  0  0  0  0  0  0
  140.1504   68.8913  224.3464 H   0  0  0  0  0  0  0  0  0  0  0  0
  140.9911   71.5531  224.6173 H   0  0  0  0  0  0  0  0  0  0  0  0
  141.9839   72.9385  226.3821 H   0  0  0  0  0  0  0  0  0  0  0  0
  141.5173   72.4572  228.7851 H   0  0  0  0  0  0  0  0  0  0  0  0
  140.0263   70.5464  229.3623 H   0  0  0  0  0  0  0  0  0  0  0  0
  139.0299   69.1564  227.5676 H   0  0  0  0  0  0  0  0  0  0  0  0
  136.9692   78.9576  223.0660 H   0  0  0  0  0  0  0  0  0  0  0  0
  138.2169   81.0356  223.6280 H   0  0  0  0  0  0  0  0  0  0  0  0
  140.3521   82.2345  223.9236 H   0  0  0  0  0  0  0  0  0  0  0  0
  142.8288   82.1913  223.8626 H   0  0  0  0  0  0  0  0  0  0  0  0
  144.0394   80.0954  223.2423 H   0  0  0  0  0  0  0  0  0  0  0  0
  142.7146   78.0562  222.6941 H   0  0  0  0  0  0  0  0  0  0  0  0
  1  2  2  0
  2  3  1  0
  3  4  1  0
  4  5  1  0
  5  6  2  0
  5  7  1  0
  7  8  1  0
  8  9  1  0
  9 10  1  0
 10 11  1  0
 11 12  1  0
 12 13  1  0
 13 14  1  0
 14 15  1  0
 15 16  2  0
 16 17  1  0
 17 18  2  0
 18 19  1  0
 19 20  2  0
  2 21  1  0
 21 22  2  0
 22 23  1  0
 23 24  2  0
 24 25  1  0
 25 26  2  0
 26 27  1  0
 27 28  2  0
 28 29  1  0
 29 30  2  0
 12  7  1  0
 20 15  1  0
 30 21  1  0
 29 24  1  0
  3 31  1  0
  4 32  1  0
  4 33  1  0
  8 34  1  0
  8 35  1  0
  9 36  1  0
  9 37  1  0
 10 38  1  0
 10 39  1  0
 11 40  1  0
 11 41  1  0
 12 42  1  1
 13 43  1  0
 13 44  1  0
 14 45  1  0
 14 46  1  0
 16 47  1  0
 17 48  1  0
 18 49  1  0
 19 50  1  0
 20 51  1  0
 22 52  1  0
 23 53  1  0
 25 54  1  0
 26 55  1  0
 27 56  1  0
 28 57  1  0
M  END
>  <smiles>  (23) 
O=C(NCC(=O)N1CCCCC1CCc1ccccc1)c1ccc2ccccc2n1

>  <score_type>  (23) 
oracle

>  <origin>  (23) 
autodockgpu

>  <m_score__min__energy>  (23) 
-9.2300000000000004

>  <m_primary>  (23) 
energy

>  <rmsd>  (23) 
8.24278104042048

>  <m_score__min__rmsd>  (23) 
8.24278104042048

>  <meeko>  (23) 
{"free_energy": -8.48, "intermolecular_energy": -10.56, "internal_energy": -2.19, "cluster_size": 8, "cluster_id": 2, "rank_in_cluster": 3}

>  <energy>  (23) 
-8.81

>  <cluster_rmsd>  (23) 
1.24

>  <cluster>  (23) 
1

$$$$

     RDKit          3D

 57 60  0  0  0  0  0  0  0  0999 V2000
  138.9040   70.9810  221.4450 O   0  0  0  0  0  0  0  0  0  0  0  0
  139.3080   71.5730  222.4890 C   0  0  0  0  0  0  0  0  0  0  0  0
  139.5360   72.9780  222.5210 N   0  0  0  0  0  0  0  0  0  0  0  0
  139.3190   73.8030  221.3640 C   0  0  0  0  0  0  0  0  0  0  0  0
  140.5600   73.9650  220.5490 C   0  0  0  0  0  0  0  0  0  0  0  0
  141.0690   72.9540  219.9770 O   0  0  0  0  0  0  0  0  0  0  0  0
  141.1310   75.2670  220.4450 N   0  0  0  0  0  0  0  0  0  0  0  0
  142.5700   75.4580  220.3750 C   0  0  0  0  0  0  0  0  0  0  0  0
  142.9750   76.7150  219.6480 C   0  0  0  0  0  0  0  0  0  0  0  0
  141.8920   77.0070  218.6300 C   0  0  0  0  0  0  0  0  0  0  0  0
  140.7060   77.4750  219.4590 C   0  0  0  0  0  0  0  0  0  0  0  0
  140.2470   76.3870  220.4090 C   0  0  2  0  0  0  0  0  0  0  0  0
  139.9140   76.9790  221.7350 C   0  0  0  0  0  0  0  0  0  0  0  0
  141.0250   77.1280  222.7100 C   0  0  0  0  0  0  0  0  0  0  0  0
  141.3030   78.5830  222.9990 C   0  0  0  0  0  0  0  0  0  0  0  0
  140.3070   79.4210  223.4490 C   0  0  0  0  0  0  0  0  0  0  0  0
  140.5460   80.7470  223.7170 C   0  0  0  0  0  0  0  0  0  0  0  0
  141.8110   81.2880  223.5400 C   0  0  0  0  0  0  0  0  0  0  0  0
  142.8220   80.4620  223.0900 C   0  0  0  0  0  0  0  0  0  0  0  0
  142.5670   79.1210  222.8220 C   0  0  0  0  0  0  0  0  0  0  0  0
  139.5600   70.8100  223.7280 C   0  0  0  0  0  0  0  0  0  0  0  0
  139.2820   69.4620  223.7900 C   0  0  0  0  0  0  0  0  0  0  0  0
  139.5370   68.7880  224.9820 C   0  0  0  0  0  0  0  0  0  0  0  0
  140.0550   69.4270  226.0880 C   0  0  0  0  0  0  0  0  0  0  0  0
  140.3170   68.7820  227.2800 C   0  0  0  0  0  0  0  0  0  0  0  0
  140.8380   69.4840  228.3530 C   0  0  0  0  0  0  0  0  0  0  0  0
  141.1050   70.8460  228.2470 C   0  0  0  0  0  0  0  0  0  0  0  0
  140.8370   71.4770  227.0450 C   0  0  0  0  0  0  0  0  0  0  0  0
  140.3170   70.7670  225.9810 C   0  0  0  0  0  0  0  0  0  0  0  0
  140.0680   71.4080  224.8310 N   0  0  0  0  0  0  0  0  0  0  0  0
  139.8750   73.4120  223.4290 H   0  0  0  0  0  0  0  0  0  0  0  0
  138.5418   73.3395  220.7385 H   0  0  0  0  0  0  0  0  0  0  0  0
  139.0095   74.7996  221.7117 H   0  0  0  0  0  0  0  0  0  0  0  0
  142.9652   75.5062  221.4004 H   0  0  0  0  0  0  0  0  0  0  0  0
  142.9819   74.6097  219.8087 H   0  0  0  0  0  0  0  0  0  0  0  0
  143.0612   77.5508  220.3580 H   0  0  0  0  0  0  0  0  0  0  0  0
  143.9509   76.5870  219.1568 H   0  0  0  0  0  0  0  0  0  0  0  0
  142.2150   77.7952  217.9340 H   0  0  0  0  0  0  0  0  0  0  0  0
  141.6504   76.1290  218.0129 H   0  0  0  0  0  0  0  0  0  0  0  0
  141.0006   78.3606  220.0411 H   0  0  0  0  0  0  0  0  0  0  0  0
  139.8769   77.7204  218.7790 H   0  0  0  0  0  0  0  0  0  0  0  0
  139.3154   75.9463  220.0244 H   0  0  0  0  0  0  0  0  0  0  0  0
  139.4953   77.9801  221.5548 H   0  0  0  0  0  0  0  0  0  0  0  0
  139.2224   76.2613  222.2005 H   0  0  0  0  0  0  0  0  0  0  0  0
  140.7508   76.6216  223.6472 H   0  0  0  0  0  0  0  0  0  0  0  0
  141.9313   76.6782  222.2783 H   0  0  0  0  0  0  0  0  0  0  0  0
  139.2942   79.0183  223.5976 H   0  0  0  0  0  0  0  0  0  0  0  0
  139.7258   81.3863  224.0756 H   0  0  0  0  0  0  0  0  0  0  0  0
  142.0042   82.3497  223.7530 H   0  0  0  0  0  0  0  0  0  0  0  0
  143.8343   80.8665  222.9427 H   0  0  0  0  0  0  0  0  0  0  0  0
  143.3833   78.4768  222.4633 H   0  0  0  0  0  0  0  0  0  0  0  0
  138.8689   68.9311  222.9196 H   0  0  0  0  0  0  0  0  0  0  0  0
  139.3181   67.7117  225.0426 H   0  0  0  0  0  0  0  0  0  0  0  0
  140.1109   67.7059  227.3774 H   0  0  0  0  0  0  0  0  0  0  0  0
  141.0430   68.9606  229.2985 H   0  0  0  0  0  0  0  0  0  0  0  0
  141.5189   71.4070  229.0979 H   0  0  0  0  0  0  0  0  0  0  0  0
  141.0398   72.5527  226.9363 H   0  0  0  0  0  0  0  0  0  0  0  0
  1  2  2  0
  2  3  1  0
  3  4  1  0
  4  5  1  0
  5  6  2  0
  5  7  1  0
  7  8  1  0
  8  9  1  0
  9 10  1  0
 10 11  1  0
 11 12  1  0
 12 13  1  0
 13 14  1  0
 14 15  1  0
 15 16  2  0
 16 17  1  0
 17 18  2  0
 18 19  1  0
 19 20  2  0
  2 21  1  0
 21 22  2  0
 22 23  1  0
 23 24  2  0
 24 25  1  0
 25 26  2  0
 26 27  1  0
 27 28  2  0
 28 29  1  0
 29 30  2  0
 12  7  1  0
 20 15  1  0
 30 21  1  0
 29 24  1  0
  3 31  1  0
  4 32  1  0
  4 33  1  0
  8 34  1  0
  8 35  1  0
  9 36  1  0
  9 37  1  0
 10 38  1  0
 10 39  1  0
 11 40  1  0
 11 41  1  0
 12 42  1  6
 13 43  1  0
 13 44  1  0
 14 45  1  0
 14 46  1  0
 16 47  1  0
 17 48  1  0
 18 49  1  0
 19 50  1  0
 20 51  1  0
 22 52  1  0
 23 53  1  0
 25 54  1  0
 26 55  1  0
 27 56  1  0
 28 57  1  0
M  END
>  <smiles>  (24) 
O=C(NCC(=O)N1CCCCC1CCc1ccccc1)c1ccc2ccccc2n1

>  <score_type>  (24) 
oracle

>  <origin>  (24) 
autodockgpu

>  <m_score__min__energy>  (24) 
-9.2300000000000004

>  <m_primary>  (24) 
energy

>  <rmsd>  (24) 
2.2595610274688354

>  <m_score__min__rmsd>  (24) 
2.2595610274688354

>  <meeko>  (24) 
{"free_energy": -8.81, "intermolecular_energy": -10.9, "internal_energy": -1.86, "cluster_size": 40, "cluster_id": 1, "rank_in_cluster": 23}

>  <energy>  (24) 
-8.81

>  <cluster_rmsd>  (24) 
0.75

>  <cluster>  (24) 
1

$$$$

     RDKit          3D

 57 60  0  0  0  0  0  0  0  0999 V2000
  137.1680   76.5700  222.2200 O   0  0  0  0  0  0  0  0  0  0  0  0
  138.4320   76.5960  222.2960 C   0  0  0  0  0  0  0  0  0  0  0  0
  139.2300   75.4550  222.0050 N   0  0  0  0  0  0  0  0  0  0  0  0
  138.6420   74.2050  221.6080 C   0  0  0  0  0  0  0  0  0  0  0  0
  139.3460   73.0360  222.2150 C   0  0  0  0  0  0  0  0  0  0  0  0
  140.5990   73.0890  222.4040 O   0  0  0  0  0  0  0  0  0  0  0  0
  138.5720   71.8900  222.5630 N   0  0  0  0  0  0  0  0  0  0  0  0
  137.2120   72.0200  223.0590 C   0  0  0  0  0  0  0  0  0  0  0  0
  136.3500   70.8170  222.7700 C   0  0  0  0  0  0  0  0  0  0  0  0
  136.8790   70.1870  221.4980 C   0  0  0  0  0  0  0  0  0  0  0  0
  138.1990   69.5540  221.9070 C   0  0  0  0  0  0  0  0  0  0  0  0
  139.1700   70.6030  222.4110 C   0  0  2  0  0  0  0  0  0  0  0  0
  139.8950   70.0910  223.6070 C   0  0  0  0  0  0  0  0  0  0  0  0
  140.0010   71.0010  224.7770 C   0  0  0  0  0  0  0  0  0  0  0  0
  140.3240   70.2340  226.0350 C   0  0  0  0  0  0  0  0  0  0  0  0
  140.7770   70.8780  227.1650 C   0  0  0  0  0  0  0  0  0  0  0  0
  141.0740   70.1920  228.3170 C   0  0  0  0  0  0  0  0  0  0  0  0
  140.9270   68.8140  228.3790 C   0  0  0  0  0  0  0  0  0  0  0  0
  140.4740   68.1510  227.2550 C   0  0  0  0  0  0  0  0  0  0  0  0
  140.1760   68.8580  226.0940 C   0  0  0  0  0  0  0  0  0  0  0  0
  139.1290   77.8360  222.6960 C   0  0  0  0  0  0  0  0  0  0  0  0
  138.4170   78.9270  223.1460 C   0  0  0  0  0  0  0  0  0  0  0  0
  139.1210   80.0710  223.5100 C   0  0  0  0  0  0  0  0  0  0  0  0
  140.4960   80.1410  223.4350 C   0  0  0  0  0  0  0  0  0  0  0  0
  141.2170   81.2630  223.7900 C   0  0  0  0  0  0  0  0  0  0  0  0
  142.5980   81.2650  223.6890 C   0  0  0  0  0  0  0  0  0  0  0  0
  143.2770   80.1410  223.2300 C   0  0  0  0  0  0  0  0  0  0  0  0
  142.5390   79.0240  222.8790 C   0  0  0  0  0  0  0  0  0  0  0  0
  141.1630   79.0330  222.9830 C   0  0  0  0  0  0  0  0  0  0  0  0
  140.4770   77.9350  222.6330 N   0  0  0  0  0  0  0  0  0  0  0  0
  140.2850   75.5440  222.0890 H   0  0  0  0  0  0  0  0  0  0  0  0
  137.5896   74.1905  221.9276 H   0  0  0  0  0  0  0  0  0  0  0  0
  138.7277   74.1221  220.5145 H   0  0  0  0  0  0  0  0  0  0  0  0
  137.2511   72.1670  224.1484 H   0  0  0  0  0  0  0  0  0  0  0  0
  136.7579   72.8764  222.5391 H   0  0  0  0  0  0  0  0  0  0  0  0
  136.4126   70.0992  223.6012 H   0  0  0  0  0  0  0  0  0  0  0  0
  135.2958   71.1088  222.6540 H   0  0  0  0  0  0  0  0  0  0  0  0
  136.1814   69.4236  221.1230 H   0  0  0  0  0  0  0  0  0  0  0  0
  137.0004   70.9204  220.6872 H   0  0  0  0  0  0  0  0  0  0  0  0
  138.0143   68.8209  222.7061 H   0  0  0  0  0  0  0  0  0  0  0  0
  138.6396   69.0617  221.0275 H   0  0  0  0  0  0  0  0  0  0  0  0
  139.9346   70.7821  221.6408 H   0  0  0  0  0  0  0  0  0  0  0  0
  139.3784   69.1795  223.9422 H   0  0  0  0  0  0  0  0  0  0  0  0
  140.9310   69.9417  223.2686 H   0  0  0  0  0  0  0  0  0  0  0  0
  140.7981   71.7355  224.5896 H   0  0  0  0  0  0  0  0  0  0  0  0
  139.0337   71.5063  224.9149 H   0  0  0  0  0  0  0  0  0  0  0  0
  140.9042   71.9704  227.1442 H   0  0  0  0  0  0  0  0  0  0  0  0
  141.4324   70.7412  229.2002 H   0  0  0  0  0  0  0  0  0  0  0  0
  141.1653   68.2628  229.3006 H   0  0  0  0  0  0  0  0  0  0  0  0
  140.3482   67.0585  227.2778 H   0  0  0  0  0  0  0  0  0  0  0  0
  139.8166   68.3147  225.2076 H   0  0  0  0  0  0  0  0  0  0  0  0
  137.3197   78.8943  223.2157 H   0  0  0  0  0  0  0  0  0  0  0  0
  138.5623   80.9479  223.8692 H   0  0  0  0  0  0  0  0  0  0  0  0
  140.6928   82.1588  224.1544 H   0  0  0  0  0  0  0  0  0  0  0  0
  143.1637   82.1642  223.9745 H   0  0  0  0  0  0  0  0  0  0  0  0
  144.3739   80.1400  223.1480 H   0  0  0  0  0  0  0  0  0  0  0  0
  143.0531   78.1224  222.5144 H   0  0  0  0  0  0  0  0  0  0  0  0
  1  2  2  0
  2  3  1  0
  3  4  1  0
  4  5  1  0
  5  6  2  0
  5  7  1  0
  7  8  1  0
  8  9  1  0
  9 10  1  0
 10 11  1  0
 11 12  1  0
 12 13  1  0
 13 14  1  0
 14 15  1  0
 15 16  2  0
 16 17  1  0
 17 18  2  0
 18 19  1  0
 19 20  2  0
  2 21  1  0
 21 22  2  0
 22 23  1  0
 23 24  2  0
 24 25  1  0
 25 26  2  0
 26 27  1  0
 27 28  2  0
 28 29  1  0
 29 30  2  0
 12  7  1  0
 20 15  1  0
 30 21  1  0
 29 24  1  0
  3 31  1  0
  4 32  1  0
  4 33  1  0
  8 34  1  0
  8 35  1  0
  9 36  1  0
  9 37  1  0
 10 38  1  0
 10 39  1  0
 11 40  1  0
 11 41  1  0
 12 42  1  6
 13 43  1  0
 13 44  1  0
 14 45  1  0
 14 46  1  0
 16 47  1  0
 17 48  1  0
 18 49  1  0
 19 50  1  0
 20 51  1  0
 22 52  1  0
 23 53  1  0
 25 54  1  0
 26 55  1  0
 27 56  1  0
 28 57  1  0
M  END
>  <smiles>  (25) 
O=C(NCC(=O)N1CCCCC1CCc1ccccc1)c1ccc2ccccc2n1

>  <score_type>  (25) 
oracle

>  <origin>  (25) 
autodockgpu

>  <m_score__min__energy>  (25) 
-9.2300000000000004

>  <m_primary>  (25) 
energy

>  <rmsd>  (25) 
8.41662183577999

>  <m_score__min__rmsd>  (25) 
8.41662183577999

>  <meeko>  (25) 
{"free_energy": -8.56, "intermolecular_energy": -10.65, "internal_energy": -1.94, "cluster_size": 8, "cluster_id": 2, "rank_in_cluster": 2}

>  <energy>  (25) 
-8.75

>  <cluster_rmsd>  (25) 
0.83

>  <cluster>  (25) 
1

$$$$

     RDKit          3D

 57 60  0  0  0  0  0  0  0  0999 V2000
  140.8940   71.5590  221.3300 O   0  0  0  0  0  0  0  0  0  0  0  0
  140.3440   72.0880  222.3410 C   0  0  0  0  0  0  0  0  0  0  0  0
  139.8550   73.4240  222.3230 N   0  0  0  0  0  0  0  0  0  0  0  0
  139.9600   74.2490  221.1510 C   0  0  0  0  0  0  0  0  0  0  0  0
  140.9330   75.3670  221.3380 C   0  0  0  0  0  0  0  0  0  0  0  0
  140.8150   76.1400  222.3360 O   0  0  0  0  0  0  0  0  0  0  0  0
  141.9720   75.5210  220.3740 N   0  0  0  0  0  0  0  0  0  0  0  0
  143.2130   74.7710  220.4730 C   0  0  0  0  0  0  0  0  0  0  0  0
  143.8840   74.5410  219.1420 C   0  0  0  0  0  0  0  0  0  0  0  0
  142.7910   74.5040  218.0940 C   0  0  0  0  0  0  0  0  0  0  0  0
  142.3220   75.9450  217.9810 C   0  0  0  0  0  0  0  0  0  0  0  0
  141.7620   76.4380  219.3000 C   0  0  2  0  0  0  0  0  0  0  0  0
  142.2160   77.8340  219.5550 C   0  0  0  0  0  0  0  0  0  0  0  0
  141.1840   78.8170  219.9720 C   0  0  0  0  0  0  0  0  0  0  0  0
  141.2740   79.1070  221.4500 C   0  0  0  0  0  0  0  0  0  0  0  0
  142.4650   79.4860  222.0290 C   0  0  0  0  0  0  0  0  0  0  0  0
  142.5610   79.7530  223.3720 C   0  0  0  0  0  0  0  0  0  0  0  0
  141.4510   79.6490  224.1970 C   0  0  0  0  0  0  0  0  0  0  0  0
  140.2480   79.2700  223.6340 C   0  0  0  0  0  0  0  0  0  0  0  0
  140.1630   79.0020  222.2710 C   0  0  0  0  0  0  0  0  0  0  0  0
  140.1910   71.3190  223.5930 C   0  0  0  0  0  0  0  0  0  0  0  0
  139.6000   70.0740  223.5840 C   0  0  0  0  0  0  0  0  0  0  0  0
  139.4790   69.3900  224.7910 C   0  0  0  0  0  0  0  0  0  0  0  0
  139.9290   69.9200  225.9810 C   0  0  0  0  0  0  0  0  0  0  0  0
  139.8210   69.2620  227.1900 C   0  0  0  0  0  0  0  0  0  0  0  0
  140.2950   69.8530  228.3490 C   0  0  0  0  0  0  0  0  0  0  0  0
  140.8850   71.1120  228.3130 C   0  0  0  0  0  0  0  0  0  0  0  0
  140.9850   71.7570  227.0930 C   0  0  0  0  0  0  0  0  0  0  0  0
  140.5100   71.1600  225.9440 C   0  0  0  0  0  0  0  0  0  0  0  0
  140.6220   71.8110  224.7780 N   0  0  0  0  0  0  0  0  0  0  0  0
  139.4040   73.8060  223.2060 H   0  0  0  0  0  0  0  0  0  0  0  0
  140.2925   73.6264  220.3073 H   0  0  0  0  0  0  0  0  0  0  0  0
  138.9709   74.6890  220.9559 H   0  0  0  0  0  0  0  0  0  0  0  0
  143.9059   75.3281  221.1207 H   0  0  0  0  0  0  0  0  0  0  0  0
  142.9618   73.7822  220.8842 H   0  0  0  0  0  0  0  0  0  0  0  0
  144.5860   75.3600  218.9266 H   0  0  0  0  0  0  0  0  0  0  0  0
  144.4537   73.6000  219.1476 H   0  0  0  0  0  0  0  0  0  0  0  0
  143.1872   74.1476  217.1317 H   0  0  0  0  0  0  0  0  0  0  0  0
  141.9745   73.8188  218.3657 H   0  0  0  0  0  0  0  0  0  0  0  0
  143.1733   76.5789  217.6920 H   0  0  0  0  0  0  0  0  0  0  0  0
  141.5280   75.9970  217.2214 H   0  0  0  0  0  0  0  0  0  0  0  0
  140.6650   76.4790  219.2293 H   0  0  0  0  0  0  0  0  0  0  0  0
  142.9762   77.7951  220.3491 H   0  0  0  0  0  0  0  0  0  0  0  0
  142.5772   78.1973  218.5816 H   0  0  0  0  0  0  0  0  0  0  0  0
  141.3326   79.7526  219.4129 H   0  0  0  0  0  0  0  0  0  0  0  0
  140.1918   78.3923  219.7596 H   0  0  0  0  0  0  0  0  0  0  0  0
  143.3621   79.5770  221.3990 H   0  0  0  0  0  0  0  0  0  0  0  0
  143.5295   80.0529  223.7988 H   0  0  0  0  0  0  0  0  0  0  0  0
  141.5268   79.8631  225.2733 H   0  0  0  0  0  0  0  0  0  0  0  0
  139.3524   79.1795  224.2663 H   0  0  0  0  0  0  0  0  0  0  0  0
  139.1973   78.7017  221.8382 H   0  0  0  0  0  0  0  0  0  0  0  0
  139.2328   69.6314  222.6463 H   0  0  0  0  0  0  0  0  0  0  0  0
  139.0094   68.3953  224.7947 H   0  0  0  0  0  0  0  0  0  0  0  0
  139.3571   68.2655  227.2326 H   0  0  0  0  0  0  0  0  0  0  0  0
  140.2040   69.3215  229.3078 H   0  0  0  0  0  0  0  0  0  0  0  0
  141.2629   71.5835  229.2322 H   0  0  0  0  0  0  0  0  0  0  0  0
  141.4470   72.7538  227.0391 H   0  0  0  0  0  0  0  0  0  0  0  0
  1  2  2  0
  2  3  1  0
  3  4  1  0
  4  5  1  0
  5  6  2  0
  5  7  1  0
  7  8  1  0
  8  9  1  0
  9 10  1  0
 10 11  1  0
 11 12  1  0
 12 13  1  0
 13 14  1  0
 14 15  1  0
 15 16  2  0
 16 17  1  0
 17 18  2  0
 18 19  1  0
 19 20  2  0
  2 21  1  0
 21 22  2  0
 22 23  1  0
 23 24  2  0
 24 25  1  0
 25 26  2  0
 26 27  1  0
 27 28  2  0
 28 29  1  0
 29 30  2  0
 12  7  1  0
 20 15  1  0
 30 21  1  0
 29 24  1  0
  3 31  1  0
  4 32  1  0
  4 33  1  0
  8 34  1  0
  8 35  1  0
  9 36  1  0
  9 37  1  0
 10 38  1  0
 10 39  1  0
 11 40  1  0
 11 41  1  0
 12 42  1  6
 13 43  1  0
 13 44  1  0
 14 45  1  0
 14 46  1  0
 16 47  1  0
 17 48  1  0
 18 49  1  0
 19 50  1  0
 20 51  1  0
 22 52  1  0
 23 53  1  0
 25 54  1  0
 26 55  1  0
 27 56  1  0
 28 57  1  0
M  END
>  <smiles>  (26) 
O=C(NCC(=O)N1CCCCC1CCc1ccccc1)c1ccc2ccccc2n1

>  <score_type>  (26) 
oracle

>  <origin>  (26) 
autodockgpu

>  <m_score__min__energy>  (26) 
-9.2300000000000004

>  <m_primary>  (26) 
energy

>  <rmsd>  (26) 
2.348109392784262

>  <m_score__min__rmsd>  (26) 
2.348109392784262

>  <meeko>  (26) 
{"free_energy": -8.86, "intermolecular_energy": -10.95, "internal_energy": -1.87, "cluster_size": 40, "cluster_id": 1, "rank_in_cluster": 19}

>  <energy>  (26) 
-8.74

>  <cluster_rmsd>  (26) 
1.63

>  <cluster>  (26) 
1

$$$$

     RDKit          3D

 57 60  0  0  0  0  0  0  0  0999 V2000
  139.1200   70.8660  221.3140 O   0  0  0  0  0  0  0  0  0  0  0  0
  139.3630   71.5620  222.3440 C   0  0  0  0  0  0  0  0  0  0  0  0
  139.3990   72.9840  222.3040 N   0  0  0  0  0  0  0  0  0  0  0  0
  139.1610   73.7100  221.0870 C   0  0  0  0  0  0  0  0  0  0  0  0
  139.7130   75.0970  221.1440 C   0  0  0  0  0  0  0  0  0  0  0  0
  138.9710   76.0510  221.5290 O   0  0  0  0  0  0  0  0  0  0  0  0
  141.0720   75.2960  220.7610 N   0  0  0  0  0  0  0  0  0  0  0  0
  142.1070   74.3420  221.1230 C   0  0  0  0  0  0  0  0  0  0  0  0
  143.2690   74.3240  220.1630 C   0  0  0  0  0  0  0  0  0  0  0  0
  142.7310   74.7260  218.8060 C   0  0  0  0  0  0  0  0  0  0  0  0
  142.4370   76.2110  218.9370 C   0  0  0  0  0  0  0  0  0  0  0  0
  141.3930   76.4640  220.0060 C   0  0  2  0  0  0  0  0  0  0  0  0
  141.7700   77.6600  220.8110 C   0  0  0  0  0  0  0  0  0  0  0  0
  141.1230   77.8150  222.1390 C   0  0  0  0  0  0  0  0  0  0  0  0
  141.5530   79.0970  222.8070 C   0  0  0  0  0  0  0  0  0  0  0  0
  142.8850   79.3850  223.0030 C   0  0  0  0  0  0  0  0  0  0  0  0
  143.2900   80.5490  223.6090 C   0  0  0  0  0  0  0  0  0  0  0  0
  142.3610   81.4800  224.0480 C   0  0  0  0  0  0  0  0  0  0  0  0
  141.0200   81.2090  223.8600 C   0  0  0  0  0  0  0  0  0  0  0  0
  140.6220   80.0260  223.2440 C   0  0  0  0  0  0  0  0  0  0  0  0
  139.6220   70.9060  223.6420 C   0  0  0  0  0  0  0  0  0  0  0  0
  139.3530   69.5660  223.8170 C   0  0  0  0  0  0  0  0  0  0  0  0
  139.6130   68.9960  225.0600 C   0  0  0  0  0  0  0  0  0  0  0  0
  140.1280   69.7270  226.1080 C   0  0  0  0  0  0  0  0  0  0  0  0
  140.3960   69.1860  227.3490 C   0  0  0  0  0  0  0  0  0  0  0  0
  140.9140   69.9790  228.3590 C   0  0  0  0  0  0  0  0  0  0  0  0
  141.1700   71.3280  228.1400 C   0  0  0  0  0  0  0  0  0  0  0  0
  140.8970   71.8550  226.8900 C   0  0  0  0  0  0  0  0  0  0  0  0
  140.3810   71.0560  225.8900 C   0  0  0  0  0  0  0  0  0  0  0  0
  140.1260   71.5970  224.6910 N   0  0  0  0  0  0  0  0  0  0  0  0
  139.6100   73.5070  223.2050 H   0  0  0  0  0  0  0  0  0  0  0  0
  139.6376   73.1723  220.2541 H   0  0  0  0  0  0  0  0  0  0  0  0
  138.0729   73.7837  220.9433 H   0  0  0  0  0  0  0  0  0  0  0  0
  142.4852   74.6010  222.1229 H   0  0  0  0  0  0  0  0  0  0  0  0
  141.6495   73.3420  221.0968 H   0  0  0  0  0  0  0  0  0  0  0  0
  144.0397   75.0375  220.4899 H   0  0  0  0  0  0  0  0  0  0  0  0
  143.7280   73.3252  220.1222 H   0  0  0  0  0  0  0  0  0  0  0  0
  143.4810   74.5460  218.0217 H   0  0  0  0  0  0  0  0  0  0  0  0
  141.8400   74.1471  218.5214 H   0  0  0  0  0  0  0  0  0  0  0  0
  143.3636   76.7391  219.2065 H   0  0  0  0  0  0  0  0  0  0  0  0
  142.0508   76.5787  217.9749 H   0  0  0  0  0  0  0  0  0  0  0  0
  140.4364   76.7077  219.5206 H   0  0  0  0  0  0  0  0  0  0  0  0
  142.8570   77.6195  220.9750 H   0  0  0  0  0  0  0  0  0  0  0  0
  141.4194   78.5205  220.2223 H   0  0  0  0  0  0  0  0  0  0  0  0
  140.0310   77.8275  222.0072 H   0  0  0  0  0  0  0  0  0  0  0  0
  141.4263   76.9709  222.7757 H   0  0  0  0  0  0  0  0  0  0  0  0
  143.6444   78.6642  222.6655 H   0  0  0  0  0  0  0  0  0  0  0  0
  144.3635   80.7449  223.7476 H   0  0  0  0  0  0  0  0  0  0  0  0
  142.6844   82.4121  224.5344 H   0  0  0  0  0  0  0  0  0  0  0  0
  140.2628   81.9315  224.1987 H   0  0  0  0  0  0  0  0  0  0  0  0
  139.5499   79.8249  223.1016 H   0  0  0  0  0  0  0  0  0  0  0  0
  138.9428   68.9615  222.9946 H   0  0  0  0  0  0  0  0  0  0  0  0
  139.4004   67.9273  225.2104 H   0  0  0  0  0  0  0  0  0  0  0  0
  140.1973   68.1205  227.5366 H   0  0  0  0  0  0  0  0  0  0  0  0
  141.1250   69.5375  229.3441 H   0  0  0  0  0  0  0  0  0  0  0  0
  141.5796   71.9609  228.9410 H   0  0  0  0  0  0  0  0  0  0  0  0
  141.0928   72.9191  226.6918 H   0  0  0  0  0  0  0  0  0  0  0  0
  1  2  2  0
  2  3  1  0
  3  4  1  0
  4  5  1  0
  5  6  2  0
  5  7  1  0
  7  8  1  0
  8  9  1  0
  9 10  1  0
 10 11  1  0
 11 12  1  0
 12 13  1  0
 13 14  1  0
 14 15  1  0
 15 16  2  0
 16 17  1  0
 17 18  2  0
 18 19  1  0
 19 20  2  0
  2 21  1  0
 21 22  2  0
 22 23  1  0
 23 24  2  0
 24 25  1  0
 25 26  2  0
 26 27  1  0
 27 28  2  0
 28 29  1  0
 29 30  2  0
 12  7  1  0
 20 15  1  0
 30 21  1  0
 29 24  1  0
  3 31  1  0
  4 32  1  0
  4 33  1  0
  8 34  1  0
  8 35  1  0
  9 36  1  0
  9 37  1  0
 10 38  1  0
 10 39  1  0
 11 40  1  0
 11 41  1  0
 12 42  1  6
 13 43  1  0
 13 44  1  0
 14 45  1  0
 14 46  1  0
 16 47  1  0
 17 48  1  0
 18 49  1  0
 19 50  1  0
 20 51  1  0
 22 52  1  0
 23 53  1  0
 25 54  1  0
 26 55  1  0
 27 56  1  0
 28 57  1  0
M  END
>  <smiles>  (27) 
O=C(NCC(=O)N1CCCCC1CCc1ccccc1)c1ccc2ccccc2n1

>  <score_type>  (27) 
oracle

>  <origin>  (27) 
autodockgpu

>  <m_score__min__energy>  (27) 
-9.2300000000000004

>  <m_primary>  (27) 
energy

>  <rmsd>  (27) 
2.1989035968779795

>  <m_score__min__rmsd>  (27) 
2.1989035968779795

>  <meeko>  (27) 
{"free_energy": -9.09, "intermolecular_energy": -11.18, "internal_energy": -1.65, "cluster_size": 40, "cluster_id": 1, "rank_in_cluster": 6}

>  <energy>  (27) 
-8.7

>  <cluster_rmsd>  (27) 
1.29

>  <cluster>  (27) 
1

$$$$

     RDKit          3D

 57 60  0  0  0  0  0  0  0  0999 V2000
  140.1370   71.5800  221.1330 O   0  0  0  0  0  0  0  0  0  0  0  0
  139.9470   72.1430  222.2510 C   0  0  0  0  0  0  0  0  0  0  0  0
  139.6870   73.5380  222.3600 N   0  0  0  0  0  0  0  0  0  0  0  0
  139.6260   74.3860  221.2010 C   0  0  0  0  0  0  0  0  0  0  0  0
  139.7140   75.8330  221.5610 C   0  0  0  0  0  0  0  0  0  0  0  0
  139.3740   76.2120  222.7230 O   0  0  0  0  0  0  0  0  0  0  0  0
  140.1840   76.7450  220.5700 N   0  0  0  0  0  0  0  0  0  0  0  0
  139.2800   77.3420  219.6020 C   0  0  0  0  0  0  0  0  0  0  0  0
  139.7440   78.6830  219.0940 C   0  0  0  0  0  0  0  0  0  0  0  0
  140.5630   79.3180  220.2000 C   0  0  0  0  0  0  0  0  0  0  0  0
  141.8530   78.5140  220.2280 C   0  0  0  0  0  0  0  0  0  0  0  0
  141.5770   77.0600  220.5540 C   0  0  2  0  0  0  0  0  0  0  0  0
  142.4190   76.1780  219.6970 C   0  0  0  0  0  0  0  0  0  0  0  0
  142.2290   74.7120  219.8390 C   0  0  0  0  0  0  0  0  0  0  0  0
  143.5380   74.0190  220.1240 C   0  0  0  0  0  0  0  0  0  0  0  0
  144.6670   74.7370  220.4490 C   0  0  0  0  0  0  0  0  0  0  0  0
  145.8650   74.1190  220.7120 C   0  0  0  0  0  0  0  0  0  0  0  0
  145.9760   72.7370  220.6570 C   0  0  0  0  0  0  0  0  0  0  0  0
  144.8540   72.0000  220.3320 C   0  0  0  0  0  0  0  0  0  0  0  0
  143.6460   72.6390  220.0680 C   0  0  0  0  0  0  0  0  0  0  0  0
  139.9910   71.3550  223.4990 C   0  0  0  0  0  0  0  0  0  0  0  0
  139.5630   70.0450  223.5170 C   0  0  0  0  0  0  0  0  0  0  0  0
  139.6240   69.3460  224.7190 C   0  0  0  0  0  0  0  0  0  0  0  0
  140.0970   69.9220  225.8790 C   0  0  0  0  0  0  0  0  0  0  0  0
  140.1690   69.2500  227.0820 C   0  0  0  0  0  0  0  0  0  0  0  0
  140.6550   69.8890  228.2100 C   0  0  0  0  0  0  0  0  0  0  0  0
  141.0770   71.2130  228.1470 C   0  0  0  0  0  0  0  0  0  0  0  0
  140.9990   71.8720  226.9330 C   0  0  0  0  0  0  0  0  0  0  0  0
  140.5130   71.2250  225.8150 C   0  0  0  0  0  0  0  0  0  0  0  0
  140.4500   71.8920  224.6540 N   0  0  0  0  0  0  0  0  0  0  0  0
  139.5370   73.9470  223.3290 H   0  0  0  0  0  0  0  0  0  0  0  0
  140.4629   74.1348  220.5327 H   0  0  0  0  0  0  0  0  0  0  0  0
  138.6578   74.2171  220.7070 H   0  0  0  0  0  0  0  0  0  0  0  0
  139.1863   76.6585  218.7453 H   0  0  0  0  0  0  0  0  0  0  0  0
  138.3195   77.5041  220.1131 H   0  0  0  0  0  0  0  0  0  0  0  0
  140.3624   78.5523  218.1937 H   0  0  0  0  0  0  0  0  0  0  0  0
  138.8872   79.3187  218.8262 H   0  0  0  0  0  0  0  0  0  0  0  0
  140.7683   80.3748  219.9740 H   0  0  0  0  0  0  0  0  0  0  0  0
  140.0405   79.3044  221.1679 H   0  0  0  0  0  0  0  0  0  0  0  0
  142.3377   78.5764  219.2425 H   0  0  0  0  0  0  0  0  0  0  0  0
  142.5097   78.9301  221.0062 H   0  0  0  0  0  0  0  0  0  0  0  0
  141.8814   76.8638  221.5927 H   0  0  0  0  0  0  0  0  0  0  0  0
  142.2110   76.4387  218.6488 H   0  0  0  0  0  0  0  0  0  0  0  0
  143.4517   76.3635  220.0275 H   0  0  0  0  0  0  0  0  0  0  0  0
  141.5325   74.5188  220.6682 H   0  0  0  0  0  0  0  0  0  0  0  0
  141.8247   74.3194  218.8944 H   0  0  0  0  0  0  0  0  0  0  0  0
  144.6079   75.8343  220.4993 H   0  0  0  0  0  0  0  0  0  0  0  0
  146.7457   74.7260  220.9689 H   0  0  0  0  0  0  0  0  0  0  0  0
  146.9347   72.2402  220.8672 H   0  0  0  0  0  0  0  0  0  0  0  0
  144.9154   70.9029  220.2816 H   0  0  0  0  0  0  0  0  0  0  0  0
  142.7616   72.0378  219.8104 H   0  0  0  0  0  0  0  0  0  0  0  0
  139.1826   69.5638  222.6039 H   0  0  0  0  0  0  0  0  0  0  0  0
  139.2838   68.3002  224.7444 H   0  0  0  0  0  0  0  0  0  0  0  0
  139.8390   68.2026  227.1451 H   0  0  0  0  0  0  0  0  0  0  0  0
  140.7079   69.3449  229.1645 H   0  0  0  0  0  0  0  0  0  0  0  0
  141.4635   71.7239  229.0412 H   0  0  0  0  0  0  0  0  0  0  0  0
  141.3268   72.9194  226.8583 H   0  0  0  0  0  0  0  0  0  0  0  0
  1  2  2  0
  2  3  1  0
  3  4  1  0
  4  5  1  0
  5  6  2  0
  5  7  1  0
  7  8  1  0
  8  9  1  0
  9 10  1  0
 10 11  1  0
 11 12  1  0
 12 13  1  0
 13 14  1  0
 14 15  1  0
 15 16  2  0
 16 17  1  0
 17 18  2  0
 18 19  1  0
 19 20  2  0
  2 21  1  0
 21 22  2  0
 22 23  1  0
 23 24  2  0
 24 25  1  0
 25 26  2  0
 26 27  1  0
 27 28  2  0
 28 29  1  0
 29 30  2  0
 12  7  1  0
 20 15  1  0
 30 21  1  0
 29 24  1  0
  3 31  1  0
  4 32  1  0
  4 33  1  0
  8 34  1  0
  8 35  1  0
  9 36  1  0
  9 37  1  0
 10 38  1  0
 10 39  1  0
 11 40  1  0
 11 41  1  0
 12 42  1  1
 13 43  1  0
 13 44  1  0
 14 45  1  0
 14 46  1  0
 16 47  1  0
 17 48  1  0
 18 49  1  0
 19 50  1  0
 20 51  1  0
 22 52  1  0
 23 53  1  0
 25 54  1  0
 26 55  1  0
 27 56  1  0
 28 57  1  0
M  END
>  <smiles>  (28) 
O=C(NCC(=O)N1CCCCC1CCc1ccccc1)c1ccc2ccccc2n1

>  <score_type>  (28) 
oracle

>  <origin>  (28) 
autodockgpu

>  <m_score__min__energy>  (28) 
-9.2300000000000004

>  <m_primary>  (28) 
energy

>  <rmsd>  (28) 
1.9053965332544822

>  <m_score__min__rmsd>  (28) 
1.9053965332544822

>  <meeko>  (28) 
{"free_energy": -8.41, "intermolecular_energy": -10.5, "internal_energy": -2.07, "cluster_size": 1, "cluster_id": 3, "rank_in_cluster": 1}

>  <energy>  (28) 
-8.67

>  <cluster_rmsd>  (28) 
0.95

>  <cluster>  (28) 
1

$$$$

     RDKit          3D

 57 60  0  0  0  0  0  0  0  0999 V2000
  140.3360   71.1770  221.1290 O   0  0  0  0  0  0  0  0  0  0  0  0
  140.0440   71.8630  222.1530 C   0  0  0  0  0  0  0  0  0  0  0  0
  139.7390   73.2510  222.0710 N   0  0  0  0  0  0  0  0  0  0  0  0
  139.7460   73.9510  220.8160 C   0  0  0  0  0  0  0  0  0  0  0  0
  141.0410   74.6580  220.5760 C   0  0  0  0  0  0  0  0  0  0  0  0
  142.1020   73.9820  220.4170 O   0  0  0  0  0  0  0  0  0  0  0  0
  141.0310   76.0830  220.5330 N   0  0  0  0  0  0  0  0  0  0  0  0
  142.1880   76.8330  220.0750 C   0  0  0  0  0  0  0  0  0  0  0  0
  141.8390   78.1770  219.4890 C   0  0  0  0  0  0  0  0  0  0  0  0
  140.4460   78.0580  218.9040 C   0  0  0  0  0  0  0  0  0  0  0  0
  139.5300   77.9800  220.1140 C   0  0  0  0  0  0  0  0  0  0  0  0
  139.8470   76.7600  220.9550 C   0  0  2  0  0  0  0  0  0  0  0  0
  139.7950   77.1130  222.4010 C   0  0  0  0  0  0  0  0  0  0  0  0
  141.0880   77.3890  223.0790 C   0  0  0  0  0  0  0  0  0  0  0  0
  141.3490   78.8720  223.1680 C   0  0  0  0  0  0  0  0  0  0  0  0
  142.6270   79.3750  223.0730 C   0  0  0  0  0  0  0  0  0  0  0  0
  142.8800   80.7230  223.1520 C   0  0  0  0  0  0  0  0  0  0  0  0
  141.8440   81.6290  223.3310 C   0  0  0  0  0  0  0  0  0  0  0  0
  140.5560   81.1410  223.4290 C   0  0  0  0  0  0  0  0  0  0  0  0
  140.3130   79.7740  223.3470 C   0  0  0  0  0  0  0  0  0  0  0  0
  140.0110   71.2320  223.4880 C   0  0  0  0  0  0  0  0  0  0  0  0
  139.4560   69.9820  223.6590 C   0  0  0  0  0  0  0  0  0  0  0  0
  139.4490   69.4320  224.9380 C   0  0  0  0  0  0  0  0  0  0  0  0
  139.9760   70.0950  226.0250 C   0  0  0  0  0  0  0  0  0  0  0  0
  139.9820   69.5710  227.3020 C   0  0  0  0  0  0  0  0  0  0  0  0
  140.5290   70.2930  228.3490 C   0  0  0  0  0  0  0  0  0  0  0  0
  141.0790   71.5520  228.1320 C   0  0  0  0  0  0  0  0  0  0  0  0
  141.0660   72.0630  226.8450 C   0  0  0  0  0  0  0  0  0  0  0  0
  140.5180   71.3350  225.8090 C   0  0  0  0  0  0  0  0  0  0  0  0
  140.5200   71.8580  224.5740 N   0  0  0  0  0  0  0  0  0  0  0  0
  139.5020   73.7670  222.9690 H   0  0  0  0  0  0  0  0  0  0  0  0
  139.5811   73.2268  220.0046 H   0  0  0  0  0  0  0  0  0  0  0  0
  138.9468   74.7063  220.8439 H   0  0  0  0  0  0  0  0  0  0  0  0
  142.8619   76.9902  220.9300 H   0  0  0  0  0  0  0  0  0  0  0  0
  142.6600   76.2437  219.2751 H   0  0  0  0  0  0  0  0  0  0  0  0
  141.8542   78.9469  220.2745 H   0  0  0  0  0  0  0  0  0  0  0  0
  142.5654   78.4685  218.7161 H   0  0  0  0  0  0  0  0  0  0  0  0
  140.2055   78.9388  218.2905 H   0  0  0  0  0  0  0  0  0  0  0  0
  140.3428   77.1837  218.2445 H   0  0  0  0  0  0  0  0  0  0  0  0
  139.6642   78.8841  220.7261 H   0  0  0  0  0  0  0  0  0  0  0  0
  138.4902   77.9042  219.7631 H   0  0  0  0  0  0  0  0  0  0  0  0
  139.0661   76.0021  220.7945 H   0  0  0  0  0  0  0  0  0  0  0  0
  139.1707   78.0133  222.4997 H   0  0  0  0  0  0  0  0  0  0  0  0
  139.3998   76.2149  222.8983 H   0  0  0  0  0  0  0  0  0  0  0  0
  141.0580   76.9679  224.0948 H   0  0  0  0  0  0  0  0  0  0  0  0
  141.8956   76.9268  222.4924 H   0  0  0  0  0  0  0  0  0  0  0  0
  143.4673   78.6796  222.9302 H   0  0  0  0  0  0  0  0  0  0  0  0
  143.9146   81.0881  223.0725 H   0  0  0  0  0  0  0  0  0  0  0  0
  142.0439   82.7089  223.3932 H   0  0  0  0  0  0  0  0  0  0  0  0
  139.7170   81.8377  223.5728 H   0  0  0  0  0  0  0  0  0  0  0  0
  139.2805   79.4028  223.4256 H   0  0  0  0  0  0  0  0  0  0  0  0
  139.0294   69.4329  222.8066 H   0  0  0  0  0  0  0  0  0  0  0  0
  139.0082   68.4351  225.0857 H   0  0  0  0  0  0  0  0  0  0  0  0
  139.5507   68.5764  227.4884 H   0  0  0  0  0  0  0  0  0  0  0  0
  140.5287   69.8666  229.3630 H   0  0  0  0  0  0  0  0  0  0  0  0
  141.5137   72.1277  228.9624 H   0  0  0  0  0  0  0  0  0  0  0  0
  141.4955   73.0562  226.6473 H   0  0  0  0  0  0  0  0  0  0  0  0
  1  2  2  0
  2  3  1  0
  3  4  1  0
  4  5  1  0
  5  6  2  0
  5  7  1  0
  7  8  1  0
  8  9  1  0
  9 10  1  0
 10 11  1  0
 11 12  1  0
 12 13  1  0
 13 14  1  0
 14 15  1  0
 15 16  2  0
 16 17  1  0
 17 18  2  0
 18 19  1  0
 19 20  2  0
  2 21  1  0
 21 22  2  0
 22 23  1  0
 23 24  2  0
 24 25  1  0
 25 26  2  0
 26 27  1  0
 27 28  2  0
 28 29  1  0
 29 30  2  0
 12  7  1  0
 20 15  1  0
 30 21  1  0
 29 24  1  0
  3 31  1  0
  4 32  1  0
  4 33  1  0
  8 34  1  0
  8 35  1  0
  9 36  1  0
  9 37  1  0
 10 38  1  0
 10 39  1  0
 11 40  1  0
 11 41  1  0
 12 42  1  1
 13 43  1  0
 13 44  1  0
 14 45  1  0
 14 46  1  0
 16 47  1  0
 17 48  1  0
 18 49  1  0
 19 50  1  0
 20 51  1  0
 22 52  1  0
 23 53  1  0
 25 54  1  0
 26 55  1  0
 27 56  1  0
 28 57  1  0
M  END
>  <smiles>  (29) 
O=C(NCC(=O)N1CCCCC1CCc1ccccc1)c1ccc2ccccc2n1

>  <score_type>  (29) 
oracle

>  <origin>  (29) 
autodockgpu

>  <m_score__min__energy>  (29) 
-9.2300000000000004

>  <m_primary>  (29) 
energy

>  <rmsd>  (29) 
2.489745250107959

>  <m_score__min__rmsd>  (29) 
2.489745250107959

>  <meeko>  (29) 
{"free_energy": -8.9, "intermolecular_energy": -10.99, "internal_energy": -1.88, "cluster_size": 40, "cluster_id": 1, "rank_in_cluster": 17}

>  <energy>  (29) 
-8.67

>  <cluster_rmsd>  (29) 
0.96

>  <cluster>  (29) 
1

$$$$

     RDKit          3D

 57 60  0  0  0  0  0  0  0  0999 V2000
  138.5590   72.3720  221.9590 O   0  0  0  0  0  0  0  0  0  0  0  0
  139.7000   72.1630  222.4660 C   0  0  0  0  0  0  0  0  0  0  0  0
  140.8910   72.6820  221.8860 N   0  0  0  0  0  0  0  0  0  0  0  0
  140.8630   73.4760  220.6870 C   0  0  0  0  0  0  0  0  0  0  0  0
  142.0970   74.3040  220.5340 C   0  0  0  0  0  0  0  0  0  0  0  0
  143.2240   73.8100  220.8410 O   0  0  0  0  0  0  0  0  0  0  0  0
  141.9570   75.6330  220.0390 N   0  0  0  0  0  0  0  0  0  0  0  0
  143.1180   76.4620  219.7600 C   0  0  0  0  0  0  0  0  0  0  0  0
  142.8710   77.5030  218.6980 C   0  0  0  0  0  0  0  0  0  0  0  0
  141.8110   76.9470  217.7690 C   0  0  0  0  0  0  0  0  0  0  0  0
  140.5280   76.9990  218.5830 C   0  0  0  0  0  0  0  0  0  0  0  0
  140.6380   76.1350  219.8230 C   0  0  2  0  0  0  0  0  0  0  0  0
  140.0230   76.8340  220.9860 C   0  0  0  0  0  0  0  0  0  0  0  0
  140.8200   76.8970  222.2380 C   0  0  0  0  0  0  0  0  0  0  0  0
  141.3700   78.2830  222.4640 C   0  0  0  0  0  0  0  0  0  0  0  0
  141.7680   78.6960  223.7160 C   0  0  0  0  0  0  0  0  0  0  0  0
  142.2710   79.9540  223.9350 C   0  0  0  0  0  0  0  0  0  0  0  0
  142.3970   80.8590  222.8910 C   0  0  0  0  0  0  0  0  0  0  0  0
  142.0040   80.4630  221.6280 C   0  0  0  0  0  0  0  0  0  0  0  0
  141.4950   79.1840  221.4190 C   0  0  0  0  0  0  0  0  0  0  0  0
  139.8320   71.3580  223.6970 C   0  0  0  0  0  0  0  0  0  0  0  0
  139.4360   70.0390  223.7190 C   0  0  0  0  0  0  0  0  0  0  0  0
  139.5800   69.3240  224.9050 C   0  0  0  0  0  0  0  0  0  0  0  0
  140.1040   69.8950  226.0460 C   0  0  0  0  0  0  0  0  0  0  0  0
  140.2570   69.2090  227.2330 C   0  0  0  0  0  0  0  0  0  0  0  0
  140.7900   69.8440  228.3410 C   0  0  0  0  0  0  0  0  0  0  0  0
  141.1770   71.1790  228.2760 C   0  0  0  0  0  0  0  0  0  0  0  0
  141.0170   71.8520  227.0780 C   0  0  0  0  0  0  0  0  0  0  0  0
  140.4840   71.2100  225.9790 C   0  0  0  0  0  0  0  0  0  0  0  0
  140.3410   71.8900  224.8330 N   0  0  0  0  0  0  0  0  0  0  0  0
  141.8170   72.4690  222.3620 H   0  0  0  0  0  0  0  0  0  0  0  0
  140.7755   72.8056  219.8193 H   0  0  0  0  0  0  0  0  0  0  0  0
  140.0025   74.1582  220.7518 H   0  0  0  0  0  0  0  0  0  0  0  0
  143.4116   76.9741  220.6882 H   0  0  0  0  0  0  0  0  0  0  0  0
  143.9086   75.7963  219.3835 H   0  0  0  0  0  0  0  0  0  0  0  0
  142.5166   78.4365  219.1595 H   0  0  0  0  0  0  0  0  0  0  0  0
  143.7961   77.7282  218.1471 H   0  0  0  0  0  0  0  0  0  0  0  0
  141.7230   77.5663  216.8642 H   0  0  0  0  0  0  0  0  0  0  0  0
  142.0477   75.9294  217.4249 H   0  0  0  0  0  0  0  0  0  0  0  0
  140.3351   78.0390  218.8848 H   0  0  0  0  0  0  0  0  0  0  0  0
  139.7029   76.6192  217.9625 H   0  0  0  0  0  0  0  0  0  0  0  0
  140.0524   75.2163  219.6712 H   0  0  0  0  0  0  0  0  0  0  0  0
  139.8105   77.8679  220.6764 H   0  0  0  0  0  0  0  0  0  0  0  0
  139.1379   76.2334  221.2427 H   0  0  0  0  0  0  0  0  0  0  0  0
  140.1767   76.6232  223.0872 H   0  0  0  0  0  0  0  0  0  0  0  0
  141.6639   76.1970  222.1498 H   0  0  0  0  0  0  0  0  0  0  0  0
  141.6805   77.9993  224.5627 H   0  0  0  0  0  0  0  0  0  0  0  0
  142.5777   80.2481  224.9496 H   0  0  0  0  0  0  0  0  0  0  0  0
  142.8002   81.8675  223.0652 H   0  0  0  0  0  0  0  0  0  0  0  0
  142.0935   81.1613  220.7828 H   0  0  0  0  0  0  0  0  0  0  0  0
  141.1868   78.8837  220.4067 H   0  0  0  0  0  0  0  0  0  0  0  0
  139.0161   69.5620  222.8212 H   0  0  0  0  0  0  0  0  0  0  0  0
  139.2659   68.2702  224.9329 H   0  0  0  0  0  0  0  0  0  0  0  0
  139.9543   68.1535  227.2990 H   0  0  0  0  0  0  0  0  0  0  0  0
  140.9089   69.2878  229.2826 H   0  0  0  0  0  0  0  0  0  0  0  0
  141.5997   71.6867  229.1555 H   0  0  0  0  0  0  0  0  0  0  0  0
  141.3171   72.9075  227.0009 H   0  0  0  0  0  0  0  0  0  0  0  0
  1  2  2  0
  2  3  1  0
  3  4  1  0
  4  5  1  0
  5  6  2  0
  5  7  1  0
  7  8  1  0
  8  9  1  0
  9 10  1  0
 10 11  1  0
 11 12  1  0
 12 13  1  0
 13 14  1  0
 14 15  1  0
 15 16  2  0
 16 17  1  0
 17 18  2  0
 18 19  1  0
 19 20  2  0
  2 21  1  0
 21 22  2  0
 22 23  1  0
 23 24  2  0
 24 25  1  0
 25 26  2  0
 26 27  1  0
 27 28  2  0
 28 29  1  0
 29 30  2  0
 12  7  1  0
 20 15  1  0
 30 21  1  0
 29 24  1  0
  3 31  1  0
  4 32  1  0
  4 33  1  0
  8 34  1  0
  8 35  1  0
  9 36  1  0
  9 37  1  0
 10 38  1  0
 10 39  1  0
 11 40  1  0
 11 41  1  0
 12 42  1  6
 13 43  1  0
 13 44  1  0
 14 45  1  0
 14 46  1  0
 16 47  1  0
 17 48  1  0
 18 49  1  0
 19 50  1  0
 20 51  1  0
 22 52  1  0
 23 53  1  0
 25 54  1  0
 26 55  1  0
 27 56  1  0
 28 57  1  0
M  END
>  <smiles>  (30) 
O=C(NCC(=O)N1CCCCC1CCc1ccccc1)c1ccc2ccccc2n1

>  <score_type>  (30) 
oracle

>  <origin>  (30) 
autodockgpu

>  <m_score__min__energy>  (30) 
-9.2300000000000004

>  <m_primary>  (30) 
energy

>  <rmsd>  (30) 
2.496356062443582

>  <m_score__min__rmsd>  (30) 
2.496356062443582

>  <meeko>  (30) 
{"free_energy": -8.49, "intermolecular_energy": -10.57, "internal_energy": -2.05, "cluster_size": 40, "cluster_id": 1, "rank_in_cluster": 36}

>  <energy>  (30) 
-8.65

>  <cluster_rmsd>  (30) 
1.32

>  <cluster>  (30) 
1

$$$$

     RDKit          3D

 57 60  0  0  0  0  0  0  0  0999 V2000
  140.8110   71.4880  221.2820 O   0  0  0  0  0  0  0  0  0  0  0  0
  140.3490   72.0430  222.3230 C   0  0  0  0  0  0  0  0  0  0  0  0
  139.9540   73.4100  222.3370 N   0  0  0  0  0  0  0  0  0  0  0  0
  140.0590   74.2380  221.1670 C   0  0  0  0  0  0  0  0  0  0  0  0
  140.2020   75.6840  221.5140 C   0  0  0  0  0  0  0  0  0  0  0  0
  139.8560   76.0890  222.6650 O   0  0  0  0  0  0  0  0  0  0  0  0
  140.7310   76.5640  220.5240 N   0  0  0  0  0  0  0  0  0  0  0  0
  142.1630   76.7770  220.3910 C   0  0  0  0  0  0  0  0  0  0  0  0
  142.5840   77.1660  218.9960 C   0  0  0  0  0  0  0  0  0  0  0  0
  141.5870   76.5410  218.0410 C   0  0  0  0  0  0  0  0  0  0  0  0
  140.3150   77.3500  218.2360 C   0  0  0  0  0  0  0  0  0  0  0  0
  139.8130   77.2340  219.6610 C   0  0  2  0  0  0  0  0  0  0  0  0
  139.3390   78.5620  220.1420 C   0  0  0  0  0  0  0  0  0  0  0  0
  139.2390   78.7540  221.6110 C   0  0  0  0  0  0  0  0  0  0  0  0
  140.5410   79.2570  222.1840 C   0  0  0  0  0  0  0  0  0  0  0  0
  141.3790   80.0620  221.4460 C   0  0  0  0  0  0  0  0  0  0  0  0
  142.5670   80.5270  221.9550 C   0  0  0  0  0  0  0  0  0  0  0  0
  142.9640   80.1960  223.2420 C   0  0  0  0  0  0  0  0  0  0  0  0
  142.1350   79.3890  223.9980 C   0  0  0  0  0  0  0  0  0  0  0  0
  140.9340   78.9250  223.4700 C   0  0  0  0  0  0  0  0  0  0  0  0
  140.2030   71.2740  223.5750 C   0  0  0  0  0  0  0  0  0  0  0  0
  139.6190   70.0270  223.5690 C   0  0  0  0  0  0  0  0  0  0  0  0
  139.5050   69.3430  224.7760 C   0  0  0  0  0  0  0  0  0  0  0  0
  139.9570   69.8760  225.9650 C   0  0  0  0  0  0  0  0  0  0  0  0
  139.8560   69.2190  227.1750 C   0  0  0  0  0  0  0  0  0  0  0  0
  140.3300   69.8130  228.3320 C   0  0  0  0  0  0  0  0  0  0  0  0
  140.9130   71.0750  228.2940 C   0  0  0  0  0  0  0  0  0  0  0  0
  141.0070   71.7200  227.0730 C   0  0  0  0  0  0  0  0  0  0  0  0
  140.5310   71.1190  225.9250 C   0  0  0  0  0  0  0  0  0  0  0  0
  140.6360   71.7700  224.7580 N   0  0  0  0  0  0  0  0  0  0  0  0
  139.5740   73.8140  223.2430 H   0  0  0  0  0  0  0  0  0  0  0  0
  140.9394   73.9234  220.5875 H   0  0  0  0  0  0  0  0  0  0  0  0
  139.1343   74.1191  220.5833 H   0  0  0  0  0  0  0  0  0  0  0  0
  142.4618   77.5792  221.0818 H   0  0  0  0  0  0  0  0  0  0  0  0
  142.6563   75.8219  220.6245 H   0  0  0  0  0  0  0  0  0  0  0  0
  142.5734   78.2608  218.8898 H   0  0  0  0  0  0  0  0  0  0  0  0
  143.6046   76.8157  218.7823 H   0  0  0  0  0  0  0  0  0  0  0  0
  141.9419   76.6186  217.0027 H   0  0  0  0  0  0  0  0  0  0  0  0
  141.4354   75.4692  218.2368 H   0  0  0  0  0  0  0  0  0  0  0  0
  140.5226   78.4068  218.0123 H   0  0  0  0  0  0  0  0  0  0  0  0
  139.5422   76.9582  217.5583 H   0  0  0  0  0  0  0  0  0  0  0  0
  138.9370   76.5689  219.6781 H   0  0  0  0  0  0  0  0  0  0  0  0
  140.0341   79.3217  219.7553 H   0  0  0  0  0  0  0  0  0  0  0  0
  138.3059   78.6455  219.7735 H   0  0  0  0  0  0  0  0  0  0  0  0
  138.4462   79.4861  221.8243 H   0  0  0  0  0  0  0  0  0  0  0  0
  139.0053   77.7842  222.0745 H   0  0  0  0  0  0  0  0  0  0  0  0
  141.0897   80.3401  220.4218 H   0  0  0  0  0  0  0  0  0  0  0  0
  143.2104   81.1688  221.3352 H   0  0  0  0  0  0  0  0  0  0  0  0
  143.9155   80.5667  223.6510 H   0  0  0  0  0  0  0  0  0  0  0  0
  142.4259   79.1121  225.0221 H   0  0  0  0  0  0  0  0  0  0  0  0
  140.2855   78.2834  224.0846 H   0  0  0  0  0  0  0  0  0  0  0  0
  139.2513   69.5819  222.6327 H   0  0  0  0  0  0  0  0  0  0  0  0
  139.0399   68.3462  224.7817 H   0  0  0  0  0  0  0  0  0  0  0  0
  139.3973   68.2202  227.2198 H   0  0  0  0  0  0  0  0  0  0  0  0
  140.2447   69.2814  229.2912 H   0  0  0  0  0  0  0  0  0  0  0  0
  141.2903   71.5491  229.2121 H   0  0  0  0  0  0  0  0  0  0  0  0
  141.4644   72.7188  227.0170 H   0  0  0  0  0  0  0  0  0  0  0  0
  1  2  2  0
  2  3  1  0
  3  4  1  0
  4  5  1  0
  5  6  2  0
  5  7  1  0
  7  8  1  0
  8  9  1  0
  9 10  1  0
 10 11  1  0
 11 12  1  0
 12 13  1  0
 13 14  1  0
 14 15  1  0
 15 16  2  0
 16 17  1  0
 17 18  2  0
 18 19  1  0
 19 20  2  0
  2 21  1  0
 21 22  2  0
 22 23  1  0
 23 24  2  0
 24 25  1  0
 25 26  2  0
 26 27  1  0
 27 28  2  0
 28 29  1  0
 29 30  2  0
 12  7  1  0
 20 15  1  0
 30 21  1  0
 29 24  1  0
  3 31  1  0
  4 32  1  0
  4 33  1  0
  8 34  1  0
  8 35  1  0
  9 36  1  0
  9 37  1  0
 10 38  1  0
 10 39  1  0
 11 40  1  0
 11 41  1  0
 12 42  1  6
 13 43  1  0
 13 44  1  0
 14 45  1  0
 14 46  1  0
 16 47  1  0
 17 48  1  0
 18 49  1  0
 19 50  1  0
 20 51  1  0
 22 52  1  0
 23 53  1  0
 25 54  1  0
 26 55  1  0
 27 56  1  0
 28 57  1  0
M  END
>  <smiles>  (31) 
O=C(NCC(=O)N1CCCCC1CCc1ccccc1)c1ccc2ccccc2n1

>  <score_type>  (31) 
oracle

>  <origin>  (31) 
autodockgpu

>  <m_score__min__energy>  (31) 
-9.2300000000000004

>  <m_primary>  (31) 
energy

>  <rmsd>  (31) 
2.2335350802636214

>  <m_score__min__rmsd>  (31) 
2.2335350802636214

>  <meeko>  (31) 
{"free_energy": -8.63, "intermolecular_energy": -10.72, "internal_energy": -2.26, "cluster_size": 40, "cluster_id": 1, "rank_in_cluster": 31}

>  <energy>  (31) 
-8.63

>  <cluster_rmsd>  (31) 
0.94

>  <cluster>  (31) 
1

$$$$

     RDKit          3D

 57 60  0  0  0  0  0  0  0  0999 V2000
  141.3830   72.0630  221.6340 O   0  0  0  0  0  0  0  0  0  0  0  0
  140.4450   72.3300  222.4420 C   0  0  0  0  0  0  0  0  0  0  0  0
  139.5540   73.4200  222.2330 N   0  0  0  0  0  0  0  0  0  0  0  0
  139.6720   74.2810  221.0880 C   0  0  0  0  0  0  0  0  0  0  0  0
  140.7100   75.3370  221.2850 C   0  0  0  0  0  0  0  0  0  0  0  0
  140.8860   75.8340  222.4390 O   0  0  0  0  0  0  0  0  0  0  0  0
  141.4740   75.7490  220.1540 N   0  0  0  0  0  0  0  0  0  0  0  0
  142.9110   75.5390  220.0950 C   0  0  0  0  0  0  0  0  0  0  0  0
  143.4420   75.4150  218.6890 C   0  0  0  0  0  0  0  0  0  0  0  0
  142.3260   74.8380  217.8420 C   0  0  0  0  0  0  0  0  0  0  0  0
  141.3210   75.9710  217.7130 C   0  0  0  0  0  0  0  0  0  0  0  0
  140.7860   76.3780  219.0720 C   0  0  2  0  0  0  0  0  0  0  0  0
  140.6870   77.8620  219.1560 C   0  0  0  0  0  0  0  0  0  0  0  0
  141.8090   78.5810  219.8130 C   0  0  0  0  0  0  0  0  0  0  0  0
  141.4960   78.8720  221.2590 C   0  0  0  0  0  0  0  0  0  0  0  0
  140.2270   78.6900  221.7630 C   0  0  0  0  0  0  0  0  0  0  0  0
  139.9280   78.9500  223.0780 C   0  0  0  0  0  0  0  0  0  0  0  0
  140.9050   79.4100  223.9490 C   0  0  0  0  0  0  0  0  0  0  0  0
  142.1840   79.5980  223.4610 C   0  0  0  0  0  0  0  0  0  0  0  0
  142.4730   79.3300  222.1270 C   0  0  0  0  0  0  0  0  0  0  0  0
  140.2430   71.5020  223.6490 C   0  0  0  0  0  0  0  0  0  0  0  0
  139.5720   70.3020  223.5720 C   0  0  0  0  0  0  0  0  0  0  0  0
  139.4080   69.5590  224.7380 C   0  0  0  0  0  0  0  0  0  0  0  0
  139.8940   69.9890  225.9540 C   0  0  0  0  0  0  0  0  0  0  0  0
  139.7450   69.2720  227.1240 C   0  0  0  0  0  0  0  0  0  0  0  0
  140.2590   69.7620  228.3130 C   0  0  0  0  0  0  0  0  0  0  0  0
  140.9310   70.9800  228.3460 C   0  0  0  0  0  0  0  0  0  0  0  0
  141.0720   71.6860  227.1640 C   0  0  0  0  0  0  0  0  0  0  0  0
  140.5550   71.1880  225.9850 C   0  0  0  0  0  0  0  0  0  0  0  0
  140.7080   71.8960  224.8570 N   0  0  0  0  0  0  0  0  0  0  0  0
  138.7880   73.5880  222.9500 H   0  0  0  0  0  0  0  0  0  0  0  0
  139.9460   73.6728  220.2133 H   0  0  0  0  0  0  0  0  0  0  0  0
  138.7037   74.7809  220.9382 H   0  0  0  0  0  0  0  0  0  0  0  0
  143.4080   76.3914  220.5813 H   0  0  0  0  0  0  0  0  0  0  0  0
  143.1209   74.5878  220.6060 H   0  0  0  0  0  0  0  0  0  0  0  0
  143.7331   76.4045  218.3067 H   0  0  0  0  0  0  0  0  0  0  0  0
  144.3305   74.7670  218.6612 H   0  0  0  0  0  0  0  0  0  0  0  0
  142.7035   74.5387  216.8531 H   0  0  0  0  0  0  0  0  0  0  0  0
  141.8841   73.9361  218.2906 H   0  0  0  0  0  0  0  0  0  0  0  0
  141.8127   76.8369  217.2456 H   0  0  0  0  0  0  0  0  0  0  0  0
  140.4801   75.6256  217.0937 H   0  0  0  0  0  0  0  0  0  0  0  0
  139.7609   75.9945  219.1819 H   0  0  0  0  0  0  0  0  0  0  0  0
  140.6036   78.2468  218.1289 H   0  0  0  0  0  0  0  0  0  0  0  0
  139.8139   78.0522  219.7975 H   0  0  0  0  0  0  0  0  0  0  0  0
  142.7144   77.9586  219.7598 H   0  0  0  0  0  0  0  0  0  0  0  0
  141.9647   79.5364  219.2906 H   0  0  0  0  0  0  0  0  0  0  0  0
  139.4323   78.3269  221.0947 H   0  0  0  0  0  0  0  0  0  0  0  0
  138.9030   78.7918  223.4445 H   0  0  0  0  0  0  0  0  0  0  0  0
  140.6673   79.6199  225.0023 H   0  0  0  0  0  0  0  0  0  0  0  0
  142.9775   79.9613  224.1306 H   0  0  0  0  0  0  0  0  0  0  0  0
  143.4965   79.4847  221.7547 H   0  0  0  0  0  0  0  0  0  0  0  0
  139.1751   69.9392  222.6124 H   0  0  0  0  0  0  0  0  0  0  0  0
  138.8738   68.5987  224.6872 H   0  0  0  0  0  0  0  0  0  0  0  0
  139.2159   68.3077  227.1120 H   0  0  0  0  0  0  0  0  0  0  0  0
  140.1349   69.1829  229.2400 H   0  0  0  0  0  0  0  0  0  0  0  0
  141.3402   71.3722  229.2887 H   0  0  0  0  0  0  0  0  0  0  0  0
  141.5999   72.6510  227.1641 H   0  0  0  0  0  0  0  0  0  0  0  0
  1  2  2  0
  2  3  1  0
  3  4  1  0
  4  5  1  0
  5  6  2  0
  5  7  1  0
  7  8  1  0
  8  9  1  0
  9 10  1  0
 10 11  1  0
 11 12  1  0
 12 13  1  0
 13 14  1  0
 14 15  1  0
 15 16  2  0
 16 17  1  0
 17 18  2  0
 18 19  1  0
 19 20  2  0
  2 21  1  0
 21 22  2  0
 22 23  1  0
 23 24  2  0
 24 25  1  0
 25 26  2  0
 26 27  1  0
 27 28  2  0
 28 29  1  0
 29 30  2  0
 12  7  1  0
 20 15  1  0
 30 21  1  0
 29 24  1  0
  3 31  1  0
  4 32  1  0
  4 33  1  0
  8 34  1  0
  8 35  1  0
  9 36  1  0
  9 37  1  0
 10 38  1  0
 10 39  1  0
 11 40  1  0
 11 41  1  0
 12 42  1  6
 13 43  1  0
 13 44  1  0
 14 45  1  0
 14 46  1  0
 16 47  1  0
 17 48  1  0
 18 49  1  0
 19 50  1  0
 20 51  1  0
 22 52  1  0
 23 53  1  0
 25 54  1  0
 26 55  1  0
 27 56  1  0
 28 57  1  0
M  END
>  <smiles>  (32) 
O=C(NCC(=O)N1CCCCC1CCc1ccccc1)c1ccc2ccccc2n1

>  <score_type>  (32) 
oracle

>  <origin>  (32) 
autodockgpu

>  <m_score__min__energy>  (32) 
-9.2300000000000004

>  <m_primary>  (32) 
energy

>  <rmsd>  (32) 
2.1414710766604332

>  <m_score__min__rmsd>  (32) 
2.1414710766604332

>  <meeko>  (32) 
{"free_energy": -8.55, "intermolecular_energy": -10.64, "internal_energy": -1.9, "cluster_size": 40, "cluster_id": 1, "rank_in_cluster": 34}

>  <energy>  (32) 
-8.6

>  <cluster_rmsd>  (32) 
1.99

>  <cluster>  (32) 
1

$$$$

     RDKit          3D

 57 60  0  0  0  0  0  0  0  0999 V2000
  138.9040   70.7810  221.3560 O   0  0  0  0  0  0  0  0  0  0  0  0
  139.1570   71.4970  222.3710 C   0  0  0  0  0  0  0  0  0  0  0  0
  139.1290   72.9180  222.3190 N   0  0  0  0  0  0  0  0  0  0  0  0
  138.8120   73.6220  221.1070 C   0  0  0  0  0  0  0  0  0  0  0  0
  139.8880   73.4860  220.0800 C   0  0  0  0  0  0  0  0  0  0  0  0
  139.5950   73.0740  218.9160 O   0  0  0  0  0  0  0  0  0  0  0  0
  141.2210   73.8280  220.4530 N   0  0  0  0  0  0  0  0  0  0  0  0
  142.1000   72.8610  221.0890 C   0  0  0  0  0  0  0  0  0  0  0  0
  143.5630   73.1220  220.8350 C   0  0  0  0  0  0  0  0  0  0  0  0
  143.6640   73.8100  219.4890 C   0  0  0  0  0  0  0  0  0  0  0  0
  143.1200   75.2080  219.7340 C   0  0  0  0  0  0  0  0  0  0  0  0
  141.6740   75.1550  220.1830 C   0  0  2  0  0  0  0  0  0  0  0  0
  141.4460   76.1410  221.2760 C   0  0  0  0  0  0  0  0  0  0  0  0
  141.0590   77.5190  220.8770 C   0  0  0  0  0  0  0  0  0  0  0  0
  141.4890   78.5260  221.9130 C   0  0  0  0  0  0  0  0  0  0  0  0
  141.4340   78.2330  223.2580 C   0  0  0  0  0  0  0  0  0  0  0  0
  141.8230   79.1400  224.2120 C   0  0  0  0  0  0  0  0  0  0  0  0
  142.2890   80.3950  223.8480 C   0  0  0  0  0  0  0  0  0  0  0  0
  142.3520   80.7080  222.5040 C   0  0  0  0  0  0  0  0  0  0  0  0
  141.9540   79.7790  221.5470 C   0  0  0  0  0  0  0  0  0  0  0  0
  139.4950   70.8640  223.6620 C   0  0  0  0  0  0  0  0  0  0  0  0
  139.2910   69.5160  223.8580 C   0  0  0  0  0  0  0  0  0  0  0  0
  139.6250   68.9690  225.0930 C   0  0  0  0  0  0  0  0  0  0  0  0
  140.1490   69.7310  226.1150 C   0  0  0  0  0  0  0  0  0  0  0  0
  140.4890   69.2130  227.3480 C   0  0  0  0  0  0  0  0  0  0  0  0
  141.0120   70.0370  228.3300 C   0  0  0  0  0  0  0  0  0  0  0  0
  141.2010   71.3940  228.0910 C   0  0  0  0  0  0  0  0  0  0  0  0
  140.8560   71.8980  226.8490 C   0  0  0  0  0  0  0  0  0  0  0  0
  140.3360   71.0680  225.8770 C   0  0  0  0  0  0  0  0  0  0  0  0
  140.0110   71.5860  224.6840 N   0  0  0  0  0  0  0  0  0  0  0  0
  139.3520   73.4580  223.2060 H   0  0  0  0  0  0  0  0  0  0  0  0
  137.8759   73.2163  220.6957 H   0  0  0  0  0  0  0  0  0  0  0  0
  138.7109   74.6896  221.3521 H   0  0  0  0  0  0  0  0  0  0  0  0
  141.9240   72.8912  222.1744 H   0  0  0  0  0  0  0  0  0  0  0  0
  141.8664   71.8770  220.6564 H   0  0  0  0  0  0  0  0  0  0  0  0
  143.9730   73.7712  221.6226 H   0  0  0  0  0  0  0  0  0  0  0  0
  144.1355   72.1827  220.8393 H   0  0  0  0  0  0  0  0  0  0  0  0
  144.7103   73.8535  219.1522 H   0  0  0  0  0  0  0  0  0  0  0  0
  143.1080   73.2766  218.7040 H   0  0  0  0  0  0  0  0  0  0  0  0
  143.7217   75.6968  220.5144 H   0  0  0  0  0  0  0  0  0  0  0  0
  143.1752   75.7761  218.7937 H   0  0  0  0  0  0  0  0  0  0  0  0
  141.0286   75.4648  219.3478 H   0  0  0  0  0  0  0  0  0  0  0  0
  140.6450   75.7448  221.9174 H   0  0  0  0  0  0  0  0  0  0  0  0
  142.4242   76.2518  221.7668 H   0  0  0  0  0  0  0  0  0  0  0  0
  141.5390   77.7633  219.9179 H   0  0  0  0  0  0  0  0  0  0  0  0
  139.9638   77.5606  220.7835 H   0  0  0  0  0  0  0  0  0  0  0  0
  141.0685   77.2455  223.5760 H   0  0  0  0  0  0  0  0  0  0  0  0
  141.7646   78.8689  225.2765 H   0  0  0  0  0  0  0  0  0  0  0  0
  142.6008   81.1232  224.6112 H   0  0  0  0  0  0  0  0  0  0  0  0
  142.7184   81.6961  222.1886 H   0  0  0  0  0  0  0  0  0  0  0  0
  142.0096   80.0442  220.4809 H   0  0  0  0  0  0  0  0  0  0  0  0
  138.8741   68.8871  223.0576 H   0  0  0  0  0  0  0  0  0  0  0  0
  139.4657   67.8934  225.2591 H   0  0  0  0  0  0  0  0  0  0  0  0
  140.3440   68.1417  227.5514 H   0  0  0  0  0  0  0  0  0  0  0  0
  141.2808   69.6141  229.3092 H   0  0  0  0  0  0  0  0  0  0  0  0
  141.6147   72.0509  228.8703 H   0  0  0  0  0  0  0  0  0  0  0  0
  140.9973   72.9677  226.6352 H   0  0  0  0  0  0  0  0  0  0  0  0
  1  2  2  0
  2  3  1  0
  3  4  1  0
  4  5  1  0
  5  6  2  0
  5  7  1  0
  7  8  1  0
  8  9  1  0
  9 10  1  0
 10 11  1  0
 11 12  1  0
 12 13  1  0
 13 14  1  0
 14 15  1  0
 15 16  2  0
 16 17  1  0
 17 18  2  0
 18 19  1  0
 19 20  2  0
  2 21  1  0
 21 22  2  0
 22 23  1  0
 23 24  2  0
 24 25  1  0
 25 26  2  0
 26 27  1  0
 27 28  2  0
 28 29  1  0
 29 30  2  0
 12  7  1  0
 20 15  1  0
 30 21  1  0
 29 24  1  0
  3 31  1  0
  4 32  1  0
  4 33  1  0
  8 34  1  0
  8 35  1  0
  9 36  1  0
  9 37  1  0
 10 38  1  0
 10 39  1  0
 11 40  1  0
 11 41  1  0
 12 42  1  6
 13 43  1  0
 13 44  1  0
 14 45  1  0
 14 46  1  0
 16 47  1  0
 17 48  1  0
 18 49  1  0
 19 50  1  0
 20 51  1  0
 22 52  1  0
 23 53  1  0
 25 54  1  0
 26 55  1  0
 27 56  1  0
 28 57  1  0
M  END
>  <smiles>  (33) 
O=C(NCC(=O)N1CCCCC1CCc1ccccc1)c1ccc2ccccc2n1

>  <score_type>  (33) 
oracle

>  <origin>  (33) 
autodockgpu

>  <m_score__min__energy>  (33) 
-9.2300000000000004

>  <m_primary>  (33) 
energy

>  <rmsd>  (33) 
2.6236369734112417

>  <m_score__min__rmsd>  (33) 
2.6236369734112417

>  <meeko>  (33) 
{"free_energy": -8.84, "intermolecular_energy": -10.93, "internal_energy": -1.88, "cluster_size": 40, "cluster_id": 1, "rank_in_cluster": 21}

>  <energy>  (33) 
-8.57

>  <cluster_rmsd>  (33) 
0.89

>  <cluster>  (33) 
1

$$$$

     RDKit          3D

 57 60  0  0  0  0  0  0  0  0999 V2000
  139.1640   70.5200  221.2240 O   0  0  0  0  0  0  0  0  0  0  0  0
  139.0840   71.2470  222.2590 C   0  0  0  0  0  0  0  0  0  0  0  0
  138.6730   72.6080  222.1960 N   0  0  0  0  0  0  0  0  0  0  0  0
  138.3240   73.2340  220.9500 C   0  0  0  0  0  0  0  0  0  0  0  0
  138.2390   74.7200  221.0740 C   0  0  0  0  0  0  0  0  0  0  0  0
  137.1080   75.2710  221.2360 O   0  0  0  0  0  0  0  0  0  0  0  0
  139.4500   75.4710  221.0040 N   0  0  0  0  0  0  0  0  0  0  0  0
  140.6970   74.9430  221.5320 C   0  0  0  0  0  0  0  0  0  0  0  0
  141.9200   75.4980  220.8470 C   0  0  0  0  0  0  0  0  0  0  0  0
  141.5180   75.8400  219.4280 C   0  0  0  0  0  0  0  0  0  0  0  0
  140.6360   77.0700  219.5680 C   0  0  0  0  0  0  0  0  0  0  0  0
  139.4060   76.7620  220.3980 C   0  0  2  0  0  0  0  0  0  0  0  0
  139.1220   77.8930  221.3250 C   0  0  0  0  0  0  0  0  0  0  0  0
  139.6680   77.7930  222.7030 C   0  0  0  0  0  0  0  0  0  0  0  0
  140.6820   78.8780  222.9670 C   0  0  0  0  0  0  0  0  0  0  0  0
  140.3200   80.0560  223.5800 C   0  0  0  0  0  0  0  0  0  0  0  0
  141.2330   81.0520  223.8260 C   0  0  0  0  0  0  0  0  0  0  0  0
  142.5630   80.9000  223.4620 C   0  0  0  0  0  0  0  0  0  0  0  0
  142.9440   79.7240  222.8460 C   0  0  0  0  0  0  0  0  0  0  0  0
  142.0090   78.7230  222.6020 C   0  0  0  0  0  0  0  0  0  0  0  0
  139.4230   70.6940  223.5850 C   0  0  0  0  0  0  0  0  0  0  0  0
  139.1960   69.3650  223.8700 C   0  0  0  0  0  0  0  0  0  0  0  0
  139.5320   68.8930  225.1360 C   0  0  0  0  0  0  0  0  0  0  0  0
  140.0800   69.7100  226.1010 C   0  0  0  0  0  0  0  0  0  0  0  0
  140.4220   69.2670  227.3630 C   0  0  0  0  0  0  0  0  0  0  0  0
  140.9700   70.1420  228.2850 C   0  0  0  0  0  0  0  0  0  0  0  0
  141.1820   71.4770  227.9560 C   0  0  0  0  0  0  0  0  0  0  0  0
  140.8340   71.9060  226.6870 C   0  0  0  0  0  0  0  0  0  0  0  0
  140.2890   71.0240  225.7750 C   0  0  0  0  0  0  0  0  0  0  0  0
  139.9620   71.4710  224.5540 N   0  0  0  0  0  0  0  0  0  0  0  0
  138.6280   73.1620  223.1020 H   0  0  0  0  0  0  0  0  0  0  0  0
  139.0890   72.9835  220.2003 H   0  0  0  0  0  0  0  0  0  0  0  0
  137.3339   72.8614  220.6485 H   0  0  0  0  0  0  0  0  0  0  0  0
  140.7547   75.1898  222.6024 H   0  0  0  0  0  0  0  0  0  0  0  0
  140.6905   73.8573  221.3554 H   0  0  0  0  0  0  0  0  0  0  0  0
  142.2676   76.4017  221.3690 H   0  0  0  0  0  0  0  0  0  0  0  0
  142.7405   74.7654  220.8560 H   0  0  0  0  0  0  0  0  0  0  0  0
  142.4042   76.0647  218.8163 H   0  0  0  0  0  0  0  0  0  0  0  0
  140.9997   75.0084  218.9282 H   0  0  0  0  0  0  0  0  0  0  0  0
  141.2097   77.8707  220.0577 H   0  0  0  0  0  0  0  0  0  0  0  0
  140.3130   77.3868  218.5653 H   0  0  0  0  0  0  0  0  0  0  0  0
  138.5349   76.6849  219.7307 H   0  0  0  0  0  0  0  0  0  0  0  0
  139.5351   78.8055  220.8705 H   0  0  0  0  0  0  0  0  0  0  0  0
  138.0293   77.8894  221.4513 H   0  0  0  0  0  0  0  0  0  0  0  0
  138.8429   77.8897  223.4240 H   0  0  0  0  0  0  0  0  0  0  0  0
  140.1648   76.8176  222.8113 H   0  0  0  0  0  0  0  0  0  0  0  0
  139.2722   80.2035  223.8807 H   0  0  0  0  0  0  0  0  0  0  0  0
  140.9061   81.9805  224.3170 H   0  0  0  0  0  0  0  0  0  0  0  0
  143.2959   81.6962  223.6591 H   0  0  0  0  0  0  0  0  0  0  0  0
  143.9924   79.5780  222.5467 H   0  0  0  0  0  0  0  0  0  0  0  0
  142.3293   77.7924  222.1107 H   0  0  0  0  0  0  0  0  0  0  0  0
  138.7600   68.6935  223.1157 H   0  0  0  0  0  0  0  0  0  0  0  0
  139.3543   67.8338  225.3736 H   0  0  0  0  0  0  0  0  0  0  0  0
  140.2583   68.2143  227.6370 H   0  0  0  0  0  0  0  0  0  0  0  0
  141.2404   69.7783  229.2873 H   0  0  0  0  0  0  0  0  0  0  0  0
  141.6159   72.1750  228.6871 H   0  0  0  0  0  0  0  0  0  0  0  0
  140.9927   72.9568  226.4030 H   0  0  0  0  0  0  0  0  0  0  0  0
  1  2  2  0
  2  3  1  0
  3  4  1  0
  4  5  1  0
  5  6  2  0
  5  7  1  0
  7  8  1  0
  8  9  1  0
  9 10  1  0
 10 11  1  0
 11 12  1  0
 12 13  1  0
 13 14  1  0
 14 15  1  0
 15 16  2  0
 16 17  1  0
 17 18  2  0
 18 19  1  0
 19 20  2  0
  2 21  1  0
 21 22  2  0
 22 23  1  0
 23 24  2  0
 24 25  1  0
 25 26  2  0
 26 27  1  0
 27 28  2  0
 28 29  1  0
 29 30  2  0
 12  7  1  0
 20 15  1  0
 30 21  1  0
 29 24  1  0
  3 31  1  0
  4 32  1  0
  4 33  1  0
  8 34  1  0
  8 35  1  0
  9 36  1  0
  9 37  1  0
 10 38  1  0
 10 39  1  0
 11 40  1  0
 11 41  1  0
 12 42  1  6
 13 43  1  0
 13 44  1  0
 14 45  1  0
 14 46  1  0
 16 47  1  0
 17 48  1  0
 18 49  1  0
 19 50  1  0
 20 51  1  0
 22 52  1  0
 23 53  1  0
 25 54  1  0
 26 55  1  0
 27 56  1  0
 28 57  1  0
M  END
>  <smiles>  (34) 
O=C(NCC(=O)N1CCCCC1CCc1ccccc1)c1ccc2ccccc2n1

>  <score_type>  (34) 
oracle

>  <origin>  (34) 
autodockgpu

>  <m_score__min__energy>  (34) 
-9.2300000000000004

>  <m_primary>  (34) 
energy

>  <rmsd>  (34) 
2.2362132001910293

>  <m_score__min__rmsd>  (34) 
2.2362132001910293

>  <meeko>  (34) 
{"free_energy": -8.43, "intermolecular_energy": -10.52, "internal_energy": -1.83, "cluster_size": 40, "cluster_id": 1, "rank_in_cluster": 40}

>  <energy>  (34) 
-8.55

>  <cluster_rmsd>  (34) 
0.74

>  <cluster>  (34) 
1

$$$$

     RDKit          3D

 57 60  0  0  0  0  0  0  0  0999 V2000
  139.2420   70.9290  221.4170 O   0  0  0  0  0  0  0  0  0  0  0  0
  139.5140   71.5150  222.5060 C   0  0  0  0  0  0  0  0  0  0  0  0
  139.6830   72.9260  222.5830 N   0  0  0  0  0  0  0  0  0  0  0  0
  139.5540   73.7650  221.4240 C   0  0  0  0  0  0  0  0  0  0  0  0
  140.4270   74.9750  221.5070 C   0  0  0  0  0  0  0  0  0  0  0  0
  140.1250   75.9100  222.3090 O   0  0  0  0  0  0  0  0  0  0  0  0
  141.5810   75.0310  220.6720 N   0  0  0  0  0  0  0  0  0  0  0  0
  142.6780   74.0920  220.8360 C   0  0  0  0  0  0  0  0  0  0  0  0
  143.4560   73.8510  219.5670 C   0  0  0  0  0  0  0  0  0  0  0  0
  142.4960   74.0530  218.4120 C   0  0  0  0  0  0  0  0  0  0  0  0
  142.2600   75.5540  218.3710 C   0  0  0  0  0  0  0  0  0  0  0  0
  141.6310   76.0380  219.6620 C   0  0  2  0  0  0  0  0  0  0  0  0
  142.2520   77.3270  220.0780 C   0  0  0  0  0  0  0  0  0  0  0  0
  141.3510   78.4990  220.2230 C   0  0  0  0  0  0  0  0  0  0  0  0
  141.6240   79.2390  221.5090 C   0  0  0  0  0  0  0  0  0  0  0  0
  141.9370   80.5790  221.5060 C   0  0  0  0  0  0  0  0  0  0  0  0
  142.1870   81.2650  222.6690 C   0  0  0  0  0  0  0  0  0  0  0  0
  142.1320   80.6220  223.8970 C   0  0  0  0  0  0  0  0  0  0  0  0
  141.8190   79.2770  223.9200 C   0  0  0  0  0  0  0  0  0  0  0  0
  141.5680   78.5940  222.7340 C   0  0  0  0  0  0  0  0  0  0  0  0
  139.6670   70.7370  223.7530 C   0  0  0  0  0  0  0  0  0  0  0  0
  139.2810   69.4160  223.8070 C   0  0  0  0  0  0  0  0  0  0  0  0
  139.4460   68.7270  225.0060 C   0  0  0  0  0  0  0  0  0  0  0  0
  139.9790   69.3250  226.1270 C   0  0  0  0  0  0  0  0  0  0  0  0
  140.1530   68.6650  227.3260 C   0  0  0  0  0  0  0  0  0  0  0  0
  140.6960   69.3260  228.4140 C   0  0  0  0  0  0  0  0  0  0  0  0
  141.0730   70.6620  228.3160 C   0  0  0  0  0  0  0  0  0  0  0  0
  140.8930   71.3090  227.1060 C   0  0  0  0  0  0  0  0  0  0  0  0
  140.3500   70.6400  226.0280 C   0  0  0  0  0  0  0  0  0  0  0  0
  140.1880   71.2960  224.8700 N   0  0  0  0  0  0  0  0  0  0  0  0
  139.9110   73.3540  223.5290 H   0  0  0  0  0  0  0  0  0  0  0  0
  139.8355   73.1848  220.5328 H   0  0  0  0  0  0  0  0  0  0  0  0
  138.5092   74.1040  221.3654 H   0  0  0  0  0  0  0  0  0  0  0  0
  143.3662   74.4895  221.5965 H   0  0  0  0  0  0  0  0  0  0  0  0
  142.2386   73.1289  221.1349 H   0  0  0  0  0  0  0  0  0  0  0  0
  144.2898   74.5647  219.4941 H   0  0  0  0  0  0  0  0  0  0  0  0
  143.8780   72.8353  219.5529 H   0  0  0  0  0  0  0  0  0  0  0  0
  142.9429   73.7038  217.4695 H   0  0  0  0  0  0  0  0  0  0  0  0
  141.5621   73.4862  218.5405 H   0  0  0  0  0  0  0  0  0  0  0  0
  143.2226   76.0661  218.2253 H   0  0  0  0  0  0  0  0  0  0  0  0
  141.5752   75.7795  217.5403 H   0  0  0  0  0  0  0  0  0  0  0  0
  140.5671   76.2515  219.4817 H   0  0  0  0  0  0  0  0  0  0  0  0
  142.7385   77.1613  221.0506 H   0  0  0  0  0  0  0  0  0  0  0  0
  142.9323   77.5925  219.2554 H   0  0  0  0  0  0  0  0  0  0  0  0
  141.5103   79.1815  219.3752 H   0  0  0  0  0  0  0  0  0  0  0  0
  140.3114   78.1400  220.2408 H   0  0  0  0  0  0  0  0  0  0  0  0
  141.9883   81.1148  220.5467 H   0  0  0  0  0  0  0  0  0  0  0  0
  142.4336   82.3362  222.6264 H   0  0  0  0  0  0  0  0  0  0  0  0
  142.3328   81.1699  224.8295 H   0  0  0  0  0  0  0  0  0  0  0  0
  141.7679   78.7432  224.8804 H   0  0  0  0  0  0  0  0  0  0  0  0
  141.3207   77.5228  222.7696 H   0  0  0  0  0  0  0  0  0  0  0  0
  138.8529   68.9175  222.9248 H   0  0  0  0  0  0  0  0  0  0  0  0
  139.1410   67.6715  225.0598 H   0  0  0  0  0  0  0  0  0  0  0  0
  139.8589   67.6090  227.4176 H   0  0  0  0  0  0  0  0  0  0  0  0
  140.8309   68.7902  229.3652 H   0  0  0  0  0  0  0  0  0  0  0  0
  141.5035   71.1908  229.1792 H   0  0  0  0  0  0  0  0  0  0  0  0
  141.1850   72.3645  227.0027 H   0  0  0  0  0  0  0  0  0  0  0  0
  1  2  2  0
  2  3  1  0
  3  4  1  0
  4  5  1  0
  5  6  2  0
  5  7  1  0
  7  8  1  0
  8  9  1  0
  9 10  1  0
 10 11  1  0
 11 12  1  0
 12 13  1  0
 13 14  1  0
 14 15  1  0
 15 16  2  0
 16 17  1  0
 17 18  2  0
 18 19  1  0
 19 20  2  0
  2 21  1  0
 21 22  2  0
 22 23  1  0
 23 24  2  0
 24 25  1  0
 25 26  2  0
 26 27  1  0
 27 28  2  0
 28 29  1  0
 29 30  2  0
 12  7  1  0
 20 15  1  0
 30 21  1  0
 29 24  1  0
  3 31  1  0
  4 32  1  0
  4 33  1  0
  8 34  1  0
  8 35  1  0
  9 36  1  0
  9 37  1  0
 10 38  1  0
 10 39  1  0
 11 40  1  0
 11 41  1  0
 12 42  1  6
 13 43  1  0
 13 44  1  0
 14 45  1  0
 14 46  1  0
 16 47  1  0
 17 48  1  0
 18 49  1  0
 19 50  1  0
 20 51  1  0
 22 52  1  0
 23 53  1  0
 25 54  1  0
 26 55  1  0
 27 56  1  0
 28 57  1  0
M  END
>  <smiles>  (35) 
O=C(NCC(=O)N1CCCCC1CCc1ccccc1)c1ccc2ccccc2n1

>  <score_type>  (35) 
oracle

>  <origin>  (35) 
autodockgpu

>  <m_score__min__energy>  (35) 
-9.2300000000000004

>  <m_primary>  (35) 
energy

>  <rmsd>  (35) 
2.2212619056529186

>  <m_score__min__rmsd>  (35) 
2.2212619056529186

>  <meeko>  (35) 
{"free_energy": -8.99, "intermolecular_energy": -11.08, "internal_energy": -1.85, "cluster_size": 40, "cluster_id": 1, "rank_in_cluster": 10}

>  <energy>  (35) 
-8.49

>  <cluster_rmsd>  (35) 
1.28

>  <cluster>  (35) 
1

$$$$

     RDKit          3D

 57 60  0  0  0  0  0  0  0  0999 V2000
  139.5450   70.9180  221.2080 O   0  0  0  0  0  0  0  0  0  0  0  0
  139.6080   71.6080  222.2680 C   0  0  0  0  0  0  0  0  0  0  0  0
  139.5450   73.0290  222.2500 N   0  0  0  0  0  0  0  0  0  0  0  0
  139.4060   73.7620  221.0220 C   0  0  0  0  0  0  0  0  0  0  0  0
  140.5980   73.6040  220.1360 C   0  0  0  0  0  0  0  0  0  0  0  0
  140.7100   72.5650  219.4170 O   0  0  0  0  0  0  0  0  0  0  0  0
  141.5770   74.6410  220.1340 N   0  0  0  0  0  0  0  0  0  0  0  0
  142.9580   74.3770  220.5000 C   0  0  0  0  0  0  0  0  0  0  0  0
  143.9400   75.3240  219.8580 C   0  0  0  0  0  0  0  0  0  0  0  0
  143.3370   75.7630  218.5390 C   0  0  0  0  0  0  0  0  0  0  0  0
  142.1980   76.6900  218.9320 C   0  0  0  0  0  0  0  0  0  0  0  0
  141.1630   75.9550  219.7590 C   0  0  2  0  0  0  0  0  0  0  0  0
  140.6990   76.8210  220.8790 C   0  0  0  0  0  0  0  0  0  0  0  0
  140.7070   78.2880  220.6500 C   0  0  0  0  0  0  0  0  0  0  0  0
  141.3360   79.0160  221.8110 C   0  0  0  0  0  0  0  0  0  0  0  0
  141.9920   80.2130  221.6290 C   0  0  0  0  0  0  0  0  0  0  0  0
  142.5690   80.8870  222.6780 C   0  0  0  0  0  0  0  0  0  0  0  0
  142.5080   80.3780  223.9670 C   0  0  0  0  0  0  0  0  0  0  0  0
  141.8540   79.1780  224.1680 C   0  0  0  0  0  0  0  0  0  0  0  0
  141.2730   78.5060  223.0980 C   0  0  0  0  0  0  0  0  0  0  0  0
  139.7520   70.9440  223.5800 C   0  0  0  0  0  0  0  0  0  0  0  0
  139.3660   69.6330  223.7490 C   0  0  0  0  0  0  0  0  0  0  0  0
  139.5210   69.0540  225.0060 C   0  0  0  0  0  0  0  0  0  0  0  0
  140.0470   69.7500  226.0730 C   0  0  0  0  0  0  0  0  0  0  0  0
  140.2120   69.1990  227.3280 C   0  0  0  0  0  0  0  0  0  0  0  0
  140.7470   69.9560  228.3560 C   0  0  0  0  0  0  0  0  0  0  0  0
  141.1240   71.2780  228.1420 C   0  0  0  0  0  0  0  0  0  0  0  0
  140.9520   71.8150  226.8780 C   0  0  0  0  0  0  0  0  0  0  0  0
  140.4180   71.0510  225.8600 C   0  0  0  0  0  0  0  0  0  0  0  0
  140.2640   71.6010  224.6470 N   0  0  0  0  0  0  0  0  0  0  0  0
  139.6040   73.5470  223.1770 H   0  0  0  0  0  0  0  0  0  0  0  0
  138.5165   73.3954  220.4887 H   0  0  0  0  0  0  0  0  0  0  0  0
  139.3092   74.8286  221.2730 H   0  0  0  0  0  0  0  0  0  0  0  0
  143.0520   74.4652  221.5924 H   0  0  0  0  0  0  0  0  0  0  0  0
  143.2009   73.3658  220.1416 H   0  0  0  0  0  0  0  0  0  0  0  0
  144.1028   76.1966  220.5077 H   0  0  0  0  0  0  0  0  0  0  0  0
  144.9119   74.8334  219.7006 H   0  0  0  0  0  0  0  0  0  0  0  0
  144.0809   76.2974  217.9299 H   0  0  0  0  0  0  0  0  0  0  0  0
  142.9939   74.9124  217.9318 H   0  0  0  0  0  0  0  0  0  0  0  0
  142.6016   77.5267  219.5211 H   0  0  0  0  0  0  0  0  0  0  0  0
  141.7160   77.0621  218.0160 H   0  0  0  0  0  0  0  0  0  0  0  0
  140.2795   75.7599  219.1334 H   0  0  0  0  0  0  0  0  0  0  0  0
  139.6656   76.5288  221.1172 H   0  0  0  0  0  0  0  0  0  0  0  0
  141.4279   76.6558  221.6861 H   0  0  0  0  0  0  0  0  0  0  0  0
  141.2800   78.5058  219.7366 H   0  0  0  0  0  0  0  0  0  0  0  0
  139.6670   78.6306  220.5453 H   0  0  0  0  0  0  0  0  0  0  0  0
  142.0557   80.6406  220.6175 H   0  0  0  0  0  0  0  0  0  0  0  0
  143.0850   81.8408  222.4937 H   0  0  0  0  0  0  0  0  0  0  0  0
  142.9689   80.9166  224.8081 H   0  0  0  0  0  0  0  0  0  0  0  0
  141.7924   78.7515  225.1801 H   0  0  0  0  0  0  0  0  0  0  0  0
  140.7542   77.5526  223.2764 H   0  0  0  0  0  0  0  0  0  0  0  0
  138.9454   69.0571  222.9114 H   0  0  0  0  0  0  0  0  0  0  0  0
  139.2138   68.0079  225.1520 H   0  0  0  0  0  0  0  0  0  0  0  0
  139.9174   68.1552  227.5116 H   0  0  0  0  0  0  0  0  0  0  0  0
  140.8754   69.5078  229.3523 H   0  0  0  0  0  0  0  0  0  0  0  0
  141.5485   71.8818  228.9576 H   0  0  0  0  0  0  0  0  0  0  0  0
  141.2429   72.8578  226.6834 H   0  0  0  0  0  0  0  0  0  0  0  0
  1  2  2  0
  2  3  1  0
  3  4  1  0
  4  5  1  0
  5  6  2  0
  5  7  1  0
  7  8  1  0
  8  9  1  0
  9 10  1  0
 10 11  1  0
 11 12  1  0
 12 13  1  0
 13 14  1  0
 14 15  1  0
 15 16  2  0
 16 17  1  0
 17 18  2  0
 18 19  1  0
 19 20  2  0
  2 21  1  0
 21 22  2  0
 22 23  1  0
 23 24  2  0
 24 25  1  0
 25 26  2  0
 26 27  1  0
 27 28  2  0
 28 29  1  0
 29 30  2  0
 12  7  1  0
 20 15  1  0
 30 21  1  0
 29 24  1  0
  3 31  1  0
  4 32  1  0
  4 33  1  0
  8 34  1  0
  8 35  1  0
  9 36  1  0
  9 37  1  0
 10 38  1  0
 10 39  1  0
 11 40  1  0
 11 41  1  0
 12 42  1  6
 13 43  1  0
 13 44  1  0
 14 45  1  0
 14 46  1  0
 16 47  1  0
 17 48  1  0
 18 49  1  0
 19 50  1  0
 20 51  1  0
 22 52  1  0
 23 53  1  0
 25 54  1  0
 26 55  1  0
 27 56  1  0
 28 57  1  0
M  END
>  <smiles>  (36) 
O=C(NCC(=O)N1CCCCC1CCc1ccccc1)c1ccc2ccccc2n1

>  <score_type>  (36) 
oracle

>  <origin>  (36) 
autodockgpu

>  <m_score__min__energy>  (36) 
-9.2300000000000004

>  <m_primary>  (36) 
energy

>  <rmsd>  (36) 
2.3642515185164106

>  <m_score__min__rmsd>  (36) 
2.3642515185164106

>  <meeko>  (36) 
{"free_energy": -8.93, "intermolecular_energy": -11.02, "internal_energy": -1.67, "cluster_size": 40, "cluster_id": 1, "rank_in_cluster": 12}

>  <energy>  (36) 
-8.49

>  <cluster_rmsd>  (36) 
1.31

>  <cluster>  (36) 
1

$$$$

     RDKit          3D

 57 60  0  0  0  0  0  0  0  0999 V2000
  140.8820   71.6050  221.3140 O   0  0  0  0  0  0  0  0  0  0  0  0
  140.3900   72.1580  222.3420 C   0  0  0  0  0  0  0  0  0  0  0  0
  139.9790   73.5210  222.3430 N   0  0  0  0  0  0  0  0  0  0  0  0
  140.1020   74.3460  221.1720 C   0  0  0  0  0  0  0  0  0  0  0  0
  140.3600   75.7760  221.5190 C   0  0  0  0  0  0  0  0  0  0  0  0
  140.1850   76.1720  222.7120 O   0  0  0  0  0  0  0  0  0  0  0  0
  140.8000   76.6510  220.4830 N   0  0  0  0  0  0  0  0  0  0  0  0
  142.2130   76.8970  220.2510 C   0  0  0  0  0  0  0  0  0  0  0  0
  142.5310   77.2710  218.8250 C   0  0  0  0  0  0  0  0  0  0  0  0
  141.4900   76.6050  217.9490 C   0  0  0  0  0  0  0  0  0  0  0  0
  140.2130   77.3850  218.2150 C   0  0  0  0  0  0  0  0  0  0  0  0
  139.8100   77.2830  219.6720 C   0  0  2  0  0  0  0  0  0  0  0  0
  139.3340   78.6070  220.1620 C   0  0  0  0  0  0  0  0  0  0  0  0
  139.2330   78.7900  221.6320 C   0  0  0  0  0  0  0  0  0  0  0  0
  140.5360   79.2870  222.2090 C   0  0  0  0  0  0  0  0  0  0  0  0
  141.4030   80.0470  221.4560 C   0  0  0  0  0  0  0  0  0  0  0  0
  142.5910   80.5070  221.9690 C   0  0  0  0  0  0  0  0  0  0  0  0
  142.9590   80.2160  223.2740 C   0  0  0  0  0  0  0  0  0  0  0  0
  142.1020   79.4550  224.0440 C   0  0  0  0  0  0  0  0  0  0  0  0
  140.9000   78.9960  223.5130 C   0  0  0  0  0  0  0  0  0  0  0  0
  140.2250   71.3920  223.5930 C   0  0  0  0  0  0  0  0  0  0  0  0
  139.5940   70.1670  223.5870 C   0  0  0  0  0  0  0  0  0  0  0  0
  139.4630   69.4840  224.7940 C   0  0  0  0  0  0  0  0  0  0  0  0
  139.9420   69.9960  225.9810 C   0  0  0  0  0  0  0  0  0  0  0  0
  139.8250   69.3400  227.1890 C   0  0  0  0  0  0  0  0  0  0  0  0
  140.3300   69.9110  228.3450 C   0  0  0  0  0  0  0  0  0  0  0  0
  140.9600   71.1510  228.3060 C   0  0  0  0  0  0  0  0  0  0  0  0
  141.0690   71.7960  227.0860 C   0  0  0  0  0  0  0  0  0  0  0  0
  140.5620   71.2170  225.9400 C   0  0  0  0  0  0  0  0  0  0  0  0
  140.6840   71.8670  224.7740 N   0  0  0  0  0  0  0  0  0  0  0  0
  139.5740   73.9230  223.2390 H   0  0  0  0  0  0  0  0  0  0  0  0
  140.9369   73.9727  220.5608 H   0  0  0  0  0  0  0  0  0  0  0  0
  139.1516   74.2965  220.6204 H   0  0  0  0  0  0  0  0  0  0  0  0
  142.5359   77.7188  220.9070 H   0  0  0  0  0  0  0  0  0  0  0  0
  142.7450   75.9586  220.4663 H   0  0  0  0  0  0  0  0  0  0  0  0
  142.4854   78.3631  218.7019 H   0  0  0  0  0  0  0  0  0  0  0  0
  143.5439   76.9420  218.5497 H   0  0  0  0  0  0  0  0  0  0  0  0
  141.7733   76.6731  216.8883 H   0  0  0  0  0  0  0  0  0  0  0  0
  141.3796   75.5335  218.1718 H   0  0  0  0  0  0  0  0  0  0  0  0
  140.3772   78.4424  217.9600 H   0  0  0  0  0  0  0  0  0  0  0  0
  139.4075   76.9612  217.5973 H   0  0  0  0  0  0  0  0  0  0  0  0
  138.9544   76.5970  219.7583 H   0  0  0  0  0  0  0  0  0  0  0  0
  140.0282   79.3702  219.7804 H   0  0  0  0  0  0  0  0  0  0  0  0
  138.3007   78.6908  219.7941 H   0  0  0  0  0  0  0  0  0  0  0  0
  138.4415   79.5223  221.8492 H   0  0  0  0  0  0  0  0  0  0  0  0
  138.9968   77.8179  222.0894 H   0  0  0  0  0  0  0  0  0  0  0  0
  141.1372   80.2919  220.4171 H   0  0  0  0  0  0  0  0  0  0  0  0
  143.2579   81.1128  221.3379 H   0  0  0  0  0  0  0  0  0  0  0  0
  143.9108   80.5827  223.6858 H   0  0  0  0  0  0  0  0  0  0  0  0
  142.3705   79.2102  225.0823 H   0  0  0  0  0  0  0  0  0  0  0  0
  140.2277   78.3918  224.1399 H   0  0  0  0  0  0  0  0  0  0  0  0
  139.2033   69.7390  222.6521 H   0  0  0  0  0  0  0  0  0  0  0  0
  138.9614   68.5050  224.8002 H   0  0  0  0  0  0  0  0  0  0  0  0
  139.3286   68.3594  227.2340 H   0  0  0  0  0  0  0  0  0  0  0  0
  140.2322   69.3794  229.3030 H   0  0  0  0  0  0  0  0  0  0  0  0
  141.3618   71.6078  229.2225 H   0  0  0  0  0  0  0  0  0  0  0  0
  141.5632   72.7771  227.0293 H   0  0  0  0  0  0  0  0  0  0  0  0
  1  2  2  0
  2  3  1  0
  3  4  1  0
  4  5  1  0
  5  6  2  0
  5  7  1  0
  7  8  1  0
  8  9  1  0
  9 10  1  0
 10 11  1  0
 11 12  1  0
 12 13  1  0
 13 14  1  0
 14 15  1  0
 15 16  2  0
 16 17  1  0
 17 18  2  0
 18 19  1  0
 19 20  2  0
  2 21  1  0
 21 22  2  0
 22 23  1  0
 23 24  2  0
 24 25  1  0
 25 26  2  0
 26 27  1  0
 27 28  2  0
 28 29  1  0
 29 30  2  0
 12  7  1  0
 20 15  1  0
 30 21  1  0
 29 24  1  0
  3 31  1  0
  4 32  1  0
  4 33  1  0
  8 34  1  0
  8 35  1  0
  9 36  1  0
  9 37  1  0
 10 38  1  0
 10 39  1  0
 11 40  1  0
 11 41  1  0
 12 42  1  6
 13 43  1  0
 13 44  1  0
 14 45  1  0
 14 46  1  0
 16 47  1  0
 17 48  1  0
 18 49  1  0
 19 50  1  0
 20 51  1  0
 22 52  1  0
 23 53  1  0
 25 54  1  0
 26 55  1  0
 27 56  1  0
 28 57  1  0
M  END
>  <smiles>  (37) 
O=C(NCC(=O)N1CCCCC1CCc1ccccc1)c1ccc2ccccc2n1

>  <score_type>  (37) 
oracle

>  <origin>  (37) 
autodockgpu

>  <m_score__min__energy>  (37) 
-9.2300000000000004

>  <m_primary>  (37) 
energy

>  <rmsd>  (37) 
2.2688501690308724

>  <m_score__min__rmsd>  (37) 
2.2688501690308724

>  <meeko>  (37) 
{"free_energy": -8.67, "intermolecular_energy": -10.76, "internal_energy": -2.21, "cluster_size": 40, "cluster_id": 1, "rank_in_cluster": 29}

>  <energy>  (37) 
-8.48

>  <cluster_rmsd>  (37) 
1.31

>  <cluster>  (37) 
1

$$$$

     RDKit          3D

 57 60  0  0  0  0  0  0  0  0999 V2000
  141.5140   71.6590  221.4650 O   0  0  0  0  0  0  0  0  0  0  0  0
  140.9000   72.6700  221.9190 C   0  0  0  0  0  0  0  0  0  0  0  0
  139.9580   72.5680  222.9810 N   0  0  0  0  0  0  0  0  0  0  0  0
  139.6520   71.3070  223.5980 C   0  0  0  0  0  0  0  0  0  0  0  0
  138.2050   70.9580  223.4720 C   0  0  0  0  0  0  0  0  0  0  0  0
  137.3410   71.8840  223.4050 O   0  0  0  0  0  0  0  0  0  0  0  0
  137.8470   69.5780  223.4300 N   0  0  0  0  0  0  0  0  0  0  0  0
  136.5680   69.1450  222.8920 C   0  0  0  0  0  0  0  0  0  0  0  0
  136.5960   67.7460  222.3320 C   0  0  0  0  0  0  0  0  0  0  0  0
  138.0070   67.4900  221.8440 C   0  0  0  0  0  0  0  0  0  0  0  0
  138.8290   67.3500  223.1150 C   0  0  0  0  0  0  0  0  0  0  0  0
  138.7840   68.6260  223.9320 C   0  0  2  0  0  0  0  0  0  0  0  0
  138.6460   68.2970  225.3790 C   0  0  0  0  0  0  0  0  0  0  0  0
  139.8940   68.2340  226.1820 C   0  0  0  0  0  0  0  0  0  0  0  0
  140.2950   69.6030  226.6730 C   0  0  0  0  0  0  0  0  0  0  0  0
  141.1940   70.3750  225.9720 C   0  0  0  0  0  0  0  0  0  0  0  0
  141.5680   71.6230  226.4070 C   0  0  0  0  0  0  0  0  0  0  0  0
  141.0450   72.1500  227.5790 C   0  0  0  0  0  0  0  0  0  0  0  0
  140.1420   71.3900  228.2950 C   0  0  0  0  0  0  0  0  0  0  0  0
  139.7710   70.1270  227.8430 C   0  0  0  0  0  0  0  0  0  0  0  0
  141.1470   74.0090  221.3480 C   0  0  0  0  0  0  0  0  0  0  0  0
  141.8380   74.1510  220.1640 C   0  0  0  0  0  0  0  0  0  0  0  0
  142.0460   75.4350  219.6690 C   0  0  0  0  0  0  0  0  0  0  0  0
  141.5830   76.5570  220.3230 C   0  0  0  0  0  0  0  0  0  0  0  0
  141.7750   77.8400  219.8530 C   0  0  0  0  0  0  0  0  0  0  0  0
  141.2830   78.9230  220.5620 C   0  0  0  0  0  0  0  0  0  0  0  0
  140.5910   78.7350  221.7540 C   0  0  0  0  0  0  0  0  0  0  0  0
  140.4070   77.4420  222.2110 C   0  0  0  0  0  0  0  0  0  0  0  0
  140.9010   76.3700  221.4970 C   0  0  0  0  0  0  0  0  0  0  0  0
  140.7060   75.1300  221.9670 N   0  0  0  0  0  0  0  0  0  0  0  0
  139.4780   73.4560  223.3130 H   0  0  0  0  0  0  0  0  0  0  0  0
  140.2502   70.5207  223.1144 H   0  0  0  0  0  0  0  0  0  0  0  0
  139.8900   71.3865  224.6690 H   0  0  0  0  0  0  0  0  0  0  0  0
  135.8201   69.1830  223.6978 H   0  0  0  0  0  0  0  0  0  0  0  0
  136.3196   69.8220  222.0613 H   0  0  0  0  0  0  0  0  0  0  0  0
  136.3301   67.0207  223.1151 H   0  0  0  0  0  0  0  0  0  0  0  0
  135.8720   67.6383  221.5109 H   0  0  0  0  0  0  0  0  0  0  0  0
  138.0510   66.5661  221.2486 H   0  0  0  0  0  0  0  0  0  0  0  0
  138.3772   68.2954  221.1927 H   0  0  0  0  0  0  0  0  0  0  0  0
  138.4240   66.5228  223.7165 H   0  0  0  0  0  0  0  0  0  0  0  0
  139.8739   67.1475  222.8371 H   0  0  0  0  0  0  0  0  0  0  0  0
  139.7435   69.1533  223.8251 H   0  0  0  0  0  0  0  0  0  0  0  0
  137.9989   69.0624  225.8323 H   0  0  0  0  0  0  0  0  0  0  0  0
  138.2427   67.2738  225.4003 H   0  0  0  0  0  0  0  0  0  0  0  0
  139.7309   67.5755  227.0479 H   0  0  0  0  0  0  0  0  0  0  0  0
  140.6999   67.8423  225.5440 H   0  0  0  0  0  0  0  0  0  0  0  0
  141.6241   69.9820  225.0390 H   0  0  0  0  0  0  0  0  0  0  0  0
  142.2894   72.2105  225.8202 H   0  0  0  0  0  0  0  0  0  0  0  0
  141.3427   73.1493  227.9292 H   0  0  0  0  0  0  0  0  0  0  0  0
  139.7133   71.7848  229.2279 H   0  0  0  0  0  0  0  0  0  0  0  0
  139.0493   69.5349  228.4249 H   0  0  0  0  0  0  0  0  0  0  0  0
  142.2160   73.2708  219.6233 H   0  0  0  0  0  0  0  0  0  0  0  0
  142.5977   75.5587  218.7254 H   0  0  0  0  0  0  0  0  0  0  0  0
  142.3207   78.0031  218.9119 H   0  0  0  0  0  0  0  0  0  0  0  0
  141.4410   79.9419  220.1788 H   0  0  0  0  0  0  0  0  0  0  0  0
  140.1996   79.5934  222.3196 H   0  0  0  0  0  0  0  0  0  0  0  0
  139.8627   77.2676  223.1508 H   0  0  0  0  0  0  0  0  0  0  0  0
  1  2  2  0
  2  3  1  0
  3  4  1  0
  4  5  1  0
  5  6  2  0
  5  7  1  0
  7  8  1  0
  8  9  1  0
  9 10  1  0
 10 11  1  0
 11 12  1  0
 12 13  1  0
 13 14  1  0
 14 15  1  0
 15 16  2  0
 16 17  1  0
 17 18  2  0
 18 19  1  0
 19 20  2  0
  2 21  1  0
 21 22  2  0
 22 23  1  0
 23 24  2  0
 24 25  1  0
 25 26  2  0
 26 27  1  0
 27 28  2  0
 28 29  1  0
 29 30  2  0
 12  7  1  0
 20 15  1  0
 30 21  1  0
 29 24  1  0
  3 31  1  0
  4 32  1  0
  4 33  1  0
  8 34  1  0
  8 35  1  0
  9 36  1  0
  9 37  1  0
 10 38  1  0
 10 39  1  0
 11 40  1  0
 11 41  1  0
 12 42  1  1
 13 43  1  0
 13 44  1  0
 14 45  1  0
 14 46  1  0
 16 47  1  0
 17 48  1  0
 18 49  1  0
 19 50  1  0
 20 51  1  0
 22 52  1  0
 23 53  1  0
 25 54  1  0
 26 55  1  0
 27 56  1  0
 28 57  1  0
M  END
>  <smiles>  (38) 
O=C(NCC(=O)N1CCCCC1CCc1ccccc1)c1ccc2ccccc2n1

>  <score_type>  (38) 
oracle

>  <origin>  (38) 
autodockgpu

>  <m_score__min__energy>  (38) 
-9.2300000000000004

>  <m_primary>  (38) 
energy

>  <rmsd>  (38) 
8.3681445675527

>  <m_score__min__rmsd>  (38) 
8.3681445675527

>  <meeko>  (38) 
{"free_energy": -8.27, "intermolecular_energy": -10.36, "internal_energy": -2.1, "cluster_size": 1, "cluster_id": 4, "rank_in_cluster": 1}

>  <energy>  (38) 
-8.45

>  <cluster_rmsd>  (38) 
1.2

>  <cluster>  (38) 
1

$$$$

     RDKit          3D

 57 60  0  0  0  0  0  0  0  0999 V2000
  138.5990   72.2130  221.8080 O   0  0  0  0  0  0  0  0  0  0  0  0
  139.7120   72.1220  222.4060 C   0  0  0  0  0  0  0  0  0  0  0  0
  140.8860   72.7590  221.9150 N   0  0  0  0  0  0  0  0  0  0  0  0
  140.8720   73.5420  220.7100 C   0  0  0  0  0  0  0  0  0  0  0  0
  142.1060   74.3710  220.5660 C   0  0  0  0  0  0  0  0  0  0  0  0
  143.2260   73.8950  220.9260 O   0  0  0  0  0  0  0  0  0  0  0  0
  141.9760   75.6820  220.0200 N   0  0  0  0  0  0  0  0  0  0  0  0
  143.1430   76.4810  219.6870 C   0  0  0  0  0  0  0  0  0  0  0  0
  142.8910   77.4820  218.5880 C   0  0  0  0  0  0  0  0  0  0  0  0
  141.8070   76.9050  217.7020 C   0  0  0  0  0  0  0  0  0  0  0  0
  140.5400   77.0080  218.5340 C   0  0  0  0  0  0  0  0  0  0  0  0
  140.6600   76.1930  219.8070 C   0  0  2  0  0  0  0  0  0  0  0  0
  140.0760   76.9480  220.9510 C   0  0  0  0  0  0  0  0  0  0  0  0
  140.8490   76.9620  222.2190 C   0  0  0  0  0  0  0  0  0  0  0  0
  141.4380   78.3250  222.4820 C   0  0  0  0  0  0  0  0  0  0  0  0
  141.7720   78.7220  223.7580 C   0  0  0  0  0  0  0  0  0  0  0  0
  142.3100   79.9590  224.0110 C   0  0  0  0  0  0  0  0  0  0  0  0
  142.5360   80.8590  222.9790 C   0  0  0  0  0  0  0  0  0  0  0  0
  142.2080   80.4780  221.6930 C   0  0  0  0  0  0  0  0  0  0  0  0
  141.6630   79.2210  221.4500 C   0  0  0  0  0  0  0  0  0  0  0  0
  139.8270   71.3390  223.6520 C   0  0  0  0  0  0  0  0  0  0  0  0
  139.4100   70.0260  223.6970 C   0  0  0  0  0  0  0  0  0  0  0  0
  139.5390   69.3320  224.8970 C   0  0  0  0  0  0  0  0  0  0  0  0
  140.0670   69.9150  226.0280 C   0  0  0  0  0  0  0  0  0  0  0  0
  140.2060   69.2490  227.2290 C   0  0  0  0  0  0  0  0  0  0  0  0
  140.7460   69.8960  228.3270 C   0  0  0  0  0  0  0  0  0  0  0  0
  141.1550   71.2230  228.2380 C   0  0  0  0  0  0  0  0  0  0  0  0
  141.0090   71.8760  227.0270 C   0  0  0  0  0  0  0  0  0  0  0  0
  140.4690   71.2220  225.9380 C   0  0  0  0  0  0  0  0  0  0  0  0
  140.3410   71.8830  224.7800 N   0  0  0  0  0  0  0  0  0  0  0  0
  141.7880   72.6430  222.4650 H   0  0  0  0  0  0  0  0  0  0  0  0
  140.7971   72.8640  219.8470 H   0  0  0  0  0  0  0  0  0  0  0  0
  140.0094   74.2229  220.7577 H   0  0  0  0  0  0  0  0  0  0  0  0
  143.4611   77.0257  220.5882 H   0  0  0  0  0  0  0  0  0  0  0  0
  143.9170   75.7888  219.3239 H   0  0  0  0  0  0  0  0  0  0  0  0
  142.5583   78.4385  219.0175 H   0  0  0  0  0  0  0  0  0  0  0  0
  143.8088   77.6712  218.0120 H   0  0  0  0  0  0  0  0  0  0  0  0
  141.7115   77.4886  216.7745 H   0  0  0  0  0  0  0  0  0  0  0  0
  142.0234   75.8707  217.3962 H   0  0  0  0  0  0  0  0  0  0  0  0
  140.3663   78.0620  218.7964 H   0  0  0  0  0  0  0  0  0  0  0  0
  139.6992   76.6151  217.9435 H   0  0  0  0  0  0  0  0  0  0  0  0
  140.0589   75.2776  219.7037 H   0  0  0  0  0  0  0  0  0  0  0  0
  139.9497   77.9921  220.6287 H   0  0  0  0  0  0  0  0  0  0  0  0
  139.1424   76.4191  221.1933 H   0  0  0  0  0  0  0  0  0  0  0  0
  140.1804   76.6933  223.0501 H   0  0  0  0  0  0  0  0  0  0  0  0
  141.6718   76.2368  222.1341 H   0  0  0  0  0  0  0  0  0  0  0  0
  141.6032   78.0296  224.5959 H   0  0  0  0  0  0  0  0  0  0  0  0
  142.5649   80.2403  225.0434 H   0  0  0  0  0  0  0  0  0  0  0  0
  142.9658   81.8513  223.1806 H   0  0  0  0  0  0  0  0  0  0  0  0
  142.3784   81.1716  220.8564 H   0  0  0  0  0  0  0  0  0  0  0  0
  141.4062   78.9337  220.4197 H   0  0  0  0  0  0  0  0  0  0  0  0
  138.9858   69.5386  222.8068 H   0  0  0  0  0  0  0  0  0  0  0  0
  139.2085   68.2839  224.9436 H   0  0  0  0  0  0  0  0  0  0  0  0
  139.8863   68.1999  227.3138 H   0  0  0  0  0  0  0  0  0  0  0  0
  140.8529   69.3559  229.2793 H   0  0  0  0  0  0  0  0  0  0  0  0
  141.5838   71.7402  229.1090 H   0  0  0  0  0  0  0  0  0  0  0  0
  141.3259   72.9250  226.9312 H   0  0  0  0  0  0  0  0  0  0  0  0
  1  2  2  0
  2  3  1  0
  3  4  1  0
  4  5  1  0
  5  6  2  0
  5  7  1  0
  7  8  1  0
  8  9  1  0
  9 10  1  0
 10 11  1  0
 11 12  1  0
 12 13  1  0
 13 14  1  0
 14 15  1  0
 15 16  2  0
 16 17  1  0
 17 18  2  0
 18 19  1  0
 19 20  2  0
  2 21  1  0
 21 22  2  0
 22 23  1  0
 23 24  2  0
 24 25  1  0
 25 26  2  0
 26 27  1  0
 27 28  2  0
 28 29  1  0
 29 30  2  0
 12  7  1  0
 20 15  1  0
 30 21  1  0
 29 24  1  0
  3 31  1  0
  4 32  1  0
  4 33  1  0
  8 34  1  0
  8 35  1  0
  9 36  1  0
  9 37  1  0
 10 38  1  0
 10 39  1  0
 11 40  1  0
 11 41  1  0
 12 42  1  6
 13 43  1  0
 13 44  1  0
 14 45  1  0
 14 46  1  0
 16 47  1  0
 17 48  1  0
 18 49  1  0
 19 50  1  0
 20 51  1  0
 22 52  1  0
 23 53  1  0
 25 54  1  0
 26 55  1  0
 27 56  1  0
 28 57  1  0
M  END
>  <smiles>  (39) 
O=C(NCC(=O)N1CCCCC1CCc1ccccc1)c1ccc2ccccc2n1

>  <score_type>  (39) 
oracle

>  <origin>  (39) 
autodockgpu

>  <m_score__min__energy>  (39) 
-9.2300000000000004

>  <m_primary>  (39) 
energy

>  <rmsd>  (39) 
2.4759639281148407

>  <m_score__min__rmsd>  (39) 
2.4759639281148407

>  <meeko>  (39) 
{"free_energy": -8.48, "intermolecular_energy": -10.57, "internal_energy": -2.08, "cluster_size": 40, "cluster_id": 1, "rank_in_cluster": 37}

>  <energy>  (39) 
-8.44

>  <cluster_rmsd>  (39) 
1.4

>  <cluster>  (39) 
1

$$$$

     RDKit          3D

 57 60  0  0  0  0  0  0  0  0999 V2000
  140.8080   71.3200  221.2440 O   0  0  0  0  0  0  0  0  0  0  0  0
  140.3620   71.9390  222.2550 C   0  0  0  0  0  0  0  0  0  0  0  0
  140.0350   73.3230  222.2110 N   0  0  0  0  0  0  0  0  0  0  0  0
  140.1950   74.0980  221.0110 C   0  0  0  0  0  0  0  0  0  0  0  0
  140.5210   75.5260  221.3050 C   0  0  0  0  0  0  0  0  0  0  0  0
  140.2370   76.0110  222.4420 O   0  0  0  0  0  0  0  0  0  0  0  0
  141.1480   76.2970  220.2820 N   0  0  0  0  0  0  0  0  0  0  0  0
  142.5870   76.2620  220.0850 C   0  0  0  0  0  0  0  0  0  0  0  0
  143.0060   76.5650  218.6680 C   0  0  0  0  0  0  0  0  0  0  0  0
  141.8760   76.1150  217.7650 C   0  0  0  0  0  0  0  0  0  0  0  0
  140.7700   77.1300  218.0040 C   0  0  0  0  0  0  0  0  0  0  0  0
  140.3200   77.1090  219.4500 C   0  0  2  0  0  0  0  0  0  0  0  0
  140.1000   78.5010  219.9340 C   0  0  0  0  0  0  0  0  0  0  0  0
  141.2950   79.3760  220.0460 C   0  0  0  0  0  0  0  0  0  0  0  0
  141.6620   79.6140  221.4900 C   0  0  0  0  0  0  0  0  0  0  0  0
  141.4700   78.6380  222.4420 C   0  0  0  0  0  0  0  0  0  0  0  0
  141.8010   78.8390  223.7600 C   0  0  0  0  0  0  0  0  0  0  0  0
  142.3430   80.0460  224.1770 C   0  0  0  0  0  0  0  0  0  0  0  0
  142.5430   81.0370  223.2360 C   0  0  0  0  0  0  0  0  0  0  0  0
  142.2040   80.8190  221.9040 C   0  0  0  0  0  0  0  0  0  0  0  0
  140.1640   71.2280  223.5350 C   0  0  0  0  0  0  0  0  0  0  0  0
  139.5710   69.9850  223.5620 C   0  0  0  0  0  0  0  0  0  0  0  0
  139.4060   69.3570  224.7940 C   0  0  0  0  0  0  0  0  0  0  0  0
  139.8160   69.9400  225.9740 C   0  0  0  0  0  0  0  0  0  0  0  0
  139.6650   69.3390  227.2070 C   0  0  0  0  0  0  0  0  0  0  0  0
  140.1000   69.9820  228.3540 C   0  0  0  0  0  0  0  0  0  0  0  0
  140.6940   71.2380  228.2810 C   0  0  0  0  0  0  0  0  0  0  0  0
  140.8380   71.8260  227.0370 C   0  0  0  0  0  0  0  0  0  0  0  0
  140.4010   71.1770  225.9000 C   0  0  0  0  0  0  0  0  0  0  0  0
  140.5550   71.7740  224.7100 N   0  0  0  0  0  0  0  0  0  0  0  0
  139.6660   73.7810  223.0960 H   0  0  0  0  0  0  0  0  0  0  0  0
  141.0103   73.6635  220.4139 H   0  0  0  0  0  0  0  0  0  0  0  0
  139.2422   74.0736  220.4618 H   0  0  0  0  0  0  0  0  0  0  0  0
  143.0482   77.0058  220.7514 H   0  0  0  0  0  0  0  0  0  0  0  0
  142.9204   75.2382  220.3100 H   0  0  0  0  0  0  0  0  0  0  0  0
  143.1781   77.6448  218.5479 H   0  0  0  0  0  0  0  0  0  0  0  0
  143.9410   76.0435  218.4156 H   0  0  0  0  0  0  0  0  0  0  0  0
  142.1924   76.1257  216.7116 H   0  0  0  0  0  0  0  0  0  0  0  0
  141.5529   75.0859  217.9808 H   0  0  0  0  0  0  0  0  0  0  0  0
  141.1440   78.1348  217.7578 H   0  0  0  0  0  0  0  0  0  0  0  0
  139.9123   76.8720  217.3654 H   0  0  0  0  0  0  0  0  0  0  0  0
  139.3455   76.6026  219.5128 H   0  0  0  0  0  0  0  0  0  0  0  0
  139.3982   78.9861  219.2396 H   0  0  0  0  0  0  0  0  0  0  0  0
  139.7323   78.3888  220.9646 H   0  0  0  0  0  0  0  0  0  0  0  0
  142.1418   78.8945  219.5350 H   0  0  0  0  0  0  0  0  0  0  0  0
  141.0625   80.3453  219.5808 H   0  0  0  0  0  0  0  0  0  0  0  0
  141.0402   77.6718  222.1392 H   0  0  0  0  0  0  0  0  0  0  0  0
  141.6346   78.0349  224.4920 H   0  0  0  0  0  0  0  0  0  0  0  0
  142.6072   80.2099  225.2321 H   0  0  0  0  0  0  0  0  0  0  0  0
  142.9722   82.0029  223.5408 H   0  0  0  0  0  0  0  0  0  0  0  0
  142.3696   81.6184  221.1668 H   0  0  0  0  0  0  0  0  0  0  0  0
  139.2360   69.5003  222.6331 H   0  0  0  0  0  0  0  0  0  0  0  0
  138.9335   68.3642  224.8266 H   0  0  0  0  0  0  0  0  0  0  0  0
  139.1976   68.3459  227.2791 H   0  0  0  0  0  0  0  0  0  0  0  0
  139.9746   69.4949  229.3323 H   0  0  0  0  0  0  0  0  0  0  0  0
  141.0407   71.7510  229.1902 H   0  0  0  0  0  0  0  0  0  0  0  0
  141.3045   72.8187  226.9534 H   0  0  0  0  0  0  0  0  0  0  0  0
  1  2  2  0
  2  3  1  0
  3  4  1  0
  4  5  1  0
  5  6  2  0
  5  7  1  0
  7  8  1  0
  8  9  1  0
  9 10  1  0
 10 11  1  0
 11 12  1  0
 12 13  1  0
 13 14  1  0
 14 15  1  0
 15 16  2  0
 16 17  1  0
 17 18  2  0
 18 19  1  0
 19 20  2  0
  2 21  1  0
 21 22  2  0
 22 23  1  0
 23 24  2  0
 24 25  1  0
 25 26  2  0
 26 27  1  0
 27 28  2  0
 28 29  1  0
 29 30  2  0
 12  7  1  0
 20 15  1  0
 30 21  1  0
 29 24  1  0
  3 31  1  0
  4 32  1  0
  4 33  1  0
  8 34  1  0
  8 35  1  0
  9 36  1  0
  9 37  1  0
 10 38  1  0
 10 39  1  0
 11 40  1  0
 11 41  1  0
 12 42  1  6
 13 43  1  0
 13 44  1  0
 14 45  1  0
 14 46  1  0
 16 47  1  0
 17 48  1  0
 18 49  1  0
 19 50  1  0
 20 51  1  0
 22 52  1  0
 23 53  1  0
 25 54  1  0
 26 55  1  0
 27 56  1  0
 28 57  1  0
M  END
>  <smiles>  (40) 
O=C(NCC(=O)N1CCCCC1CCc1ccccc1)c1ccc2ccccc2n1

>  <score_type>  (40) 
oracle

>  <origin>  (40) 
autodockgpu

>  <m_score__min__energy>  (40) 
-9.2300000000000004

>  <m_primary>  (40) 
energy

>  <rmsd>  (40) 
2.1757519012651847

>  <m_score__min__rmsd>  (40) 
2.1757519012651847

>  <meeko>  (40) 
{"free_energy": -8.92, "intermolecular_energy": -11.01, "internal_energy": -2.09, "cluster_size": 40, "cluster_id": 1, "rank_in_cluster": 16}

>  <energy>  (40) 
-8.43

>  <cluster_rmsd>  (40) 
1.44

>  <cluster>  (40) 
1

$$$$

     RDKit          3D

 57 60  0  0  0  0  0  0  0  0999 V2000
  139.5410   71.0540  221.1010 O   0  0  0  0  0  0  0  0  0  0  0  0
  140.0350   71.6760  222.0870 C   0  0  0  0  0  0  0  0  0  0  0  0
  140.6670   72.9430  221.9430 N   0  0  0  0  0  0  0  0  0  0  0  0
  140.7820   73.5860  220.6630 C   0  0  0  0  0  0  0  0  0  0  0  0
  142.0270   74.4040  220.5560 C   0  0  0  0  0  0  0  0  0  0  0  0
  143.1340   73.9120  220.9350 O   0  0  0  0  0  0  0  0  0  0  0  0
  141.9230   75.7230  220.0240 N   0  0  0  0  0  0  0  0  0  0  0  0
  143.1050   76.5090  219.7150 C   0  0  0  0  0  0  0  0  0  0  0  0
  142.8820   77.5260  218.6240 C   0  0  0  0  0  0  0  0  0  0  0  0
  141.8010   76.9740  217.7180 C   0  0  0  0  0  0  0  0  0  0  0  0
  140.5250   77.0860  218.5350 C   0  0  0  0  0  0  0  0  0  0  0  0
  140.6170   76.2550  219.7990 C   0  0  2  0  0  0  0  0  0  0  0  0
  140.0290   77.0050  220.9440 C   0  0  0  0  0  0  0  0  0  0  0  0
  140.7940   77.0090  222.2170 C   0  0  0  0  0  0  0  0  0  0  0  0
  141.4210   78.3580  222.4710 C   0  0  0  0  0  0  0  0  0  0  0  0
  141.8110   78.7340  223.7370 C   0  0  0  0  0  0  0  0  0  0  0  0
  142.3830   79.9580  223.9810 C   0  0  0  0  0  0  0  0  0  0  0  0
  142.5880   80.8640  222.9500 C   0  0  0  0  0  0  0  0  0  0  0  0
  142.2040   80.5030  221.6740 C   0  0  0  0  0  0  0  0  0  0  0  0
  141.6250   79.2590  221.4390 C   0  0  0  0  0  0  0  0  0  0  0  0
  139.9660   71.0950  223.4440 C   0  0  0  0  0  0  0  0  0  0  0  0
  139.3270   69.8940  223.6610 C   0  0  0  0  0  0  0  0  0  0  0  0
  139.2900   69.3900  224.9580 C   0  0  0  0  0  0  0  0  0  0  0  0
  139.8700   70.0520  226.0190 C   0  0  0  0  0  0  0  0  0  0  0  0
  139.8470   69.5740  227.3130 C   0  0  0  0  0  0  0  0  0  0  0  0
  140.4500   70.2910  228.3320 C   0  0  0  0  0  0  0  0  0  0  0  0
  141.0850   71.5000  228.0690 C   0  0  0  0  0  0  0  0  0  0  0  0
  141.0990   71.9660  226.7660 C   0  0  0  0  0  0  0  0  0  0  0  0
  140.4950   71.2430  225.7570 C   0  0  0  0  0  0  0  0  0  0  0  0
  140.5250   71.7220  224.5050 N   0  0  0  0  0  0  0  0  0  0  0  0
  141.0600   73.4110  222.8120 H   0  0  0  0  0  0  0  0  0  0  0  0
  140.7954   72.8150  219.8785 H   0  0  0  0  0  0  0  0  0  0  0  0
  139.9215   74.2609  220.5440 H   0  0  0  0  0  0  0  0  0  0  0  0
  143.4189   77.0390  220.6264 H   0  0  0  0  0  0  0  0  0  0  0  0
  143.8735   75.8098  219.3538 H   0  0  0  0  0  0  0  0  0  0  0  0
  142.5576   78.4825  219.0598 H   0  0  0  0  0  0  0  0  0  0  0  0
  143.8098   77.7085  218.0619 H   0  0  0  0  0  0  0  0  0  0  0  0
  141.7255   77.5689  216.7958 H   0  0  0  0  0  0  0  0  0  0  0  0
  142.0067   75.9401  217.4037 H   0  0  0  0  0  0  0  0  0  0  0  0
  140.3633   78.1393  218.8076 H   0  0  0  0  0  0  0  0  0  0  0  0
  139.6862   76.7125  217.9293 H   0  0  0  0  0  0  0  0  0  0  0  0
  140.0049   75.3494  219.6762 H   0  0  0  0  0  0  0  0  0  0  0  0
  139.9082   78.0514  220.6272 H   0  0  0  0  0  0  0  0  0  0  0  0
  139.0924   76.4775  221.1776 H   0  0  0  0  0  0  0  0  0  0  0  0
  140.1126   76.7679  223.0462 H   0  0  0  0  0  0  0  0  0  0  0  0
  141.5959   76.2596  222.1445 H   0  0  0  0  0  0  0  0  0  0  0  0
  141.6605   78.0361  224.5738 H   0  0  0  0  0  0  0  0  0  0  0  0
  142.6823   80.2236  225.0056 H   0  0  0  0  0  0  0  0  0  0  0  0
  143.0451   81.8454  223.1446 H   0  0  0  0  0  0  0  0  0  0  0  0
  142.3564   81.2021  220.8385 H   0  0  0  0  0  0  0  0  0  0  0  0
  141.3244   78.9870  220.4164 H   0  0  0  0  0  0  0  0  0  0  0  0
  138.8577   69.3469  222.8300 H   0  0  0  0  0  0  0  0  0  0  0  0
  138.7814   68.4322  225.1423 H   0  0  0  0  0  0  0  0  0  0  0  0
  139.3476   68.6195  227.5358 H   0  0  0  0  0  0  0  0  0  0  0  0
  140.4267   69.9006  229.3601 H   0  0  0  0  0  0  0  0  0  0  0  0
  141.5645   72.0720  228.8770 H   0  0  0  0  0  0  0  0  0  0  0  0
  141.5951   72.9196  226.5326 H   0  0  0  0  0  0  0  0  0  0  0  0
  1  2  2  0
  2  3  1  0
  3  4  1  0
  4  5  1  0
  5  6  2  0
  5  7  1  0
  7  8  1  0
  8  9  1  0
  9 10  1  0
 10 11  1  0
 11 12  1  0
 12 13  1  0
 13 14  1  0
 14 15  1  0
 15 16  2  0
 16 17  1  0
 17 18  2  0
 18 19  1  0
 19 20  2  0
  2 21  1  0
 21 22  2  0
 22 23  1  0
 23 24  2  0
 24 25  1  0
 25 26  2  0
 26 27  1  0
 27 28  2  0
 28 29  1  0
 29 30  2  0
 12  7  1  0
 20 15  1  0
 30 21  1  0
 29 24  1  0
  3 31  1  0
  4 32  1  0
  4 33  1  0
  8 34  1  0
  8 35  1  0
  9 36  1  0
  9 37  1  0
 10 38  1  0
 10 39  1  0
 11 40  1  0
 11 41  1  0
 12 42  1  6
 13 43  1  0
 13 44  1  0
 14 45  1  0
 14 46  1  0
 16 47  1  0
 17 48  1  0
 18 49  1  0
 19 50  1  0
 20 51  1  0
 22 52  1  0
 23 53  1  0
 25 54  1  0
 26 55  1  0
 27 56  1  0
 28 57  1  0
M  END
>  <smiles>  (41) 
O=C(NCC(=O)N1CCCCC1CCc1ccccc1)c1ccc2ccccc2n1

>  <score_type>  (41) 
oracle

>  <origin>  (41) 
autodockgpu

>  <m_score__min__energy>  (41) 
-9.2300000000000004

>  <m_primary>  (41) 
energy

>  <rmsd>  (41) 
2.4390617676165762

>  <m_score__min__rmsd>  (41) 
2.4390617676165762

>  <meeko>  (41) 
{"free_energy": -8.45, "intermolecular_energy": -10.54, "internal_energy": -2.08, "cluster_size": 40, "cluster_id": 1, "rank_in_cluster": 38}

>  <energy>  (41) 
-8.82

>  <cluster_rmsd>  (41) 
0.0

>  <cluster>  (41) 
2

$$$$

     RDKit          3D

 57 60  0  0  0  0  0  0  0  0999 V2000
  139.2480   76.3120  220.2140 O   0  0  0  0  0  0  0  0  0  0  0  0
  139.2580   76.4130  221.4770 C   0  0  0  0  0  0  0  0  0  0  0  0
  138.8490   75.3450  222.3230 N   0  0  0  0  0  0  0  0  0  0  0  0
  138.4020   74.0880  221.7880 C   0  0  0  0  0  0  0  0  0  0  0  0
  139.1810   72.9370  222.3360 C   0  0  0  0  0  0  0  0  0  0  0  0
  140.4440   73.0180  222.4190 O   0  0  0  0  0  0  0  0  0  0  0  0
  138.4630   71.7760  222.7510 N   0  0  0  0  0  0  0  0  0  0  0  0
  137.1830   71.8820  223.4300 C   0  0  0  0  0  0  0  0  0  0  0  0
  136.2930   70.6830  223.2240 C   0  0  0  0  0  0  0  0  0  0  0  0
  136.6460   70.0950  221.8730 C   0  0  0  0  0  0  0  0  0  0  0  0
  138.0110   69.4580  222.0800 C   0  0  0  0  0  0  0  0  0  0  0  0
  139.0380   70.4980  222.4790 C   0  0  2  0  0  0  0  0  0  0  0  0
  139.9210   69.9550  223.5500 C   0  0  0  0  0  0  0  0  0  0  0  0
  139.2810   69.6100  224.8460 C   0  0  0  0  0  0  0  0  0  0  0  0
  139.9140   70.3710  225.9840 C   0  0  0  0  0  0  0  0  0  0  0  0
  140.7070   71.4720  225.7500 C   0  0  0  0  0  0  0  0  0  0  0  0
  141.2890   72.1740  226.7770 C   0  0  0  0  0  0  0  0  0  0  0  0
  141.0940   71.7920  228.0960 C   0  0  0  0  0  0  0  0  0  0  0  0
  140.3020   70.6900  228.3500 C   0  0  0  0  0  0  0  0  0  0  0  0
  139.7180   69.9870  227.3010 C   0  0  0  0  0  0  0  0  0  0  0  0
  139.7010   77.6670  222.1200 C   0  0  0  0  0  0  0  0  0  0  0  0
  138.7850   78.5310  222.6780 C   0  0  0  0  0  0  0  0  0  0  0  0
  139.2540   79.7000  223.2720 C   0  0  0  0  0  0  0  0  0  0  0  0
  140.5960   80.0110  223.3160 C   0  0  0  0  0  0  0  0  0  0  0  0
  141.0860   81.1620  223.8990 C   0  0  0  0  0  0  0  0  0  0  0  0
  142.4480   81.4130  223.9090 C   0  0  0  0  0  0  0  0  0  0  0  0
  143.3390   80.5130  223.3330 C   0  0  0  0  0  0  0  0  0  0  0  0
  142.8310   79.3640  222.7540 C   0  0  0  0  0  0  0  0  0  0  0  0
  141.4720   79.1230  222.7490 C   0  0  0  0  0  0  0  0  0  0  0  0
  141.0110   78.0010  222.1790 N   0  0  0  0  0  0  0  0  0  0  0  0
  138.8810   75.4960  223.3740 H   0  0  0  0  0  0  0  0  0  0  0  0
  137.3405   73.9514  222.0421 H   0  0  0  0  0  0  0  0  0  0  0  0
  138.5509   74.1106  220.6984 H   0  0  0  0  0  0  0  0  0  0  0  0
  137.3690   71.9967  224.5081 H   0  0  0  0  0  0  0  0  0  0  0  0
  136.6605   72.7505  223.0026 H   0  0  0  0  0  0  0  0  0  0  0  0
  136.4697   69.9410  224.0166 H   0  0  0  0  0  0  0  0  0  0  0  0
  135.2321   70.9711  223.2612 H   0  0  0  0  0  0  0  0  0  0  0  0
  135.9056   69.3390  221.5726 H   0  0  0  0  0  0  0  0  0  0  0  0
  136.6548   70.8533  221.0762 H   0  0  0  0  0  0  0  0  0  0  0  0
  137.9382   68.7005  222.8743 H   0  0  0  0  0  0  0  0  0  0  0  0
  138.3294   68.9942  221.1348 H   0  0  0  0  0  0  0  0  0  0  0  0
  139.6895   70.7055  221.6173 H   0  0  0  0  0  0  0  0  0  0  0  0
  140.3917   69.0408  223.1593 H   0  0  0  0  0  0  0  0  0  0  0  0
  140.6176   70.7730  223.7859 H   0  0  0  0  0  0  0  0  0  0  0  0
  138.2113   69.8616  224.7966 H   0  0  0  0  0  0  0  0  0  0  0  0
  139.4171   68.5336  225.0272 H   0  0  0  0  0  0  0  0  0  0  0  0
  140.8789   71.7978  224.7135 H   0  0  0  0  0  0  0  0  0  0  0  0
  141.9166   73.0487  226.5510 H   0  0  0  0  0  0  0  0  0  0  0  0
  141.5591   72.3534  228.9197 H   0  0  0  0  0  0  0  0  0  0  0  0
  140.1318   70.3661  229.3874 H   0  0  0  0  0  0  0  0  0  0  0  0
  139.0898   69.1112  227.5208 H   0  0  0  0  0  0  0  0  0  0  0  0
  137.7091   78.3032  222.6550 H   0  0  0  0  0  0  0  0  0  0  0  0
  138.5307   80.3971  223.7202 H   0  0  0  0  0  0  0  0  0  0  0  0
  140.3925   81.8824  224.3573 H   0  0  0  0  0  0  0  0  0  0  0  0
  142.8290   82.3328  224.3768 H   0  0  0  0  0  0  0  0  0  0  0  0
  144.4212   80.7103  223.3379 H   0  0  0  0  0  0  0  0  0  0  0  0
  143.5157   78.6364  222.2938 H   0  0  0  0  0  0  0  0  0  0  0  0
  1  2  2  0
  2  3  1  0
  3  4  1  0
  4  5  1  0
  5  6  2  0
  5  7  1  0
  7  8  1  0
  8  9  1  0
  9 10  1  0
 10 11  1  0
 11 12  1  0
 12 13  1  0
 13 14  1  0
 14 15  1  0
 15 16  2  0
 16 17  1  0
 17 18  2  0
 18 19  1  0
 19 20  2  0
  2 21  1  0
 21 22  2  0
 22 23  1  0
 23 24  2  0
 24 25  1  0
 25 26  2  0
 26 27  1  0
 27 28  2  0
 28 29  1  0
 29 30  2  0
 12  7  1  0
 20 15  1  0
 30 21  1  0
 29 24  1  0
  3 31  1  0
  4 32  1  0
  4 33  1  0
  8 34  1  0
  8 35  1  0
  9 36  1  0
  9 37  1  0
 10 38  1  0
 10 39  1  0
 11 40  1  0
 11 41  1  0
 12 42  1  6
 13 43  1  0
 13 44  1  0
 14 45  1  0
 14 46  1  0
 16 47  1  0
 17 48  1  0
 18 49  1  0
 19 50  1  0
 20 51  1  0
 22 52  1  0
 23 53  1  0
 25 54  1  0
 26 55  1  0
 27 56  1  0
 28 57  1  0
M  END
>  <smiles>  (42) 
O=C(NCC(=O)N1CCCCC1CCc1ccccc1)c1ccc2ccccc2n1

>  <score_type>  (42) 
oracle

>  <origin>  (42) 
autodockgpu

>  <m_score__min__energy>  (42) 
-9.2300000000000004

>  <m_primary>  (42) 
energy

>  <rmsd>  (42) 
8.419135723911085

>  <m_score__min__rmsd>  (42) 
8.419135723911085

>  <meeko>  (42) 
{"free_energy": -8.82, "intermolecular_energy": -10.91, "internal_energy": -1.53, "cluster_size": 8, "cluster_id": 2, "rank_in_cluster": 1}

>  <energy>  (42) 
-8.56

>  <cluster_rmsd>  (42) 
1.02

>  <cluster>  (42) 
2

$$$$

     RDKit          3D

 57 60  0  0  0  0  0  0  0  0999 V2000
  136.8460   76.5130  222.2360 O   0  0  0  0  0  0  0  0  0  0  0  0
  138.1070   76.5420  222.3520 C   0  0  0  0  0  0  0  0  0  0  0  0
  138.9110   75.3860  222.1510 N   0  0  0  0  0  0  0  0  0  0  0  0
  138.3320   74.1170  221.8030 C   0  0  0  0  0  0  0  0  0  0  0  0
  139.1270   72.9720  222.3410 C   0  0  0  0  0  0  0  0  0  0  0  0
  140.3900   73.0690  222.4200 O   0  0  0  0  0  0  0  0  0  0  0  0
  138.4270   71.8000  222.7510 N   0  0  0  0  0  0  0  0  0  0  0  0
  137.1540   71.8850  223.4470 C   0  0  0  0  0  0  0  0  0  0  0  0
  136.2730   70.6800  223.2380 C   0  0  0  0  0  0  0  0  0  0  0  0
  136.6140   70.1120  221.8760 C   0  0  0  0  0  0  0  0  0  0  0  0
  137.9870   69.4860  222.0570 C   0  0  0  0  0  0  0  0  0  0  0  0
  139.0100   70.5310  222.4560 C   0  0  2  0  0  0  0  0  0  0  0  0
  139.9110   69.9830  223.5090 C   0  0  0  0  0  0  0  0  0  0  0  0
  139.2870   69.5900  224.7980 C   0  0  0  0  0  0  0  0  0  0  0  0
  139.9020   70.3430  225.9520 C   0  0  0  0  0  0  0  0  0  0  0  0
  140.7280   71.4240  225.7370 C   0  0  0  0  0  0  0  0  0  0  0  0
  141.2940   72.1190  226.7770 C   0  0  0  0  0  0  0  0  0  0  0  0
  141.0500   71.7490  228.0920 C   0  0  0  0  0  0  0  0  0  0  0  0
  140.2250   70.6660  228.3270 C   0  0  0  0  0  0  0  0  0  0  0  0
  139.6570   69.9710  227.2630 C   0  0  0  0  0  0  0  0  0  0  0  0
  138.7930   77.8010  222.7080 C   0  0  0  0  0  0  0  0  0  0  0  0
  138.0700   78.9160  223.0690 C   0  0  0  0  0  0  0  0  0  0  0  0
  138.7650   80.0780  223.3950 C   0  0  0  0  0  0  0  0  0  0  0  0
  140.1410   80.1410  223.3650 C   0  0  0  0  0  0  0  0  0  0  0  0
  140.8530   81.2800  223.6830 C   0  0  0  0  0  0  0  0  0  0  0  0
  142.2370   81.2740  223.6330 C   0  0  0  0  0  0  0  0  0  0  0  0
  142.9280   80.1250  223.2620 C   0  0  0  0  0  0  0  0  0  0  0  0
  142.1990   78.9920  222.9470 C   0  0  0  0  0  0  0  0  0  0  0  0
  140.8200   79.0090  223.0000 C   0  0  0  0  0  0  0  0  0  0  0  0
  140.1430   77.8950  222.6880 N   0  0  0  0  0  0  0  0  0  0  0  0
  139.9630   75.4790  222.2640 H   0  0  0  0  0  0  0  0  0  0  0  0
  137.3133   74.0666  222.2150 H   0  0  0  0  0  0  0  0  0  0  0  0
  138.3222   74.0377  220.7059 H   0  0  0  0  0  0  0  0  0  0  0  0
  137.3523   71.9888  224.5240 H   0  0  0  0  0  0  0  0  0  0  0  0
  136.6178   72.7531  223.0360 H   0  0  0  0  0  0  0  0  0  0  0  0
  136.4671   69.9303  224.0192 H   0  0  0  0  0  0  0  0  0  0  0  0
  135.2099   70.9572  223.2924 H   0  0  0  0  0  0  0  0  0  0  0  0
  135.8770   69.3525  221.5760 H   0  0  0  0  0  0  0  0  0  0  0  0
  136.6053   70.8801  221.0886 H   0  0  0  0  0  0  0  0  0  0  0  0
  137.9318   68.7178  222.8424 H   0  0  0  0  0  0  0  0  0  0  0  0
  138.2973   69.0374  221.1017 H   0  0  0  0  0  0  0  0  0  0  0  0
  139.6486   70.7551  221.5889 H   0  0  0  0  0  0  0  0  0  0  0  0
  140.4018   69.0907  223.0932 H   0  0  0  0  0  0  0  0  0  0  0  0
  140.5882   70.8119  223.7626 H   0  0  0  0  0  0  0  0  0  0  0  0
  138.2102   69.8112  224.7579 H   0  0  0  0  0  0  0  0  0  0  0  0
  139.4555   68.5142  224.9537 H   0  0  0  0  0  0  0  0  0  0  0  0
  140.9398   71.7389  224.7045 H   0  0  0  0  0  0  0  0  0  0  0  0
  141.9477   72.9781  226.5656 H   0  0  0  0  0  0  0  0  0  0  0  0
  141.5024   72.3044  228.9268 H   0  0  0  0  0  0  0  0  0  0  0  0
  140.0159   70.3513  229.3601 H   0  0  0  0  0  0  0  0  0  0  0  0
  139.0020   69.1112  227.4673 H   0  0  0  0  0  0  0  0  0  0  0  0
  136.9707   78.8895  223.0991 H   0  0  0  0  0  0  0  0  0  0  0  0
  138.1972   80.9742  223.6857 H   0  0  0  0  0  0  0  0  0  0  0  0
  140.3192   82.1957  223.9772 H   0  0  0  0  0  0  0  0  0  0  0  0
  142.7953   82.1865  223.8891 H   0  0  0  0  0  0  0  0  0  0  0  0
  144.0272   80.1174  223.2201 H   0  0  0  0  0  0  0  0  0  0  0  0
  142.7225   78.0706  222.6521 H   0  0  0  0  0  0  0  0  0  0  0  0
  1  2  2  0
  2  3  1  0
  3  4  1  0
  4  5  1  0
  5  6  2  0
  5  7  1  0
  7  8  1  0
  8  9  1  0
  9 10  1  0
 10 11  1  0
 11 12  1  0
 12 13  1  0
 13 14  1  0
 14 15  1  0
 15 16  2  0
 16 17  1  0
 17 18  2  0
 18 19  1  0
 19 20  2  0
  2 21  1  0
 21 22  2  0
 22 23  1  0
 23 24  2  0
 24 25  1  0
 25 26  2  0
 26 27  1  0
 27 28  2  0
 28 29  1  0
 29 30  2  0
 12  7  1  0
 20 15  1  0
 30 21  1  0
 29 24  1  0
  3 31  1  0
  4 32  1  0
  4 33  1  0
  8 34  1  0
  8 35  1  0
  9 36  1  0
  9 37  1  0
 10 38  1  0
 10 39  1  0
 11 40  1  0
 11 41  1  0
 12 42  1  6
 13 43  1  0
 13 44  1  0
 14 45  1  0
 14 46  1  0
 16 47  1  0
 17 48  1  0
 18 49  1  0
 19 50  1  0
 20 51  1  0
 22 52  1  0
 23 53  1  0
 25 54  1  0
 26 55  1  0
 27 56  1  0
 28 57  1  0
M  END
>  <smiles>  (43) 
O=C(NCC(=O)N1CCCCC1CCc1ccccc1)c1ccc2ccccc2n1

>  <score_type>  (43) 
oracle

>  <origin>  (43) 
autodockgpu

>  <m_score__min__energy>  (43) 
-9.2300000000000004

>  <m_primary>  (43) 
energy

>  <rmsd>  (43) 
8.44949501822398

>  <m_score__min__rmsd>  (43) 
8.44949501822398

>  <meeko>  (43) 
{"free_energy": -8.41, "intermolecular_energy": -10.49, "internal_energy": -2.18, "cluster_size": 8, "cluster_id": 2, "rank_in_cluster": 5}

>  <energy>  (43) 
-8.48

>  <cluster_rmsd>  (43) 
1.08

>  <cluster>  (43) 
2

$$$$

     RDKit          3D

 57 60  0  0  0  0  0  0  0  0999 V2000
  141.2470   71.8670  221.4270 O   0  0  0  0  0  0  0  0  0  0  0  0
  140.3340   72.1630  222.2540 C   0  0  0  0  0  0  0  0  0  0  0  0
  139.4200   73.2270  222.0210 N   0  0  0  0  0  0  0  0  0  0  0  0
  139.4830   74.0280  220.8290 C   0  0  0  0  0  0  0  0  0  0  0  0
  140.2980   75.2640  221.0260 C   0  0  0  0  0  0  0  0  0  0  0  0
  139.8460   76.2030  221.7500 O   0  0  0  0  0  0  0  0  0  0  0  0
  141.5690   75.3400  220.3850 N   0  0  0  0  0  0  0  0  0  0  0  0
  142.6970   74.5480  220.8470 C   0  0  0  0  0  0  0  0  0  0  0  0
  143.6980   74.2400  219.7630 C   0  0  0  0  0  0  0  0  0  0  0  0
  142.9380   74.2020  218.4530 C   0  0  0  0  0  0  0  0  0  0  0  0
  142.5880   75.6540  218.1730 C   0  0  0  0  0  0  0  0  0  0  0  0
  141.7080   76.2200  219.2700 C   0  0  2  0  0  0  0  0  0  0  0  0
  142.1390   77.6070  219.6020 C   0  0  0  0  0  0  0  0  0  0  0  0
  141.1130   78.5190  220.1680 C   0  0  0  0  0  0  0  0  0  0  0  0
  141.5690   79.1030  221.4820 C   0  0  0  0  0  0  0  0  0  0  0  0
  141.4080   78.4110  222.6620 C   0  0  0  0  0  0  0  0  0  0  0  0
  141.8190   78.9290  223.8650 C   0  0  0  0  0  0  0  0  0  0  0  0
  142.4150   80.1800  223.9310 C   0  0  0  0  0  0  0  0  0  0  0  0
  142.5850   80.8890  222.7580 C   0  0  0  0  0  0  0  0  0  0  0  0
  142.1640   80.3520  221.5450 C   0  0  0  0  0  0  0  0  0  0  0  0
  140.1900   71.3970  223.5090 C   0  0  0  0  0  0  0  0  0  0  0  0
  139.5630   70.1700  223.5140 C   0  0  0  0  0  0  0  0  0  0  0  0
  139.4520   69.4890  224.7240 C   0  0  0  0  0  0  0  0  0  0  0  0
  139.9470   70.0040  225.9030 C   0  0  0  0  0  0  0  0  0  0  0  0
  139.8490   69.3490  227.1140 C   0  0  0  0  0  0  0  0  0  0  0  0
  140.3690   69.9240  228.2610 C   0  0  0  0  0  0  0  0  0  0  0  0
  140.9940   71.1660  228.2110 C   0  0  0  0  0  0  0  0  0  0  0  0
  141.0840   71.8090  226.9890 C   0  0  0  0  0  0  0  0  0  0  0  0
  140.5620   71.2270  225.8510 C   0  0  0  0  0  0  0  0  0  0  0  0
  140.6650   71.8760  224.6830 N   0  0  0  0  0  0  0  0  0  0  0  0
  138.6770   73.4230  222.7550 H   0  0  0  0  0  0  0  0  0  0  0  0
  139.9340   73.4302  220.0232 H   0  0  0  0  0  0  0  0  0  0  0  0
  138.4584   74.3348  220.5721 H   0  0  0  0  0  0  0  0  0  0  0  0
  143.2090   75.1039  221.6463 H   0  0  0  0  0  0  0  0  0  0  0  0
  142.2952   73.5867  221.1998 H   0  0  0  0  0  0  0  0  0  0  0  0
  144.4701   75.0228  219.7288 H   0  0  0  0  0  0  0  0  0  0  0  0
  144.1983   73.2791  219.9535 H   0  0  0  0  0  0  0  0  0  0  0  0
  143.5681   73.7922  217.6498 H   0  0  0  0  0  0  0  0  0  0  0  0
  142.0465   73.5598  218.5055 H   0  0  0  0  0  0  0  0  0  0  0  0
  143.5151   76.2432  218.1152 H   0  0  0  0  0  0  0  0  0  0  0  0
  142.0396   75.7058  217.2209 H   0  0  0  0  0  0  0  0  0  0  0  0
  140.6767   76.2988  218.8956 H   0  0  0  0  0  0  0  0  0  0  0  0
  142.9564   77.5332  220.3344 H   0  0  0  0  0  0  0  0  0  0  0  0
  142.4167   78.0564  218.6371 H   0  0  0  0  0  0  0  0  0  0  0  0
  140.9282   79.3372  219.4564 H   0  0  0  0  0  0  0  0  0  0  0  0
  140.1926   77.9427  220.3432 H   0  0  0  0  0  0  0  0  0  0  0  0
  140.9376   77.4169  222.6398 H   0  0  0  0  0  0  0  0  0  0  0  0
  141.6742   78.3459  224.7865 H   0  0  0  0  0  0  0  0  0  0  0  0
  142.7442   80.5971  224.8942 H   0  0  0  0  0  0  0  0  0  0  0  0
  143.0555   81.8830  222.7826 H   0  0  0  0  0  0  0  0  0  0  0  0
  142.3064   80.9299  220.6199 H   0  0  0  0  0  0  0  0  0  0  0  0
  139.1602   69.7390  222.5856 H   0  0  0  0  0  0  0  0  0  0  0  0
  138.9533   68.5087  224.7392 H   0  0  0  0  0  0  0  0  0  0  0  0
  139.3562   68.3671  227.1679 H   0  0  0  0  0  0  0  0  0  0  0  0
  140.2872   69.3937  229.2213 H   0  0  0  0  0  0  0  0  0  0  0  0
  141.4067   71.6258  229.1211 H   0  0  0  0  0  0  0  0  0  0  0  0
  141.5751   72.7911  226.9238 H   0  0  0  0  0  0  0  0  0  0  0  0
  1  2  2  0
  2  3  1  0
  3  4  1  0
  4  5  1  0
  5  6  2  0
  5  7  1  0
  7  8  1  0
  8  9  1  0
  9 10  1  0
 10 11  1  0
 11 12  1  0
 12 13  1  0
 13 14  1  0
 14 15  1  0
 15 16  2  0
 16 17  1  0
 17 18  2  0
 18 19  1  0
 19 20  2  0
  2 21  1  0
 21 22  2  0
 22 23  1  0
 23 24  2  0
 24 25  1  0
 25 26  2  0
 26 27  1  0
 27 28  2  0
 28 29  1  0
 29 30  2  0
 12  7  1  0
 20 15  1  0
 30 21  1  0
 29 24  1  0
  3 31  1  0
  4 32  1  0
  4 33  1  0
  8 34  1  0
  8 35  1  0
  9 36  1  0
  9 37  1  0
 10 38  1  0
 10 39  1  0
 11 40  1  0
 11 41  1  0
 12 42  1  6
 13 43  1  0
 13 44  1  0
 14 45  1  0
 14 46  1  0
 16 47  1  0
 17 48  1  0
 18 49  1  0
 19 50  1  0
 20 51  1  0
 22 52  1  0
 23 53  1  0
 25 54  1  0
 26 55  1  0
 27 56  1  0
 28 57  1  0
M  END
>  <smiles>  (44) 
O=C(NCC(=O)N1CCCCC1CCc1ccccc1)c1ccc2ccccc2n1

>  <score_type>  (44) 
oracle

>  <origin>  (44) 
autodockgpu

>  <m_score__min__energy>  (44) 
-9.2300000000000004

>  <m_primary>  (44) 
energy

>  <rmsd>  (44) 
2.3097917484704307

>  <m_score__min__rmsd>  (44) 
2.3097917484704307

>  <meeko>  (44) 
{"free_energy": -9.22, "intermolecular_energy": -11.3, "internal_energy": -1.71, "cluster_size": 40, "cluster_id": 1, "rank_in_cluster": 2}

>  <energy>  (44) 
-8.41

>  <cluster_rmsd>  (44) 
1.3

>  <cluster>  (44) 
2

$$$$

     RDKit          3D

 57 60  0  0  0  0  0  0  0  0999 V2000
  138.3010   71.0600  221.6860 O   0  0  0  0  0  0  0  0  0  0  0  0
  138.9540   71.6320  222.6090 C   0  0  0  0  0  0  0  0  0  0  0  0
  139.3350   73.0000  222.5290 N   0  0  0  0  0  0  0  0  0  0  0  0
  139.0000   73.8110  221.3900 C   0  0  0  0  0  0  0  0  0  0  0  0
  140.1270   73.8990  220.4130 C   0  0  0  0  0  0  0  0  0  0  0  0
  140.3120   72.9560  219.5850 O   0  0  0  0  0  0  0  0  0  0  0  0
  140.9610   75.0550  220.4500 N   0  0  0  0  0  0  0  0  0  0  0  0
  142.4060   74.9420  220.5570 C   0  0  0  0  0  0  0  0  0  0  0  0
  143.1450   76.1090  219.9550 C   0  0  0  0  0  0  0  0  0  0  0  0
  142.2800   76.6540  218.8370 C   0  0  0  0  0  0  0  0  0  0  0  0
  141.1220   77.3330  219.5500 C   0  0  0  0  0  0  0  0  0  0  0  0
  140.3360   76.3360  220.3770 C   0  0  2  0  0  0  0  0  0  0  0  0
  139.9680   76.9420  221.6880 C   0  0  0  0  0  0  0  0  0  0  0  0
  141.0530   77.1010  222.6900 C   0  0  0  0  0  0  0  0  0  0  0  0
  141.3250   78.5580  222.9690 C   0  0  0  0  0  0  0  0  0  0  0  0
  140.3310   79.3930  223.4280 C   0  0  0  0  0  0  0  0  0  0  0  0
  140.5650   80.7210  223.6870 C   0  0  0  0  0  0  0  0  0  0  0  0
  141.8240   81.2690  223.4920 C   0  0  0  0  0  0  0  0  0  0  0  0
  142.8340   80.4470  223.0320 C   0  0  0  0  0  0  0  0  0  0  0  0
  142.5840   79.1030  222.7740 C   0  0  0  0  0  0  0  0  0  0  0  0
  139.3450   70.8810  223.8200 C   0  0  0  0  0  0  0  0  0  0  0  0
  139.1900   69.5140  223.8780 C   0  0  0  0  0  0  0  0  0  0  0  0
  139.5730   68.8530  225.0420 C   0  0  0  0  0  0  0  0  0  0  0  0
  140.0980   69.5240  226.1260 C   0  0  0  0  0  0  0  0  0  0  0  0
  140.4850   68.8930  227.2910 C   0  0  0  0  0  0  0  0  0  0  0  0
  141.0050   69.6280  228.3420 C   0  0  0  0  0  0  0  0  0  0  0  0
  141.1440   71.0090  228.2420 C   0  0  0  0  0  0  0  0  0  0  0  0
  140.7510   71.6260  227.0670 C   0  0  0  0  0  0  0  0  0  0  0  0
  140.2340   70.8830  226.0250 C   0  0  0  0  0  0  0  0  0  0  0  0
  139.8620   71.5110  224.9010 N   0  0  0  0  0  0  0  0  0  0  0  0
  139.8810   73.4190  223.3390 H   0  0  0  0  0  0  0  0  0  0  0  0
  138.1268   73.3714  220.8858 H   0  0  0  0  0  0  0  0  0  0  0  0
  138.7827   74.8276  221.7496 H   0  0  0  0  0  0  0  0  0  0  0  0
  142.6722   74.8730  221.6221 H   0  0  0  0  0  0  0  0  0  0  0  0
  142.7035   74.0448  219.9944 H   0  0  0  0  0  0  0  0  0  0  0  0
  143.3101   76.8849  220.7170 H   0  0  0  0  0  0  0  0  0  0  0  0
  144.1277   75.7956  219.5729 H   0  0  0  0  0  0  0  0  0  0  0  0
  142.8412   77.3788  218.2289 H   0  0  0  0  0  0  0  0  0  0  0  0
  141.9430   75.8668  218.1465 H   0  0  0  0  0  0  0  0  0  0  0  0
  141.5171   78.1177  220.2119 H   0  0  0  0  0  0  0  0  0  0  0  0
  140.4515   77.7687  218.7946 H   0  0  0  0  0  0  0  0  0  0  0  0
  139.3891   76.1131  219.8634 H   0  0  0  0  0  0  0  0  0  0  0  0
  139.5545   77.9412  221.4864 H   0  0  0  0  0  0  0  0  0  0  0  0
  139.2640   76.2294  222.1425 H   0  0  0  0  0  0  0  0  0  0  0  0
  140.7535   76.6059  223.6255 H   0  0  0  0  0  0  0  0  0  0  0  0
  141.9697   76.6452  222.2877 H   0  0  0  0  0  0  0  0  0  0  0  0
  139.3225   78.9853  223.5916 H   0  0  0  0  0  0  0  0  0  0  0  0
  139.7454   81.3568  224.0529 H   0  0  0  0  0  0  0  0  0  0  0  0
  142.0136   82.3326  223.6987 H   0  0  0  0  0  0  0  0  0  0  0  0
  143.8415   80.8572  222.8687 H   0  0  0  0  0  0  0  0  0  0  0  0
  143.3999   78.4619  222.4089 H   0  0  0  0  0  0  0  0  0  0  0  0
  138.7736   68.9576  223.0253 H   0  0  0  0  0  0  0  0  0  0  0  0
  139.4529   67.7610  225.0986 H   0  0  0  0  0  0  0  0  0  0  0  0
  140.3797   67.8020  227.3844 H   0  0  0  0  0  0  0  0  0  0  0  0
  141.3115   69.1154  229.2657 H   0  0  0  0  0  0  0  0  0  0  0  0
  141.5560   71.5958  229.0762 H   0  0  0  0  0  0  0  0  0  0  0  0
  140.8515   72.7164  226.9629 H   0  0  0  0  0  0  0  0  0  0  0  0
  1  2  2  0
  2  3  1  0
  3  4  1  0
  4  5  1  0
  5  6  2  0
  5  7  1  0
  7  8  1  0
  8  9  1  0
  9 10  1  0
 10 11  1  0
 11 12  1  0
 12 13  1  0
 13 14  1  0
 14 15  1  0
 15 16  2  0
 16 17  1  0
 17 18  2  0
 18 19  1  0
 19 20  2  0
  2 21  1  0
 21 22  2  0
 22 23  1  0
 23 24  2  0
 24 25  1  0
 25 26  2  0
 26 27  1  0
 27 28  2  0
 28 29  1  0
 29 30  2  0
 12  7  1  0
 20 15  1  0
 30 21  1  0
 29 24  1  0
  3 31  1  0
  4 32  1  0
  4 33  1  0
  8 34  1  0
  8 35  1  0
  9 36  1  0
  9 37  1  0
 10 38  1  0
 10 39  1  0
 11 40  1  0
 11 41  1  0
 12 42  1  6
 13 43  1  0
 13 44  1  0
 14 45  1  0
 14 46  1  0
 16 47  1  0
 17 48  1  0
 18 49  1  0
 19 50  1  0
 20 51  1  0
 22 52  1  0
 23 53  1  0
 25 54  1  0
 26 55  1  0
 27 56  1  0
 28 57  1  0
M  END
>  <smiles>  (45) 
O=C(NCC(=O)N1CCCCC1CCc1ccccc1)c1ccc2ccccc2n1

>  <score_type>  (45) 
oracle

>  <origin>  (45) 
autodockgpu

>  <m_score__min__energy>  (45) 
-9.2300000000000004

>  <m_primary>  (45) 
energy

>  <rmsd>  (45) 
2.2701053088115293

>  <m_score__min__rmsd>  (45) 
2.2701053088115293

>  <meeko>  (45) 
{"free_energy": -8.65, "intermolecular_energy": -10.73, "internal_energy": -1.85, "cluster_size": 40, "cluster_id": 1, "rank_in_cluster": 30}

>  <energy>  (45) 
-8.41

>  <cluster_rmsd>  (45) 
0.79

>  <cluster>  (45) 
2

$$$$

     RDKit          3D

 57 60  0  0  0  0  0  0  0  0999 V2000
  140.7870   71.2850  221.2240 O   0  0  0  0  0  0  0  0  0  0  0  0
  140.3620   71.9110  222.2400 C   0  0  0  0  0  0  0  0  0  0  0  0
  140.0620   73.3010  222.1990 N   0  0  0  0  0  0  0  0  0  0  0  0
  140.2270   74.0740  220.9980 C   0  0  0  0  0  0  0  0  0  0  0  0
  140.6620   75.4730  221.2880 C   0  0  0  0  0  0  0  0  0  0  0  0
  140.3550   76.0080  222.3960 O   0  0  0  0  0  0  0  0  0  0  0  0
  141.4170   76.1620  220.2930 N   0  0  0  0  0  0  0  0  0  0  0  0
  142.8200   75.8590  220.0650 C   0  0  0  0  0  0  0  0  0  0  0  0
  143.2760   76.1510  218.6580 C   0  0  0  0  0  0  0  0  0  0  0  0
  142.0710   75.9780  217.7560 C   0  0  0  0  0  0  0  0  0  0  0  0
  141.1860   77.1740  218.0680 C   0  0  0  0  0  0  0  0  0  0  0  0
  140.7550   77.1640  219.5210 C   0  0  2  0  0  0  0  0  0  0  0  0
  140.8160   78.5430  220.0790 C   0  0  0  0  0  0  0  0  0  0  0  0
  140.2210   78.7580  221.4230 C   0  0  0  0  0  0  0  0  0  0  0  0
  141.1340   79.5840  222.2950 C   0  0  0  0  0  0  0  0  0  0  0  0
  140.6320   80.5660  223.1200 C   0  0  0  0  0  0  0  0  0  0  0  0
  141.4510   81.3240  223.9210 C   0  0  0  0  0  0  0  0  0  0  0  0
  142.8240   81.1230  223.9220 C   0  0  0  0  0  0  0  0  0  0  0  0
  143.3450   80.1420  223.1010 C   0  0  0  0  0  0  0  0  0  0  0  0
  142.5040   79.3810  222.2960 C   0  0  0  0  0  0  0  0  0  0  0  0
  140.1600   71.2030  223.5200 C   0  0  0  0  0  0  0  0  0  0  0  0
  139.5510   69.9680  223.5510 C   0  0  0  0  0  0  0  0  0  0  0  0
  139.3840   69.3430  224.7830 C   0  0  0  0  0  0  0  0  0  0  0  0
  139.8070   69.9200  225.9610 C   0  0  0  0  0  0  0  0  0  0  0  0
  139.6540   69.3220  227.1950 C   0  0  0  0  0  0  0  0  0  0  0  0
  140.1020   69.9580  228.3400 C   0  0  0  0  0  0  0  0  0  0  0  0
  140.7120   71.2070  228.2640 C   0  0  0  0  0  0  0  0  0  0  0  0
  140.8580   71.7930  227.0190 C   0  0  0  0  0  0  0  0  0  0  0  0
  140.4070   71.1490  225.8840 C   0  0  0  0  0  0  0  0  0  0  0  0
  140.5640   71.7440  224.6930 N   0  0  0  0  0  0  0  0  0  0  0  0
  139.7080   73.7660  223.0870 H   0  0  0  0  0  0  0  0  0  0  0  0
  140.9859   73.5900  220.3657 H   0  0  0  0  0  0  0  0  0  0  0  0
  139.2538   74.1199  220.4873 H   0  0  0  0  0  0  0  0  0  0  0  0
  143.4239   76.4618  220.7592 H   0  0  0  0  0  0  0  0  0  0  0  0
  142.9494   74.7792  220.2302 H   0  0  0  0  0  0  0  0  0  0  0  0
  143.6539   77.1818  218.5898 H   0  0  0  0  0  0  0  0  0  0  0  0
  144.0892   75.4726  218.3605 H   0  0  0  0  0  0  0  0  0  0  0  0
  142.3732   75.9835  216.6983 H   0  0  0  0  0  0  0  0  0  0  0  0
  141.5557   75.0211  217.9260 H   0  0  0  0  0  0  0  0  0  0  0  0
  141.7458   78.0989  217.8648 H   0  0  0  0  0  0  0  0  0  0  0  0
  140.2880   77.1212  217.4349 H   0  0  0  0  0  0  0  0  0  0  0  0
  139.7008   76.8554  219.5787 H   0  0  0  0  0  0  0  0  0  0  0  0
  141.8763   78.8302  220.1366 H   0  0  0  0  0  0  0  0  0  0  0  0
  140.2044   79.1522  219.3972 H   0  0  0  0  0  0  0  0  0  0  0  0
  139.2602   79.2819  221.3110 H   0  0  0  0  0  0  0  0  0  0  0  0
  140.0735   77.7782  221.9008 H   0  0  0  0  0  0  0  0  0  0  0  0
  139.5473   80.7480  223.1379 H   0  0  0  0  0  0  0  0  0  0  0  0
  141.0139   82.0984  224.5684 H   0  0  0  0  0  0  0  0  0  0  0  0
  143.4817   81.7303  224.5612 H   0  0  0  0  0  0  0  0  0  0  0  0
  144.4300   79.9618  223.0838 H   0  0  0  0  0  0  0  0  0  0  0  0
  142.9350   78.6035  221.6481 H   0  0  0  0  0  0  0  0  0  0  0  0
  139.2049   69.4873  222.6241 H   0  0  0  0  0  0  0  0  0  0  0  0
  138.8987   68.3565  224.8178 H   0  0  0  0  0  0  0  0  0  0  0  0
  139.1737   68.3352  227.2693 H   0  0  0  0  0  0  0  0  0  0  0  0
  139.9749   69.4721  229.3186 H   0  0  0  0  0  0  0  0  0  0  0  0
  141.0692   71.7157  229.1715 H   0  0  0  0  0  0  0  0  0  0  0  0
  141.3370   72.7795  226.9329 H   0  0  0  0  0  0  0  0  0  0  0  0
  1  2  2  0
  2  3  1  0
  3  4  1  0
  4  5  1  0
  5  6  2  0
  5  7  1  0
  7  8  1  0
  8  9  1  0
  9 10  1  0
 10 11  1  0
 11 12  1  0
 12 13  1  0
 13 14  1  0
 14 15  1  0
 15 16  2  0
 16 17  1  0
 17 18  2  0
 18 19  1  0
 19 20  2  0
  2 21  1  0
 21 22  2  0
 22 23  1  0
 23 24  2  0
 24 25  1  0
 25 26  2  0
 26 27  1  0
 27 28  2  0
 28 29  1  0
 29 30  2  0
 12  7  1  0
 20 15  1  0
 30 21  1  0
 29 24  1  0
  3 31  1  0
  4 32  1  0
  4 33  1  0
  8 34  1  0
  8 35  1  0
  9 36  1  0
  9 37  1  0
 10 38  1  0
 10 39  1  0
 11 40  1  0
 11 41  1  0
 12 42  1  6
 13 43  1  0
 13 44  1  0
 14 45  1  0
 14 46  1  0
 16 47  1  0
 17 48  1  0
 18 49  1  0
 19 50  1  0
 20 51  1  0
 22 52  1  0
 23 53  1  0
 25 54  1  0
 26 55  1  0
 27 56  1  0
 28 57  1  0
M  END
>  <smiles>  (46) 
O=C(NCC(=O)N1CCCCC1CCc1ccccc1)c1ccc2ccccc2n1

>  <score_type>  (46) 
oracle

>  <origin>  (46) 
autodockgpu

>  <m_score__min__energy>  (46) 
-9.2300000000000004

>  <m_primary>  (46) 
energy

>  <rmsd>  (46) 
2.183778790752329

>  <m_score__min__rmsd>  (46) 
2.183778790752329

>  <meeko>  (46) 
{"free_energy": -9.04, "intermolecular_energy": -11.13, "internal_energy": -1.88, "cluster_size": 40, "cluster_id": 1, "rank_in_cluster": 7}

>  <energy>  (46) 
-8.29

>  <cluster_rmsd>  (46) 
1.3

>  <cluster>  (46) 
2

$$$$

     RDKit          3D

 57 60  0  0  0  0  0  0  0  0999 V2000
  140.8470   71.5190  221.2770 O   0  0  0  0  0  0  0  0  0  0  0  0
  140.3660   72.1020  222.2930 C   0  0  0  0  0  0  0  0  0  0  0  0
  139.9880   73.4740  222.2680 N   0  0  0  0  0  0  0  0  0  0  0  0
  140.1330   74.2750  221.0840 C   0  0  0  0  0  0  0  0  0  0  0  0
  140.4240   75.7040  221.4060 C   0  0  0  0  0  0  0  0  0  0  0  0
  140.2660   76.1230  222.5930 O   0  0  0  0  0  0  0  0  0  0  0  0
  140.8760   76.5530  220.3530 N   0  0  0  0  0  0  0  0  0  0  0  0
  142.2930   76.7640  220.1080 C   0  0  0  0  0  0  0  0  0  0  0  0
  142.6090   77.1080  218.6750 C   0  0  0  0  0  0  0  0  0  0  0  0
  141.5480   76.4520  217.8160 C   0  0  0  0  0  0  0  0  0  0  0  0
  140.2900   77.2650  218.0780 C   0  0  0  0  0  0  0  0  0  0  0  0
  139.8940   77.1940  219.5390 C   0  0  2  0  0  0  0  0  0  0  0  0
  139.4510   78.5360  220.0110 C   0  0  0  0  0  0  0  0  0  0  0  0
  139.2390   78.7050  221.4710 C   0  0  0  0  0  0  0  0  0  0  0  0
  140.4820   79.2300  222.1440 C   0  0  0  0  0  0  0  0  0  0  0  0
  140.7540   78.9400  223.4630 C   0  0  0  0  0  0  0  0  0  0  0  0
  141.8820   79.4110  224.0880 C   0  0  0  0  0  0  0  0  0  0  0  0
  142.7940   80.2020  223.4040 C   0  0  0  0  0  0  0  0  0  0  0  0
  142.5380   80.5030  222.0800 C   0  0  0  0  0  0  0  0  0  0  0  0
  141.3910   80.0200  221.4580 C   0  0  0  0  0  0  0  0  0  0  0  0
  140.1790   71.3620  223.5570 C   0  0  0  0  0  0  0  0  0  0  0  0
  139.5720   70.1250  223.5630 C   0  0  0  0  0  0  0  0  0  0  0  0
  139.4200   69.4690  224.7820 C   0  0  0  0  0  0  0  0  0  0  0  0
  139.8550   70.0180  225.9690 C   0  0  0  0  0  0  0  0  0  0  0  0
  139.7150   69.3880  227.1890 C   0  0  0  0  0  0  0  0  0  0  0  0
  140.1750   69.9960  228.3440 C   0  0  0  0  0  0  0  0  0  0  0  0
  140.7820   71.2470  228.2930 C   0  0  0  0  0  0  0  0  0  0  0  0
  140.9140   71.8650  227.0620 C   0  0  0  0  0  0  0  0  0  0  0  0
  140.4520   71.2490  225.9170 C   0  0  0  0  0  0  0  0  0  0  0  0
  140.5950   71.8740  224.7390 N   0  0  0  0  0  0  0  0  0  0  0  0
  139.5910   73.9020  223.1560 H   0  0  0  0  0  0  0  0  0  0  0  0
  140.9601   73.8714  220.4815 H   0  0  0  0  0  0  0  0  0  0  0  0
  139.1826   74.2385  220.5313 H   0  0  0  0  0  0  0  0  0  0  0  0
  142.6384   77.5887  220.7487 H   0  0  0  0  0  0  0  0  0  0  0  0
  142.8058   75.8177  220.3350 H   0  0  0  0  0  0  0  0  0  0  0  0
  142.5868   78.1988  218.5350 H   0  0  0  0  0  0  0  0  0  0  0  0
  143.6124   76.7518  218.3986 H   0  0  0  0  0  0  0  0  0  0  0  0
  141.8258   76.4973  216.7526 H   0  0  0  0  0  0  0  0  0  0  0  0
  141.4152   75.3867  218.0559 H   0  0  0  0  0  0  0  0  0  0  0  0
  140.4764   78.3144  217.8061 H   0  0  0  0  0  0  0  0  0  0  0  0
  139.4712   76.8503  217.4717 H   0  0  0  0  0  0  0  0  0  0  0  0
  139.0240   76.5287  219.6419 H   0  0  0  0  0  0  0  0  0  0  0  0
  140.2144   79.2647  219.7007 H   0  0  0  0  0  0  0  0  0  0  0  0
  138.4578   78.6816  219.5611 H   0  0  0  0  0  0  0  0  0  0  0  0
  138.4150   79.4152  221.6343 H   0  0  0  0  0  0  0  0  0  0  0  0
  138.9958   77.7236  221.9041 H   0  0  0  0  0  0  0  0  0  0  0  0
  140.0489   78.3147  224.0303 H   0  0  0  0  0  0  0  0  0  0  0  0
  142.0648   79.1585  225.1429 H   0  0  0  0  0  0  0  0  0  0  0  0
  143.6983   80.5800  223.9034 H   0  0  0  0  0  0  0  0  0  0  0  0
  143.2449   81.1280  221.5146 H   0  0  0  0  0  0  0  0  0  0  0  0
  141.2023   80.2695  220.4034 H   0  0  0  0  0  0  0  0  0  0  0  0
  139.2164   69.6671  222.6282 H   0  0  0  0  0  0  0  0  0  0  0  0
  138.9372   68.4808  224.7980 H   0  0  0  0  0  0  0  0  0  0  0  0
  139.2361   68.3992  227.2435 H   0  0  0  0  0  0  0  0  0  0  0  0
  140.0597   69.4854  229.3115 H   0  0  0  0  0  0  0  0  0  0  0  0
  141.1482   71.7331  229.2093 H   0  0  0  0  0  0  0  0  0  0  0  0
  141.3905   72.8542  226.9957 H   0  0  0  0  0  0  0  0  0  0  0  0
  1  2  2  0
  2  3  1  0
  3  4  1  0
  4  5  1  0
  5  6  2  0
  5  7  1  0
  7  8  1  0
  8  9  1  0
  9 10  1  0
 10 11  1  0
 11 12  1  0
 12 13  1  0
 13 14  1  0
 14 15  1  0
 15 16  2  0
 16 17  1  0
 17 18  2  0
 18 19  1  0
 19 20  2  0
  2 21  1  0
 21 22  2  0
 22 23  1  0
 23 24  2  0
 24 25  1  0
 25 26  2  0
 26 27  1  0
 27 28  2  0
 28 29  1  0
 29 30  2  0
 12  7  1  0
 20 15  1  0
 30 21  1  0
 29 24  1  0
  3 31  1  0
  4 32  1  0
  4 33  1  0
  8 34  1  0
  8 35  1  0
  9 36  1  0
  9 37  1  0
 10 38  1  0
 10 39  1  0
 11 40  1  0
 11 41  1  0
 12 42  1  6
 13 43  1  0
 13 44  1  0
 14 45  1  0
 14 46  1  0
 16 47  1  0
 17 48  1  0
 18 49  1  0
 19 50  1  0
 20 51  1  0
 22 52  1  0
 23 53  1  0
 25 54  1  0
 26 55  1  0
 27 56  1  0
 28 57  1  0
M  END
>  <smiles>  (47) 
O=C(NCC(=O)N1CCCCC1CCc1ccccc1)c1ccc2ccccc2n1

>  <score_type>  (47) 
oracle

>  <origin>  (47) 
autodockgpu

>  <m_score__min__energy>  (47) 
-9.2300000000000004

>  <m_primary>  (47) 
energy

>  <rmsd>  (47) 
2.220113386399655

>  <m_score__min__rmsd>  (47) 
2.220113386399655

>  <meeko>  (47) 
{"free_energy": -8.67, "intermolecular_energy": -10.76, "internal_energy": -2.2, "cluster_size": 40, "cluster_id": 1, "rank_in_cluster": 28}

>  <energy>  (47) 
-8.2

>  <cluster_rmsd>  (47) 
1.45

>  <cluster>  (47) 
2

$$$$

     RDKit          3D

 57 60  0  0  0  0  0  0  0  0999 V2000
  141.3880   71.8690  221.7040 O   0  0  0  0  0  0  0  0  0  0  0  0
  140.4070   72.0810  222.4770 C   0  0  0  0  0  0  0  0  0  0  0  0
  139.4780   73.1330  222.2460 N   0  0  0  0  0  0  0  0  0  0  0  0
  139.6020   74.0150  221.1190 C   0  0  0  0  0  0  0  0  0  0  0  0
  140.5030   75.1710  221.4080 C   0  0  0  0  0  0  0  0  0  0  0  0
  140.2450   75.9370  222.3860 O   0  0  0  0  0  0  0  0  0  0  0  0
  141.6350   75.3700  220.5640 N   0  0  0  0  0  0  0  0  0  0  0  0
  142.9010   74.7060  220.8280 C   0  0  0  0  0  0  0  0  0  0  0  0
  143.7330   74.4880  219.5900 C   0  0  0  0  0  0  0  0  0  0  0  0
  142.7730   74.3510  218.4270 C   0  0  0  0  0  0  0  0  0  0  0  0
  142.2300   75.7550  218.2130 C   0  0  0  0  0  0  0  0  0  0  0  0
  141.4920   76.2430  219.4430 C   0  0  2  0  0  0  0  0  0  0  0  0
  141.8240   77.6720  219.7020 C   0  0  0  0  0  0  0  0  0  0  0  0
  140.8260   78.4750  220.4530 C   0  0  0  0  0  0  0  0  0  0  0  0
  141.4370   79.0840  221.6900 C   0  0  0  0  0  0  0  0  0  0  0  0
  141.2670   78.5050  222.9270 C   0  0  0  0  0  0  0  0  0  0  0  0
  141.8190   79.0480  224.0610 C   0  0  0  0  0  0  0  0  0  0  0  0
  142.5730   80.2110  223.9950 C   0  0  0  0  0  0  0  0  0  0  0  0
  142.7540   80.8060  222.7630 C   0  0  0  0  0  0  0  0  0  0  0  0
  142.1900   80.2450  221.6210 C   0  0  0  0  0  0  0  0  0  0  0  0
  140.1960   71.2260  223.6630 C   0  0  0  0  0  0  0  0  0  0  0  0
  139.5070   70.0380  223.5580 C   0  0  0  0  0  0  0  0  0  0  0  0
  139.3340   69.2700  224.7060 C   0  0  0  0  0  0  0  0  0  0  0  0
  139.8280   69.6620  225.9310 C   0  0  0  0  0  0  0  0  0  0  0  0
  139.6710   68.9190  227.0840 C   0  0  0  0  0  0  0  0  0  0  0  0
  140.1930   69.3720  228.2830 C   0  0  0  0  0  0  0  0  0  0  0  0
  140.8820   70.5790  228.3440 C   0  0  0  0  0  0  0  0  0  0  0  0
  141.0320   71.3120  227.1800 C   0  0  0  0  0  0  0  0  0  0  0  0
  140.5070   70.8500  225.9900 C   0  0  0  0  0  0  0  0  0  0  0  0
  140.6680   71.5840  224.8800 N   0  0  0  0  0  0  0  0  0  0  0  0
  138.6770   73.2560  222.9340 H   0  0  0  0  0  0  0  0  0  0  0  0
  140.0118   73.4495  220.2691 H   0  0  0  0  0  0  0  0  0  0  0  0
  138.6029   74.4131  220.8882 H   0  0  0  0  0  0  0  0  0  0  0  0
  143.4784   75.3236  221.5317 H   0  0  0  0  0  0  0  0  0  0  0  0
  142.6670   73.7135  221.2406 H   0  0  0  0  0  0  0  0  0  0  0  0
  144.4013   75.3466  219.4285 H   0  0  0  0  0  0  0  0  0  0  0  0
  144.3568   73.5876  219.6910 H   0  0  0  0  0  0  0  0  0  0  0  0
  143.2992   73.9966  217.5284 H   0  0  0  0  0  0  0  0  0  0  0  0
  141.9754   73.6205  218.6273 H   0  0  0  0  0  0  0  0  0  0  0  0
  143.0671   76.4365  218.0014 H   0  0  0  0  0  0  0  0  0  0  0  0
  141.5275   75.7347  217.3668 H   0  0  0  0  0  0  0  0  0  0  0  0
  140.4102   76.2085  219.2466 H   0  0  0  0  0  0  0  0  0  0  0  0
  142.7643   77.6952  220.2724 H   0  0  0  0  0  0  0  0  0  0  0  0
  141.8710   78.1372  218.7063 H   0  0  0  0  0  0  0  0  0  0  0  0
  140.4513   79.2802  219.8040 H   0  0  0  0  0  0  0  0  0  0  0  0
  140.0044   77.8113  220.7604 H   0  0  0  0  0  0  0  0  0  0  0  0
  140.6731   77.5827  223.0094 H   0  0  0  0  0  0  0  0  0  0  0  0
  141.6618   78.5558  225.0321 H   0  0  0  0  0  0  0  0  0  0  0  0
  143.0156   80.6479  224.9023 H   0  0  0  0  0  0  0  0  0  0  0  0
  143.3473   81.7288  222.6832 H   0  0  0  0  0  0  0  0  0  0  0  0
  142.3447   80.7318  220.6468 H   0  0  0  0  0  0  0  0  0  0  0  0
  139.1034   69.7043  222.5907 H   0  0  0  0  0  0  0  0  0  0  0  0
  138.7852   68.3195  224.6328 H   0  0  0  0  0  0  0  0  0  0  0  0
  139.1286   67.9627  227.0495 H   0  0  0  0  0  0  0  0  0  0  0  0
  140.0619   68.7724  229.1958 H   0  0  0  0  0  0  0  0  0  0  0  0
  141.2979   70.9422  229.2954 H   0  0  0  0  0  0  0  0  0  0  0  0
  141.5733   72.2693  227.2032 H   0  0  0  0  0  0  0  0  0  0  0  0
  1  2  2  0
  2  3  1  0
  3  4  1  0
  4  5  1  0
  5  6  2  0
  5  7  1  0
  7  8  1  0
  8  9  1  0
  9 10  1  0
 10 11  1  0
 11 12  1  0
 12 13  1  0
 13 14  1  0
 14 15  1  0
 15 16  2  0
 16 17  1  0
 17 18  2  0
 18 19  1  0
 19 20  2  0
  2 21  1  0
 21 22  2  0
 22 23  1  0
 23 24  2  0
 24 25  1  0
 25 26  2  0
 26 27  1  0
 27 28  2  0
 28 29  1  0
 29 30  2  0
 12  7  1  0
 20 15  1  0
 30 21  1  0
 29 24  1  0
  3 31  1  0
  4 32  1  0
  4 33  1  0
  8 34  1  0
  8 35  1  0
  9 36  1  0
  9 37  1  0
 10 38  1  0
 10 39  1  0
 11 40  1  0
 11 41  1  0
 12 42  1  6
 13 43  1  0
 13 44  1  0
 14 45  1  0
 14 46  1  0
 16 47  1  0
 17 48  1  0
 18 49  1  0
 19 50  1  0
 20 51  1  0
 22 52  1  0
 23 53  1  0
 25 54  1  0
 26 55  1  0
 27 56  1  0
 28 57  1  0
M  END
>  <smiles>  (48) 
O=C(NCC(=O)N1CCCCC1CCc1ccccc1)c1ccc2ccccc2n1

>  <score_type>  (48) 
oracle

>  <origin>  (48) 
autodockgpu

>  <m_score__min__energy>  (48) 
-9.2300000000000004

>  <m_primary>  (48) 
energy

>  <rmsd>  (48) 
2.27206865941273

>  <m_score__min__rmsd>  (48) 
2.27206865941273

>  <meeko>  (48) 
{"free_energy": -9.23, "intermolecular_energy": -11.32, "internal_energy": -1.67, "cluster_size": 40, "cluster_id": 1, "rank_in_cluster": 1}

>  <energy>  (48) 
-8.06

>  <cluster_rmsd>  (48) 
1.88

>  <cluster>  (48) 
2

$$$$

     RDKit          3D

 57 60  0  0  0  0  0  0  0  0999 V2000
  139.5230   70.4720  221.3650 O   0  0  0  0  0  0  0  0  0  0  0  0
  139.6340   71.1180  222.4490 C   0  0  0  0  0  0  0  0  0  0  0  0
  139.7190   72.5380  222.4770 N   0  0  0  0  0  0  0  0  0  0  0  0
  139.6850   73.3200  221.2710 C   0  0  0  0  0  0  0  0  0  0  0  0
  140.2050   74.7040  221.4840 C   0  0  0  0  0  0  0  0  0  0  0  0
  139.6510   75.4540  222.3440 O   0  0  0  0  0  0  0  0  0  0  0  0
  141.3180   75.1320  220.7040 N   0  0  0  0  0  0  0  0  0  0  0  0
  142.4960   74.2960  220.5450 C   0  0  0  0  0  0  0  0  0  0  0  0
  143.2440   74.5510  219.2610 C   0  0  0  0  0  0  0  0  0  0  0  0
  142.2300   75.0270  218.2430 C   0  0  0  0  0  0  0  0  0  0  0  0
  141.8670   76.4320  218.6950 C   0  0  0  0  0  0  0  0  0  0  0  0
  141.2470   76.4130  220.0770 C   0  0  2  0  0  0  0  0  0  0  0  0
  141.7720   77.5490  220.8860 C   0  0  0  0  0  0  0  0  0  0  0  0
  141.0600   77.8690  222.1490 C   0  0  0  0  0  0  0  0  0  0  0  0
  141.4580   79.2280  222.6680 C   0  0  0  0  0  0  0  0  0  0  0  0
  140.9540   80.3800  222.1060 C   0  0  0  0  0  0  0  0  0  0  0  0
  141.3070   81.6240  222.5690 C   0  0  0  0  0  0  0  0  0  0  0  0
  142.1920   81.7600  223.6290 C   0  0  0  0  0  0  0  0  0  0  0  0
  142.7080   80.6160  224.2050 C   0  0  0  0  0  0  0  0  0  0  0  0
  142.3420   79.3610  223.7270 C   0  0  0  0  0  0  0  0  0  0  0  0
  139.6780   70.4030  223.7410 C   0  0  0  0  0  0  0  0  0  0  0  0
  139.1490   69.1370  223.8600 C   0  0  0  0  0  0  0  0  0  0  0  0
  139.2150   68.5070  225.1000 C   0  0  0  0  0  0  0  0  0  0  0  0
  139.7900   69.1090  226.1980 C   0  0  0  0  0  0  0  0  0  0  0  0
  139.8690   68.5060  227.4370 C   0  0  0  0  0  0  0  0  0  0  0  0
  140.4600   69.1680  228.4990 C   0  0  0  0  0  0  0  0  0  0  0  0
  140.9820   70.4470  228.3350 C   0  0  0  0  0  0  0  0  0  0  0  0
  140.8950   71.0380  227.0860 C   0  0  0  0  0  0  0  0  0  0  0  0
  140.3040   70.3680  226.0340 C   0  0  0  0  0  0  0  0  0  0  0  0
  140.2350   70.9680  224.8370 N   0  0  0  0  0  0  0  0  0  0  0  0
  139.8110   73.0180  223.4200 H   0  0  0  0  0  0  0  0  0  0  0  0
  140.3022   72.8227  220.5083 H   0  0  0  0  0  0  0  0  0  0  0  0
  138.6366   73.3981  220.9473 H   0  0  0  0  0  0  0  0  0  0  0  0
  143.1758   74.4879  221.3882 H   0  0  0  0  0  0  0  0  0  0  0  0
  142.1511   73.2518  220.5173 H   0  0  0  0  0  0  0  0  0  0  0  0
  144.0118   75.3229  219.4184 H   0  0  0  0  0  0  0  0  0  0  0  0
  143.7488   73.6375  218.9136 H   0  0  0  0  0  0  0  0  0  0  0  0
  142.6699   75.0444  217.2349 H   0  0  0  0  0  0  0  0  0  0  0  0
  141.3524   74.3662  218.1865 H   0  0  0  0  0  0  0  0  0  0  0  0
  142.7771   77.0494  218.7172 H   0  0  0  0  0  0  0  0  0  0  0  0
  141.1356   76.8503  217.9878 H   0  0  0  0  0  0  0  0  0  0  0  0
  140.1632   76.5762  219.9839 H   0  0  0  0  0  0  0  0  0  0  0  0
  142.8157   77.3167  221.1443 H   0  0  0  0  0  0  0  0  0  0  0  0
  141.6350   78.4365  220.2507 H   0  0  0  0  0  0  0  0  0  0  0  0
  139.9760   77.8591  221.9626 H   0  0  0  0  0  0  0  0  0  0  0  0
  141.3299   77.1146  222.9027 H   0  0  0  0  0  0  0  0  0  0  0  0
  140.2502   80.3017  221.2642 H   0  0  0  0  0  0  0  0  0  0  0  0
  140.8838   82.5217  222.0946 H   0  0  0  0  0  0  0  0  0  0  0  0
  142.4758   82.7553  224.0016 H   0  0  0  0  0  0  0  0  0  0  0  0
  143.4121   80.6969  225.0462 H   0  0  0  0  0  0  0  0  0  0  0  0
  142.7615   78.4596  224.1977 H   0  0  0  0  0  0  0  0  0  0  0  0
  138.6860   68.6361  222.9971 H   0  0  0  0  0  0  0  0  0  0  0  0
  138.7945   67.4961  225.2065 H   0  0  0  0  0  0  0  0  0  0  0  0
  139.4605   67.4949  227.5810 H   0  0  0  0  0  0  0  0  0  0  0  0
  140.5175   68.6781  229.4822 H   0  0  0  0  0  0  0  0  0  0  0  0
  141.4524   70.9759  229.1771 H   0  0  0  0  0  0  0  0  0  0  0  0
  141.2999   72.0490  226.9310 H   0  0  0  0  0  0  0  0  0  0  0  0
  1  2  2  0
  2  3  1  0
  3  4  1  0
  4  5  1  0
  5  6  2  0
  5  7  1  0
  7  8  1  0
  8  9  1  0
  9 10  1  0
 10 11  1  0
 11 12  1  0
 12 13  1  0
 13 14  1  0
 14 15  1  0
 15 16  2  0
 16 17  1  0
 17 18  2  0
 18 19  1  0
 19 20  2  0
  2 21  1  0
 21 22  2  0
 22 23  1  0
 23 24  2  0
 24 25  1  0
 25 26  2  0
 26 27  1  0
 27 28  2  0
 28 29  1  0
 29 30  2  0
 12  7  1  0
 20 15  1  0
 30 21  1  0
 29 24  1  0
  3 31  1  0
  4 32  1  0
  4 33  1  0
  8 34  1  0
  8 35  1  0
  9 36  1  0
  9 37  1  0
 10 38  1  0
 10 39  1  0
 11 40  1  0
 11 41  1  0
 12 42  1  6
 13 43  1  0
 13 44  1  0
 14 45  1  0
 14 46  1  0
 16 47  1  0
 17 48  1  0
 18 49  1  0
 19 50  1  0
 20 51  1  0
 22 52  1  0
 23 53  1  0
 25 54  1  0
 26 55  1  0
 27 56  1  0
 28 57  1  0
M  END
>  <smiles>  (49) 
O=C(NCC(=O)N1CCCCC1CCc1ccccc1)c1ccc2ccccc2n1

>  <score_type>  (49) 
oracle

>  <origin>  (49) 
autodockgpu

>  <m_score__min__energy>  (49) 
-9.2300000000000004

>  <m_primary>  (49) 
energy

>  <rmsd>  (49) 
2.106794959899805

>  <m_score__min__rmsd>  (49) 
2.106794959899805

>  <meeko>  (49) 
{"free_energy": -9.02, "intermolecular_energy": -11.11, "internal_energy": -1.58, "cluster_size": 40, "cluster_id": 1, "rank_in_cluster": 8}

>  <energy>  (49) 
-8.41

>  <cluster_rmsd>  (49) 
0.0

>  <cluster>  (49) 
3

$$$$

     RDKit          3D

 57 60  0  0  0  0  0  0  0  0999 V2000
  141.3750   71.9420  221.5000 O   0  0  0  0  0  0  0  0  0  0  0  0
  140.5860   72.3550  222.4010 C   0  0  0  0  0  0  0  0  0  0  0  0
  139.9470   73.6240  222.3220 N   0  0  0  0  0  0  0  0  0  0  0  0
  140.1640   74.5090  221.2110 C   0  0  0  0  0  0  0  0  0  0  0  0
  140.5010   75.8950  221.6560 C   0  0  0  0  0  0  0  0  0  0  0  0
  139.9510   76.3700  222.6950 O   0  0  0  0  0  0  0  0  0  0  0  0
  141.4420   76.6380  220.8850 N   0  0  0  0  0  0  0  0  0  0  0  0
  142.4730   75.9740  220.1040 C   0  0  0  0  0  0  0  0  0  0  0  0
  142.9290   76.7730  218.9090 C   0  0  0  0  0  0  0  0  0  0  0  0
  141.7560   77.6250  218.4710 C   0  0  0  0  0  0  0  0  0  0  0  0
  141.6350   78.6890  219.5490 C   0  0  0  0  0  0  0  0  0  0  0  0
  141.3460   78.0630  220.8980 C   0  0  2  0  0  0  0  0  0  0  0  0
  142.1430   78.7450  221.9560 C   0  0  0  0  0  0  0  0  0  0  0  0
  141.3990   79.2870  223.1220 C   0  0  0  0  0  0  0  0  0  0  0  0
  140.5360   80.4570  222.7200 C   0  0  0  0  0  0  0  0  0  0  0  0
  141.0350   81.4750  221.9390 C   0  0  0  0  0  0  0  0  0  0  0  0
  140.2600   82.5450  221.5650 C   0  0  0  0  0  0  0  0  0  0  0  0
  138.9360   82.6360  221.9670 C   0  0  0  0  0  0  0  0  0  0  0  0
  138.4170   81.6240  222.7510 C   0  0  0  0  0  0  0  0  0  0  0  0
  139.2130   80.5450  223.1230 C   0  0  0  0  0  0  0  0  0  0  0  0
  140.3000   71.5160  223.5830 C   0  0  0  0  0  0  0  0  0  0  0  0
  139.6120   70.3300  223.4510 C   0  0  0  0  0  0  0  0  0  0  0  0
  139.3680   69.5760  224.5960 C   0  0  0  0  0  0  0  0  0  0  0  0
  139.7920   69.9800  225.8440 C   0  0  0  0  0  0  0  0  0  0  0  0
  139.5630   69.2520  226.9930 C   0  0  0  0  0  0  0  0  0  0  0  0
  140.0180   69.7170  228.2150 C   0  0  0  0  0  0  0  0  0  0  0  0
  140.7090   70.9210  228.3030 C   0  0  0  0  0  0  0  0  0  0  0  0
  140.9310   71.6390  227.1410 C   0  0  0  0  0  0  0  0  0  0  0  0
  140.4730   71.1660  225.9280 C   0  0  0  0  0  0  0  0  0  0  0  0
  140.7040   71.8860  224.8210 N   0  0  0  0  0  0  0  0  0  0  0  0
  139.2970   73.9090  223.1120 H   0  0  0  0  0  0  0  0  0  0  0  0
  140.9943   74.1194  220.6037 H   0  0  0  0  0  0  0  0  0  0  0  0
  139.2324   74.5568  220.6281 H   0  0  0  0  0  0  0  0  0  0  0  0
  143.3414   75.7941  220.7548 H   0  0  0  0  0  0  0  0  0  0  0  0
  142.0381   75.0387  219.7217 H   0  0  0  0  0  0  0  0  0  0  0  0
  143.7790   77.4142  219.1855 H   0  0  0  0  0  0  0  0  0  0  0  0
  143.2570   76.1092  218.0955 H   0  0  0  0  0  0  0  0  0  0  0  0
  141.9537   78.0847  217.4914 H   0  0  0  0  0  0  0  0  0  0  0  0
  140.8325   77.0384  218.3568 H   0  0  0  0  0  0  0  0  0  0  0  0
  142.5788   79.2509  219.6077 H   0  0  0  0  0  0  0  0  0  0  0  0
  140.8033   79.3600  219.2881 H   0  0  0  0  0  0  0  0  0  0  0  0
  140.2888   78.2320  221.1505 H   0  0  0  0  0  0  0  0  0  0  0  0
  142.8751   78.0187  222.3389 H   0  0  0  0  0  0  0  0  0  0  0  0
  142.5764   79.6266  221.4610 H   0  0  0  0  0  0  0  0  0  0  0  0
  140.7592   78.4954  223.5393 H   0  0  0  0  0  0  0  0  0  0  0  0
  142.1270   79.6313  223.8713 H   0  0  0  0  0  0  0  0  0  0  0  0
  142.0823   81.4300  221.6057 H   0  0  0  0  0  0  0  0  0  0  0  0
  140.6943   83.3388  220.9395 H   0  0  0  0  0  0  0  0  0  0  0  0
  138.3142   83.4931  221.6689 H   0  0  0  0  0  0  0  0  0  0  0  0
  137.3693   81.6713  223.0829 H   0  0  0  0  0  0  0  0  0  0  0  0
  138.7845   79.7477  223.7481 H   0  0  0  0  0  0  0  0  0  0  0  0
  139.2639   69.9870  222.4655 H   0  0  0  0  0  0  0  0  0  0  0  0
  138.8192   68.6274  224.5016 H   0  0  0  0  0  0  0  0  0  0  0  0
  139.0170   68.2987  226.9381 H   0  0  0  0  0  0  0  0  0  0  0  0
  139.8312   69.1285  229.1254 H   0  0  0  0  0  0  0  0  0  0  0  0
  141.0703   71.2934  229.2729 H   0  0  0  0  0  0  0  0  0  0  0  0
  141.4763   72.5934  227.1844 H   0  0  0  0  0  0  0  0  0  0  0  0
  1  2  2  0
  2  3  1  0
  3  4  1  0
  4  5  1  0
  5  6  2  0
  5  7  1  0
  7  8  1  0
  8  9  1  0
  9 10  1  0
 10 11  1  0
 11 12  1  0
 12 13  1  0
 13 14  1  0
 14 15  1  0
 15 16  2  0
 16 17  1  0
 17 18  2  0
 18 19  1  0
 19 20  2  0
  2 21  1  0
 21 22  2  0
 22 23  1  0
 23 24  2  0
 24 25  1  0
 25 26  2  0
 26 27  1  0
 27 28  2  0
 28 29  1  0
 29 30  2  0
 12  7  1  0
 20 15  1  0
 30 21  1  0
 29 24  1  0
  3 31  1  0
  4 32  1  0
  4 33  1  0
  8 34  1  0
  8 35  1  0
  9 36  1  0
  9 37  1  0
 10 38  1  0
 10 39  1  0
 11 40  1  0
 11 41  1  0
 12 42  1  1
 13 43  1  0
 13 44  1  0
 14 45  1  0
 14 46  1  0
 16 47  1  0
 17 48  1  0
 18 49  1  0
 19 50  1  0
 20 51  1  0
 22 52  1  0
 23 53  1  0
 25 54  1  0
 26 55  1  0
 27 56  1  0
 28 57  1  0
M  END
>  <smiles>  (50) 
O=C(NCC(=O)N1CCCCC1CCc1ccccc1)c1ccc2ccccc2n1

>  <score_type>  (50) 
oracle

>  <origin>  (50) 
autodockgpu

>  <m_score__min__energy>  (50) 
-9.2300000000000004

>  <m_primary>  (50) 
energy

>  <rmsd>  (50) 
2.4688885747315004

>  <m_score__min__rmsd>  (50) 
2.4688885747315004

>  <meeko>  (50) 
{"free_energy": -8.74, "intermolecular_energy": -10.83, "internal_energy": -1.73, "cluster_size": 40, "cluster_id": 1, "rank_in_cluster": 26}

>  <energy>  (50) 
-8.27

>  <cluster_rmsd>  (50) 
0.0

>  <cluster>  (50) 
4

$$$$

     RDKit          3D

 57 60  0  0  0  0  0  0  0  0999 V2000
  140.0650   70.5640  221.7240 O   0  0  0  0  0  0  0  0  0  0  0  0
  139.8610   71.4130  222.6250 C   0  0  0  0  0  0  0  0  0  0  0  0
  139.4230   72.7460  222.3630 N   0  0  0  0  0  0  0  0  0  0  0  0
  139.1820   73.2030  220.9740 C   0  0  0  0  0  0  0  0  0  0  0  0
  140.4570   73.3230  220.2510 C   0  0  0  0  0  0  0  0  0  0  0  0
  140.5010   72.6900  219.1270 O   0  0  0  0  0  0  0  0  0  0  0  0
  141.6020   74.0140  220.6020 N   0  0  0  0  0  0  0  0  0  0  0  0
  142.8860   73.2960  220.3250 C   0  0  0  0  0  0  0  0  0  0  0  0
  143.9880   74.3200  220.3450 C   0  0  0  0  0  0  0  0  0  0  0  0
  143.6550   75.6220  219.6890 C   0  0  0  0  0  0  0  0  0  0  0  0
  142.3140   76.1840  220.0900 C   0  0  0  0  0  0  0  0  0  0  0  0
  141.7760   75.3040  221.2010 C   0  0  1  0  0  0  0  0  0  0  0  0
  140.6330   75.8930  221.9260 C   0  0  0  0  0  0  0  0  0  0  0  0
  140.2690   77.2910  221.4630 C   0  0  0  0  0  0  0  0  0  0  0  0
  141.0730   78.3550  222.0610 C   0  0  0  0  0  0  0  0  0  0  0  0
  141.2220   78.3410  223.4570 C   0  0  0  0  0  0  0  0  0  0  0  0
  141.9600   79.3020  224.1130 C   0  0  0  0  0  0  0  0  0  0  0  0
  142.5860   80.3220  223.4170 C   0  0  0  0  0  0  0  0  0  0  0  0
  142.4510   80.3520  222.0390 C   0  0  0  0  0  0  0  0  0  0  0  0
  141.7000   79.3690  221.4020 C   0  0  0  0  0  0  0  0  0  0  0  0
  140.0860   71.0150  224.0310 C   0  0  0  0  0  0  0  0  0  0  0  0
  140.7130   71.8730  224.9090 C   0  0  0  0  0  0  0  0  0  0  0  0
  140.9430   71.5370  226.2370 C   0  0  0  0  0  0  0  0  0  0  0  0
  140.5200   70.3040  226.6530 C   0  0  0  0  0  0  0  0  0  0  0  0
  140.7360   69.9470  227.9670 C   0  0  0  0  0  0  0  0  0  0  0  0
  140.3130   68.7010  228.4000 C   0  0  0  0  0  0  0  0  0  0  0  0
  139.6810   67.8380  227.5140 C   0  0  0  0  0  0  0  0  0  0  0  0
  139.4670   68.1980  226.2030 C   0  0  0  0  0  0  0  0  0  0  0  0
  139.8880   69.4440  225.7600 C   0  0  0  0  0  0  0  0  0  0  0  0
  139.6910   69.8190  224.4900 N   0  0  0  0  0  0  0  0  0  0  0  0
  139.2840   73.3690  223.1750 H   0  0  0  0  0  0  0  0  0  0  0  0
  138.5388   72.4748  220.4582 H   0  0  0  0  0  0  0  0  0  0  0  0
  138.6898   74.1864  220.9997 H   0  0  0  0  0  0  0  0  0  0  0  0
  143.0657   72.5352  221.0988 H   0  0  0  0  0  0  0  0  0  0  0  0
  142.8447   72.7891  219.3496 H   0  0  0  0  0  0  0  0  0  0  0  0
  144.2455   74.5233  221.3949 H   0  0  0  0  0  0  0  0  0  0  0  0
  144.8181   73.8885  219.7665 H   0  0  0  0  0  0  0  0  0  0  0  0
  144.4313   76.3536  219.9577 H   0  0  0  0  0  0  0  0  0  0  0  0
  143.6102   75.4314  218.6066 H   0  0  0  0  0  0  0  0  0  0  0  0
  142.4301   77.2170  220.4496 H   0  0  0  0  0  0  0  0  0  0  0  0
  141.6239   76.1991  219.2335 H   0  0  0  0  0  0  0  0  0  0  0  0
  142.4704   75.2023  222.0480 H   0  0  0  0  0  0  0  0  0  0  0  0
  139.7584   75.2415  221.7826 H   0  0  0  0  0  0  0  0  0  0  0  0
  140.9301   75.9725  222.9821 H   0  0  0  0  0  0  0  0  0  0  0  0
  140.3968   77.3358  220.3714 H   0  0  0  0  0  0  0  0  0  0  0  0
  139.2308   77.4661  221.7815 H   0  0  0  0  0  0  0  0  0  0  0  0
  140.7382   77.5441  224.0408 H   0  0  0  0  0  0  0  0  0  0  0  0
  142.0534   79.2580  225.2082 H   0  0  0  0  0  0  0  0  0  0  0  0
  143.1744   81.0875  223.9440 H   0  0  0  0  0  0  0  0  0  0  0  0
  142.9340   81.1473  221.4523 H   0  0  0  0  0  0  0  0  0  0  0  0
  141.6076   79.4131  220.3068 H   0  0  0  0  0  0  0  0  0  0  0  0
  141.0425   72.8575  224.5455 H   0  0  0  0  0  0  0  0  0  0  0  0
  141.4443   72.2331  226.9256 H   0  0  0  0  0  0  0  0  0  0  0  0
  141.2358   70.6399  228.6599 H   0  0  0  0  0  0  0  0  0  0  0  0
  140.4774   68.3955  229.4439 H   0  0  0  0  0  0  0  0  0  0  0  0
  139.3462   66.8510  227.8658 H   0  0  0  0  0  0  0  0  0  0  0  0
  138.9664   67.5038  225.5120 H   0  0  0  0  0  0  0  0  0  0  0  0
  1  2  2  0
  2  3  1  0
  3  4  1  0
  4  5  1  0
  5  6  2  0
  5  7  1  0
  7  8  1  0
  8  9  1  0
  9 10  1  0
 10 11  1  0
 11 12  1  0
 12 13  1  0
 13 14  1  0
 14 15  1  0
 15 16  2  0
 16 17  1  0
 17 18  2  0
 18 19  1  0
 19 20  2  0
  2 21  1  0
 21 22  2  0
 22 23  1  0
 23 24  2  0
 24 25  1  0
 25 26  2  0
 26 27  1  0
 27 28  2  0
 28 29  1  0
 29 30  2  0
 12  7  1  0
 20 15  1  0
 30 21  1  0
 29 24  1  0
  3 31  1  0
  4 32  1  0
  4 33  1  0
  8 34  1  0
  8 35  1  0
  9 36  1  0
  9 37  1  0
 10 38  1  0
 10 39  1  0
 11 40  1  0
 11 41  1  0
 12 42  1  1
 13 43  1  0
 13 44  1  0
 14 45  1  0
 14 46  1  0
 16 47  1  0
 17 48  1  0
 18 49  1  0
 19 50  1  0
 20 51  1  0
 22 52  1  0
 23 53  1  0
 25 54  1  0
 26 55  1  0
 27 56  1  0
 28 57  1  0
M  END
>  <smiles>  (51) 
O=C(NCC(=O)N1CCCCC1CCc1ccccc1)c1ccc2ccccc2n1

>  <score_type>  (51) 
oracle

>  <origin>  (51) 
autodockgpu

>  <m_score__min__energy>  (51) 
-9.4399999999999995

>  <m_primary>  (51) 
energy

>  <rmsd>  (51) 
3.4454205936307933

>  <m_score__min__rmsd>  (51) 
3.4454205936307933

>  <meeko>  (51) 
{"free_energy": -9.22, "intermolecular_energy": -11.31, "internal_energy": -1.62, "cluster_size": 38, "cluster_id": 1, "rank_in_cluster": 4}

>  <energy>  (51) 
-9.44

>  <cluster_rmsd>  (51) 
0.0

>  <cluster>  (51) 
1

$$$$

     RDKit          3D

 57 60  0  0  0  0  0  0  0  0999 V2000
  139.5900   70.4970  221.7370 O   0  0  0  0  0  0  0  0  0  0  0  0
  139.6070   71.3850  222.6220 C   0  0  0  0  0  0  0  0  0  0  0  0
  139.2790   72.7520  222.3700 N   0  0  0  0  0  0  0  0  0  0  0  0
  138.8910   73.1960  221.0110 C   0  0  0  0  0  0  0  0  0  0  0  0
  140.0900   73.4830  220.2090 C   0  0  0  0  0  0  0  0  0  0  0  0
  139.9280   73.3600  218.9350 O   0  0  0  0  0  0  0  0  0  0  0  0
  141.3520   73.8630  220.6240 N   0  0  0  0  0  0  0  0  0  0  0  0
  142.4060   72.8060  220.5040 C   0  0  0  0  0  0  0  0  0  0  0  0
  143.7420   73.4930  220.5690 C   0  0  0  0  0  0  0  0  0  0  0  0
  143.8290   74.7810  219.8150 C   0  0  0  0  0  0  0  0  0  0  0  0
  142.6700   75.7140  220.0610 C   0  0  0  0  0  0  0  0  0  0  0  0
  141.8310   75.1010  221.1640 C   0  0  1  0  0  0  0  0  0  0  0  0
  140.8460   76.0310  221.7500 C   0  0  0  0  0  0  0  0  0  0  0  0
  140.8410   77.4040  221.1040 C   0  0  0  0  0  0  0  0  0  0  0  0
  141.4030   78.4660  221.9350 C   0  0  0  0  0  0  0  0  0  0  0  0
  141.4190   78.2560  223.3230 C   0  0  0  0  0  0  0  0  0  0  0  0
  141.9270   79.1990  224.1900 C   0  0  0  0  0  0  0  0  0  0  0  0
  142.4450   80.3940  223.7220 C   0  0  0  0  0  0  0  0  0  0  0  0
  142.4390   80.6200  222.3560 C   0  0  0  0  0  0  0  0  0  0  0  0
  141.9190   79.6500  221.5040 C   0  0  0  0  0  0  0  0  0  0  0  0
  139.9880   71.0000  223.9970 C   0  0  0  0  0  0  0  0  0  0  0  0
  140.7030   71.8680  224.7940 C   0  0  0  0  0  0  0  0  0  0  0  0
  141.0800   71.5460  226.0910 C   0  0  0  0  0  0  0  0  0  0  0  0
  140.7120   70.3140  226.5610 C   0  0  0  0  0  0  0  0  0  0  0  0
  141.0750   69.9700  227.8470 C   0  0  0  0  0  0  0  0  0  0  0  0
  140.7090   68.7260  228.3340 C   0  0  0  0  0  0  0  0  0  0  0  0
  139.9880   67.8510  227.5300 C   0  0  0  0  0  0  0  0  0  0  0  0
  139.6290   68.1990  226.2480 C   0  0  0  0  0  0  0  0  0  0  0  0
  139.9910   69.4430  225.7510 C   0  0  0  0  0  0  0  0  0  0  0  0
  139.6540   69.8060  224.5070 N   0  0  0  0  0  0  0  0  0  0  0  0
  139.3240   73.4060  223.1680 H   0  0  0  0  0  0  0  0  0  0  0  0
  138.3081   72.4017  220.5218 H   0  0  0  0  0  0  0  0  0  0  0  0
  138.2854   74.1108  221.0914 H   0  0  0  0  0  0  0  0  0  0  0  0
  142.3127   72.0865  221.3308 H   0  0  0  0  0  0  0  0  0  0  0  0
  142.2981   72.2559  219.5576 H   0  0  0  0  0  0  0  0  0  0  0  0
  143.9677   73.7004  221.6254 H   0  0  0  0  0  0  0  0  0  0  0  0
  144.4616   72.8101  220.0938 H   0  0  0  0  0  0  0  0  0  0  0  0
  144.7555   75.2941  220.1122 H   0  0  0  0  0  0  0  0  0  0  0  0
  143.8113   74.5259  218.7451 H   0  0  0  0  0  0  0  0  0  0  0  0
  143.0403   76.7016  220.3732 H   0  0  0  0  0  0  0  0  0  0  0  0
  142.0751   75.8492  219.1457 H   0  0  0  0  0  0  0  0  0  0  0  0
  142.4074   74.8813  222.0747 H   0  0  0  0  0  0  0  0  0  0  0  0
  139.8440   75.5911  221.6377 H   0  0  0  0  0  0  0  0  0  0  0  0
  141.1272   76.1736  222.8038 H   0  0  0  0  0  0  0  0  0  0  0  0
  141.4267   77.3486  220.1745 H   0  0  0  0  0  0  0  0  0  0  0  0
  139.7864   77.6655  220.9326 H   0  0  0  0  0  0  0  0  0  0  0  0
  141.0163   77.3160  223.7283 H   0  0  0  0  0  0  0  0  0  0  0  0
  141.9207   78.9987  225.2716 H   0  0  0  0  0  0  0  0  0  0  0  0
  142.8507   81.1442  224.4167 H   0  0  0  0  0  0  0  0  0  0  0  0
  142.8419   81.5585  221.9475 H   0  0  0  0  0  0  0  0  0  0  0  0
  141.9253   79.8511  220.4225 H   0  0  0  0  0  0  0  0  0  0  0  0
  140.9850   72.8507  224.3881 H   0  0  0  0  0  0  0  0  0  0  0  0
  141.6500   72.2507  226.7142 H   0  0  0  0  0  0  0  0  0  0  0  0
  141.6449   70.6712  228.4743 H   0  0  0  0  0  0  0  0  0  0  0  0
  140.9887   68.4309  229.3561 H   0  0  0  0  0  0  0  0  0  0  0  0
  139.7000   66.8654  227.9245 H   0  0  0  0  0  0  0  0  0  0  0  0
  139.0594   67.4964  225.6219 H   0  0  0  0  0  0  0  0  0  0  0  0
  1  2  2  0
  2  3  1  0
  3  4  1  0
  4  5  1  0
  5  6  2  0
  5  7  1  0
  7  8  1  0
  8  9  1  0
  9 10  1  0
 10 11  1  0
 11 12  1  0
 12 13  1  0
 13 14  1  0
 14 15  1  0
 15 16  2  0
 16 17  1  0
 17 18  2  0
 18 19  1  0
 19 20  2  0
  2 21  1  0
 21 22  2  0
 22 23  1  0
 23 24  2  0
 24 25  1  0
 25 26  2  0
 26 27  1  0
 27 28  2  0
 28 29  1  0
 29 30  2  0
 12  7  1  0
 20 15  1  0
 30 21  1  0
 29 24  1  0
  3 31  1  0
  4 32  1  0
  4 33  1  0
  8 34  1  0
  8 35  1  0
  9 36  1  0
  9 37  1  0
 10 38  1  0
 10 39  1  0
 11 40  1  0
 11 41  1  0
 12 42  1  1
 13 43  1  0
 13 44  1  0
 14 45  1  0
 14 46  1  0
 16 47  1  0
 17 48  1  0
 18 49  1  0
 19 50  1  0
 20 51  1  0
 22 52  1  0
 23 53  1  0
 25 54  1  0
 26 55  1  0
 27 56  1  0
 28 57  1  0
M  END
>  <smiles>  (52) 
O=C(NCC(=O)N1CCCCC1CCc1ccccc1)c1ccc2ccccc2n1

>  <score_type>  (52) 
oracle

>  <origin>  (52) 
autodockgpu

>  <m_score__min__energy>  (52) 
-9.4399999999999995

>  <m_primary>  (52) 
energy

>  <rmsd>  (52) 
3.419379426487866

>  <m_score__min__rmsd>  (52) 
3.419379426487866

>  <meeko>  (52) 
{"free_energy": -9.22, "intermolecular_energy": -11.31, "internal_energy": -1.67, "cluster_size": 38, "cluster_id": 1, "rank_in_cluster": 5}

>  <energy>  (52) 
-9.36

>  <cluster_rmsd>  (52) 
1.12

>  <cluster>  (52) 
1

$$$$

     RDKit          3D

 57 60  0  0  0  0  0  0  0  0999 V2000
  141.4220   71.9770  221.5820 O   0  0  0  0  0  0  0  0  0  0  0  0
  140.5990   72.3850  222.4360 C   0  0  0  0  0  0  0  0  0  0  0  0
  139.9270   73.6410  222.3420 N   0  0  0  0  0  0  0  0  0  0  0  0
  140.1780   74.5470  221.1970 C   0  0  0  0  0  0  0  0  0  0  0  0
  139.7110   75.9050  221.5130 C   0  0  0  0  0  0  0  0  0  0  0  0
  138.7660   75.9600  222.3900 O   0  0  0  0  0  0  0  0  0  0  0  0
  140.1370   77.1200  221.0070 N   0  0  0  0  0  0  0  0  0  0  0  0
  141.4570   77.0870  220.3030 C   0  0  0  0  0  0  0  0  0  0  0  0
  141.5510   78.3320  219.4640 C   0  0  0  0  0  0  0  0  0  0  0  0
  140.2910   78.7170  218.7580 C   0  0  0  0  0  0  0  0  0  0  0  0
  139.0640   78.6830  219.6340 C   0  0  0  0  0  0  0  0  0  0  0  0
  139.5350   78.4190  221.0510 C   0  0  1  0  0  0  0  0  0  0  0  0
  138.5050   78.6740  222.0780 C   0  0  0  0  0  0  0  0  0  0  0  0
  139.0730   78.9940  223.4480 C   0  0  0  0  0  0  0  0  0  0  0  0
  140.3640   79.6790  223.4240 C   0  0  0  0  0  0  0  0  0  0  0  0
  141.5160   78.8770  223.3930 C   0  0  0  0  0  0  0  0  0  0  0  0
  142.7790   79.4300  223.3690 C   0  0  0  0  0  0  0  0  0  0  0  0
  142.9590   80.8020  223.3750 C   0  0  0  0  0  0  0  0  0  0  0  0
  141.8340   81.6100  223.4040 C   0  0  0  0  0  0  0  0  0  0  0  0
  140.5710   81.0250  223.4280 C   0  0  0  0  0  0  0  0  0  0  0  0
  140.3090   71.5230  223.6010 C   0  0  0  0  0  0  0  0  0  0  0  0
  139.6280   70.3360  223.4410 C   0  0  0  0  0  0  0  0  0  0  0  0
  139.3360   69.4970  224.5090 C   0  0  0  0  0  0  0  0  0  0  0  0
  139.7540   69.8960  225.7490 C   0  0  0  0  0  0  0  0  0  0  0  0
  139.4760   69.0800  226.8260 C   0  0  0  0  0  0  0  0  0  0  0  0
  139.8930   69.4730  228.0870 C   0  0  0  0  0  0  0  0  0  0  0  0
  140.5800   70.6700  228.2490 C   0  0  0  0  0  0  0  0  0  0  0  0
  140.8550   71.4810  227.1700 C   0  0  0  0  0  0  0  0  0  0  0  0
  140.4400   71.0960  225.9040 C   0  0  0  0  0  0  0  0  0  0  0  0
  140.6960   71.8660  224.8390 N   0  0  0  0  0  0  0  0  0  0  0  0
  139.2670   73.8850  223.0990 H   0  0  0  0  0  0  0  0  0  0  0  0
  141.2569   74.5739  220.9845 H   0  0  0  0  0  0  0  0  0  0  0  0
  139.6316   74.1747  220.3179 H   0  0  0  0  0  0  0  0  0  0  0  0
  142.2748   77.0666  221.0383 H   0  0  0  0  0  0  0  0  0  0  0  0
  141.5394   76.1881  219.6744 H   0  0  0  0  0  0  0  0  0  0  0  0
  141.8415   79.1648  220.1213 H   0  0  0  0  0  0  0  0  0  0  0  0
  142.2894   78.1167  218.6776 H   0  0  0  0  0  0  0  0  0  0  0  0
  140.4105   79.7390  218.3691 H   0  0  0  0  0  0  0  0  0  0  0  0
  140.1337   77.9767  217.9598 H   0  0  0  0  0  0  0  0  0  0  0  0
  138.5383   79.6480  219.5847 H   0  0  0  0  0  0  0  0  0  0  0  0
  138.3667   77.9001  219.3009 H   0  0  0  0  0  0  0  0  0  0  0  0
  140.2908   79.1391  221.3977 H   0  0  0  0  0  0  0  0  0  0  0  0
  137.8910   79.5255  221.7495 H   0  0  0  0  0  0  0  0  0  0  0  0
  137.9198   77.7484  222.1818 H   0  0  0  0  0  0  0  0  0  0  0  0
  138.3532   79.6360  223.9770 H   0  0  0  0  0  0  0  0  0  0  0  0
  139.2397   78.0298  223.9506 H   0  0  0  0  0  0  0  0  0  0  0  0
  141.4086   77.7823  223.3878 H   0  0  0  0  0  0  0  0  0  0  0  0
  143.6582   78.7694  223.3447 H   0  0  0  0  0  0  0  0  0  0  0  0
  143.9682   81.2393  223.3572 H   0  0  0  0  0  0  0  0  0  0  0  0
  141.9379   82.7051  223.4081 H   0  0  0  0  0  0  0  0  0  0  0  0
  139.6922   81.6861  223.4515 H   0  0  0  0  0  0  0  0  0  0  0  0
  139.3040   70.0422  222.4317 H   0  0  0  0  0  0  0  0  0  0  0  0
  138.7919   68.5521  224.3638 H   0  0  0  0  0  0  0  0  0  0  0  0
  138.9327   68.1339  226.6858 H   0  0  0  0  0  0  0  0  0  0  0  0
  139.6805   68.8380  228.9597 H   0  0  0  0  0  0  0  0  0  0  0  0
  140.9090   70.9744  229.2535 H   0  0  0  0  0  0  0  0  0  0  0  0
  141.3994   72.4263  227.3114 H   0  0  0  0  0  0  0  0  0  0  0  0
  1  2  2  0
  2  3  1  0
  3  4  1  0
  4  5  1  0
  5  6  2  0
  5  7  1  0
  7  8  1  0
  8  9  1  0
  9 10  1  0
 10 11  1  0
 11 12  1  0
 12 13  1  0
 13 14  1  0
 14 15  1  0
 15 16  2  0
 16 17  1  0
 17 18  2  0
 18 19  1  0
 19 20  2  0
  2 21  1  0
 21 22  2  0
 22 23  1  0
 23 24  2  0
 24 25  1  0
 25 26  2  0
 26 27  1  0
 27 28  2  0
 28 29  1  0
 29 30  2  0
 12  7  1  0
 20 15  1  0
 30 21  1  0
 29 24  1  0
  3 31  1  0
  4 32  1  0
  4 33  1  0
  8 34  1  0
  8 35  1  0
  9 36  1  0
  9 37  1  0
 10 38  1  0
 10 39  1  0
 11 40  1  0
 11 41  1  0
 12 42  1  1
 13 43  1  0
 13 44  1  0
 14 45  1  0
 14 46  1  0
 16 47  1  0
 17 48  1  0
 18 49  1  0
 19 50  1  0
 20 51  1  0
 22 52  1  0
 23 53  1  0
 25 54  1  0
 26 55  1  0
 27 56  1  0
 28 57  1  0
M  END
>  <smiles>  (53) 
O=C(NCC(=O)N1CCCCC1CCc1ccccc1)c1ccc2ccccc2n1

>  <score_type>  (53) 
oracle

>  <origin>  (53) 
autodockgpu

>  <m_score__min__energy>  (53) 
-9.4399999999999995

>  <m_primary>  (53) 
energy

>  <rmsd>  (53) 
2.6467276006528215

>  <m_score__min__rmsd>  (53) 
2.6467276006528215

>  <meeko>  (53) 
{"free_energy": -8.85, "intermolecular_energy": -10.94, "internal_energy": -2.18, "cluster_size": 38, "cluster_id": 1, "rank_in_cluster": 20}

>  <energy>  (53) 
-9.22

>  <cluster_rmsd>  (53) 
1.29

>  <cluster>  (53) 
1

$$$$

     RDKit          3D

 57 60  0  0  0  0  0  0  0  0999 V2000
  140.3580   71.2340  221.2250 O   0  0  0  0  0  0  0  0  0  0  0  0
  140.1390   71.9140  222.2560 C   0  0  0  0  0  0  0  0  0  0  0  0
  139.9480   73.3290  222.2380 N   0  0  0  0  0  0  0  0  0  0  0  0
  140.0040   74.0820  220.9630 C   0  0  0  0  0  0  0  0  0  0  0  0
  140.6350   75.3930  221.1740 C   0  0  0  0  0  0  0  0  0  0  0  0
  140.4760   75.8830  222.3580 O   0  0  0  0  0  0  0  0  0  0  0  0
  141.3690   76.1660  220.2940 N   0  0  0  0  0  0  0  0  0  0  0  0
  142.8000   75.7570  220.1300 C   0  0  0  0  0  0  0  0  0  0  0  0
  143.3060   76.3880  218.8620 C   0  0  0  0  0  0  0  0  0  0  0  0
  142.3450   76.3670  217.7170 C   0  0  0  0  0  0  0  0  0  0  0  0
  140.9490   76.8060  218.0820 C   0  0  0  0  0  0  0  0  0  0  0  0
  140.9990   77.3070  219.5120 C   0  0  1  0  0  0  0  0  0  0  0  0
  139.8010   78.0690  219.9170 C   0  0  0  0  0  0  0  0  0  0  0  0
  140.0970   79.4960  220.3400 C   0  0  0  0  0  0  0  0  0  0  0  0
  140.9820   79.6130  221.4970 C   0  0  0  0  0  0  0  0  0  0  0  0
  140.5640   79.0030  222.6900 C   0  0  0  0  0  0  0  0  0  0  0  0
  141.3290   79.0590  223.8350 C   0  0  0  0  0  0  0  0  0  0  0  0
  142.5440   79.7230  223.8520 C   0  0  0  0  0  0  0  0  0  0  0  0
  142.9740   80.3310  222.6840 C   0  0  0  0  0  0  0  0  0  0  0  0
  142.1810   80.2580  221.5420 C   0  0  0  0  0  0  0  0  0  0  0  0
  140.0730   71.2170  223.5570 C   0  0  0  0  0  0  0  0  0  0  0  0
  139.5350   69.9500  223.6460 C   0  0  0  0  0  0  0  0  0  0  0  0
  139.4550   69.2610  224.8490 C   0  0  0  0  0  0  0  0  0  0  0  0
  139.9360   69.8910  225.9640 C   0  0  0  0  0  0  0  0  0  0  0  0
  139.8680   69.2270  227.1710 C   0  0  0  0  0  0  0  0  0  0  0  0
  140.3510   69.8540  228.3080 C   0  0  0  0  0  0  0  0  0  0  0  0
  140.8930   71.1310  228.2170 C   0  0  0  0  0  0  0  0  0  0  0  0
  140.9590   71.7890  227.0100 C   0  0  0  0  0  0  0  0  0  0  0  0
  140.4770   71.1690  225.8670 C   0  0  0  0  0  0  0  0  0  0  0  0
  140.5300   71.7880  224.6810 N   0  0  0  0  0  0  0  0  0  0  0  0
  139.7730   73.7960  223.1420 H   0  0  0  0  0  0  0  0  0  0  0  0
  140.5909   73.5103  220.2290 H   0  0  0  0  0  0  0  0  0  0  0  0
  138.9801   74.2327  220.5903 H   0  0  0  0  0  0  0  0  0  0  0  0
  143.3923   76.1091  220.9875 H   0  0  0  0  0  0  0  0  0  0  0  0
  142.8875   74.6616  220.0803 H   0  0  0  0  0  0  0  0  0  0  0  0
  143.5549   77.4373  219.0790 H   0  0  0  0  0  0  0  0  0  0  0  0
  144.1728   75.7891  218.5460 H   0  0  0  0  0  0  0  0  0  0  0  0
  142.7254   77.0387  216.9333 H   0  0  0  0  0  0  0  0  0  0  0  0
  142.2731   75.3224  217.3799 H   0  0  0  0  0  0  0  0  0  0  0  0
  140.6195   77.6128  217.4108 H   0  0  0  0  0  0  0  0  0  0  0  0
  140.2381   75.9723  217.9838 H   0  0  0  0  0  0  0  0  0  0  0  0
  141.7524   78.0928  219.6699 H   0  0  0  0  0  0  0  0  0  0  0  0
  139.1038   78.0969  219.0666 H   0  0  0  0  0  0  0  0  0  0  0  0
  139.3764   77.5567  220.7929 H   0  0  0  0  0  0  0  0  0  0  0  0
  140.5687   80.0149  219.4925 H   0  0  0  0  0  0  0  0  0  0  0  0
  139.1353   79.9412  220.6349 H   0  0  0  0  0  0  0  0  0  0  0  0
  139.6033   78.4677  222.7116 H   0  0  0  0  0  0  0  0  0  0  0  0
  140.9683   78.5679  224.7508 H   0  0  0  0  0  0  0  0  0  0  0  0
  143.1513   79.7665  224.7682 H   0  0  0  0  0  0  0  0  0  0  0  0
  143.9342   80.8671  222.6590 H   0  0  0  0  0  0  0  0  0  0  0  0
  142.5424   80.7480  220.6259 H   0  0  0  0  0  0  0  0  0  0  0  0
  139.1562   69.4687  222.7323 H   0  0  0  0  0  0  0  0  0  0  0  0
  139.0229   68.2509  224.9031 H   0  0  0  0  0  0  0  0  0  0  0  0
  139.4374   68.2165  227.2298 H   0  0  0  0  0  0  0  0  0  0  0  0
  140.3058   69.3425  229.2808 H   0  0  0  0  0  0  0  0  0  0  0  0
  141.2750   71.6230  229.1236 H   0  0  0  0  0  0  0  0  0  0  0  0
  141.3908   72.7991  226.9524 H   0  0  0  0  0  0  0  0  0  0  0  0
  1  2  2  0
  2  3  1  0
  3  4  1  0
  4  5  1  0
  5  6  2  0
  5  7  1  0
  7  8  1  0
  8  9  1  0
  9 10  1  0
 10 11  1  0
 11 12  1  0
 12 13  1  0
 13 14  1  0
 14 15  1  0
 15 16  2  0
 16 17  1  0
 17 18  2  0
 18 19  1  0
 19 20  2  0
  2 21  1  0
 21 22  2  0
 22 23  1  0
 23 24  2  0
 24 25  1  0
 25 26  2  0
 26 27  1  0
 27 28  2  0
 28 29  1  0
 29 30  2  0
 12  7  1  0
 20 15  1  0
 30 21  1  0
 29 24  1  0
  3 31  1  0
  4 32  1  0
  4 33  1  0
  8 34  1  0
  8 35  1  0
  9 36  1  0
  9 37  1  0
 10 38  1  0
 10 39  1  0
 11 40  1  0
 11 41  1  0
 12 42  1  6
 13 43  1  0
 13 44  1  0
 14 45  1  0
 14 46  1  0
 16 47  1  0
 17 48  1  0
 18 49  1  0
 19 50  1  0
 20 51  1  0
 22 52  1  0
 23 53  1  0
 25 54  1  0
 26 55  1  0
 27 56  1  0
 28 57  1  0
M  END
>  <smiles>  (54) 
O=C(NCC(=O)N1CCCCC1CCc1ccccc1)c1ccc2ccccc2n1

>  <score_type>  (54) 
oracle

>  <origin>  (54) 
autodockgpu

>  <m_score__min__energy>  (54) 
-9.4399999999999995

>  <m_primary>  (54) 
energy

>  <rmsd>  (54) 
2.1327473583046515

>  <m_score__min__rmsd>  (54) 
2.1327473583046515

>  <meeko>  (54) 
{"free_energy": -8.77, "intermolecular_energy": -10.86, "internal_energy": -2.33, "cluster_size": 38, "cluster_id": 1, "rank_in_cluster": 23}

>  <energy>  (54) 
-9.22

>  <cluster_rmsd>  (54) 
1.44

>  <cluster>  (54) 
1

$$$$

     RDKit          3D

 57 60  0  0  0  0  0  0  0  0999 V2000
  138.8660   70.8400  221.5100 O   0  0  0  0  0  0  0  0  0  0  0  0
  139.2370   71.5040  222.5090 C   0  0  0  0  0  0  0  0  0  0  0  0
  139.3970   72.9220  222.4930 N   0  0  0  0  0  0  0  0  0  0  0  0
  139.1260   73.6990  221.2600 C   0  0  0  0  0  0  0  0  0  0  0  0
  139.6970   75.0490  221.3760 C   0  0  0  0  0  0  0  0  0  0  0  0
  140.5390   75.1980  222.3430 O   0  0  0  0  0  0  0  0  0  0  0  0
  139.4620   76.1710  220.6020 N   0  0  0  0  0  0  0  0  0  0  0  0
  140.0460   76.1260  219.2240 C   0  0  0  0  0  0  0  0  0  0  0  0
  139.3470   77.1750  218.4040 C   0  0  0  0  0  0  0  0  0  0  0  0
  137.8730   77.2790  218.6320 C   0  0  0  0  0  0  0  0  0  0  0  0
  137.4790   77.3030  220.0880 C   0  0  0  0  0  0  0  0  0  0  0  0
  138.7600   77.3850  220.8950 C   0  0  1  0  0  0  0  0  0  0  0  0
  138.5490   77.7410  222.3120 C   0  0  0  0  0  0  0  0  0  0  0  0
  138.6740   79.2260  222.5950 C   0  0  0  0  0  0  0  0  0  0  0  0
  140.0040   79.6510  223.0250 C   0  0  0  0  0  0  0  0  0  0  0  0
  141.0050   78.6690  223.0820 C   0  0  0  0  0  0  0  0  0  0  0  0
  142.2910   78.9710  223.4770 C   0  0  0  0  0  0  0  0  0  0  0  0
  142.6440   80.2600  223.8340 C   0  0  0  0  0  0  0  0  0  0  0  0
  141.6710   81.2440  223.7840 C   0  0  0  0  0  0  0  0  0  0  0  0
  140.3810   80.9110  223.3810 C   0  0  0  0  0  0  0  0  0  0  0  0
  139.5220   70.7820  223.7660 C   0  0  0  0  0  0  0  0  0  0  0  0
  139.2600   69.4330  223.8730 C   0  0  0  0  0  0  0  0  0  0  0  0
  139.5140   68.7180  225.0360 C   0  0  0  0  0  0  0  0  0  0  0  0
  140.0420   69.4080  226.0930 C   0  0  0  0  0  0  0  0  0  0  0  0
  140.3030   68.7200  227.2600 C   0  0  0  0  0  0  0  0  0  0  0  0
  140.8360   69.4090  228.3360 C   0  0  0  0  0  0  0  0  0  0  0  0
  141.1000   70.7690  228.2280 C   0  0  0  0  0  0  0  0  0  0  0  0
  140.8380   71.4510  227.0610 C   0  0  0  0  0  0  0  0  0  0  0  0
  140.3030   70.7700  225.9780 C   0  0  0  0  0  0  0  0  0  0  0  0
  140.0390   71.4110  224.8320 N   0  0  0  0  0  0  0  0  0  0  0  0
  139.7070   73.3750  223.3680 H   0  0  0  0  0  0  0  0  0  0  0  0
  139.5794   73.1852  220.3995 H   0  0  0  0  0  0  0  0  0  0  0  0
  138.0382   73.7799  221.1180 H   0  0  0  0  0  0  0  0  0  0  0  0
  141.1245   76.3385  219.2657 H   0  0  0  0  0  0  0  0  0  0  0  0
  139.9102   75.1300  218.7773 H   0  0  0  0  0  0  0  0  0  0  0  0
  139.7983   78.1498  218.6411 H   0  0  0  0  0  0  0  0  0  0  0  0
  139.4745   76.8778  217.3526 H   0  0  0  0  0  0  0  0  0  0  0  0
  137.5144   78.2061  218.1610 H   0  0  0  0  0  0  0  0  0  0  0  0
  137.4181   76.3786  218.1933 H   0  0  0  0  0  0  0  0  0  0  0  0
  136.8468   78.1794  220.2935 H   0  0  0  0  0  0  0  0  0  0  0  0
  136.9059   76.4024  220.3535 H   0  0  0  0  0  0  0  0  0  0  0  0
  139.3993   78.2330  220.6084 H   0  0  0  0  0  0  0  0  0  0  0  0
  137.5398   77.4158  222.6048 H   0  0  0  0  0  0  0  0  0  0  0  0
  139.3377   77.2371  222.8899 H   0  0  0  0  0  0  0  0  0  0  0  0
  138.4188   79.7736  221.6758 H   0  0  0  0  0  0  0  0  0  0  0  0
  137.9910   79.4440  223.4292 H   0  0  0  0  0  0  0  0  0  0  0  0
  140.7577   77.6336  222.8049 H   0  0  0  0  0  0  0  0  0  0  0  0
  143.0485   78.1741  223.5088 H   0  0  0  0  0  0  0  0  0  0  0  0
  143.6708   80.4971  224.1494 H   0  0  0  0  0  0  0  0  0  0  0  0
  141.9155   82.2802  224.0605 H   0  0  0  0  0  0  0  0  0  0  0  0
  139.6244   81.7088  223.3481 H   0  0  0  0  0  0  0  0  0  0  0  0
  138.8349   68.9044  223.0070 H   0  0  0  0  0  0  0  0  0  0  0  0
  139.2996   67.6413  225.1047 H   0  0  0  0  0  0  0  0  0  0  0  0
  140.0913   67.6431  227.3342 H   0  0  0  0  0  0  0  0  0  0  0  0
  141.0505   68.8800  229.2763 H   0  0  0  0  0  0  0  0  0  0  0  0
  141.5245   71.3086  229.0874 H   0  0  0  0  0  0  0  0  0  0  0  0
  141.0514   72.5276  226.9883 H   0  0  0  0  0  0  0  0  0  0  0  0
  1  2  2  0
  2  3  1  0
  3  4  1  0
  4  5  1  0
  5  6  2  0
  5  7  1  0
  7  8  1  0
  8  9  1  0
  9 10  1  0
 10 11  1  0
 11 12  1  0
 12 13  1  0
 13 14  1  0
 14 15  1  0
 15 16  2  0
 16 17  1  0
 17 18  2  0
 18 19  1  0
 19 20  2  0
  2 21  1  0
 21 22  2  0
 22 23  1  0
 23 24  2  0
 24 25  1  0
 25 26  2  0
 26 27  1  0
 27 28  2  0
 28 29  1  0
 29 30  2  0
 12  7  1  0
 20 15  1  0
 30 21  1  0
 29 24  1  0
  3 31  1  0
  4 32  1  0
  4 33  1  0
  8 34  1  0
  8 35  1  0
  9 36  1  0
  9 37  1  0
 10 38  1  0
 10 39  1  0
 11 40  1  0
 11 41  1  0
 12 42  1  6
 13 43  1  0
 13 44  1  0
 14 45  1  0
 14 46  1  0
 16 47  1  0
 17 48  1  0
 18 49  1  0
 19 50  1  0
 20 51  1  0
 22 52  1  0
 23 53  1  0
 25 54  1  0
 26 55  1  0
 27 56  1  0
 28 57  1  0
M  END
>  <smiles>  (55) 
O=C(NCC(=O)N1CCCCC1CCc1ccccc1)c1ccc2ccccc2n1

>  <score_type>  (55) 
oracle

>  <origin>  (55) 
autodockgpu

>  <m_score__min__energy>  (55) 
-9.4399999999999995

>  <m_primary>  (55) 
energy

>  <rmsd>  (55) 
2.079315503546229

>  <m_score__min__rmsd>  (55) 
2.079315503546229

>  <meeko>  (55) 
{"free_energy": -8.35, "intermolecular_energy": -10.44, "internal_energy": -2.29, "cluster_size": 38, "cluster_id": 1, "rank_in_cluster": 36}

>  <energy>  (55) 
-9.22

>  <cluster_rmsd>  (55) 
1.47

>  <cluster>  (55) 
1

$$$$

     RDKit          3D

 57 60  0  0  0  0  0  0  0  0999 V2000
  139.6110   71.0570  221.3290 O   0  0  0  0  0  0  0  0  0  0  0  0
  139.5710   71.7790  222.3540 C   0  0  0  0  0  0  0  0  0  0  0  0
  139.3050   73.1810  222.3170 N   0  0  0  0  0  0  0  0  0  0  0  0
  139.0580   73.8690  221.0280 C   0  0  0  0  0  0  0  0  0  0  0  0
  140.2880   73.8960  220.2230 C   0  0  0  0  0  0  0  0  0  0  0  0
  140.2330   73.2100  219.1310 O   0  0  0  0  0  0  0  0  0  0  0  0
  141.4830   74.5470  220.4680 N   0  0  0  0  0  0  0  0  0  0  0  0
  142.7130   73.7810  220.0920 C   0  0  0  0  0  0  0  0  0  0  0  0
  143.8480   74.7640  220.0090 C   0  0  0  0  0  0  0  0  0  0  0  0
  143.5070   76.0720  219.3680 C   0  0  0  0  0  0  0  0  0  0  0  0
  142.2260   76.6860  219.8740 C   0  0  0  0  0  0  0  0  0  0  0  0
  141.7520   75.8350  221.0360 C   0  0  1  0  0  0  0  0  0  0  0  0
  140.6970   76.4710  221.8480 C   0  0  0  0  0  0  0  0  0  0  0  0
  140.3480   77.8790  221.4050 C   0  0  0  0  0  0  0  0  0  0  0  0
  140.9050   78.9350  222.2480 C   0  0  0  0  0  0  0  0  0  0  0  0
  142.3040   79.0470  222.2950 C   0  0  0  0  0  0  0  0  0  0  0  0
  142.9240   80.0100  223.0620 C   0  0  0  0  0  0  0  0  0  0  0  0
  142.1880   80.9070  223.8170 C   0  0  0  0  0  0  0  0  0  0  0  0
  140.8060   80.8130  223.7820 C   0  0  0  0  0  0  0  0  0  0  0  0
  140.2070   79.8300  222.9990 C   0  0  0  0  0  0  0  0  0  0  0  0
  139.8100   71.1480  223.6690 C   0  0  0  0  0  0  0  0  0  0  0  0
  139.5370   69.8110  223.8630 C   0  0  0  0  0  0  0  0  0  0  0  0
  139.7480   69.1800  225.0820 C   0  0  0  0  0  0  0  0  0  0  0  0
  140.2450   69.9430  226.1040 C   0  0  0  0  0  0  0  0  0  0  0  0
  140.4630   69.3390  227.3250 C   0  0  0  0  0  0  0  0  0  0  0  0
  140.9650   70.1010  228.3670 C   0  0  0  0  0  0  0  0  0  0  0  0
  141.2400   71.4490  228.1700 C   0  0  0  0  0  0  0  0  0  0  0  0
  141.0200   72.0470  226.9500 C   0  0  0  0  0  0  0  0  0  0  0  0
  140.5170   71.2920  225.9010 C   0  0  0  0  0  0  0  0  0  0  0  0
  140.2950   71.8500  224.7040 N   0  0  0  0  0  0  0  0  0  0  0  0
  139.2930   73.6870  223.2180 H   0  0  0  0  0  0  0  0  0  0  0  0
  138.2732   73.3327  220.4744 H   0  0  0  0  0  0  0  0  0  0  0  0
  138.7373   74.9020  221.2282 H   0  0  0  0  0  0  0  0  0  0  0  0
  142.9300   73.0199  220.8560 H   0  0  0  0  0  0  0  0  0  0  0  0
  142.5719   73.2689  219.1288 H   0  0  0  0  0  0  0  0  0  0  0  0
  144.1992   74.9666  221.0315 H   0  0  0  0  0  0  0  0  0  0  0  0
  144.6115   74.2981  219.3687 H   0  0  0  0  0  0  0  0  0  0  0  0
  144.3289   76.7770  219.5616 H   0  0  0  0  0  0  0  0  0  0  0  0
  143.3637   75.8737  218.2955 H   0  0  0  0  0  0  0  0  0  0  0  0
  142.4092   77.7168  220.2114 H   0  0  0  0  0  0  0  0  0  0  0  0
  141.4671   76.7197  219.0784 H   0  0  0  0  0  0  0  0  0  0  0  0
  142.5108   75.7147  221.8233 H   0  0  0  0  0  0  0  0  0  0  0  0
  139.7897   75.8524  221.7837 H   0  0  0  0  0  0  0  0  0  0  0  0
  141.0844   76.5452  222.8749 H   0  0  0  0  0  0  0  0  0  0  0  0
  140.7260   78.0209  220.3818 H   0  0  0  0  0  0  0  0  0  0  0  0
  139.2538   77.9670  221.4753 H   0  0  0  0  0  0  0  0  0  0  0  0
  142.9191   78.3504  221.7064 H   0  0  0  0  0  0  0  0  0  0  0  0
  144.0225   80.0667  223.0743 H   0  0  0  0  0  0  0  0  0  0  0  0
  142.6868   81.6736  224.4282 H   0  0  0  0  0  0  0  0  0  0  0  0
  140.1876   81.5090  224.3678 H   0  0  0  0  0  0  0  0  0  0  0  0
  139.1085   79.7736  222.9866 H   0  0  0  0  0  0  0  0  0  0  0  0
  139.1381   69.2233  223.0231 H   0  0  0  0  0  0  0  0  0  0  0  0
  139.5251   68.1118  225.2205 H   0  0  0  0  0  0  0  0  0  0  0  0
  140.2420   68.2710  227.4685 H   0  0  0  0  0  0  0  0  0  0  0  0
  141.1458   69.6399  229.3492 H   0  0  0  0  0  0  0  0  0  0  0  0
  141.6397   72.0473  229.0020 H   0  0  0  0  0  0  0  0  0  0  0  0
  141.2413   73.1151  226.8081 H   0  0  0  0  0  0  0  0  0  0  0  0
  1  2  2  0
  2  3  1  0
  3  4  1  0
  4  5  1  0
  5  6  2  0
  5  7  1  0
  7  8  1  0
  8  9  1  0
  9 10  1  0
 10 11  1  0
 11 12  1  0
 12 13  1  0
 13 14  1  0
 14 15  1  0
 15 16  2  0
 16 17  1  0
 17 18  2  0
 18 19  1  0
 19 20  2  0
  2 21  1  0
 21 22  2  0
 22 23  1  0
 23 24  2  0
 24 25  1  0
 25 26  2  0
 26 27  1  0
 27 28  2  0
 28 29  1  0
 29 30  2  0
 12  7  1  0
 20 15  1  0
 30 21  1  0
 29 24  1  0
  3 31  1  0
  4 32  1  0
  4 33  1  0
  8 34  1  0
  8 35  1  0
  9 36  1  0
  9 37  1  0
 10 38  1  0
 10 39  1  0
 11 40  1  0
 11 41  1  0
 12 42  1  1
 13 43  1  0
 13 44  1  0
 14 45  1  0
 14 46  1  0
 16 47  1  0
 17 48  1  0
 18 49  1  0
 19 50  1  0
 20 51  1  0
 22 52  1  0
 23 53  1  0
 25 54  1  0
 26 55  1  0
 27 56  1  0
 28 57  1  0
M  END
>  <smiles>  (56) 
O=C(NCC(=O)N1CCCCC1CCc1ccccc1)c1ccc2ccccc2n1

>  <score_type>  (56) 
oracle

>  <origin>  (56) 
autodockgpu

>  <m_score__min__energy>  (56) 
-9.4399999999999995

>  <m_primary>  (56) 
energy

>  <rmsd>  (56) 
2.4849989403723853

>  <m_score__min__rmsd>  (56) 
2.4849989403723853

>  <meeko>  (56) 
{"free_energy": -9.1, "intermolecular_energy": -11.18, "internal_energy": -1.74, "cluster_size": 38, "cluster_id": 1, "rank_in_cluster": 8}

>  <energy>  (56) 
-9.2

>  <cluster_rmsd>  (56) 
1.29

>  <cluster>  (56) 
1

$$$$

     RDKit          3D

 57 60  0  0  0  0  0  0  0  0999 V2000
  138.9720   70.8550  221.5850 O   0  0  0  0  0  0  0  0  0  0  0  0
  139.3570   71.4450  222.6230 C   0  0  0  0  0  0  0  0  0  0  0  0
  139.6020   72.8500  222.6820 N   0  0  0  0  0  0  0  0  0  0  0  0
  139.4080   73.7020  221.4850 C   0  0  0  0  0  0  0  0  0  0  0  0
  140.5850   73.6210  220.6080 C   0  0  0  0  0  0  0  0  0  0  0  0
  140.5650   72.6400  219.7690 O   0  0  0  0  0  0  0  0  0  0  0  0
  141.6980   74.4390  220.5550 N   0  0  0  0  0  0  0  0  0  0  0  0
  143.0140   73.7260  220.6070 C   0  0  0  0  0  0  0  0  0  0  0  0
  144.0630   74.6810  220.1060 C   0  0  0  0  0  0  0  0  0  0  0  0
  143.6590   75.5050  218.9260 C   0  0  0  0  0  0  0  0  0  0  0  0
  142.2960   76.1360  219.0580 C   0  0  0  0  0  0  0  0  0  0  0  0
  141.8130   75.8640  220.4690 C   0  0  1  0  0  0  0  0  0  0  0  0
  140.6500   76.6810  220.8680 C   0  0  0  0  0  0  0  0  0  0  0  0
  140.6940   77.1440  222.3120 C   0  0  0  0  0  0  0  0  0  0  0  0
  141.3360   78.4420  222.5130 C   0  0  0  0  0  0  0  0  0  0  0  0
  141.6850   78.7900  223.8270 C   0  0  0  0  0  0  0  0  0  0  0  0
  142.2940   79.9920  224.1180 C   0  0  0  0  0  0  0  0  0  0  0  0
  142.5840   80.9050  223.1190 C   0  0  0  0  0  0  0  0  0  0  0  0
  142.2480   80.5800  221.8160 C   0  0  0  0  0  0  0  0  0  0  0  0
  141.6340   79.3590  221.5510 C   0  0  0  0  0  0  0  0  0  0  0  0
  139.5690   70.6460  223.8480 C   0  0  0  0  0  0  0  0  0  0  0  0
  139.2080   69.3160  223.8870 C   0  0  0  0  0  0  0  0  0  0  0  0
  139.3910   68.5310  225.0180 C   0  0  0  0  0  0  0  0  0  0  0  0
  139.9490   69.1310  226.1130 C   0  0  0  0  0  0  0  0  0  0  0  0
  140.1400   68.3720  227.2490 C   0  0  0  0  0  0  0  0  0  0  0  0
  140.7050   68.9690  228.3640 C   0  0  0  0  0  0  0  0  0  0  0  0
  141.0680   70.3100  228.3240 C   0  0  0  0  0  0  0  0  0  0  0  0
  140.8750   71.0630  227.1880 C   0  0  0  0  0  0  0  0  0  0  0  0
  140.3100   70.4740  226.0670 C   0  0  0  0  0  0  0  0  0  0  0  0
  140.1120   71.1850  224.9490 N   0  0  0  0  0  0  0  0  0  0  0  0
  139.9180   73.2400  223.5860 H   0  0  0  0  0  0  0  0  0  0  0  0
  138.5201   73.3580  220.9342 H   0  0  0  0  0  0  0  0  0  0  0  0
  139.2703   74.7452  221.8055 H   0  0  0  0  0  0  0  0  0  0  0  0
  143.2398   73.4284  221.6416 H   0  0  0  0  0  0  0  0  0  0  0  0
  142.9883   72.8173  219.9876 H   0  0  0  0  0  0  0  0  0  0  0  0
  144.3207   75.3656  220.9275 H   0  0  0  0  0  0  0  0  0  0  0  0
  144.9074   74.0604  219.7715 H   0  0  0  0  0  0  0  0  0  0  0  0
  144.4003   76.3068  218.7936 H   0  0  0  0  0  0  0  0  0  0  0  0
  143.6131   74.8247  218.0628 H   0  0  0  0  0  0  0  0  0  0  0  0
  142.3639   77.2202  218.8850 H   0  0  0  0  0  0  0  0  0  0  0  0
  141.5979   75.7177  218.3180 H   0  0  0  0  0  0  0  0  0  0  0  0
  142.5199   76.2012  221.2414 H   0  0  0  0  0  0  0  0  0  0  0  0
  140.6112   77.5690  220.2200 H   0  0  0  0  0  0  0  0  0  0  0  0
  139.7594   76.0440  220.7626 H   0  0  0  0  0  0  0  0  0  0  0  0
  139.6606   77.2106  222.6831 H   0  0  0  0  0  0  0  0  0  0  0  0
  141.3006   76.4069  222.8586 H   0  0  0  0  0  0  0  0  0  0  0  0
  141.4674   78.0868  224.6444 H   0  0  0  0  0  0  0  0  0  0  0  0
  142.5535   80.2292  225.1603 H   0  0  0  0  0  0  0  0  0  0  0  0
  143.0689   81.8639  223.3543 H   0  0  0  0  0  0  0  0  0  0  0  0
  142.4645   81.2810  220.9964 H   0  0  0  0  0  0  0  0  0  0  0  0
  141.3756   79.1220  220.5084 H   0  0  0  0  0  0  0  0  0  0  0  0
  138.7596   68.8609  222.9915 H   0  0  0  0  0  0  0  0  0  0  0  0
  139.0992   67.4705  225.0325 H   0  0  0  0  0  0  0  0  0  0  0  0
  139.8488   67.3114  227.2690 H   0  0  0  0  0  0  0  0  0  0  0  0
  140.8662   68.3822  229.2803 H   0  0  0  0  0  0  0  0  0  0  0  0
  141.5163   70.7766  229.2136 H   0  0  0  0  0  0  0  0  0  0  0  0
  141.1666   72.1235  227.1696 H   0  0  0  0  0  0  0  0  0  0  0  0
  1  2  2  0
  2  3  1  0
  3  4  1  0
  4  5  1  0
  5  6  2  0
  5  7  1  0
  7  8  1  0
  8  9  1  0
  9 10  1  0
 10 11  1  0
 11 12  1  0
 12 13  1  0
 13 14  1  0
 14 15  1  0
 15 16  2  0
 16 17  1  0
 17 18  2  0
 18 19  1  0
 19 20  2  0
  2 21  1  0
 21 22  2  0
 22 23  1  0
 23 24  2  0
 24 25  1  0
 25 26  2  0
 26 27  1  0
 27 28  2  0
 28 29  1  0
 29 30  2  0
 12  7  1  0
 20 15  1  0
 30 21  1  0
 29 24  1  0
  3 31  1  0
  4 32  1  0
  4 33  1  0
  8 34  1  0
  8 35  1  0
  9 36  1  0
  9 37  1  0
 10 38  1  0
 10 39  1  0
 11 40  1  0
 11 41  1  0
 12 42  1  1
 13 43  1  0
 13 44  1  0
 14 45  1  0
 14 46  1  0
 16 47  1  0
 17 48  1  0
 18 49  1  0
 19 50  1  0
 20 51  1  0
 22 52  1  0
 23 53  1  0
 25 54  1  0
 26 55  1  0
 27 56  1  0
 28 57  1  0
M  END
>  <smiles>  (57) 
O=C(NCC(=O)N1CCCCC1CCc1ccccc1)c1ccc2ccccc2n1

>  <score_type>  (57) 
oracle

>  <origin>  (57) 
autodockgpu

>  <m_score__min__energy>  (57) 
-9.4399999999999995

>  <m_primary>  (57) 
energy

>  <rmsd>  (57) 
2.3939022111339634

>  <m_score__min__rmsd>  (57) 
2.3939022111339634

>  <meeko>  (57) 
{"free_energy": -9.09, "intermolecular_energy": -11.17, "internal_energy": -1.74, "cluster_size": 38, "cluster_id": 1, "rank_in_cluster": 9}

>  <energy>  (57) 
-9.14

>  <cluster_rmsd>  (57) 
1.15

>  <cluster>  (57) 
1

$$$$

     RDKit          3D

 57 60  0  0  0  0  0  0  0  0999 V2000
  141.3640   71.6780  221.5440 O   0  0  0  0  0  0  0  0  0  0  0  0
  140.6350   72.1830  222.4320 C   0  0  0  0  0  0  0  0  0  0  0  0
  140.0940   73.5010  222.3480 N   0  0  0  0  0  0  0  0  0  0  0  0
  140.3780   74.3600  221.1740 C   0  0  0  0  0  0  0  0  0  0  0  0
  140.4050   75.7750  221.5760 C   0  0  0  0  0  0  0  0  0  0  0  0
  139.5920   76.0800  222.5300 O   0  0  0  0  0  0  0  0  0  0  0  0
  141.1730   76.8130  221.0810 N   0  0  0  0  0  0  0  0  0  0  0  0
  141.8100   76.5540  219.7510 C   0  0  0  0  0  0  0  0  0  0  0  0
  142.2160   77.8840  219.1800 C   0  0  0  0  0  0  0  0  0  0  0  0
  141.2260   78.9880  219.3770 C   0  0  0  0  0  0  0  0  0  0  0  0
  140.6910   79.0840  220.7840 C   0  0  0  0  0  0  0  0  0  0  0  0
  141.4770   78.1010  221.6290 C   0  0  1  0  0  0  0  0  0  0  0  0
  141.3070   78.2960  223.0820 C   0  0  0  0  0  0  0  0  0  0  0  0
  140.7910   79.6730  223.4590 C   0  0  0  0  0  0  0  0  0  0  0  0
  139.3350   79.7680  223.5570 C   0  0  0  0  0  0  0  0  0  0  0  0
  138.8090   80.8840  224.2260 C   0  0  0  0  0  0  0  0  0  0  0  0
  137.4500   81.0620  224.3710 C   0  0  0  0  0  0  0  0  0  0  0  0
  136.5500   80.1440  223.8590 C   0  0  0  0  0  0  0  0  0  0  0  0
  137.0500   79.0370  223.1940 C   0  0  0  0  0  0  0  0  0  0  0  0
  138.4270   78.8820  223.0630 C   0  0  0  0  0  0  0  0  0  0  0  0
  140.3190   71.3720  223.6260 C   0  0  0  0  0  0  0  0  0  0  0  0
  139.6170   70.1920  223.5050 C   0  0  0  0  0  0  0  0  0  0  0  0
  139.3010   69.4010  224.6010 C   0  0  0  0  0  0  0  0  0  0  0  0
  139.7140   69.8400  225.8290 C   0  0  0  0  0  0  0  0  0  0  0  0
  139.4110   69.0720  226.9350 C   0  0  0  0  0  0  0  0  0  0  0  0
  139.8250   69.5060  228.1840 C   0  0  0  0  0  0  0  0  0  0  0  0
  140.5320   70.6960  228.3050 C   0  0  0  0  0  0  0  0  0  0  0  0
  140.8320   71.4580  227.1990 C   0  0  0  0  0  0  0  0  0  0  0  0
  140.4220   71.0320  225.9450 C   0  0  0  0  0  0  0  0  0  0  0  0
  140.7010   71.7560  224.8530 N   0  0  0  0  0  0  0  0  0  0  0  0
  139.5050   73.8230  223.1330 H   0  0  0  0  0  0  0  0  0  0  0  0
  141.3544   74.0840  220.7492 H   0  0  0  0  0  0  0  0  0  0  0  0
  139.5878   74.2147  220.4227 H   0  0  0  0  0  0  0  0  0  0  0  0
  142.6950   75.9129  219.8765 H   0  0  0  0  0  0  0  0  0  0  0  0
  141.1079   76.0404  219.0777 H   0  0  0  0  0  0  0  0  0  0  0  0
  143.1611   78.1849  219.6557 H   0  0  0  0  0  0  0  0  0  0  0  0
  142.2997   77.7380  218.0929 H   0  0  0  0  0  0  0  0  0  0  0  0
  141.7151   79.9409  219.1265 H   0  0  0  0  0  0  0  0  0  0  0  0
  140.3688   78.7692  218.7232 H   0  0  0  0  0  0  0  0  0  0  0  0
  140.8259   80.1052  221.1699 H   0  0  0  0  0  0  0  0  0  0  0  0
  139.6164   78.8506  220.8105 H   0  0  0  0  0  0  0  0  0  0  0  0
  142.5649   78.2536  221.5717 H   0  0  0  0  0  0  0  0  0  0  0  0
  140.5933   77.5450  223.4516 H   0  0  0  0  0  0  0  0  0  0  0  0
  142.3025   78.1909  223.5380 H   0  0  0  0  0  0  0  0  0  0  0  0
  141.2197   79.9455  224.4347 H   0  0  0  0  0  0  0  0  0  0  0  0
  141.0957   80.3539  222.6506 H   0  0  0  0  0  0  0  0  0  0  0  0
  139.4970   81.6336  224.6441 H   0  0  0  0  0  0  0  0  0  0  0  0
  137.0745   81.9487  224.9027 H   0  0  0  0  0  0  0  0  0  0  0  0
  135.4661   80.2897  223.9771 H   0  0  0  0  0  0  0  0  0  0  0  0
  136.3648   78.2866  222.7729 H   0  0  0  0  0  0  0  0  0  0  0  0
  138.8021   77.9951  222.5313 H   0  0  0  0  0  0  0  0  0  0  0  0
  139.2959   69.8657  222.5048 H   0  0  0  0  0  0  0  0  0  0  0  0
  138.7419   68.4606  224.4869 H   0  0  0  0  0  0  0  0  0  0  0  0
  138.8506   68.1317  226.8268 H   0  0  0  0  0  0  0  0  0  0  0  0
  139.5942   68.9092  229.0787 H   0  0  0  0  0  0  0  0  0  0  0  0
  140.8569   71.0342  229.3000 H   0  0  0  0  0  0  0  0  0  0  0  0
  141.3928   72.3979  227.3091 H   0  0  0  0  0  0  0  0  0  0  0  0
  1  2  2  0
  2  3  1  0
  3  4  1  0
  4  5  1  0
  5  6  2  0
  5  7  1  0
  7  8  1  0
  8  9  1  0
  9 10  1  0
 10 11  1  0
 11 12  1  0
 12 13  1  0
 13 14  1  0
 14 15  1  0
 15 16  2  0
 16 17  1  0
 17 18  2  0
 18 19  1  0
 19 20  2  0
  2 21  1  0
 21 22  2  0
 22 23  1  0
 23 24  2  0
 24 25  1  0
 25 26  2  0
 26 27  1  0
 27 28  2  0
 28 29  1  0
 29 30  2  0
 12  7  1  0
 20 15  1  0
 30 21  1  0
 29 24  1  0
  3 31  1  0
  4 32  1  0
  4 33  1  0
  8 34  1  0
  8 35  1  0
  9 36  1  0
  9 37  1  0
 10 38  1  0
 10 39  1  0
 11 40  1  0
 11 41  1  0
 12 42  1  1
 13 43  1  0
 13 44  1  0
 14 45  1  0
 14 46  1  0
 16 47  1  0
 17 48  1  0
 18 49  1  0
 19 50  1  0
 20 51  1  0
 22 52  1  0
 23 53  1  0
 25 54  1  0
 26 55  1  0
 27 56  1  0
 28 57  1  0
M  END
>  <smiles>  (58) 
O=C(NCC(=O)N1CCCCC1CCc1ccccc1)c1ccc2ccccc2n1

>  <score_type>  (58) 
oracle

>  <origin>  (58) 
autodockgpu

>  <m_score__min__energy>  (58) 
-9.4399999999999995

>  <m_primary>  (58) 
energy

>  <rmsd>  (58) 
2.5738150297137032

>  <m_score__min__rmsd>  (58) 
2.5738150297137032

>  <meeko>  (58) 
{"free_energy": -8.72, "intermolecular_energy": -10.81, "internal_energy": -1.89, "cluster_size": 38, "cluster_id": 1, "rank_in_cluster": 28}

>  <energy>  (58) 
-9.1

>  <cluster_rmsd>  (58) 
1.29

>  <cluster>  (58) 
1

$$$$

     RDKit          3D

 57 60  0  0  0  0  0  0  0  0999 V2000
  140.1010   71.1810  221.2230 O   0  0  0  0  0  0  0  0  0  0  0  0
  140.0190   71.8730  222.2660 C   0  0  0  0  0  0  0  0  0  0  0  0
  139.8980   73.2960  222.2560 N   0  0  0  0  0  0  0  0  0  0  0  0
  139.8640   74.0420  220.9760 C   0  0  0  0  0  0  0  0  0  0  0  0
  140.2740   75.4370  221.1920 C   0  0  0  0  0  0  0  0  0  0  0  0
  140.7710   75.6790  222.3580 O   0  0  0  0  0  0  0  0  0  0  0  0
  140.2050   76.5160  220.3290 N   0  0  0  0  0  0  0  0  0  0  0  0
  138.8220   76.9100  219.9140 C   0  0  0  0  0  0  0  0  0  0  0  0
  138.8970   78.3080  219.3660 C   0  0  0  0  0  0  0  0  0  0  0  0
  139.7880   79.2390  220.1250 C   0  0  0  0  0  0  0  0  0  0  0  0
  141.1390   78.6580  220.4570 C   0  0  0  0  0  0  0  0  0  0  0  0
  141.2370   77.3220  219.7480 C   0  0  1  0  0  0  0  0  0  0  0  0
  142.6060   76.7720  219.7010 C   0  0  0  0  0  0  0  0  0  0  0  0
  142.6780   75.3540  219.1650 C   0  0  0  0  0  0  0  0  0  0  0  0
  143.6160   74.4860  219.8740 C   0  0  0  0  0  0  0  0  0  0  0  0
  143.2510   73.1390  220.0320 C   0  0  0  0  0  0  0  0  0  0  0  0
  144.0670   72.2430  220.6860 C   0  0  0  0  0  0  0  0  0  0  0  0
  145.2840   72.6380  221.2150 C   0  0  0  0  0  0  0  0  0  0  0  0
  145.6620   73.9630  221.0690 C   0  0  0  0  0  0  0  0  0  0  0  0
  144.8170   74.8460  220.4040 C   0  0  0  0  0  0  0  0  0  0  0  0
  140.0470   71.1830  223.5730 C   0  0  0  0  0  0  0  0  0  0  0  0
  139.5770   69.8930  223.6930 C   0  0  0  0  0  0  0  0  0  0  0  0
  139.5870   69.2090  224.9010 C   0  0  0  0  0  0  0  0  0  0  0  0
  140.0860   69.8700  225.9900 C   0  0  0  0  0  0  0  0  0  0  0  0
  140.1060   69.2120  227.2020 C   0  0  0  0  0  0  0  0  0  0  0  0
  140.6090   69.8720  228.3120 C   0  0  0  0  0  0  0  0  0  0  0  0
  141.0830   71.1720  228.1900 C   0  0  0  0  0  0  0  0  0  0  0  0
  141.0610   71.8240  226.9780 C   0  0  0  0  0  0  0  0  0  0  0  0
  140.5580   71.1730  225.8620 C   0  0  0  0  0  0  0  0  0  0  0  0
  140.5260   71.7850  224.6710 N   0  0  0  0  0  0  0  0  0  0  0  0
  139.8360   73.7730  223.1700 H   0  0  0  0  0  0  0  0  0  0  0  0
  140.5515   73.5676  220.2603 H   0  0  0  0  0  0  0  0  0  0  0  0
  138.8387   74.0261  220.5777 H   0  0  0  0  0  0  0  0  0  0  0  0
  138.4517   76.2222  219.1396 H   0  0  0  0  0  0  0  0  0  0  0  0
  138.1326   76.8653  220.7700 H   0  0  0  0  0  0  0  0  0  0  0  0
  139.2670   78.2494  218.3317 H   0  0  0  0  0  0  0  0  0  0  0  0
  137.8814   78.7232  219.4445 H   0  0  0  0  0  0  0  0  0  0  0  0
  139.9399   80.1441  219.5186 H   0  0  0  0  0  0  0  0  0  0  0  0
  139.2878   79.4501  221.0817 H   0  0  0  0  0  0  0  0  0  0  0  0
  141.9354   79.3306  220.1059 H   0  0  0  0  0  0  0  0  0  0  0  0
  141.2549   78.5335  221.5438 H   0  0  0  0  0  0  0  0  0  0  0  0
  141.0538   77.3911  218.6656 H   0  0  0  0  0  0  0  0  0  0  0  0
  143.2176   77.4186  219.0546 H   0  0  0  0  0  0  0  0  0  0  0  0
  142.9752   76.7423  220.7368 H   0  0  0  0  0  0  0  0  0  0  0  0
  141.6751   74.9079  219.2371 H   0  0  0  0  0  0  0  0  0  0  0  0
  143.0416   75.4286  218.1295 H   0  0  0  0  0  0  0  0  0  0  0  0
  142.2905   72.7915  219.6236 H   0  0  0  0  0  0  0  0  0  0  0  0
  143.7465   71.1959  220.7899 H   0  0  0  0  0  0  0  0  0  0  0  0
  145.9331   71.9195  221.7370 H   0  0  0  0  0  0  0  0  0  0  0  0
  146.6221   74.3139  221.4754 H   0  0  0  0  0  0  0  0  0  0  0  0
  145.1373   75.8933  220.3008 H   0  0  0  0  0  0  0  0  0  0  0  0
  139.1800   69.3876  222.8003 H   0  0  0  0  0  0  0  0  0  0  0  0
  139.2096   68.1788  224.9793 H   0  0  0  0  0  0  0  0  0  0  0  0
  139.7295   68.1819  227.2861 H   0  0  0  0  0  0  0  0  0  0  0  0
  140.6328   69.3668  229.2888 H   0  0  0  0  0  0  0  0  0  0  0  0
  141.4820   71.6883  229.0756 H   0  0  0  0  0  0  0  0  0  0  0  0
  141.4396   72.8535  226.8955 H   0  0  0  0  0  0  0  0  0  0  0  0
  1  2  2  0
  2  3  1  0
  3  4  1  0
  4  5  1  0
  5  6  2  0
  5  7  1  0
  7  8  1  0
  8  9  1  0
  9 10  1  0
 10 11  1  0
 11 12  1  0
 12 13  1  0
 13 14  1  0
 14 15  1  0
 15 16  2  0
 16 17  1  0
 17 18  2  0
 18 19  1  0
 19 20  2  0
  2 21  1  0
 21 22  2  0
 22 23  1  0
 23 24  2  0
 24 25  1  0
 25 26  2  0
 26 27  1  0
 27 28  2  0
 28 29  1  0
 29 30  2  0
 12  7  1  0
 20 15  1  0
 30 21  1  0
 29 24  1  0
  3 31  1  0
  4 32  1  0
  4 33  1  0
  8 34  1  0
  8 35  1  0
  9 36  1  0
  9 37  1  0
 10 38  1  0
 10 39  1  0
 11 40  1  0
 11 41  1  0
 12 42  1  6
 13 43  1  0
 13 44  1  0
 14 45  1  0
 14 46  1  0
 16 47  1  0
 17 48  1  0
 18 49  1  0
 19 50  1  0
 20 51  1  0
 22 52  1  0
 23 53  1  0
 25 54  1  0
 26 55  1  0
 27 56  1  0
 28 57  1  0
M  END
>  <smiles>  (59) 
O=C(NCC(=O)N1CCCCC1CCc1ccccc1)c1ccc2ccccc2n1

>  <score_type>  (59) 
oracle

>  <origin>  (59) 
autodockgpu

>  <m_score__min__energy>  (59) 
-9.4399999999999995

>  <m_primary>  (59) 
energy

>  <rmsd>  (59) 
1.9073534244423553

>  <m_score__min__rmsd>  (59) 
1.9073534244423553

>  <meeko>  (59) 
{"free_energy": -8.17, "intermolecular_energy": -10.26, "internal_energy": -2.47, "cluster_size": 8, "cluster_id": 3, "rank_in_cluster": 5}

>  <energy>  (59) 
-9.09

>  <cluster_rmsd>  (59) 
1.17

>  <cluster>  (59) 
1

$$$$

     RDKit          3D

 57 60  0  0  0  0  0  0  0  0999 V2000
  141.1800   71.5330  221.5620 O   0  0  0  0  0  0  0  0  0  0  0  0
  140.4710   72.0050  222.4830 C   0  0  0  0  0  0  0  0  0  0  0  0
  139.8720   73.3000  222.4280 N   0  0  0  0  0  0  0  0  0  0  0  0
  140.0670   74.1720  221.2460 C   0  0  0  0  0  0  0  0  0  0  0  0
  139.9170   75.5850  221.6280 C   0  0  0  0  0  0  0  0  0  0  0  0
  139.2710   75.7800  222.7280 O   0  0  0  0  0  0  0  0  0  0  0  0
  140.3670   76.7210  220.9810 N   0  0  0  0  0  0  0  0  0  0  0  0
  141.7760   76.6510  220.4820 C   0  0  0  0  0  0  0  0  0  0  0  0
  141.9460   77.7410  219.4590 C   0  0  0  0  0  0  0  0  0  0  0  0
  140.7880   77.9230  218.5290 C   0  0  0  0  0  0  0  0  0  0  0  0
  139.4490   77.9610  219.2210 C   0  0  0  0  0  0  0  0  0  0  0  0
  139.7170   77.9690  220.7130 C   0  0  1  0  0  0  0  0  0  0  0  0
  138.5400   78.3290  221.5270 C   0  0  0  0  0  0  0  0  0  0  0  0
  138.8810   78.7500  222.9440 C   0  0  0  0  0  0  0  0  0  0  0  0
  140.1830   79.3990  223.0860 C   0  0  0  0  0  0  0  0  0  0  0  0
  140.2390   80.7820  222.8570 C   0  0  0  0  0  0  0  0  0  0  0  0
  141.4210   81.4840  222.9650 C   0  0  0  0  0  0  0  0  0  0  0  0
  142.6010   80.8470  223.3060 C   0  0  0  0  0  0  0  0  0  0  0  0
  142.5660   79.4820  223.5370 C   0  0  0  0  0  0  0  0  0  0  0  0
  141.3590   78.7990  223.4210 C   0  0  0  0  0  0  0  0  0  0  0  0
  140.2420   71.1800  223.6880 C   0  0  0  0  0  0  0  0  0  0  0  0
  139.5690   69.9800  223.5960 C   0  0  0  0  0  0  0  0  0  0  0  0
  139.3340   69.1750  224.7030 C   0  0  0  0  0  0  0  0  0  0  0  0
  139.8000   69.6200  225.9100 C   0  0  0  0  0  0  0  0  0  0  0  0
  139.5780   68.8380  227.0250 C   0  0  0  0  0  0  0  0  0  0  0  0
  140.0450   69.2780  228.2530 C   0  0  0  0  0  0  0  0  0  0  0  0
  140.7230   70.4880  228.3450 C   0  0  0  0  0  0  0  0  0  0  0  0
  140.9410   71.2640  227.2290 C   0  0  0  0  0  0  0  0  0  0  0  0
  140.4770   70.8320  225.9950 C   0  0  0  0  0  0  0  0  0  0  0  0
  140.6770   71.5690  224.8950 N   0  0  0  0  0  0  0  0  0  0  0  0
  139.3050   73.5960  223.2390 H   0  0  0  0  0  0  0  0  0  0  0  0
  141.0757   74.0109  220.8378 H   0  0  0  0  0  0  0  0  0  0  0  0
  139.3110   73.9227  220.4869 H   0  0  0  0  0  0  0  0  0  0  0  0
  142.4779   76.8044  221.3150 H   0  0  0  0  0  0  0  0  0  0  0  0
  141.9821   75.6660  220.0378 H   0  0  0  0  0  0  0  0  0  0  0  0
  142.1061   78.6888  219.9939 H   0  0  0  0  0  0  0  0  0  0  0  0
  142.7994   77.4432  218.8320 H   0  0  0  0  0  0  0  0  0  0  0  0
  140.9247   78.8703  217.9869 H   0  0  0  0  0  0  0  0  0  0  0  0
  140.7765   77.0508  217.8588 H   0  0  0  0  0  0  0  0  0  0  0  0
  138.9006   78.8695  218.9315 H   0  0  0  0  0  0  0  0  0  0  0  0
  138.8379   77.0912  218.9382 H   0  0  0  0  0  0  0  0  0  0  0  0
  140.3866   78.7826  221.0288 H   0  0  0  0  0  0  0  0  0  0  0  0
  138.0189   79.1626  221.0335 H   0  0  0  0  0  0  0  0  0  0  0  0
  137.9147   77.4271  221.6025 H   0  0  0  0  0  0  0  0  0  0  0  0
  138.1076   79.4518  223.2896 H   0  0  0  0  0  0  0  0  0  0  0  0
  138.9235   77.8283  223.5429 H   0  0  0  0  0  0  0  0  0  0  0  0
  139.3184   81.3190  222.5849 H   0  0  0  0  0  0  0  0  0  0  0  0
  141.4258   82.5678  222.7770 H   0  0  0  0  0  0  0  0  0  0  0  0
  143.5421   81.4100  223.3914 H   0  0  0  0  0  0  0  0  0  0  0  0
  143.4847   78.9421  223.8099 H   0  0  0  0  0  0  0  0  0  0  0  0
  141.3545   77.7154  223.6102 H   0  0  0  0  0  0  0  0  0  0  0  0
  139.2058   69.6489  222.6119 H   0  0  0  0  0  0  0  0  0  0  0  0
  138.7959   68.2198  224.6132 H   0  0  0  0  0  0  0  0  0  0  0  0
  139.0399   67.8823  226.9404 H   0  0  0  0  0  0  0  0  0  0  0  0
  139.8793   68.6701  229.1547 H   0  0  0  0  0  0  0  0  0  0  0  0
  141.0906   70.8304  229.3236 H   0  0  0  0  0  0  0  0  0  0  0  0
  141.4791   72.2195  227.3151 H   0  0  0  0  0  0  0  0  0  0  0  0
  1  2  2  0
  2  3  1  0
  3  4  1  0
  4  5  1  0
  5  6  2  0
  5  7  1  0
  7  8  1  0
  8  9  1  0
  9 10  1  0
 10 11  1  0
 11 12  1  0
 12 13  1  0
 13 14  1  0
 14 15  1  0
 15 16  2  0
 16 17  1  0
 17 18  2  0
 18 19  1  0
 19 20  2  0
  2 21  1  0
 21 22  2  0
 22 23  1  0
 23 24  2  0
 24 25  1  0
 25 26  2  0
 26 27  1  0
 27 28  2  0
 28 29  1  0
 29 30  2  0
 12  7  1  0
 20 15  1  0
 30 21  1  0
 29 24  1  0
  3 31  1  0
  4 32  1  0
  4 33  1  0
  8 34  1  0
  8 35  1  0
  9 36  1  0
  9 37  1  0
 10 38  1  0
 10 39  1  0
 11 40  1  0
 11 41  1  0
 12 42  1  6
 13 43  1  0
 13 44  1  0
 14 45  1  0
 14 46  1  0
 16 47  1  0
 17 48  1  0
 18 49  1  0
 19 50  1  0
 20 51  1  0
 22 52  1  0
 23 53  1  0
 25 54  1  0
 26 55  1  0
 27 56  1  0
 28 57  1  0
M  END
>  <smiles>  (60) 
O=C(NCC(=O)N1CCCCC1CCc1ccccc1)c1ccc2ccccc2n1

>  <score_type>  (60) 
oracle

>  <origin>  (60) 
autodockgpu

>  <m_score__min__energy>  (60) 
-9.4399999999999995

>  <m_primary>  (60) 
energy

>  <rmsd>  (60) 
2.413160421393545

>  <m_score__min__rmsd>  (60) 
2.413160421393545

>  <meeko>  (60) 
{"free_energy": -8.96, "intermolecular_energy": -11.04, "internal_energy": -2.31, "cluster_size": 38, "cluster_id": 1, "rank_in_cluster": 15}

>  <energy>  (60) 
-9.08

>  <cluster_rmsd>  (60) 
1.36

>  <cluster>  (60) 
1

$$$$

     RDKit          3D

 57 60  0  0  0  0  0  0  0  0999 V2000
  141.1080   71.7640  221.4080 O   0  0  0  0  0  0  0  0  0  0  0  0
  140.4860   72.2810  222.3670 C   0  0  0  0  0  0  0  0  0  0  0  0
  139.9810   73.6160  222.3470 N   0  0  0  0  0  0  0  0  0  0  0  0
  140.1750   74.4780  221.1570 C   0  0  0  0  0  0  0  0  0  0  0  0
  140.1010   75.8960  221.5400 C   0  0  0  0  0  0  0  0  0  0  0  0
  139.6250   76.1110  222.7200 O   0  0  0  0  0  0  0  0  0  0  0  0
  140.4690   77.0190  220.8230 N   0  0  0  0  0  0  0  0  0  0  0  0
  141.8840   77.0270  220.3350 C   0  0  0  0  0  0  0  0  0  0  0  0
  141.9790   78.0580  219.2440 C   0  0  0  0  0  0  0  0  0  0  0  0
  140.8200   78.0880  218.2990 C   0  0  0  0  0  0  0  0  0  0  0  0
  139.4750   78.0670  218.9800 C   0  0  0  0  0  0  0  0  0  0  0  0
  139.7270   78.1930  220.4700 C   0  0  1  0  0  0  0  0  0  0  0  0
  138.5170   78.5130  221.2540 C   0  0  0  0  0  0  0  0  0  0  0  0
  138.7540   79.5230  222.3610 C   0  0  0  0  0  0  0  0  0  0  0  0
  140.1630   79.8120  222.6260 C   0  0  0  0  0  0  0  0  0  0  0  0
  140.8390   78.9550  223.5080 C   0  0  0  0  0  0  0  0  0  0  0  0
  142.1670   79.1460  223.8220 C   0  0  0  0  0  0  0  0  0  0  0  0
  142.8880   80.1930  223.2750 C   0  0  0  0  0  0  0  0  0  0  0  0
  142.2380   81.0490  222.4010 C   0  0  0  0  0  0  0  0  0  0  0  0
  140.8960   80.8330  222.1030 C   0  0  0  0  0  0  0  0  0  0  0  0
  140.2640   71.4680  223.5820 C   0  0  0  0  0  0  0  0  0  0  0  0
  139.6220   70.2510  223.5010 C   0  0  0  0  0  0  0  0  0  0  0  0
  139.3940   69.4570  224.6170 C   0  0  0  0  0  0  0  0  0  0  0  0
  139.8340   69.9310  225.8220 C   0  0  0  0  0  0  0  0  0  0  0  0
  139.6190   69.1610  226.9460 C   0  0  0  0  0  0  0  0  0  0  0  0
  140.0600   69.6300  228.1730 C   0  0  0  0  0  0  0  0  0  0  0  0
  140.7070   70.8570  228.2530 C   0  0  0  0  0  0  0  0  0  0  0  0
  140.9190   71.6230  227.1290 C   0  0  0  0  0  0  0  0  0  0  0  0
  140.4810   71.1610  225.8970 C   0  0  0  0  0  0  0  0  0  0  0  0
  140.6750   71.8860  224.7880 N   0  0  0  0  0  0  0  0  0  0  0  0
  139.4820   73.9480  223.1880 H   0  0  0  0  0  0  0  0  0  0  0  0
  141.1613   74.2717  220.7157 H   0  0  0  0  0  0  0  0  0  0  0  0
  139.3834   74.2621  220.4243 H   0  0  0  0  0  0  0  0  0  0  0  0
  142.5642   77.2882  221.1591 H   0  0  0  0  0  0  0  0  0  0  0  0
  142.1694   76.0344  219.9566 H   0  0  0  0  0  0  0  0  0  0  0  0
  142.0596   79.0481  219.7164 H   0  0  0  0  0  0  0  0  0  0  0  0
  142.8592   77.7879  218.6420 H   0  0  0  0  0  0  0  0  0  0  0  0
  140.8885   79.0055  217.6961 H   0  0  0  0  0  0  0  0  0  0  0  0
  140.8826   77.1753  217.6883 H   0  0  0  0  0  0  0  0  0  0  0  0
  138.8611   78.9094  218.6287 H   0  0  0  0  0  0  0  0  0  0  0  0
  138.9354   77.1360  218.7518 H   0  0  0  0  0  0  0  0  0  0  0  0
  140.3287   79.0751  220.7343 H   0  0  0  0  0  0  0  0  0  0  0  0
  137.7580   78.9201  220.5697 H   0  0  0  0  0  0  0  0  0  0  0  0
  138.1916   77.5795  221.7363 H   0  0  0  0  0  0  0  0  0  0  0  0
  138.2571   80.4634  222.0804 H   0  0  0  0  0  0  0  0  0  0  0  0
  138.3467   79.0798  223.2817 H   0  0  0  0  0  0  0  0  0  0  0  0
  140.2962   78.1113  223.9591 H   0  0  0  0  0  0  0  0  0  0  0  0
  142.6625   78.4545  224.5194 H   0  0  0  0  0  0  0  0  0  0  0  0
  143.9483   80.3414  223.5273 H   0  0  0  0  0  0  0  0  0  0  0  0
  142.7782   81.8925  221.9463 H   0  0  0  0  0  0  0  0  0  0  0  0
  140.4002   81.5253  221.4066 H   0  0  0  0  0  0  0  0  0  0  0  0
  139.2783   69.8965  222.5181 H   0  0  0  0  0  0  0  0  0  0  0  0
  138.8810   68.4874  224.5353 H   0  0  0  0  0  0  0  0  0  0  0  0
  139.1061   68.1909  226.8696 H   0  0  0  0  0  0  0  0  0  0  0  0
  139.8982   69.0321  229.0820 H   0  0  0  0  0  0  0  0  0  0  0  0
  141.0555   71.2222  229.2303 H   0  0  0  0  0  0  0  0  0  0  0  0
  141.4314   72.5932  227.2074 H   0  0  0  0  0  0  0  0  0  0  0  0
  1  2  2  0
  2  3  1  0
  3  4  1  0
  4  5  1  0
  5  6  2  0
  5  7  1  0
  7  8  1  0
  8  9  1  0
  9 10  1  0
 10 11  1  0
 11 12  1  0
 12 13  1  0
 13 14  1  0
 14 15  1  0
 15 16  2  0
 16 17  1  0
 17 18  2  0
 18 19  1  0
 19 20  2  0
  2 21  1  0
 21 22  2  0
 22 23  1  0
 23 24  2  0
 24 25  1  0
 25 26  2  0
 26 27  1  0
 27 28  2  0
 28 29  1  0
 29 30  2  0
 12  7  1  0
 20 15  1  0
 30 21  1  0
 29 24  1  0
  3 31  1  0
  4 32  1  0
  4 33  1  0
  8 34  1  0
  8 35  1  0
  9 36  1  0
  9 37  1  0
 10 38  1  0
 10 39  1  0
 11 40  1  0
 11 41  1  0
 12 42  1  6
 13 43  1  0
 13 44  1  0
 14 45  1  0
 14 46  1  0
 16 47  1  0
 17 48  1  0
 18 49  1  0
 19 50  1  0
 20 51  1  0
 22 52  1  0
 23 53  1  0
 25 54  1  0
 26 55  1  0
 27 56  1  0
 28 57  1  0
M  END
>  <smiles>  (61) 
O=C(NCC(=O)N1CCCCC1CCc1ccccc1)c1ccc2ccccc2n1

>  <score_type>  (61) 
oracle

>  <origin>  (61) 
autodockgpu

>  <m_score__min__energy>  (61) 
-9.4399999999999995

>  <m_primary>  (61) 
energy

>  <rmsd>  (61) 
2.489955714092967

>  <m_score__min__rmsd>  (61) 
2.489955714092967

>  <meeko>  (61) 
{"free_energy": -8.75, "intermolecular_energy": -10.84, "internal_energy": -2.53, "cluster_size": 38, "cluster_id": 1, "rank_in_cluster": 25}

>  <energy>  (61) 
-9.05

>  <cluster_rmsd>  (61) 
1.38

>  <cluster>  (61) 
1

$$$$

     RDKit          3D

 57 60  0  0  0  0  0  0  0  0999 V2000
  140.9650   71.4930  221.4240 O   0  0  0  0  0  0  0  0  0  0  0  0
  140.4310   72.0910  222.3890 C   0  0  0  0  0  0  0  0  0  0  0  0
  140.0040   73.4520  222.3300 N   0  0  0  0  0  0  0  0  0  0  0  0
  140.1760   74.2440  221.0890 C   0  0  0  0  0  0  0  0  0  0  0  0
  140.3480   75.6680  221.4160 C   0  0  0  0  0  0  0  0  0  0  0  0
  140.0460   75.9820  222.6310 O   0  0  0  0  0  0  0  0  0  0  0  0
  140.7830   76.7060  220.6140 N   0  0  0  0  0  0  0  0  0  0  0  0
  142.1940   76.5840  220.1280 C   0  0  0  0  0  0  0  0  0  0  0  0
  142.3500   77.5190  218.9600 C   0  0  0  0  0  0  0  0  0  0  0  0
  141.1910   77.5520  218.0150 C   0  0  0  0  0  0  0  0  0  0  0  0
  139.8500   77.6700  218.6960 C   0  0  0  0  0  0  0  0  0  0  0  0
  140.1170   77.8950  220.1710 C   0  0  1  0  0  0  0  0  0  0  0  0
  138.9350   78.3510  220.9270 C   0  0  0  0  0  0  0  0  0  0  0  0
  139.1330   79.6830  221.6280 C   0  0  0  0  0  0  0  0  0  0  0  0
  140.3730   79.7850  222.3940 C   0  0  0  0  0  0  0  0  0  0  0  0
  141.3340   80.7020  221.9410 C   0  0  0  0  0  0  0  0  0  0  0  0
  142.5360   80.8700  222.5950 C   0  0  0  0  0  0  0  0  0  0  0  0
  142.8410   80.1380  223.7290 C   0  0  0  0  0  0  0  0  0  0  0  0
  141.9050   79.2280  224.1920 C   0  0  0  0  0  0  0  0  0  0  0  0
  140.7000   79.0790  223.5120 C   0  0  0  0  0  0  0  0  0  0  0  0
  140.2340   71.3510  223.6530 C   0  0  0  0  0  0  0  0  0  0  0  0
  139.5860   70.1340  223.6570 C   0  0  0  0  0  0  0  0  0  0  0  0
  139.3800   69.4070  224.8230 C   0  0  0  0  0  0  0  0  0  0  0  0
  139.8500   69.9480  225.9880 C   0  0  0  0  0  0  0  0  0  0  0  0
  139.6590   69.2450  227.1600 C   0  0  0  0  0  0  0  0  0  0  0  0
  140.1300   69.7820  228.3460 C   0  0  0  0  0  0  0  0  0  0  0  0
  140.7830   71.0080  228.3410 C   0  0  0  0  0  0  0  0  0  0  0  0
  140.9720   71.7060  227.1700 C   0  0  0  0  0  0  0  0  0  0  0  0
  140.5030   71.1760  225.9760 C   0  0  0  0  0  0  0  0  0  0  0  0
  140.6750   71.8350  224.8230 N   0  0  0  0  0  0  0  0  0  0  0  0
  139.5750   73.8530  223.1800 H   0  0  0  0  0  0  0  0  0  0  0  0
  141.0645   73.8851  220.5489 H   0  0  0  0  0  0  0  0  0  0  0  0
  139.2814   74.1252  220.4600 H   0  0  0  0  0  0  0  0  0  0  0  0
  142.8933   76.8639  220.9297 H   0  0  0  0  0  0  0  0  0  0  0  0
  142.4134   75.5485  219.8286 H   0  0  0  0  0  0  0  0  0  0  0  0
  142.4974   78.5353  219.3543 H   0  0  0  0  0  0  0  0  0  0  0  0
  143.2073   77.1455  218.3807 H   0  0  0  0  0  0  0  0  0  0  0  0
  141.3157   78.4146  217.3440 H   0  0  0  0  0  0  0  0  0  0  0  0
  141.1917   76.5935  217.4753 H   0  0  0  0  0  0  0  0  0  0  0  0
  139.2892   78.5201  218.2802 H   0  0  0  0  0  0  0  0  0  0  0  0
  139.2510   76.7605  218.5410 H   0  0  0  0  0  0  0  0  0  0  0  0
  140.7754   78.7544  220.3657 H   0  0  0  0  0  0  0  0  0  0  0  0
  138.0922   78.4493  220.2270 H   0  0  0  0  0  0  0  0  0  0  0  0
  138.7465   77.6016  221.7099 H   0  0  0  0  0  0  0  0  0  0  0  0
  139.1337   80.4759  220.8656 H   0  0  0  0  0  0  0  0  0  0  0  0
  138.3094   79.7823  222.3504 H   0  0  0  0  0  0  0  0  0  0  0  0
  141.1232   81.3009  221.0428 H   0  0  0  0  0  0  0  0  0  0  0  0
  143.2647   81.5980  222.2090 H   0  0  0  0  0  0  0  0  0  0  0  0
  143.8008   80.2751  224.2487 H   0  0  0  0  0  0  0  0  0  0  0  0
  142.1125   78.6278  225.0902 H   0  0  0  0  0  0  0  0  0  0  0  0
  139.9716   78.3511  223.8986 H   0  0  0  0  0  0  0  0  0  0  0  0
  139.2194   69.7245  222.7042 H   0  0  0  0  0  0  0  0  0  0  0  0
  138.8609   68.4373  224.8097 H   0  0  0  0  0  0  0  0  0  0  0  0
  139.1413   68.2745  227.1521 H   0  0  0  0  0  0  0  0  0  0  0  0
  139.9872   69.2382  229.2915 H   0  0  0  0  0  0  0  0  0  0  0  0
  141.1548   71.4274  229.2875 H   0  0  0  0  0  0  0  0  0  0  0  0
  141.4905   72.6761  227.1803 H   0  0  0  0  0  0  0  0  0  0  0  0
  1  2  2  0
  2  3  1  0
  3  4  1  0
  4  5  1  0
  5  6  2  0
  5  7  1  0
  7  8  1  0
  8  9  1  0
  9 10  1  0
 10 11  1  0
 11 12  1  0
 12 13  1  0
 13 14  1  0
 14 15  1  0
 15 16  2  0
 16 17  1  0
 17 18  2  0
 18 19  1  0
 19 20  2  0
  2 21  1  0
 21 22  2  0
 22 23  1  0
 23 24  2  0
 24 25  1  0
 25 26  2  0
 26 27  1  0
 27 28  2  0
 28 29  1  0
 29 30  2  0
 12  7  1  0
 20 15  1  0
 30 21  1  0
 29 24  1  0
  3 31  1  0
  4 32  1  0
  4 33  1  0
  8 34  1  0
  8 35  1  0
  9 36  1  0
  9 37  1  0
 10 38  1  0
 10 39  1  0
 11 40  1  0
 11 41  1  0
 12 42  1  6
 13 43  1  0
 13 44  1  0
 14 45  1  0
 14 46  1  0
 16 47  1  0
 17 48  1  0
 18 49  1  0
 19 50  1  0
 20 51  1  0
 22 52  1  0
 23 53  1  0
 25 54  1  0
 26 55  1  0
 27 56  1  0
 28 57  1  0
M  END
>  <smiles>  (62) 
O=C(NCC(=O)N1CCCCC1CCc1ccccc1)c1ccc2ccccc2n1

>  <score_type>  (62) 
oracle

>  <origin>  (62) 
autodockgpu

>  <m_score__min__energy>  (62) 
-9.4399999999999995

>  <m_primary>  (62) 
energy

>  <rmsd>  (62) 
2.3199855326948606

>  <m_score__min__rmsd>  (62) 
2.3199855326948606

>  <meeko>  (62) 
{"free_energy": -8.84, "intermolecular_energy": -10.92, "internal_energy": -2.4, "cluster_size": 38, "cluster_id": 1, "rank_in_cluster": 21}

>  <energy>  (62) 
-9.02

>  <cluster_rmsd>  (62) 
1.36

>  <cluster>  (62) 
1

$$$$

     RDKit          3D

 57 60  0  0  0  0  0  0  0  0999 V2000
  139.4480   71.4380  221.0790 O   0  0  0  0  0  0  0  0  0  0  0  0
  139.5370   72.0230  222.1850 C   0  0  0  0  0  0  0  0  0  0  0  0
  139.5730   73.4440  222.3220 N   0  0  0  0  0  0  0  0  0  0  0  0
  139.5070   74.3190  221.1280 C   0  0  0  0  0  0  0  0  0  0  0  0
  140.3620   75.5010  221.3170 C   0  0  0  0  0  0  0  0  0  0  0  0
  141.1380   75.4450  222.3460 O   0  0  0  0  0  0  0  0  0  0  0  0
  140.4510   76.6500  220.5540 N   0  0  0  0  0  0  0  0  0  0  0  0
  141.7380   76.8210  219.8100 C   0  0  0  0  0  0  0  0  0  0  0  0
  141.5030   77.8410  218.7300 C   0  0  0  0  0  0  0  0  0  0  0  0
  140.1920   77.7210  218.0200 C   0  0  0  0  0  0  0  0  0  0  0  0
  139.0110   77.5480  218.9420 C   0  0  0  0  0  0  0  0  0  0  0  0
  139.5210   77.7220  220.3590 C   0  0  1  0  0  0  0  0  0  0  0  0
  138.4510   77.9060  221.3580 C   0  0  0  0  0  0  0  0  0  0  0  0
  138.9620   78.1460  222.7660 C   0  0  0  0  0  0  0  0  0  0  0  0
  140.1690   78.9690  222.8400 C   0  0  0  0  0  0  0  0  0  0  0  0
  140.0190   80.3480  222.6280 C   0  0  0  0  0  0  0  0  0  0  0  0
  141.0960   81.2060  222.6760 C   0  0  0  0  0  0  0  0  0  0  0  0
  142.3720   80.7370  222.9360 C   0  0  0  0  0  0  0  0  0  0  0  0
  142.5400   79.3790  223.1480 C   0  0  0  0  0  0  0  0  0  0  0  0
  141.4340   78.5360  223.0940 C   0  0  0  0  0  0  0  0  0  0  0  0
  139.6070   71.2010  223.4110 C   0  0  0  0  0  0  0  0  0  0  0  0
  139.1670   69.8940  223.4040 C   0  0  0  0  0  0  0  0  0  0  0  0
  139.2160   69.0880  224.5330 C   0  0  0  0  0  0  0  0  0  0  0  0
  139.7240   69.6430  225.6760 C   0  0  0  0  0  0  0  0  0  0  0  0
  139.7830   68.8630  226.8120 C   0  0  0  0  0  0  0  0  0  0  0  0
  140.2950   69.4140  227.9760 C   0  0  0  0  0  0  0  0  0  0  0  0
  140.7380   70.7310  227.9820 C   0  0  0  0  0  0  0  0  0  0  0  0
  140.6770   71.5050  226.8460 C   0  0  0  0  0  0  0  0  0  0  0  0
  140.1660   70.9630  225.6770 C   0  0  0  0  0  0  0  0  0  0  0  0
  140.0950   71.6950  224.5580 N   0  0  0  0  0  0  0  0  0  0  0  0
  139.6470   73.8270  223.2780 H   0  0  0  0  0  0  0  0  0  0  0  0
  139.8520   73.7581  220.2469 H   0  0  0  0  0  0  0  0  0  0  0  0
  138.4676   74.6475  220.9806 H   0  0  0  0  0  0  0  0  0  0  0  0
  142.5238   77.1729  220.4946 H   0  0  0  0  0  0  0  0  0  0  0  0
  142.0647   75.8647  219.3756 H   0  0  0  0  0  0  0  0  0  0  0  0
  141.5527   78.8400  219.1878 H   0  0  0  0  0  0  0  0  0  0  0  0
  142.2801   77.6686  217.9708 H   0  0  0  0  0  0  0  0  0  0  0  0
  140.0359   78.6327  217.4246 H   0  0  0  0  0  0  0  0  0  0  0  0
  140.2473   76.8150  217.3987 H   0  0  0  0  0  0  0  0  0  0  0  0
  138.2456   78.3065  218.7209 H   0  0  0  0  0  0  0  0  0  0  0  0
  138.5538   76.5563  218.8100 H   0  0  0  0  0  0  0  0  0  0  0  0
  140.0520   78.6726  220.5153 H   0  0  0  0  0  0  0  0  0  0  0  0
  137.8417   78.7713  221.0581 H   0  0  0  0  0  0  0  0  0  0  0  0
  137.8718   76.9712  221.3826 H   0  0  0  0  0  0  0  0  0  0  0  0
  138.1682   78.6476  223.3390 H   0  0  0  0  0  0  0  0  0  0  0  0
  139.2293   77.1603  223.1746 H   0  0  0  0  0  0  0  0  0  0  0  0
  139.0181   80.7535  222.4186 H   0  0  0  0  0  0  0  0  0  0  0  0
  140.9392   82.2812  222.5049 H   0  0  0  0  0  0  0  0  0  0  0  0
  143.2297   81.4247  222.9732 H   0  0  0  0  0  0  0  0  0  0  0  0
  143.5394   78.9699  223.3574 H   0  0  0  0  0  0  0  0  0  0  0  0
  141.5908   77.4609  223.2660 H   0  0  0  0  0  0  0  0  0  0  0  0
  138.7629   69.4753  222.4705 H   0  0  0  0  0  0  0  0  0  0  0  0
  138.8614   68.0470  224.5099 H   0  0  0  0  0  0  0  0  0  0  0  0
  139.4297   67.8214  226.7944 H   0  0  0  0  0  0  0  0  0  0  0  0
  140.3506   68.8098  228.8935 H   0  0  0  0  0  0  0  0  0  0  0  0
  141.1438   71.1615  228.9093 H   0  0  0  0  0  0  0  0  0  0  0  0
  141.0312   72.5462  226.8654 H   0  0  0  0  0  0  0  0  0  0  0  0
  1  2  2  0
  2  3  1  0
  3  4  1  0
  4  5  1  0
  5  6  2  0
  5  7  1  0
  7  8  1  0
  8  9  1  0
  9 10  1  0
 10 11  1  0
 11 12  1  0
 12 13  1  0
 13 14  1  0
 14 15  1  0
 15 16  2  0
 16 17  1  0
 17 18  2  0
 18 19  1  0
 19 20  2  0
  2 21  1  0
 21 22  2  0
 22 23  1  0
 23 24  2  0
 24 25  1  0
 25 26  2  0
 26 27  1  0
 27 28  2  0
 28 29  1  0
 29 30  2  0
 12  7  1  0
 20 15  1  0
 30 21  1  0
 29 24  1  0
  3 31  1  0
  4 32  1  0
  4 33  1  0
  8 34  1  0
  8 35  1  0
  9 36  1  0
  9 37  1  0
 10 38  1  0
 10 39  1  0
 11 40  1  0
 11 41  1  0
 12 42  1  6
 13 43  1  0
 13 44  1  0
 14 45  1  0
 14 46  1  0
 16 47  1  0
 17 48  1  0
 18 49  1  0
 19 50  1  0
 20 51  1  0
 22 52  1  0
 23 53  1  0
 25 54  1  0
 26 55  1  0
 27 56  1  0
 28 57  1  0
M  END
>  <smiles>  (63) 
O=C(NCC(=O)N1CCCCC1CCc1ccccc1)c1ccc2ccccc2n1

>  <score_type>  (63) 
oracle

>  <origin>  (63) 
autodockgpu

>  <m_score__min__energy>  (63) 
-9.4399999999999995

>  <m_primary>  (63) 
energy

>  <rmsd>  (63) 
2.1685368301974943

>  <m_score__min__rmsd>  (63) 
2.1685368301974943

>  <meeko>  (63) 
{"free_energy": -8.25, "intermolecular_energy": -10.34, "internal_energy": -2.44, "cluster_size": 38, "cluster_id": 1, "rank_in_cluster": 37}

>  <energy>  (63) 
-9.01

>  <cluster_rmsd>  (63) 
1.46

>  <cluster>  (63) 
1

$$$$

     RDKit          3D

 57 60  0  0  0  0  0  0  0  0999 V2000
  139.6260   71.7640  221.0000 O   0  0  0  0  0  0  0  0  0  0  0  0
  139.6400   72.2940  222.1370 C   0  0  0  0  0  0  0  0  0  0  0  0
  139.5640   73.7040  222.3470 N   0  0  0  0  0  0  0  0  0  0  0  0
  139.4640   74.6340  221.1970 C   0  0  0  0  0  0  0  0  0  0  0  0
  139.8950   75.9820  221.5960 C   0  0  0  0  0  0  0  0  0  0  0  0
  140.5150   76.0370  222.7270 O   0  0  0  0  0  0  0  0  0  0  0  0
  139.7330   77.1870  220.9370 N   0  0  0  0  0  0  0  0  0  0  0  0
  140.6640   77.4120  219.7870 C   0  0  0  0  0  0  0  0  0  0  0  0
  140.0810   78.5120  218.9440 C   0  0  0  0  0  0  0  0  0  0  0  0
  138.5980   78.4480  218.7560 C   0  0  0  0  0  0  0  0  0  0  0  0
  137.8300   78.2060  220.0310 C   0  0  0  0  0  0  0  0  0  0  0  0
  138.8270   78.2720  221.1720 C   0  0  1  0  0  0  0  0  0  0  0  0
  138.2010   78.3790  222.5040 C   0  0  0  0  0  0  0  0  0  0  0  0
  138.7250   79.5350  223.3350 C   0  0  0  0  0  0  0  0  0  0  0  0
  140.1540   79.7970  223.1750 C   0  0  0  0  0  0  0  0  0  0  0  0
  140.5190   80.9660  222.4890 C   0  0  0  0  0  0  0  0  0  0  0  0
  141.8410   81.2990  222.2860 C   0  0  0  0  0  0  0  0  0  0  0  0
  142.8620   80.4910  222.7540 C   0  0  0  0  0  0  0  0  0  0  0  0
  142.5220   79.3330  223.4340 C   0  0  0  0  0  0  0  0  0  0  0  0
  141.1790   79.0210  223.6240 C   0  0  0  0  0  0  0  0  0  0  0  0
  139.7390   71.4160  223.3210 C   0  0  0  0  0  0  0  0  0  0  0  0
  139.3260   70.1020  223.2540 C   0  0  0  0  0  0  0  0  0  0  0  0
  139.4020   69.2440  224.3430 C   0  0  0  0  0  0  0  0  0  0  0  0
  139.9090   69.7540  225.5070 C   0  0  0  0  0  0  0  0  0  0  0  0
  139.9950   68.9210  226.6040 C   0  0  0  0  0  0  0  0  0  0  0  0
  140.5060   69.4260  227.7880 C   0  0  0  0  0  0  0  0  0  0  0  0
  140.9220   70.7500  227.8550 C   0  0  0  0  0  0  0  0  0  0  0  0
  140.8340   71.5770  226.7580 C   0  0  0  0  0  0  0  0  0  0  0  0
  140.3230   71.0810  225.5680 C   0  0  0  0  0  0  0  0  0  0  0  0
  140.2270   71.8640  224.4860 N   0  0  0  0  0  0  0  0  0  0  0  0
  139.5820   74.0410  223.3230 H   0  0  0  0  0  0  0  0  0  0  0  0
  140.1074   74.2734  220.3809 H   0  0  0  0  0  0  0  0  0  0  0  0
  138.4180   74.6766  220.8593 H   0  0  0  0  0  0  0  0  0  0  0  0
  141.6557   77.7089  220.1589 H   0  0  0  0  0  0  0  0  0  0  0  0
  140.7811   76.4913  219.1966 H   0  0  0  0  0  0  0  0  0  0  0  0
  140.3229   79.4727  219.4221 H   0  0  0  0  0  0  0  0  0  0  0  0
  140.5224   78.3981  217.9429 H   0  0  0  0  0  0  0  0  0  0  0  0
  138.2620   79.4028  218.3253 H   0  0  0  0  0  0  0  0  0  0  0  0
  138.3968   77.5922  218.0949 H   0  0  0  0  0  0  0  0  0  0  0  0
  137.0583   78.9793  220.1591 H   0  0  0  0  0  0  0  0  0  0  0  0
  137.3282   77.2274  220.0059 H   0  0  0  0  0  0  0  0  0  0  0  0
  139.4045   79.2080  221.1896 H   0  0  0  0  0  0  0  0  0  0  0  0
  137.1176   78.5123  222.3685 H   0  0  0  0  0  0  0  0  0  0  0  0
  138.4464   77.4554  223.0487 H   0  0  0  0  0  0  0  0  0  0  0  0
  138.1748   80.4428  223.0466 H   0  0  0  0  0  0  0  0  0  0  0  0
  138.5737   79.2571  224.3885 H   0  0  0  0  0  0  0  0  0  0  0  0
  139.7320   81.6315  222.1047 H   0  0  0  0  0  0  0  0  0  0  0  0
  142.0885   82.2229  221.7427 H   0  0  0  0  0  0  0  0  0  0  0  0
  143.9157   80.7610  222.5904 H   0  0  0  0  0  0  0  0  0  0  0  0
  143.3066   78.6659  223.8205 H   0  0  0  0  0  0  0  0  0  0  0  0
  140.9319   78.0967  224.1667 H   0  0  0  0  0  0  0  0  0  0  0  0
  138.9223   69.7203  222.3046 H   0  0  0  0  0  0  0  0  0  0  0  0
  139.0686   68.1981  224.2729 H   0  0  0  0  0  0  0  0  0  0  0  0
  139.6634   67.8742  226.5391 H   0  0  0  0  0  0  0  0  0  0  0  0
  140.5825   68.7795  228.6746 H   0  0  0  0  0  0  0  0  0  0  0  0
  141.3277   71.1433  228.7988 H   0  0  0  0  0  0  0  0  0  0  0  0
  141.1665   72.6234  226.8248 H   0  0  0  0  0  0  0  0  0  0  0  0
  1  2  2  0
  2  3  1  0
  3  4  1  0
  4  5  1  0
  5  6  2  0
  5  7  1  0
  7  8  1  0
  8  9  1  0
  9 10  1  0
 10 11  1  0
 11 12  1  0
 12 13  1  0
 13 14  1  0
 14 15  1  0
 15 16  2  0
 16 17  1  0
 17 18  2  0
 18 19  1  0
 19 20  2  0
  2 21  1  0
 21 22  2  0
 22 23  1  0
 23 24  2  0
 24 25  1  0
 25 26  2  0
 26 27  1  0
 27 28  2  0
 28 29  1  0
 29 30  2  0
 12  7  1  0
 20 15  1  0
 30 21  1  0
 29 24  1  0
  3 31  1  0
  4 32  1  0
  4 33  1  0
  8 34  1  0
  8 35  1  0
  9 36  1  0
  9 37  1  0
 10 38  1  0
 10 39  1  0
 11 40  1  0
 11 41  1  0
 12 42  1  6
 13 43  1  0
 13 44  1  0
 14 45  1  0
 14 46  1  0
 16 47  1  0
 17 48  1  0
 18 49  1  0
 19 50  1  0
 20 51  1  0
 22 52  1  0
 23 53  1  0
 25 54  1  0
 26 55  1  0
 27 56  1  0
 28 57  1  0
M  END
>  <smiles>  (64) 
O=C(NCC(=O)N1CCCCC1CCc1ccccc1)c1ccc2ccccc2n1

>  <score_type>  (64) 
oracle

>  <origin>  (64) 
autodockgpu

>  <m_score__min__energy>  (64) 
-9.4399999999999995

>  <m_primary>  (64) 
energy

>  <rmsd>  (64) 
2.530998526126981

>  <m_score__min__rmsd>  (64) 
2.530998526126981

>  <meeko>  (64) 
{"free_energy": -8.16, "intermolecular_energy": -10.25, "internal_energy": -2.59, "cluster_size": 38, "cluster_id": 1, "rank_in_cluster": 38}

>  <energy>  (64) 
-8.98

>  <cluster_rmsd>  (64) 
1.68

>  <cluster>  (64) 
1

$$$$

     RDKit          3D

 57 60  0  0  0  0  0  0  0  0999 V2000
  140.0090   71.6400  221.0620 O   0  0  0  0  0  0  0  0  0  0  0  0
  139.8610   72.2280  222.1610 C   0  0  0  0  0  0  0  0  0  0  0  0
  139.6850   73.6400  222.2770 N   0  0  0  0  0  0  0  0  0  0  0  0
  139.6700   74.5010  221.0710 C   0  0  0  0  0  0  0  0  0  0  0  0
  140.3920   75.7550  221.3340 C   0  0  0  0  0  0  0  0  0  0  0  0
  141.1600   75.7280  222.3710 O   0  0  0  0  0  0  0  0  0  0  0  0
  140.3650   76.9470  220.6330 N   0  0  0  0  0  0  0  0  0  0  0  0
  141.5680   77.2120  219.7840 C   0  0  0  0  0  0  0  0  0  0  0  0
  141.1920   78.2780  218.7910 C   0  0  0  0  0  0  0  0  0  0  0  0
  139.8250   78.1400  218.2000 C   0  0  0  0  0  0  0  0  0  0  0  0
  138.7450   77.8670  219.2160 C   0  0  0  0  0  0  0  0  0  0  0  0
  139.3810   77.9870  220.5870 C   0  0  1  0  0  0  0  0  0  0  0  0
  138.4040   78.0710  221.6910 C   0  0  0  0  0  0  0  0  0  0  0  0
  139.0320   78.3450  223.0450 C   0  0  0  0  0  0  0  0  0  0  0  0
  140.2590   79.1390  222.9930 C   0  0  0  0  0  0  0  0  0  0  0  0
  140.1240   80.5140  222.7470 C   0  0  0  0  0  0  0  0  0  0  0  0
  141.2210   81.3460  222.6790 C   0  0  0  0  0  0  0  0  0  0  0  0
  142.5030   80.8530  222.8530 C   0  0  0  0  0  0  0  0  0  0  0  0
  142.6560   79.4980  223.0970 C   0  0  0  0  0  0  0  0  0  0  0  0
  141.5310   78.6820  223.1600 C   0  0  0  0  0  0  0  0  0  0  0  0
  139.8680   71.4200  223.3980 C   0  0  0  0  0  0  0  0  0  0  0  0
  139.3190   70.1560  223.4110 C   0  0  0  0  0  0  0  0  0  0  0  0
  139.3060   69.3650  224.5520 C   0  0  0  0  0  0  0  0  0  0  0  0
  139.8660   69.8900  225.6850 C   0  0  0  0  0  0  0  0  0  0  0  0
  139.8650   69.1240  226.8310 C   0  0  0  0  0  0  0  0  0  0  0  0
  140.4280   69.6460  227.9840 C   0  0  0  0  0  0  0  0  0  0  0  0
  140.9810   70.9200  227.9710 C   0  0  0  0  0  0  0  0  0  0  0  0
  140.9790   71.6810  226.8240 C   0  0  0  0  0  0  0  0  0  0  0  0
  140.4170   71.1670  225.6640 C   0  0  0  0  0  0  0  0  0  0  0  0
  140.4030   71.8880  224.5350 N   0  0  0  0  0  0  0  0  0  0  0  0
  139.5720   74.0280  223.2280 H   0  0  0  0  0  0  0  0  0  0  0  0
  140.1554   73.9697  220.2390 H   0  0  0  0  0  0  0  0  0  0  0  0
  138.6274   74.7348  220.8095 H   0  0  0  0  0  0  0  0  0  0  0  0
  142.4018   77.5600  220.4115 H   0  0  0  0  0  0  0  0  0  0  0  0
  141.8881   76.2953  219.2671 H   0  0  0  0  0  0  0  0  0  0  0  0
  141.2469   79.2520  219.2993 H   0  0  0  0  0  0  0  0  0  0  0  0
  141.8991   78.1805  217.9541 H   0  0  0  0  0  0  0  0  0  0  0  0
  139.5785   79.0748  217.6752 H   0  0  0  0  0  0  0  0  0  0  0  0
  139.8551   77.2721  217.5249 H   0  0  0  0  0  0  0  0  0  0  0  0
  137.9337   78.6023  219.1109 H   0  0  0  0  0  0  0  0  0  0  0  0
  138.3153   76.8649  219.0705 H   0  0  0  0  0  0  0  0  0  0  0  0
  139.8882   78.9498  220.7473 H   0  0  0  0  0  0  0  0  0  0  0  0
  137.6959   78.8823  221.4665 H   0  0  0  0  0  0  0  0  0  0  0  0
  137.9119   77.0895  221.7587 H   0  0  0  0  0  0  0  0  0  0  0  0
  138.2985   78.8855  223.6613 H   0  0  0  0  0  0  0  0  0  0  0  0
  139.3088   77.3672  223.4660 H   0  0  0  0  0  0  0  0  0  0  0  0
  139.1189   80.9379  222.6051 H   0  0  0  0  0  0  0  0  0  0  0  0
  141.0755   82.4186  222.4834 H   0  0  0  0  0  0  0  0  0  0  0  0
  143.3766   81.5193  222.7989 H   0  0  0  0  0  0  0  0  0  0  0  0
  143.6594   79.0705  223.2399 H   0  0  0  0  0  0  0  0  0  0  0  0
  141.6768   77.6093  223.3553 H   0  0  0  0  0  0  0  0  0  0  0  0
  138.8758   69.7601  222.4854 H   0  0  0  0  0  0  0  0  0  0  0  0
  138.8638   68.3578  224.5456 H   0  0  0  0  0  0  0  0  0  0  0  0
  139.4249   68.1159  226.8299 H   0  0  0  0  0  0  0  0  0  0  0  0
  140.4371   69.0517  228.9096 H   0  0  0  0  0  0  0  0  0  0  0  0
  141.4270   71.3267  228.8906 H   0  0  0  0  0  0  0  0  0  0  0  0
  141.4195   72.6889  226.8269 H   0  0  0  0  0  0  0  0  0  0  0  0
  1  2  2  0
  2  3  1  0
  3  4  1  0
  4  5  1  0
  5  6  2  0
  5  7  1  0
  7  8  1  0
  8  9  1  0
  9 10  1  0
 10 11  1  0
 11 12  1  0
 12 13  1  0
 13 14  1  0
 14 15  1  0
 15 16  2  0
 16 17  1  0
 17 18  2  0
 18 19  1  0
 19 20  2  0
  2 21  1  0
 21 22  2  0
 22 23  1  0
 23 24  2  0
 24 25  1  0
 25 26  2  0
 26 27  1  0
 27 28  2  0
 28 29  1  0
 29 30  2  0
 12  7  1  0
 20 15  1  0
 30 21  1  0
 29 24  1  0
  3 31  1  0
  4 32  1  0
  4 33  1  0
  8 34  1  0
  8 35  1  0
  9 36  1  0
  9 37  1  0
 10 38  1  0
 10 39  1  0
 11 40  1  0
 11 41  1  0
 12 42  1  6
 13 43  1  0
 13 44  1  0
 14 45  1  0
 14 46  1  0
 16 47  1  0
 17 48  1  0
 18 49  1  0
 19 50  1  0
 20 51  1  0
 22 52  1  0
 23 53  1  0
 25 54  1  0
 26 55  1  0
 27 56  1  0
 28 57  1  0
M  END
>  <smiles>  (65) 
O=C(NCC(=O)N1CCCCC1CCc1ccccc1)c1ccc2ccccc2n1

>  <score_type>  (65) 
oracle

>  <origin>  (65) 
autodockgpu

>  <m_score__min__energy>  (65) 
-9.4399999999999995

>  <m_primary>  (65) 
energy

>  <rmsd>  (65) 
2.3625873438441087

>  <m_score__min__rmsd>  (65) 
2.3625873438441087

>  <meeko>  (65) 
{"free_energy": -8.44, "intermolecular_energy": -10.53, "internal_energy": -2.31, "cluster_size": 38, "cluster_id": 1, "rank_in_cluster": 34}

>  <energy>  (65) 
-8.96

>  <cluster_rmsd>  (65) 
1.41

>  <cluster>  (65) 
1

$$$$

     RDKit          3D

 57 60  0  0  0  0  0  0  0  0999 V2000
  140.2930   71.5030  221.0980 O   0  0  0  0  0  0  0  0  0  0  0  0
  140.0580   72.1250  222.1610 C   0  0  0  0  0  0  0  0  0  0  0  0
  139.7860   73.5260  222.2080 N   0  0  0  0  0  0  0  0  0  0  0  0
  139.7700   74.3330  220.9650 C   0  0  0  0  0  0  0  0  0  0  0  0
  140.1070   75.7330  221.2650 C   0  0  0  0  0  0  0  0  0  0  0  0
  140.4010   75.9640  222.5000 O   0  0  0  0  0  0  0  0  0  0  0  0
  140.1530   76.8250  220.4180 N   0  0  0  0  0  0  0  0  0  0  0  0
  138.9790   77.7490  220.5080 C   0  0  0  0  0  0  0  0  0  0  0  0
  139.3850   79.0540  219.8810 C   0  0  0  0  0  0  0  0  0  0  0  0
  140.7720   79.5090  220.2050 C   0  0  0  0  0  0  0  0  0  0  0  0
  141.8170   78.4320  220.0630 C   0  0  0  0  0  0  0  0  0  0  0  0
  141.1340   77.2240  219.4530 C   0  0  1  0  0  0  0  0  0  0  0  0
  142.0710   76.2010  218.9490 C   0  0  0  0  0  0  0  0  0  0  0  0
  143.4150   76.2020  219.6530 C   0  0  0  0  0  0  0  0  0  0  0  0
  143.8760   74.8820  220.0800 C   0  0  0  0  0  0  0  0  0  0  0  0
  142.9340   73.8420  220.0810 C   0  0  0  0  0  0  0  0  0  0  0  0
  143.2720   72.5630  220.4680 C   0  0  0  0  0  0  0  0  0  0  0  0
  144.5600   72.2550  220.8700 C   0  0  0  0  0  0  0  0  0  0  0  0
  145.5040   73.2680  220.8750 C   0  0  0  0  0  0  0  0  0  0  0  0
  145.1350   74.5500  220.4800 C   0  0  0  0  0  0  0  0  0  0  0  0
  140.0620   71.3710  223.4330 C   0  0  0  0  0  0  0  0  0  0  0  0
  139.5790   70.0810  223.4820 C   0  0  0  0  0  0  0  0  0  0  0  0
  139.5650   69.3390  224.6560 C   0  0  0  0  0  0  0  0  0  0  0  0
  140.0540   69.9410  225.7830 C   0  0  0  0  0  0  0  0  0  0  0  0
  140.0500   69.2240  226.9620 C   0  0  0  0  0  0  0  0  0  0  0  0
  140.5420   69.8240  228.1100 C   0  0  0  0  0  0  0  0  0  0  0  0
  141.0270   71.1250  228.0590 C   0  0  0  0  0  0  0  0  0  0  0  0
  141.0290   71.8360  226.8800 C   0  0  0  0  0  0  0  0  0  0  0  0
  140.5380   71.2440  225.7260 C   0  0  0  0  0  0  0  0  0  0  0  0
  140.5280   71.9140  224.5660 N   0  0  0  0  0  0  0  0  0  0  0  0
  139.6050   73.9440  223.1350 H   0  0  0  0  0  0  0  0  0  0  0  0
  140.5069   73.9253  220.2574 H   0  0  0  0  0  0  0  0  0  0  0  0
  138.7634   74.2924  220.5232 H   0  0  0  0  0  0  0  0  0  0  0  0
  138.1221   77.3221  219.9663 H   0  0  0  0  0  0  0  0  0  0  0  0
  138.6812   77.8978  221.5564 H   0  0  0  0  0  0  0  0  0  0  0  0
  139.3082   78.9459  218.7890 H   0  0  0  0  0  0  0  0  0  0  0  0
  138.7081   79.8162  220.2944 H   0  0  0  0  0  0  0  0  0  0  0  0
  141.0324   80.3357  219.5277 H   0  0  0  0  0  0  0  0  0  0  0  0
  140.7693   79.8138  221.2619 H   0  0  0  0  0  0  0  0  0  0  0  0
  142.6284   78.7782  219.4059 H   0  0  0  0  0  0  0  0  0  0  0  0
  142.2553   78.1813  221.0402 H   0  0  0  0  0  0  0  0  0  0  0  0
  140.6183   77.4488  218.5077 H   0  0  0  0  0  0  0  0  0  0  0  0
  141.6096   75.2116  219.0838 H   0  0  0  0  0  0  0  0  0  0  0  0
  142.2630   76.4354  217.8916 H   0  0  0  0  0  0  0  0  0  0  0  0
  144.1634   76.6213  218.9644 H   0  0  0  0  0  0  0  0  0  0  0  0
  143.2891   76.8006  220.5672 H   0  0  0  0  0  0  0  0  0  0  0  0
  141.9014   74.0524  219.7655 H   0  0  0  0  0  0  0  0  0  0  0  0
  142.5055   71.7742  220.4572 H   0  0  0  0  0  0  0  0  0  0  0  0
  144.8266   71.2330  221.1773 H   0  0  0  0  0  0  0  0  0  0  0  0
  146.5377   73.0607  221.1889 H   0  0  0  0  0  0  0  0  0  0  0  0
  145.9019   75.3385  220.4913 H   0  0  0  0  0  0  0  0  0  0  0  0
  139.1914   69.6235  222.5598 H   0  0  0  0  0  0  0  0  0  0  0  0
  139.1769   68.3100  224.6787 H   0  0  0  0  0  0  0  0  0  0  0  0
  139.6632   68.1946  226.9900 H   0  0  0  0  0  0  0  0  0  0  0  0
  140.5486   69.2708  229.0608 H   0  0  0  0  0  0  0  0  0  0  0  0
  141.4154   71.5943  228.9749 H   0  0  0  0  0  0  0  0  0  0  0  0
  141.4168   72.8650  226.8536 H   0  0  0  0  0  0  0  0  0  0  0  0
  1  2  2  0
  2  3  1  0
  3  4  1  0
  4  5  1  0
  5  6  2  0
  5  7  1  0
  7  8  1  0
  8  9  1  0
  9 10  1  0
 10 11  1  0
 11 12  1  0
 12 13  1  0
 13 14  1  0
 14 15  1  0
 15 16  2  0
 16 17  1  0
 17 18  2  0
 18 19  1  0
 19 20  2  0
  2 21  1  0
 21 22  2  0
 22 23  1  0
 23 24  2  0
 24 25  1  0
 25 26  2  0
 26 27  1  0
 27 28  2  0
 28 29  1  0
 29 30  2  0
 12  7  1  0
 20 15  1  0
 30 21  1  0
 29 24  1  0
  3 31  1  0
  4 32  1  0
  4 33  1  0
  8 34  1  0
  8 35  1  0
  9 36  1  0
  9 37  1  0
 10 38  1  0
 10 39  1  0
 11 40  1  0
 11 41  1  0
 12 42  1  6
 13 43  1  0
 13 44  1  0
 14 45  1  0
 14 46  1  0
 16 47  1  0
 17 48  1  0
 18 49  1  0
 19 50  1  0
 20 51  1  0
 22 52  1  0
 23 53  1  0
 25 54  1  0
 26 55  1  0
 27 56  1  0
 28 57  1  0
M  END
>  <smiles>  (66) 
O=C(NCC(=O)N1CCCCC1CCc1ccccc1)c1ccc2ccccc2n1

>  <score_type>  (66) 
oracle

>  <origin>  (66) 
autodockgpu

>  <m_score__min__energy>  (66) 
-9.4399999999999995

>  <m_primary>  (66) 
energy

>  <rmsd>  (66) 
2.094561039664499

>  <m_score__min__rmsd>  (66) 
2.094561039664499

>  <meeko>  (66) 
{"free_energy": -8.38, "intermolecular_energy": -10.46, "internal_energy": -2.6, "cluster_size": 8, "cluster_id": 3, "rank_in_cluster": 2}

>  <energy>  (66) 
-8.95

>  <cluster_rmsd>  (66) 
1.8

>  <cluster>  (66) 
1

$$$$

     RDKit          3D

 57 60  0  0  0  0  0  0  0  0999 V2000
  140.6970   71.4250  221.3940 O   0  0  0  0  0  0  0  0  0  0  0  0
  140.2650   71.9760  222.4350 C   0  0  0  0  0  0  0  0  0  0  0  0
  139.8860   73.3510  222.4970 N   0  0  0  0  0  0  0  0  0  0  0  0
  139.9900   74.2170  221.2990 C   0  0  0  0  0  0  0  0  0  0  0  0
  139.7860   75.6250  221.6720 C   0  0  0  0  0  0  0  0  0  0  0  0
  139.0610   75.8040  222.7240 O   0  0  0  0  0  0  0  0  0  0  0  0
  140.2590   76.7710  221.0610 N   0  0  0  0  0  0  0  0  0  0  0  0
  141.6900   76.7140  220.6240 C   0  0  0  0  0  0  0  0  0  0  0  0
  141.8990   77.8180  219.6240 C   0  0  0  0  0  0  0  0  0  0  0  0
  140.7830   78.0080  218.6470 C   0  0  0  0  0  0  0  0  0  0  0  0
  139.4150   78.0320  219.2790 C   0  0  0  0  0  0  0  0  0  0  0  0
  139.6160   78.0210  220.7810 C   0  0  1  0  0  0  0  0  0  0  0  0
  138.4030   78.3650  221.5470 C   0  0  0  0  0  0  0  0  0  0  0  0
  138.6600   79.2980  222.7160 C   0  0  0  0  0  0  0  0  0  0  0  0
  140.0430   79.7600  222.8290 C   0  0  0  0  0  0  0  0  0  0  0  0
  140.9040   79.0130  223.6480 C   0  0  0  0  0  0  0  0  0  0  0  0
  142.2250   79.3680  223.8190 C   0  0  0  0  0  0  0  0  0  0  0  0
  142.7530   80.4800  223.1860 C   0  0  0  0  0  0  0  0  0  0  0  0
  141.9190   81.2290  222.3730 C   0  0  0  0  0  0  0  0  0  0  0  0
  140.5900   80.8470  222.2190 C   0  0  0  0  0  0  0  0  0  0  0  0
  140.1410   71.1600  223.6620 C   0  0  0  0  0  0  0  0  0  0  0  0
  139.6050   69.8920  223.6070 C   0  0  0  0  0  0  0  0  0  0  0  0
  139.4710   69.0940  224.7360 C   0  0  0  0  0  0  0  0  0  0  0  0
  139.8960   69.6170  225.9260 C   0  0  0  0  0  0  0  0  0  0  0  0
  139.7740   68.8440  227.0620 C   0  0  0  0  0  0  0  0  0  0  0  0
  140.2000   69.3640  228.2730 C   0  0  0  0  0  0  0  0  0  0  0  0
  140.7400   70.6430  228.3280 C   0  0  0  0  0  0  0  0  0  0  0  0
  140.8600   71.4110  227.1910 C   0  0  0  0  0  0  0  0  0  0  0  0
  140.4350   70.8990  225.9740 C   0  0  0  0  0  0  0  0  0  0  0  0
  140.5410   71.6260  224.8540 N   0  0  0  0  0  0  0  0  0  0  0  0
  139.5420   73.7080  223.4030 H   0  0  0  0  0  0  0  0  0  0  0  0
  140.9882   74.1004  220.8517 H   0  0  0  0  0  0  0  0  0  0  0  0
  139.2173   73.9217  220.5740 H   0  0  0  0  0  0  0  0  0  0  0  0
  142.3535   76.8598  221.4892 H   0  0  0  0  0  0  0  0  0  0  0  0
  141.9210   75.7359  220.1768 H   0  0  0  0  0  0  0  0  0  0  0  0
  142.0310   78.7591  220.1779 H   0  0  0  0  0  0  0  0  0  0  0  0
  142.7801   77.5317  219.0310 H   0  0  0  0  0  0  0  0  0  0  0  0
  140.9396   78.9629  218.1239 H   0  0  0  0  0  0  0  0  0  0  0  0
  140.8047   77.1445  217.9658 H   0  0  0  0  0  0  0  0  0  0  0  0
  138.8762   78.9424  218.9774 H   0  0  0  0  0  0  0  0  0  0  0  0
  138.8208   77.1638  218.9578 H   0  0  0  0  0  0  0  0  0  0  0  0
  140.2670   78.8333  221.1366 H   0  0  0  0  0  0  0  0  0  0  0  0
  137.6891   78.8512  220.8658 H   0  0  0  0  0  0  0  0  0  0  0  0
  138.0125   77.4262  221.9666 H   0  0  0  0  0  0  0  0  0  0  0  0
  138.0114   80.1791  222.6017 H   0  0  0  0  0  0  0  0  0  0  0  0
  138.4461   78.7228  223.6289 H   0  0  0  0  0  0  0  0  0  0  0  0
  140.5156   78.1235  224.1655 H   0  0  0  0  0  0  0  0  0  0  0  0
  142.8697   78.7579  224.4688 H   0  0  0  0  0  0  0  0  0  0  0  0
  143.8073   80.7613  223.3251 H   0  0  0  0  0  0  0  0  0  0  0  0
  142.3040   82.1187  221.8532 H   0  0  0  0  0  0  0  0  0  0  0  0
  139.9459   81.4570  221.5685 H   0  0  0  0  0  0  0  0  0  0  0  0
  139.2717   69.4980  222.6356 H   0  0  0  0  0  0  0  0  0  0  0  0
  139.0409   68.0834  224.6754 H   0  0  0  0  0  0  0  0  0  0  0  0
  139.3459   67.8322  227.0071 H   0  0  0  0  0  0  0  0  0  0  0  0
  140.1108   68.7645  229.1910 H   0  0  0  0  0  0  0  0  0  0  0  0
  141.0766   71.0481  229.2937 H   0  0  0  0  0  0  0  0  0  0  0  0
  141.2894   72.4222  227.2476 H   0  0  0  0  0  0  0  0  0  0  0  0
  1  2  2  0
  2  3  1  0
  3  4  1  0
  4  5  1  0
  5  6  2  0
  5  7  1  0
  7  8  1  0
  8  9  1  0
  9 10  1  0
 10 11  1  0
 11 12  1  0
 12 13  1  0
 13 14  1  0
 14 15  1  0
 15 16  2  0
 16 17  1  0
 17 18  2  0
 18 19  1  0
 19 20  2  0
  2 21  1  0
 21 22  2  0
 22 23  1  0
 23 24  2  0
 24 25  1  0
 25 26  2  0
 26 27  1  0
 27 28  2  0
 28 29  1  0
 29 30  2  0
 12  7  1  0
 20 15  1  0
 30 21  1  0
 29 24  1  0
  3 31  1  0
  4 32  1  0
  4 33  1  0
  8 34  1  0
  8 35  1  0
  9 36  1  0
  9 37  1  0
 10 38  1  0
 10 39  1  0
 11 40  1  0
 11 41  1  0
 12 42  1  6
 13 43  1  0
 13 44  1  0
 14 45  1  0
 14 46  1  0
 16 47  1  0
 17 48  1  0
 18 49  1  0
 19 50  1  0
 20 51  1  0
 22 52  1  0
 23 53  1  0
 25 54  1  0
 26 55  1  0
 27 56  1  0
 28 57  1  0
M  END
>  <smiles>  (67) 
O=C(NCC(=O)N1CCCCC1CCc1ccccc1)c1ccc2ccccc2n1

>  <score_type>  (67) 
oracle

>  <origin>  (67) 
autodockgpu

>  <m_score__min__energy>  (67) 
-9.4399999999999995

>  <m_primary>  (67) 
energy

>  <rmsd>  (67) 
2.4360576952182047

>  <m_score__min__rmsd>  (67) 
2.4360576952182047

>  <meeko>  (67) 
{"free_energy": -8.68, "intermolecular_energy": -10.77, "internal_energy": -2.46, "cluster_size": 38, "cluster_id": 1, "rank_in_cluster": 29}

>  <energy>  (67) 
-8.9

>  <cluster_rmsd>  (67) 
1.49

>  <cluster>  (67) 
1

$$$$

     RDKit          3D

 57 60  0  0  0  0  0  0  0  0999 V2000
  140.7620   71.4440  221.3270 O   0  0  0  0  0  0  0  0  0  0  0  0
  140.3120   72.0600  222.3230 C   0  0  0  0  0  0  0  0  0  0  0  0
  139.9260   73.4330  222.2880 N   0  0  0  0  0  0  0  0  0  0  0  0
  140.0440   74.2190  221.0370 C   0  0  0  0  0  0  0  0  0  0  0  0
  140.3320   75.6280  221.3470 C   0  0  0  0  0  0  0  0  0  0  0  0
  140.0990   75.9680  222.5700 O   0  0  0  0  0  0  0  0  0  0  0  0
  140.8120   76.6280  220.5220 N   0  0  0  0  0  0  0  0  0  0  0  0
  142.2550   76.5000  220.1440 C   0  0  0  0  0  0  0  0  0  0  0  0
  142.4840   77.3740  218.9410 C   0  0  0  0  0  0  0  0  0  0  0  0
  141.3940   77.3400  217.9170 C   0  0  0  0  0  0  0  0  0  0  0  0
  140.0080   77.4750  218.4940 C   0  0  0  0  0  0  0  0  0  0  0  0
  140.1670   77.7810  219.9700 C   0  0  1  0  0  0  0  0  0  0  0  0
  138.9290   78.2610  220.6150 C   0  0  0  0  0  0  0  0  0  0  0  0
  139.1050   79.5510  221.3940 C   0  0  0  0  0  0  0  0  0  0  0  0
  140.3550   79.6380  222.1480 C   0  0  0  0  0  0  0  0  0  0  0  0
  141.3300   80.5290  221.6730 C   0  0  0  0  0  0  0  0  0  0  0  0
  142.5410   80.6810  222.3140 C   0  0  0  0  0  0  0  0  0  0  0  0
  142.8410   79.9570  223.4550 C   0  0  0  0  0  0  0  0  0  0  0  0
  141.8910   79.0740  223.9390 C   0  0  0  0  0  0  0  0  0  0  0  0
  140.6770   78.9410  223.2720 C   0  0  0  0  0  0  0  0  0  0  0  0
  140.1730   71.3270  223.5980 C   0  0  0  0  0  0  0  0  0  0  0  0
  139.5760   70.0840  223.6300 C   0  0  0  0  0  0  0  0  0  0  0  0
  139.4260   69.3630  224.8070 C   0  0  0  0  0  0  0  0  0  0  0  0
  139.8970   69.9360  225.9560 C   0  0  0  0  0  0  0  0  0  0  0  0
  139.7600   69.2400  227.1390 C   0  0  0  0  0  0  0  0  0  0  0  0
  140.2330   69.8100  228.3100 C   0  0  0  0  0  0  0  0  0  0  0  0
  140.8340   71.0630  228.2770 C   0  0  0  0  0  0  0  0  0  0  0  0
  140.9680   71.7540  227.0940 C   0  0  0  0  0  0  0  0  0  0  0  0
  140.4970   71.1910  225.9170 C   0  0  0  0  0  0  0  0  0  0  0  0
  140.6160   71.8430  224.7540 N   0  0  0  0  0  0  0  0  0  0  0  0
  139.5660   73.8480  223.1630 H   0  0  0  0  0  0  0  0  0  0  0  0
  140.8602   73.8075  220.4251 H   0  0  0  0  0  0  0  0  0  0  0  0
  139.0942   74.1600  220.4853 H   0  0  0  0  0  0  0  0  0  0  0  0
  142.8927   76.8317  220.9767 H   0  0  0  0  0  0  0  0  0  0  0  0
  142.5058   75.4533  219.9171 H   0  0  0  0  0  0  0  0  0  0  0  0
  142.5926   78.4118  219.2891 H   0  0  0  0  0  0  0  0  0  0  0  0
  143.3842   76.9829  218.4443 H   0  0  0  0  0  0  0  0  0  0  0  0
  141.5569   78.1672  217.2105 H   0  0  0  0  0  0  0  0  0  0  0  0
  141.4428   76.3539  217.4321 H   0  0  0  0  0  0  0  0  0  0  0  0
  139.4697   78.2941  217.9948 H   0  0  0  0  0  0  0  0  0  0  0  0
  139.4308   76.5504  218.3460 H   0  0  0  0  0  0  0  0  0  0  0  0
  140.8014   78.6583  220.1647 H   0  0  0  0  0  0  0  0  0  0  0  0
  138.1731   78.4281  219.8335 H   0  0  0  0  0  0  0  0  0  0  0  0
  138.6242   77.4895  221.3374 H   0  0  0  0  0  0  0  0  0  0  0  0
  139.0739   80.3892  220.6823 H   0  0  0  0  0  0  0  0  0  0  0  0
  138.2908   79.5840  222.1329 H   0  0  0  0  0  0  0  0  0  0  0  0
  141.1230   81.1196  220.7684 H   0  0  0  0  0  0  0  0  0  0  0  0
  143.2808   81.3890  221.9123 H   0  0  0  0  0  0  0  0  0  0  0  0
  143.8086   80.0800  223.9636 H   0  0  0  0  0  0  0  0  0  0  0  0
  142.0942   78.4822  224.8437 H   0  0  0  0  0  0  0  0  0  0  0  0
  139.9371   78.2339  223.6751 H   0  0  0  0  0  0  0  0  0  0  0  0
  139.2058   69.6487  222.6901 H   0  0  0  0  0  0  0  0  0  0  0  0
  138.9482   68.3722  224.8150 H   0  0  0  0  0  0  0  0  0  0  0  0
  139.2831   68.2488  227.1526 H   0  0  0  0  0  0  0  0  0  0  0  0
  140.1331   69.2719  229.2642 H   0  0  0  0  0  0  0  0  0  0  0  0
  141.2081   71.5091  229.2103 H   0  0  0  0  0  0  0  0  0  0  0  0
  141.4450   72.7451  227.0821 H   0  0  0  0  0  0  0  0  0  0  0  0
  1  2  2  0
  2  3  1  0
  3  4  1  0
  4  5  1  0
  5  6  2  0
  5  7  1  0
  7  8  1  0
  8  9  1  0
  9 10  1  0
 10 11  1  0
 11 12  1  0
 12 13  1  0
 13 14  1  0
 14 15  1  0
 15 16  2  0
 16 17  1  0
 17 18  2  0
 18 19  1  0
 19 20  2  0
  2 21  1  0
 21 22  2  0
 22 23  1  0
 23 24  2  0
 24 25  1  0
 25 26  2  0
 26 27  1  0
 27 28  2  0
 28 29  1  0
 29 30  2  0
 12  7  1  0
 20 15  1  0
 30 21  1  0
 29 24  1  0
  3 31  1  0
  4 32  1  0
  4 33  1  0
  8 34  1  0
  8 35  1  0
  9 36  1  0
  9 37  1  0
 10 38  1  0
 10 39  1  0
 11 40  1  0
 11 41  1  0
 12 42  1  6
 13 43  1  0
 13 44  1  0
 14 45  1  0
 14 46  1  0
 16 47  1  0
 17 48  1  0
 18 49  1  0
 19 50  1  0
 20 51  1  0
 22 52  1  0
 23 53  1  0
 25 54  1  0
 26 55  1  0
 27 56  1  0
 28 57  1  0
M  END
>  <smiles>  (68) 
O=C(NCC(=O)N1CCCCC1CCc1ccccc1)c1ccc2ccccc2n1

>  <score_type>  (68) 
oracle

>  <origin>  (68) 
autodockgpu

>  <m_score__min__energy>  (68) 
-9.4399999999999995

>  <m_primary>  (68) 
energy

>  <rmsd>  (68) 
2.248957846379087

>  <m_score__min__rmsd>  (68) 
2.248957846379087

>  <meeko>  (68) 
{"free_energy": -8.74, "intermolecular_energy": -10.83, "internal_energy": -2.48, "cluster_size": 38, "cluster_id": 1, "rank_in_cluster": 27}

>  <energy>  (68) 
-8.89

>  <cluster_rmsd>  (68) 
1.41

>  <cluster>  (68) 
1

$$$$

     RDKit          3D

 57 60  0  0  0  0  0  0  0  0999 V2000
  139.5180   71.3250  221.1650 O   0  0  0  0  0  0  0  0  0  0  0  0
  139.6670   71.9490  222.2430 C   0  0  0  0  0  0  0  0  0  0  0  0
  139.7170   73.3730  222.3260 N   0  0  0  0  0  0  0  0  0  0  0  0
  139.5930   74.2050  221.1060 C   0  0  0  0  0  0  0  0  0  0  0  0
  140.2820   75.4900  221.2960 C   0  0  0  0  0  0  0  0  0  0  0  0
  141.0450   75.5440  222.3360 O   0  0  0  0  0  0  0  0  0  0  0  0
  140.2280   76.6370  220.5250 N   0  0  0  0  0  0  0  0  0  0  0  0
  139.0250   77.4990  220.7500 C   0  0  0  0  0  0  0  0  0  0  0  0
  139.3350   78.8600  220.1910 C   0  0  0  0  0  0  0  0  0  0  0  0
  140.7200   79.3550  220.4590 C   0  0  0  0  0  0  0  0  0  0  0  0
  141.7980   78.3380  220.1790 C   0  0  0  0  0  0  0  0  0  0  0  0
  141.1270   77.1430  219.5310 C   0  0  1  0  0  0  0  0  0  0  0  0
  142.0710   76.1990  218.9010 C   0  0  0  0  0  0  0  0  0  0  0  0
  143.4440   76.1850  219.5460 C   0  0  0  0  0  0  0  0  0  0  0  0
  143.8730   74.8740  220.0290 C   0  0  0  0  0  0  0  0  0  0  0  0
  142.9250   73.8380  220.0030 C   0  0  0  0  0  0  0  0  0  0  0  0
  143.2340   72.5680  220.4380 C   0  0  0  0  0  0  0  0  0  0  0  0
  144.4950   72.2630  220.9200 C   0  0  0  0  0  0  0  0  0  0  0  0
  145.4440   73.2720  220.9530 C   0  0  0  0  0  0  0  0  0  0  0  0
  145.1050   74.5460  220.5080 C   0  0  0  0  0  0  0  0  0  0  0  0
  139.7980   71.1710  223.4930 C   0  0  0  0  0  0  0  0  0  0  0  0
  139.4290   69.8430  223.5320 C   0  0  0  0  0  0  0  0  0  0  0  0
  139.5360   69.0770  224.6850 C   0  0  0  0  0  0  0  0  0  0  0  0
  140.0270   69.6940  225.8030 C   0  0  0  0  0  0  0  0  0  0  0  0
  140.1420   68.9550  226.9620 C   0  0  0  0  0  0  0  0  0  0  0  0
  140.6370   69.5690  228.1000 C   0  0  0  0  0  0  0  0  0  0  0  0
  141.0080   70.9080  228.0600 C   0  0  0  0  0  0  0  0  0  0  0  0
  140.8910   71.6420  226.9020 C   0  0  0  0  0  0  0  0  0  0  0  0
  140.3960   71.0350  225.7570 C   0  0  0  0  0  0  0  0  0  0  0  0
  140.2720   71.7270  224.6170 N   0  0  0  0  0  0  0  0  0  0  0  0
  139.8430   73.7900  223.2630 H   0  0  0  0  0  0  0  0  0  0  0  0
  140.0445   73.6728  220.2557 H   0  0  0  0  0  0  0  0  0  0  0  0
  138.5278   74.3946  220.9074 H   0  0  0  0  0  0  0  0  0  0  0  0
  138.1535   77.0702  220.2336 H   0  0  0  0  0  0  0  0  0  0  0  0
  138.7897   77.5644  221.8225 H   0  0  0  0  0  0  0  0  0  0  0  0
  139.1918   78.8215  219.1010 H   0  0  0  0  0  0  0  0  0  0  0  0
  138.6556   79.5613  220.6975 H   0  0  0  0  0  0  0  0  0  0  0  0
  140.9017   80.2355  219.8252 H   0  0  0  0  0  0  0  0  0  0  0  0
  140.7731   79.5888  221.5326 H   0  0  0  0  0  0  0  0  0  0  0  0
  142.5501   78.7633  219.4983 H   0  0  0  0  0  0  0  0  0  0  0  0
  142.3090   78.0438  221.1076 H   0  0  0  0  0  0  0  0  0  0  0  0
  140.5421   77.4060  218.6373 H   0  0  0  0  0  0  0  0  0  0  0  0
  141.6459   75.1867  218.9680 H   0  0  0  0  0  0  0  0  0  0  0  0
  142.2087   76.5295  217.8609 H   0  0  0  0  0  0  0  0  0  0  0  0
  144.1763   76.5340  218.8030 H   0  0  0  0  0  0  0  0  0  0  0  0
  143.3819   76.8387  220.4285 H   0  0  0  0  0  0  0  0  0  0  0  0
  141.9125   74.0455  219.6266 H   0  0  0  0  0  0  0  0  0  0  0  0
  142.4649   71.7824  220.4016 H   0  0  0  0  0  0  0  0  0  0  0  0
  144.7371   71.2477  221.2672 H   0  0  0  0  0  0  0  0  0  0  0  0
  146.4576   73.0674  221.3281 H   0  0  0  0  0  0  0  0  0  0  0  0
  145.8743   75.3314  220.5451 H   0  0  0  0  0  0  0  0  0  0  0  0
  139.0362   69.3741  222.6178 H   0  0  0  0  0  0  0  0  0  0  0  0
  139.2384   68.0181  224.6990 H   0  0  0  0  0  0  0  0  0  0  0  0
  139.8455   67.8959  226.9818 H   0  0  0  0  0  0  0  0  0  0  0  0
  140.7365   68.9978  229.0348 H   0  0  0  0  0  0  0  0  0  0  0  0
  141.4012   71.3883  228.9681 H   0  0  0  0  0  0  0  0  0  0  0  0
  141.1875   72.7011  226.8843 H   0  0  0  0  0  0  0  0  0  0  0  0
  1  2  2  0
  2  3  1  0
  3  4  1  0
  4  5  1  0
  5  6  2  0
  5  7  1  0
  7  8  1  0
  8  9  1  0
  9 10  1  0
 10 11  1  0
 11 12  1  0
 12 13  1  0
 13 14  1  0
 14 15  1  0
 15 16  2  0
 16 17  1  0
 17 18  2  0
 18 19  1  0
 19 20  2  0
  2 21  1  0
 21 22  2  0
 22 23  1  0
 23 24  2  0
 24 25  1  0
 25 26  2  0
 26 27  1  0
 27 28  2  0
 28 29  1  0
 29 30  2  0
 12  7  1  0
 20 15  1  0
 30 21  1  0
 29 24  1  0
  3 31  1  0
  4 32  1  0
  4 33  1  0
  8 34  1  0
  8 35  1  0
  9 36  1  0
  9 37  1  0
 10 38  1  0
 10 39  1  0
 11 40  1  0
 11 41  1  0
 12 42  1  6
 13 43  1  0
 13 44  1  0
 14 45  1  0
 14 46  1  0
 16 47  1  0
 17 48  1  0
 18 49  1  0
 19 50  1  0
 20 51  1  0
 22 52  1  0
 23 53  1  0
 25 54  1  0
 26 55  1  0
 27 56  1  0
 28 57  1  0
M  END
>  <smiles>  (69) 
O=C(NCC(=O)N1CCCCC1CCc1ccccc1)c1ccc2ccccc2n1

>  <score_type>  (69) 
oracle

>  <origin>  (69) 
autodockgpu

>  <m_score__min__energy>  (69) 
-9.4399999999999995

>  <m_primary>  (69) 
energy

>  <rmsd>  (69) 
2.010633740425989

>  <m_score__min__rmsd>  (69) 
2.010633740425989

>  <meeko>  (69) 
{"free_energy": -8.16, "intermolecular_energy": -10.25, "internal_energy": -2.63, "cluster_size": 8, "cluster_id": 3, "rank_in_cluster": 6}

>  <energy>  (69) 
-8.86

>  <cluster_rmsd>  (69) 
1.53

>  <cluster>  (69) 
1

$$$$

     RDKit          3D

 57 60  0  0  0  0  0  0  0  0999 V2000
  140.6340   74.4750  221.9830 O   0  0  0  0  0  0  0  0  0  0  0  0
  139.6010   75.1780  222.0960 C   0  0  0  0  0  0  0  0  0  0  0  0
  138.2790   74.6650  221.9280 N   0  0  0  0  0  0  0  0  0  0  0  0
  138.0610   73.2360  221.6000 C   0  0  0  0  0  0  0  0  0  0  0  0
  137.3460   72.5680  222.6980 C   0  0  0  0  0  0  0  0  0  0  0  0
  136.3270   73.2170  223.1520 O   0  0  0  0  0  0  0  0  0  0  0  0
  137.6080   71.3540  223.3050 N   0  0  0  0  0  0  0  0  0  0  0  0
  136.4270   70.6950  223.9460 C   0  0  0  0  0  0  0  0  0  0  0  0
  136.7750   69.2470  224.1520 C   0  0  0  0  0  0  0  0  0  0  0  0
  137.5190   68.6070  223.0240 C   0  0  0  0  0  0  0  0  0  0  0  0
  138.6740   69.4280  222.5080 C   0  0  0  0  0  0  0  0  0  0  0  0
  138.8280   70.6140  223.4390 C   0  0  1  0  0  0  0  0  0  0  0  0
  140.1030   71.3400  223.2720 C   0  0  0  0  0  0  0  0  0  0  0  0
  140.7030   71.8310  224.5770 C   0  0  0  0  0  0  0  0  0  0  0  0
  140.6160   70.8760  225.6800 C   0  0  0  0  0  0  0  0  0  0  0  0
  140.3940   71.3980  226.9640 C   0  0  0  0  0  0  0  0  0  0  0  0
  140.2990   70.5780  228.0690 C   0  0  0  0  0  0  0  0  0  0  0  0
  140.4180   69.2040  227.9520 C   0  0  0  0  0  0  0  0  0  0  0  0
  140.6370   68.6710  226.6930 C   0  0  0  0  0  0  0  0  0  0  0  0
  140.7300   69.5220  225.5950 C   0  0  0  0  0  0  0  0  0  0  0  0
  139.7580   76.6120  222.4210 C   0  0  0  0  0  0  0  0  0  0  0  0
  138.6510   77.4210  222.5690 C   0  0  0  0  0  0  0  0  0  0  0  0
  138.7550   78.7710  222.8740 C   0  0  0  0  0  0  0  0  0  0  0  0
  140.0150   79.2830  223.0250 C   0  0  0  0  0  0  0  0  0  0  0  0
  140.1450   80.6230  223.3280 C   0  0  0  0  0  0  0  0  0  0  0  0
  141.4150   81.1530  223.4830 C   0  0  0  0  0  0  0  0  0  0  0  0
  142.5300   80.3370  223.3340 C   0  0  0  0  0  0  0  0  0  0  0  0
  142.3950   79.0010  223.0310 C   0  0  0  0  0  0  0  0  0  0  0  0
  141.1270   78.4610  222.8740 C   0  0  0  0  0  0  0  0  0  0  0  0
  140.9690   77.1640  222.5790 N   0  0  0  0  0  0  0  0  0  0  0  0
  137.4940   75.3270  222.0420 H   0  0  0  0  0  0  0  0  0  0  0  0
  137.4644   73.1612  220.6789 H   0  0  0  0  0  0  0  0  0  0  0  0
  139.0359   72.7473  221.4557 H   0  0  0  0  0  0  0  0  0  0  0  0
  136.2108   71.1708  224.9139 H   0  0  0  0  0  0  0  0  0  0  0  0
  135.5355   70.7927  223.3091 H   0  0  0  0  0  0  0  0  0  0  0  0
  137.3963   69.1712  225.0566 H   0  0  0  0  0  0  0  0  0  0  0  0
  135.8182   68.7102  224.2316 H   0  0  0  0  0  0  0  0  0  0  0  0
  137.9103   67.6397  223.3722 H   0  0  0  0  0  0  0  0  0  0  0  0
  136.8070   68.5008  222.1923 H   0  0  0  0  0  0  0  0  0  0  0  0
  139.5947   68.8261  222.5081 H   0  0  0  0  0  0  0  0  0  0  0  0
  138.4877   69.7613  221.4764 H   0  0  0  0  0  0  0  0  0  0  0  0
  138.9430   70.3243  224.4939 H   0  0  0  0  0  0  0  0  0  0  0  0
  140.8258   70.6654  222.7899 H   0  0  0  0  0  0  0  0  0  0  0  0
  139.8877   72.2303  222.6630 H   0  0  0  0  0  0  0  0  0  0  0  0
  141.7649   72.0592  224.4028 H   0  0  0  0  0  0  0  0  0  0  0  0
  140.1182   72.7124  224.8788 H   0  0  0  0  0  0  0  0  0  0  0  0
  140.2935   72.4859  227.0919 H   0  0  0  0  0  0  0  0  0  0  0  0
  140.1258   71.0234  229.0597 H   0  0  0  0  0  0  0  0  0  0  0  0
  140.3407   68.5531  228.8353 H   0  0  0  0  0  0  0  0  0  0  0  0
  140.7367   67.5835  226.5613 H   0  0  0  0  0  0  0  0  0  0  0  0
  140.9051   69.0760  224.6048 H   0  0  0  0  0  0  0  0  0  0  0  0
  137.6510   76.9811  222.4409 H   0  0  0  0  0  0  0  0  0  0  0  0
  137.8620   79.4029  222.9895 H   0  0  0  0  0  0  0  0  0  0  0  0
  139.2552   81.2592  223.4444 H   0  0  0  0  0  0  0  0  0  0  0  0
  141.5411   82.2189  223.7238 H   0  0  0  0  0  0  0  0  0  0  0  0
  143.5354   80.7651  223.4601 H   0  0  0  0  0  0  0  0  0  0  0  0
  143.2859   78.3665  222.9143 H   0  0  0  0  0  0  0  0  0  0  0  0
  1  2  2  0
  2  3  1  0
  3  4  1  0
  4  5  1  0
  5  6  2  0
  5  7  1  0
  7  8  1  0
  8  9  1  0
  9 10  1  0
 10 11  1  0
 11 12  1  0
 12 13  1  0
 13 14  1  0
 14 15  1  0
 15 16  2  0
 16 17  1  0
 17 18  2  0
 18 19  1  0
 19 20  2  0
  2 21  1  0
 21 22  2  0
 22 23  1  0
 23 24  2  0
 24 25  1  0
 25 26  2  0
 26 27  1  0
 27 28  2  0
 28 29  1  0
 29 30  2  0
 12  7  1  0
 20 15  1  0
 30 21  1  0
 29 24  1  0
  3 31  1  0
  4 32  1  0
  4 33  1  0
  8 34  1  0
  8 35  1  0
  9 36  1  0
  9 37  1  0
 10 38  1  0
 10 39  1  0
 11 40  1  0
 11 41  1  0
 12 42  1  1
 13 43  1  0
 13 44  1  0
 14 45  1  0
 14 46  1  0
 16 47  1  0
 17 48  1  0
 18 49  1  0
 19 50  1  0
 20 51  1  0
 22 52  1  0
 23 53  1  0
 25 54  1  0
 26 55  1  0
 27 56  1  0
 28 57  1  0
M  END
>  <smiles>  (70) 
O=C(NCC(=O)N1CCCCC1CCc1ccccc1)c1ccc2ccccc2n1

>  <score_type>  (70) 
oracle

>  <origin>  (70) 
autodockgpu

>  <m_score__min__energy>  (70) 
-9.4399999999999995

>  <m_primary>  (70) 
energy

>  <rmsd>  (70) 
8.231264708826803

>  <m_score__min__rmsd>  (70) 
8.231264708826803

>  <meeko>  (70) 
{"free_energy": -8.57, "intermolecular_energy": -10.66, "internal_energy": -1.89, "cluster_size": 4, "cluster_id": 2, "rank_in_cluster": 3}

>  <energy>  (70) 
-8.85

>  <cluster_rmsd>  (70) 
1.54

>  <cluster>  (70) 
1

$$$$

     RDKit          3D

 57 60  0  0  0  0  0  0  0  0999 V2000
  138.4930   71.9450  222.4310 O   0  0  0  0  0  0  0  0  0  0  0  0
  139.6190   71.4900  222.7460 C   0  0  0  0  0  0  0  0  0  0  0  0
  140.8170   71.7970  222.0340 N   0  0  0  0  0  0  0  0  0  0  0  0
  140.7860   72.6940  220.8540 C   0  0  0  0  0  0  0  0  0  0  0  0
  140.7310   74.0980  221.2860 C   0  0  0  0  0  0  0  0  0  0  0  0
  139.7530   74.3810  222.0790 O   0  0  0  0  0  0  0  0  0  0  0  0
  141.5720   75.1480  220.9650 N   0  0  0  0  0  0  0  0  0  0  0  0
  142.8490   74.7560  220.2910 C   0  0  0  0  0  0  0  0  0  0  0  0
  143.4100   75.9890  219.6370 C   0  0  0  0  0  0  0  0  0  0  0  0
  142.4010   76.8650  218.9660 C   0  0  0  0  0  0  0  0  0  0  0  0
  141.1780   77.1420  219.8030 C   0  0  0  0  0  0  0  0  0  0  0  0
  141.4370   76.5580  221.1780 C   0  0  1  0  0  0  0  0  0  0  0  0
  140.4860   77.0180  222.2090 C   0  0  0  0  0  0  0  0  0  0  0  0
  140.1450   78.4940  222.1130 C   0  0  0  0  0  0  0  0  0  0  0  0
  141.1540   79.3860  222.6810 C   0  0  0  0  0  0  0  0  0  0  0  0
  140.6960   80.4480  223.4780 C   0  0  0  0  0  0  0  0  0  0  0  0
  141.5690   81.3430  224.0570 C   0  0  0  0  0  0  0  0  0  0  0  0
  142.9370   81.2280  223.8740 C   0  0  0  0  0  0  0  0  0  0  0  0
  143.4070   80.1870  223.0920 C   0  0  0  0  0  0  0  0  0  0  0  0
  142.5030   79.2980  222.5190 C   0  0  0  0  0  0  0  0  0  0  0  0
  139.7110   70.5890  223.9150 C   0  0  0  0  0  0  0  0  0  0  0  0
  139.1670   69.3240  223.8670 C   0  0  0  0  0  0  0  0  0  0  0  0
  139.2330   68.4470  224.9420 C   0  0  0  0  0  0  0  0  0  0  0  0
  139.8660   68.8890  226.0720 C   0  0  0  0  0  0  0  0  0  0  0  0
  139.9440   68.0360  227.1530 C   0  0  0  0  0  0  0  0  0  0  0  0
  140.5820   68.4720  228.3030 C   0  0  0  0  0  0  0  0  0  0  0  0
  141.1300   69.7480  228.3500 C   0  0  0  0  0  0  0  0  0  0  0  0
  141.0490   70.5950  227.2680 C   0  0  0  0  0  0  0  0  0  0  0  0
  140.4120   70.1680  226.1130 C   0  0  0  0  0  0  0  0  0  0  0  0
  140.3200   70.9720  225.0460 N   0  0  0  0  0  0  0  0  0  0  0  0
  141.6950   71.3710  222.3740 H   0  0  0  0  0  0  0  0  0  0  0  0
  141.6926   72.5342  220.2520 H   0  0  0  0  0  0  0  0  0  0  0  0
  139.8924   72.4675  220.2539 H   0  0  0  0  0  0  0  0  0  0  0  0
  143.5616   74.3668  221.0331 H   0  0  0  0  0  0  0  0  0  0  0  0
  142.6681   73.9687  219.5444 H   0  0  0  0  0  0  0  0  0  0  0  0
  143.9176   76.5842  220.4104 H   0  0  0  0  0  0  0  0  0  0  0  0
  144.0850   75.6353  218.8437 H   0  0  0  0  0  0  0  0  0  0  0  0
  142.8811   77.8252  218.7263 H   0  0  0  0  0  0  0  0  0  0  0  0
  142.0586   76.3278  218.0692 H   0  0  0  0  0  0  0  0  0  0  0  0
  141.0106   78.2265  219.8791 H   0  0  0  0  0  0  0  0  0  0  0  0
  140.2828   76.6921  219.3489 H   0  0  0  0  0  0  0  0  0  0  0  0
  142.3651   76.9283  221.6379 H   0  0  0  0  0  0  0  0  0  0  0  0
  139.5560   76.4398  222.1057 H   0  0  0  0  0  0  0  0  0  0  0  0
  140.9713   76.8640  223.1841 H   0  0  0  0  0  0  0  0  0  0  0  0
  140.0192   78.7494  221.0505 H   0  0  0  0  0  0  0  0  0  0  0  0
  139.2279   78.6428  222.7019 H   0  0  0  0  0  0  0  0  0  0  0  0
  139.6152   80.5680  223.6438 H   0  0  0  0  0  0  0  0  0  0  0  0
  141.1729   82.1624  224.6748 H   0  0  0  0  0  0  0  0  0  0  0  0
  143.6312   81.9444  224.3375 H   0  0  0  0  0  0  0  0  0  0  0  0
  144.4872   80.0635  222.9248 H   0  0  0  0  0  0  0  0  0  0  0  0
  142.9000   78.4791  221.9012 H   0  0  0  0  0  0  0  0  0  0  0  0
  138.6630   68.9974  222.9454 H   0  0  0  0  0  0  0  0  0  0  0  0
  138.7949   67.4395  224.8874 H   0  0  0  0  0  0  0  0  0  0  0  0
  139.5075   67.0276  227.1030 H   0  0  0  0  0  0  0  0  0  0  0  0
  140.6546   67.8089  229.1776 H   0  0  0  0  0  0  0  0  0  0  0  0
  141.6364   70.0865  229.2660 H   0  0  0  0  0  0  0  0  0  0  0  0
  141.4863   71.6030  227.3193 H   0  0  0  0  0  0  0  0  0  0  0  0
  1  2  2  0
  2  3  1  0
  3  4  1  0
  4  5  1  0
  5  6  2  0
  5  7  1  0
  7  8  1  0
  8  9  1  0
  9 10  1  0
 10 11  1  0
 11 12  1  0
 12 13  1  0
 13 14  1  0
 14 15  1  0
 15 16  2  0
 16 17  1  0
 17 18  2  0
 18 19  1  0
 19 20  2  0
  2 21  1  0
 21 22  2  0
 22 23  1  0
 23 24  2  0
 24 25  1  0
 25 26  2  0
 26 27  1  0
 27 28  2  0
 28 29  1  0
 29 30  2  0
 12  7  1  0
 20 15  1  0
 30 21  1  0
 29 24  1  0
  3 31  1  0
  4 32  1  0
  4 33  1  0
  8 34  1  0
  8 35  1  0
  9 36  1  0
  9 37  1  0
 10 38  1  0
 10 39  1  0
 11 40  1  0
 11 41  1  0
 12 42  1  1
 13 43  1  0
 13 44  1  0
 14 45  1  0
 14 46  1  0
 16 47  1  0
 17 48  1  0
 18 49  1  0
 19 50  1  0
 20 51  1  0
 22 52  1  0
 23 53  1  0
 25 54  1  0
 26 55  1  0
 27 56  1  0
 28 57  1  0
M  END
>  <smiles>  (71) 
O=C(NCC(=O)N1CCCCC1CCc1ccccc1)c1ccc2ccccc2n1

>  <score_type>  (71) 
oracle

>  <origin>  (71) 
autodockgpu

>  <m_score__min__energy>  (71) 
-9.4399999999999995

>  <m_primary>  (71) 
energy

>  <rmsd>  (71) 
2.575829998836112

>  <m_score__min__rmsd>  (71) 
2.575829998836112

>  <meeko>  (71) 
{"free_energy": -9.44, "intermolecular_energy": -11.52, "internal_energy": -1.31, "cluster_size": 38, "cluster_id": 1, "rank_in_cluster": 1}

>  <energy>  (71) 
-8.84

>  <cluster_rmsd>  (71) 
1.46

>  <cluster>  (71) 
1

$$$$

     RDKit          3D

 57 60  0  0  0  0  0  0  0  0999 V2000
  141.0180   71.4490  221.4260 O   0  0  0  0  0  0  0  0  0  0  0  0
  140.4380   71.9830  222.4030 C   0  0  0  0  0  0  0  0  0  0  0  0
  139.9770   73.3340  222.3990 N   0  0  0  0  0  0  0  0  0  0  0  0
  140.1690   74.1940  221.2080 C   0  0  0  0  0  0  0  0  0  0  0  0
  140.0260   75.6110  221.5770 C   0  0  0  0  0  0  0  0  0  0  0  0
  139.3990   75.8180  222.6860 O   0  0  0  0  0  0  0  0  0  0  0  0
  140.4640   76.7400  220.9090 N   0  0  0  0  0  0  0  0  0  0  0  0
  141.8240   76.6260  220.2950 C   0  0  0  0  0  0  0  0  0  0  0  0
  141.9510   77.7250  219.2750 C   0  0  0  0  0  0  0  0  0  0  0  0
  140.7290   77.9640  218.4470 C   0  0  0  0  0  0  0  0  0  0  0  0
  139.4530   78.0410  219.2470 C   0  0  0  0  0  0  0  0  0  0  0  0
  139.8420   78.0150  220.7120 C   0  0  1  0  0  0  0  0  0  0  0  0
  138.7500   78.4050  221.6250 C   0  0  0  0  0  0  0  0  0  0  0  0
  139.2130   78.7120  223.0370 C   0  0  0  0  0  0  0  0  0  0  0  0
  140.5260   79.3500  223.1190 C   0  0  0  0  0  0  0  0  0  0  0  0
  140.5530   80.7410  223.3070 C   0  0  0  0  0  0  0  0  0  0  0  0
  141.7410   81.4330  223.3960 C   0  0  0  0  0  0  0  0  0  0  0  0
  142.9580   80.7800  223.3030 C   0  0  0  0  0  0  0  0  0  0  0  0
  142.9520   79.4070  223.1180 C   0  0  0  0  0  0  0  0  0  0  0  0
  141.7370   78.7340  223.0320 C   0  0  0  0  0  0  0  0  0  0  0  0
  140.2190   71.1730  223.6190 C   0  0  0  0  0  0  0  0  0  0  0  0
  139.5590   69.9650  223.5460 C   0  0  0  0  0  0  0  0  0  0  0  0
  139.3330   69.1740  224.6650 C   0  0  0  0  0  0  0  0  0  0  0  0
  139.7960   69.6410  225.8650 C   0  0  0  0  0  0  0  0  0  0  0  0
  139.5840   68.8730  226.9910 C   0  0  0  0  0  0  0  0  0  0  0  0
  140.0470   69.3350  228.2120 C   0  0  0  0  0  0  0  0  0  0  0  0
  140.7130   70.5530  228.2850 C   0  0  0  0  0  0  0  0  0  0  0  0
  140.9220   71.3150  227.1580 C   0  0  0  0  0  0  0  0  0  0  0  0
  140.4610   70.8610  225.9310 C   0  0  0  0  0  0  0  0  0  0  0  0
  140.6510   71.5840  224.8200 N   0  0  0  0  0  0  0  0  0  0  0  0
  139.5100   73.6790  223.2540 H   0  0  0  0  0  0  0  0  0  0  0  0
  141.1750   74.0254  220.7962 H   0  0  0  0  0  0  0  0  0  0  0  0
  139.4081   73.9403  220.4552 H   0  0  0  0  0  0  0  0  0  0  0  0
  142.5969   76.7406  221.0693 H   0  0  0  0  0  0  0  0  0  0  0  0
  141.9557   75.6411  219.8231 H   0  0  0  0  0  0  0  0  0  0  0  0
  142.1906   78.6577  219.8066 H   0  0  0  0  0  0  0  0  0  0  0  0
  142.7380   77.4057  218.5759 H   0  0  0  0  0  0  0  0  0  0  0  0
  140.8570   78.9139  217.9072 H   0  0  0  0  0  0  0  0  0  0  0  0
  140.6293   77.1029  217.7699 H   0  0  0  0  0  0  0  0  0  0  0  0
  138.9183   78.9739  219.0153 H   0  0  0  0  0  0  0  0  0  0  0  0
  138.7876   77.1994  219.0040 H   0  0  0  0  0  0  0  0  0  0  0  0
  140.5654   78.7983  220.9825 H   0  0  0  0  0  0  0  0  0  0  0  0
  138.2609   79.3021  221.2176 H   0  0  0  0  0  0  0  0  0  0  0  0
  138.0658   77.5463  221.6916 H   0  0  0  0  0  0  0  0  0  0  0  0
  138.4755   79.3825  223.5023 H   0  0  0  0  0  0  0  0  0  0  0  0
  139.3019   77.7453  223.5544 H   0  0  0  0  0  0  0  0  0  0  0  0
  139.6036   81.2911  223.3851 H   0  0  0  0  0  0  0  0  0  0  0  0
  141.7221   82.5229  223.5435 H   0  0  0  0  0  0  0  0  0  0  0  0
  143.9043   81.3362  223.3741 H   0  0  0  0  0  0  0  0  0  0  0  0
  143.8994   78.8536  223.0398 H   0  0  0  0  0  0  0  0  0  0  0  0
  141.7561   77.6440  222.8856 H   0  0  0  0  0  0  0  0  0  0  0  0
  139.1988   69.6153  222.5673 H   0  0  0  0  0  0  0  0  0  0  0  0
  138.8040   68.2125  224.5898 H   0  0  0  0  0  0  0  0  0  0  0  0
  139.0564   67.9104  226.9205 H   0  0  0  0  0  0  0  0  0  0  0  0
  139.8879   68.7389  229.1227 H   0  0  0  0  0  0  0  0  0  0  0  0
  141.0784   70.9132  229.2580 H   0  0  0  0  0  0  0  0  0  0  0  0
  141.4507   72.2769  227.2298 H   0  0  0  0  0  0  0  0  0  0  0  0
  1  2  2  0
  2  3  1  0
  3  4  1  0
  4  5  1  0
  5  6  2  0
  5  7  1  0
  7  8  1  0
  8  9  1  0
  9 10  1  0
 10 11  1  0
 11 12  1  0
 12 13  1  0
 13 14  1  0
 14 15  1  0
 15 16  2  0
 16 17  1  0
 17 18  2  0
 18 19  1  0
 19 20  2  0
  2 21  1  0
 21 22  2  0
 22 23  1  0
 23 24  2  0
 24 25  1  0
 25 26  2  0
 26 27  1  0
 27 28  2  0
 28 29  1  0
 29 30  2  0
 12  7  1  0
 20 15  1  0
 30 21  1  0
 29 24  1  0
  3 31  1  0
  4 32  1  0
  4 33  1  0
  8 34  1  0
  8 35  1  0
  9 36  1  0
  9 37  1  0
 10 38  1  0
 10 39  1  0
 11 40  1  0
 11 41  1  0
 12 42  1  6
 13 43  1  0
 13 44  1  0
 14 45  1  0
 14 46  1  0
 16 47  1  0
 17 48  1  0
 18 49  1  0
 19 50  1  0
 20 51  1  0
 22 52  1  0
 23 53  1  0
 25 54  1  0
 26 55  1  0
 27 56  1  0
 28 57  1  0
M  END
>  <smiles>  (72) 
O=C(NCC(=O)N1CCCCC1CCc1ccccc1)c1ccc2ccccc2n1

>  <score_type>  (72) 
oracle

>  <origin>  (72) 
autodockgpu

>  <m_score__min__energy>  (72) 
-9.4399999999999995

>  <m_primary>  (72) 
energy

>  <rmsd>  (72) 
2.3858554022631124

>  <m_score__min__rmsd>  (72) 
2.3858554022631124

>  <meeko>  (72) 
{"free_energy": -9.02, "intermolecular_energy": -11.11, "internal_energy": -2.22, "cluster_size": 38, "cluster_id": 1, "rank_in_cluster": 12}

>  <energy>  (72) 
-8.83

>  <cluster_rmsd>  (72) 
1.74

>  <cluster>  (72) 
1

$$$$

     RDKit          3D

 57 60  0  0  0  0  0  0  0  0999 V2000
  138.0500   70.2910  221.9450 O   0  0  0  0  0  0  0  0  0  0  0  0
  138.6570   70.9390  222.8310 C   0  0  0  0  0  0  0  0  0  0  0  0
  138.9600   72.3300  222.7170 N   0  0  0  0  0  0  0  0  0  0  0  0
  138.5620   73.0930  221.5110 C   0  0  0  0  0  0  0  0  0  0  0  0
  139.2870   74.3720  221.4580 C   0  0  0  0  0  0  0  0  0  0  0  0
  140.2160   74.5020  222.3440 O   0  0  0  0  0  0  0  0  0  0  0  0
  139.1160   75.4420  220.6000 N   0  0  0  0  0  0  0  0  0  0  0  0
  138.0900   75.2400  219.5290 C   0  0  0  0  0  0  0  0  0  0  0  0
  137.7260   76.5970  218.9920 C   0  0  0  0  0  0  0  0  0  0  0  0
  137.5870   77.6710  220.0250 C   0  0  0  0  0  0  0  0  0  0  0  0
  138.7170   77.7100  221.0220 C   0  0  0  0  0  0  0  0  0  0  0  0
  139.7630   76.7190  220.5500 C   0  0  1  0  0  0  0  0  0  0  0  0
  141.0680   76.8640  221.2260 C   0  0  0  0  0  0  0  0  0  0  0  0
  140.9610   77.2750  222.6820 C   0  0  0  0  0  0  0  0  0  0  0  0
  141.3580   78.6560  222.9530 C   0  0  0  0  0  0  0  0  0  0  0  0
  140.3970   79.4980  223.5330 C   0  0  0  0  0  0  0  0  0  0  0  0
  140.6760   80.8160  223.8250 C   0  0  0  0  0  0  0  0  0  0  0  0
  141.9200   81.3600  223.5560 C   0  0  0  0  0  0  0  0  0  0  0  0
  142.8820   80.5440  222.9850 C   0  0  0  0  0  0  0  0  0  0  0  0
  142.5730   79.2170  222.7000 C   0  0  0  0  0  0  0  0  0  0  0  0
  139.0790   70.2290  224.0560 C   0  0  0  0  0  0  0  0  0  0  0  0
  138.8620   68.8750  224.1900 C   0  0  0  0  0  0  0  0  0  0  0  0
  139.2430   68.1710  225.3250 C   0  0  0  0  0  0  0  0  0  0  0  0
  139.8530   68.8780  226.3250 C   0  0  0  0  0  0  0  0  0  0  0  0
  140.2410   68.2010  227.4620 C   0  0  0  0  0  0  0  0  0  0  0  0
  140.8590   68.9070  228.4820 C   0  0  0  0  0  0  0  0  0  0  0  0
  141.0780   70.2720  228.3460 C   0  0  0  0  0  0  0  0  0  0  0  0
  140.6880   70.9430  227.2090 C   0  0  0  0  0  0  0  0  0  0  0  0
  140.0680   70.2450  226.1830 C   0  0  0  0  0  0  0  0  0  0  0  0
  139.6800   70.8750  225.0670 N   0  0  0  0  0  0  0  0  0  0  0  0
  139.4640   72.7720  223.5040 H   0  0  0  0  0  0  0  0  0  0  0  0
  138.7989   72.5033  220.6131 H   0  0  0  0  0  0  0  0  0  0  0  0
  137.4813   73.2940  221.5533 H   0  0  0  0  0  0  0  0  0  0  0  0
  138.5051   74.6161  218.7237 H   0  0  0  0  0  0  0  0  0  0  0  0
  137.2021   74.7316  219.9331 H   0  0  0  0  0  0  0  0  0  0  0  0
  138.5092   76.9046  218.2835 H   0  0  0  0  0  0  0  0  0  0  0  0
  136.7347   76.4875  218.5279 H   0  0  0  0  0  0  0  0  0  0  0  0
  137.5451   78.6426  219.5109 H   0  0  0  0  0  0  0  0  0  0  0  0
  136.6694   77.4526  220.5910 H   0  0  0  0  0  0  0  0  0  0  0  0
  139.1476   78.7213  221.0648 H   0  0  0  0  0  0  0  0  0  0  0  0
  138.3591   77.4512  222.0294 H   0  0  0  0  0  0  0  0  0  0  0  0
  140.0945   76.8986  219.5166 H   0  0  0  0  0  0  0  0  0  0  0  0
  141.5937   75.8990  221.1758 H   0  0  0  0  0  0  0  0  0  0  0  0
  141.6108   77.6668  220.7056 H   0  0  0  0  0  0  0  0  0  0  0  0
  139.9149   77.1499  222.9983 H   0  0  0  0  0  0  0  0  0  0  0  0
  141.6589   76.6336  223.2402 H   0  0  0  0  0  0  0  0  0  0  0  0
  139.3981   79.0971  223.7599 H   0  0  0  0  0  0  0  0  0  0  0  0
  139.8970   81.4459  224.2793 H   0  0  0  0  0  0  0  0  0  0  0  0
  142.1386   82.4125  223.7896 H   0  0  0  0  0  0  0  0  0  0  0  0
  143.8824   80.9412  222.7584 H   0  0  0  0  0  0  0  0  0  0  0  0
  143.3523   78.5874  222.2458 H   0  0  0  0  0  0  0  0  0  0  0  0
  138.3698   68.3326  223.3693 H   0  0  0  0  0  0  0  0  0  0  0  0
  139.0618   67.0899  225.4162 H   0  0  0  0  0  0  0  0  0  0  0  0
  140.0631   67.1197  227.5577 H   0  0  0  0  0  0  0  0  0  0  0  0
  141.1757   68.3871  229.3982 H   0  0  0  0  0  0  0  0  0  0  0  0
  141.5706   70.8252  229.1592 H   0  0  0  0  0  0  0  0  0  0  0  0
  140.8666   72.0243  227.1148 H   0  0  0  0  0  0  0  0  0  0  0  0
  1  2  2  0
  2  3  1  0
  3  4  1  0
  4  5  1  0
  5  6  2  0
  5  7  1  0
  7  8  1  0
  8  9  1  0
  9 10  1  0
 10 11  1  0
 11 12  1  0
 12 13  1  0
 13 14  1  0
 14 15  1  0
 15 16  2  0
 16 17  1  0
 17 18  2  0
 18 19  1  0
 19 20  2  0
  2 21  1  0
 21 22  2  0
 22 23  1  0
 23 24  2  0
 24 25  1  0
 25 26  2  0
 26 27  1  0
 27 28  2  0
 28 29  1  0
 29 30  2  0
 12  7  1  0
 20 15  1  0
 30 21  1  0
 29 24  1  0
  3 31  1  0
  4 32  1  0
  4 33  1  0
  8 34  1  0
  8 35  1  0
  9 36  1  0
  9 37  1  0
 10 38  1  0
 10 39  1  0
 11 40  1  0
 11 41  1  0
 12 42  1  6
 13 43  1  0
 13 44  1  0
 14 45  1  0
 14 46  1  0
 16 47  1  0
 17 48  1  0
 18 49  1  0
 19 50  1  0
 20 51  1  0
 22 52  1  0
 23 53  1  0
 25 54  1  0
 26 55  1  0
 27 56  1  0
 28 57  1  0
M  END
>  <smiles>  (73) 
O=C(NCC(=O)N1CCCCC1CCc1ccccc1)c1ccc2ccccc2n1

>  <score_type>  (73) 
oracle

>  <origin>  (73) 
autodockgpu

>  <m_score__min__energy>  (73) 
-9.4399999999999995

>  <m_primary>  (73) 
energy

>  <rmsd>  (73) 
1.7384396953881758

>  <m_score__min__rmsd>  (73) 
1.7384396953881758

>  <meeko>  (73) 
{"free_energy": -8.76, "intermolecular_energy": -10.85, "internal_energy": -2.13, "cluster_size": 38, "cluster_id": 1, "rank_in_cluster": 24}

>  <energy>  (73) 
-8.77

>  <cluster_rmsd>  (73) 
1.34

>  <cluster>  (73) 
1

$$$$

     RDKit          3D

 57 60  0  0  0  0  0  0  0  0999 V2000
  140.7330   71.4430  221.3360 O   0  0  0  0  0  0  0  0  0  0  0  0
  140.3020   72.0660  222.3360 C   0  0  0  0  0  0  0  0  0  0  0  0
  139.9180   73.4410  222.2990 N   0  0  0  0  0  0  0  0  0  0  0  0
  140.0150   74.2180  221.0420 C   0  0  0  0  0  0  0  0  0  0  0  0
  140.2550   75.6380  221.3400 C   0  0  0  0  0  0  0  0  0  0  0  0
  139.9250   76.0020  222.5330 O   0  0  0  0  0  0  0  0  0  0  0  0
  140.7820   76.6280  220.5300 N   0  0  0  0  0  0  0  0  0  0  0  0
  142.2320   76.4710  220.1960 C   0  0  0  0  0  0  0  0  0  0  0  0
  142.5160   77.3390  219.0010 C   0  0  0  0  0  0  0  0  0  0  0  0
  141.4580   77.3280  217.9440 C   0  0  0  0  0  0  0  0  0  0  0  0
  140.0570   77.4920  218.4790 C   0  0  0  0  0  0  0  0  0  0  0  0
  140.1780   77.7950  219.9600 C   0  0  1  0  0  0  0  0  0  0  0  0
  138.9310   78.3000  220.5670 C   0  0  0  0  0  0  0  0  0  0  0  0
  139.1160   79.5660  221.3820 C   0  0  0  0  0  0  0  0  0  0  0  0
  140.3630   79.6180  222.1450 C   0  0  0  0  0  0  0  0  0  0  0  0
  141.3670   80.4790  221.6740 C   0  0  0  0  0  0  0  0  0  0  0  0
  142.5770   80.5960  222.3230 C   0  0  0  0  0  0  0  0  0  0  0  0
  142.8480   79.8680  223.4690 C   0  0  0  0  0  0  0  0  0  0  0  0
  141.8690   79.0140  223.9490 C   0  0  0  0  0  0  0  0  0  0  0  0
  140.6560   78.9150  223.2730 C   0  0  0  0  0  0  0  0  0  0  0  0
  140.1840   71.3420  223.6190 C   0  0  0  0  0  0  0  0  0  0  0  0
  139.6080   70.0900  223.6650 C   0  0  0  0  0  0  0  0  0  0  0  0
  139.4790   69.3770  224.8490 C   0  0  0  0  0  0  0  0  0  0  0  0
  139.9500   69.9670  225.9900 C   0  0  0  0  0  0  0  0  0  0  0  0
  139.8330   69.2780  227.1800 C   0  0  0  0  0  0  0  0  0  0  0  0
  140.3060   69.8650  228.3410 C   0  0  0  0  0  0  0  0  0  0  0  0
  140.8870   71.1260  228.2940 C   0  0  0  0  0  0  0  0  0  0  0  0
  141.0010   71.8100  227.1050 C   0  0  0  0  0  0  0  0  0  0  0  0
  140.5300   71.2300  225.9360 C   0  0  0  0  0  0  0  0  0  0  0  0
  140.6290   71.8740  224.7660 N   0  0  0  0  0  0  0  0  0  0  0  0
  139.5750   73.8620  223.1780 H   0  0  0  0  0  0  0  0  0  0  0  0
  140.8468   73.8280  220.4370 H   0  0  0  0  0  0  0  0  0  0  0  0
  139.0700   74.1224  220.4871 H   0  0  0  0  0  0  0  0  0  0  0  0
  142.8505   76.7902  221.0478 H   0  0  0  0  0  0  0  0  0  0  0  0
  142.4678   75.4193  219.9763 H   0  0  0  0  0  0  0  0  0  0  0  0
  142.6360   78.3744  219.3525 H   0  0  0  0  0  0  0  0  0  0  0  0
  143.4223   76.9282  218.5321 H   0  0  0  0  0  0  0  0  0  0  0  0
  141.6598   78.1518  217.2435 H   0  0  0  0  0  0  0  0  0  0  0  0
  141.5011   76.3413  217.4596 H   0  0  0  0  0  0  0  0  0  0  0  0
  139.5512   78.3221  217.9641 H   0  0  0  0  0  0  0  0  0  0  0  0
  139.4652   76.5797  218.3130 H   0  0  0  0  0  0  0  0  0  0  0  0
  140.8242   78.6588  220.1751 H   0  0  0  0  0  0  0  0  0  0  0  0
  138.2124   78.5085  219.7607 H   0  0  0  0  0  0  0  0  0  0  0  0
  138.5737   77.5229  221.2587 H   0  0  0  0  0  0  0  0  0  0  0  0
  139.0981   80.4238  220.6936 H   0  0  0  0  0  0  0  0  0  0  0  0
  138.2978   79.5880  222.1169 H   0  0  0  0  0  0  0  0  0  0  0  0
  141.1837   81.0734  220.7668 H   0  0  0  0  0  0  0  0  0  0  0  0
  143.3407   81.2796  221.9237 H   0  0  0  0  0  0  0  0  0  0  0  0
  143.8149   79.9652  223.9844 H   0  0  0  0  0  0  0  0  0  0  0  0
  142.0483   78.4190  224.8567 H   0  0  0  0  0  0  0  0  0  0  0  0
  139.8926   78.2312  223.6724 H   0  0  0  0  0  0  0  0  0  0  0  0
  139.2381   69.6409  222.7315 H   0  0  0  0  0  0  0  0  0  0  0  0
  139.0172   68.3788  224.8690 H   0  0  0  0  0  0  0  0  0  0  0  0
  139.3719   68.2797  227.2055 H   0  0  0  0  0  0  0  0  0  0  0  0
  140.2219   69.3333  229.3003 H   0  0  0  0  0  0  0  0  0  0  0  0
  141.2616   71.5848  229.2210 H   0  0  0  0  0  0  0  0  0  0  0  0
  141.4619   72.8085  227.0818 H   0  0  0  0  0  0  0  0  0  0  0  0
  1  2  2  0
  2  3  1  0
  3  4  1  0
  4  5  1  0
  5  6  2  0
  5  7  1  0
  7  8  1  0
  8  9  1  0
  9 10  1  0
 10 11  1  0
 11 12  1  0
 12 13  1  0
 13 14  1  0
 14 15  1  0
 15 16  2  0
 16 17  1  0
 17 18  2  0
 18 19  1  0
 19 20  2  0
  2 21  1  0
 21 22  2  0
 22 23  1  0
 23 24  2  0
 24 25  1  0
 25 26  2  0
 26 27  1  0
 27 28  2  0
 28 29  1  0
 29 30  2  0
 12  7  1  0
 20 15  1  0
 30 21  1  0
 29 24  1  0
  3 31  1  0
  4 32  1  0
  4 33  1  0
  8 34  1  0
  8 35  1  0
  9 36  1  0
  9 37  1  0
 10 38  1  0
 10 39  1  0
 11 40  1  0
 11 41  1  0
 12 42  1  6
 13 43  1  0
 13 44  1  0
 14 45  1  0
 14 46  1  0
 16 47  1  0
 17 48  1  0
 18 49  1  0
 19 50  1  0
 20 51  1  0
 22 52  1  0
 23 53  1  0
 25 54  1  0
 26 55  1  0
 27 56  1  0
 28 57  1  0
M  END
>  <smiles>  (74) 
O=C(NCC(=O)N1CCCCC1CCc1ccccc1)c1ccc2ccccc2n1

>  <score_type>  (74) 
oracle

>  <origin>  (74) 
autodockgpu

>  <m_score__min__energy>  (74) 
-9.4399999999999995

>  <m_primary>  (74) 
energy

>  <rmsd>  (74) 
2.2525770456533114

>  <m_score__min__rmsd>  (74) 
2.2525770456533114

>  <meeko>  (74) 
{"free_energy": -8.75, "intermolecular_energy": -10.84, "internal_energy": -2.5, "cluster_size": 38, "cluster_id": 1, "rank_in_cluster": 26}

>  <energy>  (74) 
-8.76

>  <cluster_rmsd>  (74) 
1.6

>  <cluster>  (74) 
1

$$$$

     RDKit          3D

 57 60  0  0  0  0  0  0  0  0999 V2000
  137.1040   76.3430  222.3980 O   0  0  0  0  0  0  0  0  0  0  0  0
  138.3580   76.3760  222.3840 C   0  0  0  0  0  0  0  0  0  0  0  0
  139.1700   75.2410  222.0850 N   0  0  0  0  0  0  0  0  0  0  0  0
  138.5510   73.9320  221.7700 C   0  0  0  0  0  0  0  0  0  0  0  0
  139.3250   72.8430  222.3840 C   0  0  0  0  0  0  0  0  0  0  0  0
  140.5910   72.8750  222.1360 O   0  0  0  0  0  0  0  0  0  0  0  0
  138.8920   71.8010  223.1830 N   0  0  0  0  0  0  0  0  0  0  0  0
  137.4080   71.6020  223.2200 C   0  0  0  0  0  0  0  0  0  0  0  0
  137.1520   70.2180  223.7470 C   0  0  0  0  0  0  0  0  0  0  0  0
  138.0760   69.1610  223.2300 C   0  0  0  0  0  0  0  0  0  0  0  0
  139.5320   69.5510  223.2680 C   0  0  0  0  0  0  0  0  0  0  0  0
  139.6210   70.8760  223.9990 C   0  0  1  0  0  0  0  0  0  0  0  0
  140.9920   71.2400  224.4060 C   0  0  0  0  0  0  0  0  0  0  0  0
  141.1320   71.5360  225.8880 C   0  0  0  0  0  0  0  0  0  0  0  0
  140.7130   70.4440  226.7650 C   0  0  0  0  0  0  0  0  0  0  0  0
  141.1240   69.1480  226.4180 C   0  0  0  0  0  0  0  0  0  0  0  0
  140.7790   68.0540  227.1820 C   0  0  0  0  0  0  0  0  0  0  0  0
  140.0110   68.1930  228.3250 C   0  0  0  0  0  0  0  0  0  0  0  0
  139.5970   69.4650  228.6840 C   0  0  0  0  0  0  0  0  0  0  0  0
  139.9600   70.5520  227.8950 C   0  0  0  0  0  0  0  0  0  0  0  0
  139.0310   77.6550  222.6920 C   0  0  0  0  0  0  0  0  0  0  0  0
  138.2940   78.7730  223.0190 C   0  0  0  0  0  0  0  0  0  0  0  0
  138.8870   79.9930  223.3150 C   0  0  0  0  0  0  0  0  0  0  0  0
  140.2530   80.0510  223.2710 C   0  0  0  0  0  0  0  0  0  0  0  0
  140.8670   81.2520  223.5610 C   0  0  0  0  0  0  0  0  0  0  0  0
  142.2500   81.3240  223.5190 C   0  0  0  0  0  0  0  0  0  0  0  0
  142.9920   80.1960  223.1900 C   0  0  0  0  0  0  0  0  0  0  0  0
  142.3760   79.0000  222.9010 C   0  0  0  0  0  0  0  0  0  0  0  0
  140.9910   78.9190  222.9400 C   0  0  0  0  0  0  0  0  0  0  0  0
  140.3670   77.7670  222.6630 N   0  0  0  0  0  0  0  0  0  0  0  0
  140.1950   75.3720  222.1000 H   0  0  0  0  0  0  0  0  0  0  0  0
  137.5231   73.9126  222.1614 H   0  0  0  0  0  0  0  0  0  0  0  0
  138.5402   73.7935  220.6788 H   0  0  0  0  0  0  0  0  0  0  0  0
  136.9452   72.3480  223.8828 H   0  0  0  0  0  0  0  0  0  0  0  0
  136.9755   71.7208  222.2156 H   0  0  0  0  0  0  0  0  0  0  0  0
  137.2470   70.2475  224.8425 H   0  0  0  0  0  0  0  0  0  0  0  0
  136.1452   69.9402  223.4019 H   0  0  0  0  0  0  0  0  0  0  0  0
  137.9437   68.2561  223.8412 H   0  0  0  0  0  0  0  0  0  0  0  0
  137.8163   68.9985  222.1735 H   0  0  0  0  0  0  0  0  0  0  0  0
  140.1136   68.7856  223.8027 H   0  0  0  0  0  0  0  0  0  0  0  0
  139.9402   69.6378  222.2502 H   0  0  0  0  0  0  0  0  0  0  0  0
  139.1565   70.8527  224.9959 H   0  0  0  0  0  0  0  0  0  0  0  0
  141.6620   70.4047  224.1542 H   0  0  0  0  0  0  0  0  0  0  0  0
  141.2515   72.1640  223.8685 H   0  0  0  0  0  0  0  0  0  0  0  0
  142.1891   71.7578  226.0960 H   0  0  0  0  0  0  0  0  0  0  0  0
  140.4652   72.3841  226.1027 H   0  0  0  0  0  0  0  0  0  0  0  0
  141.7356   69.0018  225.5155 H   0  0  0  0  0  0  0  0  0  0  0  0
  141.1199   67.0533  226.8782 H   0  0  0  0  0  0  0  0  0  0  0  0
  139.7369   67.3173  228.9316 H   0  0  0  0  0  0  0  0  0  0  0  0
  138.9858   69.6147  229.5862 H   0  0  0  0  0  0  0  0  0  0  0  0
  139.6206   71.5528  228.2003 H   0  0  0  0  0  0  0  0  0  0  0  0
  137.1971   78.6959  223.0464 H   0  0  0  0  0  0  0  0  0  0  0  0
  138.2838   80.8757  223.5740 H   0  0  0  0  0  0  0  0  0  0  0  0
  140.2686   82.1375  223.8212 H   0  0  0  0  0  0  0  0  0  0  0  0
  142.7596   82.2721  223.7456 H   0  0  0  0  0  0  0  0  0  0  0  0
  144.0897   80.2603  223.1601 H   0  0  0  0  0  0  0  0  0  0  0  0
  142.9762   78.1155  222.6412 H   0  0  0  0  0  0  0  0  0  0  0  0
  1  2  2  0
  2  3  1  0
  3  4  1  0
  4  5  1  0
  5  6  2  0
  5  7  1  0
  7  8  1  0
  8  9  1  0
  9 10  1  0
 10 11  1  0
 11 12  1  0
 12 13  1  0
 13 14  1  0
 14 15  1  0
 15 16  2  0
 16 17  1  0
 17 18  2  0
 18 19  1  0
 19 20  2  0
  2 21  1  0
 21 22  2  0
 22 23  1  0
 23 24  2  0
 24 25  1  0
 25 26  2  0
 26 27  1  0
 27 28  2  0
 28 29  1  0
 29 30  2  0
 12  7  1  0
 20 15  1  0
 30 21  1  0
 29 24  1  0
  3 31  1  0
  4 32  1  0
  4 33  1  0
  8 34  1  0
  8 35  1  0
  9 36  1  0
  9 37  1  0
 10 38  1  0
 10 39  1  0
 11 40  1  0
 11 41  1  0
 12 42  1  1
 13 43  1  0
 13 44  1  0
 14 45  1  0
 14 46  1  0
 16 47  1  0
 17 48  1  0
 18 49  1  0
 19 50  1  0
 20 51  1  0
 22 52  1  0
 23 53  1  0
 25 54  1  0
 26 55  1  0
 27 56  1  0
 28 57  1  0
M  END
>  <smiles>  (75) 
O=C(NCC(=O)N1CCCCC1CCc1ccccc1)c1ccc2ccccc2n1

>  <score_type>  (75) 
oracle

>  <origin>  (75) 
autodockgpu

>  <m_score__min__energy>  (75) 
-9.4399999999999995

>  <m_primary>  (75) 
energy

>  <rmsd>  (75) 
8.445747281654393

>  <m_score__min__rmsd>  (75) 
8.445747281654393

>  <meeko>  (75) 
{"free_energy": -8.83, "intermolecular_energy": -10.92, "internal_energy": -2.04, "cluster_size": 4, "cluster_id": 2, "rank_in_cluster": 2}

>  <energy>  (75) 
-8.75

>  <cluster_rmsd>  (75) 
1.54

>  <cluster>  (75) 
1

$$$$

     RDKit          3D

 57 60  0  0  0  0  0  0  0  0999 V2000
  141.2880   72.1900  221.5540 O   0  0  0  0  0  0  0  0  0  0  0  0
  140.3200   72.4340  222.3140 C   0  0  0  0  0  0  0  0  0  0  0  0
  139.3980   73.5010  222.0930 N   0  0  0  0  0  0  0  0  0  0  0  0
  139.5460   74.3960  220.9220 C   0  0  0  0  0  0  0  0  0  0  0  0
  140.5580   75.4270  221.1960 C   0  0  0  0  0  0  0  0  0  0  0  0
  141.1280   75.3300  222.3500 O   0  0  0  0  0  0  0  0  0  0  0  0
  140.9820   76.4750  220.3990 N   0  0  0  0  0  0  0  0  0  0  0  0
  142.3430   76.3050  219.7980 C   0  0  0  0  0  0  0  0  0  0  0  0
  142.4550   77.2770  218.6550 C   0  0  0  0  0  0  0  0  0  0  0  0
  141.2290   77.4020  217.8080 C   0  0  0  0  0  0  0  0  0  0  0  0
  139.9530   77.5570  218.5960 C   0  0  0  0  0  0  0  0  0  0  0  0
  140.3450   77.7100  220.0530 C   0  0  1  0  0  0  0  0  0  0  0  0
  139.2490   78.1930  220.9170 C   0  0  0  0  0  0  0  0  0  0  0  0
  139.5730   78.1490  222.3980 C   0  0  0  0  0  0  0  0  0  0  0  0
  140.5760   79.1220  222.8280 C   0  0  0  0  0  0  0  0  0  0  0  0
  141.9240   78.7820  222.6340 C   0  0  0  0  0  0  0  0  0  0  0  0
  142.9430   79.6330  223.0070 C   0  0  0  0  0  0  0  0  0  0  0  0
  142.6730   80.8590  223.5890 C   0  0  0  0  0  0  0  0  0  0  0  0
  141.3480   81.2120  223.7880 C   0  0  0  0  0  0  0  0  0  0  0  0
  140.3400   80.3340  223.4020 C   0  0  0  0  0  0  0  0  0  0  0  0
  140.1230   71.5740  223.5000 C   0  0  0  0  0  0  0  0  0  0  0  0
  139.3890   70.4110  223.4060 C   0  0  0  0  0  0  0  0  0  0  0  0
  139.1810   69.5750  224.4950 C   0  0  0  0  0  0  0  0  0  0  0  0
  139.7370   69.9510  225.6870 C   0  0  0  0  0  0  0  0  0  0  0  0
  139.5440   69.1380  226.7850 C   0  0  0  0  0  0  0  0  0  0  0  0
  140.1020   69.5080  227.9980 C   0  0  0  0  0  0  0  0  0  0  0  0
  140.8420   70.6800  228.0910 C   0  0  0  0  0  0  0  0  0  0  0  0
  141.0310   71.4890  226.9940 C   0  0  0  0  0  0  0  0  0  0  0  0
  140.4760   71.1270  225.7750 C   0  0  0  0  0  0  0  0  0  0  0  0
  140.6460   71.8960  224.6920 N   0  0  0  0  0  0  0  0  0  0  0  0
  138.6340   73.6180  222.7790 H   0  0  0  0  0  0  0  0  0  0  0  0
  139.8577   73.8038  220.0490 H   0  0  0  0  0  0  0  0  0  0  0  0
  138.5815   74.8845  220.7192 H   0  0  0  0  0  0  0  0  0  0  0  0
  143.1158   76.5193  220.5509 H   0  0  0  0  0  0  0  0  0  0  0  0
  142.4856   75.2729  219.4454 H   0  0  0  0  0  0  0  0  0  0  0  0
  142.6840   78.2688  219.0719 H   0  0  0  0  0  0  0  0  0  0  0  0
  143.2447   76.8866  217.9963 H   0  0  0  0  0  0  0  0  0  0  0  0
  141.3446   78.2832  217.1599 H   0  0  0  0  0  0  0  0  0  0  0  0
  141.1393   76.4658  217.2375 H   0  0  0  0  0  0  0  0  0  0  0  0
  139.4059   78.4489  218.2567 H   0  0  0  0  0  0  0  0  0  0  0  0
  139.2978   76.6845  218.4562 H   0  0  0  0  0  0  0  0  0  0  0  0
  141.0597   78.5282  220.2254 H   0  0  0  0  0  0  0  0  0  0  0  0
  139.0235   79.2339  220.6420 H   0  0  0  0  0  0  0  0  0  0  0  0
  138.3936   77.5205  220.7558 H   0  0  0  0  0  0  0  0  0  0  0  0
  138.6460   78.3405  222.9584 H   0  0  0  0  0  0  0  0  0  0  0  0
  139.9973   77.1537  222.5961 H   0  0  0  0  0  0  0  0  0  0  0  0
  142.1733   77.8145  222.1739 H   0  0  0  0  0  0  0  0  0  0  0  0
  143.9877   79.3322  222.8391 H   0  0  0  0  0  0  0  0  0  0  0  0
  143.4883   81.5352  223.8857 H   0  0  0  0  0  0  0  0  0  0  0  0
  141.0950   82.1788  224.2476 H   0  0  0  0  0  0  0  0  0  0  0  0
  139.2955   80.6354  223.5697 H   0  0  0  0  0  0  0  0  0  0  0  0
  138.9529   70.1356  222.4344 H   0  0  0  0  0  0  0  0  0  0  0  0
  138.5939   68.6494  224.4031 H   0  0  0  0  0  0  0  0  0  0  0  0
  138.9570   68.2117  226.6988 H   0  0  0  0  0  0  0  0  0  0  0  0
  139.9593   68.8747  228.8860 H   0  0  0  0  0  0  0  0  0  0  0  0
  141.2839   70.9659  229.0569 H   0  0  0  0  0  0  0  0  0  0  0  0
  141.6175   72.4154  227.0828 H   0  0  0  0  0  0  0  0  0  0  0  0
  1  2  2  0
  2  3  1  0
  3  4  1  0
  4  5  1  0
  5  6  2  0
  5  7  1  0
  7  8  1  0
  8  9  1  0
  9 10  1  0
 10 11  1  0
 11 12  1  0
 12 13  1  0
 13 14  1  0
 14 15  1  0
 15 16  2  0
 16 17  1  0
 17 18  2  0
 18 19  1  0
 19 20  2  0
  2 21  1  0
 21 22  2  0
 22 23  1  0
 23 24  2  0
 24 25  1  0
 25 26  2  0
 26 27  1  0
 27 28  2  0
 28 29  1  0
 29 30  2  0
 12  7  1  0
 20 15  1  0
 30 21  1  0
 29 24  1  0
  3 31  1  0
  4 32  1  0
  4 33  1  0
  8 34  1  0
  8 35  1  0
  9 36  1  0
  9 37  1  0
 10 38  1  0
 10 39  1  0
 11 40  1  0
 11 41  1  0
 12 42  1  6
 13 43  1  0
 13 44  1  0
 14 45  1  0
 14 46  1  0
 16 47  1  0
 17 48  1  0
 18 49  1  0
 19 50  1  0
 20 51  1  0
 22 52  1  0
 23 53  1  0
 25 54  1  0
 26 55  1  0
 27 56  1  0
 28 57  1  0
M  END
>  <smiles>  (76) 
O=C(NCC(=O)N1CCCCC1CCc1ccccc1)c1ccc2ccccc2n1

>  <score_type>  (76) 
oracle

>  <origin>  (76) 
autodockgpu

>  <m_score__min__energy>  (76) 
-9.4399999999999995

>  <m_primary>  (76) 
energy

>  <rmsd>  (76) 
2.1692494917325273

>  <m_score__min__rmsd>  (76) 
2.1692494917325273

>  <meeko>  (76) 
{"free_energy": -9.05, "intermolecular_energy": -11.14, "internal_energy": -1.66, "cluster_size": 38, "cluster_id": 1, "rank_in_cluster": 11}

>  <energy>  (76) 
-8.75

>  <cluster_rmsd>  (76) 
1.44

>  <cluster>  (76) 
1

$$$$

     RDKit          3D

 57 60  0  0  0  0  0  0  0  0999 V2000
  141.0860   71.5290  221.4730 O   0  0  0  0  0  0  0  0  0  0  0  0
  140.4750   72.0290  222.4480 C   0  0  0  0  0  0  0  0  0  0  0  0
  139.9690   73.3640  222.4550 N   0  0  0  0  0  0  0  0  0  0  0  0
  140.1500   74.2470  221.2780 C   0  0  0  0  0  0  0  0  0  0  0  0
  139.9150   75.6490  221.6540 C   0  0  0  0  0  0  0  0  0  0  0  0
  139.2050   75.8090  222.7200 O   0  0  0  0  0  0  0  0  0  0  0  0
  140.3460   76.8080  221.0350 N   0  0  0  0  0  0  0  0  0  0  0  0
  141.7420   76.7600  220.4970 C   0  0  0  0  0  0  0  0  0  0  0  0
  141.8820   77.8830  219.5070 C   0  0  0  0  0  0  0  0  0  0  0  0
  140.7010   78.0920  218.6140 C   0  0  0  0  0  0  0  0  0  0  0  0
  139.3790   78.1020  219.3410 C   0  0  0  0  0  0  0  0  0  0  0  0
  139.6850   78.0620  220.8250 C   0  0  1  0  0  0  0  0  0  0  0  0
  138.5290   78.3900  221.6810 C   0  0  0  0  0  0  0  0  0  0  0  0
  138.9100   78.9630  223.0330 C   0  0  0  0  0  0  0  0  0  0  0  0
  140.2100   79.6320  223.0620 C   0  0  0  0  0  0  0  0  0  0  0  0
  141.3210   78.8590  223.4340 C   0  0  0  0  0  0  0  0  0  0  0  0
  142.5880   79.3990  223.4920 C   0  0  0  0  0  0  0  0  0  0  0  0
  142.8120   80.7300  223.1850 C   0  0  0  0  0  0  0  0  0  0  0  0
  141.7280   81.5080  222.8160 C   0  0  0  0  0  0  0  0  0  0  0  0
  140.4600   80.9370  222.7660 C   0  0  0  0  0  0  0  0  0  0  0  0
  140.2650   71.1960  223.6500 C   0  0  0  0  0  0  0  0  0  0  0  0
  139.6390   69.9720  223.5520 C   0  0  0  0  0  0  0  0  0  0  0  0
  139.4240   69.1580  224.6570 C   0  0  0  0  0  0  0  0  0  0  0  0
  139.8600   69.6200  225.8690 C   0  0  0  0  0  0  0  0  0  0  0  0
  139.6570   68.8310  226.9810 C   0  0  0  0  0  0  0  0  0  0  0  0
  140.0940   69.2880  228.2140 C   0  0  0  0  0  0  0  0  0  0  0  0
  140.7250   70.5220  228.3120 C   0  0  0  0  0  0  0  0  0  0  0  0
  140.9240   71.3070  227.1980 C   0  0  0  0  0  0  0  0  0  0  0  0
  140.4900   70.8570  225.9600 C   0  0  0  0  0  0  0  0  0  0  0  0
  140.6730   71.6010  224.8620 N   0  0  0  0  0  0  0  0  0  0  0  0
  139.4790   73.6820  223.3070 H   0  0  0  0  0  0  0  0  0  0  0  0
  141.1767   74.1399  220.8979 H   0  0  0  0  0  0  0  0  0  0  0  0
  139.4291   73.9587  220.4988 H   0  0  0  0  0  0  0  0  0  0  0  0
  142.4650   76.8886  221.3159 H   0  0  0  0  0  0  0  0  0  0  0  0
  141.9391   75.7910  220.0151 H   0  0  0  0  0  0  0  0  0  0  0  0
  142.0534   78.8131  220.0687 H   0  0  0  0  0  0  0  0  0  0  0  0
  142.7193   77.6084  218.8485 H   0  0  0  0  0  0  0  0  0  0  0  0
  140.8214   79.0575  218.1009 H   0  0  0  0  0  0  0  0  0  0  0  0
  140.6748   77.2428  217.9153 H   0  0  0  0  0  0  0  0  0  0  0  0
  138.8206   79.0174  219.0956 H   0  0  0  0  0  0  0  0  0  0  0  0
  138.7635   77.2397  219.0452 H   0  0  0  0  0  0  0  0  0  0  0  0
  140.3595   78.8680  221.1497 H   0  0  0  0  0  0  0  0  0  0  0  0
  137.9064   79.1284  221.1546 H   0  0  0  0  0  0  0  0  0  0  0  0
  137.9947   77.4476  221.8720 H   0  0  0  0  0  0  0  0  0  0  0  0
  138.1411   79.6929  223.3262 H   0  0  0  0  0  0  0  0  0  0  0  0
  138.9801   78.1115  223.7259 H   0  0  0  0  0  0  0  0  0  0  0  0
  141.1773   77.7977  223.6851 H   0  0  0  0  0  0  0  0  0  0  0  0
  143.4347   78.7618  223.7870 H   0  0  0  0  0  0  0  0  0  0  0  0
  143.8242   81.1581  223.2329 H   0  0  0  0  0  0  0  0  0  0  0  0
  141.8680   82.5696  222.5642 H   0  0  0  0  0  0  0  0  0  0  0  0
  139.6136   81.5748  222.4713 H   0  0  0  0  0  0  0  0  0  0  0  0
  139.2978   69.6277  222.5645 H   0  0  0  0  0  0  0  0  0  0  0  0
  138.9241   68.1828  224.5617 H   0  0  0  0  0  0  0  0  0  0  0  0
  139.1567   67.8555  226.8911 H   0  0  0  0  0  0  0  0  0  0  0  0
  139.9415   68.6745  229.1142 H   0  0  0  0  0  0  0  0  0  0  0  0
  141.0708   70.8773  229.2939 H   0  0  0  0  0  0  0  0  0  0  0  0
  141.4231   72.2830  227.2894 H   0  0  0  0  0  0  0  0  0  0  0  0
  1  2  2  0
  2  3  1  0
  3  4  1  0
  4  5  1  0
  5  6  2  0
  5  7  1  0
  7  8  1  0
  8  9  1  0
  9 10  1  0
 10 11  1  0
 11 12  1  0
 12 13  1  0
 13 14  1  0
 14 15  1  0
 15 16  2  0
 16 17  1  0
 17 18  2  0
 18 19  1  0
 19 20  2  0
  2 21  1  0
 21 22  2  0
 22 23  1  0
 23 24  2  0
 24 25  1  0
 25 26  2  0
 26 27  1  0
 27 28  2  0
 28 29  1  0
 29 30  2  0
 12  7  1  0
 20 15  1  0
 30 21  1  0
 29 24  1  0
  3 31  1  0
  4 32  1  0
  4 33  1  0
  8 34  1  0
  8 35  1  0
  9 36  1  0
  9 37  1  0
 10 38  1  0
 10 39  1  0
 11 40  1  0
 11 41  1  0
 12 42  1  6
 13 43  1  0
 13 44  1  0
 14 45  1  0
 14 46  1  0
 16 47  1  0
 17 48  1  0
 18 49  1  0
 19 50  1  0
 20 51  1  0
 22 52  1  0
 23 53  1  0
 25 54  1  0
 26 55  1  0
 27 56  1  0
 28 57  1  0
M  END
>  <smiles>  (77) 
O=C(NCC(=O)N1CCCCC1CCc1ccccc1)c1ccc2ccccc2n1

>  <score_type>  (77) 
oracle

>  <origin>  (77) 
autodockgpu

>  <m_score__min__energy>  (77) 
-9.4399999999999995

>  <m_primary>  (77) 
energy

>  <rmsd>  (77) 
2.4692183689162617

>  <m_score__min__rmsd>  (77) 
2.4692183689162617

>  <meeko>  (77) 
{"free_energy": -8.89, "intermolecular_energy": -10.98, "internal_energy": -2.37, "cluster_size": 38, "cluster_id": 1, "rank_in_cluster": 18}

>  <energy>  (77) 
-8.74

>  <cluster_rmsd>  (77) 
1.44

>  <cluster>  (77) 
1

$$$$

     RDKit          3D

 57 60  0  0  0  0  0  0  0  0999 V2000
  138.1440   70.4760  221.8740 O   0  0  0  0  0  0  0  0  0  0  0  0
  138.7690   71.0730  222.7830 C   0  0  0  0  0  0  0  0  0  0  0  0
  139.1260   72.4530  222.7140 N   0  0  0  0  0  0  0  0  0  0  0  0
  138.7650   73.2680  221.5310 C   0  0  0  0  0  0  0  0  0  0  0  0
  139.5710   74.4980  221.4960 C   0  0  0  0  0  0  0  0  0  0  0  0
  140.5560   74.5200  222.3290 O   0  0  0  0  0  0  0  0  0  0  0  0
  139.4240   75.6210  220.7040 N   0  0  0  0  0  0  0  0  0  0  0  0
  139.8460   75.4530  219.2770 C   0  0  0  0  0  0  0  0  0  0  0  0
  139.2270   76.5740  218.4890 C   0  0  0  0  0  0  0  0  0  0  0  0
  137.8170   76.9070  218.8600 C   0  0  0  0  0  0  0  0  0  0  0  0
  137.5880   77.0280  220.3460 C   0  0  0  0  0  0  0  0  0  0  0  0
  138.9450   76.9350  221.0160 C   0  0  1  0  0  0  0  0  0  0  0  0
  138.9400   77.3560  222.4310 C   0  0  0  0  0  0  0  0  0  0  0  0
  138.9290   78.8610  222.6220 C   0  0  0  0  0  0  0  0  0  0  0  0
  140.2350   79.4420  222.9290 C   0  0  0  0  0  0  0  0  0  0  0  0
  140.3150   80.8410  222.9970 C   0  0  0  0  0  0  0  0  0  0  0  0
  141.5020   81.4830  223.2790 C   0  0  0  0  0  0  0  0  0  0  0  0
  142.6650   80.7670  223.5080 C   0  0  0  0  0  0  0  0  0  0  0  0
  142.6050   79.3850  223.4460 C   0  0  0  0  0  0  0  0  0  0  0  0
  141.3930   78.7640  223.1590 C   0  0  0  0  0  0  0  0  0  0  0  0
  139.1570   70.3090  223.9880 C   0  0  0  0  0  0  0  0  0  0  0  0
  138.9030   68.9570  224.0710 C   0  0  0  0  0  0  0  0  0  0  0  0
  139.2520   68.2040  225.1840 C   0  0  0  0  0  0  0  0  0  0  0  0
  139.8650   68.8600  226.2160 C   0  0  0  0  0  0  0  0  0  0  0  0
  140.2210   68.1340  227.3340 C   0  0  0  0  0  0  0  0  0  0  0  0
  140.8420   68.7870  228.3860 C   0  0  0  0  0  0  0  0  0  0  0  0
  141.0970   70.1500  228.3010 C   0  0  0  0  0  0  0  0  0  0  0  0
  140.7400   70.8710  227.1840 C   0  0  0  0  0  0  0  0  0  0  0  0
  140.1170   70.2250  226.1260 C   0  0  0  0  0  0  0  0  0  0  0  0
  139.7600   70.9030  225.0280 N   0  0  0  0  0  0  0  0  0  0  0  0
  139.6410   72.8510  223.5170 H   0  0  0  0  0  0  0  0  0  0  0  0
  138.9522   72.6849  220.6173 H   0  0  0  0  0  0  0  0  0  0  0  0
  137.7005   73.5382  221.5928 H   0  0  0  0  0  0  0  0  0  0  0  0
  140.9423   75.5010  219.2012 H   0  0  0  0  0  0  0  0  0  0  0  0
  139.5180   74.4779  218.8877 H   0  0  0  0  0  0  0  0  0  0  0  0
  139.8405   77.4748  218.6383 H   0  0  0  0  0  0  0  0  0  0  0  0
  139.1964   76.2332  217.4436 H   0  0  0  0  0  0  0  0  0  0  0  0
  137.5523   77.8655  218.3897 H   0  0  0  0  0  0  0  0  0  0  0  0
  137.1892   76.0756  218.5070 H   0  0  0  0  0  0  0  0  0  0  0  0
  137.1184   77.9954  220.5777 H   0  0  0  0  0  0  0  0  0  0  0  0
  136.9191   76.2319  220.7049 H   0  0  0  0  0  0  0  0  0  0  0  0
  139.6698   77.6680  220.6320 H   0  0  0  0  0  0  0  0  0  0  0  0
  138.0441   76.9386  222.9139 H   0  0  0  0  0  0  0  0  0  0  0  0
  139.8725   76.9829  222.8796 H   0  0  0  0  0  0  0  0  0  0  0  0
  138.5568   79.3224  221.6954 H   0  0  0  0  0  0  0  0  0  0  0  0
  138.2849   79.0617  223.4908 H   0  0  0  0  0  0  0  0  0  0  0  0
  139.4092   81.4398  222.8211 H   0  0  0  0  0  0  0  0  0  0  0  0
  141.5257   82.5819  223.3228 H   0  0  0  0  0  0  0  0  0  0  0  0
  143.6106   81.2820  223.7330 H   0  0  0  0  0  0  0  0  0  0  0  0
  143.5083   78.7826  223.6222 H   0  0  0  0  0  0  0  0  0  0  0  0
  141.3694   77.6651  223.1156 H   0  0  0  0  0  0  0  0  0  0  0  0
  138.4066   68.4572  223.2262 H   0  0  0  0  0  0  0  0  0  0  0  0
  139.0442   67.1250  225.2339 H   0  0  0  0  0  0  0  0  0  0  0  0
  140.0151   67.0548  227.3890 H   0  0  0  0  0  0  0  0  0  0  0  0
  141.1327   68.2273  229.2872 H   0  0  0  0  0  0  0  0  0  0  0  0
  141.5921   70.6613  229.1397 H   0  0  0  0  0  0  0  0  0  0  0  0
  140.9469   71.9501  227.1307 H   0  0  0  0  0  0  0  0  0  0  0  0
  1  2  2  0
  2  3  1  0
  3  4  1  0
  4  5  1  0
  5  6  2  0
  5  7  1  0
  7  8  1  0
  8  9  1  0
  9 10  1  0
 10 11  1  0
 11 12  1  0
 12 13  1  0
 13 14  1  0
 14 15  1  0
 15 16  2  0
 16 17  1  0
 17 18  2  0
 18 19  1  0
 19 20  2  0
  2 21  1  0
 21 22  2  0
 22 23  1  0
 23 24  2  0
 24 25  1  0
 25 26  2  0
 26 27  1  0
 27 28  2  0
 28 29  1  0
 29 30  2  0
 12  7  1  0
 20 15  1  0
 30 21  1  0
 29 24  1  0
  3 31  1  0
  4 32  1  0
  4 33  1  0
  8 34  1  0
  8 35  1  0
  9 36  1  0
  9 37  1  0
 10 38  1  0
 10 39  1  0
 11 40  1  0
 11 41  1  0
 12 42  1  6
 13 43  1  0
 13 44  1  0
 14 45  1  0
 14 46  1  0
 16 47  1  0
 17 48  1  0
 18 49  1  0
 19 50  1  0
 20 51  1  0
 22 52  1  0
 23 53  1  0
 25 54  1  0
 26 55  1  0
 27 56  1  0
 28 57  1  0
M  END
>  <smiles>  (78) 
O=C(NCC(=O)N1CCCCC1CCc1ccccc1)c1ccc2ccccc2n1

>  <score_type>  (78) 
oracle

>  <origin>  (78) 
autodockgpu

>  <m_score__min__energy>  (78) 
-9.4399999999999995

>  <m_primary>  (78) 
energy

>  <rmsd>  (78) 
1.9942629318019252

>  <m_score__min__rmsd>  (78) 
1.9942629318019252

>  <meeko>  (78) 
{"free_energy": -8.41, "intermolecular_energy": -10.5, "internal_energy": -2.18, "cluster_size": 38, "cluster_id": 1, "rank_in_cluster": 35}

>  <energy>  (78) 
-8.72

>  <cluster_rmsd>  (78) 
1.95

>  <cluster>  (78) 
1

$$$$

     RDKit          3D

 57 60  0  0  0  0  0  0  0  0999 V2000
  139.0160   70.8130  221.4230 O   0  0  0  0  0  0  0  0  0  0  0  0
  139.2920   71.5010  222.4350 C   0  0  0  0  0  0  0  0  0  0  0  0
  139.3570   72.9270  222.4210 N   0  0  0  0  0  0  0  0  0  0  0  0
  139.0960   73.6830  221.1730 C   0  0  0  0  0  0  0  0  0  0  0  0
  139.0810   75.1270  221.4490 C   0  0  0  0  0  0  0  0  0  0  0  0
  139.1300   75.4380  222.7000 O   0  0  0  0  0  0  0  0  0  0  0  0
  139.0250   76.1880  220.5640 N   0  0  0  0  0  0  0  0  0  0  0  0
  137.9490   76.0960  219.5280 C   0  0  0  0  0  0  0  0  0  0  0  0
  137.7490   77.4750  218.9620 C   0  0  0  0  0  0  0  0  0  0  0  0
  137.7850   78.5830  219.9650 C   0  0  0  0  0  0  0  0  0  0  0  0
  138.9410   78.4990  220.9290 C   0  0  0  0  0  0  0  0  0  0  0  0
  139.8330   77.3670  220.4580 C   0  0  1  0  0  0  0  0  0  0  0  0
  141.1660   77.3560  221.0920 C   0  0  0  0  0  0  0  0  0  0  0  0
  141.1310   77.5610  222.5950 C   0  0  0  0  0  0  0  0  0  0  0  0
  141.4200   78.9270  223.0270 C   0  0  0  0  0  0  0  0  0  0  0  0
  142.7690   79.3150  223.0690 C   0  0  0  0  0  0  0  0  0  0  0  0
  143.1430   80.5820  223.4630 C   0  0  0  0  0  0  0  0  0  0  0  0
  142.1990   81.5230  223.8340 C   0  0  0  0  0  0  0  0  0  0  0  0
  140.8630   81.1590  223.7990 C   0  0  0  0  0  0  0  0  0  0  0  0
  140.5140   79.8730  223.3970 C   0  0  0  0  0  0  0  0  0  0  0  0
  139.5630   70.8010  223.7080 C   0  0  0  0  0  0  0  0  0  0  0  0
  139.3030   69.4530  223.8350 C   0  0  0  0  0  0  0  0  0  0  0  0
  139.5430   68.7580  225.0130 C   0  0  0  0  0  0  0  0  0  0  0  0
  140.0550   69.4680  226.0640 C   0  0  0  0  0  0  0  0  0  0  0  0
  140.3020   68.8010  227.2460 C   0  0  0  0  0  0  0  0  0  0  0  0
  140.8200   69.5090  228.3180 C   0  0  0  0  0  0  0  0  0  0  0  0
  141.0820   70.8680  228.1900 C   0  0  0  0  0  0  0  0  0  0  0  0
  140.8330   71.5290  227.0090 C   0  0  0  0  0  0  0  0  0  0  0  0
  140.3140   70.8290  225.9300 C   0  0  0  0  0  0  0  0  0  0  0  0
  140.0630   71.4490  224.7700 N   0  0  0  0  0  0  0  0  0  0  0  0
  139.5930   73.4000  223.3090 H   0  0  0  0  0  0  0  0  0  0  0  0
  139.8868   73.4609  220.4413 H   0  0  0  0  0  0  0  0  0  0  0  0
  138.1172   73.3840  220.7698 H   0  0  0  0  0  0  0  0  0  0  0  0
  138.2539   75.4029  218.7301 H   0  0  0  0  0  0  0  0  0  0  0  0
  137.0152   75.7193  219.9709 H   0  0  0  0  0  0  0  0  0  0  0  0
  138.5426   77.6585  218.2228 H   0  0  0  0  0  0  0  0  0  0  0  0
  136.7374   77.4853  218.5300 H   0  0  0  0  0  0  0  0  0  0  0  0
  137.8547   79.5379  219.4234 H   0  0  0  0  0  0  0  0  0  0  0  0
  136.8651   78.5017  220.5627 H   0  0  0  0  0  0  0  0  0  0  0  0
  139.5013   79.4456  220.9297 H   0  0  0  0  0  0  0  0  0  0  0  0
  138.5841   78.3160  221.9533 H   0  0  0  0  0  0  0  0  0  0  0  0
  140.1532   77.4743  219.4111 H   0  0  0  0  0  0  0  0  0  0  0  0
  141.6403   76.3853  220.8853 H   0  0  0  0  0  0  0  0  0  0  0  0
  141.7300   78.1992  220.6667 H   0  0  0  0  0  0  0  0  0  0  0  0
  140.1271   77.2918  222.9552 H   0  0  0  0  0  0  0  0  0  0  0  0
  141.9237   76.9252  223.0161 H   0  0  0  0  0  0  0  0  0  0  0  0
  143.5454   78.5910  222.7808 H   0  0  0  0  0  0  0  0  0  0  0  0
  144.2098   80.8493  223.4828 H   0  0  0  0  0  0  0  0  0  0  0  0
  142.5013   82.5329  224.1483 H   0  0  0  0  0  0  0  0  0  0  0  0
  140.0841   81.8805  224.0866 H   0  0  0  0  0  0  0  0  0  0  0  0
  139.4470   79.6064  223.3772 H   0  0  0  0  0  0  0  0  0  0  0  0
  138.8908   68.9087  222.9726 H   0  0  0  0  0  0  0  0  0  0  0  0
  139.3304   67.6820  225.0973 H   0  0  0  0  0  0  0  0  0  0  0  0
  140.0912   67.7251  227.3357 H   0  0  0  0  0  0  0  0  0  0  0  0
  141.0238   68.9962  229.2696 H   0  0  0  0  0  0  0  0  0  0  0  0
  141.4944   71.4233  229.0453 H   0  0  0  0  0  0  0  0  0  0  0  0
  141.0441   72.6050  226.9214 H   0  0  0  0  0  0  0  0  0  0  0  0
  1  2  2  0
  2  3  1  0
  3  4  1  0
  4  5  1  0
  5  6  2  0
  5  7  1  0
  7  8  1  0
  8  9  1  0
  9 10  1  0
 10 11  1  0
 11 12  1  0
 12 13  1  0
 13 14  1  0
 14 15  1  0
 15 16  2  0
 16 17  1  0
 17 18  2  0
 18 19  1  0
 19 20  2  0
  2 21  1  0
 21 22  2  0
 22 23  1  0
 23 24  2  0
 24 25  1  0
 25 26  2  0
 26 27  1  0
 27 28  2  0
 28 29  1  0
 29 30  2  0
 12  7  1  0
 20 15  1  0
 30 21  1  0
 29 24  1  0
  3 31  1  0
  4 32  1  0
  4 33  1  0
  8 34  1  0
  8 35  1  0
  9 36  1  0
  9 37  1  0
 10 38  1  0
 10 39  1  0
 11 40  1  0
 11 41  1  0
 12 42  1  6
 13 43  1  0
 13 44  1  0
 14 45  1  0
 14 46  1  0
 16 47  1  0
 17 48  1  0
 18 49  1  0
 19 50  1  0
 20 51  1  0
 22 52  1  0
 23 53  1  0
 25 54  1  0
 26 55  1  0
 27 56  1  0
 28 57  1  0
M  END
>  <smiles>  (79) 
O=C(NCC(=O)N1CCCCC1CCc1ccccc1)c1ccc2ccccc2n1

>  <score_type>  (79) 
oracle

>  <origin>  (79) 
autodockgpu

>  <m_score__min__energy>  (79) 
-9.4399999999999995

>  <m_primary>  (79) 
energy

>  <rmsd>  (79) 
1.793598213433613

>  <m_score__min__rmsd>  (79) 
1.793598213433613

>  <meeko>  (79) 
{"free_energy": -8.5, "intermolecular_energy": -10.59, "internal_energy": -2.25, "cluster_size": 38, "cluster_id": 1, "rank_in_cluster": 33}

>  <energy>  (79) 
-8.68

>  <cluster_rmsd>  (79) 
1.45

>  <cluster>  (79) 
1

$$$$

     RDKit          3D

 57 60  0  0  0  0  0  0  0  0999 V2000
  137.6910   70.3180  222.1470 O   0  0  0  0  0  0  0  0  0  0  0  0
  138.4610   70.9010  222.9480 C   0  0  0  0  0  0  0  0  0  0  0  0
  138.8820   72.2560  222.7860 N   0  0  0  0  0  0  0  0  0  0  0  0
  138.4160   73.0580  221.6300 C   0  0  0  0  0  0  0  0  0  0  0  0
  139.1420   74.3360  221.5750 C   0  0  0  0  0  0  0  0  0  0  0  0
  140.3460   74.2930  222.0350 O   0  0  0  0  0  0  0  0  0  0  0  0
  138.7190   75.5650  221.1020 N   0  0  0  0  0  0  0  0  0  0  0  0
  137.9560   75.5220  219.8150 C   0  0  0  0  0  0  0  0  0  0  0  0
  137.2190   76.8270  219.6850 C   0  0  0  0  0  0  0  0  0  0  0  0
  136.6040   77.3360  220.9490 C   0  0  0  0  0  0  0  0  0  0  0  0
  137.5280   77.2920  222.1400 C   0  0  0  0  0  0  0  0  0  0  0  0
  138.8960   76.8860  221.6280 C   0  0  1  0  0  0  0  0  0  0  0  0
  139.9850   77.1070  222.6000 C   0  0  0  0  0  0  0  0  0  0  0  0
  141.1880   77.8240  222.0180 C   0  0  0  0  0  0  0  0  0  0  0  0
  141.5340   79.0730  222.6950 C   0  0  0  0  0  0  0  0  0  0  0  0
  142.8990   79.3570  222.8600 C   0  0  0  0  0  0  0  0  0  0  0  0
  143.3250   80.5090  223.4860 C   0  0  0  0  0  0  0  0  0  0  0  0
  142.4190   81.4330  223.9770 C   0  0  0  0  0  0  0  0  0  0  0  0
  141.0680   81.1700  223.8230 C   0  0  0  0  0  0  0  0  0  0  0  0
  140.6660   79.9990  223.1870 C   0  0  0  0  0  0  0  0  0  0  0  0
  138.9590   70.1500  224.1190 C   0  0  0  0  0  0  0  0  0  0  0  0
  138.7990   68.7830  224.1920 C   0  0  0  0  0  0  0  0  0  0  0  0
  139.2520   68.0400  225.2740 C   0  0  0  0  0  0  0  0  0  0  0  0
  139.8730   68.7210  226.2850 C   0  0  0  0  0  0  0  0  0  0  0  0
  140.3320   68.0050  227.3710 C   0  0  0  0  0  0  0  0  0  0  0  0
  140.9630   68.6850  228.4010 C   0  0  0  0  0  0  0  0  0  0  0  0
  141.1240   70.0630  228.3260 C   0  0  0  0  0  0  0  0  0  0  0  0
  140.6640   70.7720  227.2400 C   0  0  0  0  0  0  0  0  0  0  0  0
  140.0310   70.1010  226.2040 C   0  0  0  0  0  0  0  0  0  0  0  0
  139.5750   70.7680  225.1370 N   0  0  0  0  0  0  0  0  0  0  0  0
  139.5180   72.6440  223.5010 H   0  0  0  0  0  0  0  0  0  0  0  0
  138.5969   72.4967  220.7014 H   0  0  0  0  0  0  0  0  0  0  0  0
  137.3405   73.2598  221.7424 H   0  0  0  0  0  0  0  0  0  0  0  0
  138.6497   75.3963  218.9707 H   0  0  0  0  0  0  0  0  0  0  0  0
  137.2525   74.6764  219.8087 H   0  0  0  0  0  0  0  0  0  0  0  0
  137.9290   77.5848  219.3221 H   0  0  0  0  0  0  0  0  0  0  0  0
  136.3854   76.6406  218.9919 H   0  0  0  0  0  0  0  0  0  0  0  0
  136.2959   78.3797  220.7883 H   0  0  0  0  0  0  0  0  0  0  0  0
  135.7552   76.6753  221.1793 H   0  0  0  0  0  0  0  0  0  0  0  0
  137.5812   78.2836  222.6131 H   0  0  0  0  0  0  0  0  0  0  0  0
  137.1634   76.5770  222.8922 H   0  0  0  0  0  0  0  0  0  0  0  0
  139.2663   77.5340  220.8200 H   0  0  0  0  0  0  0  0  0  0  0  0
  139.5908   77.7096  223.4316 H   0  0  0  0  0  0  0  0  0  0  0  0
  140.3300   76.1147  222.9261 H   0  0  0  0  0  0  0  0  0  0  0  0
  142.0539   77.1483  222.0794 H   0  0  0  0  0  0  0  0  0  0  0  0
  140.9239   78.0907  220.9840 H   0  0  0  0  0  0  0  0  0  0  0  0
  143.6458   78.6438  222.4810 H   0  0  0  0  0  0  0  0  0  0  0  0
  144.4031   80.6970  223.5971 H   0  0  0  0  0  0  0  0  0  0  0  0
  142.7626   82.3512  224.4759 H   0  0  0  0  0  0  0  0  0  0  0  0
  140.3184   81.8811  224.2004 H   0  0  0  0  0  0  0  0  0  0  0  0
  139.5878   79.8116  223.0758 H   0  0  0  0  0  0  0  0  0  0  0  0
  138.2949   68.2625  223.3643 H   0  0  0  0  0  0  0  0  0  0  0  0
  139.1171   66.9491  225.3165 H   0  0  0  0  0  0  0  0  0  0  0  0
  140.1997   66.9140  227.4188 H   0  0  0  0  0  0  0  0  0  0  0  0
  141.3360   68.1341  229.2770 H   0  0  0  0  0  0  0  0  0  0  0  0
  141.6267   70.5952  229.1470 H   0  0  0  0  0  0  0  0  0  0  0  0
  140.7973   71.8629  227.1938 H   0  0  0  0  0  0  0  0  0  0  0  0
  1  2  2  0
  2  3  1  0
  3  4  1  0
  4  5  1  0
  5  6  2  0
  5  7  1  0
  7  8  1  0
  8  9  1  0
  9 10  1  0
 10 11  1  0
 11 12  1  0
 12 13  1  0
 13 14  1  0
 14 15  1  0
 15 16  2  0
 16 17  1  0
 17 18  2  0
 18 19  1  0
 19 20  2  0
  2 21  1  0
 21 22  2  0
 22 23  1  0
 23 24  2  0
 24 25  1  0
 25 26  2  0
 26 27  1  0
 27 28  2  0
 28 29  1  0
 29 30  2  0
 12  7  1  0
 20 15  1  0
 30 21  1  0
 29 24  1  0
  3 31  1  0
  4 32  1  0
  4 33  1  0
  8 34  1  0
  8 35  1  0
  9 36  1  0
  9 37  1  0
 10 38  1  0
 10 39  1  0
 11 40  1  0
 11 41  1  0
 12 42  1  6
 13 43  1  0
 13 44  1  0
 14 45  1  0
 14 46  1  0
 16 47  1  0
 17 48  1  0
 18 49  1  0
 19 50  1  0
 20 51  1  0
 22 52  1  0
 23 53  1  0
 25 54  1  0
 26 55  1  0
 27 56  1  0
 28 57  1  0
M  END
>  <smiles>  (80) 
O=C(NCC(=O)N1CCCCC1CCc1ccccc1)c1ccc2ccccc2n1

>  <score_type>  (80) 
oracle

>  <origin>  (80) 
autodockgpu

>  <m_score__min__energy>  (80) 
-9.4399999999999995

>  <m_primary>  (80) 
energy

>  <rmsd>  (80) 
2.365466247868162

>  <m_score__min__rmsd>  (80) 
2.365466247868162

>  <meeko>  (80) 
{"free_energy": -8.83, "intermolecular_energy": -10.91, "internal_energy": -1.92, "cluster_size": 38, "cluster_id": 1, "rank_in_cluster": 22}

>  <energy>  (80) 
-8.67

>  <cluster_rmsd>  (80) 
1.4

>  <cluster>  (80) 
1

$$$$

     RDKit          3D

 57 60  0  0  0  0  0  0  0  0999 V2000
  138.6580   72.5630  222.4290 O   0  0  0  0  0  0  0  0  0  0  0  0
  139.7600   72.0260  222.6920 C   0  0  0  0  0  0  0  0  0  0  0  0
  140.9410   72.2350  221.9170 N   0  0  0  0  0  0  0  0  0  0  0  0
  140.9160   73.1220  220.7290 C   0  0  0  0  0  0  0  0  0  0  0  0
  142.1510   73.9180  220.6650 C   0  0  0  0  0  0  0  0  0  0  0  0
  143.2230   73.2760  220.9890 O   0  0  0  0  0  0  0  0  0  0  0  0
  142.3240   75.2420  220.3080 N   0  0  0  0  0  0  0  0  0  0  0  0
  143.4820   75.5090  219.3970 C   0  0  0  0  0  0  0  0  0  0  0  0
  143.2640   76.8620  218.7770 C   0  0  0  0  0  0  0  0  0  0  0  0
  141.8550   77.1520  218.3670 C   0  0  0  0  0  0  0  0  0  0  0  0
  140.8300   76.8090  219.4180 C   0  0  0  0  0  0  0  0  0  0  0  0
  141.5880   76.4170  220.6710 C   0  0  1  0  0  0  0  0  0  0  0  0
  140.7480   76.3640  221.8830 C   0  0  0  0  0  0  0  0  0  0  0  0
  139.9810   77.6450  222.1530 C   0  0  0  0  0  0  0  0  0  0  0  0
  140.8230   78.8090  222.4250 C   0  0  0  0  0  0  0  0  0  0  0  0
  141.6630   78.7460  223.5480 C   0  0  0  0  0  0  0  0  0  0  0  0
  142.4920   79.7930  223.8880 C   0  0  0  0  0  0  0  0  0  0  0  0
  142.5280   80.9510  223.1300 C   0  0  0  0  0  0  0  0  0  0  0  0
  141.7070   81.0320  222.0180 C   0  0  0  0  0  0  0  0  0  0  0  0
  140.8790   79.9600  221.6990 C   0  0  0  0  0  0  0  0  0  0  0  0
  139.8440   71.1310  223.8650 C   0  0  0  0  0  0  0  0  0  0  0  0
  139.3390   69.8500  223.8040 C   0  0  0  0  0  0  0  0  0  0  0  0
  139.3990   68.9770  224.8830 C   0  0  0  0  0  0  0  0  0  0  0  0
  139.9840   69.4390  226.0300 C   0  0  0  0  0  0  0  0  0  0  0  0
  140.0550   68.5910  227.1160 C   0  0  0  0  0  0  0  0  0  0  0  0
  140.6450   69.0480  228.2830 C   0  0  0  0  0  0  0  0  0  0  0  0
  141.1540   70.3400  228.3430 C   0  0  0  0  0  0  0  0  0  0  0  0
  141.0810   71.1820  227.2570 C   0  0  0  0  0  0  0  0  0  0  0  0
  140.4910   70.7340  226.0840 C   0  0  0  0  0  0  0  0  0  0  0  0
  140.4080   71.5330  225.0130 N   0  0  0  0  0  0  0  0  0  0  0  0
  141.8000   71.7470  222.2170 H   0  0  0  0  0  0  0  0  0  0  0  0
  140.8308   72.5092  219.8195 H   0  0  0  0  0  0  0  0  0  0  0  0
  140.0541   73.8012  220.8055 H   0  0  0  0  0  0  0  0  0  0  0  0
  144.4205   75.5052  219.9708 H   0  0  0  0  0  0  0  0  0  0  0  0
  143.5524   74.7329  218.6207 H   0  0  0  0  0  0  0  0  0  0  0  0
  143.5703   77.6251  219.5076 H   0  0  0  0  0  0  0  0  0  0  0  0
  143.8611   76.8757  217.8532 H   0  0  0  0  0  0  0  0  0  0  0  0
  141.7739   78.2256  218.1415 H   0  0  0  0  0  0  0  0  0  0  0  0
  141.6402   76.5195  217.4931 H   0  0  0  0  0  0  0  0  0  0  0  0
  140.1916   77.6815  219.6210 H   0  0  0  0  0  0  0  0  0  0  0  0
  140.1830   75.9865  219.0792 H   0  0  0  0  0  0  0  0  0  0  0  0
  142.3024   77.1847  221.0032 H   0  0  0  0  0  0  0  0  0  0  0  0
  140.0239   75.5440  221.7675 H   0  0  0  0  0  0  0  0  0  0  0  0
  141.4255   76.2104  222.7359 H   0  0  0  0  0  0  0  0  0  0  0  0
  139.3618   77.8672  221.2714 H   0  0  0  0  0  0  0  0  0  0  0  0
  139.3871   77.4688  223.0619 H   0  0  0  0  0  0  0  0  0  0  0  0
  141.6594   77.8396  224.1712 H   0  0  0  0  0  0  0  0  0  0  0  0
  143.1355   79.7073  224.7760 H   0  0  0  0  0  0  0  0  0  0  0  0
  143.1913   81.7847  223.4039 H   0  0  0  0  0  0  0  0  0  0  0  0
  141.7092   81.9364  221.3918 H   0  0  0  0  0  0  0  0  0  0  0  0
  140.2344   80.0470  220.8119 H   0  0  0  0  0  0  0  0  0  0  0  0
  138.8724   69.5071  222.8688 H   0  0  0  0  0  0  0  0  0  0  0  0
  138.9930   67.9567  224.8177 H   0  0  0  0  0  0  0  0  0  0  0  0
  139.6502   67.5699  227.0562 H   0  0  0  0  0  0  0  0  0  0  0  0
  140.7106   68.3891  229.1614 H   0  0  0  0  0  0  0  0  0  0  0  0
  141.6224   70.6949  229.2729 H   0  0  0  0  0  0  0  0  0  0  0  0
  141.4873   72.2024  227.3185 H   0  0  0  0  0  0  0  0  0  0  0  0
  1  2  2  0
  2  3  1  0
  3  4  1  0
  4  5  1  0
  5  6  2  0
  5  7  1  0
  7  8  1  0
  8  9  1  0
  9 10  1  0
 10 11  1  0
 11 12  1  0
 12 13  1  0
 13 14  1  0
 14 15  1  0
 15 16  2  0
 16 17  1  0
 17 18  2  0
 18 19  1  0
 19 20  2  0
  2 21  1  0
 21 22  2  0
 22 23  1  0
 23 24  2  0
 24 25  1  0
 25 26  2  0
 26 27  1  0
 27 28  2  0
 28 29  1  0
 29 30  2  0
 12  7  1  0
 20 15  1  0
 30 21  1  0
 29 24  1  0
  3 31  1  0
  4 32  1  0
  4 33  1  0
  8 34  1  0
  8 35  1  0
  9 36  1  0
  9 37  1  0
 10 38  1  0
 10 39  1  0
 11 40  1  0
 11 41  1  0
 12 42  1  1
 13 43  1  0
 13 44  1  0
 14 45  1  0
 14 46  1  0
 16 47  1  0
 17 48  1  0
 18 49  1  0
 19 50  1  0
 20 51  1  0
 22 52  1  0
 23 53  1  0
 25 54  1  0
 26 55  1  0
 27 56  1  0
 28 57  1  0
M  END
>  <smiles>  (81) 
O=C(NCC(=O)N1CCCCC1CCc1ccccc1)c1ccc2ccccc2n1

>  <score_type>  (81) 
oracle

>  <origin>  (81) 
autodockgpu

>  <m_score__min__energy>  (81) 
-9.4399999999999995

>  <m_primary>  (81) 
energy

>  <rmsd>  (81) 
2.626864360378006

>  <m_score__min__rmsd>  (81) 
2.626864360378006

>  <meeko>  (81) 
{"free_energy": -8.67, "intermolecular_energy": -10.76, "internal_energy": -1.92, "cluster_size": 38, "cluster_id": 1, "rank_in_cluster": 31}

>  <energy>  (81) 
-8.67

>  <cluster_rmsd>  (81) 
1.05

>  <cluster>  (81) 
1

$$$$

     RDKit          3D

 57 60  0  0  0  0  0  0  0  0999 V2000
  140.9960   72.1710  221.4720 O   0  0  0  0  0  0  0  0  0  0  0  0
  140.1360   72.4310  222.3480 C   0  0  0  0  0  0  0  0  0  0  0  0
  139.2470   73.5450  222.2700 N   0  0  0  0  0  0  0  0  0  0  0  0
  139.2990   74.4730  221.1160 C   0  0  0  0  0  0  0  0  0  0  0  0
  140.2810   75.5390  221.3660 C   0  0  0  0  0  0  0  0  0  0  0  0
  141.0980   75.3010  222.3370 O   0  0  0  0  0  0  0  0  0  0  0  0
  140.4520   76.7460  220.7140 N   0  0  0  0  0  0  0  0  0  0  0  0
  141.7530   76.8980  219.9900 C   0  0  0  0  0  0  0  0  0  0  0  0
  141.5930   78.0280  219.0100 C   0  0  0  0  0  0  0  0  0  0  0  0
  140.2820   78.0620  218.2910 C   0  0  0  0  0  0  0  0  0  0  0  0
  139.0860   77.8840  219.1910 C   0  0  0  0  0  0  0  0  0  0  0  0
  139.5970   77.8910  220.6190 C   0  0  1  0  0  0  0  0  0  0  0  0
  138.5340   78.0510  221.6300 C   0  0  0  0  0  0  0  0  0  0  0  0
  139.0560   78.3040  223.0320 C   0  0  0  0  0  0  0  0  0  0  0  0
  140.2000   79.2120  223.0970 C   0  0  0  0  0  0  0  0  0  0  0  0
  141.4540   78.6450  223.3760 C   0  0  0  0  0  0  0  0  0  0  0  0
  142.5920   79.4180  223.4600 C   0  0  0  0  0  0  0  0  0  0  0  0
  142.5410   80.7880  223.2700 C   0  0  0  0  0  0  0  0  0  0  0  0
  141.3130   81.3660  222.9930 C   0  0  0  0  0  0  0  0  0  0  0  0
  140.1800   80.5610  222.9150 C   0  0  0  0  0  0  0  0  0  0  0  0
  140.0390   71.5400  223.5230 C   0  0  0  0  0  0  0  0  0  0  0  0
  139.4200   70.3120  223.4200 C   0  0  0  0  0  0  0  0  0  0  0  0
  139.3070   69.4450  224.4990 C   0  0  0  0  0  0  0  0  0  0  0  0
  139.8390   69.8570  225.6910 C   0  0  0  0  0  0  0  0  0  0  0  0
  139.7400   69.0140  226.7780 C   0  0  0  0  0  0  0  0  0  0  0  0
  140.2750   69.4190  227.9890 C   0  0  0  0  0  0  0  0  0  0  0  0
  140.8980   70.6570  228.0920 C   0  0  0  0  0  0  0  0  0  0  0  0
  140.9950   71.4950  227.0050 C   0  0  0  0  0  0  0  0  0  0  0  0
  140.4620   71.0970  225.7870 C   0  0  0  0  0  0  0  0  0  0  0  0
  140.5430   71.8940  224.7140 N   0  0  0  0  0  0  0  0  0  0  0  0
  138.5750   73.6710  223.0440 H   0  0  0  0  0  0  0  0  0  0  0  0
  139.5900   73.9151  220.2138 H   0  0  0  0  0  0  0  0  0  0  0  0
  138.3064   74.9252  220.9737 H   0  0  0  0  0  0  0  0  0  0  0  0
  142.5560   77.1310  220.7047 H   0  0  0  0  0  0  0  0  0  0  0  0
  142.0186   75.9665  219.4688 H   0  0  0  0  0  0  0  0  0  0  0  0
  141.7052   78.9743  219.5594 H   0  0  0  0  0  0  0  0  0  0  0  0
  142.3622   77.8762  218.2385 H   0  0  0  0  0  0  0  0  0  0  0  0
  140.1911   79.0332  217.7825 H   0  0  0  0  0  0  0  0  0  0  0  0
  140.2814   77.2154  217.5887 H   0  0  0  0  0  0  0  0  0  0  0  0
  138.3747   78.7095  219.0408 H   0  0  0  0  0  0  0  0  0  0  0  0
  138.5642   76.9420  218.9667 H   0  0  0  0  0  0  0  0  0  0  0  0
  140.1888   78.7855  220.8634 H   0  0  0  0  0  0  0  0  0  0  0  0
  137.9014   78.9017  221.3366 H   0  0  0  0  0  0  0  0  0  0  0  0
  137.9765   77.1033  221.6617 H   0  0  0  0  0  0  0  0  0  0  0  0
  138.2399   78.7358  223.6300 H   0  0  0  0  0  0  0  0  0  0  0  0
  139.4036   77.3339  223.4168 H   0  0  0  0  0  0  0  0  0  0  0  0
  141.5298   77.5586  223.5311 H   0  0  0  0  0  0  0  0  0  0  0  0
  143.5567   78.9382  223.6817 H   0  0  0  0  0  0  0  0  0  0  0  0
  143.4515   81.4016  223.3372 H   0  0  0  0  0  0  0  0  0  0  0  0
  141.2338   82.4519  222.8360 H   0  0  0  0  0  0  0  0  0  0  0  0
  139.2154   81.0414  222.6941 H   0  0  0  0  0  0  0  0  0  0  0  0
  139.0011   70.0086  222.4492 H   0  0  0  0  0  0  0  0  0  0  0  0
  138.8109   68.4683  224.3999 H   0  0  0  0  0  0  0  0  0  0  0  0
  139.2444   68.0364  226.6844 H   0  0  0  0  0  0  0  0  0  0  0  0
  140.2070   68.7618  228.8685 H   0  0  0  0  0  0  0  0  0  0  0  0
  141.3202   70.9719  229.0577 H   0  0  0  0  0  0  0  0  0  0  0  0
  141.4909   72.4722  227.1006 H   0  0  0  0  0  0  0  0  0  0  0  0
  1  2  2  0
  2  3  1  0
  3  4  1  0
  4  5  1  0
  5  6  2  0
  5  7  1  0
  7  8  1  0
  8  9  1  0
  9 10  1  0
 10 11  1  0
 11 12  1  0
 12 13  1  0
 13 14  1  0
 14 15  1  0
 15 16  2  0
 16 17  1  0
 17 18  2  0
 18 19  1  0
 19 20  2  0
  2 21  1  0
 21 22  2  0
 22 23  1  0
 23 24  2  0
 24 25  1  0
 25 26  2  0
 26 27  1  0
 27 28  2  0
 28 29  1  0
 29 30  2  0
 12  7  1  0
 20 15  1  0
 30 21  1  0
 29 24  1  0
  3 31  1  0
  4 32  1  0
  4 33  1  0
  8 34  1  0
  8 35  1  0
  9 36  1  0
  9 37  1  0
 10 38  1  0
 10 39  1  0
 11 40  1  0
 11 41  1  0
 12 42  1  6
 13 43  1  0
 13 44  1  0
 14 45  1  0
 14 46  1  0
 16 47  1  0
 17 48  1  0
 18 49  1  0
 19 50  1  0
 20 51  1  0
 22 52  1  0
 23 53  1  0
 25 54  1  0
 26 55  1  0
 27 56  1  0
 28 57  1  0
M  END
>  <smiles>  (82) 
O=C(NCC(=O)N1CCCCC1CCc1ccccc1)c1ccc2ccccc2n1

>  <score_type>  (82) 
oracle

>  <origin>  (82) 
autodockgpu

>  <m_score__min__energy>  (82) 
-9.4399999999999995

>  <m_primary>  (82) 
energy

>  <rmsd>  (82) 
2.320959465259911

>  <m_score__min__rmsd>  (82) 
2.320959465259911

>  <meeko>  (82) 
{"free_energy": -8.86, "intermolecular_energy": -10.95, "internal_energy": -1.9, "cluster_size": 38, "cluster_id": 1, "rank_in_cluster": 19}

>  <energy>  (82) 
-8.67

>  <cluster_rmsd>  (82) 
0.92

>  <cluster>  (82) 
1

$$$$

     RDKit          3D

 57 60  0  0  0  0  0  0  0  0999 V2000
  139.7240   70.5150  221.5590 O   0  0  0  0  0  0  0  0  0  0  0  0
  139.5160   71.3500  222.4720 C   0  0  0  0  0  0  0  0  0  0  0  0
  138.9080   72.6230  222.2470 N   0  0  0  0  0  0  0  0  0  0  0  0
  138.4840   73.0270  220.8860 C   0  0  0  0  0  0  0  0  0  0  0  0
  139.5620   73.7730  220.2200 C   0  0  0  0  0  0  0  0  0  0  0  0
  139.2490   74.2550  219.0640 O   0  0  0  0  0  0  0  0  0  0  0  0
  140.8500   74.0290  220.6520 N   0  0  0  0  0  0  0  0  0  0  0  0
  141.8490   72.9580  220.3430 C   0  0  0  0  0  0  0  0  0  0  0  0
  143.2170   73.5670  220.4740 C   0  0  0  0  0  0  0  0  0  0  0  0
  143.3510   74.9510  219.9230 C   0  0  0  0  0  0  0  0  0  0  0  0
  142.2430   75.8840  220.3410 C   0  0  0  0  0  0  0  0  0  0  0  0
  141.3980   75.1460  221.3610 C   0  0  1  0  0  0  0  0  0  0  0  0
  140.4710   76.0180  222.1090 C   0  0  0  0  0  0  0  0  0  0  0  0
  140.2730   77.3850  221.4800 C   0  0  0  0  0  0  0  0  0  0  0  0
  141.0650   78.4520  222.0890 C   0  0  0  0  0  0  0  0  0  0  0  0
  141.5010   79.4880  221.2470 C   0  0  0  0  0  0  0  0  0  0  0  0
  142.2530   80.5380  221.7270 C   0  0  0  0  0  0  0  0  0  0  0  0
  142.6090   80.6110  223.0630 C   0  0  0  0  0  0  0  0  0  0  0  0
  142.1880   79.5980  223.9090 C   0  0  0  0  0  0  0  0  0  0  0  0
  141.4290   78.5500  223.3970 C   0  0  0  0  0  0  0  0  0  0  0  0
  139.9190   71.0010  223.8500 C   0  0  0  0  0  0  0  0  0  0  0  0
  140.6630   71.8820  224.6050 C   0  0  0  0  0  0  0  0  0  0  0  0
  141.0620   71.5930  225.9030 C   0  0  0  0  0  0  0  0  0  0  0  0
  140.6870   70.3820  226.4180 C   0  0  0  0  0  0  0  0  0  0  0  0
  141.0720   70.0710  227.7060 C   0  0  0  0  0  0  0  0  0  0  0  0
  140.6980   68.8480  228.2380 C   0  0  0  0  0  0  0  0  0  0  0  0
  139.9480   67.9610  227.4760 C   0  0  0  0  0  0  0  0  0  0  0  0
  139.5670   68.2750  226.1910 C   0  0  0  0  0  0  0  0  0  0  0  0
  139.9370   69.4980  225.6500 C   0  0  0  0  0  0  0  0  0  0  0  0
  139.5790   69.8280  224.4030 N   0  0  0  0  0  0  0  0  0  0  0  0
  138.7810   73.2390  223.0670 H   0  0  0  0  0  0  0  0  0  0  0  0
  138.2463   72.1285  220.2976 H   0  0  0  0  0  0  0  0  0  0  0  0
  137.5955   73.6709  220.9627 H   0  0  0  0  0  0  0  0  0  0  0  0
  141.7388   72.1251  221.0530 H   0  0  0  0  0  0  0  0  0  0  0  0
  141.6948   72.5649  219.3273 H   0  0  0  0  0  0  0  0  0  0  0  0
  143.4746   73.5994  221.5429 H   0  0  0  0  0  0  0  0  0  0  0  0
  143.8922   72.9340  219.8795 H   0  0  0  0  0  0  0  0  0  0  0  0
  144.3068   75.3709  220.2696 H   0  0  0  0  0  0  0  0  0  0  0  0
  143.3004   74.8652  218.8275 H   0  0  0  0  0  0  0  0  0  0  0  0
  142.6661   76.7947  220.7899 H   0  0  0  0  0  0  0  0  0  0  0  0
  141.6362   76.1836  219.4738 H   0  0  0  0  0  0  0  0  0  0  0  0
  141.9812   74.7634  222.2115 H   0  0  0  0  0  0  0  0  0  0  0  0
  139.4932   75.5173  222.1651 H   0  0  0  0  0  0  0  0  0  0  0  0
  140.9171   76.1835  223.1007 H   0  0  0  0  0  0  0  0  0  0  0  0
  140.5473   77.3172  220.4169 H   0  0  0  0  0  0  0  0  0  0  0  0
  139.2170   77.6512  221.6351 H   0  0  0  0  0  0  0  0  0  0  0  0
  141.2361   79.4605  220.1797 H   0  0  0  0  0  0  0  0  0  0  0  0
  142.5760   81.3316  221.0372 H   0  0  0  0  0  0  0  0  0  0  0  0
  143.2099   81.4506  223.4424 H   0  0  0  0  0  0  0  0  0  0  0  0
  142.4515   79.6218  224.9767 H   0  0  0  0  0  0  0  0  0  0  0  0
  141.1053   77.7571  224.0873 H   0  0  0  0  0  0  0  0  0  0  0  0
  140.9506   72.8477  224.1638 H   0  0  0  0  0  0  0  0  0  0  0  0
  141.6548   72.3077  226.4928 H   0  0  0  0  0  0  0  0  0  0  0  0
  141.6655   70.7817  228.2998 H   0  0  0  0  0  0  0  0  0  0  0  0
  140.9945   68.5794  229.2627 H   0  0  0  0  0  0  0  0  0  0  0  0
  139.6539   66.9923  227.9063 H   0  0  0  0  0  0  0  0  0  0  0  0
  138.9744   67.5626  225.5983 H   0  0  0  0  0  0  0  0  0  0  0  0
  1  2  2  0
  2  3  1  0
  3  4  1  0
  4  5  1  0
  5  6  2  0
  5  7  1  0
  7  8  1  0
  8  9  1  0
  9 10  1  0
 10 11  1  0
 11 12  1  0
 12 13  1  0
 13 14  1  0
 14 15  1  0
 15 16  2  0
 16 17  1  0
 17 18  2  0
 18 19  1  0
 19 20  2  0
  2 21  1  0
 21 22  2  0
 22 23  1  0
 23 24  2  0
 24 25  1  0
 25 26  2  0
 26 27  1  0
 27 28  2  0
 28 29  1  0
 29 30  2  0
 12  7  1  0
 20 15  1  0
 30 21  1  0
 29 24  1  0
  3 31  1  0
  4 32  1  0
  4 33  1  0
  8 34  1  0
  8 35  1  0
  9 36  1  0
  9 37  1  0
 10 38  1  0
 10 39  1  0
 11 40  1  0
 11 41  1  0
 12 42  1  1
 13 43  1  0
 13 44  1  0
 14 45  1  0
 14 46  1  0
 16 47  1  0
 17 48  1  0
 18 49  1  0
 19 50  1  0
 20 51  1  0
 22 52  1  0
 23 53  1  0
 25 54  1  0
 26 55  1  0
 27 56  1  0
 28 57  1  0
M  END
>  <smiles>  (83) 
O=C(NCC(=O)N1CCCCC1CCc1ccccc1)c1ccc2ccccc2n1

>  <score_type>  (83) 
oracle

>  <origin>  (83) 
autodockgpu

>  <m_score__min__energy>  (83) 
-9.4399999999999995

>  <m_primary>  (83) 
energy

>  <rmsd>  (83) 
3.306172920746667

>  <m_score__min__rmsd>  (83) 
3.306172920746667

>  <meeko>  (83) 
{"free_energy": -8.9, "intermolecular_energy": -10.98, "internal_energy": -1.78, "cluster_size": 38, "cluster_id": 1, "rank_in_cluster": 17}

>  <energy>  (83) 
-8.5

>  <cluster_rmsd>  (83) 
1.61

>  <cluster>  (83) 
1

$$$$

     RDKit          3D

 57 60  0  0  0  0  0  0  0  0999 V2000
  140.6210   71.4470  221.3600 O   0  0  0  0  0  0  0  0  0  0  0  0
  140.2420   72.0120  222.4140 C   0  0  0  0  0  0  0  0  0  0  0  0
  139.8700   73.3890  222.4760 N   0  0  0  0  0  0  0  0  0  0  0  0
  139.9170   74.2390  221.2630 C   0  0  0  0  0  0  0  0  0  0  0  0
  139.6630   75.6440  221.6170 C   0  0  0  0  0  0  0  0  0  0  0  0
  138.9720   75.8110  222.6950 O   0  0  0  0  0  0  0  0  0  0  0  0
  140.0560   76.7980  220.9660 N   0  0  0  0  0  0  0  0  0  0  0  0
  139.4710   78.0640  221.5080 C   0  0  0  0  0  0  0  0  0  0  0  0
  140.3130   79.2030  221.0020 C   0  0  0  0  0  0  0  0  0  0  0  0
  141.7870   78.9510  221.0060 C   0  0  0  0  0  0  0  0  0  0  0  0
  142.1820   77.6170  220.4250 C   0  0  0  0  0  0  0  0  0  0  0  0
  140.9270   76.9940  219.8450 C   0  0  1  0  0  0  0  0  0  0  0  0
  141.1880   75.8440  218.9580 C   0  0  0  0  0  0  0  0  0  0  0  0
  142.6530   75.6610  218.6080 C   0  0  0  0  0  0  0  0  0  0  0  0
  143.3410   74.6370  219.3920 C   0  0  0  0  0  0  0  0  0  0  0  0
  142.7790   73.3510  219.4000 C   0  0  0  0  0  0  0  0  0  0  0  0
  143.3530   72.3180  220.1100 C   0  0  0  0  0  0  0  0  0  0  0  0
  144.5100   72.5120  220.8440 C   0  0  0  0  0  0  0  0  0  0  0  0
  145.0800   73.7740  220.8470 C   0  0  0  0  0  0  0  0  0  0  0  0
  144.4790   74.7980  220.1220 C   0  0  0  0  0  0  0  0  0  0  0  0
  140.1770   71.2140  223.6560 C   0  0  0  0  0  0  0  0  0  0  0  0
  139.6330   69.9480  223.6460 C   0  0  0  0  0  0  0  0  0  0  0  0
  139.5530   69.1650  224.7900 C   0  0  0  0  0  0  0  0  0  0  0  0
  140.0400   69.7020  225.9500 C   0  0  0  0  0  0  0  0  0  0  0  0
  139.9720   68.9440  227.1010 C   0  0  0  0  0  0  0  0  0  0  0  0
  140.4620   69.4770  228.2820 C   0  0  0  0  0  0  0  0  0  0  0  0
  141.0110   70.7540  228.2920 C   0  0  0  0  0  0  0  0  0  0  0  0
  141.0770   71.5060  227.1410 C   0  0  0  0  0  0  0  0  0  0  0  0
  140.5880   70.9810  225.9530 C   0  0  0  0  0  0  0  0  0  0  0  0
  140.6400   71.6920  224.8200 N   0  0  0  0  0  0  0  0  0  0  0  0
  139.5730   73.7600  223.3930 H   0  0  0  0  0  0  0  0  0  0  0  0
  140.9108   74.1552  220.7989 H   0  0  0  0  0  0  0  0  0  0  0  0
  139.1434   73.9011  220.5578 H   0  0  0  0  0  0  0  0  0  0  0  0
  138.4344   78.1788  221.1583 H   0  0  0  0  0  0  0  0  0  0  0  0
  139.4619   78.0473  222.6078 H   0  0  0  0  0  0  0  0  0  0  0  0
  140.0070   79.4202  219.9680 H   0  0  0  0  0  0  0  0  0  0  0  0
  140.1430   80.0413  221.6937 H   0  0  0  0  0  0  0  0  0  0  0  0
  142.2750   79.7425  220.4183 H   0  0  0  0  0  0  0  0  0  0  0  0
  142.1067   78.9472  222.0585 H   0  0  0  0  0  0  0  0  0  0  0  0
  142.9336   77.7575  219.6342 H   0  0  0  0  0  0  0  0  0  0  0  0
  142.6203   76.9679  221.1974 H   0  0  0  0  0  0  0  0  0  0  0  0
  140.4164   77.6444  219.1196 H   0  0  0  0  0  0  0  0  0  0  0  0
  140.8348   74.9314  219.4603 H   0  0  0  0  0  0  0  0  0  0  0  0
  140.6553   76.0388  218.0155 H   0  0  0  0  0  0  0  0  0  0  0  0
  142.7202   75.3831  217.5458 H   0  0  0  0  0  0  0  0  0  0  0  0
  143.1502   76.6154  218.8357 H   0  0  0  0  0  0  0  0  0  0  0  0
  141.8593   73.1629  218.8265 H   0  0  0  0  0  0  0  0  0  0  0  0
  142.8836   71.3233  220.0928 H   0  0  0  0  0  0  0  0  0  0  0  0
  144.9648   71.6857  221.4100 H   0  0  0  0  0  0  0  0  0  0  0  0
  146.0005   73.9653  221.4180 H   0  0  0  0  0  0  0  0  0  0  0  0
  144.9490   75.7924  220.1395 H   0  0  0  0  0  0  0  0  0  0  0  0
  139.2485   69.5433  222.6982 H   0  0  0  0  0  0  0  0  0  0  0  0
  139.1165   68.1556  224.7645 H   0  0  0  0  0  0  0  0  0  0  0  0
  139.5363   67.9342  227.0811 H   0  0  0  0  0  0  0  0  0  0  0  0
  140.4167   68.8901  229.2112 H   0  0  0  0  0  0  0  0  0  0  0  0
  141.3985   71.1698  229.2338 H   0  0  0  0  0  0  0  0  0  0  0  0
  141.5139   72.5153  227.1626 H   0  0  0  0  0  0  0  0  0  0  0  0
  1  2  2  0
  2  3  1  0
  3  4  1  0
  4  5  1  0
  5  6  2  0
  5  7  1  0
  7  8  1  0
  8  9  1  0
  9 10  1  0
 10 11  1  0
 11 12  1  0
 12 13  1  0
 13 14  1  0
 14 15  1  0
 15 16  2  0
 16 17  1  0
 17 18  2  0
 18 19  1  0
 19 20  2  0
  2 21  1  0
 21 22  2  0
 22 23  1  0
 23 24  2  0
 24 25  1  0
 25 26  2  0
 26 27  1  0
 27 28  2  0
 28 29  1  0
 29 30  2  0
 12  7  1  0
 20 15  1  0
 30 21  1  0
 29 24  1  0
  3 31  1  0
  4 32  1  0
  4 33  1  0
  8 34  1  0
  8 35  1  0
  9 36  1  0
  9 37  1  0
 10 38  1  0
 10 39  1  0
 11 40  1  0
 11 41  1  0
 12 42  1  6
 13 43  1  0
 13 44  1  0
 14 45  1  0
 14 46  1  0
 16 47  1  0
 17 48  1  0
 18 49  1  0
 19 50  1  0
 20 51  1  0
 22 52  1  0
 23 53  1  0
 25 54  1  0
 26 55  1  0
 27 56  1  0
 28 57  1  0
M  END
>  <smiles>  (84) 
O=C(NCC(=O)N1CCCCC1CCc1ccccc1)c1ccc2ccccc2n1

>  <score_type>  (84) 
oracle

>  <origin>  (84) 
autodockgpu

>  <m_score__min__energy>  (84) 
-9.4399999999999995

>  <m_primary>  (84) 
energy

>  <rmsd>  (84) 
2.3958950601071014

>  <m_score__min__rmsd>  (84) 
2.3958950601071014

>  <meeko>  (84) 
{"free_energy": -8.12, "intermolecular_energy": -10.21, "internal_energy": -2.48, "cluster_size": 8, "cluster_id": 3, "rank_in_cluster": 7}

>  <energy>  (84) 
-8.44

>  <cluster_rmsd>  (84) 
1.52

>  <cluster>  (84) 
1

$$$$

     RDKit          3D

 57 60  0  0  0  0  0  0  0  0999 V2000
  139.6630   71.0500  221.3140 O   0  0  0  0  0  0  0  0  0  0  0  0
  139.6540   71.7530  222.3530 C   0  0  0  0  0  0  0  0  0  0  0  0
  139.4750   73.1690  222.3420 N   0  0  0  0  0  0  0  0  0  0  0  0
  139.2870   73.8960  221.0640 C   0  0  0  0  0  0  0  0  0  0  0  0
  140.5420   73.9070  220.2980 C   0  0  0  0  0  0  0  0  0  0  0  0
  140.6620   72.9430  219.4470 O   0  0  0  0  0  0  0  0  0  0  0  0
  141.6000   74.7950  220.3580 N   0  0  0  0  0  0  0  0  0  0  0  0
  142.9500   74.1930  220.1240 C   0  0  0  0  0  0  0  0  0  0  0  0
  143.8930   75.3160  219.7920 C   0  0  0  0  0  0  0  0  0  0  0  0
  143.3320   76.3680  218.8890 C   0  0  0  0  0  0  0  0  0  0  0  0
  141.9570   76.8440  219.2840 C   0  0  0  0  0  0  0  0  0  0  0  0
  141.6300   76.2040  220.6190 C   0  0  1  0  0  0  0  0  0  0  0  0
  140.4700   76.8100  221.3020 C   0  0  0  0  0  0  0  0  0  0  0  0
  140.7720   77.2980  222.7060 C   0  0  0  0  0  0  0  0  0  0  0  0
  141.2700   78.6710  222.7760 C   0  0  0  0  0  0  0  0  0  0  0  0
  142.0560   79.0130  223.8870 C   0  0  0  0  0  0  0  0  0  0  0  0
  142.5700   80.2820  224.0430 C   0  0  0  0  0  0  0  0  0  0  0  0
  142.3300   81.2710  223.1050 C   0  0  0  0  0  0  0  0  0  0  0  0
  141.5570   80.9520  222.0010 C   0  0  0  0  0  0  0  0  0  0  0  0
  141.0500   79.6630  221.8690 C   0  0  0  0  0  0  0  0  0  0  0  0
  139.8370   71.0820  223.6570 C   0  0  0  0  0  0  0  0  0  0  0  0
  139.4740   69.7620  223.8220 C   0  0  0  0  0  0  0  0  0  0  0  0
  139.6300   69.0950  225.0300 C   0  0  0  0  0  0  0  0  0  0  0  0
  140.1640   69.8030  226.0710 C   0  0  0  0  0  0  0  0  0  0  0  0
  140.3290   69.1630  227.2820 C   0  0  0  0  0  0  0  0  0  0  0  0
  140.8690   69.8700  228.3440 C   0  0  0  0  0  0  0  0  0  0  0  0
  141.2350   71.2000  228.1770 C   0  0  0  0  0  0  0  0  0  0  0  0
  141.0680   71.8350  226.9670 C   0  0  0  0  0  0  0  0  0  0  0  0
  140.5280   71.1350  225.8980 C   0  0  0  0  0  0  0  0  0  0  0  0
  140.3560   71.7290  224.7110 N   0  0  0  0  0  0  0  0  0  0  0  0
  139.4830   73.6560  223.2530 H   0  0  0  0  0  0  0  0  0  0  0  0
  138.5049   73.3966  220.4733 H   0  0  0  0  0  0  0  0  0  0  0  0
  138.9890   74.9325  221.2806 H   0  0  0  0  0  0  0  0  0  0  0  0
  143.2911   73.6714  221.0304 H   0  0  0  0  0  0  0  0  0  0  0  0
  142.9119   73.4627  219.3022 H   0  0  0  0  0  0  0  0  0  0  0  0
  144.1927   75.7993  220.7336 H   0  0  0  0  0  0  0  0  0  0  0  0
  144.7332   74.8604  219.2475 H   0  0  0  0  0  0  0  0  0  0  0  0
  144.0132   77.2316  218.8986 H   0  0  0  0  0  0  0  0  0  0  0  0
  143.2379   75.9146  217.8912 H   0  0  0  0  0  0  0  0  0  0  0  0
  141.9500   77.9399  219.3791 H   0  0  0  0  0  0  0  0  0  0  0  0
  141.2128   76.5652  218.5235 H   0  0  0  0  0  0  0  0  0  0  0  0
  142.3899   76.3974  221.3904 H   0  0  0  0  0  0  0  0  0  0  0  0
  140.1241   77.6662  220.7043 H   0  0  0  0  0  0  0  0  0  0  0  0
  139.7059   76.0240  221.3937 H   0  0  0  0  0  0  0  0  0  0  0  0
  139.8465   77.2375  223.2974 H   0  0  0  0  0  0  0  0  0  0  0  0
  141.5739   76.6538  223.0957 H   0  0  0  0  0  0  0  0  0  0  0  0
  142.2667   78.2504  224.6512 H   0  0  0  0  0  0  0  0  0  0  0  0
  143.1813   80.5128  224.9279 H   0  0  0  0  0  0  0  0  0  0  0  0
  142.7420   82.2829  223.2329 H   0  0  0  0  0  0  0  0  0  0  0  0
  141.3455   81.7119  221.2343 H   0  0  0  0  0  0  0  0  0  0  0  0
  140.4384   79.4326  220.9842 H   0  0  0  0  0  0  0  0  0  0  0  0
  139.0459   69.2184  222.9669 H   0  0  0  0  0  0  0  0  0  0  0  0
  139.3363   68.0412  225.1447 H   0  0  0  0  0  0  0  0  0  0  0  0
  140.0368   68.1094  227.4023 H   0  0  0  0  0  0  0  0  0  0  0  0
  141.0079   69.3790  229.3185 H   0  0  0  0  0  0  0  0  0  0  0  0
  141.6648   71.7540  229.0246 H   0  0  0  0  0  0  0  0  0  0  0  0
  141.3604   72.8888  226.8488 H   0  0  0  0  0  0  0  0  0  0  0  0
  1  2  2  0
  2  3  1  0
  3  4  1  0
  4  5  1  0
  5  6  2  0
  5  7  1  0
  7  8  1  0
  8  9  1  0
  9 10  1  0
 10 11  1  0
 11 12  1  0
 12 13  1  0
 13 14  1  0
 14 15  1  0
 15 16  2  0
 16 17  1  0
 17 18  2  0
 18 19  1  0
 19 20  2  0
  2 21  1  0
 21 22  2  0
 22 23  1  0
 23 24  2  0
 24 25  1  0
 25 26  2  0
 26 27  1  0
 27 28  2  0
 28 29  1  0
 29 30  2  0
 12  7  1  0
 20 15  1  0
 30 21  1  0
 29 24  1  0
  3 31  1  0
  4 32  1  0
  4 33  1  0
  8 34  1  0
  8 35  1  0
  9 36  1  0
  9 37  1  0
 10 38  1  0
 10 39  1  0
 11 40  1  0
 11 41  1  0
 12 42  1  1
 13 43  1  0
 13 44  1  0
 14 45  1  0
 14 46  1  0
 16 47  1  0
 17 48  1  0
 18 49  1  0
 19 50  1  0
 20 51  1  0
 22 52  1  0
 23 53  1  0
 25 54  1  0
 26 55  1  0
 27 56  1  0
 28 57  1  0
M  END
>  <smiles>  (85) 
O=C(NCC(=O)N1CCCCC1CCc1ccccc1)c1ccc2ccccc2n1

>  <score_type>  (85) 
oracle

>  <origin>  (85) 
autodockgpu

>  <m_score__min__energy>  (85) 
-9.4399999999999995

>  <m_primary>  (85) 
energy

>  <rmsd>  (85) 
2.326991058321991

>  <m_score__min__rmsd>  (85) 
2.326991058321991

>  <meeko>  (85) 
{"free_energy": -9.22, "intermolecular_energy": -11.31, "internal_energy": -1.68, "cluster_size": 38, "cluster_id": 1, "rank_in_cluster": 3}

>  <energy>  (85) 
-8.41

>  <cluster_rmsd>  (85) 
1.56

>  <cluster>  (85) 
1

$$$$

     RDKit          3D

 57 60  0  0  0  0  0  0  0  0999 V2000
  140.4610   71.0610  221.3150 O   0  0  0  0  0  0  0  0  0  0  0  0
  140.1520   71.7120  222.3420 C   0  0  0  0  0  0  0  0  0  0  0  0
  139.8440   73.1060  222.3240 N   0  0  0  0  0  0  0  0  0  0  0  0
  139.8780   73.8710  221.0550 C   0  0  0  0  0  0  0  0  0  0  0  0
  141.2420   74.3530  220.7890 C   0  0  0  0  0  0  0  0  0  0  0  0
  142.1570   73.4470  220.8600 O   0  0  0  0  0  0  0  0  0  0  0  0
  141.6760   75.6280  220.4760 N   0  0  0  0  0  0  0  0  0  0  0  0
  142.9140   75.6890  219.6370 C   0  0  0  0  0  0  0  0  0  0  0  0
  142.9860   77.0670  219.0390 C   0  0  0  0  0  0  0  0  0  0  0  0
  141.6810   77.6190  218.5600 C   0  0  0  0  0  0  0  0  0  0  0  0
  140.5500   77.4560  219.5440 C   0  0  0  0  0  0  0  0  0  0  0  0
  141.1480   76.9130  220.8260 C   0  0  1  0  0  0  0  0  0  0  0  0
  140.2430   76.9990  221.9890 C   0  0  0  0  0  0  0  0  0  0  0  0
  139.8530   78.4180  222.3570 C   0  0  0  0  0  0  0  0  0  0  0  0
  140.9620   79.2520  222.8170 C   0  0  0  0  0  0  0  0  0  0  0  0
  140.6360   80.4190  223.5260 C   0  0  0  0  0  0  0  0  0  0  0  0
  141.6110   81.2700  224.0000 C   0  0  0  0  0  0  0  0  0  0  0  0
  142.9540   81.0040  223.7940 C   0  0  0  0  0  0  0  0  0  0  0  0
  143.2950   79.8570  223.0970 C   0  0  0  0  0  0  0  0  0  0  0  0
  142.2890   79.0150  222.6300 C   0  0  0  0  0  0  0  0  0  0  0  0
  140.1030   71.0020  223.6370 C   0  0  0  0  0  0  0  0  0  0  0  0
  139.5670   69.7350  223.7200 C   0  0  0  0  0  0  0  0  0  0  0  0
  139.5020   69.0340  224.9170 C   0  0  0  0  0  0  0  0  0  0  0  0
  139.9960   69.6530  226.0320 C   0  0  0  0  0  0  0  0  0  0  0  0
  139.9430   68.9770  227.2340 C   0  0  0  0  0  0  0  0  0  0  0  0
  140.4390   69.5940  228.3700 C   0  0  0  0  0  0  0  0  0  0  0  0
  140.9790   70.8720  228.2860 C   0  0  0  0  0  0  0  0  0  0  0  0
  141.0290   71.5420  227.0850 C   0  0  0  0  0  0  0  0  0  0  0  0
  140.5340   70.9330  225.9410 C   0  0  0  0  0  0  0  0  0  0  0  0
  140.5720   71.5630  224.7610 N   0  0  0  0  0  0  0  0  0  0  0  0
  139.6010   73.5510  223.2240 H   0  0  0  0  0  0  0  0  0  0  0  0
  139.5553   73.2197  220.2293 H   0  0  0  0  0  0  0  0  0  0  0  0
  139.2019   74.7347  221.1382 H   0  0  0  0  0  0  0  0  0  0  0  0
  143.8005   75.5035  220.2612 H   0  0  0  0  0  0  0  0  0  0  0  0
  142.8852   74.9243  218.8468 H   0  0  0  0  0  0  0  0  0  0  0  0
  143.3850   77.7499  219.8035 H   0  0  0  0  0  0  0  0  0  0  0  0
  143.6280   76.9823  218.1498 H   0  0  0  0  0  0  0  0  0  0  0  0
  141.8123   78.6923  218.3580 H   0  0  0  0  0  0  0  0  0  0  0  0
  141.4052   77.0503  217.6598 H   0  0  0  0  0  0  0  0  0  0  0  0
  140.0717   78.4283  219.7332 H   0  0  0  0  0  0  0  0  0  0  0  0
  139.7840   76.7722  219.1495 H   0  0  0  0  0  0  0  0  0  0  0  0
  141.9705   77.5311  221.2153 H   0  0  0  0  0  0  0  0  0  0  0  0
  139.3266   76.4362  221.7578 H   0  0  0  0  0  0  0  0  0  0  0  0
  140.7866   76.5825  222.8498 H   0  0  0  0  0  0  0  0  0  0  0  0
  139.4106   78.8938  221.4694 H   0  0  0  0  0  0  0  0  0  0  0  0
  139.1498   78.3405  223.1993 H   0  0  0  0  0  0  0  0  0  0  0  0
  139.5781   80.6597  223.7074 H   0  0  0  0  0  0  0  0  0  0  0  0
  141.3173   82.1755  224.5511 H   0  0  0  0  0  0  0  0  0  0  0  0
  143.7294   81.6855  224.1738 H   0  0  0  0  0  0  0  0  0  0  0  0
  144.3518   79.6130  222.9138 H   0  0  0  0  0  0  0  0  0  0  0  0
  142.5829   78.1089  222.0800 H   0  0  0  0  0  0  0  0  0  0  0  0
  139.1771   69.2626  222.8063 H   0  0  0  0  0  0  0  0  0  0  0  0
  139.0712   68.0231  224.9663 H   0  0  0  0  0  0  0  0  0  0  0  0
  139.5141   67.9655  227.2886 H   0  0  0  0  0  0  0  0  0  0  0  0
  140.4057   69.0731  229.3383 H   0  0  0  0  0  0  0  0  0  0  0  0
  141.3721   71.3549  229.1928 H   0  0  0  0  0  0  0  0  0  0  0  0
  141.4585   72.5533  227.0325 H   0  0  0  0  0  0  0  0  0  0  0  0
  1  2  2  0
  2  3  1  0
  3  4  1  0
  4  5  1  0
  5  6  2  0
  5  7  1  0
  7  8  1  0
  8  9  1  0
  9 10  1  0
 10 11  1  0
 11 12  1  0
 12 13  1  0
 13 14  1  0
 14 15  1  0
 15 16  2  0
 16 17  1  0
 17 18  2  0
 18 19  1  0
 19 20  2  0
  2 21  1  0
 21 22  2  0
 22 23  1  0
 23 24  2  0
 24 25  1  0
 25 26  2  0
 26 27  1  0
 27 28  2  0
 28 29  1  0
 29 30  2  0
 12  7  1  0
 20 15  1  0
 30 21  1  0
 29 24  1  0
  3 31  1  0
  4 32  1  0
  4 33  1  0
  8 34  1  0
  8 35  1  0
  9 36  1  0
  9 37  1  0
 10 38  1  0
 10 39  1  0
 11 40  1  0
 11 41  1  0
 12 42  1  1
 13 43  1  0
 13 44  1  0
 14 45  1  0
 14 46  1  0
 16 47  1  0
 17 48  1  0
 18 49  1  0
 19 50  1  0
 20 51  1  0
 22 52  1  0
 23 53  1  0
 25 54  1  0
 26 55  1  0
 27 56  1  0
 28 57  1  0
M  END
>  <smiles>  (86) 
O=C(NCC(=O)N1CCCCC1CCc1ccccc1)c1ccc2ccccc2n1

>  <score_type>  (86) 
oracle

>  <origin>  (86) 
autodockgpu

>  <m_score__min__energy>  (86) 
-9.4399999999999995

>  <m_primary>  (86) 
energy

>  <rmsd>  (86) 
2.318615821854489

>  <m_score__min__rmsd>  (86) 
2.318615821854489

>  <meeko>  (86) 
{"free_energy": -9.36, "intermolecular_energy": -11.44, "internal_energy": -1.51, "cluster_size": 38, "cluster_id": 1, "rank_in_cluster": 2}

>  <energy>  (86) 
-8.35

>  <cluster_rmsd>  (86) 
1.59

>  <cluster>  (86) 
1

$$$$

     RDKit          3D

 57 60  0  0  0  0  0  0  0  0999 V2000
  140.3900   71.4250  221.2850 O   0  0  0  0  0  0  0  0  0  0  0  0
  140.0970   72.0570  222.3290 C   0  0  0  0  0  0  0  0  0  0  0  0
  139.7880   73.4510  222.3420 N   0  0  0  0  0  0  0  0  0  0  0  0
  139.8010   74.2390  221.0880 C   0  0  0  0  0  0  0  0  0  0  0  0
  140.7690   75.3410  221.1910 C   0  0  0  0  0  0  0  0  0  0  0  0
  140.9260   75.8100  222.3830 O   0  0  0  0  0  0  0  0  0  0  0  0
  141.5270   75.9380  220.2010 N   0  0  0  0  0  0  0  0  0  0  0  0
  142.9310   75.4310  220.0830 C   0  0  0  0  0  0  0  0  0  0  0  0
  143.4470   75.8450  218.7320 C   0  0  0  0  0  0  0  0  0  0  0  0
  142.4650   75.7160  217.6120 C   0  0  0  0  0  0  0  0  0  0  0  0
  141.1020   76.2800  217.9250 C   0  0  0  0  0  0  0  0  0  0  0  0
  141.2050   76.9760  219.2670 C   0  0  1  0  0  0  0  0  0  0  0  0
  140.0580   77.8540  219.5720 C   0  0  0  0  0  0  0  0  0  0  0  0
  140.4560   79.2510  220.0110 C   0  0  0  0  0  0  0  0  0  0  0  0
  140.9220   79.3420  221.3930 C   0  0  0  0  0  0  0  0  0  0  0  0
  142.2050   79.8730  221.6040 C   0  0  0  0  0  0  0  0  0  0  0  0
  142.7330   79.9980  222.8710 C   0  0  0  0  0  0  0  0  0  0  0  0
  142.0160   79.6040  223.9870 C   0  0  0  0  0  0  0  0  0  0  0  0
  140.7490   79.0790  223.7990 C   0  0  0  0  0  0  0  0  0  0  0  0
  140.2400   78.9630  222.5090 C   0  0  0  0  0  0  0  0  0  0  0  0
  140.0690   71.3220  223.6110 C   0  0  0  0  0  0  0  0  0  0  0  0
  139.5370   70.0520  223.6780 C   0  0  0  0  0  0  0  0  0  0  0  0
  139.4920   69.3280  224.8620 C   0  0  0  0  0  0  0  0  0  0  0  0
  140.0010   69.9280  225.9820 C   0  0  0  0  0  0  0  0  0  0  0  0
  139.9670   69.2290  227.1710 C   0  0  0  0  0  0  0  0  0  0  0  0
  140.4790   69.8260  228.3110 C   0  0  0  0  0  0  0  0  0  0  0  0
  141.0140   71.1070  228.2430 C   0  0  0  0  0  0  0  0  0  0  0  0
  141.0450   71.8000  227.0540 C   0  0  0  0  0  0  0  0  0  0  0  0
  140.5350   71.2100  225.9070 C   0  0  0  0  0  0  0  0  0  0  0  0
  140.5530   71.8640  224.7380 N   0  0  0  0  0  0  0  0  0  0  0  0
  139.5590   73.8780  223.2550 H   0  0  0  0  0  0  0  0  0  0  0  0
  140.0834   73.5843  220.2504 H   0  0  0  0  0  0  0  0  0  0  0  0
  138.7981   74.6570  220.9162 H   0  0  0  0  0  0  0  0  0  0  0  0
  143.5566   75.8689  220.8747 H   0  0  0  0  0  0  0  0  0  0  0  0
  142.9590   74.3366  220.1906 H   0  0  0  0  0  0  0  0  0  0  0  0
  143.7572   76.8985  218.7937 H   0  0  0  0  0  0  0  0  0  0  0  0
  144.2734   75.1585  218.4958 H   0  0  0  0  0  0  0  0  0  0  0  0
  142.8667   76.2472  216.7365 H   0  0  0  0  0  0  0  0  0  0  0  0
  142.3302   74.6398  217.4285 H   0  0  0  0  0  0  0  0  0  0  0  0
  140.8042   77.0000  217.1485 H   0  0  0  0  0  0  0  0  0  0  0  0
  140.3456   75.4819  217.9550 H   0  0  0  0  0  0  0  0  0  0  0  0
  142.0022   77.7331  219.3021 H   0  0  0  0  0  0  0  0  0  0  0  0
  139.4359   77.9383  218.6687 H   0  0  0  0  0  0  0  0  0  0  0  0
  139.5182   77.3953  220.4135 H   0  0  0  0  0  0  0  0  0  0  0  0
  141.2643   79.6010  219.3521 H   0  0  0  0  0  0  0  0  0  0  0  0
  139.5491   79.8700  219.9452 H   0  0  0  0  0  0  0  0  0  0  0  0
  142.8020   80.1964  220.7385 H   0  0  0  0  0  0  0  0  0  0  0  0
  143.7417   80.4182  222.9972 H   0  0  0  0  0  0  0  0  0  0  0  0
  142.4414   79.7052  224.9964 H   0  0  0  0  0  0  0  0  0  0  0  0
  140.1491   78.7560  224.6626 H   0  0  0  0  0  0  0  0  0  0  0  0
  139.2315   78.5421  222.3840 H   0  0  0  0  0  0  0  0  0  0  0  0
  139.1341   69.5963  222.7615 H   0  0  0  0  0  0  0  0  0  0  0  0
  139.0652   68.3148  224.8983 H   0  0  0  0  0  0  0  0  0  0  0  0
  139.5409   68.2157  227.2128 H   0  0  0  0  0  0  0  0  0  0  0  0
  140.4623   69.2867  229.2696 H   0  0  0  0  0  0  0  0  0  0  0  0
  141.4187   71.5741  229.1530 H   0  0  0  0  0  0  0  0  0  0  0  0
  141.4708   72.8135  227.0139 H   0  0  0  0  0  0  0  0  0  0  0  0
  1  2  2  0
  2  3  1  0
  3  4  1  0
  4  5  1  0
  5  6  2  0
  5  7  1  0
  7  8  1  0
  8  9  1  0
  9 10  1  0
 10 11  1  0
 11 12  1  0
 12 13  1  0
 13 14  1  0
 14 15  1  0
 15 16  2  0
 16 17  1  0
 17 18  2  0
 18 19  1  0
 19 20  2  0
  2 21  1  0
 21 22  2  0
 22 23  1  0
 23 24  2  0
 24 25  1  0
 25 26  2  0
 26 27  1  0
 27 28  2  0
 28 29  1  0
 29 30  2  0
 12  7  1  0
 20 15  1  0
 30 21  1  0
 29 24  1  0
  3 31  1  0
  4 32  1  0
  4 33  1  0
  8 34  1  0
  8 35  1  0
  9 36  1  0
  9 37  1  0
 10 38  1  0
 10 39  1  0
 11 40  1  0
 11 41  1  0
 12 42  1  6
 13 43  1  0
 13 44  1  0
 14 45  1  0
 14 46  1  0
 16 47  1  0
 17 48  1  0
 18 49  1  0
 19 50  1  0
 20 51  1  0
 22 52  1  0
 23 53  1  0
 25 54  1  0
 26 55  1  0
 27 56  1  0
 28 57  1  0
M  END
>  <smiles>  (87) 
O=C(NCC(=O)N1CCCCC1CCc1ccccc1)c1ccc2ccccc2n1

>  <score_type>  (87) 
oracle

>  <origin>  (87) 
autodockgpu

>  <m_score__min__energy>  (87) 
-9.4399999999999995

>  <m_primary>  (87) 
energy

>  <rmsd>  (87) 
2.0994389201582235

>  <m_score__min__rmsd>  (87) 
2.0994389201582235

>  <meeko>  (87) 
{"free_energy": -8.67, "intermolecular_energy": -10.76, "internal_energy": -2.12, "cluster_size": 38, "cluster_id": 1, "rank_in_cluster": 30}

>  <energy>  (87) 
-8.25

>  <cluster_rmsd>  (87) 
1.45

>  <cluster>  (87) 
1

$$$$

     RDKit          3D

 57 60  0  0  0  0  0  0  0  0999 V2000
  137.8810   70.3940  222.0200 O   0  0  0  0  0  0  0  0  0  0  0  0
  138.6100   70.9370  222.8850 C   0  0  0  0  0  0  0  0  0  0  0  0
  139.0470   72.2940  222.8030 N   0  0  0  0  0  0  0  0  0  0  0  0
  138.6480   73.1480  221.6600 C   0  0  0  0  0  0  0  0  0  0  0  0
  139.2680   74.4760  221.7780 C   0  0  0  0  0  0  0  0  0  0  0  0
  140.4730   74.4690  222.2400 O   0  0  0  0  0  0  0  0  0  0  0  0
  138.7480   75.7180  221.4660 N   0  0  0  0  0  0  0  0  0  0  0  0
  137.2960   75.7260  221.1040 C   0  0  0  0  0  0  0  0  0  0  0  0
  136.8080   77.1440  221.2280 C   0  0  0  0  0  0  0  0  0  0  0  0
  137.3300   77.8910  222.4140 C   0  0  0  0  0  0  0  0  0  0  0  0
  138.8170   77.7550  222.6170 C   0  0  0  0  0  0  0  0  0  0  0  0
  139.3660   77.0100  221.4160 C   0  0  1  0  0  0  0  0  0  0  0  0
  140.8350   77.0740  221.2960 C   0  0  0  0  0  0  0  0  0  0  0  0
  141.3480   78.3890  220.7380 C   0  0  0  0  0  0  0  0  0  0  0  0
  141.6190   79.4100  221.7480 C   0  0  0  0  0  0  0  0  0  0  0  0
  142.0140   78.9670  223.0200 C   0  0  0  0  0  0  0  0  0  0  0  0
  142.2920   79.8530  224.0380 C   0  0  0  0  0  0  0  0  0  0  0  0
  142.1910   81.2200  223.8440 C   0  0  0  0  0  0  0  0  0  0  0  0
  141.8030   81.6770  222.5950 C   0  0  0  0  0  0  0  0  0  0  0  0
  141.5290   80.7590  221.5850 C   0  0  0  0  0  0  0  0  0  0  0  0
  139.0400   70.1330  224.0480 C   0  0  0  0  0  0  0  0  0  0  0  0
  138.8210   68.7720  224.0770 C   0  0  0  0  0  0  0  0  0  0  0  0
  139.2090   67.9810  225.1500 C   0  0  0  0  0  0  0  0  0  0  0  0
  139.8270   68.6070  226.1980 C   0  0  0  0  0  0  0  0  0  0  0  0
  140.2220   67.8430  227.2760 C   0  0  0  0  0  0  0  0  0  0  0  0
  140.8480   68.4660  228.3430 C   0  0  0  0  0  0  0  0  0  0  0  0
  141.0680   69.8370  228.3130 C   0  0  0  0  0  0  0  0  0  0  0  0
  140.6720   70.5960  227.2350 C   0  0  0  0  0  0  0  0  0  0  0  0
  140.0440   69.9810  226.1620 C   0  0  0  0  0  0  0  0  0  0  0  0
  139.6490   70.6960  225.1010 N   0  0  0  0  0  0  0  0  0  0  0  0
  139.6460   72.6470  223.5680 H   0  0  0  0  0  0  0  0  0  0  0  0
  138.9756   72.6760  220.7220 H   0  0  0  0  0  0  0  0  0  0  0  0
  137.5538   73.2612  221.6611 H   0  0  0  0  0  0  0  0  0  0  0  0
  137.1644   75.3723  220.0708 H   0  0  0  0  0  0  0  0  0  0  0  0
  136.7267   75.0602  221.7693 H   0  0  0  0  0  0  0  0  0  0  0  0
  137.1098   77.6892  220.3215 H   0  0  0  0  0  0  0  0  0  0  0  0
  135.7175   77.0834  221.3586 H   0  0  0  0  0  0  0  0  0  0  0  0
  137.0948   78.9575  222.2822 H   0  0  0  0  0  0  0  0  0  0  0  0
  136.8462   77.4576  223.3018 H   0  0  0  0  0  0  0  0  0  0  0  0
  139.2805   78.7501  222.6877 H   0  0  0  0  0  0  0  0  0  0  0  0
  139.0364   77.2116  223.5479 H   0  0  0  0  0  0  0  0  0  0  0  0
  139.1057   77.4818  220.4570 H   0  0  0  0  0  0  0  0  0  0  0  0
  141.2712   76.9277  222.2952 H   0  0  0  0  0  0  0  0  0  0  0  0
  141.1328   76.2875  220.5870 H   0  0  0  0  0  0  0  0  0  0  0  0
  142.2816   78.1897  220.1915 H   0  0  0  0  0  0  0  0  0  0  0  0
  140.5505   78.7887  220.0944 H   0  0  0  0  0  0  0  0  0  0  0  0
  142.1037   77.8870  223.2086 H   0  0  0  0  0  0  0  0  0  0  0  0
  142.5994   79.4676  225.0214 H   0  0  0  0  0  0  0  0  0  0  0  0
  142.4128   81.9242  224.6594 H   0  0  0  0  0  0  0  0  0  0  0  0
  141.7122   82.7563  222.4030 H   0  0  0  0  0  0  0  0  0  0  0  0
  141.2230   81.1444  220.6012 H   0  0  0  0  0  0  0  0  0  0  0  0
  138.3215   68.2963  223.2201 H   0  0  0  0  0  0  0  0  0  0  0  0
  139.0271   66.8962  225.1573 H   0  0  0  0  0  0  0  0  0  0  0  0
  140.0430   66.7577  227.2883 H   0  0  0  0  0  0  0  0  0  0  0  0
  141.1706   67.8755  229.2132 H   0  0  0  0  0  0  0  0  0  0  0  0
  141.5665   70.3240  229.1641 H   0  0  0  0  0  0  0  0  0  0  0  0
  140.8521   71.6811  227.2246 H   0  0  0  0  0  0  0  0  0  0  0  0
  1  2  2  0
  2  3  1  0
  3  4  1  0
  4  5  1  0
  5  6  2  0
  5  7  1  0
  7  8  1  0
  8  9  1  0
  9 10  1  0
 10 11  1  0
 11 12  1  0
 12 13  1  0
 13 14  1  0
 14 15  1  0
 15 16  2  0
 16 17  1  0
 17 18  2  0
 18 19  1  0
 19 20  2  0
  2 21  1  0
 21 22  2  0
 22 23  1  0
 23 24  2  0
 24 25  1  0
 25 26  2  0
 26 27  1  0
 27 28  2  0
 28 29  1  0
 29 30  2  0
 12  7  1  0
 20 15  1  0
 30 21  1  0
 29 24  1  0
  3 31  1  0
  4 32  1  0
  4 33  1  0
  8 34  1  0
  8 35  1  0
  9 36  1  0
  9 37  1  0
 10 38  1  0
 10 39  1  0
 11 40  1  0
 11 41  1  0
 12 42  1  6
 13 43  1  0
 13 44  1  0
 14 45  1  0
 14 46  1  0
 16 47  1  0
 17 48  1  0
 18 49  1  0
 19 50  1  0
 20 51  1  0
 22 52  1  0
 23 53  1  0
 25 54  1  0
 26 55  1  0
 27 56  1  0
 28 57  1  0
M  END
>  <smiles>  (88) 
O=C(NCC(=O)N1CCCCC1CCc1ccccc1)c1ccc2ccccc2n1

>  <score_type>  (88) 
oracle

>  <origin>  (88) 
autodockgpu

>  <m_score__min__energy>  (88) 
-9.4399999999999995

>  <m_primary>  (88) 
energy

>  <rmsd>  (88) 
2.4436414549685925

>  <m_score__min__rmsd>  (88) 
2.4436414549685925

>  <meeko>  (88) 
{"free_energy": -8.98, "intermolecular_energy": -11.07, "internal_energy": -1.98, "cluster_size": 38, "cluster_id": 1, "rank_in_cluster": 14}

>  <energy>  (88) 
-8.16

>  <cluster_rmsd>  (88) 
1.68

>  <cluster>  (88) 
1

$$$$

     RDKit          3D

 57 60  0  0  0  0  0  0  0  0999 V2000
  140.7780   71.4540  221.3590 O   0  0  0  0  0  0  0  0  0  0  0  0
  140.3290   72.0470  222.3690 C   0  0  0  0  0  0  0  0  0  0  0  0
  139.9220   73.4150  222.3590 N   0  0  0  0  0  0  0  0  0  0  0  0
  140.0150   74.2220  221.1190 C   0  0  0  0  0  0  0  0  0  0  0  0
  140.0880   75.6530  221.4490 C   0  0  0  0  0  0  0  0  0  0  0  0
  139.9750   75.9230  222.7060 O   0  0  0  0  0  0  0  0  0  0  0  0
  140.2600   76.7390  220.6110 N   0  0  0  0  0  0  0  0  0  0  0  0
  139.3570   77.9010  220.8830 C   0  0  0  0  0  0  0  0  0  0  0  0
  139.9560   79.1050  220.2080 C   0  0  0  0  0  0  0  0  0  0  0  0
  141.4430   79.2190  220.3200 C   0  0  0  0  0  0  0  0  0  0  0  0
  142.1800   77.9390  220.0150 C   0  0  0  0  0  0  0  0  0  0  0  0
  141.1540   76.9430  219.5100 C   0  0  1  0  0  0  0  0  0  0  0  0
  141.7450   75.7550  218.8640 C   0  0  0  0  0  0  0  0  0  0  0  0
  143.2600   75.7110  218.9320 C   0  0  0  0  0  0  0  0  0  0  0  0
  143.8010   74.5810  219.6840 C   0  0  0  0  0  0  0  0  0  0  0  0
  143.1240   73.3560  219.5770 C   0  0  0  0  0  0  0  0  0  0  0  0
  143.5560   72.2320  220.2490 C   0  0  0  0  0  0  0  0  0  0  0  0
  144.6780   72.2710  221.0580 C   0  0  0  0  0  0  0  0  0  0  0  0
  145.3590   73.4710  221.1760 C   0  0  0  0  0  0  0  0  0  0  0  0
  144.9010   74.5890  220.4860 C   0  0  0  0  0  0  0  0  0  0  0  0
  140.2140   71.2930  223.6350 C   0  0  0  0  0  0  0  0  0  0  0  0
  139.6620   70.0290  223.6480 C   0  0  0  0  0  0  0  0  0  0  0  0
  139.5360   69.2880  224.8160 C   0  0  0  0  0  0  0  0  0  0  0  0
  139.9840   69.8620  225.9740 C   0  0  0  0  0  0  0  0  0  0  0  0
  139.8700   69.1460  227.1470 C   0  0  0  0  0  0  0  0  0  0  0  0
  140.3200   69.7170  228.3260 C   0  0  0  0  0  0  0  0  0  0  0  0
  140.8760   70.9910  228.3110 C   0  0  0  0  0  0  0  0  0  0  0  0
  140.9870   71.7020  227.1380 C   0  0  0  0  0  0  0  0  0  0  0  0
  140.5390   71.1380  225.9520 C   0  0  0  0  0  0  0  0  0  0  0  0
  140.6370   71.8090  224.7980 N   0  0  0  0  0  0  0  0  0  0  0  0
  139.5650   73.8110  223.2440 H   0  0  0  0  0  0  0  0  0  0  0  0
  140.9182   73.9308  220.5628 H   0  0  0  0  0  0  0  0  0  0  0  0
  139.1209   74.0404  220.5046 H   0  0  0  0  0  0  0  0  0  0  0  0
  138.3548   77.7016  220.4757 H   0  0  0  0  0  0  0  0  0  0  0  0
  139.2592   78.0715  221.9653 H   0  0  0  0  0  0  0  0  0  0  0  0
  139.6968   79.0614  219.1399 H   0  0  0  0  0  0  0  0  0  0  0  0
  139.5410   79.9839  220.7231 H   0  0  0  0  0  0  0  0  0  0  0  0
  141.7849   79.9915  219.6155 H   0  0  0  0  0  0  0  0  0  0  0  0
  141.6652   79.4730  221.3670 H   0  0  0  0  0  0  0  0  0  0  0  0
  142.9436   78.1179  219.2437 H   0  0  0  0  0  0  0  0  0  0  0  0
  142.6881   77.5565  220.9125 H   0  0  0  0  0  0  0  0  0  0  0  0
  140.5708   77.3171  218.6557 H   0  0  0  0  0  0  0  0  0  0  0  0
  141.3493   74.8570  219.3611 H   0  0  0  0  0  0  0  0  0  0  0  0
  141.4733   75.8010  217.7991 H   0  0  0  0  0  0  0  0  0  0  0  0
  143.6485   75.6571  217.9043 H   0  0  0  0  0  0  0  0  0  0  0  0
  143.5754   76.6204  219.4644 H   0  0  0  0  0  0  0  0  0  0  0  0
  142.2279   73.2911  218.9423 H   0  0  0  0  0  0  0  0  0  0  0  0
  142.9998   71.2892  220.1402 H   0  0  0  0  0  0  0  0  0  0  0  0
  145.0198   71.3728  221.5931 H   0  0  0  0  0  0  0  0  0  0  0  0
  146.2551   73.5398  221.8103 H   0  0  0  0  0  0  0  0  0  0  0  0
  145.4584   75.5311  220.5944 H   0  0  0  0  0  0  0  0  0  0  0  0
  139.3097   69.5931  222.7015 H   0  0  0  0  0  0  0  0  0  0  0  0
  139.0940   68.2807  224.8100 H   0  0  0  0  0  0  0  0  0  0  0  0
  139.4291   68.1382  227.1464 H   0  0  0  0  0  0  0  0  0  0  0  0
  140.2375   69.1631  229.2728 H   0  0  0  0  0  0  0  0  0  0  0  0
  141.2326   71.4375  229.2509 H   0  0  0  0  0  0  0  0  0  0  0  0
  141.4276   72.7099  227.1406 H   0  0  0  0  0  0  0  0  0  0  0  0
  1  2  2  0
  2  3  1  0
  3  4  1  0
  4  5  1  0
  5  6  2  0
  5  7  1  0
  7  8  1  0
  8  9  1  0
  9 10  1  0
 10 11  1  0
 11 12  1  0
 12 13  1  0
 13 14  1  0
 14 15  1  0
 15 16  2  0
 16 17  1  0
 17 18  2  0
 18 19  1  0
 19 20  2  0
  2 21  1  0
 21 22  2  0
 22 23  1  0
 23 24  2  0
 24 25  1  0
 25 26  2  0
 26 27  1  0
 27 28  2  0
 28 29  1  0
 29 30  2  0
 12  7  1  0
 20 15  1  0
 30 21  1  0
 29 24  1  0
  3 31  1  0
  4 32  1  0
  4 33  1  0
  8 34  1  0
  8 35  1  0
  9 36  1  0
  9 37  1  0
 10 38  1  0
 10 39  1  0
 11 40  1  0
 11 41  1  0
 12 42  1  6
 13 43  1  0
 13 44  1  0
 14 45  1  0
 14 46  1  0
 16 47  1  0
 17 48  1  0
 18 49  1  0
 19 50  1  0
 20 51  1  0
 22 52  1  0
 23 53  1  0
 25 54  1  0
 26 55  1  0
 27 56  1  0
 28 57  1  0
M  END
>  <smiles>  (89) 
O=C(NCC(=O)N1CCCCC1CCc1ccccc1)c1ccc2ccccc2n1

>  <score_type>  (89) 
oracle

>  <origin>  (89) 
autodockgpu

>  <m_score__min__energy>  (89) 
-9.4399999999999995

>  <m_primary>  (89) 
energy

>  <rmsd>  (89) 
2.233105776318876

>  <m_score__min__rmsd>  (89) 
2.233105776318876

>  <meeko>  (89) 
{"free_energy": -8.26, "intermolecular_energy": -10.35, "internal_energy": -2.55, "cluster_size": 8, "cluster_id": 3, "rank_in_cluster": 4}

>  <energy>  (89) 
-8.87

>  <cluster_rmsd>  (89) 
0.0

>  <cluster>  (89) 
2

$$$$

     RDKit          3D

 57 60  0  0  0  0  0  0  0  0999 V2000
  139.4470   71.1500  221.3470 O   0  0  0  0  0  0  0  0  0  0  0  0
  139.5160   71.8590  222.3800 C   0  0  0  0  0  0  0  0  0  0  0  0
  139.3540   73.2770  222.3710 N   0  0  0  0  0  0  0  0  0  0  0  0
  139.0900   73.9990  221.1040 C   0  0  0  0  0  0  0  0  0  0  0  0
  140.2710   73.9380  220.2300 C   0  0  0  0  0  0  0  0  0  0  0  0
  140.0450   73.4580  219.0530 O   0  0  0  0  0  0  0  0  0  0  0  0
  141.5750   74.3190  220.4880 N   0  0  0  0  0  0  0  0  0  0  0  0
  142.5240   73.1930  220.7560 C   0  0  0  0  0  0  0  0  0  0  0  0
  143.9180   73.7280  220.5770 C   0  0  0  0  0  0  0  0  0  0  0  0
  144.0990   74.6510  219.4150 C   0  0  0  0  0  0  0  0  0  0  0  0
  143.0360   75.7160  219.3080 C   0  0  0  0  0  0  0  0  0  0  0  0
  142.1790   75.6160  220.5540 C   0  0  1  0  0  0  0  0  0  0  0  0
  141.2990   76.7830  220.7670 C   0  0  0  0  0  0  0  0  0  0  0  0
  140.9180   77.0060  222.2180 C   0  0  0  0  0  0  0  0  0  0  0  0
  141.0900   78.3810  222.6840 C   0  0  0  0  0  0  0  0  0  0  0  0
  142.3170   79.0040  222.4090 C   0  0  0  0  0  0  0  0  0  0  0  0
  142.5740   80.2980  222.8080 C   0  0  0  0  0  0  0  0  0  0  0  0
  141.6280   81.0350  223.4980 C   0  0  0  0  0  0  0  0  0  0  0  0
  140.4100   80.4370  223.7790 C   0  0  0  0  0  0  0  0  0  0  0  0
  140.1780   79.1290  223.3640 C   0  0  0  0  0  0  0  0  0  0  0  0
  139.7780   71.1940  223.6740 C   0  0  0  0  0  0  0  0  0  0  0  0
  139.5230   69.8480  223.8320 C   0  0  0  0  0  0  0  0  0  0  0  0
  139.7560   69.1860  225.0300 C   0  0  0  0  0  0  0  0  0  0  0  0
  140.2550   69.9250  226.0680 C   0  0  0  0  0  0  0  0  0  0  0  0
  140.4940   69.2890  227.2680 C   0  0  0  0  0  0  0  0  0  0  0  0
  141.0000   70.0270  228.3260 C   0  0  0  0  0  0  0  0  0  0  0  0
  141.2570   71.3830  228.1650 C   0  0  0  0  0  0  0  0  0  0  0  0
  141.0160   72.0130  226.9650 C   0  0  0  0  0  0  0  0  0  0  0  0
  140.5100   71.2820  225.9000 C   0  0  0  0  0  0  0  0  0  0  0  0
  140.2670   71.8710  224.7230 N   0  0  0  0  0  0  0  0  0  0  0  0
  139.4290   73.7700  223.2760 H   0  0  0  0  0  0  0  0  0  0  0  0
  138.2346   73.5340  220.5921 H   0  0  0  0  0  0  0  0  0  0  0  0
  138.8647   75.0516  221.3306 H   0  0  0  0  0  0  0  0  0  0  0  0
  142.3912   72.8260  221.7844 H   0  0  0  0  0  0  0  0  0  0  0  0
  142.3378   72.3557  220.0674 H   0  0  0  0  0  0  0  0  0  0  0  0
  144.1936   74.2735  221.4916 H   0  0  0  0  0  0  0  0  0  0  0  0
  144.5575   72.8555  220.3775 H   0  0  0  0  0  0  0  0  0  0  0  0
  145.0762   75.1460  219.5150 H   0  0  0  0  0  0  0  0  0  0  0  0
  144.0276   74.0365  218.5054 H   0  0  0  0  0  0  0  0  0  0  0  0
  143.5025   76.7104  219.2496 H   0  0  0  0  0  0  0  0  0  0  0  0
  142.4285   75.5736  218.4021 H   0  0  0  0  0  0  0  0  0  0  0  0
  142.7606   75.6797  221.4855 H   0  0  0  0  0  0  0  0  0  0  0  0
  141.8199   77.6810  220.4033 H   0  0  0  0  0  0  0  0  0  0  0  0
  140.3666   76.5855  220.2178 H   0  0  0  0  0  0  0  0  0  0  0  0
  139.8603   76.7307  222.3420 H   0  0  0  0  0  0  0  0  0  0  0  0
  141.5969   76.3838  222.8196 H   0  0  0  0  0  0  0  0  0  0  0  0
  143.0918   78.4466  221.8622 H   0  0  0  0  0  0  0  0  0  0  0  0
  143.5479   80.7526  222.5738 H   0  0  0  0  0  0  0  0  0  0  0  0
  141.8371   82.0674  223.8149 H   0  0  0  0  0  0  0  0  0  0  0  0
  139.6329   80.9915  224.3256 H   0  0  0  0  0  0  0  0  0  0  0  0
  139.2041   78.6745  223.5983 H   0  0  0  0  0  0  0  0  0  0  0  0
  139.1214   69.2796  222.9801 H   0  0  0  0  0  0  0  0  0  0  0  0
  139.5480   68.1115  225.1402 H   0  0  0  0  0  0  0  0  0  0  0  0
  140.2866   68.2149  227.3833 H   0  0  0  0  0  0  0  0  0  0  0  0
  141.1980   69.5400  229.2922 H   0  0  0  0  0  0  0  0  0  0  0  0
  141.6592   71.9620  229.0094 H   0  0  0  0  0  0  0  0  0  0  0  0
  141.2230   73.0874  226.8515 H   0  0  0  0  0  0  0  0  0  0  0  0
  1  2  2  0
  2  3  1  0
  3  4  1  0
  4  5  1  0
  5  6  2  0
  5  7  1  0
  7  8  1  0
  8  9  1  0
  9 10  1  0
 10 11  1  0
 11 12  1  0
 12 13  1  0
 13 14  1  0
 14 15  1  0
 15 16  2  0
 16 17  1  0
 17 18  2  0
 18 19  1  0
 19 20  2  0
  2 21  1  0
 21 22  2  0
 22 23  1  0
 23 24  2  0
 24 25  1  0
 25 26  2  0
 26 27  1  0
 27 28  2  0
 28 29  1  0
 29 30  2  0
 12  7  1  0
 20 15  1  0
 30 21  1  0
 29 24  1  0
  3 31  1  0
  4 32  1  0
  4 33  1  0
  8 34  1  0
  8 35  1  0
  9 36  1  0
  9 37  1  0
 10 38  1  0
 10 39  1  0
 11 40  1  0
 11 41  1  0
 12 42  1  1
 13 43  1  0
 13 44  1  0
 14 45  1  0
 14 46  1  0
 16 47  1  0
 17 48  1  0
 18 49  1  0
 19 50  1  0
 20 51  1  0
 22 52  1  0
 23 53  1  0
 25 54  1  0
 26 55  1  0
 27 56  1  0
 28 57  1  0
M  END
>  <smiles>  (90) 
O=C(NCC(=O)N1CCCCC1CCc1ccccc1)c1ccc2ccccc2n1

>  <score_type>  (90) 
oracle

>  <origin>  (90) 
autodockgpu

>  <m_score__min__energy>  (90) 
-9.4399999999999995

>  <m_primary>  (90) 
energy

>  <rmsd>  (90) 
2.495320908724182

>  <m_score__min__rmsd>  (90) 
2.495320908724182

>  <meeko>  (90) 
{"free_energy": -9.08, "intermolecular_energy": -11.17, "internal_energy": -1.85, "cluster_size": 38, "cluster_id": 1, "rank_in_cluster": 10}

>  <energy>  (90) 
-8.83

>  <cluster_rmsd>  (90) 
1.13

>  <cluster>  (90) 
2

$$$$

     RDKit          3D

 57 60  0  0  0  0  0  0  0  0999 V2000
  139.3990   70.9740  221.3300 O   0  0  0  0  0  0  0  0  0  0  0  0
  139.4510   71.7350  222.3260 C   0  0  0  0  0  0  0  0  0  0  0  0
  139.2390   73.1450  222.2490 N   0  0  0  0  0  0  0  0  0  0  0  0
  138.9400   73.7940  220.9510 C   0  0  0  0  0  0  0  0  0  0  0  0
  140.1190   73.7400  220.0730 C   0  0  0  0  0  0  0  0  0  0  0  0
  139.9320   73.1220  218.9560 O   0  0  0  0  0  0  0  0  0  0  0  0
  141.3860   74.2550  220.2740 N   0  0  0  0  0  0  0  0  0  0  0  0
  142.4980   73.4680  219.6520 C   0  0  0  0  0  0  0  0  0  0  0  0
  143.7020   74.3660  219.5850 C   0  0  0  0  0  0  0  0  0  0  0  0
  143.4180   75.7790  219.1870 C   0  0  0  0  0  0  0  0  0  0  0  0
  142.2550   76.3990  219.9200 C   0  0  0  0  0  0  0  0  0  0  0  0
  141.8270   75.4150  220.9900 C   0  0  1  0  0  0  0  0  0  0  0  0
  140.9210   75.9930  222.0020 C   0  0  0  0  0  0  0  0  0  0  0  0
  140.3740   77.3580  221.6270 C   0  0  0  0  0  0  0  0  0  0  0  0
  141.1200   78.4830  222.1880 C   0  0  0  0  0  0  0  0  0  0  0  0
  141.4910   79.5110  221.3060 C   0  0  0  0  0  0  0  0  0  0  0  0
  142.1960   80.6130  221.7390 C   0  0  0  0  0  0  0  0  0  0  0  0
  142.5660   80.7480  223.0660 C   0  0  0  0  0  0  0  0  0  0  0  0
  142.2080   79.7450  223.9510 C   0  0  0  0  0  0  0  0  0  0  0  0
  141.4960   78.6440  223.4860 C   0  0  0  0  0  0  0  0  0  0  0  0
  139.7470   71.1440  223.6480 C   0  0  0  0  0  0  0  0  0  0  0  0
  139.4980   69.8100  223.8890 C   0  0  0  0  0  0  0  0  0  0  0  0
  139.7610   69.2160  225.1160 C   0  0  0  0  0  0  0  0  0  0  0  0
  140.2840   70.0120  226.0970 C   0  0  0  0  0  0  0  0  0  0  0  0
  140.5550   69.4460  227.3260 C   0  0  0  0  0  0  0  0  0  0  0  0
  141.0840   70.2420  228.3270 C   0  0  0  0  0  0  0  0  0  0  0  0
  141.3350   71.5870  228.0840 C   0  0  0  0  0  0  0  0  0  0  0  0
  141.0640   72.1480  226.8560 C   0  0  0  0  0  0  0  0  0  0  0  0
  140.5320   71.3580  225.8470 C   0  0  0  0  0  0  0  0  0  0  0  0
  140.2600   71.8800  224.6450 N   0  0  0  0  0  0  0  0  0  0  0  0
  139.3030   73.6840  223.1280 H   0  0  0  0  0  0  0  0  0  0  0  0
  138.1023   73.2703  220.4672 H   0  0  0  0  0  0  0  0  0  0  0  0
  138.6725   74.8461  221.1287 H   0  0  0  0  0  0  0  0  0  0  0  0
  142.7223   72.5837  220.2666 H   0  0  0  0  0  0  0  0  0  0  0  0
  142.2145   73.1231  218.6467 H   0  0  0  0  0  0  0  0  0  0  0  0
  144.1724   74.3800  220.5793 H   0  0  0  0  0  0  0  0  0  0  0  0
  144.3504   73.9509  218.7994 H   0  0  0  0  0  0  0  0  0  0  0  0
  144.3154   76.3824  219.3882 H   0  0  0  0  0  0  0  0  0  0  0  0
  143.1504   75.7623  218.1202 H   0  0  0  0  0  0  0  0  0  0  0  0
  142.5632   77.3485  220.3821 H   0  0  0  0  0  0  0  0  0  0  0  0
  141.4256   76.6118  219.2295 H   0  0  0  0  0  0  0  0  0  0  0  0
  142.6483   75.1178  221.6586 H   0  0  0  0  0  0  0  0  0  0  0  0
  140.0732   75.3060  222.1411 H   0  0  0  0  0  0  0  0  0  0  0  0
  141.5108   76.1259  222.9210 H   0  0  0  0  0  0  0  0  0  0  0  0
  140.3915   77.4462  220.5307 H   0  0  0  0  0  0  0  0  0  0  0  0
  139.3585   77.4149  222.0459 H   0  0  0  0  0  0  0  0  0  0  0  0
  141.2123   79.4347  220.2446 H   0  0  0  0  0  0  0  0  0  0  0  0
  142.4691   81.3980  221.0185 H   0  0  0  0  0  0  0  0  0  0  0  0
  143.1294   81.6286  223.4083 H   0  0  0  0  0  0  0  0  0  0  0  0
  142.4843   79.8182  225.0132 H   0  0  0  0  0  0  0  0  0  0  0  0
  141.2218   77.8602  224.2074 H   0  0  0  0  0  0  0  0  0  0  0  0
  139.0761   69.1944  223.0809 H   0  0  0  0  0  0  0  0  0  0  0  0
  139.5571   68.1494  225.2916 H   0  0  0  0  0  0  0  0  0  0  0  0
  140.3539   68.3798  227.5071 H   0  0  0  0  0  0  0  0  0  0  0  0
  141.3056   69.8103  229.3142 H   0  0  0  0  0  0  0  0  0  0  0  0
  141.7564   72.2128  228.8845 H   0  0  0  0  0  0  0  0  0  0  0  0
  141.2676   73.2140  226.6764 H   0  0  0  0  0  0  0  0  0  0  0  0
  1  2  2  0
  2  3  1  0
  3  4  1  0
  4  5  1  0
  5  6  2  0
  5  7  1  0
  7  8  1  0
  8  9  1  0
  9 10  1  0
 10 11  1  0
 11 12  1  0
 12 13  1  0
 13 14  1  0
 14 15  1  0
 15 16  2  0
 16 17  1  0
 17 18  2  0
 18 19  1  0
 19 20  2  0
  2 21  1  0
 21 22  2  0
 22 23  1  0
 23 24  2  0
 24 25  1  0
 25 26  2  0
 26 27  1  0
 27 28  2  0
 28 29  1  0
 29 30  2  0
 12  7  1  0
 20 15  1  0
 30 21  1  0
 29 24  1  0
  3 31  1  0
  4 32  1  0
  4 33  1  0
  8 34  1  0
  8 35  1  0
  9 36  1  0
  9 37  1  0
 10 38  1  0
 10 39  1  0
 11 40  1  0
 11 41  1  0
 12 42  1  1
 13 43  1  0
 13 44  1  0
 14 45  1  0
 14 46  1  0
 16 47  1  0
 17 48  1  0
 18 49  1  0
 19 50  1  0
 20 51  1  0
 22 52  1  0
 23 53  1  0
 25 54  1  0
 26 55  1  0
 27 56  1  0
 28 57  1  0
M  END
>  <smiles>  (91) 
O=C(NCC(=O)N1CCCCC1CCc1ccccc1)c1ccc2ccccc2n1

>  <score_type>  (91) 
oracle

>  <origin>  (91) 
autodockgpu

>  <m_score__min__energy>  (91) 
-9.4399999999999995

>  <m_primary>  (91) 
energy

>  <rmsd>  (91) 
2.4859985105107567

>  <m_score__min__rmsd>  (91) 
2.4859985105107567

>  <meeko>  (91) 
{"free_energy": -9.01, "intermolecular_energy": -11.1, "internal_energy": -1.83, "cluster_size": 38, "cluster_id": 1, "rank_in_cluster": 13}

>  <energy>  (91) 
-8.57

>  <cluster_rmsd>  (91) 
0.69

>  <cluster>  (91) 
2

$$$$

     RDKit          3D

 57 60  0  0  0  0  0  0  0  0999 V2000
  140.5760   71.4510  221.3050 O   0  0  0  0  0  0  0  0  0  0  0  0
  140.2090   72.0660  222.3350 C   0  0  0  0  0  0  0  0  0  0  0  0
  139.8340   73.4440  222.3350 N   0  0  0  0  0  0  0  0  0  0  0  0
  139.8630   74.2340  221.0820 C   0  0  0  0  0  0  0  0  0  0  0  0
  139.9610   75.6690  221.3900 C   0  0  0  0  0  0  0  0  0  0  0  0
  139.9140   75.9550  222.6470 O   0  0  0  0  0  0  0  0  0  0  0  0
  140.0960   76.7440  220.5300 N   0  0  0  0  0  0  0  0  0  0  0  0
  138.9520   77.7080  220.5330 C   0  0  0  0  0  0  0  0  0  0  0  0
  139.4390   78.9880  219.9110 C   0  0  0  0  0  0  0  0  0  0  0  0
  140.8200   79.4010  220.3110 C   0  0  0  0  0  0  0  0  0  0  0  0
  141.8340   78.2870  220.2500 C   0  0  0  0  0  0  0  0  0  0  0  0
  141.1470   77.0920  219.6200 C   0  0  1  0  0  0  0  0  0  0  0  0
  142.0760   76.0280  219.1900 C   0  0  0  0  0  0  0  0  0  0  0  0
  143.3620   75.9770  219.9950 C   0  0  0  0  0  0  0  0  0  0  0  0
  143.9140   74.6350  220.1700 C   0  0  0  0  0  0  0  0  0  0  0  0
  143.0360   73.5530  219.9990 C   0  0  0  0  0  0  0  0  0  0  0  0
  143.4620   72.2500  220.1440 C   0  0  0  0  0  0  0  0  0  0  0  0
  144.7760   71.9590  220.4640 C   0  0  0  0  0  0  0  0  0  0  0  0
  145.6570   73.0140  220.6360 C   0  0  0  0  0  0  0  0  0  0  0  0
  145.2000   74.3190  220.4840 C   0  0  0  0  0  0  0  0  0  0  0  0
  140.1610   71.3290  223.6150 C   0  0  0  0  0  0  0  0  0  0  0  0
  139.6420   70.0530  223.6680 C   0  0  0  0  0  0  0  0  0  0  0  0
  139.5790   69.3260  224.8490 C   0  0  0  0  0  0  0  0  0  0  0  0
  140.0580   69.9280  225.9810 C   0  0  0  0  0  0  0  0  0  0  0  0
  140.0060   69.2270  227.1670 C   0  0  0  0  0  0  0  0  0  0  0  0
  140.4880   69.8260  228.3190 C   0  0  0  0  0  0  0  0  0  0  0  0
  141.0120   71.1120  228.2650 C   0  0  0  0  0  0  0  0  0  0  0  0
  141.0600   71.8080  227.0790 C   0  0  0  0  0  0  0  0  0  0  0  0
  140.5800   71.2160  225.9200 C   0  0  0  0  0  0  0  0  0  0  0  0
  140.6170   71.8720  224.7530 N   0  0  0  0  0  0  0  0  0  0  0  0
  139.5460   73.8580  223.2370 H   0  0  0  0  0  0  0  0  0  0  0  0
  140.7331   73.9308  220.4811 H   0  0  0  0  0  0  0  0  0  0  0  0
  138.9361   74.0496  220.5192 H   0  0  0  0  0  0  0  0  0  0  0  0
  138.1153   77.3000  219.9469 H   0  0  0  0  0  0  0  0  0  0  0  0
  138.5973   77.8858  221.5590 H   0  0  0  0  0  0  0  0  0  0  0  0
  139.4233   78.8637  218.8182 H   0  0  0  0  0  0  0  0  0  0  0  0
  138.7655   79.7798  220.2708 H   0  0  0  0  0  0  0  0  0  0  0  0
  141.1493   80.2059  219.6375 H   0  0  0  0  0  0  0  0  0  0  0  0
  140.7644   79.7242  221.3610 H   0  0  0  0  0  0  0  0  0  0  0  0
  142.6947   78.5935  219.6374 H   0  0  0  0  0  0  0  0  0  0  0  0
  142.2046   78.0398  221.2558 H   0  0  0  0  0  0  0  0  0  0  0  0
  140.6973   77.3174  218.6417 H   0  0  0  0  0  0  0  0  0  0  0  0
  141.5648   75.0593  219.2909 H   0  0  0  0  0  0  0  0  0  0  0  0
  142.3572   76.2486  218.1497 H   0  0  0  0  0  0  0  0  0  0  0  0
  144.1140   76.5936  219.4809 H   0  0  0  0  0  0  0  0  0  0  0  0
  143.1166   76.3483  221.0010 H   0  0  0  0  0  0  0  0  0  0  0  0
  141.9843   73.7494  219.7435 H   0  0  0  0  0  0  0  0  0  0  0  0
  142.7450   71.4278  220.0029 H   0  0  0  0  0  0  0  0  0  0  0  0
  145.1122   70.9179  220.5788 H   0  0  0  0  0  0  0  0  0  0  0  0
  146.7096   72.8214  220.8908 H   0  0  0  0  0  0  0  0  0  0  0  0
  145.9175   75.1407  220.6253 H   0  0  0  0  0  0  0  0  0  0  0  0
  139.2645   69.5948  222.7420 H   0  0  0  0  0  0  0  0  0  0  0  0
  139.1615   68.3086  224.8739 H   0  0  0  0  0  0  0  0  0  0  0  0
  139.5889   68.2096  227.1978 H   0  0  0  0  0  0  0  0  0  0  0  0
  140.4561   69.2843  229.2758 H   0  0  0  0  0  0  0  0  0  0  0  0
  141.3940   71.5805  229.1840 H   0  0  0  0  0  0  0  0  0  0  0  0
  141.4758   72.8260  227.0502 H   0  0  0  0  0  0  0  0  0  0  0  0
  1  2  2  0
  2  3  1  0
  3  4  1  0
  4  5  1  0
  5  6  2  0
  5  7  1  0
  7  8  1  0
  8  9  1  0
  9 10  1  0
 10 11  1  0
 11 12  1  0
 12 13  1  0
 13 14  1  0
 14 15  1  0
 15 16  2  0
 16 17  1  0
 17 18  2  0
 18 19  1  0
 19 20  2  0
  2 21  1  0
 21 22  2  0
 22 23  1  0
 23 24  2  0
 24 25  1  0
 25 26  2  0
 26 27  1  0
 27 28  2  0
 28 29  1  0
 29 30  2  0
 12  7  1  0
 20 15  1  0
 30 21  1  0
 29 24  1  0
  3 31  1  0
  4 32  1  0
  4 33  1  0
  8 34  1  0
  8 35  1  0
  9 36  1  0
  9 37  1  0
 10 38  1  0
 10 39  1  0
 11 40  1  0
 11 41  1  0
 12 42  1  6
 13 43  1  0
 13 44  1  0
 14 45  1  0
 14 46  1  0
 16 47  1  0
 17 48  1  0
 18 49  1  0
 19 50  1  0
 20 51  1  0
 22 52  1  0
 23 53  1  0
 25 54  1  0
 26 55  1  0
 27 56  1  0
 28 57  1  0
M  END
>  <smiles>  (92) 
O=C(NCC(=O)N1CCCCC1CCc1ccccc1)c1ccc2ccccc2n1

>  <score_type>  (92) 
oracle

>  <origin>  (92) 
autodockgpu

>  <m_score__min__energy>  (92) 
-9.4399999999999995

>  <m_primary>  (92) 
energy

>  <rmsd>  (92) 
2.12215123530907

>  <m_score__min__rmsd>  (92) 
2.12215123530907

>  <meeko>  (92) 
{"free_energy": -8.35, "intermolecular_energy": -10.44, "internal_energy": -2.5, "cluster_size": 8, "cluster_id": 3, "rank_in_cluster": 3}

>  <energy>  (92) 
-8.29

>  <cluster_rmsd>  (92) 
1.7

>  <cluster>  (92) 
2

$$$$

     RDKit          3D

 57 60  0  0  0  0  0  0  0  0999 V2000
  140.3820   71.2810  221.2580 O   0  0  0  0  0  0  0  0  0  0  0  0
  140.1100   71.9590  222.2780 C   0  0  0  0  0  0  0  0  0  0  0  0
  139.8240   73.3570  222.2390 N   0  0  0  0  0  0  0  0  0  0  0  0
  139.8350   74.0940  220.9540 C   0  0  0  0  0  0  0  0  0  0  0  0
  140.0460   75.5300  221.1940 C   0  0  0  0  0  0  0  0  0  0  0  0
  140.2160   75.8490  222.4330 O   0  0  0  0  0  0  0  0  0  0  0  0
  140.0870   76.5740  220.2890 N   0  0  0  0  0  0  0  0  0  0  0  0
  138.7840   76.8920  219.6260 C   0  0  0  0  0  0  0  0  0  0  0  0
  138.9010   78.2740  219.0420 C   0  0  0  0  0  0  0  0  0  0  0  0
  139.6090   79.2680  219.9060 C   0  0  0  0  0  0  0  0  0  0  0  0
  140.9030   78.7590  220.4910 C   0  0  0  0  0  0  0  0  0  0  0  0
  141.1740   77.4060  219.8640 C   0  0  1  0  0  0  0  0  0  0  0  0
  142.5490   76.9150  220.0770 C   0  0  0  0  0  0  0  0  0  0  0  0
  142.9680   75.8250  219.1080 C   0  0  0  0  0  0  0  0  0  0  0  0
  143.5410   74.6390  219.7430 C   0  0  0  0  0  0  0  0  0  0  0  0
  142.8000   73.4490  219.6680 C   0  0  0  0  0  0  0  0  0  0  0  0
  143.2570   72.2790  220.2350 C   0  0  0  0  0  0  0  0  0  0  0  0
  144.4680   72.2330  220.9030 C   0  0  0  0  0  0  0  0  0  0  0  0
  145.2140   73.3970  220.9870 C   0  0  0  0  0  0  0  0  0  0  0  0
  144.7290   74.5650  220.4050 C   0  0  0  0  0  0  0  0  0  0  0  0
  140.0850   71.2760  223.5890 C   0  0  0  0  0  0  0  0  0  0  0  0
  139.5600   70.0070  223.7070 C   0  0  0  0  0  0  0  0  0  0  0  0
  139.5170   69.3310  224.9190 C   0  0  0  0  0  0  0  0  0  0  0  0
  140.0210   69.9780  226.0140 C   0  0  0  0  0  0  0  0  0  0  0  0
  139.9900   69.3280  227.2300 C   0  0  0  0  0  0  0  0  0  0  0  0
  140.4980   69.9730  228.3460 C   0  0  0  0  0  0  0  0  0  0  0  0
  141.0270   71.2520  228.2270 C   0  0  0  0  0  0  0  0  0  0  0  0
  141.0560   71.8970  227.0110 C   0  0  0  0  0  0  0  0  0  0  0  0
  140.5490   71.2590  225.8880 C   0  0  0  0  0  0  0  0  0  0  0  0
  140.5660   71.8650  224.6940 N   0  0  0  0  0  0  0  0  0  0  0  0
  139.6110   73.8230  223.1360 H   0  0  0  0  0  0  0  0  0  0  0  0
  140.6475   73.7082  220.3207 H   0  0  0  0  0  0  0  0  0  0  0  0
  138.8672   73.9525  220.4507 H   0  0  0  0  0  0  0  0  0  0  0  0
  138.5804   76.1627  218.8280 H   0  0  0  0  0  0  0  0  0  0  0  0
  137.9581   76.8457  220.3511 H   0  0  0  0  0  0  0  0  0  0  0  0
  139.4487   78.1973  218.0912 H   0  0  0  0  0  0  0  0  0  0  0  0
  137.8725   78.6461  218.9252 H   0  0  0  0  0  0  0  0  0  0  0  0
  139.8300   80.1586  219.2993 H   0  0  0  0  0  0  0  0  0  0  0  0
  138.9413   79.4877  220.7521 H   0  0  0  0  0  0  0  0  0  0  0  0
  141.7224   79.4544  220.2565 H   0  0  0  0  0  0  0  0  0  0  0  0
  140.8319   78.6760  221.5856 H   0  0  0  0  0  0  0  0  0  0  0  0
  141.1808   77.4324  218.7643 H   0  0  0  0  0  0  0  0  0  0  0  0
  143.2410   77.7628  219.9654 H   0  0  0  0  0  0  0  0  0  0  0  0
  142.5794   76.4760  221.0851 H   0  0  0  0  0  0  0  0  0  0  0  0
  142.0815   75.5143  218.5356 H   0  0  0  0  0  0  0  0  0  0  0  0
  143.7585   76.2548  218.4752 H   0  0  0  0  0  0  0  0  0  0  0  0
  141.8325   73.4505  219.1447 H   0  0  0  0  0  0  0  0  0  0  0  0
  142.6487   71.3660  220.1552 H   0  0  0  0  0  0  0  0  0  0  0  0
  144.8285   71.2972  221.3551 H   0  0  0  0  0  0  0  0  0  0  0  0
  146.1820   73.3985  221.5094 H   0  0  0  0  0  0  0  0  0  0  0  0
  145.3382   75.4775  220.4841 H   0  0  0  0  0  0  0  0  0  0  0  0
  139.1610   69.5123  222.8092 H   0  0  0  0  0  0  0  0  0  0  0  0
  139.0954   68.3179  224.9956 H   0  0  0  0  0  0  0  0  0  0  0  0
  139.5692   68.3150  227.3124 H   0  0  0  0  0  0  0  0  0  0  0  0
  140.4825   69.4727  229.3255 H   0  0  0  0  0  0  0  0  0  0  0  0
  141.4288   71.7571  229.1178 H   0  0  0  0  0  0  0  0  0  0  0  0
  141.4776   72.9098  226.9304 H   0  0  0  0  0  0  0  0  0  0  0  0
  1  2  2  0
  2  3  1  0
  3  4  1  0
  4  5  1  0
  5  6  2  0
  5  7  1  0
  7  8  1  0
  8  9  1  0
  9 10  1  0
 10 11  1  0
 11 12  1  0
 12 13  1  0
 13 14  1  0
 14 15  1  0
 15 16  2  0
 16 17  1  0
 17 18  2  0
 18 19  1  0
 19 20  2  0
  2 21  1  0
 21 22  2  0
 22 23  1  0
 23 24  2  0
 24 25  1  0
 25 26  2  0
 26 27  1  0
 27 28  2  0
 28 29  1  0
 29 30  2  0
 12  7  1  0
 20 15  1  0
 30 21  1  0
 29 24  1  0
  3 31  1  0
  4 32  1  0
  4 33  1  0
  8 34  1  0
  8 35  1  0
  9 36  1  0
  9 37  1  0
 10 38  1  0
 10 39  1  0
 11 40  1  0
 11 41  1  0
 12 42  1  6
 13 43  1  0
 13 44  1  0
 14 45  1  0
 14 46  1  0
 16 47  1  0
 17 48  1  0
 18 49  1  0
 19 50  1  0
 20 51  1  0
 22 52  1  0
 23 53  1  0
 25 54  1  0
 26 55  1  0
 27 56  1  0
 28 57  1  0
M  END
>  <smiles>  (93) 
O=C(NCC(=O)N1CCCCC1CCc1ccccc1)c1ccc2ccccc2n1

>  <score_type>  (93) 
oracle

>  <origin>  (93) 
autodockgpu

>  <m_score__min__energy>  (93) 
-9.4399999999999995

>  <m_primary>  (93) 
energy

>  <rmsd>  (93) 
1.9213002757669864

>  <m_score__min__rmsd>  (93) 
1.9213002757669864

>  <meeko>  (93) 
{"free_energy": -8.09, "intermolecular_energy": -10.18, "internal_energy": -2.58, "cluster_size": 8, "cluster_id": 3, "rank_in_cluster": 8}

>  <energy>  (93) 
-8.43

>  <cluster_rmsd>  (93) 
0.0

>  <cluster>  (93) 
3

$$$$

     RDKit          3D

 57 60  0  0  0  0  0  0  0  0999 V2000
  140.7190   71.5340  221.3210 O   0  0  0  0  0  0  0  0  0  0  0  0
  140.3040   72.1490  222.3330 C   0  0  0  0  0  0  0  0  0  0  0  0
  139.9290   73.5260  222.3160 N   0  0  0  0  0  0  0  0  0  0  0  0
  140.0160   74.3170  221.0650 C   0  0  0  0  0  0  0  0  0  0  0  0
  140.1830   75.7440  221.3780 C   0  0  0  0  0  0  0  0  0  0  0  0
  140.3310   76.0070  222.6330 O   0  0  0  0  0  0  0  0  0  0  0  0
  140.2040   76.8330  220.5250 N   0  0  0  0  0  0  0  0  0  0  0  0
  138.8600   77.3790  220.1580 C   0  0  0  0  0  0  0  0  0  0  0  0
  139.0700   78.7660  219.6180 C   0  0  0  0  0  0  0  0  0  0  0  0
  140.0800   79.5870  220.3540 C   0  0  0  0  0  0  0  0  0  0  0  0
  141.3690   78.8600  220.6390 C   0  0  0  0  0  0  0  0  0  0  0  0
  141.2990   77.5280  219.9170 C   0  0  1  0  0  0  0  0  0  0  0  0
  142.5980   76.8330  219.8220 C   0  0  0  0  0  0  0  0  0  0  0  0
  142.4870   75.3870  219.3780 C   0  0  0  0  0  0  0  0  0  0  0  0
  143.5520   74.5170  219.8750 C   0  0  0  0  0  0  0  0  0  0  0  0
  143.3630   73.1320  219.7460 C   0  0  0  0  0  0  0  0  0  0  0  0
  144.3090   72.2320  220.1860 C   0  0  0  0  0  0  0  0  0  0  0  0
  145.4870   72.6610  220.7730 C   0  0  0  0  0  0  0  0  0  0  0  0
  145.6920   74.0240  220.9080 C   0  0  0  0  0  0  0  0  0  0  0  0
  144.7190   74.9110  220.4550 C   0  0  0  0  0  0  0  0  0  0  0  0
  140.1970   71.4110  223.6090 C   0  0  0  0  0  0  0  0  0  0  0  0
  139.6280   70.1560  223.6460 C   0  0  0  0  0  0  0  0  0  0  0  0
  139.5090   69.4300  224.8240 C   0  0  0  0  0  0  0  0  0  0  0  0
  139.9820   70.0120  225.9680 C   0  0  0  0  0  0  0  0  0  0  0  0
  139.8750   69.3110  227.1510 C   0  0  0  0  0  0  0  0  0  0  0  0
  140.3510   69.8900  228.3170 C   0  0  0  0  0  0  0  0  0  0  0  0
  140.9240   71.1550  228.2790 C   0  0  0  0  0  0  0  0  0  0  0  0
  141.0290   71.8500  227.0960 C   0  0  0  0  0  0  0  0  0  0  0  0
  140.5550   71.2790  225.9240 C   0  0  0  0  0  0  0  0  0  0  0  0
  140.6450   71.9350  224.7600 N   0  0  0  0  0  0  0  0  0  0  0  0
  139.6000   73.9400  223.2030 H   0  0  0  0  0  0  0  0  0  0  0  0
  140.8777   73.9709  220.4753 H   0  0  0  0  0  0  0  0  0  0  0  0
  139.0886   74.1816  220.4891 H   0  0  0  0  0  0  0  0  0  0  0  0
  138.3928   76.7437  219.3911 H   0  0  0  0  0  0  0  0  0  0  0  0
  138.1968   77.4003  221.0354 H   0  0  0  0  0  0  0  0  0  0  0  0
  139.3990   78.6783  218.5720 H   0  0  0  0  0  0  0  0  0  0  0  0
  138.1086   79.2881  219.7325 H   0  0  0  0  0  0  0  0  0  0  0  0
  140.3106   80.4762  219.7489 H   0  0  0  0  0  0  0  0  0  0  0  0
  139.6356   79.8416  221.3275 H   0  0  0  0  0  0  0  0  0  0  0  0
  142.2227   79.4460  220.2678 H   0  0  0  0  0  0  0  0  0  0  0  0
  141.5042   78.7123  221.7206 H   0  0  0  0  0  0  0  0  0  0  0  0
  141.0911   77.6280  218.8415 H   0  0  0  0  0  0  0  0  0  0  0  0
  143.2271   77.3710  219.0976 H   0  0  0  0  0  0  0  0  0  0  0  0
  143.0323   76.8256  220.8326 H   0  0  0  0  0  0  0  0  0  0  0  0
  141.5249   74.9908  219.7350 H   0  0  0  0  0  0  0  0  0  0  0  0
  142.5707   75.3890  218.2812 H   0  0  0  0  0  0  0  0  0  0  0  0
  142.4385   72.7566  219.2830 H   0  0  0  0  0  0  0  0  0  0  0  0
  144.1250   71.1539  220.0688 H   0  0  0  0  0  0  0  0  0  0  0  0
  146.2397   71.9390  221.1226 H   0  0  0  0  0  0  0  0  0  0  0  0
  146.6160   74.4027  221.3693 H   0  0  0  0  0  0  0  0  0  0  0  0
  144.9033   75.9891  220.5722 H   0  0  0  0  0  0  0  0  0  0  0  0
  139.2553   69.7142  222.7101 H   0  0  0  0  0  0  0  0  0  0  0  0
  139.0534   68.4288  224.8365 H   0  0  0  0  0  0  0  0  0  0  0  0
  139.4198   68.3098  227.1689 H   0  0  0  0  0  0  0  0  0  0  0  0
  140.2751   69.3484  229.2714 H   0  0  0  0  0  0  0  0  0  0  0  0
  141.2994   71.6078  229.2085 H   0  0  0  0  0  0  0  0  0  0  0  0
  141.4854   72.8507  227.0798 H   0  0  0  0  0  0  0  0  0  0  0  0
  1  2  2  0
  2  3  1  0
  3  4  1  0
  4  5  1  0
  5  6  2  0
  5  7  1  0
  7  8  1  0
  8  9  1  0
  9 10  1  0
 10 11  1  0
 11 12  1  0
 12 13  1  0
 13 14  1  0
 14 15  1  0
 15 16  2  0
 16 17  1  0
 17 18  2  0
 18 19  1  0
 19 20  2  0
  2 21  1  0
 21 22  2  0
 22 23  1  0
 23 24  2  0
 24 25  1  0
 25 26  2  0
 26 27  1  0
 27 28  2  0
 28 29  1  0
 29 30  2  0
 12  7  1  0
 20 15  1  0
 30 21  1  0
 29 24  1  0
  3 31  1  0
  4 32  1  0
  4 33  1  0
  8 34  1  0
  8 35  1  0
  9 36  1  0
  9 37  1  0
 10 38  1  0
 10 39  1  0
 11 40  1  0
 11 41  1  0
 12 42  1  6
 13 43  1  0
 13 44  1  0
 14 45  1  0
 14 46  1  0
 16 47  1  0
 17 48  1  0
 18 49  1  0
 19 50  1  0
 20 51  1  0
 22 52  1  0
 23 53  1  0
 25 54  1  0
 26 55  1  0
 27 56  1  0
 28 57  1  0
M  END
>  <smiles>  (94) 
O=C(NCC(=O)N1CCCCC1CCc1ccccc1)c1ccc2ccccc2n1

>  <score_type>  (94) 
oracle

>  <origin>  (94) 
autodockgpu

>  <m_score__min__energy>  (94) 
-9.4399999999999995

>  <m_primary>  (94) 
energy

>  <rmsd>  (94) 
2.131723520374072

>  <m_score__min__rmsd>  (94) 
2.131723520374072

>  <meeko>  (94) 
{"free_energy": -8.43, "intermolecular_energy": -10.52, "internal_energy": -2.25, "cluster_size": 8, "cluster_id": 3, "rank_in_cluster": 1}

>  <energy>  (94) 
-8.38

>  <cluster_rmsd>  (94) 
0.52

>  <cluster>  (94) 
3

$$$$

     RDKit          3D

 57 60  0  0  0  0  0  0  0  0999 V2000
  138.1120   70.3140  221.9300 O   0  0  0  0  0  0  0  0  0  0  0  0
  138.7320   70.9170  222.8390 C   0  0  0  0  0  0  0  0  0  0  0  0
  139.0620   72.3050  222.7760 N   0  0  0  0  0  0  0  0  0  0  0  0
  138.6780   73.1200  221.5990 C   0  0  0  0  0  0  0  0  0  0  0  0
  139.0870   74.5190  221.7950 C   0  0  0  0  0  0  0  0  0  0  0  0
  140.2810   74.6710  222.2610 O   0  0  0  0  0  0  0  0  0  0  0  0
  138.3810   75.6820  221.5510 N   0  0  0  0  0  0  0  0  0  0  0  0
  136.9090   75.5000  221.3450 C   0  0  0  0  0  0  0  0  0  0  0  0
  136.2590   76.8430  221.5340 C   0  0  0  0  0  0  0  0  0  0  0  0
  136.8020   77.6570  222.6650 C   0  0  0  0  0  0  0  0  0  0  0  0
  138.3080   77.7150  222.7090 C   0  0  0  0  0  0  0  0  0  0  0  0
  138.8180   77.0420  221.4490 C   0  0  1  0  0  0  0  0  0  0  0  0
  140.2460   77.2960  221.1740 C   0  0  0  0  0  0  0  0  0  0  0  0
  141.0860   77.4790  222.4240 C   0  0  0  0  0  0  0  0  0  0  0  0
  141.4560   78.8650  222.7070 C   0  0  0  0  0  0  0  0  0  0  0  0
  141.0220   79.8430  221.7990 C   0  0  0  0  0  0  0  0  0  0  0  0
  141.3210   81.1770  221.9780 C   0  0  0  0  0  0  0  0  0  0  0  0
  142.0630   81.6030  223.0660 C   0  0  0  0  0  0  0  0  0  0  0  0
  142.4990   80.6520  223.9740 C   0  0  0  0  0  0  0  0  0  0  0  0
  142.1830   79.3130  223.7680 C   0  0  0  0  0  0  0  0  0  0  0  0
  139.1410   70.1550  224.0370 C   0  0  0  0  0  0  0  0  0  0  0  0
  138.9160   68.7970  224.1120 C   0  0  0  0  0  0  0  0  0  0  0  0
  139.2850   68.0440  225.2190 C   0  0  0  0  0  0  0  0  0  0  0  0
  139.8900   68.7070  226.2530 C   0  0  0  0  0  0  0  0  0  0  0  0
  140.2660   67.9810  227.3640 C   0  0  0  0  0  0  0  0  0  0  0  0
  140.8780   68.6410  228.4170 C   0  0  0  0  0  0  0  0  0  0  0  0
  141.1040   70.0100  228.3400 C   0  0  0  0  0  0  0  0  0  0  0  0
  140.7270   70.7290  227.2290 C   0  0  0  0  0  0  0  0  0  0  0  0
  140.1120   70.0780  226.1700 C   0  0  0  0  0  0  0  0  0  0  0  0
  139.7360   70.7550  225.0780 N   0  0  0  0  0  0  0  0  0  0  0  0
  139.5740   72.7080  223.5770 H   0  0  0  0  0  0  0  0  0  0  0  0
  139.1729   72.7189  220.7022 H   0  0  0  0  0  0  0  0  0  0  0  0
  137.5858   73.0793  221.4750 H   0  0  0  0  0  0  0  0  0  0  0  0
  136.7148   75.1281  220.3282 H   0  0  0  0  0  0  0  0  0  0  0  0
  136.5043   74.7686  222.0600 H   0  0  0  0  0  0  0  0  0  0  0  0
  136.3903   77.4188  220.6060 H   0  0  0  0  0  0  0  0  0  0  0  0
  135.2058   76.6418  221.7794 H   0  0  0  0  0  0  0  0  0  0  0  0
  136.4187   78.6835  222.5680 H   0  0  0  0  0  0  0  0  0  0  0  0
  136.4743   77.1695  223.5950 H   0  0  0  0  0  0  0  0  0  0  0  0
  138.6444   78.7618  222.7401 H   0  0  0  0  0  0  0  0  0  0  0  0
  138.6930   77.2084  223.6063 H   0  0  0  0  0  0  0  0  0  0  0  0
  138.3983   77.4719  220.5276 H   0  0  0  0  0  0  0  0  0  0  0  0
  140.6475   76.4426  220.6079 H   0  0  0  0  0  0  0  0  0  0  0  0
  140.3014   78.2384  220.6094 H   0  0  0  0  0  0  0  0  0  0  0  0
  140.5148   77.0937  223.2815 H   0  0  0  0  0  0  0  0  0  0  0  0
  142.0253   76.9326  222.2531 H   0  0  0  0  0  0  0  0  0  0  0  0
  140.4293   79.5382  220.9239 H   0  0  0  0  0  0  0  0  0  0  0  0
  140.9641   81.9147  221.2442 H   0  0  0  0  0  0  0  0  0  0  0  0
  142.3001   82.6680  223.2059 H   0  0  0  0  0  0  0  0  0  0  0  0
  143.0905   80.9533  224.8511 H   0  0  0  0  0  0  0  0  0  0  0  0
  142.5398   78.5757  224.5022 H   0  0  0  0  0  0  0  0  0  0  0  0
  138.4272   68.2923  223.2656 H   0  0  0  0  0  0  0  0  0  0  0  0
  139.0991   66.9607  225.2633 H   0  0  0  0  0  0  0  0  0  0  0  0
  140.0832   66.8974  227.4129 H   0  0  0  0  0  0  0  0  0  0  0  0
  141.1848   68.0820  229.3133 H   0  0  0  0  0  0  0  0  0  0  0  0
  141.5916   70.5266  229.1798 H   0  0  0  0  0  0  0  0  0  0  0  0
  140.9121   71.8123  227.1811 H   0  0  0  0  0  0  0  0  0  0  0  0
  1  2  2  0
  2  3  1  0
  3  4  1  0
  4  5  1  0
  5  6  2  0
  5  7  1  0
  7  8  1  0
  8  9  1  0
  9 10  1  0
 10 11  1  0
 11 12  1  0
 12 13  1  0
 13 14  1  0
 14 15  1  0
 15 16  2  0
 16 17  1  0
 17 18  2  0
 18 19  1  0
 19 20  2  0
  2 21  1  0
 21 22  2  0
 22 23  1  0
 23 24  2  0
 24 25  1  0
 25 26  2  0
 26 27  1  0
 27 28  2  0
 28 29  1  0
 29 30  2  0
 12  7  1  0
 20 15  1  0
 30 21  1  0
 29 24  1  0
  3 31  1  0
  4 32  1  0
  4 33  1  0
  8 34  1  0
  8 35  1  0
  9 36  1  0
  9 37  1  0
 10 38  1  0
 10 39  1  0
 11 40  1  0
 11 41  1  0
 12 42  1  6
 13 43  1  0
 13 44  1  0
 14 45  1  0
 14 46  1  0
 16 47  1  0
 17 48  1  0
 18 49  1  0
 19 50  1  0
 20 51  1  0
 22 52  1  0
 23 53  1  0
 25 54  1  0
 26 55  1  0
 27 56  1  0
 28 57  1  0
M  END
>  <smiles>  (95) 
O=C(NCC(=O)N1CCCCC1CCc1ccccc1)c1ccc2ccccc2n1

>  <score_type>  (95) 
oracle

>  <origin>  (95) 
autodockgpu

>  <m_score__min__energy>  (95) 
-9.4399999999999995

>  <m_primary>  (95) 
energy

>  <rmsd>  (95) 
2.575934721617101

>  <m_score__min__rmsd>  (95) 
2.575934721617101

>  <meeko>  (95) 
{"free_energy": -8.95, "intermolecular_energy": -11.04, "internal_energy": -1.9, "cluster_size": 38, "cluster_id": 1, "rank_in_cluster": 16}

>  <energy>  (95) 
-8.35

>  <cluster_rmsd>  (95) 
0.47

>  <cluster>  (95) 
3

$$$$

     RDKit          3D

 57 60  0  0  0  0  0  0  0  0999 V2000
  139.3440   71.0690  221.3400 O   0  0  0  0  0  0  0  0  0  0  0  0
  139.4910   71.8140  222.3390 C   0  0  0  0  0  0  0  0  0  0  0  0
  139.4030   73.2380  222.2750 N   0  0  0  0  0  0  0  0  0  0  0  0
  139.1270   73.9210  220.9890 C   0  0  0  0  0  0  0  0  0  0  0  0
  140.3500   73.9790  220.1730 C   0  0  0  0  0  0  0  0  0  0  0  0
  140.2900   73.3180  219.0660 O   0  0  0  0  0  0  0  0  0  0  0  0
  141.5400   74.6350  220.4220 N   0  0  0  0  0  0  0  0  0  0  0  0
  142.7730   73.8040  220.2480 C   0  0  0  0  0  0  0  0  0  0  0  0
  143.9380   74.7470  220.1230 C   0  0  0  0  0  0  0  0  0  0  0  0
  143.6830   75.9620  219.2900 C   0  0  0  0  0  0  0  0  0  0  0  0
  142.3850   76.6610  219.6090 C   0  0  0  0  0  0  0  0  0  0  0  0
  141.8020   75.9830  220.8330 C   0  0  1  0  0  0  0  0  0  0  0  0
  140.7070   76.7410  221.4690 C   0  0  0  0  0  0  0  0  0  0  0  0
  141.0300   77.2240  222.8710 C   0  0  0  0  0  0  0  0  0  0  0  0
  141.2370   78.6660  222.9820 C   0  0  0  0  0  0  0  0  0  0  0  0
  142.5640   79.1230  223.0280 C   0  0  0  0  0  0  0  0  0  0  0  0
  142.8610   80.4650  223.1330 C   0  0  0  0  0  0  0  0  0  0  0  0
  141.8580   81.4160  223.1980 C   0  0  0  0  0  0  0  0  0  0  0  0
  140.5420   80.9850  223.1540 C   0  0  0  0  0  0  0  0  0  0  0  0
  140.2710   79.6240  223.0470 C   0  0  0  0  0  0  0  0  0  0  0  0
  139.7690   71.1890  223.6490 C   0  0  0  0  0  0  0  0  0  0  0  0
  139.5120   69.8500  223.8530 C   0  0  0  0  0  0  0  0  0  0  0  0
  139.7590   69.2240  225.0680 C   0  0  0  0  0  0  0  0  0  0  0  0
  140.2740   69.9940  226.0750 C   0  0  0  0  0  0  0  0  0  0  0  0
  140.5280   69.3960  227.2910 C   0  0  0  0  0  0  0  0  0  0  0  0
  141.0490   70.1650  228.3190 C   0  0  0  0  0  0  0  0  0  0  0  0
  141.3070   71.5140  228.1120 C   0  0  0  0  0  0  0  0  0  0  0  0
  141.0520   72.1070  226.8960 C   0  0  0  0  0  0  0  0  0  0  0  0
  140.5300   71.3450  225.8620 C   0  0  0  0  0  0  0  0  0  0  0  0
  140.2730   71.8970  224.6690 N   0  0  0  0  0  0  0  0  0  0  0  0
  139.5390   73.7620  223.1550 H   0  0  0  0  0  0  0  0  0  0  0  0
  138.3508   73.3659  220.4418 H   0  0  0  0  0  0  0  0  0  0  0  0
  138.7821   74.9454  221.1929 H   0  0  0  0  0  0  0  0  0  0  0  0
  142.9113   73.1494  221.1211 H   0  0  0  0  0  0  0  0  0  0  0  0
  142.6900   73.1691  219.3536 H   0  0  0  0  0  0  0  0  0  0  0  0
  144.2177   75.0791  221.1337 H   0  0  0  0  0  0  0  0  0  0  0  0
  144.7334   74.1856  219.6110 H   0  0  0  0  0  0  0  0  0  0  0  0
  144.5075   76.6720  219.4518 H   0  0  0  0  0  0  0  0  0  0  0  0
  143.6151   75.6241  218.2454 H   0  0  0  0  0  0  0  0  0  0  0  0
  142.5711   77.7245  219.8196 H   0  0  0  0  0  0  0  0  0  0  0  0
  141.6889   76.6005  218.7594 H   0  0  0  0  0  0  0  0  0  0  0  0
  142.4964   75.9567  221.6857 H   0  0  0  0  0  0  0  0  0  0  0  0
  140.4829   77.6175  220.8433 H   0  0  0  0  0  0  0  0  0  0  0  0
  139.8511   76.0555  221.5556 H   0  0  0  0  0  0  0  0  0  0  0  0
  140.1958   76.9448  223.5314 H   0  0  0  0  0  0  0  0  0  0  0  0
  141.9806   76.7486  223.1546 H   0  0  0  0  0  0  0  0  0  0  0  0
  143.3855   78.3932  222.9791 H   0  0  0  0  0  0  0  0  0  0  0  0
  143.9128   80.7852  223.1656 H   0  0  0  0  0  0  0  0  0  0  0  0
  142.0991   82.4859  223.2824 H   0  0  0  0  0  0  0  0  0  0  0  0
  139.7183   81.7123  223.2032 H   0  0  0  0  0  0  0  0  0  0  0  0
  139.2190   79.3045  223.0131 H   0  0  0  0  0  0  0  0  0  0  0  0
  139.0969   69.2568  223.0248 H   0  0  0  0  0  0  0  0  0  0  0  0
  139.5494   68.1541  225.2145 H   0  0  0  0  0  0  0  0  0  0  0  0
  140.3205   68.3264  227.4425 H   0  0  0  0  0  0  0  0  0  0  0  0
  141.2580   69.7079  229.2975 H   0  0  0  0  0  0  0  0  0  0  0  0
  141.7216   72.1180  228.9325 H   0  0  0  0  0  0  0  0  0  0  0  0
  141.2607   73.1766  226.7460 H   0  0  0  0  0  0  0  0  0  0  0  0
  1  2  2  0
  2  3  1  0
  3  4  1  0
  4  5  1  0
  5  6  2  0
  5  7  1  0
  7  8  1  0
  8  9  1  0
  9 10  1  0
 10 11  1  0
 11 12  1  0
 12 13  1  0
 13 14  1  0
 14 15  1  0
 15 16  2  0
 16 17  1  0
 17 18  2  0
 18 19  1  0
 19 20  2  0
  2 21  1  0
 21 22  2  0
 22 23  1  0
 23 24  2  0
 24 25  1  0
 25 26  2  0
 26 27  1  0
 27 28  2  0
 28 29  1  0
 29 30  2  0
 12  7  1  0
 20 15  1  0
 30 21  1  0
 29 24  1  0
  3 31  1  0
  4 32  1  0
  4 33  1  0
  8 34  1  0
  8 35  1  0
  9 36  1  0
  9 37  1  0
 10 38  1  0
 10 39  1  0
 11 40  1  0
 11 41  1  0
 12 42  1  1
 13 43  1  0
 13 44  1  0
 14 45  1  0
 14 46  1  0
 16 47  1  0
 17 48  1  0
 18 49  1  0
 19 50  1  0
 20 51  1  0
 22 52  1  0
 23 53  1  0
 25 54  1  0
 26 55  1  0
 27 56  1  0
 28 57  1  0
M  END
>  <smiles>  (96) 
O=C(NCC(=O)N1CCCCC1CCc1ccccc1)c1ccc2ccccc2n1

>  <score_type>  (96) 
oracle

>  <origin>  (96) 
autodockgpu

>  <m_score__min__energy>  (96) 
-9.4399999999999995

>  <m_primary>  (96) 
energy

>  <rmsd>  (96) 
2.4248404618652626

>  <m_score__min__rmsd>  (96) 
2.4248404618652626

>  <meeko>  (96) 
{"free_energy": -9.2, "intermolecular_energy": -11.29, "internal_energy": -1.8, "cluster_size": 38, "cluster_id": 1, "rank_in_cluster": 6}

>  <energy>  (96) 
-8.26

>  <cluster_rmsd>  (96) 
0.5

>  <cluster>  (96) 
3

$$$$

     RDKit          3D

 57 60  0  0  0  0  0  0  0  0999 V2000
  140.9470   74.7150  221.2820 O   0  0  0  0  0  0  0  0  0  0  0  0
  139.9760   75.1800  221.9260 C   0  0  0  0  0  0  0  0  0  0  0  0
  138.8270   74.4090  222.2790 N   0  0  0  0  0  0  0  0  0  0  0  0
  138.7260   72.9830  221.8890 C   0  0  0  0  0  0  0  0  0  0  0  0
  137.7890   72.2790  222.7770 C   0  0  0  0  0  0  0  0  0  0  0  0
  136.5990   72.7780  222.8090 O   0  0  0  0  0  0  0  0  0  0  0  0
  138.0000   71.1690  223.5730 N   0  0  0  0  0  0  0  0  0  0  0  0
  136.7810   70.3490  223.8570 C   0  0  0  0  0  0  0  0  0  0  0  0
  137.2460   69.0000  224.3340 C   0  0  0  0  0  0  0  0  0  0  0  0
  138.4200   68.4380  223.5980 C   0  0  0  0  0  0  0  0  0  0  0  0
  139.5470   69.4200  223.4030 C   0  0  0  0  0  0  0  0  0  0  0  0
  139.1930   70.6680  224.1890 C   0  0  1  0  0  0  0  0  0  0  0  0
  140.3250   71.5980  224.3710 C   0  0  0  0  0  0  0  0  0  0  0  0
  141.3770   71.0980  225.3440 C   0  0  0  0  0  0  0  0  0  0  0  0
  140.8570   70.2540  226.4180 C   0  0  0  0  0  0  0  0  0  0  0  0
  141.1550   68.8840  226.3600 C   0  0  0  0  0  0  0  0  0  0  0  0
  140.7090   68.0070  227.3260 C   0  0  0  0  0  0  0  0  0  0  0  0
  139.9470   68.4480  228.3940 C   0  0  0  0  0  0  0  0  0  0  0  0
  139.6430   69.7970  228.4690 C   0  0  0  0  0  0  0  0  0  0  0  0
  140.1060   70.6600  227.4800 C   0  0  0  0  0  0  0  0  0  0  0  0
  140.0220   76.5970  222.3420 C   0  0  0  0  0  0  0  0  0  0  0  0
  138.8560   77.3070  222.5350 C   0  0  0  0  0  0  0  0  0  0  0  0
  138.8550   78.6400  222.9260 C   0  0  0  0  0  0  0  0  0  0  0  0
  140.0710   79.2370  223.1150 C   0  0  0  0  0  0  0  0  0  0  0  0
  140.0970   80.5610  223.5040 C   0  0  0  0  0  0  0  0  0  0  0  0
  141.3230   81.1760  223.6980 C   0  0  0  0  0  0  0  0  0  0  0  0
  142.4970   80.4600  223.5030 C   0  0  0  0  0  0  0  0  0  0  0  0
  142.4660   79.1390  223.1150 C   0  0  0  0  0  0  0  0  0  0  0  0
  141.2440   78.5150  222.9180 C   0  0  0  0  0  0  0  0  0  0  0  0
  141.1870   77.2310  222.5410 N   0  0  0  0  0  0  0  0  0  0  0  0
  138.0810   74.8850  222.8120 H   0  0  0  0  0  0  0  0  0  0  0  0
  138.3651   72.9145  220.8522 H   0  0  0  0  0  0  0  0  0  0  0  0
  139.7188   72.5168  221.9725 H   0  0  0  0  0  0  0  0  0  0  0  0
  136.1746   70.8345  224.6358 H   0  0  0  0  0  0  0  0  0  0  0  0
  136.1618   70.2487  222.9534 H   0  0  0  0  0  0  0  0  0  0  0  0
  137.5201   69.0896  225.3955 H   0  0  0  0  0  0  0  0  0  0  0  0
  136.4110   68.3067  224.1547 H   0  0  0  0  0  0  0  0  0  0  0  0
  138.8047   67.5777  224.1654 H   0  0  0  0  0  0  0  0  0  0  0  0
  138.0638   68.1583  222.5956 H   0  0  0  0  0  0  0  0  0  0  0  0
  140.4888   68.9927  223.7778 H   0  0  0  0  0  0  0  0  0  0  0  0
  139.6817   69.6543  222.3367 H   0  0  0  0  0  0  0  0  0  0  0  0
  138.9775   70.4666  225.2487 H   0  0  0  0  0  0  0  0  0  0  0  0
  140.8040   71.7571  223.3936 H   0  0  0  0  0  0  0  0  0  0  0  0
  139.9128   72.5263  224.7934 H   0  0  0  0  0  0  0  0  0  0  0  0
  142.1192   70.5157  224.7782 H   0  0  0  0  0  0  0  0  0  0  0  0
  141.8059   71.9889  225.8260 H   0  0  0  0  0  0  0  0  0  0  0  0
  141.7587   68.5007  225.5242 H   0  0  0  0  0  0  0  0  0  0  0  0
  140.9629   66.9397  227.2466 H   0  0  0  0  0  0  0  0  0  0  0  0
  139.5923   67.7457  229.1627 H   0  0  0  0  0  0  0  0  0  0  0  0
  139.0401   70.1836  229.3039 H   0  0  0  0  0  0  0  0  0  0  0  0
  139.8520   71.7273  227.5600 H   0  0  0  0  0  0  0  0  0  0  0  0
  137.8930   76.8003  222.3738 H   0  0  0  0  0  0  0  0  0  0  0  0
  137.9157   79.1922  223.0772 H   0  0  0  0  0  0  0  0  0  0  0  0
  139.1609   81.1179  223.6572 H   0  0  0  0  0  0  0  0  0  0  0  0
  141.3667   82.2310  224.0064 H   0  0  0  0  0  0  0  0  0  0  0  0
  143.4663   80.9556  223.6609 H   0  0  0  0  0  0  0  0  0  0  0  0
  143.4032   78.5836  222.9627 H   0  0  0  0  0  0  0  0  0  0  0  0
  1  2  2  0
  2  3  1  0
  3  4  1  0
  4  5  1  0
  5  6  2  0
  5  7  1  0
  7  8  1  0
  8  9  1  0
  9 10  1  0
 10 11  1  0
 11 12  1  0
 12 13  1  0
 13 14  1  0
 14 15  1  0
 15 16  2  0
 16 17  1  0
 17 18  2  0
 18 19  1  0
 19 20  2  0
  2 21  1  0
 21 22  2  0
 22 23  1  0
 23 24  2  0
 24 25  1  0
 25 26  2  0
 26 27  1  0
 27 28  2  0
 28 29  1  0
 29 30  2  0
 12  7  1  0
 20 15  1  0
 30 21  1  0
 29 24  1  0
  3 31  1  0
  4 32  1  0
  4 33  1  0
  8 34  1  0
  8 35  1  0
  9 36  1  0
  9 37  1  0
 10 38  1  0
 10 39  1  0
 11 40  1  0
 11 41  1  0
 12 42  1  1
 13 43  1  0
 13 44  1  0
 14 45  1  0
 14 46  1  0
 16 47  1  0
 17 48  1  0
 18 49  1  0
 19 50  1  0
 20 51  1  0
 22 52  1  0
 23 53  1  0
 25 54  1  0
 26 55  1  0
 27 56  1  0
 28 57  1  0
M  END
>  <smiles>  (97) 
O=C(NCC(=O)N1CCCCC1CCc1ccccc1)c1ccc2ccccc2n1

>  <score_type>  (97) 
oracle

>  <origin>  (97) 
autodockgpu

>  <m_score__min__energy>  (97) 
-9.4399999999999995

>  <m_primary>  (97) 
energy

>  <rmsd>  (97) 
8.27944139610336

>  <m_score__min__rmsd>  (97) 
8.27944139610336

>  <meeko>  (97) 
{"free_energy": -8.87, "intermolecular_energy": -10.96, "internal_energy": -1.88, "cluster_size": 4, "cluster_id": 2, "rank_in_cluster": 1}

>  <energy>  (97) 
-8.17

>  <cluster_rmsd>  (97) 
0.35

>  <cluster>  (97) 
3

$$$$

     RDKit          3D

 57 60  0  0  0  0  0  0  0  0999 V2000
  138.0340   71.9050  222.7200 O   0  0  0  0  0  0  0  0  0  0  0  0
  139.2140   71.6540  223.0650 C   0  0  0  0  0  0  0  0  0  0  0  0
  140.3540   72.2880  222.4850 N   0  0  0  0  0  0  0  0  0  0  0  0
  140.1910   73.3020  221.4170 C   0  0  0  0  0  0  0  0  0  0  0  0
  141.4860   73.9300  221.1120 C   0  0  0  0  0  0  0  0  0  0  0  0
  142.5030   73.1420  221.2090 O   0  0  0  0  0  0  0  0  0  0  0  0
  141.7630   75.2330  220.7390 N   0  0  0  0  0  0  0  0  0  0  0  0
  143.0660   75.4270  220.0300 C   0  0  0  0  0  0  0  0  0  0  0  0
  143.0050   76.7570  219.3300 C   0  0  0  0  0  0  0  0  0  0  0  0
  141.6970   77.0680  218.6740 C   0  0  0  0  0  0  0  0  0  0  0  0
  140.4970   76.7990  219.5470 C   0  0  0  0  0  0  0  0  0  0  0  0
  141.0170   76.4420  220.9250 C   0  0  1  0  0  0  0  0  0  0  0  0
  139.9820   76.4660  221.9770 C   0  0  0  0  0  0  0  0  0  0  0  0
  139.6000   77.8640  222.4280 C   0  0  0  0  0  0  0  0  0  0  0  0
  140.7160   78.8060  222.4910 C   0  0  0  0  0  0  0  0  0  0  0  0
  141.4290   78.8770  223.6980 C   0  0  0  0  0  0  0  0  0  0  0  0
  142.4960   79.7350  223.8550 C   0  0  0  0  0  0  0  0  0  0  0  0
  142.9060   80.5620  222.8240 C   0  0  0  0  0  0  0  0  0  0  0  0
  142.2150   80.5060  221.6250 C   0  0  0  0  0  0  0  0  0  0  0  0
  141.1410   79.6310  221.4940 C   0  0  0  0  0  0  0  0  0  0  0  0
  139.4380   70.6500  224.1260 C   0  0  0  0  0  0  0  0  0  0  0  0
  138.9970   69.3530  223.9670 C   0  0  0  0  0  0  0  0  0  0  0  0
  139.1870   68.3800  224.9390 C   0  0  0  0  0  0  0  0  0  0  0  0
  139.8370   68.7570  226.0830 C   0  0  0  0  0  0  0  0  0  0  0  0
  140.0380   67.8080  227.0640 C   0  0  0  0  0  0  0  0  0  0  0  0
  140.6950   68.1780  228.2260 C   0  0  0  0  0  0  0  0  0  0  0  0
  141.1390   69.4850  228.3860 C   0  0  0  0  0  0  0  0  0  0  0  0
  140.9360   70.4280  227.4040 C   0  0  0  0  0  0  0  0  0  0  0  0
  140.2790   70.0670  226.2370 C   0  0  0  0  0  0  0  0  0  0  0  0
  140.0690   70.9660  225.2660 N   0  0  0  0  0  0  0  0  0  0  0  0
  141.2840   72.0110  222.8400 H   0  0  0  0  0  0  0  0  0  0  0  0
  139.8003   72.8160  220.5109 H   0  0  0  0  0  0  0  0  0  0  0  0
  139.4884   74.0757  221.7603 H   0  0  0  0  0  0  0  0  0  0  0  0
  143.8929   75.4217  220.7554 H   0  0  0  0  0  0  0  0  0  0  0  0
  143.2388   74.6159  219.3073 H   0  0  0  0  0  0  0  0  0  0  0  0
  143.2096   77.5427  220.0722 H   0  0  0  0  0  0  0  0  0  0  0  0
  143.7507   76.7133  218.5225 H   0  0  0  0  0  0  0  0  0  0  0  0
  141.6926   78.1327  218.3975 H   0  0  0  0  0  0  0  0  0  0  0  0
  141.6119   76.4048  217.8006 H   0  0  0  0  0  0  0  0  0  0  0  0
  139.8635   77.6965  219.6040 H   0  0  0  0  0  0  0  0  0  0  0  0
  139.8894   75.9801  219.1344 H   0  0  0  0  0  0  0  0  0  0  0  0
  141.6907   77.2035  221.3448 H   0  0  0  0  0  0  0  0  0  0  0  0
  139.0811   75.9685  221.5887 H   0  0  0  0  0  0  0  0  0  0  0  0
  140.4030   75.9504  222.8528 H   0  0  0  0  0  0  0  0  0  0  0  0
  138.8546   78.2609  221.7231 H   0  0  0  0  0  0  0  0  0  0  0  0
  139.2133   77.7676  223.4533 H   0  0  0  0  0  0  0  0  0  0  0  0
  141.1292   78.2330  224.5379 H   0  0  0  0  0  0  0  0  0  0  0  0
  143.0307   79.7629  224.8159 H   0  0  0  0  0  0  0  0  0  0  0  0
  143.7580   81.2456  222.9533 H   0  0  0  0  0  0  0  0  0  0  0  0
  142.5128   81.1481  220.7830 H   0  0  0  0  0  0  0  0  0  0  0  0
  140.6062   79.6041  220.5331 H   0  0  0  0  0  0  0  0  0  0  0  0
  138.4764   69.0798  223.0373 H   0  0  0  0  0  0  0  0  0  0  0  0
  138.8301   67.3494  224.7957 H   0  0  0  0  0  0  0  0  0  0  0  0
  139.6829   66.7761  226.9259 H   0  0  0  0  0  0  0  0  0  0  0  0
  140.8652   67.4377  229.0216 H   0  0  0  0  0  0  0  0  0  0  0  0
  141.6606   69.7704  229.3115 H   0  0  0  0  0  0  0  0  0  0  0  0
  141.2919   71.4594  227.5436 H   0  0  0  0  0  0  0  0  0  0  0  0
  1  2  2  0
  2  3  1  0
  3  4  1  0
  4  5  1  0
  5  6  2  0
  5  7  1  0
  7  8  1  0
  8  9  1  0
  9 10  1  0
 10 11  1  0
 11 12  1  0
 12 13  1  0
 13 14  1  0
 14 15  1  0
 15 16  2  0
 16 17  1  0
 17 18  2  0
 18 19  1  0
 19 20  2  0
  2 21  1  0
 21 22  2  0
 22 23  1  0
 23 24  2  0
 24 25  1  0
 25 26  2  0
 26 27  1  0
 27 28  2  0
 28 29  1  0
 29 30  2  0
 12  7  1  0
 20 15  1  0
 30 21  1  0
 29 24  1  0
  3 31  1  0
  4 32  1  0
  4 33  1  0
  8 34  1  0
  8 35  1  0
  9 36  1  0
  9 37  1  0
 10 38  1  0
 10 39  1  0
 11 40  1  0
 11 41  1  0
 12 42  1  1
 13 43  1  0
 13 44  1  0
 14 45  1  0
 14 46  1  0
 16 47  1  0
 17 48  1  0
 18 49  1  0
 19 50  1  0
 20 51  1  0
 22 52  1  0
 23 53  1  0
 25 54  1  0
 26 55  1  0
 27 56  1  0
 28 57  1  0
M  END
>  <smiles>  (98) 
O=C(NCC(=O)N1CCCCC1CCc1ccccc1)c1ccc2ccccc2n1

>  <score_type>  (98) 
oracle

>  <origin>  (98) 
autodockgpu

>  <m_score__min__energy>  (98) 
-9.4399999999999995

>  <m_primary>  (98) 
energy

>  <rmsd>  (98) 
2.504505731300061

>  <m_score__min__rmsd>  (98) 
2.504505731300061

>  <meeko>  (98) 
{"free_energy": -8.67, "intermolecular_energy": -10.75, "internal_energy": -2.07, "cluster_size": 38, "cluster_id": 1, "rank_in_cluster": 32}

>  <energy>  (98) 
-8.16

>  <cluster_rmsd>  (98) 
0.64

>  <cluster>  (98) 
3

$$$$

     RDKit          3D

 57 60  0  0  0  0  0  0  0  0999 V2000
  139.9320   73.6630  222.6740 O   0  0  0  0  0  0  0  0  0  0  0  0
  140.3960   72.5040  222.5530 C   0  0  0  0  0  0  0  0  0  0  0  0
  141.0650   72.0450  221.3780 N   0  0  0  0  0  0  0  0  0  0  0  0
  141.2460   72.9430  220.2130 C   0  0  0  0  0  0  0  0  0  0  0  0
  142.2660   73.9590  220.5100 C   0  0  0  0  0  0  0  0  0  0  0  0
  143.2850   73.5230  221.1710 O   0  0  0  0  0  0  0  0  0  0  0  0
  142.2880   75.3020  220.1830 N   0  0  0  0  0  0  0  0  0  0  0  0
  143.3380   75.6980  219.1910 C   0  0  0  0  0  0  0  0  0  0  0  0
  142.9480   77.0390  218.6340 C   0  0  0  0  0  0  0  0  0  0  0  0
  141.4900   77.2060  218.3470 C   0  0  0  0  0  0  0  0  0  0  0  0
  140.5890   76.7430  219.4640 C   0  0  0  0  0  0  0  0  0  0  0  0
  141.4810   76.3940  220.6400 C   0  0  1  0  0  0  0  0  0  0  0  0
  140.7510   76.2340  221.9130 C   0  0  0  0  0  0  0  0  0  0  0  0
  140.0480   77.4950  222.3780 C   0  0  0  0  0  0  0  0  0  0  0  0
  140.9150   78.6680  222.4850 C   0  0  0  0  0  0  0  0  0  0  0  0
  141.6860   78.7920  223.6510 C   0  0  0  0  0  0  0  0  0  0  0  0
  142.5320   79.8620  223.8450 C   0  0  0  0  0  0  0  0  0  0  0  0
  142.6550   80.8590  222.8920 C   0  0  0  0  0  0  0  0  0  0  0  0
  141.9020   80.7530  221.7340 C   0  0  0  0  0  0  0  0  0  0  0  0
  141.0550   79.6620  221.5650 C   0  0  0  0  0  0  0  0  0  0  0  0
  140.2440   71.5640  223.6830 C   0  0  0  0  0  0  0  0  0  0  0  0
  139.6190   70.3480  223.5030 C   0  0  0  0  0  0  0  0  0  0  0  0
  139.4550   69.4370  224.5380 C   0  0  0  0  0  0  0  0  0  0  0  0
  139.9430   69.7910  225.7660 C   0  0  0  0  0  0  0  0  0  0  0  0
  139.7930   68.9030  226.8110 C   0  0  0  0  0  0  0  0  0  0  0  0
  140.2830   69.2510  228.0590 C   0  0  0  0  0  0  0  0  0  0  0  0
  140.9120   70.4760  228.2400 C   0  0  0  0  0  0  0  0  0  0  0  0
  141.0600   71.3590  227.1950 C   0  0  0  0  0  0  0  0  0  0  0  0
  140.5720   71.0200  225.9410 C   0  0  0  0  0  0  0  0  0  0  0  0
  140.7030   71.8610  224.9080 N   0  0  0  0  0  0  0  0  0  0  0  0
  141.4110   71.0710  221.3790 H   0  0  0  0  0  0  0  0  0  0  0  0
  141.5658   72.3502  219.3433 H   0  0  0  0  0  0  0  0  0  0  0  0
  140.2919   73.4449  219.9945 H   0  0  0  0  0  0  0  0  0  0  0  0
  144.3171   75.7675  219.6875 H   0  0  0  0  0  0  0  0  0  0  0  0
  143.4141   74.9510  218.3872 H   0  0  0  0  0  0  0  0  0  0  0  0
  143.2426   77.8093  219.3619 H   0  0  0  0  0  0  0  0  0  0  0  0
  143.4635   77.1311  217.6667 H   0  0  0  0  0  0  0  0  0  0  0  0
  141.2934   78.2726  218.1633 H   0  0  0  0  0  0  0  0  0  0  0  0
  141.2632   76.5774  217.4733 H   0  0  0  0  0  0  0  0  0  0  0  0
  139.8920   77.5465  219.7444 H   0  0  0  0  0  0  0  0  0  0  0  0
  139.9937   75.8723  219.1518 H   0  0  0  0  0  0  0  0  0  0  0  0
  142.1479   77.2165  220.9379 H   0  0  0  0  0  0  0  0  0  0  0  0
  139.9966   75.4441  221.7833 H   0  0  0  0  0  0  0  0  0  0  0  0
  141.4972   75.9814  222.6807 H   0  0  0  0  0  0  0  0  0  0  0  0
  139.2455   77.7251  221.6618 H   0  0  0  0  0  0  0  0  0  0  0  0
  139.6736   77.2890  223.3916 H   0  0  0  0  0  0  0  0  0  0  0  0
  141.6132   78.0169  224.4281 H   0  0  0  0  0  0  0  0  0  0  0  0
  143.1197   79.9253  224.7727 H   0  0  0  0  0  0  0  0  0  0  0  0
  143.3319   81.7116  223.0500 H   0  0  0  0  0  0  0  0  0  0  0  0
  141.9731   81.5254  220.9540 H   0  0  0  0  0  0  0  0  0  0  0  0
  140.4665   79.5991  220.6378 H   0  0  0  0  0  0  0  0  0  0  0  0
  139.2369   70.0906  222.5041 H   0  0  0  0  0  0  0  0  0  0  0  0
  138.9537   68.4711  224.3772 H   0  0  0  0  0  0  0  0  0  0  0  0
  139.2930   67.9355  226.6559 H   0  0  0  0  0  0  0  0  0  0  0  0
  140.1741   68.5577  228.9060 H   0  0  0  0  0  0  0  0  0  0  0  0
  141.2980   70.7446  229.2344 H   0  0  0  0  0  0  0  0  0  0  0  0
  141.5610   72.3256  227.3524 H   0  0  0  0  0  0  0  0  0  0  0  0
  1  2  2  0
  2  3  1  0
  3  4  1  0
  4  5  1  0
  5  6  2  0
  5  7  1  0
  7  8  1  0
  8  9  1  0
  9 10  1  0
 10 11  1  0
 11 12  1  0
 12 13  1  0
 13 14  1  0
 14 15  1  0
 15 16  2  0
 16 17  1  0
 17 18  2  0
 18 19  1  0
 19 20  2  0
  2 21  1  0
 21 22  2  0
 22 23  1  0
 23 24  2  0
 24 25  1  0
 25 26  2  0
 26 27  1  0
 27 28  2  0
 28 29  1  0
 29 30  2  0
 12  7  1  0
 20 15  1  0
 30 21  1  0
 29 24  1  0
  3 31  1  0
  4 32  1  0
  4 33  1  0
  8 34  1  0
  8 35  1  0
  9 36  1  0
  9 37  1  0
 10 38  1  0
 10 39  1  0
 11 40  1  0
 11 41  1  0
 12 42  1  1
 13 43  1  0
 13 44  1  0
 14 45  1  0
 14 46  1  0
 16 47  1  0
 17 48  1  0
 18 49  1  0
 19 50  1  0
 20 51  1  0
 22 52  1  0
 23 53  1  0
 25 54  1  0
 26 55  1  0
 27 56  1  0
 28 57  1  0
M  END
>  <smiles>  (99) 
O=C(NCC(=O)N1CCCCC1CCc1ccccc1)c1ccc2ccccc2n1

>  <score_type>  (99) 
oracle

>  <origin>  (99) 
autodockgpu

>  <m_score__min__energy>  (99) 
-9.4399999999999995

>  <m_primary>  (99) 
energy

>  <rmsd>  (99) 
2.724200443227694

>  <m_score__min__rmsd>  (99) 
2.724200443227694

>  <meeko>  (99) 
{"free_energy": -9.14, "intermolecular_energy": -11.23, "internal_energy": -1.78, "cluster_size": 38, "cluster_id": 1, "rank_in_cluster": 7}

>  <energy>  (99) 
-8.12

>  <cluster_rmsd>  (99) 
0.68

>  <cluster>  (99) 
3

$$$$

     RDKit          3D

 57 60  0  0  0  0  0  0  0  0999 V2000
  137.0390   76.9190  222.2640 O   0  0  0  0  0  0  0  0  0  0  0  0
  138.2750   76.7820  222.4300 C   0  0  0  0  0  0  0  0  0  0  0  0
  138.9520   75.5340  222.2860 N   0  0  0  0  0  0  0  0  0  0  0  0
  138.2050   74.3070  221.9220 C   0  0  0  0  0  0  0  0  0  0  0  0
  139.1070   73.1450  221.9230 C   0  0  0  0  0  0  0  0  0  0  0  0
  140.2940   73.3840  222.3700 O   0  0  0  0  0  0  0  0  0  0  0  0
  138.8640   71.8450  221.5180 N   0  0  0  0  0  0  0  0  0  0  0  0
  138.7840   71.6460  220.0360 C   0  0  0  0  0  0  0  0  0  0  0  0
  138.9580   70.1770  219.7690 C   0  0  0  0  0  0  0  0  0  0  0  0
  140.0030   69.5010  220.6000 C   0  0  0  0  0  0  0  0  0  0  0  0
  139.9250   69.8330  222.0680 C   0  0  0  0  0  0  0  0  0  0  0  0
  138.6630   70.6470  222.2760 C   0  0  1  0  0  0  0  0  0  0  0  0
  138.2650   70.7780  223.6910 C   0  0  0  0  0  0  0  0  0  0  0  0
  138.8370   69.6990  224.5910 C   0  0  0  0  0  0  0  0  0  0  0  0
  139.5820   70.2030  225.7430 C   0  0  0  0  0  0  0  0  0  0  0  0
  140.3770   71.3420  225.5450 C   0  0  0  0  0  0  0  0  0  0  0  0
  141.1170   71.8920  226.5700 C   0  0  0  0  0  0  0  0  0  0  0  0
  141.1030   71.3380  227.8380 C   0  0  0  0  0  0  0  0  0  0  0  0
  140.3240   70.2140  228.0530 C   0  0  0  0  0  0  0  0  0  0  0  0
  139.5870   69.6800  227.0000 C   0  0  0  0  0  0  0  0  0  0  0  0
  139.0710   77.9720  222.7950 C   0  0  0  0  0  0  0  0  0  0  0  0
  138.4520   79.1180  223.2460 C   0  0  0  0  0  0  0  0  0  0  0  0
  139.1630   80.2570  223.5980 C   0  0  0  0  0  0  0  0  0  0  0  0
  140.5250   80.2050  223.4810 C   0  0  0  0  0  0  0  0  0  0  0  0
  141.2550   81.3240  223.8250 C   0  0  0  0  0  0  0  0  0  0  0  0
  142.6350   81.2830  223.7090 C   0  0  0  0  0  0  0  0  0  0  0  0
  143.2590   80.1280  223.2540 C   0  0  0  0  0  0  0  0  0  0  0  0
  142.5270   79.0140  222.9120 C   0  0  0  0  0  0  0  0  0  0  0  0
  141.1440   79.0450  223.0240 C   0  0  0  0  0  0  0  0  0  0  0  0
  140.4090   77.9750  222.6970 N   0  0  0  0  0  0  0  0  0  0  0  0
  139.9730   75.5260  222.4440 H   0  0  0  0  0  0  0  0  0  0  0  0
  137.3990   74.1421  222.6521 H   0  0  0  0  0  0  0  0  0  0  0  0
  137.7796   74.4307  220.9151 H   0  0  0  0  0  0  0  0  0  0  0  0
  137.8050   71.9823  219.6639 H   0  0  0  0  0  0  0  0  0  0  0  0
  139.5637   72.2286  219.5235 H   0  0  0  0  0  0  0  0  0  0  0  0
  137.9958   69.6794  219.9602 H   0  0  0  0  0  0  0  0  0  0  0  0
  139.2944   70.0927  218.7251 H   0  0  0  0  0  0  0  0  0  0  0  0
  139.8873   68.4132  220.4843 H   0  0  0  0  0  0  0  0  0  0  0  0
  140.9784   69.8624  220.2423 H   0  0  0  0  0  0  0  0  0  0  0  0
  139.8793   68.9082  222.6618 H   0  0  0  0  0  0  0  0  0  0  0  0
  140.8123   70.3986  222.3885 H   0  0  0  0  0  0  0  0  0  0  0  0
  137.7582   70.1470  221.8999 H   0  0  0  0  0  0  0  0  0  0  0  0
  138.6101   71.7554  224.0591 H   0  0  0  0  0  0  0  0  0  0  0  0
  137.1702   70.6770  223.7262 H   0  0  0  0  0  0  0  0  0  0  0  0
  138.0039   69.0843  224.9627 H   0  0  0  0  0  0  0  0  0  0  0  0
  139.5528   69.1291  223.9804 H   0  0  0  0  0  0  0  0  0  0  0  0
  140.4106   71.8070  224.5487 H   0  0  0  0  0  0  0  0  0  0  0  0
  141.7285   72.7857  226.3768 H   0  0  0  0  0  0  0  0  0  0  0  0
  141.6951   71.7790  228.6534 H   0  0  0  0  0  0  0  0  0  0  0  0
  140.2878   69.7466  229.0481 H   0  0  0  0  0  0  0  0  0  0  0  0
  138.9752   68.7867  227.1940 H   0  0  0  0  0  0  0  0  0  0  0  0
  137.3553   79.1304  223.3300 H   0  0  0  0  0  0  0  0  0  0  0  0
  138.6527   81.1633  223.9560 H   0  0  0  0  0  0  0  0  0  0  0  0
  140.7503   82.2327  224.1850 H   0  0  0  0  0  0  0  0  0  0  0  0
  143.2362   82.1643  223.9770 H   0  0  0  0  0  0  0  0  0  0  0  0
  144.3552   80.1037  223.1658 H   0  0  0  0  0  0  0  0  0  0  0  0
  143.0339   78.1063  222.5528 H   0  0  0  0  0  0  0  0  0  0  0  0
  1  2  2  0
  2  3  1  0
  3  4  1  0
  4  5  1  0
  5  6  2  0
  5  7  1  0
  7  8  1  0
  8  9  1  0
  9 10  1  0
 10 11  1  0
 11 12  1  0
 12 13  1  0
 13 14  1  0
 14 15  1  0
 15 16  2  0
 16 17  1  0
 17 18  2  0
 18 19  1  0
 19 20  2  0
  2 21  1  0
 21 22  2  0
 22 23  1  0
 23 24  2  0
 24 25  1  0
 25 26  2  0
 26 27  1  0
 27 28  2  0
 28 29  1  0
 29 30  2  0
 12  7  1  0
 20 15  1  0
 30 21  1  0
 29 24  1  0
  3 31  1  0
  4 32  1  0
  4 33  1  0
  8 34  1  0
  8 35  1  0
  9 36  1  0
  9 37  1  0
 10 38  1  0
 10 39  1  0
 11 40  1  0
 11 41  1  0
 12 42  1  6
 13 43  1  0
 13 44  1  0
 14 45  1  0
 14 46  1  0
 16 47  1  0
 17 48  1  0
 18 49  1  0
 19 50  1  0
 20 51  1  0
 22 52  1  0
 23 53  1  0
 25 54  1  0
 26 55  1  0
 27 56  1  0
 28 57  1  0
M  END
>  <smiles>  (100) 
O=C(NCC(=O)N1CCCCC1CCc1ccccc1)c1ccc2ccccc2n1

>  <score_type>  (100) 
oracle

>  <origin>  (100) 
autodockgpu

>  <m_score__min__energy>  (100) 
-9.4399999999999995

>  <m_primary>  (100) 
energy

>  <rmsd>  (100) 
8.190567706822211

>  <m_score__min__rmsd>  (100) 
8.190567706822211

>  <meeko>  (100) 
{"free_energy": -8.29, "intermolecular_energy": -10.38, "internal_energy": -2.31, "cluster_size": 4, "cluster_id": 2, "rank_in_cluster": 4}

>  <energy>  (100) 
-8.09

>  <cluster_rmsd>  (100) 
0.45

>  <cluster>  (100) 
3

$$$$
