
     RDKit          3D

 61 65  0  0  0  0  0  0  0  0999 V2000
  137.1200   78.0710  222.8360 O   0  0  0  0  0  0  0  0  0  0  0  0
  138.2530   77.5650  222.5860 C   0  0  0  0  0  0  0  0  0  0  0  0
  139.3740   78.2950  222.9170 C   0  0  0  0  0  0  0  0  0  0  0  0
  139.3090   79.5420  223.5030 C   0  0  0  0  0  0  0  0  0  0  0  0
  140.4400   80.2730  223.8360 C   0  0  0  0  0  0  0  0  0  0  0  0
  141.6760   79.6970  223.5520 C   0  0  0  0  0  0  0  0  0  0  0  0
  141.7640   78.4410  222.9610 C   0  0  0  0  0  0  0  0  0  0  0  0
  140.6060   77.7390  222.6430 C   0  0  0  0  0  0  0  0  0  0  0  0
  140.6420   76.5240  222.0710 N   0  0  0  0  0  0  0  0  0  0  0  0
  139.5600   75.8230  221.7530 C   0  0  0  0  0  0  0  0  0  0  0  0
  139.7010   74.5140  221.1270 C   0  0  0  0  0  0  0  0  0  0  0  0
  140.4180   73.5850  221.7280 C   0  0  0  0  0  0  0  0  0  0  0  0
  139.8480   72.4780  222.4860 C   0  0  0  0  0  0  0  0  0  0  0  0
  138.8930   71.6300  222.0320 C   0  0  0  0  0  0  0  0  0  0  0  0
  138.3720   70.5830  222.7840 C   0  0  0  0  0  0  0  0  0  0  0  0
  138.8470   70.3800  224.0820 C   0  0  0  0  0  0  0  0  0  0  0  0
  139.8200   71.2300  224.5670 C   0  0  0  0  0  0  0  0  0  0  0  0
  140.2930   71.0090  225.8880 N   0  0  0  0  0  0  0  0  0  0  0  0
  139.9600   69.8350  226.6760 C   0  0  0  0  0  0  0  0  0  0  0  0
  140.7340   69.9970  227.9640 C   0  0  0  0  0  0  0  0  0  0  0  0
  140.7970   71.5210  228.0760 C   0  0  0  0  0  0  0  0  0  0  0  0
  141.1620   71.8900  226.6520 C   0  0  0  0  0  0  0  0  0  0  0  0
  140.3150   72.2610  223.7870 C   0  0  0  0  0  0  0  0  0  0  0  0
  138.3420   76.3300  222.0040 N   0  0  0  0  0  0  0  0  0  0  0  0
  137.1030   75.6690  221.7200 C   0  0  0  0  0  0  0  0  0  0  0  0
  136.6770   74.6260  222.6890 C   0  0  0  0  0  0  0  0  0  0  0  0
  135.7570   73.5730  222.1810 C   0  0  0  0  0  0  0  0  0  0  0  0
  135.5960   72.4990  223.2680 C   0  0  0  0  0  0  0  0  0  0  0  0
  135.5830   73.1170  224.5820 N   0  0  0  0  0  0  0  0  0  0  0  0
  134.9420   74.4170  224.4450 C   0  0  0  0  0  0  0  0  0  0  0  0
  135.9420   75.3520  223.8130 C   0  0  0  0  0  0  0  0  0  0  0  0
  138.3200   79.9744  223.7149 H   0  0  0  0  0  0  0  0  0  0  0  0
  140.3640   81.2654  224.3044 H   0  0  0  0  0  0  0  0  0  0  0  0
  142.5976   80.2444  223.7992 H   0  0  0  0  0  0  0  0  0  0  0  0
  142.7495   78.0027  222.7450 H   0  0  0  0  0  0  0  0  0  0  0  0
  139.2143   74.3036  220.1633 H   0  0  0  0  0  0  0  0  0  0  0  0
  141.5135   73.6492  221.6528 H   0  0  0  0  0  0  0  0  0  0  0  0
  138.5089   71.7784  221.0120 H   0  0  0  0  0  0  0  0  0  0  0  0
  137.5977   69.9246  222.3634 H   0  0  0  0  0  0  0  0  0  0  0  0
  138.4545   69.5614  224.7032 H   0  0  0  0  0  0  0  0  0  0  0  0
  138.8791   69.7976  226.8764 H   0  0  0  0  0  0  0  0  0  0  0  0
  140.2158   68.9008  226.1546 H   0  0  0  0  0  0  0  0  0  0  0  0
  140.1993   69.5510  228.8156 H   0  0  0  0  0  0  0  0  0  0  0  0
  141.7157   69.5007  227.9689 H   0  0  0  0  0  0  0  0  0  0  0  0
  139.8261   71.9468  228.3693 H   0  0  0  0  0  0  0  0  0  0  0  0
  141.4954   71.8952  228.8390 H   0  0  0  0  0  0  0  0  0  0  0  0
  140.9442   72.9479  226.4434 H   0  0  0  0  0  0  0  0  0  0  0  0
  142.2311   71.7740  226.4204 H   0  0  0  0  0  0  0  0  0  0  0  0
  141.0912   72.9231  224.1983 H   0  0  0  0  0  0  0  0  0  0  0  0
  136.3147   76.4353  221.6840 H   0  0  0  0  0  0  0  0  0  0  0  0
  137.2640   75.1388  220.7697 H   0  0  0  0  0  0  0  0  0  0  0  0
  137.5957   74.0954  222.9797 H   0  0  0  0  0  0  0  0  0  0  0  0
  134.7773   74.0165  221.9498 H   0  0  0  0  0  0  0  0  0  0  0  0
  136.1686   73.1232  221.2654 H   0  0  0  0  0  0  0  0  0  0  0  0
  134.6500   71.9603  223.1099 H   0  0  0  0  0  0  0  0  0  0  0  0
  136.4409   71.7971  223.2086 H   0  0  0  0  0  0  0  0  0  0  0  0
  136.5410   73.2720  224.9180 H   0  0  0  0  0  0  0  0  0  0  0  0
  134.0517   74.3310  223.8047 H   0  0  0  0  0  0  0  0  0  0  0  0
  134.6236   74.7970  225.4270 H   0  0  0  0  0  0  0  0  0  0  0  0
  135.4172   76.2273  223.4026 H   0  0  0  0  0  0  0  0  0  0  0  0
  136.6666   75.6818  224.5721 H   0  0  0  0  0  0  0  0  0  0  0  0
  1  2  2  0
  2  3  1  0
  3  4  2  0
  4  5  1  0
  5  6  2  0
  6  7  1  0
  7  8  2  0
  8  9  1  0
  9 10  2  0
 10 11  1  0
 11 12  2  0
 12 13  1  0
 13 14  2  0
 14 15  1  0
 15 16  2  0
 16 17  1  0
 17 18  1  0
 18 19  1  0
 19 20  1  0
 20 21  1  0
 21 22  1  0
 17 23  2  0
 10 24  1  0
 24 25  1  0
 25 26  1  0
 26 27  1  0
 27 28  1  0
 28 29  1  0
 29 30  1  0
 30 31  1  0
 24  2  1  0
 31 26  1  0
  8  3  1  0
 23 13  1  0
 22 18  1  0
  4 32  1  0
  5 33  1  0
  6 34  1  0
  7 35  1  0
 11 36  1  0
 12 37  1  0
 14 38  1  0
 15 39  1  0
 16 40  1  0
 19 41  1  0
 19 42  1  0
 20 43  1  0
 20 44  1  0
 21 45  1  0
 21 46  1  0
 22 47  1  0
 22 48  1  0
 23 49  1  0
 25 50  1  0
 25 51  1  0
 26 52  1  0
 27 53  1  0
 27 54  1  0
 28 55  1  0
 28 56  1  0
 29 57  1  0
 30 58  1  0
 30 59  1  0
 31 60  1  0
 31 61  1  0
M  END
>  <smiles>  (1) 
O=c1c2ccccc2nc(/C=C/c2cccc(N3CCCC3)c2)n1CC1CCNCC1

>  <score_type>  (1) 
oracle

>  <origin>  (1) 
autodockgpu

>  <m_score__min__energy>  (1) 
-9.4900000000000002

>  <m_primary>  (1) 
energy

>  <rmsd>  (1) 
7.689333467905658

>  <m_score__min__rmsd>  (1) 
7.689333467905658

>  <meeko>  (1) 
{"free_energy": -8.3, "intermolecular_energy": -10.09, "internal_energy": -2.12, "cluster_size": 6, "cluster_id": 5, "rank_in_cluster": 2}

>  <energy>  (1) 
-9.49

>  <cluster_rmsd>  (1) 
0.0

>  <cluster>  (1) 
1

$$$$

     RDKit          3D

 61 65  0  0  0  0  0  0  0  0999 V2000
  142.1460   78.1620  219.4000 O   0  0  0  0  0  0  0  0  0  0  0  0
  141.6030   77.7420  220.4630 C   0  0  0  0  0  0  0  0  0  0  0  0
  141.6070   78.5720  221.5630 C   0  0  0  0  0  0  0  0  0  0  0  0
  142.1770   79.8290  221.5500 C   0  0  0  0  0  0  0  0  0  0  0  0
  142.1800   80.6620  222.6590 C   0  0  0  0  0  0  0  0  0  0  0  0
  141.5760   80.1790  223.8180 C   0  0  0  0  0  0  0  0  0  0  0  0
  140.9960   78.9160  223.8530 C   0  0  0  0  0  0  0  0  0  0  0  0
  141.0140   78.1110  222.7190 C   0  0  0  0  0  0  0  0  0  0  0  0
  140.4680   76.8830  222.7060 N   0  0  0  0  0  0  0  0  0  0  0  0
  140.4640   76.0850  221.6450 C   0  0  0  0  0  0  0  0  0  0  0  0
  139.8520   74.7650  221.7310 C   0  0  0  0  0  0  0  0  0  0  0  0
  140.6240   73.7010  221.8250 C   0  0  0  0  0  0  0  0  0  0  0  0
  140.2120   72.4480  222.4460 C   0  0  0  0  0  0  0  0  0  0  0  0
  139.5780   71.4320  221.8100 C   0  0  0  0  0  0  0  0  0  0  0  0
  139.2000   70.2480  222.4350 C   0  0  0  0  0  0  0  0  0  0  0  0
  139.4810   70.0810  223.7930 C   0  0  0  0  0  0  0  0  0  0  0  0
  140.1260   71.1000  224.4620 C   0  0  0  0  0  0  0  0  0  0  0  0
  140.4050   70.9130  225.8430 N   0  0  0  0  0  0  0  0  0  0  0  0
  140.0570   69.7100  226.5770 C   0  0  0  0  0  0  0  0  0  0  0  0
  140.6030   69.9300  227.9690 C   0  0  0  0  0  0  0  0  0  0  0  0
  140.5150   71.4540  228.0790 C   0  0  0  0  0  0  0  0  0  0  0  0
  141.0640   71.8620  226.7260 C   0  0  0  0  0  0  0  0  0  0  0  0
  140.4880   72.2640  223.8050 C   0  0  0  0  0  0  0  0  0  0  0  0
  141.0320   76.4990  220.5000 N   0  0  0  0  0  0  0  0  0  0  0  0
  141.0820   75.7390  219.2870 C   0  0  0  0  0  0  0  0  0  0  0  0
  142.2020   74.7700  219.1650 C   0  0  0  0  0  0  0  0  0  0  0  0
  143.4020   75.0190  220.0070 C   0  0  0  0  0  0  0  0  0  0  0  0
  144.3490   73.8150  219.8790 C   0  0  0  0  0  0  0  0  0  0  0  0
  144.3200   73.3010  218.5220 N   0  0  0  0  0  0  0  0  0  0  0  0
  144.1190   74.4350  217.6300 C   0  0  0  0  0  0  0  0  0  0  0  0
  142.6630   74.8210  217.7100 C   0  0  0  0  0  0  0  0  0  0  0  0
  142.6483   80.1848  220.6219 H   0  0  0  0  0  0  0  0  0  0  0  0
  142.6394   81.6609  222.6250 H   0  0  0  0  0  0  0  0  0  0  0  0
  141.5578   80.8076  224.7205 H   0  0  0  0  0  0  0  0  0  0  0  0
  140.5229   78.5534  224.7775 H   0  0  0  0  0  0  0  0  0  0  0  0
  138.7573   74.6580  221.7176 H   0  0  0  0  0  0  0  0  0  0  0  0
  141.6408   73.7620  221.4097 H   0  0  0  0  0  0  0  0  0  0  0  0
  139.3499   71.5506  220.7405 H   0  0  0  0  0  0  0  0  0  0  0  0
  138.6880   69.4560  221.8688 H   0  0  0  0  0  0  0  0  0  0  0  0
  139.1943   69.1574  224.3171 H   0  0  0  0  0  0  0  0  0  0  0  0
  138.9655   69.5770  226.6063 H   0  0  0  0  0  0  0  0  0  0  0  0
  140.4718   68.8053  226.1085 H   0  0  0  0  0  0  0  0  0  0  0  0
  139.9825   69.4335  228.7296 H   0  0  0  0  0  0  0  0  0  0  0  0
  141.6112   69.5209  228.1308 H   0  0  0  0  0  0  0  0  0  0  0  0
  139.4770   71.7919  228.2145 H   0  0  0  0  0  0  0  0  0  0  0  0
  141.0507   71.8828  228.9388 H   0  0  0  0  0  0  0  0  0  0  0  0
  140.7899   72.8980  226.4777 H   0  0  0  0  0  0  0  0  0  0  0  0
  142.1621   71.8413  226.6646 H   0  0  0  0  0  0  0  0  0  0  0  0
  141.0029   73.0599  224.3629 H   0  0  0  0  0  0  0  0  0  0  0  0
  140.1407   75.1758  219.2049 H   0  0  0  0  0  0  0  0  0  0  0  0
  141.2412   76.4750  218.4851 H   0  0  0  0  0  0  0  0  0  0  0  0
  141.8003   73.8055  219.5092 H   0  0  0  0  0  0  0  0  0  0  0  0
  143.9130   75.9306  219.6637 H   0  0  0  0  0  0  0  0  0  0  0  0
  143.1032   75.1522  221.0572 H   0  0  0  0  0  0  0  0  0  0  0  0
  145.3734   74.1296  220.1273 H   0  0  0  0  0  0  0  0  0  0  0  0
  144.0227   73.0246  220.5709 H   0  0  0  0  0  0  0  0  0  0  0  0
  143.5300   72.6560  218.3960 H   0  0  0  0  0  0  0  0  0  0  0  0
  144.7494   75.2788  217.9471 H   0  0  0  0  0  0  0  0  0  0  0  0
  144.3940   74.1704  216.5983 H   0  0  0  0  0  0  0  0  0  0  0  0
  142.5321   75.8410  217.3194 H   0  0  0  0  0  0  0  0  0  0  0  0
  142.0642   74.1192  217.1109 H   0  0  0  0  0  0  0  0  0  0  0  0
  1  2  2  0
  2  3  1  0
  3  4  2  0
  4  5  1  0
  5  6  2  0
  6  7  1  0
  7  8  2  0
  8  9  1  0
  9 10  2  0
 10 11  1  0
 11 12  2  0
 12 13  1  0
 13 14  2  0
 14 15  1  0
 15 16  2  0
 16 17  1  0
 17 18  1  0
 18 19  1  0
 19 20  1  0
 20 21  1  0
 21 22  1  0
 17 23  2  0
 10 24  1  0
 24 25  1  0
 25 26  1  0
 26 27  1  0
 27 28  1  0
 28 29  1  0
 29 30  1  0
 30 31  1  0
 24  2  1  0
 31 26  1  0
  8  3  1  0
 23 13  1  0
 22 18  1  0
  4 32  1  0
  5 33  1  0
  6 34  1  0
  7 35  1  0
 11 36  1  0
 12 37  1  0
 14 38  1  0
 15 39  1  0
 16 40  1  0
 19 41  1  0
 19 42  1  0
 20 43  1  0
 20 44  1  0
 21 45  1  0
 21 46  1  0
 22 47  1  0
 22 48  1  0
 23 49  1  0
 25 50  1  0
 25 51  1  0
 26 52  1  0
 27 53  1  0
 27 54  1  0
 28 55  1  0
 28 56  1  0
 29 57  1  0
 30 58  1  0
 30 59  1  0
 31 60  1  0
 31 61  1  0
M  END
>  <smiles>  (2) 
O=c1c2ccccc2nc(/C=C/c2cccc(N3CCCC3)c2)n1CC1CCNCC1

>  <score_type>  (2) 
oracle

>  <origin>  (2) 
autodockgpu

>  <m_score__min__energy>  (2) 
-9.4900000000000002

>  <m_primary>  (2) 
energy

>  <rmsd>  (2) 
7.023544946505644

>  <m_score__min__rmsd>  (2) 
7.023544946505644

>  <meeko>  (2) 
{"free_energy": -8.17, "intermolecular_energy": -9.96, "internal_energy": -1.55, "cluster_size": 28, "cluster_id": 1, "rank_in_cluster": 27}

>  <energy>  (2) 
-9.49

>  <cluster_rmsd>  (2) 
0.2

>  <cluster>  (2) 
1

$$$$

     RDKit          3D

 61 65  0  0  0  0  0  0  0  0999 V2000
  142.4530   76.8410  218.6420 O   0  0  0  0  0  0  0  0  0  0  0  0
  141.9880   76.3650  219.7170 C   0  0  0  0  0  0  0  0  0  0  0  0
  141.5220   77.2490  220.6670 C   0  0  0  0  0  0  0  0  0  0  0  0
  141.5450   78.6170  220.4910 C   0  0  0  0  0  0  0  0  0  0  0  0
  141.0740   79.5040  221.4490 C   0  0  0  0  0  0  0  0  0  0  0  0
  140.5660   78.9570  222.6260 C   0  0  0  0  0  0  0  0  0  0  0  0
  140.5340   77.5810  222.8240 C   0  0  0  0  0  0  0  0  0  0  0  0
  141.0150   76.7250  221.8380 C   0  0  0  0  0  0  0  0  0  0  0  0
  141.0050   75.3900  221.9850 N   0  0  0  0  0  0  0  0  0  0  0  0
  141.4540   74.5410  221.0680 C   0  0  0  0  0  0  0  0  0  0  0  0
  141.4080   73.1060  221.3230 C   0  0  0  0  0  0  0  0  0  0  0  0
  140.2660   72.4630  221.1850 C   0  0  0  0  0  0  0  0  0  0  0  0
  139.5170   71.8860  222.2950 C   0  0  0  0  0  0  0  0  0  0  0  0
  138.2160   71.5070  222.2460 C   0  0  0  0  0  0  0  0  0  0  0  0
  137.5320   70.9580  223.3260 C   0  0  0  0  0  0  0  0  0  0  0  0
  138.2090   70.7810  224.5360 C   0  0  0  0  0  0  0  0  0  0  0  0
  139.5330   71.1590  224.6100 C   0  0  0  0  0  0  0  0  0  0  0  0
  140.2070   70.9710  225.8470 N   0  0  0  0  0  0  0  0  0  0  0  0
  140.0530   69.7880  226.6750 C   0  0  0  0  0  0  0  0  0  0  0  0
  140.9990   69.9970  227.8350 C   0  0  0  0  0  0  0  0  0  0  0  0
  141.0020   71.5230  227.9370 C   0  0  0  0  0  0  0  0  0  0  0  0
  141.1340   71.8990  226.4740 C   0  0  0  0  0  0  0  0  0  0  0  0
  140.1810   71.7010  223.5130 C   0  0  0  0  0  0  0  0  0  0  0  0
  141.9550   75.0120  219.9140 N   0  0  0  0  0  0  0  0  0  0  0  0
  142.4580   74.2010  218.8460 C   0  0  0  0  0  0  0  0  0  0  0  0
  143.8630   73.7350  218.9800 C   0  0  0  0  0  0  0  0  0  0  0  0
  144.0670   72.2960  219.2970 C   0  0  0  0  0  0  0  0  0  0  0  0
  145.5680   71.9820  219.2010 C   0  0  0  0  0  0  0  0  0  0  0  0
  146.3450   73.1070  219.6880 N   0  0  0  0  0  0  0  0  0  0  0  0
  145.5840   73.7300  220.7630 C   0  0  0  0  0  0  0  0  0  0  0  0
  144.4770   74.5340  220.1270 C   0  0  0  0  0  0  0  0  0  0  0  0
  141.9533   79.0214  219.5530 H   0  0  0  0  0  0  0  0  0  0  0  0
  141.1005   80.5916  221.2864 H   0  0  0  0  0  0  0  0  0  0  0  0
  140.1838   79.6252  223.4118 H   0  0  0  0  0  0  0  0  0  0  0  0
  140.1285   77.1692  223.7600 H   0  0  0  0  0  0  0  0  0  0  0  0
  142.3168   72.5660  221.6273 H   0  0  0  0  0  0  0  0  0  0  0  0
  139.8529   72.3551  220.1712 H   0  0  0  0  0  0  0  0  0  0  0  0
  137.6712   71.6410  221.2999 H   0  0  0  0  0  0  0  0  0  0  0  0
  136.4754   70.6679  223.2292 H   0  0  0  0  0  0  0  0  0  0  0  0
  137.6973   70.3500  225.4092 H   0  0  0  0  0  0  0  0  0  0  0  0
  139.0166   69.6985  227.0325 H   0  0  0  0  0  0  0  0  0  0  0  0
  140.2758   68.8641  226.1212 H   0  0  0  0  0  0  0  0  0  0  0  0
  140.6182   69.5312  228.7559 H   0  0  0  0  0  0  0  0  0  0  0  0
  141.9942   69.5497  227.6951 H   0  0  0  0  0  0  0  0  0  0  0  0
  140.0651   71.9026  228.3707 H   0  0  0  0  0  0  0  0  0  0  0  0
  141.7858   71.9367  228.5885 H   0  0  0  0  0  0  0  0  0  0  0  0
  140.8355   72.9433  226.2998 H   0  0  0  0  0  0  0  0  0  0  0  0
  142.1616   71.8339  226.0869 H   0  0  0  0  0  0  0  0  0  0  0  0
  141.2382   71.9918  223.6005 H   0  0  0  0  0  0  0  0  0  0  0  0
  141.8155   73.3114  218.7691 H   0  0  0  0  0  0  0  0  0  0  0  0
  142.4463   74.8471  217.9558 H   0  0  0  0  0  0  0  0  0  0  0  0
  144.3221   73.8826  217.9914 H   0  0  0  0  0  0  0  0  0  0  0  0
  143.7088   72.0863  220.3157 H   0  0  0  0  0  0  0  0  0  0  0  0
  143.5057   71.6710  218.5868 H   0  0  0  0  0  0  0  0  0  0  0  0
  145.7935   71.0936  219.8092 H   0  0  0  0  0  0  0  0  0  0  0  0
  145.8296   71.7920  218.1496 H   0  0  0  0  0  0  0  0  0  0  0  0
  146.4730   73.8060  218.9470 H   0  0  0  0  0  0  0  0  0  0  0  0
  145.1576   72.9565  221.4186 H   0  0  0  0  0  0  0  0  0  0  0  0
  146.2321   74.3769  221.3725 H   0  0  0  0  0  0  0  0  0  0  0  0
  143.7033   74.7512  220.8781 H   0  0  0  0  0  0  0  0  0  0  0  0
  144.8859   75.4784  219.7387 H   0  0  0  0  0  0  0  0  0  0  0  0
  1  2  2  0
  2  3  1  0
  3  4  2  0
  4  5  1  0
  5  6  2  0
  6  7  1  0
  7  8  2  0
  8  9  1  0
  9 10  2  0
 10 11  1  0
 11 12  2  0
 12 13  1  0
 13 14  2  0
 14 15  1  0
 15 16  2  0
 16 17  1  0
 17 18  1  0
 18 19  1  0
 19 20  1  0
 20 21  1  0
 21 22  1  0
 17 23  2  0
 10 24  1  0
 24 25  1  0
 25 26  1  0
 26 27  1  0
 27 28  1  0
 28 29  1  0
 29 30  1  0
 30 31  1  0
 24  2  1  0
 31 26  1  0
  8  3  1  0
 23 13  1  0
 22 18  1  0
  4 32  1  0
  5 33  1  0
  6 34  1  0
  7 35  1  0
 11 36  1  0
 12 37  1  0
 14 38  1  0
 15 39  1  0
 16 40  1  0
 19 41  1  0
 19 42  1  0
 20 43  1  0
 20 44  1  0
 21 45  1  0
 21 46  1  0
 22 47  1  0
 22 48  1  0
 23 49  1  0
 25 50  1  0
 25 51  1  0
 26 52  1  0
 27 53  1  0
 27 54  1  0
 28 55  1  0
 28 56  1  0
 29 57  1  0
 30 58  1  0
 30 59  1  0
 31 60  1  0
 31 61  1  0
M  END
>  <smiles>  (3) 
O=c1c2ccccc2nc(/C=C/c2cccc(N3CCCC3)c2)n1CC1CCNCC1

>  <score_type>  (3) 
oracle

>  <origin>  (3) 
autodockgpu

>  <m_score__min__energy>  (3) 
-9.4900000000000002

>  <m_primary>  (3) 
energy

>  <rmsd>  (3) 
7.684669161968036

>  <m_score__min__rmsd>  (3) 
7.684669161968036

>  <meeko>  (3) 
{"free_energy": -9.16, "intermolecular_energy": -10.95, "internal_energy": -1.52, "cluster_size": 28, "cluster_id": 1, "rank_in_cluster": 13}

>  <energy>  (3) 
-9.48

>  <cluster_rmsd>  (3) 
0.38

>  <cluster>  (3) 
1

$$$$

     RDKit          3D

 61 65  0  0  0  0  0  0  0  0999 V2000
  142.3340   78.2380  219.3530 O   0  0  0  0  0  0  0  0  0  0  0  0
  141.7690   77.7510  220.3740 C   0  0  0  0  0  0  0  0  0  0  0  0
  141.7050   78.5290  221.5100 C   0  0  0  0  0  0  0  0  0  0  0  0
  142.2280   79.8040  221.5740 C   0  0  0  0  0  0  0  0  0  0  0  0
  142.1610   80.5860  222.7180 C   0  0  0  0  0  0  0  0  0  0  0  0
  141.5340   80.0300  223.8320 C   0  0  0  0  0  0  0  0  0  0  0  0
  141.0010   78.7460  223.7890 C   0  0  0  0  0  0  0  0  0  0  0  0
  141.0880   77.9950  222.6210 C   0  0  0  0  0  0  0  0  0  0  0  0
  140.5880   76.7510  222.5340 N   0  0  0  0  0  0  0  0  0  0  0  0
  140.6510   76.0030  221.4380 C   0  0  0  0  0  0  0  0  0  0  0  0
  140.0850   74.6590  221.4430 C   0  0  0  0  0  0  0  0  0  0  0  0
  140.8630   73.6320  221.7220 C   0  0  0  0  0  0  0  0  0  0  0  0
  140.3990   72.4120  222.3700 C   0  0  0  0  0  0  0  0  0  0  0  0
  139.7330   71.4050  221.7540 C   0  0  0  0  0  0  0  0  0  0  0  0
  139.3050   70.2520  222.4040 C   0  0  0  0  0  0  0  0  0  0  0  0
  139.5680   70.1080  223.7680 C   0  0  0  0  0  0  0  0  0  0  0  0
  140.2450   71.1190  224.4180 C   0  0  0  0  0  0  0  0  0  0  0  0
  140.5050   70.9570  225.8060 N   0  0  0  0  0  0  0  0  0  0  0  0
  140.0910   69.7940  226.5710 C   0  0  0  0  0  0  0  0  0  0  0  0
  140.6380   70.0250  227.9600 C   0  0  0  0  0  0  0  0  0  0  0  0
  140.6290   71.5530  228.0270 C   0  0  0  0  0  0  0  0  0  0  0  0
  141.2080   71.8940  226.6670 C   0  0  0  0  0  0  0  0  0  0  0  0
  140.6560   72.2520  223.7360 C   0  0  0  0  0  0  0  0  0  0  0  0
  141.2440   76.4880  220.3350 N   0  0  0  0  0  0  0  0  0  0  0  0
  141.3650   75.7870  219.0920 C   0  0  0  0  0  0  0  0  0  0  0  0
  142.6150   75.0080  218.8960 C   0  0  0  0  0  0  0  0  0  0  0  0
  142.4790   73.5290  218.8100 C   0  0  0  0  0  0  0  0  0  0  0  0
  143.8410   72.9350  218.4180 C   0  0  0  0  0  0  0  0  0  0  0  0
  144.9120   73.6830  219.0510 N   0  0  0  0  0  0  0  0  0  0  0  0
  144.4240   74.1330  220.3470 C   0  0  0  0  0  0  0  0  0  0  0  0
  143.5040   75.3030  220.1030 C   0  0  0  0  0  0  0  0  0  0  0  0
  142.7186   80.2179  220.6807 H   0  0  0  0  0  0  0  0  0  0  0  0
  142.5843   81.6009  222.7448 H   0  0  0  0  0  0  0  0  0  0  0  0
  141.4596   80.6161  224.7599 H   0  0  0  0  0  0  0  0  0  0  0  0
  140.5106   78.3242  224.6787 H   0  0  0  0  0  0  0  0  0  0  0  0
  139.0199   74.5038  221.2163 H   0  0  0  0  0  0  0  0  0  0  0  0
  141.9265   73.7001  221.4493 H   0  0  0  0  0  0  0  0  0  0  0  0
  139.5189   71.5051  220.6797 H   0  0  0  0  0  0  0  0  0  0  0  0
  138.7680   69.4662  221.8525 H   0  0  0  0  0  0  0  0  0  0  0  0
  139.2427   69.2088  224.3117 H   0  0  0  0  0  0  0  0  0  0  0  0
  138.9939   69.7176  226.5952 H   0  0  0  0  0  0  0  0  0  0  0  0
  140.4622   68.8565  226.1313 H   0  0  0  0  0  0  0  0  0  0  0  0
  139.9873   69.5831  228.7290 H   0  0  0  0  0  0  0  0  0  0  0  0
  141.6225   69.5690  228.1412 H   0  0  0  0  0  0  0  0  0  0  0  0
  139.6092   71.9481  228.1446 H   0  0  0  0  0  0  0  0  0  0  0  0
  141.1805   71.9773  228.8789 H   0  0  0  0  0  0  0  0  0  0  0  0
  140.9909   72.9357  226.3882 H   0  0  0  0  0  0  0  0  0  0  0  0
  142.3038   71.8139  226.6146 H   0  0  0  0  0  0  0  0  0  0  0  0
  141.1954   73.0420  224.2791 H   0  0  0  0  0  0  0  0  0  0  0  0
  140.5190   75.0879  219.0174 H   0  0  0  0  0  0  0  0  0  0  0  0
  141.3793   76.5660  218.3155 H   0  0  0  0  0  0  0  0  0  0  0  0
  143.0117   75.3210  217.9189 H   0  0  0  0  0  0  0  0  0  0  0  0
  142.1664   73.1280  219.7854 H   0  0  0  0  0  0  0  0  0  0  0  0
  141.7219   73.2637  218.0574 H   0  0  0  0  0  0  0  0  0  0  0  0
  143.8878   71.8856  218.7444 H   0  0  0  0  0  0  0  0  0  0  0  0
  143.9581   72.9927  217.3258 H   0  0  0  0  0  0  0  0  0  0  0  0
  145.1490   74.5150  218.4970 H   0  0  0  0  0  0  0  0  0  0  0  0
  143.8744   73.3203  220.8443 H   0  0  0  0  0  0  0  0  0  0  0  0
  145.2620   74.4275  220.9959 H   0  0  0  0  0  0  0  0  0  0  0  0
  142.8751   75.4664  220.9906 H   0  0  0  0  0  0  0  0  0  0  0  0
  144.1019   76.2052  219.9065 H   0  0  0  0  0  0  0  0  0  0  0  0
  1  2  2  0
  2  3  1  0
  3  4  2  0
  4  5  1  0
  5  6  2  0
  6  7  1  0
  7  8  2  0
  8  9  1  0
  9 10  2  0
 10 11  1  0
 11 12  2  0
 12 13  1  0
 13 14  2  0
 14 15  1  0
 15 16  2  0
 16 17  1  0
 17 18  1  0
 18 19  1  0
 19 20  1  0
 20 21  1  0
 21 22  1  0
 17 23  2  0
 10 24  1  0
 24 25  1  0
 25 26  1  0
 26 27  1  0
 27 28  1  0
 28 29  1  0
 29 30  1  0
 30 31  1  0
 24  2  1  0
 31 26  1  0
  8  3  1  0
 23 13  1  0
 22 18  1  0
  4 32  1  0
  5 33  1  0
  6 34  1  0
  7 35  1  0
 11 36  1  0
 12 37  1  0
 14 38  1  0
 15 39  1  0
 16 40  1  0
 19 41  1  0
 19 42  1  0
 20 43  1  0
 20 44  1  0
 21 45  1  0
 21 46  1  0
 22 47  1  0
 22 48  1  0
 23 49  1  0
 25 50  1  0
 25 51  1  0
 26 52  1  0
 27 53  1  0
 27 54  1  0
 28 55  1  0
 28 56  1  0
 29 57  1  0
 30 58  1  0
 30 59  1  0
 31 60  1  0
 31 61  1  0
M  END
>  <smiles>  (4) 
O=c1c2ccccc2nc(/C=C/c2cccc(N3CCCC3)c2)n1CC1CCNCC1

>  <score_type>  (4) 
oracle

>  <origin>  (4) 
autodockgpu

>  <m_score__min__energy>  (4) 
-9.4900000000000002

>  <m_primary>  (4) 
energy

>  <rmsd>  (4) 
7.33080795578022

>  <m_score__min__rmsd>  (4) 
7.33080795578022

>  <meeko>  (4) 
{"free_energy": -8.76, "intermolecular_energy": -10.55, "internal_energy": -1.58, "cluster_size": 28, "cluster_id": 1, "rank_in_cluster": 23}

>  <energy>  (4) 
-9.38

>  <cluster_rmsd>  (4) 
0.2

>  <cluster>  (4) 
1

$$$$

     RDKit          3D

 61 65  0  0  0  0  0  0  0  0999 V2000
  143.2020   76.3570  219.7780 O   0  0  0  0  0  0  0  0  0  0  0  0
  142.7510   75.2810  220.2670 C   0  0  0  0  0  0  0  0  0  0  0  0
  143.5430   74.1550  220.1950 C   0  0  0  0  0  0  0  0  0  0  0  0
  144.7960   74.1580  219.6150 C   0  0  0  0  0  0  0  0  0  0  0  0
  145.5910   73.0240  219.5450 C   0  0  0  0  0  0  0  0  0  0  0  0
  145.0740   71.8500  220.0890 C   0  0  0  0  0  0  0  0  0  0  0  0
  143.8140   71.8250  220.6770 C   0  0  0  0  0  0  0  0  0  0  0  0
  143.0480   72.9850  220.7290 C   0  0  0  0  0  0  0  0  0  0  0  0
  141.8250   73.0080  221.2860 N   0  0  0  0  0  0  0  0  0  0  0  0
  141.0640   74.0940  221.3540 C   0  0  0  0  0  0  0  0  0  0  0  0
  139.7460   74.0180  221.9730 C   0  0  0  0  0  0  0  0  0  0  0  0
  139.0070   72.9420  221.7890 C   0  0  0  0  0  0  0  0  0  0  0  0
  139.1250   71.7280  222.5870 C   0  0  0  0  0  0  0  0  0  0  0  0
  138.7270   70.4930  222.1930 C   0  0  0  0  0  0  0  0  0  0  0  0
  138.8550   69.3540  222.9810 C   0  0  0  0  0  0  0  0  0  0  0  0
  139.4230   69.4710  224.2520 C   0  0  0  0  0  0  0  0  0  0  0  0
  139.8360   70.7170  224.6760 C   0  0  0  0  0  0  0  0  0  0  0  0
  140.4120   70.8200  225.9710 N   0  0  0  0  0  0  0  0  0  0  0  0
  140.2170   69.8320  227.0170 C   0  0  0  0  0  0  0  0  0  0  0  0
  141.0620   70.3160  228.1730 C   0  0  0  0  0  0  0  0  0  0  0  0
  141.0260   71.8280  227.9490 C   0  0  0  0  0  0  0  0  0  0  0  0
  141.2670   71.8930  226.4530 C   0  0  0  0  0  0  0  0  0  0  0  0
  139.6930   71.8290  223.8620 C   0  0  0  0  0  0  0  0  0  0  0  0
  141.5110   75.2530  220.8460 N   0  0  0  0  0  0  0  0  0  0  0  0
  140.7920   76.4920  220.8680 C   0  0  0  0  0  0  0  0  0  0  0  0
  141.4770   77.6380  221.5220 C   0  0  0  0  0  0  0  0  0  0  0  0
  140.8800   78.1440  222.7870 C   0  0  0  0  0  0  0  0  0  0  0  0
  141.8330   79.1860  223.3950 C   0  0  0  0  0  0  0  0  0  0  0  0
  142.4520   79.9690  222.3410 N   0  0  0  0  0  0  0  0  0  0  0  0
  141.4780   80.1030  221.2660 C   0  0  0  0  0  0  0  0  0  0  0  0
  141.4420   78.7920  220.5220 C   0  0  0  0  0  0  0  0  0  0  0  0
  145.1791   75.0980  219.1913 H   0  0  0  0  0  0  0  0  0  0  0  0
  146.5874   73.0501  219.0798 H   0  0  0  0  0  0  0  0  0  0  0  0
  145.6724   70.9277  220.0528 H   0  0  0  0  0  0  0  0  0  0  0  0
  143.4232   70.8882  221.1009 H   0  0  0  0  0  0  0  0  0  0  0  0
  139.3721   74.8503  222.5874 H   0  0  0  0  0  0  0  0  0  0  0  0
  138.2564   72.9615  220.9851 H   0  0  0  0  0  0  0  0  0  0  0  0
  138.2779   70.3860  221.1946 H   0  0  0  0  0  0  0  0  0  0  0  0
  138.5143   68.3764  222.6093 H   0  0  0  0  0  0  0  0  0  0  0  0
  139.5383   68.5896  224.8999 H   0  0  0  0  0  0  0  0  0  0  0  0
  139.1573   69.7802  227.3075 H   0  0  0  0  0  0  0  0  0  0  0  0
  140.5031   68.8214  226.6901 H   0  0  0  0  0  0  0  0  0  0  0  0
  140.6179   70.0405  229.1409 H   0  0  0  0  0  0  0  0  0  0  0  0
  142.0743   69.8867  228.2052 H   0  0  0  0  0  0  0  0  0  0  0  0
  140.0499   72.2556  228.2218 H   0  0  0  0  0  0  0  0  0  0  0  0
  141.7466   72.3978  228.5540 H   0  0  0  0  0  0  0  0  0  0  0  0
  140.9620   72.8656  226.0394 H   0  0  0  0  0  0  0  0  0  0  0  0
  142.3233   71.7863  226.1653 H   0  0  0  0  0  0  0  0  0  0  0  0
  140.0325   72.8103  224.2250 H   0  0  0  0  0  0  0  0  0  0  0  0
  140.5823   76.7767  219.8264 H   0  0  0  0  0  0  0  0  0  0  0  0
  139.8949   76.3005  221.4751 H   0  0  0  0  0  0  0  0  0  0  0  0
  142.4766   77.2711  221.7978 H   0  0  0  0  0  0  0  0  0  0  0  0
  139.9061   78.6102  222.5770 H   0  0  0  0  0  0  0  0  0  0  0  0
  140.7318   77.3128  223.4921 H   0  0  0  0  0  0  0  0  0  0  0  0
  141.2657   79.8542  224.0596 H   0  0  0  0  0  0  0  0  0  0  0  0
  142.6168   78.6676  223.9668 H   0  0  0  0  0  0  0  0  0  0  0  0
  143.2730   79.4810  221.9630 H   0  0  0  0  0  0  0  0  0  0  0  0
  140.4851   80.3251  221.6842 H   0  0  0  0  0  0  0  0  0  0  0  0
  141.7570   80.9248  220.5902 H   0  0  0  0  0  0  0  0  0  0  0  0
  140.5189   78.7335  219.9267 H   0  0  0  0  0  0  0  0  0  0  0  0
  142.3137   78.7252  219.8544 H   0  0  0  0  0  0  0  0  0  0  0  0
  1  2  2  0
  2  3  1  0
  3  4  2  0
  4  5  1  0
  5  6  2  0
  6  7  1  0
  7  8  2  0
  8  9  1  0
  9 10  2  0
 10 11  1  0
 11 12  2  0
 12 13  1  0
 13 14  2  0
 14 15  1  0
 15 16  2  0
 16 17  1  0
 17 18  1  0
 18 19  1  0
 19 20  1  0
 20 21  1  0
 21 22  1  0
 17 23  2  0
 10 24  1  0
 24 25  1  0
 25 26  1  0
 26 27  1  0
 27 28  1  0
 28 29  1  0
 29 30  1  0
 30 31  1  0
 24  2  1  0
 31 26  1  0
  8  3  1  0
 23 13  1  0
 22 18  1  0
  4 32  1  0
  5 33  1  0
  6 34  1  0
  7 35  1  0
 11 36  1  0
 12 37  1  0
 14 38  1  0
 15 39  1  0
 16 40  1  0
 19 41  1  0
 19 42  1  0
 20 43  1  0
 20 44  1  0
 21 45  1  0
 21 46  1  0
 22 47  1  0
 22 48  1  0
 23 49  1  0
 25 50  1  0
 25 51  1  0
 26 52  1  0
 27 53  1  0
 27 54  1  0
 28 55  1  0
 28 56  1  0
 29 57  1  0
 30 58  1  0
 30 59  1  0
 31 60  1  0
 31 61  1  0
M  END
>  <smiles>  (5) 
O=c1c2ccccc2nc(/C=C/c2cccc(N3CCCC3)c2)n1CC1CCNCC1

>  <score_type>  (5) 
oracle

>  <origin>  (5) 
autodockgpu

>  <m_score__min__energy>  (5) 
-9.4900000000000002

>  <m_primary>  (5) 
energy

>  <rmsd>  (5) 
4.694340363483466

>  <m_score__min__rmsd>  (5) 
4.694340363483466

>  <meeko>  (5) 
{"free_energy": -8.86, "intermolecular_energy": -10.65, "internal_energy": -1.48, "cluster_size": 5, "cluster_id": 2, "rank_in_cluster": 2}

>  <energy>  (5) 
-9.33

>  <cluster_rmsd>  (5) 
0.39

>  <cluster>  (5) 
1

$$$$

     RDKit          3D

 61 65  0  0  0  0  0  0  0  0999 V2000
  141.0240   71.4600  224.5020 O   0  0  0  0  0  0  0  0  0  0  0  0
  140.2210   70.5050  224.7120 C   0  0  0  0  0  0  0  0  0  0  0  0
  140.2270   69.9180  225.9590 C   0  0  0  0  0  0  0  0  0  0  0  0
  141.0660   70.3270  226.9750 C   0  0  0  0  0  0  0  0  0  0  0  0
  141.0690   69.7350  228.2300 C   0  0  0  0  0  0  0  0  0  0  0  0
  140.1770   68.6850  228.4390 C   0  0  0  0  0  0  0  0  0  0  0  0
  139.3240   68.2560  227.4280 C   0  0  0  0  0  0  0  0  0  0  0  0
  139.3510   68.8770  226.1840 C   0  0  0  0  0  0  0  0  0  0  0  0
  138.5450   68.4960  225.1780 N   0  0  0  0  0  0  0  0  0  0  0  0
  138.5420   69.0640  223.9780 C   0  0  0  0  0  0  0  0  0  0  0  0
  137.6340   68.5750  222.9460 C   0  0  0  0  0  0  0  0  0  0  0  0
  136.4280   69.0970  222.8480 C   0  0  0  0  0  0  0  0  0  0  0  0
  135.6900   69.6610  223.9720 C   0  0  0  0  0  0  0  0  0  0  0  0
  135.1650   68.9490  224.9990 C   0  0  0  0  0  0  0  0  0  0  0  0
  134.4670   69.5210  226.0570 C   0  0  0  0  0  0  0  0  0  0  0  0
  134.2870   70.9060  226.0770 C   0  0  0  0  0  0  0  0  0  0  0  0
  134.8130   71.6540  225.0440 C   0  0  0  0  0  0  0  0  0  0  0  0
  134.6220   73.0610  225.0800 N   0  0  0  0  0  0  0  0  0  0  0  0
  135.4530   74.0040  224.3530 C   0  0  0  0  0  0  0  0  0  0  0  0
  134.8420   75.3590  224.6310 C   0  0  0  0  0  0  0  0  0  0  0  0
  134.2470   75.1300  226.0210 C   0  0  0  0  0  0  0  0  0  0  0  0
  133.5970   73.7740  225.8260 C   0  0  0  0  0  0  0  0  0  0  0  0
  135.5030   71.0480  224.0080 C   0  0  0  0  0  0  0  0  0  0  0  0
  139.3800   70.0800  223.7200 N   0  0  0  0  0  0  0  0  0  0  0  0
  139.4630   70.7800  222.4730 C   0  0  0  0  0  0  0  0  0  0  0  0
  139.2190   72.2450  222.5240 C   0  0  0  0  0  0  0  0  0  0  0  0
  138.1540   72.7800  221.6330 C   0  0  0  0  0  0  0  0  0  0  0  0
  137.9300   74.2620  221.9740 C   0  0  0  0  0  0  0  0  0  0  0  0
  139.1940   74.8930  222.3100 N   0  0  0  0  0  0  0  0  0  0  0  0
  140.2250   74.2640  221.4970 C   0  0  0  0  0  0  0  0  0  0  0  0
  140.5250   72.9180  222.1080 C   0  0  0  0  0  0  0  0  0  0  0  0
  141.7616   71.1570  226.7822 H   0  0  0  0  0  0  0  0  0  0  0  0
  141.7462   70.0796  229.0254 H   0  0  0  0  0  0  0  0  0  0  0  0
  140.1471   68.1874  229.4196 H   0  0  0  0  0  0  0  0  0  0  0  0
  138.6274   67.4249  227.6124 H   0  0  0  0  0  0  0  0  0  0  0  0
  137.9527   67.7790  222.2570 H   0  0  0  0  0  0  0  0  0  0  0  0
  135.9488   69.1079  221.8579 H   0  0  0  0  0  0  0  0  0  0  0  0
  135.2986   67.8571  224.9953 H   0  0  0  0  0  0  0  0  0  0  0  0
  134.0632   68.8931  226.8649 H   0  0  0  0  0  0  0  0  0  0  0  0
  133.7379   71.3897  226.8983 H   0  0  0  0  0  0  0  0  0  0  0  0
  136.4904   73.9656  224.7168 H   0  0  0  0  0  0  0  0  0  0  0  0
  135.4883   73.7795  223.2767 H   0  0  0  0  0  0  0  0  0  0  0  0
  135.6048   76.1514  224.6435 H   0  0  0  0  0  0  0  0  0  0  0  0
  134.1153   75.6928  223.8756 H   0  0  0  0  0  0  0  0  0  0  0  0
  135.0270   75.0983  226.7960 H   0  0  0  0  0  0  0  0  0  0  0  0
  133.5624   75.9208  226.3615 H   0  0  0  0  0  0  0  0  0  0  0  0
  133.3900   73.2861  226.7899 H   0  0  0  0  0  0  0  0  0  0  0  0
  132.6219   73.8147  225.3185 H   0  0  0  0  0  0  0  0  0  0  0  0
  135.9124   71.6685  223.1972 H   0  0  0  0  0  0  0  0  0  0  0  0
  140.4728   70.6222  222.0664 H   0  0  0  0  0  0  0  0  0  0  0  0
  138.6542   70.3689  221.8510 H   0  0  0  0  0  0  0  0  0  0  0  0
  138.8755   72.4548  223.5477 H   0  0  0  0  0  0  0  0  0  0  0  0
  138.4665   72.6843  220.5827 H   0  0  0  0  0  0  0  0  0  0  0  0
  137.2217   72.2150  221.7795 H   0  0  0  0  0  0  0  0  0  0  0  0
  137.4880   74.7724  221.1056 H   0  0  0  0  0  0  0  0  0  0  0  0
  137.2508   74.3345  222.8362 H   0  0  0  0  0  0  0  0  0  0  0  0
  139.4280   74.7310  223.2970 H   0  0  0  0  0  0  0  0  0  0  0  0
  139.8644   74.1364  220.4656 H   0  0  0  0  0  0  0  0  0  0  0  0
  141.1308   74.8876  221.4689 H   0  0  0  0  0  0  0  0  0  0  0  0
  141.0434   72.2878  221.3703 H   0  0  0  0  0  0  0  0  0  0  0  0
  141.1663   73.0514  222.9917 H   0  0  0  0  0  0  0  0  0  0  0  0
  1  2  2  0
  2  3  1  0
  3  4  2  0
  4  5  1  0
  5  6  2  0
  6  7  1  0
  7  8  2  0
  8  9  1  0
  9 10  2  0
 10 11  1  0
 11 12  2  0
 12 13  1  0
 13 14  2  0
 14 15  1  0
 15 16  2  0
 16 17  1  0
 17 18  1  0
 18 19  1  0
 19 20  1  0
 20 21  1  0
 21 22  1  0
 17 23  2  0
 10 24  1  0
 24 25  1  0
 25 26  1  0
 26 27  1  0
 27 28  1  0
 28 29  1  0
 29 30  1  0
 30 31  1  0
 24  2  1  0
 31 26  1  0
  8  3  1  0
 23 13  1  0
 22 18  1  0
  4 32  1  0
  5 33  1  0
  6 34  1  0
  7 35  1  0
 11 36  1  0
 12 37  1  0
 14 38  1  0
 15 39  1  0
 16 40  1  0
 19 41  1  0
 19 42  1  0
 20 43  1  0
 20 44  1  0
 21 45  1  0
 21 46  1  0
 22 47  1  0
 22 48  1  0
 23 49  1  0
 25 50  1  0
 25 51  1  0
 26 52  1  0
 27 53  1  0
 27 54  1  0
 28 55  1  0
 28 56  1  0
 29 57  1  0
 30 58  1  0
 30 59  1  0
 31 60  1  0
 31 61  1  0
M  END
>  <smiles>  (6) 
O=c1c2ccccc2nc(/C=C/c2cccc(N3CCCC3)c2)n1CC1CCNCC1

>  <score_type>  (6) 
oracle

>  <origin>  (6) 
autodockgpu

>  <m_score__min__energy>  (6) 
-9.4900000000000002

>  <m_primary>  (6) 
energy

>  <rmsd>  (6) 
9.654722608974101

>  <m_score__min__rmsd>  (6) 
9.654722608974101

>  <meeko>  (6) 
{"free_energy": -7.95, "intermolecular_energy": -9.74, "internal_energy": -2.24, "cluster_size": 6, "cluster_id": 7, "rank_in_cluster": 2}

>  <energy>  (6) 
-9.3

>  <cluster_rmsd>  (6) 
0.76

>  <cluster>  (6) 
1

$$$$

     RDKit          3D

 61 65  0  0  0  0  0  0  0  0999 V2000
  142.5970   76.7710  218.7270 O   0  0  0  0  0  0  0  0  0  0  0  0
  142.0450   76.4220  219.8110 C   0  0  0  0  0  0  0  0  0  0  0  0
  141.6630   77.4120  220.6900 C   0  0  0  0  0  0  0  0  0  0  0  0
  141.8580   78.7540  220.4360 C   0  0  0  0  0  0  0  0  0  0  0  0
  141.4720   79.7490  221.3230 C   0  0  0  0  0  0  0  0  0  0  0  0
  140.8660   79.3420  222.5100 C   0  0  0  0  0  0  0  0  0  0  0  0
  140.6610   77.9940  222.7860 C   0  0  0  0  0  0  0  0  0  0  0  0
  141.0620   77.0280  221.8700 C   0  0  0  0  0  0  0  0  0  0  0  0
  140.8850   75.7150  222.0940 N   0  0  0  0  0  0  0  0  0  0  0  0
  141.2540   74.7630  221.2450 C   0  0  0  0  0  0  0  0  0  0  0  0
  141.0250   73.3620  221.5810 C   0  0  0  0  0  0  0  0  0  0  0  0
  139.9510   73.0300  222.2680 C   0  0  0  0  0  0  0  0  0  0  0  0
  139.7020   71.6950  222.7970 C   0  0  0  0  0  0  0  0  0  0  0  0
  139.1540   70.6690  222.1010 C   0  0  0  0  0  0  0  0  0  0  0  0
  138.9310   69.4050  222.6380 C   0  0  0  0  0  0  0  0  0  0  0  0
  139.2860   69.1630  223.9670 C   0  0  0  0  0  0  0  0  0  0  0  0
  139.8460   70.1910  224.6960 C   0  0  0  0  0  0  0  0  0  0  0  0
  140.2020   69.9280  226.0460 N   0  0  0  0  0  0  0  0  0  0  0  0
  140.1830   68.6020  226.6390 C   0  0  0  0  0  0  0  0  0  0  0  0
  140.6970   68.7960  228.0470 C   0  0  0  0  0  0  0  0  0  0  0  0
  140.2400   70.2280  228.3300 C   0  0  0  0  0  0  0  0  0  0  0  0
  140.6320   70.9070  227.0320 C   0  0  0  0  0  0  0  0  0  0  0  0
  140.0530   71.4360  224.1270 C   0  0  0  0  0  0  0  0  0  0  0  0
  141.8420   75.0970  220.0850 N   0  0  0  0  0  0  0  0  0  0  0  0
  142.2730   74.1670  219.0850 C   0  0  0  0  0  0  0  0  0  0  0  0
  143.6990   73.7520  219.1440 C   0  0  0  0  0  0  0  0  0  0  0  0
  143.9700   72.3150  219.4190 C   0  0  0  0  0  0  0  0  0  0  0  0
  145.4760   72.0600  219.2480 C   0  0  0  0  0  0  0  0  0  0  0  0
  146.2320   73.2040  219.7250 N   0  0  0  0  0  0  0  0  0  0  0  0
  145.4990   73.7740  220.8470 C   0  0  0  0  0  0  0  0  0  0  0  0
  144.3360   74.5490  220.2800 C   0  0  0  0  0  0  0  0  0  0  0  0
  142.3393   79.0474  219.4914 H   0  0  0  0  0  0  0  0  0  0  0  0
  141.6373   80.8131  221.0988 H   0  0  0  0  0  0  0  0  0  0  0  0
  140.5445   80.0989  223.2406 H   0  0  0  0  0  0  0  0  0  0  0  0
  140.1816   77.6924  223.7290 H   0  0  0  0  0  0  0  0  0  0  0  0
  141.7420   72.5904  221.2639 H   0  0  0  0  0  0  0  0  0  0  0  0
  139.1960   73.8081  222.4537 H   0  0  0  0  0  0  0  0  0  0  0  0
  138.8698   70.8456  221.0531 H   0  0  0  0  0  0  0  0  0  0  0  0
  138.4823   68.6090  222.0257 H   0  0  0  0  0  0  0  0  0  0  0  0
  139.1226   68.1749  224.4219 H   0  0  0  0  0  0  0  0  0  0  0  0
  139.1594   68.1994  226.6531 H   0  0  0  0  0  0  0  0  0  0  0  0
  140.7951   67.8863  226.0706 H   0  0  0  0  0  0  0  0  0  0  0  0
  140.2397   68.0804  228.7461 H   0  0  0  0  0  0  0  0  0  0  0  0
  141.7791   68.6346  228.1609 H   0  0  0  0  0  0  0  0  0  0  0  0
  139.1551   70.2808  228.5040 H   0  0  0  0  0  0  0  0  0  0  0  0
  140.6786   70.6784  229.2327 H   0  0  0  0  0  0  0  0  0  0  0  0
  140.1039   71.8634  226.9043 H   0  0  0  0  0  0  0  0  0  0  0  0
  141.6991   71.1663  226.9681 H   0  0  0  0  0  0  0  0  0  0  0  0
  140.5021   72.2374  224.7320 H   0  0  0  0  0  0  0  0  0  0  0  0
  141.6560   73.2614  219.1810 H   0  0  0  0  0  0  0  0  0  0  0  0
  142.1597   74.6935  218.1259 H   0  0  0  0  0  0  0  0  0  0  0  0
  144.1060   73.9380  218.1391 H   0  0  0  0  0  0  0  0  0  0  0  0
  143.6670   72.0708  220.4479 H   0  0  0  0  0  0  0  0  0  0  0  0
  143.3998   71.6842  218.7212 H   0  0  0  0  0  0  0  0  0  0  0  0
  145.7621   71.1683  219.8252 H   0  0  0  0  0  0  0  0  0  0  0  0
  145.6960   71.9016  218.1819 H   0  0  0  0  0  0  0  0  0  0  0  0
  146.3010   73.9220  218.9950 H   0  0  0  0  0  0  0  0  0  0  0  0
  145.1315   72.9709  221.5028 H   0  0  0  0  0  0  0  0  0  0  0  0
  146.1500   74.4312  221.4421 H   0  0  0  0  0  0  0  0  0  0  0  0
  143.5903   74.7216  221.0700 H   0  0  0  0  0  0  0  0  0  0  0  0
  144.6924   75.5158  219.8949 H   0  0  0  0  0  0  0  0  0  0  0  0
  1  2  2  0
  2  3  1  0
  3  4  2  0
  4  5  1  0
  5  6  2  0
  6  7  1  0
  7  8  2  0
  8  9  1  0
  9 10  2  0
 10 11  1  0
 11 12  2  0
 12 13  1  0
 13 14  2  0
 14 15  1  0
 15 16  2  0
 16 17  1  0
 17 18  1  0
 18 19  1  0
 19 20  1  0
 20 21  1  0
 21 22  1  0
 17 23  2  0
 10 24  1  0
 24 25  1  0
 25 26  1  0
 26 27  1  0
 27 28  1  0
 28 29  1  0
 29 30  1  0
 30 31  1  0
 24  2  1  0
 31 26  1  0
  8  3  1  0
 23 13  1  0
 22 18  1  0
  4 32  1  0
  5 33  1  0
  6 34  1  0
  7 35  1  0
 11 36  1  0
 12 37  1  0
 14 38  1  0
 15 39  1  0
 16 40  1  0
 19 41  1  0
 19 42  1  0
 20 43  1  0
 20 44  1  0
 21 45  1  0
 21 46  1  0
 22 47  1  0
 22 48  1  0
 23 49  1  0
 25 50  1  0
 25 51  1  0
 26 52  1  0
 27 53  1  0
 27 54  1  0
 28 55  1  0
 28 56  1  0
 29 57  1  0
 30 58  1  0
 30 59  1  0
 31 60  1  0
 31 61  1  0
M  END
>  <smiles>  (7) 
O=c1c2ccccc2nc(/C=C/c2cccc(N3CCCC3)c2)n1CC1CCNCC1

>  <score_type>  (7) 
oracle

>  <origin>  (7) 
autodockgpu

>  <m_score__min__energy>  (7) 
-9.4900000000000002

>  <m_primary>  (7) 
energy

>  <rmsd>  (7) 
7.673067007912677

>  <m_score__min__rmsd>  (7) 
7.673067007912677

>  <meeko>  (7) 
{"free_energy": -9.29, "intermolecular_energy": -11.08, "internal_energy": -1.33, "cluster_size": 28, "cluster_id": 1, "rank_in_cluster": 8}

>  <energy>  (7) 
-9.29

>  <cluster_rmsd>  (7) 
0.21

>  <cluster>  (7) 
1

$$$$

     RDKit          3D

 61 65  0  0  0  0  0  0  0  0999 V2000
  141.0360   71.4870  224.5420 O   0  0  0  0  0  0  0  0  0  0  0  0
  140.3250   70.4530  224.6990 C   0  0  0  0  0  0  0  0  0  0  0  0
  140.3200   69.8540  225.9400 C   0  0  0  0  0  0  0  0  0  0  0  0
  141.0540   70.3340  227.0050 C   0  0  0  0  0  0  0  0  0  0  0  0
  141.0460   69.7290  228.2540 C   0  0  0  0  0  0  0  0  0  0  0  0
  140.2560   68.5910  228.4040 C   0  0  0  0  0  0  0  0  0  0  0  0
  139.5090   68.0910  227.3430 C   0  0  0  0  0  0  0  0  0  0  0  0
  139.5430   68.7270  226.1070 C   0  0  0  0  0  0  0  0  0  0  0  0
  138.8390   68.2790  225.0540 N   0  0  0  0  0  0  0  0  0  0  0  0
  138.8450   68.8580  223.8590 C   0  0  0  0  0  0  0  0  0  0  0  0
  138.0520   68.2930  222.7740 C   0  0  0  0  0  0  0  0  0  0  0  0
  136.7540   68.5180  222.7390 C   0  0  0  0  0  0  0  0  0  0  0  0
  136.0440   69.3490  223.7040 C   0  0  0  0  0  0  0  0  0  0  0  0
  135.5050   68.9080  224.8670 C   0  0  0  0  0  0  0  0  0  0  0  0
  134.8340   69.7310  225.7660 C   0  0  0  0  0  0  0  0  0  0  0  0
  134.6990   71.0890  225.4680 C   0  0  0  0  0  0  0  0  0  0  0  0
  135.2390   71.5620  224.2910 C   0  0  0  0  0  0  0  0  0  0  0  0
  135.0930   72.9460  224.0030 N   0  0  0  0  0  0  0  0  0  0  0  0
  134.9680   73.4780  222.6580 C   0  0  0  0  0  0  0  0  0  0  0  0
  134.7670   74.9650  222.8440 C   0  0  0  0  0  0  0  0  0  0  0  0
  135.5330   75.2020  224.1460 C   0  0  0  0  0  0  0  0  0  0  0  0
  135.0460   74.0280  224.9730 C   0  0  0  0  0  0  0  0  0  0  0  0
  135.9010   70.7120  223.4200 C   0  0  0  0  0  0  0  0  0  0  0  0
  139.5890   69.9580  223.6570 N   0  0  0  0  0  0  0  0  0  0  0  0
  139.6700   70.6790  222.4220 C   0  0  0  0  0  0  0  0  0  0  0  0
  139.3790   72.1350  222.4890 C   0  0  0  0  0  0  0  0  0  0  0  0
  138.3210   72.6520  221.5810 C   0  0  0  0  0  0  0  0  0  0  0  0
  138.0430   74.1200  221.9400 C   0  0  0  0  0  0  0  0  0  0  0  0
  139.2780   74.7830  222.3160 N   0  0  0  0  0  0  0  0  0  0  0  0
  140.3470   74.1990  221.5190 C   0  0  0  0  0  0  0  0  0  0  0  0
  140.6740   72.8540  222.1160 C   0  0  0  0  0  0  0  0  0  0  0  0
  141.6707   71.2329  226.8582 H   0  0  0  0  0  0  0  0  0  0  0  0
  141.6379   70.1306  229.0897 H   0  0  0  0  0  0  0  0  0  0  0  0
  140.2227   68.0799  229.3775 H   0  0  0  0  0  0  0  0  0  0  0  0
  138.8908   67.1918  227.4816 H   0  0  0  0  0  0  0  0  0  0  0  0
  138.5320   67.6853  221.9928 H   0  0  0  0  0  0  0  0  0  0  0  0
  136.1705   68.0502  221.9324 H   0  0  0  0  0  0  0  0  0  0  0  0
  135.6036   67.8405  225.1136 H   0  0  0  0  0  0  0  0  0  0  0  0
  134.4165   69.3189  226.6965 H   0  0  0  0  0  0  0  0  0  0  0  0
  134.1734   71.7662  226.1573 H   0  0  0  0  0  0  0  0  0  0  0  0
  135.8813   73.2807  222.0775 H   0  0  0  0  0  0  0  0  0  0  0  0
  134.1378   73.0142  222.1051 H   0  0  0  0  0  0  0  0  0  0  0  0
  135.1993   75.5385  222.0108 H   0  0  0  0  0  0  0  0  0  0  0  0
  133.7135   75.2801  222.8737 H   0  0  0  0  0  0  0  0  0  0  0  0
  136.6211   75.1643  223.9892 H   0  0  0  0  0  0  0  0  0  0  0  0
  135.3622   76.1871  224.6047 H   0  0  0  0  0  0  0  0  0  0  0  0
  135.7142   73.8326  225.8247 H   0  0  0  0  0  0  0  0  0  0  0  0
  134.0548   74.1803  225.4251 H   0  0  0  0  0  0  0  0  0  0  0  0
  136.3222   71.1160  222.4876 H   0  0  0  0  0  0  0  0  0  0  0  0
  140.6908   70.5590  222.0302 H   0  0  0  0  0  0  0  0  0  0  0  0
  138.8844   70.2522  221.7812 H   0  0  0  0  0  0  0  0  0  0  0  0
  139.0034   72.3173  223.5067 H   0  0  0  0  0  0  0  0  0  0  0  0
  138.6621   72.5837  220.5374 H   0  0  0  0  0  0  0  0  0  0  0  0
  137.4032   72.0564  221.6950 H   0  0  0  0  0  0  0  0  0  0  0  0
  137.6059   74.6311  221.0695 H   0  0  0  0  0  0  0  0  0  0  0  0
  137.3416   74.1574  222.7866 H   0  0  0  0  0  0  0  0  0  0  0  0
  139.4930   74.6130  223.3060 H   0  0  0  0  0  0  0  0  0  0  0  0
  140.0152   74.0770  220.4774 H   0  0  0  0  0  0  0  0  0  0  0  0
  141.2333   74.8504  221.5227 H   0  0  0  0  0  0  0  0  0  0  0  0
  141.2294   72.2520  221.3817 H   0  0  0  0  0  0  0  0  0  0  0  0
  141.2896   72.9923  223.0170 H   0  0  0  0  0  0  0  0  0  0  0  0
  1  2  2  0
  2  3  1  0
  3  4  2  0
  4  5  1  0
  5  6  2  0
  6  7  1  0
  7  8  2  0
  8  9  1  0
  9 10  2  0
 10 11  1  0
 11 12  2  0
 12 13  1  0
 13 14  2  0
 14 15  1  0
 15 16  2  0
 16 17  1  0
 17 18  1  0
 18 19  1  0
 19 20  1  0
 20 21  1  0
 21 22  1  0
 17 23  2  0
 10 24  1  0
 24 25  1  0
 25 26  1  0
 26 27  1  0
 27 28  1  0
 28 29  1  0
 29 30  1  0
 30 31  1  0
 24  2  1  0
 31 26  1  0
  8  3  1  0
 23 13  1  0
 22 18  1  0
  4 32  1  0
  5 33  1  0
  6 34  1  0
  7 35  1  0
 11 36  1  0
 12 37  1  0
 14 38  1  0
 15 39  1  0
 16 40  1  0
 19 41  1  0
 19 42  1  0
 20 43  1  0
 20 44  1  0
 21 45  1  0
 21 46  1  0
 22 47  1  0
 22 48  1  0
 23 49  1  0
 25 50  1  0
 25 51  1  0
 26 52  1  0
 27 53  1  0
 27 54  1  0
 28 55  1  0
 28 56  1  0
 29 57  1  0
 30 58  1  0
 30 59  1  0
 31 60  1  0
 31 61  1  0
M  END
>  <smiles>  (8) 
O=c1c2ccccc2nc(/C=C/c2cccc(N3CCCC3)c2)n1CC1CCNCC1

>  <score_type>  (8) 
oracle

>  <origin>  (8) 
autodockgpu

>  <m_score__min__energy>  (8) 
-9.4900000000000002

>  <m_primary>  (8) 
energy

>  <rmsd>  (8) 
9.70138691581064

>  <m_score__min__rmsd>  (8) 
9.70138691581064

>  <meeko>  (8) 
{"free_energy": -7.64, "intermolecular_energy": -9.43, "internal_energy": -2.47, "cluster_size": 6, "cluster_id": 7, "rank_in_cluster": 4}

>  <energy>  (8) 
-9.29

>  <cluster_rmsd>  (8) 
0.57

>  <cluster>  (8) 
1

$$$$

     RDKit          3D

 61 65  0  0  0  0  0  0  0  0999 V2000
  142.8690   77.2110  219.0730 O   0  0  0  0  0  0  0  0  0  0  0  0
  142.1470   76.7510  220.0050 C   0  0  0  0  0  0  0  0  0  0  0  0
  141.7950   77.6030  221.0300 C   0  0  0  0  0  0  0  0  0  0  0  0
  142.1970   78.9220  221.0780 C   0  0  0  0  0  0  0  0  0  0  0  0
  141.8410   79.7770  222.1110 C   0  0  0  0  0  0  0  0  0  0  0  0
  141.0460   79.2500  223.1260 C   0  0  0  0  0  0  0  0  0  0  0  0
  140.6300   77.9230  223.0980 C   0  0  0  0  0  0  0  0  0  0  0  0
  141.0080   77.0980  222.0430 C   0  0  0  0  0  0  0  0  0  0  0  0
  140.6310   75.8100  221.9740 N   0  0  0  0  0  0  0  0  0  0  0  0
  140.9710   74.9920  220.9850 C   0  0  0  0  0  0  0  0  0  0  0  0
  140.5190   73.6060  221.0010 C   0  0  0  0  0  0  0  0  0  0  0  0
  141.1480   72.7310  221.7600 C   0  0  0  0  0  0  0  0  0  0  0  0
  140.4750   71.7320  222.5810 C   0  0  0  0  0  0  0  0  0  0  0  0
  139.6270   70.7810  222.1170 C   0  0  0  0  0  0  0  0  0  0  0  0
  139.0020   69.8420  222.9310 C   0  0  0  0  0  0  0  0  0  0  0  0
  139.2510   69.8660  224.3050 C   0  0  0  0  0  0  0  0  0  0  0  0
  140.1100   70.8240  224.8020 C   0  0  0  0  0  0  0  0  0  0  0  0
  140.3530   70.8340  226.2020 N   0  0  0  0  0  0  0  0  0  0  0  0
  141.0760   71.8920  226.8840 C   0  0  0  0  0  0  0  0  0  0  0  0
  141.0260   71.5190  228.3480 C   0  0  0  0  0  0  0  0  0  0  0  0
  140.9620   69.9930  228.2580 C   0  0  0  0  0  0  0  0  0  0  0  0
  139.9320   69.8220  227.1580 C   0  0  0  0  0  0  0  0  0  0  0  0
  140.7150   71.7420  223.9600 C   0  0  0  0  0  0  0  0  0  0  0  0
  141.7370   75.4460  219.9790 N   0  0  0  0  0  0  0  0  0  0  0  0
  142.1590   74.6680  218.8530 C   0  0  0  0  0  0  0  0  0  0  0  0
  143.5530   74.1550  218.8950 C   0  0  0  0  0  0  0  0  0  0  0  0
  143.7400   72.6980  218.6590 C   0  0  0  0  0  0  0  0  0  0  0  0
  145.2460   72.4090  218.5530 C   0  0  0  0  0  0  0  0  0  0  0  0
  145.9810   73.2500  219.4790 N   0  0  0  0  0  0  0  0  0  0  0  0
  145.1440   73.4390  220.6560 C   0  0  0  0  0  0  0  0  0  0  0  0
  144.0820   74.4480  220.2970 C   0  0  0  0  0  0  0  0  0  0  0  0
  142.8256   79.3117  220.2638 H   0  0  0  0  0  0  0  0  0  0  0  0
  142.1723   80.8258  222.1277 H   0  0  0  0  0  0  0  0  0  0  0  0
  140.7419   79.8943  223.9641 H   0  0  0  0  0  0  0  0  0  0  0  0
  140.0025   77.5259  223.9095 H   0  0  0  0  0  0  0  0  0  0  0  0
  139.6620   73.2938  220.3861 H   0  0  0  0  0  0  0  0  0  0  0  0
  142.2476   72.7561  221.7748 H   0  0  0  0  0  0  0  0  0  0  0  0
  139.4219   70.7504  221.0367 H   0  0  0  0  0  0  0  0  0  0  0  0
  138.3224   69.0925  222.4993 H   0  0  0  0  0  0  0  0  0  0  0  0
  138.7728   69.1372  224.9759 H   0  0  0  0  0  0  0  0  0  0  0  0
  142.1172   71.9379  226.5320 H   0  0  0  0  0  0  0  0  0  0  0  0
  140.6357   72.8820  226.6945 H   0  0  0  0  0  0  0  0  0  0  0  0
  141.9274   71.8548  228.8815 H   0  0  0  0  0  0  0  0  0  0  0  0
  140.1943   71.9759  228.9044 H   0  0  0  0  0  0  0  0  0  0  0  0
  141.9336   69.5621  227.9746 H   0  0  0  0  0  0  0  0  0  0  0  0
  140.7105   69.4890  229.2028 H   0  0  0  0  0  0  0  0  0  0  0  0
  139.9759   68.8137  226.7204 H   0  0  0  0  0  0  0  0  0  0  0  0
  138.8919   69.9334  227.4982 H   0  0  0  0  0  0  0  0  0  0  0  0
  141.3975   72.4938  224.3831 H   0  0  0  0  0  0  0  0  0  0  0  0
  141.4852   73.8023  218.7718 H   0  0  0  0  0  0  0  0  0  0  0  0
  142.1231   75.3523  217.9925 H   0  0  0  0  0  0  0  0  0  0  0  0
  144.0795   74.6547  218.0685 H   0  0  0  0  0  0  0  0  0  0  0  0
  143.3112   72.1286  219.4968 H   0  0  0  0  0  0  0  0  0  0  0  0
  143.2332   72.3992  217.7296 H   0  0  0  0  0  0  0  0  0  0  0  0
  145.4317   71.3522  218.7952 H   0  0  0  0  0  0  0  0  0  0  0  0
  145.5825   72.6224  217.5277 H   0  0  0  0  0  0  0  0  0  0  0  0
  146.1590   74.1730  219.0670 H   0  0  0  0  0  0  0  0  0  0  0  0
  144.6756   72.4855  220.9413 H   0  0  0  0  0  0  0  0  0  0  0  0
  145.7445   73.7933  221.5068 H   0  0  0  0  0  0  0  0  0  0  0  0
  143.2563   74.3843  221.0210 H   0  0  0  0  0  0  0  0  0  0  0  0
  144.5145   75.4591  220.3213 H   0  0  0  0  0  0  0  0  0  0  0  0
  1  2  2  0
  2  3  1  0
  3  4  2  0
  4  5  1  0
  5  6  2  0
  6  7  1  0
  7  8  2  0
  8  9  1  0
  9 10  2  0
 10 11  1  0
 11 12  2  0
 12 13  1  0
 13 14  2  0
 14 15  1  0
 15 16  2  0
 16 17  1  0
 17 18  1  0
 18 19  1  0
 19 20  1  0
 20 21  1  0
 21 22  1  0
 17 23  2  0
 10 24  1  0
 24 25  1  0
 25 26  1  0
 26 27  1  0
 27 28  1  0
 28 29  1  0
 29 30  1  0
 30 31  1  0
 24  2  1  0
 31 26  1  0
  8  3  1  0
 23 13  1  0
 22 18  1  0
  4 32  1  0
  5 33  1  0
  6 34  1  0
  7 35  1  0
 11 36  1  0
 12 37  1  0
 14 38  1  0
 15 39  1  0
 16 40  1  0
 19 41  1  0
 19 42  1  0
 20 43  1  0
 20 44  1  0
 21 45  1  0
 21 46  1  0
 22 47  1  0
 22 48  1  0
 23 49  1  0
 25 50  1  0
 25 51  1  0
 26 52  1  0
 27 53  1  0
 27 54  1  0
 28 55  1  0
 28 56  1  0
 29 57  1  0
 30 58  1  0
 30 59  1  0
 31 60  1  0
 31 61  1  0
M  END
>  <smiles>  (9) 
O=c1c2ccccc2nc(/C=C/c2cccc(N3CCCC3)c2)n1CC1CCNCC1

>  <score_type>  (9) 
oracle

>  <origin>  (9) 
autodockgpu

>  <m_score__min__energy>  (9) 
-9.4900000000000002

>  <m_primary>  (9) 
energy

>  <rmsd>  (9) 
7.744413312064313

>  <m_score__min__rmsd>  (9) 
7.744413312064313

>  <meeko>  (9) 
{"free_energy": -9.22, "intermolecular_energy": -11.01, "internal_energy": -1.49, "cluster_size": 28, "cluster_id": 1, "rank_in_cluster": 12}

>  <energy>  (9) 
-9.28

>  <cluster_rmsd>  (9) 
0.35

>  <cluster>  (9) 
1

$$$$

     RDKit          3D

 61 65  0  0  0  0  0  0  0  0999 V2000
  142.5160   76.7310  218.6070 O   0  0  0  0  0  0  0  0  0  0  0  0
  142.0450   76.3470  219.7160 C   0  0  0  0  0  0  0  0  0  0  0  0
  141.6410   77.3120  220.6150 C   0  0  0  0  0  0  0  0  0  0  0  0
  141.7320   78.6630  220.3530 C   0  0  0  0  0  0  0  0  0  0  0  0
  141.3240   79.6310  221.2600 C   0  0  0  0  0  0  0  0  0  0  0  0
  140.8080   79.1870  222.4750 C   0  0  0  0  0  0  0  0  0  0  0  0
  140.7080   77.8290  222.7590 C   0  0  0  0  0  0  0  0  0  0  0  0
  141.1270   76.8900  221.8230 C   0  0  0  0  0  0  0  0  0  0  0  0
  141.0510   75.5680  222.0540 N   0  0  0  0  0  0  0  0  0  0  0  0
  141.4400   74.6410  221.1870 C   0  0  0  0  0  0  0  0  0  0  0  0
  141.3240   73.2300  221.5310 C   0  0  0  0  0  0  0  0  0  0  0  0
  140.2050   72.5890  221.2590 C   0  0  0  0  0  0  0  0  0  0  0  0
  139.3800   71.9260  222.2630 C   0  0  0  0  0  0  0  0  0  0  0  0
  138.0700   71.6130  222.1140 C   0  0  0  0  0  0  0  0  0  0  0  0
  137.3130   70.9790  223.0940 C   0  0  0  0  0  0  0  0  0  0  0  0
  137.9220   70.6400  224.3050 C   0  0  0  0  0  0  0  0  0  0  0  0
  139.2550   70.9480  224.4800 C   0  0  0  0  0  0  0  0  0  0  0  0
  139.8590   70.5960  225.7170 N   0  0  0  0  0  0  0  0  0  0  0  0
  140.7350   71.4820  226.4650 C   0  0  0  0  0  0  0  0  0  0  0  0
  141.0740   70.7220  227.7260 C   0  0  0  0  0  0  0  0  0  0  0  0
  140.9940   69.2780  227.2270 C   0  0  0  0  0  0  0  0  0  0  0  0
  139.7100   69.3330  226.4220 C   0  0  0  0  0  0  0  0  0  0  0  0
  139.9760   71.5790  223.4810 C   0  0  0  0  0  0  0  0  0  0  0  0
  141.9450   75.0120  219.9990 N   0  0  0  0  0  0  0  0  0  0  0  0
  142.3880   74.1110  218.9770 C   0  0  0  0  0  0  0  0  0  0  0  0
  143.8050   73.6700  219.0580 C   0  0  0  0  0  0  0  0  0  0  0  0
  144.0460   72.2420  219.3980 C   0  0  0  0  0  0  0  0  0  0  0  0
  145.5470   71.9490  219.2420 C   0  0  0  0  0  0  0  0  0  0  0  0
  146.3250   73.0980  219.6680 N   0  0  0  0  0  0  0  0  0  0  0  0
  145.6030   73.7330  220.7620 C   0  0  0  0  0  0  0  0  0  0  0  0
  144.4560   74.5050  220.1590 C   0  0  0  0  0  0  0  0  0  0  0  0
  142.1446   78.9864  219.3860 H   0  0  0  0  0  0  0  0  0  0  0  0
  141.4048   80.7034  221.0290 H   0  0  0  0  0  0  0  0  0  0  0  0
  140.4741   79.9221  223.2221 H   0  0  0  0  0  0  0  0  0  0  0  0
  140.2973   77.4979  223.7243 H   0  0  0  0  0  0  0  0  0  0  0  0
  142.1619   72.7050  222.0129 H   0  0  0  0  0  0  0  0  0  0  0  0
  139.8729   72.5516  220.2110 H   0  0  0  0  0  0  0  0  0  0  0  0
  137.5779   71.8747  221.1657 H   0  0  0  0  0  0  0  0  0  0  0  0
  136.2519   70.7483  222.9183 H   0  0  0  0  0  0  0  0  0  0  0  0
  137.3513   70.1389  225.1007 H   0  0  0  0  0  0  0  0  0  0  0  0
  141.6461   71.7018  225.8891 H   0  0  0  0  0  0  0  0  0  0  0  0
  140.2582   72.4495  226.6808 H   0  0  0  0  0  0  0  0  0  0  0  0
  142.0830   70.9691  228.0877 H   0  0  0  0  0  0  0  0  0  0  0  0
  140.4167   70.9438  228.5797 H   0  0  0  0  0  0  0  0  0  0  0  0
  141.8573   69.0179  226.5968 H   0  0  0  0  0  0  0  0  0  0  0  0
  141.0038   68.5177  228.0219 H   0  0  0  0  0  0  0  0  0  0  0  0
  139.6395   68.4882  225.7210 H   0  0  0  0  0  0  0  0  0  0  0  0
  138.7970   69.2666  227.0319 H   0  0  0  0  0  0  0  0  0  0  0  0
  141.0380   71.8123  223.6476 H   0  0  0  0  0  0  0  0  0  0  0  0
  141.7542   73.2132  219.0238 H   0  0  0  0  0  0  0  0  0  0  0  0
  142.3089   74.6736  218.0351 H   0  0  0  0  0  0  0  0  0  0  0  0
  144.2176   73.8017  218.0469 H   0  0  0  0  0  0  0  0  0  0  0  0
  143.7367   72.0506  220.4361 H   0  0  0  0  0  0  0  0  0  0  0  0
  143.4640   71.5921  218.7281 H   0  0  0  0  0  0  0  0  0  0  0  0
  145.8143   71.0790  219.8598 H   0  0  0  0  0  0  0  0  0  0  0  0
  145.7652   71.7376  218.1848 H   0  0  0  0  0  0  0  0  0  0  0  0
  146.4100   73.7810  218.9070 H   0  0  0  0  0  0  0  0  0  0  0  0
  145.2190   72.9680  221.4529 H   0  0  0  0  0  0  0  0  0  0  0  0
  146.2670   74.4033  221.3275 H   0  0  0  0  0  0  0  0  0  0  0  0
  143.7129   74.7270  220.9390 H   0  0  0  0  0  0  0  0  0  0  0  0
  144.8313   75.4468  219.7323 H   0  0  0  0  0  0  0  0  0  0  0  0
  1  2  2  0
  2  3  1  0
  3  4  2  0
  4  5  1  0
  5  6  2  0
  6  7  1  0
  7  8  2  0
  8  9  1  0
  9 10  2  0
 10 11  1  0
 11 12  2  0
 12 13  1  0
 13 14  2  0
 14 15  1  0
 15 16  2  0
 16 17  1  0
 17 18  1  0
 18 19  1  0
 19 20  1  0
 20 21  1  0
 21 22  1  0
 17 23  2  0
 10 24  1  0
 24 25  1  0
 25 26  1  0
 26 27  1  0
 27 28  1  0
 28 29  1  0
 29 30  1  0
 30 31  1  0
 24  2  1  0
 31 26  1  0
  8  3  1  0
 23 13  1  0
 22 18  1  0
  4 32  1  0
  5 33  1  0
  6 34  1  0
  7 35  1  0
 11 36  1  0
 12 37  1  0
 14 38  1  0
 15 39  1  0
 16 40  1  0
 19 41  1  0
 19 42  1  0
 20 43  1  0
 20 44  1  0
 21 45  1  0
 21 46  1  0
 22 47  1  0
 22 48  1  0
 23 49  1  0
 25 50  1  0
 25 51  1  0
 26 52  1  0
 27 53  1  0
 27 54  1  0
 28 55  1  0
 28 56  1  0
 29 57  1  0
 30 58  1  0
 30 59  1  0
 31 60  1  0
 31 61  1  0
M  END
>  <smiles>  (10) 
O=c1c2ccccc2nc(/C=C/c2cccc(N3CCCC3)c2)n1CC1CCNCC1

>  <score_type>  (10) 
oracle

>  <origin>  (10) 
autodockgpu

>  <m_score__min__energy>  (10) 
-9.4900000000000002

>  <m_primary>  (10) 
energy

>  <rmsd>  (10) 
7.701125647331652

>  <m_score__min__rmsd>  (10) 
7.701125647331652

>  <meeko>  (10) 
{"free_energy": -8.91, "intermolecular_energy": -10.7, "internal_energy": -1.47, "cluster_size": 28, "cluster_id": 1, "rank_in_cluster": 20}

>  <energy>  (10) 
-9.28

>  <cluster_rmsd>  (10) 
0.54

>  <cluster>  (10) 
1

$$$$

     RDKit          3D

 61 65  0  0  0  0  0  0  0  0999 V2000
  139.4070   67.4240  225.1030 O   0  0  0  0  0  0  0  0  0  0  0  0
  139.5840   68.6680  224.9560 C   0  0  0  0  0  0  0  0  0  0  0  0
  140.0770   69.3820  226.0280 C   0  0  0  0  0  0  0  0  0  0  0  0
  140.3810   68.7970  227.2400 C   0  0  0  0  0  0  0  0  0  0  0  0
  140.8790   69.5180  228.3160 C   0  0  0  0  0  0  0  0  0  0  0  0
  141.0660   70.8860  228.1320 C   0  0  0  0  0  0  0  0  0  0  0  0
  140.7650   71.4960  226.9180 C   0  0  0  0  0  0  0  0  0  0  0  0
  140.2690   70.7370  225.8630 C   0  0  0  0  0  0  0  0  0  0  0  0
  139.9640   71.2820  224.6730 N   0  0  0  0  0  0  0  0  0  0  0  0
  139.4890   70.5920  223.6430 C   0  0  0  0  0  0  0  0  0  0  0  0
  139.1800   71.2750  222.3920 C   0  0  0  0  0  0  0  0  0  0  0  0
  139.1260   72.5920  222.3730 C   0  0  0  0  0  0  0  0  0  0  0  0
  140.0740   73.4360  221.6560 C   0  0  0  0  0  0  0  0  0  0  0  0
  139.7920   74.6500  221.1230 C   0  0  0  0  0  0  0  0  0  0  0  0
  140.7240   75.4300  220.4460 C   0  0  0  0  0  0  0  0  0  0  0  0
  142.0270   74.9500  220.2970 C   0  0  0  0  0  0  0  0  0  0  0  0
  142.3390   73.7170  220.8310 C   0  0  0  0  0  0  0  0  0  0  0  0
  143.6700   73.2430  220.6720 N   0  0  0  0  0  0  0  0  0  0  0  0
  144.8410   74.0980  220.7480 C   0  0  0  0  0  0  0  0  0  0  0  0
  146.0180   73.1620  220.5920 C   0  0  0  0  0  0  0  0  0  0  0  0
  145.4050   72.0660  219.7180 C   0  0  0  0  0  0  0  0  0  0  0  0
  144.0720   71.8700  220.4140 C   0  0  0  0  0  0  0  0  0  0  0  0
  141.3850   72.9690  221.5000 C   0  0  0  0  0  0  0  0  0  0  0  0
  139.2890   69.2700  223.7640 N   0  0  0  0  0  0  0  0  0  0  0  0
  138.7940   68.4160  222.7250 C   0  0  0  0  0  0  0  0  0  0  0  0
  137.3330   68.1440  222.7390 C   0  0  0  0  0  0  0  0  0  0  0  0
  136.5710   68.5060  221.5130 C   0  0  0  0  0  0  0  0  0  0  0  0
  135.1370   67.9730  221.6540 C   0  0  0  0  0  0  0  0  0  0  0  0
  134.6940   68.0940  223.0320 N   0  0  0  0  0  0  0  0  0  0  0  0
  135.3070   69.2940  223.5830 C   0  0  0  0  0  0  0  0  0  0  0  0
  136.7490   68.9690  223.8830 C   0  0  0  0  0  0  0  0  0  0  0  0
  140.2221   67.7150  227.3582 H   0  0  0  0  0  0  0  0  0  0  0  0
  141.1159   69.0302  229.2730 H   0  0  0  0  0  0  0  0  0  0  0  0
  141.4582   71.4944  228.9603 H   0  0  0  0  0  0  0  0  0  0  0  0
  140.9192   72.5779  226.7927 H   0  0  0  0  0  0  0  0  0  0  0  0
  138.9940   70.6976  221.4744 H   0  0  0  0  0  0  0  0  0  0  0  0
  138.3165   73.0840  222.9321 H   0  0  0  0  0  0  0  0  0  0  0  0
  138.7693   75.0401  221.2318 H   0  0  0  0  0  0  0  0  0  0  0  0
  140.4391   76.4095  220.0345 H   0  0  0  0  0  0  0  0  0  0  0  0
  142.7872   75.5417  219.7659 H   0  0  0  0  0  0  0  0  0  0  0  0
  144.8292   74.8430  219.9388 H   0  0  0  0  0  0  0  0  0  0  0  0
  144.8820   74.6604  221.6925 H   0  0  0  0  0  0  0  0  0  0  0  0
  146.8625   73.6552  220.0885 H   0  0  0  0  0  0  0  0  0  0  0  0
  146.4401   72.8018  221.5418 H   0  0  0  0  0  0  0  0  0  0  0  0
  145.2748   72.4011  218.6784 H   0  0  0  0  0  0  0  0  0  0  0  0
  146.0148   71.1547  219.6310 H   0  0  0  0  0  0  0  0  0  0  0  0
  143.3505   71.3567  219.7614 H   0  0  0  0  0  0  0  0  0  0  0  0
  144.1272   71.2436  221.3166 H   0  0  0  0  0  0  0  0  0  0  0  0
  141.6621   71.9895  221.9168 H   0  0  0  0  0  0  0  0  0  0  0  0
  139.0388   68.8846  221.7604 H   0  0  0  0  0  0  0  0  0  0  0  0
  139.2763   67.4413  222.8906 H   0  0  0  0  0  0  0  0  0  0  0  0
  137.2331   67.0526  222.8336 H   0  0  0  0  0  0  0  0  0  0  0  0
  136.5505   69.5998  221.3985 H   0  0  0  0  0  0  0  0  0  0  0  0
  137.0513   68.0648  220.6272 H   0  0  0  0  0  0  0  0  0  0  0  0
  134.4669   68.5545  221.0038 H   0  0  0  0  0  0  0  0  0  0  0  0
  135.1158   66.9132  221.3602 H   0  0  0  0  0  0  0  0  0  0  0  0
  135.0150   67.2920  223.5870 H   0  0  0  0  0  0  0  0  0  0  0  0
  135.2510   70.1140  222.8520 H   0  0  0  0  0  0  0  0  0  0  0  0
  134.7833   69.6124  224.4964 H   0  0  0  0  0  0  0  0  0  0  0  0
  137.3206   69.9026  223.9908 H   0  0  0  0  0  0  0  0  0  0  0  0
  136.8082   68.3929  224.8182 H   0  0  0  0  0  0  0  0  0  0  0  0
  1  2  2  0
  2  3  1  0
  3  4  2  0
  4  5  1  0
  5  6  2  0
  6  7  1  0
  7  8  2  0
  8  9  1  0
  9 10  2  0
 10 11  1  0
 11 12  2  0
 12 13  1  0
 13 14  2  0
 14 15  1  0
 15 16  2  0
 16 17  1  0
 17 18  1  0
 18 19  1  0
 19 20  1  0
 20 21  1  0
 21 22  1  0
 17 23  2  0
 10 24  1  0
 24 25  1  0
 25 26  1  0
 26 27  1  0
 27 28  1  0
 28 29  1  0
 29 30  1  0
 30 31  1  0
 24  2  1  0
 31 26  1  0
  8  3  1  0
 23 13  1  0
 22 18  1  0
  4 32  1  0
  5 33  1  0
  6 34  1  0
  7 35  1  0
 11 36  1  0
 12 37  1  0
 14 38  1  0
 15 39  1  0
 16 40  1  0
 19 41  1  0
 19 42  1  0
 20 43  1  0
 20 44  1  0
 21 45  1  0
 21 46  1  0
 22 47  1  0
 22 48  1  0
 23 49  1  0
 25 50  1  0
 25 51  1  0
 26 52  1  0
 27 53  1  0
 27 54  1  0
 28 55  1  0
 28 56  1  0
 29 57  1  0
 30 58  1  0
 30 59  1  0
 31 60  1  0
 31 61  1  0
M  END
>  <smiles>  (11) 
O=c1c2ccccc2nc(/C=C/c2cccc(N3CCCC3)c2)n1CC1CCNCC1

>  <score_type>  (11) 
oracle

>  <origin>  (11) 
autodockgpu

>  <m_score__min__energy>  (11) 
-9.4900000000000002

>  <m_primary>  (11) 
energy

>  <rmsd>  (11) 
12.37986557492817

>  <m_score__min__rmsd>  (11) 
12.37986557492817

>  <meeko>  (11) 
{"free_energy": -8.37, "intermolecular_energy": -10.16, "internal_energy": -1.48, "cluster_size": 2, "cluster_id": 4, "rank_in_cluster": 2}

>  <energy>  (11) 
-9.26

>  <cluster_rmsd>  (11) 
0.58

>  <cluster>  (11) 
1

$$$$

     RDKit          3D

 61 65  0  0  0  0  0  0  0  0999 V2000
  142.6520   76.5800  219.0940 O   0  0  0  0  0  0  0  0  0  0  0  0
  141.9870   76.2540  220.1200 C   0  0  0  0  0  0  0  0  0  0  0  0
  141.4120   77.2620  220.8650 C   0  0  0  0  0  0  0  0  0  0  0  0
  141.5350   78.5970  220.5380 C   0  0  0  0  0  0  0  0  0  0  0  0
  140.9550   79.6090  221.2890 C   0  0  0  0  0  0  0  0  0  0  0  0
  140.2270   79.2270  222.4140 C   0  0  0  0  0  0  0  0  0  0  0  0
  140.0910   77.8880  222.7620 C   0  0  0  0  0  0  0  0  0  0  0  0
  140.6880   76.9030  221.9810 C   0  0  0  0  0  0  0  0  0  0  0  0
  140.5850   75.5960  222.2790 N   0  0  0  0  0  0  0  0  0  0  0  0
  141.1390   74.6270  221.5600 C   0  0  0  0  0  0  0  0  0  0  0  0
  140.9770   73.2370  221.9670 C   0  0  0  0  0  0  0  0  0  0  0  0
  139.7860   72.6770  221.8910 C   0  0  0  0  0  0  0  0  0  0  0  0
  139.3350   71.5990  222.7620 C   0  0  0  0  0  0  0  0  0  0  0  0
  138.4500   70.6320  222.4160 C   0  0  0  0  0  0  0  0  0  0  0  0
  138.0430   69.6160  223.2740 C   0  0  0  0  0  0  0  0  0  0  0  0
  138.5640   69.5760  224.5690 C   0  0  0  0  0  0  0  0  0  0  0  0
  139.4670   70.5480  224.9460 C   0  0  0  0  0  0  0  0  0  0  0  0
  139.9880   70.4930  226.2670 N   0  0  0  0  0  0  0  0  0  0  0  0
  140.7960   71.5450  226.8570 C   0  0  0  0  0  0  0  0  0  0  0  0
  141.0570   71.0890  228.2740 C   0  0  0  0  0  0  0  0  0  0  0  0
  141.0330   69.5690  228.1000 C   0  0  0  0  0  0  0  0  0  0  0  0
  139.8080   69.4100  227.2210 C   0  0  0  0  0  0  0  0  0  0  0  0
  139.8490   71.5440  224.0630 C   0  0  0  0  0  0  0  0  0  0  0  0
  141.8510   74.9370  220.4650 N   0  0  0  0  0  0  0  0  0  0  0  0
  142.4860   73.9850  219.6020 C   0  0  0  0  0  0  0  0  0  0  0  0
  143.8120   73.4800  220.0440 C   0  0  0  0  0  0  0  0  0  0  0  0
  144.7940   74.4920  220.5170 C   0  0  0  0  0  0  0  0  0  0  0  0
  146.0100   73.7570  221.1020 C   0  0  0  0  0  0  0  0  0  0  0  0
  146.2870   72.5590  220.3310 N   0  0  0  0  0  0  0  0  0  0  0  0
  145.9400   72.8420  218.9450 C   0  0  0  0  0  0  0  0  0  0  0  0
  144.4370   72.7870  218.8350 C   0  0  0  0  0  0  0  0  0  0  0  0
  142.1168   78.8699  219.6452 H   0  0  0  0  0  0  0  0  0  0  0  0
  141.0650   80.6669  221.0086 H   0  0  0  0  0  0  0  0  0  0  0  0
  139.7516   79.9984  223.0376 H   0  0  0  0  0  0  0  0  0  0  0  0
  139.5119   77.6073  223.6541 H   0  0  0  0  0  0  0  0  0  0  0  0
  141.8395   72.6612  222.3338 H   0  0  0  0  0  0  0  0  0  0  0  0
  139.0900   73.0459  221.1232 H   0  0  0  0  0  0  0  0  0  0  0  0
  138.0302   70.6522  221.3994 H   0  0  0  0  0  0  0  0  0  0  0  0
  137.3222   68.8560  222.9379 H   0  0  0  0  0  0  0  0  0  0  0  0
  138.2609   68.7868  225.2728 H   0  0  0  0  0  0  0  0  0  0  0  0
  141.7419   71.6603  226.3075 H   0  0  0  0  0  0  0  0  0  0  0  0
  140.2914   72.5218  226.8234 H   0  0  0  0  0  0  0  0  0  0  0  0
  142.0346   71.4387  228.6374 H   0  0  0  0  0  0  0  0  0  0  0  0
  140.3386   71.4724  229.0136 H   0  0  0  0  0  0  0  0  0  0  0  0
  141.9419   69.2032  227.5998 H   0  0  0  0  0  0  0  0  0  0  0  0
  140.9983   69.0007  229.0412 H   0  0  0  0  0  0  0  0  0  0  0  0
  139.7985   68.4311  226.7194 H   0  0  0  0  0  0  0  0  0  0  0  0
  138.8557   69.4517  227.7699 H   0  0  0  0  0  0  0  0  0  0  0  0
  140.5706   72.3070  224.3903 H   0  0  0  0  0  0  0  0  0  0  0  0
  141.8133   73.1202  219.5039 H   0  0  0  0  0  0  0  0  0  0  0  0
  142.6746   74.5216  218.6604 H   0  0  0  0  0  0  0  0  0  0  0  0
  143.6116   72.8396  220.9156 H   0  0  0  0  0  0  0  0  0  0  0  0
  145.1122   75.1224  219.6736 H   0  0  0  0  0  0  0  0  0  0  0  0
  144.3351   75.1313  221.2855 H   0  0  0  0  0  0  0  0  0  0  0  0
  146.8864   74.4210  221.0701 H   0  0  0  0  0  0  0  0  0  0  0  0
  145.7930   73.4734  222.1424 H   0  0  0  0  0  0  0  0  0  0  0  0
  145.6990   71.7790  220.6510 H   0  0  0  0  0  0  0  0  0  0  0  0
  146.3010   73.8424  218.6640 H   0  0  0  0  0  0  0  0  0  0  0  0
  146.4054   72.1079  218.2709 H   0  0  0  0  0  0  0  0  0  0  0  0
  144.1179   73.2974  217.9143 H   0  0  0  0  0  0  0  0  0  0  0  0
  144.1099   71.7372  218.8047 H   0  0  0  0  0  0  0  0  0  0  0  0
  1  2  2  0
  2  3  1  0
  3  4  2  0
  4  5  1  0
  5  6  2  0
  6  7  1  0
  7  8  2  0
  8  9  1  0
  9 10  2  0
 10 11  1  0
 11 12  2  0
 12 13  1  0
 13 14  2  0
 14 15  1  0
 15 16  2  0
 16 17  1  0
 17 18  1  0
 18 19  1  0
 19 20  1  0
 20 21  1  0
 21 22  1  0
 17 23  2  0
 10 24  1  0
 24 25  1  0
 25 26  1  0
 26 27  1  0
 27 28  1  0
 28 29  1  0
 29 30  1  0
 30 31  1  0
 24  2  1  0
 31 26  1  0
  8  3  1  0
 23 13  1  0
 22 18  1  0
  4 32  1  0
  5 33  1  0
  6 34  1  0
  7 35  1  0
 11 36  1  0
 12 37  1  0
 14 38  1  0
 15 39  1  0
 16 40  1  0
 19 41  1  0
 19 42  1  0
 20 43  1  0
 20 44  1  0
 21 45  1  0
 21 46  1  0
 22 47  1  0
 22 48  1  0
 23 49  1  0
 25 50  1  0
 25 51  1  0
 26 52  1  0
 27 53  1  0
 27 54  1  0
 28 55  1  0
 28 56  1  0
 29 57  1  0
 30 58  1  0
 30 59  1  0
 31 60  1  0
 31 61  1  0
M  END
>  <smiles>  (12) 
O=c1c2ccccc2nc(/C=C/c2cccc(N3CCCC3)c2)n1CC1CCNCC1

>  <score_type>  (12) 
oracle

>  <origin>  (12) 
autodockgpu

>  <m_score__min__energy>  (12) 
-9.4900000000000002

>  <m_primary>  (12) 
energy

>  <rmsd>  (12) 
7.483476534085504

>  <m_score__min__rmsd>  (12) 
7.483476534085504

>  <meeko>  (12) 
{"free_energy": -8.8, "intermolecular_energy": -10.59, "internal_energy": -1.39, "cluster_size": 28, "cluster_id": 1, "rank_in_cluster": 22}

>  <energy>  (12) 
-9.22

>  <cluster_rmsd>  (12) 
0.54

>  <cluster>  (12) 
1

$$$$

     RDKit          3D

 61 65  0  0  0  0  0  0  0  0999 V2000
  141.0500   71.4380  224.6030 O   0  0  0  0  0  0  0  0  0  0  0  0
  140.3520   70.3960  224.7730 C   0  0  0  0  0  0  0  0  0  0  0  0
  140.3540   69.8130  226.0220 C   0  0  0  0  0  0  0  0  0  0  0  0
  141.0810   70.3170  227.0810 C   0  0  0  0  0  0  0  0  0  0  0  0
  141.0800   69.7280  228.3380 C   0  0  0  0  0  0  0  0  0  0  0  0
  140.3050   68.5820  228.5020 C   0  0  0  0  0  0  0  0  0  0  0  0
  139.5660   68.0570  227.4470 C   0  0  0  0  0  0  0  0  0  0  0  0
  139.5930   68.6780  226.2030 C   0  0  0  0  0  0  0  0  0  0  0  0
  138.8960   68.2060  225.1550 N   0  0  0  0  0  0  0  0  0  0  0  0
  138.8960   68.7700  223.9530 C   0  0  0  0  0  0  0  0  0  0  0  0
  138.1120   68.1800  222.8740 C   0  0  0  0  0  0  0  0  0  0  0  0
  136.8420   68.5090  222.7440 C   0  0  0  0  0  0  0  0  0  0  0  0
  136.1320   69.3920  223.6610 C   0  0  0  0  0  0  0  0  0  0  0  0
  135.5970   69.0180  224.8490 C   0  0  0  0  0  0  0  0  0  0  0  0
  134.9250   69.8880  225.7010 C   0  0  0  0  0  0  0  0  0  0  0  0
  134.7840   71.2260  225.3250 C   0  0  0  0  0  0  0  0  0  0  0  0
  135.3190   71.6320  224.1210 C   0  0  0  0  0  0  0  0  0  0  0  0
  135.1670   72.9970  223.7540 N   0  0  0  0  0  0  0  0  0  0  0  0
  135.4510   74.1050  224.6480 C   0  0  0  0  0  0  0  0  0  0  0  0
  135.2180   75.3470  223.8180 C   0  0  0  0  0  0  0  0  0  0  0  0
  134.1450   74.8510  222.8470 C   0  0  0  0  0  0  0  0  0  0  0  0
  134.7180   73.4990  222.4660 C   0  0  0  0  0  0  0  0  0  0  0  0
  135.9830   70.7360  223.3000 C   0  0  0  0  0  0  0  0  0  0  0  0
  139.6240   69.8770  223.7370 N   0  0  0  0  0  0  0  0  0  0  0  0
  139.6980   70.5830  222.4920 C   0  0  0  0  0  0  0  0  0  0  0  0
  139.3800   72.0340  222.5390 C   0  0  0  0  0  0  0  0  0  0  0  0
  138.3090   72.5170  221.6270 C   0  0  0  0  0  0  0  0  0  0  0  0
  138.0050   73.9850  221.9650 C   0  0  0  0  0  0  0  0  0  0  0  0
  139.2280   74.6770  222.3280 N   0  0  0  0  0  0  0  0  0  0  0  0
  140.3060   74.1010  221.5350 C   0  0  0  0  0  0  0  0  0  0  0  0
  140.6600   72.7710  222.1510 C   0  0  0  0  0  0  0  0  0  0  0  0
  141.6858   71.2221  226.9227 H   0  0  0  0  0  0  0  0  0  0  0  0
  141.6659   70.1480  229.1688 H   0  0  0  0  0  0  0  0  0  0  0  0
  140.2770   68.0839  229.4824 H   0  0  0  0  0  0  0  0  0  0  0  0
  138.9604   67.1510  227.5966 H   0  0  0  0  0  0  0  0  0  0  0  0
  138.5757   67.4677  222.1757 H   0  0  0  0  0  0  0  0  0  0  0  0
  136.2846   68.0921  221.8923 H   0  0  0  0  0  0  0  0  0  0  0  0
  135.7002   67.9669  225.1566 H   0  0  0  0  0  0  0  0  0  0  0  0
  134.5115   69.5286  226.6549 H   0  0  0  0  0  0  0  0  0  0  0  0
  134.2576   71.9401  225.9754 H   0  0  0  0  0  0  0  0  0  0  0  0
  134.7735   74.0862  225.5144 H   0  0  0  0  0  0  0  0  0  0  0  0
  136.4748   74.0613  225.0479 H   0  0  0  0  0  0  0  0  0  0  0  0
  134.8512   76.1815  224.4336 H   0  0  0  0  0  0  0  0  0  0  0  0
  136.1214   75.7440  223.3319 H   0  0  0  0  0  0  0  0  0  0  0  0
  133.1663   74.7528  223.3394 H   0  0  0  0  0  0  0  0  0  0  0  0
  133.9514   75.5220  221.9971 H   0  0  0  0  0  0  0  0  0  0  0  0
  133.9488   72.8465  222.0271 H   0  0  0  0  0  0  0  0  0  0  0  0
  135.5102   73.5478  221.7044 H   0  0  0  0  0  0  0  0  0  0  0  0
  136.4015   71.0875  222.3454 H   0  0  0  0  0  0  0  0  0  0  0  0
  140.7228   70.4766  222.1066 H   0  0  0  0  0  0  0  0  0  0  0  0
  138.9240   70.1332  221.8528 H   0  0  0  0  0  0  0  0  0  0  0  0
  139.0046   72.2250  223.5552 H   0  0  0  0  0  0  0  0  0  0  0  0
  138.6476   72.4391  220.5833 H   0  0  0  0  0  0  0  0  0  0  0  0
  137.4030   71.9061  221.7533 H   0  0  0  0  0  0  0  0  0  0  0  0
  137.5564   74.4748  221.0882 H   0  0  0  0  0  0  0  0  0  0  0  0
  137.3054   74.0217  222.8131 H   0  0  0  0  0  0  0  0  0  0  0  0
  139.4500   74.5250  223.3190 H   0  0  0  0  0  0  0  0  0  0  0  0
  139.9731   73.9573  220.4965 H   0  0  0  0  0  0  0  0  0  0  0  0
  141.1800   74.7689  221.5256 H   0  0  0  0  0  0  0  0  0  0  0  0
  141.2242   72.1685  221.4239 H   0  0  0  0  0  0  0  0  0  0  0  0
  141.2759   72.9341  223.0477 H   0  0  0  0  0  0  0  0  0  0  0  0
  1  2  2  0
  2  3  1  0
  3  4  2  0
  4  5  1  0
  5  6  2  0
  6  7  1  0
  7  8  2  0
  8  9  1  0
  9 10  2  0
 10 11  1  0
 11 12  2  0
 12 13  1  0
 13 14  2  0
 14 15  1  0
 15 16  2  0
 16 17  1  0
 17 18  1  0
 18 19  1  0
 19 20  1  0
 20 21  1  0
 21 22  1  0
 17 23  2  0
 10 24  1  0
 24 25  1  0
 25 26  1  0
 26 27  1  0
 27 28  1  0
 28 29  1  0
 29 30  1  0
 30 31  1  0
 24  2  1  0
 31 26  1  0
  8  3  1  0
 23 13  1  0
 22 18  1  0
  4 32  1  0
  5 33  1  0
  6 34  1  0
  7 35  1  0
 11 36  1  0
 12 37  1  0
 14 38  1  0
 15 39  1  0
 16 40  1  0
 19 41  1  0
 19 42  1  0
 20 43  1  0
 20 44  1  0
 21 45  1  0
 21 46  1  0
 22 47  1  0
 22 48  1  0
 23 49  1  0
 25 50  1  0
 25 51  1  0
 26 52  1  0
 27 53  1  0
 27 54  1  0
 28 55  1  0
 28 56  1  0
 29 57  1  0
 30 58  1  0
 30 59  1  0
 31 60  1  0
 31 61  1  0
M  END
>  <smiles>  (13) 
O=c1c2ccccc2nc(/C=C/c2cccc(N3CCCC3)c2)n1CC1CCNCC1

>  <score_type>  (13) 
oracle

>  <origin>  (13) 
autodockgpu

>  <m_score__min__energy>  (13) 
-9.4900000000000002

>  <m_primary>  (13) 
energy

>  <rmsd>  (13) 
9.79187793211324

>  <m_score__min__rmsd>  (13) 
9.79187793211324

>  <meeko>  (13) 
{"free_energy": -7.55, "intermolecular_energy": -9.34, "internal_energy": -2.51, "cluster_size": 6, "cluster_id": 7, "rank_in_cluster": 5}

>  <energy>  (13) 
-9.16

>  <cluster_rmsd>  (13) 
0.51

>  <cluster>  (13) 
1

$$$$

     RDKit          3D

 61 65  0  0  0  0  0  0  0  0999 V2000
  142.8980   77.2350  218.8180 O   0  0  0  0  0  0  0  0  0  0  0  0
  142.2240   76.6220  219.6960 C   0  0  0  0  0  0  0  0  0  0  0  0
  141.6710   77.3620  220.7200 C   0  0  0  0  0  0  0  0  0  0  0  0
  141.8250   78.7290  220.8220 C   0  0  0  0  0  0  0  0  0  0  0  0
  141.2670   79.4710  221.8530 C   0  0  0  0  0  0  0  0  0  0  0  0
  140.5290   78.7760  222.8080 C   0  0  0  0  0  0  0  0  0  0  0  0
  140.3610   77.3980  222.7250 C   0  0  0  0  0  0  0  0  0  0  0  0
  140.9370   76.6910  221.6740 C   0  0  0  0  0  0  0  0  0  0  0  0
  140.8030   75.3590  221.5520 N   0  0  0  0  0  0  0  0  0  0  0  0
  141.3360   74.6490  220.5650 C   0  0  0  0  0  0  0  0  0  0  0  0
  141.1410   73.2050  220.5220 C   0  0  0  0  0  0  0  0  0  0  0  0
  141.3870   72.4880  221.6010 C   0  0  0  0  0  0  0  0  0  0  0  0
  140.3520   71.9440  222.4710 C   0  0  0  0  0  0  0  0  0  0  0  0
  139.0740   71.6880  222.1000 C   0  0  0  0  0  0  0  0  0  0  0  0
  138.1110   71.1670  222.9580 C   0  0  0  0  0  0  0  0  0  0  0  0
  138.4640   70.8870  224.2800 C   0  0  0  0  0  0  0  0  0  0  0  0
  139.7600   71.1380  224.6820 C   0  0  0  0  0  0  0  0  0  0  0  0
  140.1030   70.8460  226.0300 N   0  0  0  0  0  0  0  0  0  0  0  0
  140.8900   71.7320  226.8690 C   0  0  0  0  0  0  0  0  0  0  0  0
  140.9400   71.0520  228.2180 C   0  0  0  0  0  0  0  0  0  0  0  0
  140.8460   69.5820  227.8060 C   0  0  0  0  0  0  0  0  0  0  0  0
  139.7370   69.6520  226.7750 C   0  0  0  0  0  0  0  0  0  0  0  0
  140.6910   71.6560  223.7980 C   0  0  0  0  0  0  0  0  0  0  0  0
  142.0580   75.2660  219.6160 N   0  0  0  0  0  0  0  0  0  0  0  0
  142.6720   74.6150  218.4980 C   0  0  0  0  0  0  0  0  0  0  0  0
  144.0040   74.0040  218.7430 C   0  0  0  0  0  0  0  0  0  0  0  0
  144.0550   72.5210  218.8450 C   0  0  0  0  0  0  0  0  0  0  0  0
  145.5270   72.0850  218.9040 C   0  0  0  0  0  0  0  0  0  0  0  0
  146.3010   73.0440  219.6710 N   0  0  0  0  0  0  0  0  0  0  0  0
  145.4340   73.5650  220.7190 C   0  0  0  0  0  0  0  0  0  0  0  0
  144.4960   74.5570  220.0790 C   0  0  0  0  0  0  0  0  0  0  0  0
  142.4143   79.2522  220.0545 H   0  0  0  0  0  0  0  0  0  0  0  0
  141.4016   80.5611  221.9135 H   0  0  0  0  0  0  0  0  0  0  0  0
  140.0709   79.3268  223.6427 H   0  0  0  0  0  0  0  0  0  0  0  0
  139.7736   76.8677  223.4891 H   0  0  0  0  0  0  0  0  0  0  0  0
  140.7923   72.7186  219.5991 H   0  0  0  0  0  0  0  0  0  0  0  0
  142.4372   72.2883  221.8602 H   0  0  0  0  0  0  0  0  0  0  0  0
  138.7817   71.9044  221.0619 H   0  0  0  0  0  0  0  0  0  0  0  0
  137.0878   70.9785  222.6010 H   0  0  0  0  0  0  0  0  0  0  0  0
  137.7260   70.4759  224.9845 H   0  0  0  0  0  0  0  0  0  0  0  0
  141.9037   71.8530  226.4593 H   0  0  0  0  0  0  0  0  0  0  0  0
  140.4525   72.7394  226.9303 H   0  0  0  0  0  0  0  0  0  0  0  0
  141.8827   71.2650  228.7433 H   0  0  0  0  0  0  0  0  0  0  0  0
  140.1581   71.3777  228.9198 H   0  0  0  0  0  0  0  0  0  0  0  0
  141.7877   69.2232  227.3651 H   0  0  0  0  0  0  0  0  0  0  0  0
  140.6558   68.8855  228.6359 H   0  0  0  0  0  0  0  0  0  0  0  0
  139.7331   68.7617  226.1290 H   0  0  0  0  0  0  0  0  0  0  0  0
  138.7263   69.6876  227.2076 H   0  0  0  0  0  0  0  0  0  0  0  0
  141.7174   71.8450  224.1454 H   0  0  0  0  0  0  0  0  0  0  0  0
  141.9940   73.8171  218.1608 H   0  0  0  0  0  0  0  0  0  0  0  0
  142.8447   75.4077  217.7552 H   0  0  0  0  0  0  0  0  0  0  0  0
  144.6143   74.2568  217.8634 H   0  0  0  0  0  0  0  0  0  0  0  0
  143.5346   72.1940  219.7573 H   0  0  0  0  0  0  0  0  0  0  0  0
  143.5628   72.0668  217.9724 H   0  0  0  0  0  0  0  0  0  0  0  0
  145.5948   71.0969  219.3825 H   0  0  0  0  0  0  0  0  0  0  0  0
  145.9286   72.0340  217.8812 H   0  0  0  0  0  0  0  0  0  0  0  0
  146.5890   73.8330  219.0790 H   0  0  0  0  0  0  0  0  0  0  0  0
  144.8597   72.7445  221.1739 H   0  0  0  0  0  0  0  0  0  0  0  0
  146.0279   74.0473  221.5093 H   0  0  0  0  0  0  0  0  0  0  0  0
  143.6363   74.7299  220.7432 H   0  0  0  0  0  0  0  0  0  0  0  0
  145.0257   75.5061  219.9101 H   0  0  0  0  0  0  0  0  0  0  0  0
  1  2  2  0
  2  3  1  0
  3  4  2  0
  4  5  1  0
  5  6  2  0
  6  7  1  0
  7  8  2  0
  8  9  1  0
  9 10  2  0
 10 11  1  0
 11 12  2  0
 12 13  1  0
 13 14  2  0
 14 15  1  0
 15 16  2  0
 16 17  1  0
 17 18  1  0
 18 19  1  0
 19 20  1  0
 20 21  1  0
 21 22  1  0
 17 23  2  0
 10 24  1  0
 24 25  1  0
 25 26  1  0
 26 27  1  0
 27 28  1  0
 28 29  1  0
 29 30  1  0
 30 31  1  0
 24  2  1  0
 31 26  1  0
  8  3  1  0
 23 13  1  0
 22 18  1  0
  4 32  1  0
  5 33  1  0
  6 34  1  0
  7 35  1  0
 11 36  1  0
 12 37  1  0
 14 38  1  0
 15 39  1  0
 16 40  1  0
 19 41  1  0
 19 42  1  0
 20 43  1  0
 20 44  1  0
 21 45  1  0
 21 46  1  0
 22 47  1  0
 22 48  1  0
 23 49  1  0
 25 50  1  0
 25 51  1  0
 26 52  1  0
 27 53  1  0
 27 54  1  0
 28 55  1  0
 28 56  1  0
 29 57  1  0
 30 58  1  0
 30 59  1  0
 31 60  1  0
 31 61  1  0
M  END
>  <smiles>  (14) 
O=c1c2ccccc2nc(/C=C/c2cccc(N3CCCC3)c2)n1CC1CCNCC1

>  <score_type>  (14) 
oracle

>  <origin>  (14) 
autodockgpu

>  <m_score__min__energy>  (14) 
-9.4900000000000002

>  <m_primary>  (14) 
energy

>  <rmsd>  (14) 
7.729715644080543

>  <m_score__min__rmsd>  (14) 
7.729715644080543

>  <meeko>  (14) 
{"free_energy": -9.11, "intermolecular_energy": -10.9, "internal_energy": -1.59, "cluster_size": 28, "cluster_id": 1, "rank_in_cluster": 15}

>  <energy>  (14) 
-9.16

>  <cluster_rmsd>  (14) 
0.73

>  <cluster>  (14) 
1

$$$$

     RDKit          3D

 61 65  0  0  0  0  0  0  0  0999 V2000
  142.9000   77.3510  219.0550 O   0  0  0  0  0  0  0  0  0  0  0  0
  142.1970   76.8440  219.9760 C   0  0  0  0  0  0  0  0  0  0  0  0
  141.8210   77.6570  221.0240 C   0  0  0  0  0  0  0  0  0  0  0  0
  142.1790   78.9870  221.1050 C   0  0  0  0  0  0  0  0  0  0  0  0
  141.7990   79.8030  222.1610 C   0  0  0  0  0  0  0  0  0  0  0  0
  141.0250   79.2240  223.1640 C   0  0  0  0  0  0  0  0  0  0  0  0
  140.6530   77.8860  223.1030 C   0  0  0  0  0  0  0  0  0  0  0  0
  141.0540   77.1010  222.0260 C   0  0  0  0  0  0  0  0  0  0  0  0
  140.7200   75.8040  221.9240 N   0  0  0  0  0  0  0  0  0  0  0  0
  141.0830   75.0230  220.9140 C   0  0  0  0  0  0  0  0  0  0  0  0
  140.6760   73.6230  220.8950 C   0  0  0  0  0  0  0  0  0  0  0  0
  141.1920   72.7890  221.7760 C   0  0  0  0  0  0  0  0  0  0  0  0
  140.4020   71.8820  222.6000 C   0  0  0  0  0  0  0  0  0  0  0  0
  139.3920   71.0980  222.1500 C   0  0  0  0  0  0  0  0  0  0  0  0
  138.6590   70.2430  222.9660 C   0  0  0  0  0  0  0  0  0  0  0  0
  138.9670   70.1760  224.3260 C   0  0  0  0  0  0  0  0  0  0  0  0
  139.9920   70.9640  224.8090 C   0  0  0  0  0  0  0  0  0  0  0  0
  140.2930   70.8840  226.1950 N   0  0  0  0  0  0  0  0  0  0  0  0
  141.0730   71.8810  226.9070 C   0  0  0  0  0  0  0  0  0  0  0  0
  141.0740   71.4210  228.3460 C   0  0  0  0  0  0  0  0  0  0  0  0
  140.9660   69.9060  228.1680 C   0  0  0  0  0  0  0  0  0  0  0  0
  139.8870   69.8270  227.1070 C   0  0  0  0  0  0  0  0  0  0  0  0
  140.7000   71.8030  223.9650 C   0  0  0  0  0  0  0  0  0  0  0  0
  141.8290   75.5280  219.9180 N   0  0  0  0  0  0  0  0  0  0  0  0
  142.2740   74.7940  218.7710 C   0  0  0  0  0  0  0  0  0  0  0  0
  143.6380   74.2110  218.8520 C   0  0  0  0  0  0  0  0  0  0  0  0
  143.7450   72.7310  218.7420 C   0  0  0  0  0  0  0  0  0  0  0  0
  145.2320   72.3530  218.6550 C   0  0  0  0  0  0  0  0  0  0  0  0
  146.0190   73.2300  219.5030 N   0  0  0  0  0  0  0  0  0  0  0  0
  145.2030   73.5650  220.6620 C   0  0  0  0  0  0  0  0  0  0  0  0
  144.1940   74.5950  220.2220 C   0  0  0  0  0  0  0  0  0  0  0  0
  142.7910   79.4183  220.2991 H   0  0  0  0  0  0  0  0  0  0  0  0
  142.0961   80.8612  222.2042 H   0  0  0  0  0  0  0  0  0  0  0  0
  140.7026   79.8362  224.0192 H   0  0  0  0  0  0  0  0  0  0  0  0
  140.0418   77.4478  223.9058 H   0  0  0  0  0  0  0  0  0  0  0  0
  139.9461   73.2664  220.1534 H   0  0  0  0  0  0  0  0  0  0  0  0
  142.2853   72.7767  221.8968 H   0  0  0  0  0  0  0  0  0  0  0  0
  139.1381   71.1403  221.0805 H   0  0  0  0  0  0  0  0  0  0  0  0
  137.8488   69.6288  222.5462 H   0  0  0  0  0  0  0  0  0  0  0  0
  138.4053   69.5101  224.9976 H   0  0  0  0  0  0  0  0  0  0  0  0
  142.0994   71.9224  226.5135 H   0  0  0  0  0  0  0  0  0  0  0  0
  140.6526   72.8914  226.7962 H   0  0  0  0  0  0  0  0  0  0  0  0
  142.0054   71.7021  228.8593 H   0  0  0  0  0  0  0  0  0  0  0  0
  140.2784   71.8629  228.9639 H   0  0  0  0  0  0  0  0  0  0  0  0
  141.9130   69.4701  227.8170 H   0  0  0  0  0  0  0  0  0  0  0  0
  140.7416   69.3515  229.0912 H   0  0  0  0  0  0  0  0  0  0  0  0
  139.8854   68.8462  226.6089 H   0  0  0  0  0  0  0  0  0  0  0  0
  138.8658   69.9430  227.4990 H   0  0  0  0  0  0  0  0  0  0  0  0
  141.5130   72.4197  224.3758 H   0  0  0  0  0  0  0  0  0  0  0  0
  141.5659   73.9686  218.6057 H   0  0  0  0  0  0  0  0  0  0  0  0
  142.3161   75.5268  217.9517 H   0  0  0  0  0  0  0  0  0  0  0  0
  144.1834   74.6078  217.9830 H   0  0  0  0  0  0  0  0  0  0  0  0
  143.2939   72.2598  219.6277 H   0  0  0  0  0  0  0  0  0  0  0  0
  143.2148   72.3812  217.8439 H   0  0  0  0  0  0  0  0  0  0  0  0
  145.3631   71.3123  218.9864 H   0  0  0  0  0  0  0  0  0  0  0  0
  145.5706   72.4591  217.6138 H   0  0  0  0  0  0  0  0  0  0  0  0
  146.2430   74.1030  219.0120 H   0  0  0  0  0  0  0  0  0  0  0  0
  144.6865   72.6664  221.0303 H   0  0  0  0  0  0  0  0  0  0  0  0
  145.8290   73.9585  221.4764 H   0  0  0  0  0  0  0  0  0  0  0  0
  143.3723   74.6385  220.9520 H   0  0  0  0  0  0  0  0  0  0  0  0
  144.6799   75.5798  220.1574 H   0  0  0  0  0  0  0  0  0  0  0  0
  1  2  2  0
  2  3  1  0
  3  4  2  0
  4  5  1  0
  5  6  2  0
  6  7  1  0
  7  8  2  0
  8  9  1  0
  9 10  2  0
 10 11  1  0
 11 12  2  0
 12 13  1  0
 13 14  2  0
 14 15  1  0
 15 16  2  0
 16 17  1  0
 17 18  1  0
 18 19  1  0
 19 20  1  0
 20 21  1  0
 21 22  1  0
 17 23  2  0
 10 24  1  0
 24 25  1  0
 25 26  1  0
 26 27  1  0
 27 28  1  0
 28 29  1  0
 29 30  1  0
 30 31  1  0
 24  2  1  0
 31 26  1  0
  8  3  1  0
 23 13  1  0
 22 18  1  0
  4 32  1  0
  5 33  1  0
  6 34  1  0
  7 35  1  0
 11 36  1  0
 12 37  1  0
 14 38  1  0
 15 39  1  0
 16 40  1  0
 19 41  1  0
 19 42  1  0
 20 43  1  0
 20 44  1  0
 21 45  1  0
 21 46  1  0
 22 47  1  0
 22 48  1  0
 23 49  1  0
 25 50  1  0
 25 51  1  0
 26 52  1  0
 27 53  1  0
 27 54  1  0
 28 55  1  0
 28 56  1  0
 29 57  1  0
 30 58  1  0
 30 59  1  0
 31 60  1  0
 31 61  1  0
M  END
>  <smiles>  (15) 
O=c1c2ccccc2nc(/C=C/c2cccc(N3CCCC3)c2)n1CC1CCNCC1

>  <score_type>  (15) 
oracle

>  <origin>  (15) 
autodockgpu

>  <m_score__min__energy>  (15) 
-9.4900000000000002

>  <m_primary>  (15) 
energy

>  <rmsd>  (15) 
7.713068892432584

>  <m_score__min__rmsd>  (15) 
7.713068892432584

>  <meeko>  (15) 
{"free_energy": -9.28, "intermolecular_energy": -11.07, "internal_energy": -1.5, "cluster_size": 28, "cluster_id": 1, "rank_in_cluster": 10}

>  <energy>  (15) 
-9.11

>  <cluster_rmsd>  (15) 
0.59

>  <cluster>  (15) 
1

$$$$

     RDKit          3D

 61 65  0  0  0  0  0  0  0  0999 V2000
  143.4520   76.2800  219.2020 O   0  0  0  0  0  0  0  0  0  0  0  0
  142.9410   75.3210  219.8490 C   0  0  0  0  0  0  0  0  0  0  0  0
  143.6300   74.1280  219.8880 C   0  0  0  0  0  0  0  0  0  0  0  0
  144.8410   73.9420  219.2540 C   0  0  0  0  0  0  0  0  0  0  0  0
  145.5320   72.7390  219.2960 C   0  0  0  0  0  0  0  0  0  0  0  0
  144.9510   71.6970  220.0140 C   0  0  0  0  0  0  0  0  0  0  0  0
  143.7310   71.8630  220.6610 C   0  0  0  0  0  0  0  0  0  0  0  0
  143.0700   73.0850  220.5950 C   0  0  0  0  0  0  0  0  0  0  0  0
  141.8890   73.2910  221.2030 N   0  0  0  0  0  0  0  0  0  0  0  0
  141.2270   74.4420  221.1640 C   0  0  0  0  0  0  0  0  0  0  0  0
  139.9470   74.5670  221.8500 C   0  0  0  0  0  0  0  0  0  0  0  0
  139.0450   73.6170  221.7100 C   0  0  0  0  0  0  0  0  0  0  0  0
  139.2210   72.2490  222.1830 C   0  0  0  0  0  0  0  0  0  0  0  0
  138.9430   71.1320  221.4670 C   0  0  0  0  0  0  0  0  0  0  0  0
  139.1260   69.8410  221.9500 C   0  0  0  0  0  0  0  0  0  0  0  0
  139.6210   69.6670  223.2450 C   0  0  0  0  0  0  0  0  0  0  0  0
  139.9120   70.7880  223.9940 C   0  0  0  0  0  0  0  0  0  0  0  0
  140.4160   70.5940  225.3090 N   0  0  0  0  0  0  0  0  0  0  0  0
  140.2480   69.3630  226.0600 C   0  0  0  0  0  0  0  0  0  0  0  0
  140.9970   69.5890  227.3530 C   0  0  0  0  0  0  0  0  0  0  0  0
  140.8540   71.1040  227.5120 C   0  0  0  0  0  0  0  0  0  0  0  0
  141.1600   71.5620  226.0990 C   0  0  0  0  0  0  0  0  0  0  0  0
  139.7180   72.0590  223.4780 C   0  0  0  0  0  0  0  0  0  0  0  0
  141.7410   75.4810  220.4860 N   0  0  0  0  0  0  0  0  0  0  0  0
  141.1320   76.7730  220.3790 C   0  0  0  0  0  0  0  0  0  0  0  0
  141.7340   77.8540  221.2020 C   0  0  0  0  0  0  0  0  0  0  0  0
  141.1050   78.1240  222.5220 C   0  0  0  0  0  0  0  0  0  0  0  0
  141.9820   79.1280  223.2870 C   0  0  0  0  0  0  0  0  0  0  0  0
  142.5440   80.1000  222.3670 N   0  0  0  0  0  0  0  0  0  0  0  0
  141.5630   80.3240  221.3150 C   0  0  0  0  0  0  0  0  0  0  0  0
  141.6180   79.1390  220.3840 C   0  0  0  0  0  0  0  0  0  0  0  0
  145.2768   74.7814  218.6922 H   0  0  0  0  0  0  0  0  0  0  0  0
  146.4975   72.6141  218.7839 H   0  0  0  0  0  0  0  0  0  0  0  0
  145.4655   70.7264  220.0705 H   0  0  0  0  0  0  0  0  0  0  0  0
  143.2891   71.0282  221.2247 H   0  0  0  0  0  0  0  0  0  0  0  0
  139.7364   75.4452  222.4780 H   0  0  0  0  0  0  0  0  0  0  0  0
  138.1013   73.8714  221.2054 H   0  0  0  0  0  0  0  0  0  0  0  0
  138.5506   71.2537  220.4466 H   0  0  0  0  0  0  0  0  0  0  0  0
  138.8849   68.9704  221.3224 H   0  0  0  0  0  0  0  0  0  0  0  0
  139.7751   68.6591  223.6577 H   0  0  0  0  0  0  0  0  0  0  0  0
  139.1828   69.1732  226.2582 H   0  0  0  0  0  0  0  0  0  0  0  0
  140.6265   68.4885  225.5104 H   0  0  0  0  0  0  0  0  0  0  0  0
  140.5302   69.0491  228.1900 H   0  0  0  0  0  0  0  0  0  0  0  0
  142.0368   69.2301  227.3435 H   0  0  0  0  0  0  0  0  0  0  0  0
  139.8357   71.3856  227.8183 H   0  0  0  0  0  0  0  0  0  0  0  0
  141.4986   71.5459  228.2861 H   0  0  0  0  0  0  0  0  0  0  0  0
  140.7994   72.5861  225.9223 H   0  0  0  0  0  0  0  0  0  0  0  0
  142.2340   71.5998  225.8641 H   0  0  0  0  0  0  0  0  0  0  0  0
  139.9590   72.9355  224.0975 H   0  0  0  0  0  0  0  0  0  0  0  0
  141.1874   77.0835  219.3252 H   0  0  0  0  0  0  0  0  0  0  0  0
  140.1084   76.6478  220.7620 H   0  0  0  0  0  0  0  0  0  0  0  0
  142.7569   77.5199  221.4300 H   0  0  0  0  0  0  0  0  0  0  0  0
  140.1004   78.5469  222.3742 H   0  0  0  0  0  0  0  0  0  0  0  0
  141.0173   77.1890  223.0947 H   0  0  0  0  0  0  0  0  0  0  0  0
  141.3691   79.6489  224.0373 H   0  0  0  0  0  0  0  0  0  0  0  0
  142.8005   78.5864  223.7837 H   0  0  0  0  0  0  0  0  0  0  0  0
  143.3980   79.7320  221.9290 H   0  0  0  0  0  0  0  0  0  0  0  0
  140.5573   80.4120  221.7519 H   0  0  0  0  0  0  0  0  0  0  0  0
  141.7837   81.2544  220.7713 H   0  0  0  0  0  0  0  0  0  0  0  0
  140.7008   79.1062  219.7776 H   0  0  0  0  0  0  0  0  0  0  0  0
  142.4917   79.2327  219.7223 H   0  0  0  0  0  0  0  0  0  0  0  0
  1  2  2  0
  2  3  1  0
  3  4  2  0
  4  5  1  0
  5  6  2  0
  6  7  1  0
  7  8  2  0
  8  9  1  0
  9 10  2  0
 10 11  1  0
 11 12  2  0
 12 13  1  0
 13 14  2  0
 14 15  1  0
 15 16  2  0
 16 17  1  0
 17 18  1  0
 18 19  1  0
 19 20  1  0
 20 21  1  0
 21 22  1  0
 17 23  2  0
 10 24  1  0
 24 25  1  0
 25 26  1  0
 26 27  1  0
 27 28  1  0
 28 29  1  0
 29 30  1  0
 30 31  1  0
 24  2  1  0
 31 26  1  0
  8  3  1  0
 23 13  1  0
 22 18  1  0
  4 32  1  0
  5 33  1  0
  6 34  1  0
  7 35  1  0
 11 36  1  0
 12 37  1  0
 14 38  1  0
 15 39  1  0
 16 40  1  0
 19 41  1  0
 19 42  1  0
 20 43  1  0
 20 44  1  0
 21 45  1  0
 21 46  1  0
 22 47  1  0
 22 48  1  0
 23 49  1  0
 25 50  1  0
 25 51  1  0
 26 52  1  0
 27 53  1  0
 27 54  1  0
 28 55  1  0
 28 56  1  0
 29 57  1  0
 30 58  1  0
 30 59  1  0
 31 60  1  0
 31 61  1  0
M  END
>  <smiles>  (16) 
O=c1c2ccccc2nc(/C=C/c2cccc(N3CCCC3)c2)n1CC1CCNCC1

>  <score_type>  (16) 
oracle

>  <origin>  (16) 
autodockgpu

>  <m_score__min__energy>  (16) 
-9.4900000000000002

>  <m_primary>  (16) 
energy

>  <rmsd>  (16) 
4.743494378044

>  <m_score__min__rmsd>  (16) 
4.743494378044

>  <meeko>  (16) 
{"free_energy": -8.15, "intermolecular_energy": -9.94, "internal_energy": -1.67, "cluster_size": 5, "cluster_id": 2, "rank_in_cluster": 5}

>  <energy>  (16) 
-9.11

>  <cluster_rmsd>  (16) 
0.66

>  <cluster>  (16) 
1

$$$$

     RDKit          3D

 61 65  0  0  0  0  0  0  0  0999 V2000
  142.5940   76.7210  218.6540 O   0  0  0  0  0  0  0  0  0  0  0  0
  142.0870   76.3560  219.7540 C   0  0  0  0  0  0  0  0  0  0  0  0
  141.6880   77.3360  220.6380 C   0  0  0  0  0  0  0  0  0  0  0  0
  141.8210   78.6830  220.3720 C   0  0  0  0  0  0  0  0  0  0  0  0
  141.4190   79.6670  221.2630 C   0  0  0  0  0  0  0  0  0  0  0  0
  140.8620   79.2430  222.4680 C   0  0  0  0  0  0  0  0  0  0  0  0
  140.7200   77.8900  222.7570 C   0  0  0  0  0  0  0  0  0  0  0  0
  141.1350   76.9350  221.8360 C   0  0  0  0  0  0  0  0  0  0  0  0
  141.0180   75.6170  222.0720 N   0  0  0  0  0  0  0  0  0  0  0  0
  141.4030   74.6750  221.2180 C   0  0  0  0  0  0  0  0  0  0  0  0
  141.2410   73.2690  221.5680 C   0  0  0  0  0  0  0  0  0  0  0  0
  140.0330   72.7410  221.5770 C   0  0  0  0  0  0  0  0  0  0  0  0
  139.5830   71.7530  222.5500 C   0  0  0  0  0  0  0  0  0  0  0  0
  138.6330   70.8120  222.3260 C   0  0  0  0  0  0  0  0  0  0  0  0
  138.2280   69.8840  223.2780 C   0  0  0  0  0  0  0  0  0  0  0  0
  138.8230   69.9080  224.5420 C   0  0  0  0  0  0  0  0  0  0  0  0
  139.7920   70.8570  224.7950 C   0  0  0  0  0  0  0  0  0  0  0  0
  140.3870   70.8680  226.0850 N   0  0  0  0  0  0  0  0  0  0  0  0
  140.1800   69.8250  227.0750 C   0  0  0  0  0  0  0  0  0  0  0  0
  141.0530   70.2190  228.2450 C   0  0  0  0  0  0  0  0  0  0  0  0
  141.0520   71.7420  228.1100 C   0  0  0  0  0  0  0  0  0  0  0  0
  141.2750   71.8890  226.6170 C   0  0  0  0  0  0  0  0  0  0  0  0
  140.1700   71.7650  223.8200 C   0  0  0  0  0  0  0  0  0  0  0  0
  141.9450   75.0260  220.0410 N   0  0  0  0  0  0  0  0  0  0  0  0
  142.3870   74.1080  219.0340 C   0  0  0  0  0  0  0  0  0  0  0  0
  143.8090   73.6820  219.1110 C   0  0  0  0  0  0  0  0  0  0  0  0
  144.0650   72.2540  219.4420 C   0  0  0  0  0  0  0  0  0  0  0  0
  145.5690   71.9790  219.2830 C   0  0  0  0  0  0  0  0  0  0  0  0
  146.3360   73.1330  219.7170 N   0  0  0  0  0  0  0  0  0  0  0  0
  145.6070   73.7530  220.8140 C   0  0  0  0  0  0  0  0  0  0  0  0
  144.4520   74.5160  220.2170 C   0  0  0  0  0  0  0  0  0  0  0  0
  142.2644   78.9896  219.4131 H   0  0  0  0  0  0  0  0  0  0  0  0
  141.5348   80.7355  221.0287 H   0  0  0  0  0  0  0  0  0  0  0  0
  140.5291   79.9909  223.2028 H   0  0  0  0  0  0  0  0  0  0  0  0
  140.2792   77.5755  223.7145 H   0  0  0  0  0  0  0  0  0  0  0  0
  142.1177   72.6550  221.8219 H   0  0  0  0  0  0  0  0  0  0  0  0
  139.3215   73.0656  220.8034 H   0  0  0  0  0  0  0  0  0  0  0  0
  138.1561   70.7813  221.3353 H   0  0  0  0  0  0  0  0  0  0  0  0
  137.4513   69.1423  223.0401 H   0  0  0  0  0  0  0  0  0  0  0  0
  138.5257   69.1868  225.3176 H   0  0  0  0  0  0  0  0  0  0  0  0
  139.1233   69.7831  227.3776 H   0  0  0  0  0  0  0  0  0  0  0  0
  140.4352   68.8284  226.6855 H   0  0  0  0  0  0  0  0  0  0  0  0
  140.6153   69.8980  229.2017 H   0  0  0  0  0  0  0  0  0  0  0  0
  142.0543   69.7638  228.2371 H   0  0  0  0  0  0  0  0  0  0  0  0
  140.0906   72.1764  228.4214 H   0  0  0  0  0  0  0  0  0  0  0  0
  141.7946   72.2576  228.7367 H   0  0  0  0  0  0  0  0  0  0  0  0
  140.9895   72.8915  226.2656 H   0  0  0  0  0  0  0  0  0  0  0  0
  142.3245   71.7732  226.3085 H   0  0  0  0  0  0  0  0  0  0  0  0
  140.9465   72.5099  224.0484 H   0  0  0  0  0  0  0  0  0  0  0  0
  141.7622   73.2055  219.1055 H   0  0  0  0  0  0  0  0  0  0  0  0
  142.2939   74.6499  218.0813 H   0  0  0  0  0  0  0  0  0  0  0  0
  144.2195   73.8253  218.1006 H   0  0  0  0  0  0  0  0  0  0  0  0
  143.7585   72.0527  220.4791 H   0  0  0  0  0  0  0  0  0  0  0  0
  143.4892   71.6018  218.7689 H   0  0  0  0  0  0  0  0  0  0  0  0
  145.8460   71.1073  219.8941 H   0  0  0  0  0  0  0  0  0  0  0  0
  145.7883   71.7786  218.2239 H   0  0  0  0  0  0  0  0  0  0  0  0
  146.4120   73.8220  218.9590 H   0  0  0  0  0  0  0  0  0  0  0  0
  145.2315   72.9794  221.5000 H   0  0  0  0  0  0  0  0  0  0  0  0
  146.2637   74.4273  221.3832 H   0  0  0  0  0  0  0  0  0  0  0  0
  143.7071   74.7249  220.9990 H   0  0  0  0  0  0  0  0  0  0  0  0
  144.8172   75.4644  219.7961 H   0  0  0  0  0  0  0  0  0  0  0  0
  1  2  2  0
  2  3  1  0
  3  4  2  0
  4  5  1  0
  5  6  2  0
  6  7  1  0
  7  8  2  0
  8  9  1  0
  9 10  2  0
 10 11  1  0
 11 12  2  0
 12 13  1  0
 13 14  2  0
 14 15  1  0
 15 16  2  0
 16 17  1  0
 17 18  1  0
 18 19  1  0
 19 20  1  0
 20 21  1  0
 21 22  1  0
 17 23  2  0
 10 24  1  0
 24 25  1  0
 25 26  1  0
 26 27  1  0
 27 28  1  0
 28 29  1  0
 29 30  1  0
 30 31  1  0
 24  2  1  0
 31 26  1  0
  8  3  1  0
 23 13  1  0
 22 18  1  0
  4 32  1  0
  5 33  1  0
  6 34  1  0
  7 35  1  0
 11 36  1  0
 12 37  1  0
 14 38  1  0
 15 39  1  0
 16 40  1  0
 19 41  1  0
 19 42  1  0
 20 43  1  0
 20 44  1  0
 21 45  1  0
 21 46  1  0
 22 47  1  0
 22 48  1  0
 23 49  1  0
 25 50  1  0
 25 51  1  0
 26 52  1  0
 27 53  1  0
 27 54  1  0
 28 55  1  0
 28 56  1  0
 29 57  1  0
 30 58  1  0
 30 59  1  0
 31 60  1  0
 31 61  1  0
M  END
>  <smiles>  (17) 
O=c1c2ccccc2nc(/C=C/c2cccc(N3CCCC3)c2)n1CC1CCNCC1

>  <score_type>  (17) 
oracle

>  <origin>  (17) 
autodockgpu

>  <m_score__min__energy>  (17) 
-9.4900000000000002

>  <m_primary>  (17) 
energy

>  <rmsd>  (17) 
7.704922264920178

>  <m_score__min__rmsd>  (17) 
7.704922264920178

>  <meeko>  (17) 
{"free_energy": -9.49, "intermolecular_energy": -11.28, "internal_energy": -1.42, "cluster_size": 28, "cluster_id": 1, "rank_in_cluster": 2}

>  <energy>  (17) 
-9.08

>  <cluster_rmsd>  (17) 
0.51

>  <cluster>  (17) 
1

$$$$

     RDKit          3D

 61 65  0  0  0  0  0  0  0  0999 V2000
  142.6430   76.9040  218.6740 O   0  0  0  0  0  0  0  0  0  0  0  0
  142.1130   76.4620  219.7340 C   0  0  0  0  0  0  0  0  0  0  0  0
  141.6890   77.3770  220.6750 C   0  0  0  0  0  0  0  0  0  0  0  0
  141.8210   78.7400  220.5050 C   0  0  0  0  0  0  0  0  0  0  0  0
  141.3930   79.6580  221.4530 C   0  0  0  0  0  0  0  0  0  0  0  0
  140.8130   79.1490  222.6130 C   0  0  0  0  0  0  0  0  0  0  0  0
  140.6710   77.7790  222.8050 C   0  0  0  0  0  0  0  0  0  0  0  0
  141.1120   76.8920  221.8290 C   0  0  0  0  0  0  0  0  0  0  0  0
  140.9960   75.5600  221.9700 N   0  0  0  0  0  0  0  0  0  0  0  0
  141.4050   74.6810  221.0630 C   0  0  0  0  0  0  0  0  0  0  0  0
  141.2430   73.2540  221.3100 C   0  0  0  0  0  0  0  0  0  0  0  0
  140.0310   72.7590  221.4630 C   0  0  0  0  0  0  0  0  0  0  0  0
  139.6990   71.6910  222.3980 C   0  0  0  0  0  0  0  0  0  0  0  0
  138.9270   70.6140  222.1130 C   0  0  0  0  0  0  0  0  0  0  0  0
  138.6310   69.6120  223.0310 C   0  0  0  0  0  0  0  0  0  0  0  0
  139.1500   69.7060  224.3250 C   0  0  0  0  0  0  0  0  0  0  0  0
  139.9390   70.7920  224.6400 C   0  0  0  0  0  0  0  0  0  0  0  0
  140.4600   70.8720  225.9600 N   0  0  0  0  0  0  0  0  0  0  0  0
  140.1650   69.9030  227.0000 C   0  0  0  0  0  0  0  0  0  0  0  0
  140.9810   70.3480  228.1920 C   0  0  0  0  0  0  0  0  0  0  0  0
  141.0340   71.8590  227.9600 C   0  0  0  0  0  0  0  0  0  0  0  0
  141.3460   71.9020  226.4770 C   0  0  0  0  0  0  0  0  0  0  0  0
  140.2130   71.7700  223.6980 C   0  0  0  0  0  0  0  0  0  0  0  0
  141.9720   75.1150  219.9250 N   0  0  0  0  0  0  0  0  0  0  0  0
  142.4410   74.2700  218.8670 C   0  0  0  0  0  0  0  0  0  0  0  0
  143.8390   73.7810  218.9880 C   0  0  0  0  0  0  0  0  0  0  0  0
  144.0220   72.3400  219.3060 C   0  0  0  0  0  0  0  0  0  0  0  0
  145.5170   72.0000  219.1960 C   0  0  0  0  0  0  0  0  0  0  0  0
  146.3170   73.1130  219.6730 N   0  0  0  0  0  0  0  0  0  0  0  0
  145.5780   73.7510  220.7540 C   0  0  0  0  0  0  0  0  0  0  0  0
  144.4790   74.5720  220.1270 C   0  0  0  0  0  0  0  0  0  0  0  0
  142.2845   79.1139  219.5801 H   0  0  0  0  0  0  0  0  0  0  0  0
  141.5066   80.7407  221.2956 H   0  0  0  0  0  0  0  0  0  0  0  0
  140.4612   79.8429  223.3906 H   0  0  0  0  0  0  0  0  0  0  0  0
  140.2103   77.3973  223.7281 H   0  0  0  0  0  0  0  0  0  0  0  0
  142.1231   72.5967  221.3682 H   0  0  0  0  0  0  0  0  0  0  0  0
  139.2208   73.1773  220.8477 H   0  0  0  0  0  0  0  0  0  0  0  0
  138.5111   70.5275  221.0983 H   0  0  0  0  0  0  0  0  0  0  0  0
  137.9985   68.7593  222.7431 H   0  0  0  0  0  0  0  0  0  0  0  0
  138.9340   68.9312  225.0753 H   0  0  0  0  0  0  0  0  0  0  0  0
  139.0919   69.9099  227.2417 H   0  0  0  0  0  0  0  0  0  0  0  0
  140.4114   68.8766  226.6904 H   0  0  0  0  0  0  0  0  0  0  0  0
  140.4796   70.1019  229.1397 H   0  0  0  0  0  0  0  0  0  0  0  0
  141.9666   69.8663  228.2728 H   0  0  0  0  0  0  0  0  0  0  0  0
  140.0700   72.3383  228.1859 H   0  0  0  0  0  0  0  0  0  0  0  0
  141.7550   72.3945  228.5951 H   0  0  0  0  0  0  0  0  0  0  0  0
  141.1110   72.8864  226.0461 H   0  0  0  0  0  0  0  0  0  0  0  0
  142.4075   71.7390  226.2389 H   0  0  0  0  0  0  0  0  0  0  0  0
  140.8465   72.6250  223.9766 H   0  0  0  0  0  0  0  0  0  0  0  0
  141.7809   73.3912  218.8219 H   0  0  0  0  0  0  0  0  0  0  0  0
  142.4254   74.8954  217.9622 H   0  0  0  0  0  0  0  0  0  0  0  0
  144.2901   73.9192  217.9943 H   0  0  0  0  0  0  0  0  0  0  0  0
  143.6703   72.1385  220.3286 H   0  0  0  0  0  0  0  0  0  0  0  0
  143.4434   71.7233  218.6025 H   0  0  0  0  0  0  0  0  0  0  0  0
  145.7334   71.1092  219.8040 H   0  0  0  0  0  0  0  0  0  0  0  0
  145.7653   71.8029  218.1427 H   0  0  0  0  0  0  0  0  0  0  0  0
  146.4500   73.8090  218.9290 H   0  0  0  0  0  0  0  0  0  0  0  0
  145.1451   72.9864  221.4157 H   0  0  0  0  0  0  0  0  0  0  0  0
  146.2431   74.3879  221.3557 H   0  0  0  0  0  0  0  0  0  0  0  0
  143.7169   74.8046  220.8854 H   0  0  0  0  0  0  0  0  0  0  0  0
  144.9006   75.5079  219.7317 H   0  0  0  0  0  0  0  0  0  0  0  0
  1  2  2  0
  2  3  1  0
  3  4  2  0
  4  5  1  0
  5  6  2  0
  6  7  1  0
  7  8  2  0
  8  9  1  0
  9 10  2  0
 10 11  1  0
 11 12  2  0
 12 13  1  0
 13 14  2  0
 14 15  1  0
 15 16  2  0
 16 17  1  0
 17 18  1  0
 18 19  1  0
 19 20  1  0
 20 21  1  0
 21 22  1  0
 17 23  2  0
 10 24  1  0
 24 25  1  0
 25 26  1  0
 26 27  1  0
 27 28  1  0
 28 29  1  0
 29 30  1  0
 30 31  1  0
 24  2  1  0
 31 26  1  0
  8  3  1  0
 23 13  1  0
 22 18  1  0
  4 32  1  0
  5 33  1  0
  6 34  1  0
  7 35  1  0
 11 36  1  0
 12 37  1  0
 14 38  1  0
 15 39  1  0
 16 40  1  0
 19 41  1  0
 19 42  1  0
 20 43  1  0
 20 44  1  0
 21 45  1  0
 21 46  1  0
 22 47  1  0
 22 48  1  0
 23 49  1  0
 25 50  1  0
 25 51  1  0
 26 52  1  0
 27 53  1  0
 27 54  1  0
 28 55  1  0
 28 56  1  0
 29 57  1  0
 30 58  1  0
 30 59  1  0
 31 60  1  0
 31 61  1  0
M  END
>  <smiles>  (18) 
O=c1c2ccccc2nc(/C=C/c2cccc(N3CCCC3)c2)n1CC1CCNCC1

>  <score_type>  (18) 
oracle

>  <origin>  (18) 
autodockgpu

>  <m_score__min__energy>  (18) 
-9.4900000000000002

>  <m_primary>  (18) 
energy

>  <rmsd>  (18) 
7.697244771194239

>  <m_score__min__rmsd>  (18) 
7.697244771194239

>  <meeko>  (18) 
{"free_energy": -9.49, "intermolecular_energy": -11.28, "internal_energy": -1.44, "cluster_size": 28, "cluster_id": 1, "rank_in_cluster": 1}

>  <energy>  (18) 
-9.05

>  <cluster_rmsd>  (18) 
0.65

>  <cluster>  (18) 
1

$$$$

     RDKit          3D

 61 65  0  0  0  0  0  0  0  0999 V2000
  143.1120   76.4240  220.0220 O   0  0  0  0  0  0  0  0  0  0  0  0
  142.5980   75.3450  220.4360 C   0  0  0  0  0  0  0  0  0  0  0  0
  143.3460   74.1920  220.3330 C   0  0  0  0  0  0  0  0  0  0  0  0
  144.6190   74.1710  219.7990 C   0  0  0  0  0  0  0  0  0  0  0  0
  145.3700   73.0090  219.6970 C   0  0  0  0  0  0  0  0  0  0  0  0
  144.7850   71.8320  220.1600 C   0  0  0  0  0  0  0  0  0  0  0  0
  143.5030   71.8310  220.7010 C   0  0  0  0  0  0  0  0  0  0  0  0
  142.7840   73.0180  220.7860 C   0  0  0  0  0  0  0  0  0  0  0  0
  141.5430   73.0650  221.3000 N   0  0  0  0  0  0  0  0  0  0  0  0
  140.8240   74.1770  221.3980 C   0  0  0  0  0  0  0  0  0  0  0  0
  139.4820   74.1260  221.9650 C   0  0  0  0  0  0  0  0  0  0  0  0
  138.7680   73.0260  221.8360 C   0  0  0  0  0  0  0  0  0  0  0  0
  139.0510   71.7830  222.5440 C   0  0  0  0  0  0  0  0  0  0  0  0
  138.8470   70.5380  222.0490 C   0  0  0  0  0  0  0  0  0  0  0  0
  139.1310   69.3730  222.7540 C   0  0  0  0  0  0  0  0  0  0  0  0
  139.6530   69.4730  224.0450 C   0  0  0  0  0  0  0  0  0  0  0  0
  139.8700   70.7300  224.5710 C   0  0  0  0  0  0  0  0  0  0  0  0
  140.4030   70.8150  225.8860 N   0  0  0  0  0  0  0  0  0  0  0  0
  140.1420   69.8330  226.9240 C   0  0  0  0  0  0  0  0  0  0  0  0
  140.9600   70.2920  228.1090 C   0  0  0  0  0  0  0  0  0  0  0  0
  140.9760   71.8050  227.8850 C   0  0  0  0  0  0  0  0  0  0  0  0
  141.2710   71.8620  226.3990 C   0  0  0  0  0  0  0  0  0  0  0  0
  139.5770   71.8680  223.8390 C   0  0  0  0  0  0  0  0  0  0  0  0
  141.3380   75.3410  220.9690 N   0  0  0  0  0  0  0  0  0  0  0  0
  140.6700   76.6070  221.0310 C   0  0  0  0  0  0  0  0  0  0  0  0
  141.4340   77.7240  221.6430 C   0  0  0  0  0  0  0  0  0  0  0  0
  140.9220   78.2620  222.9320 C   0  0  0  0  0  0  0  0  0  0  0  0
  141.9470   79.2640  223.4860 C   0  0  0  0  0  0  0  0  0  0  0  0
  142.5490   80.0140  222.3980 N   0  0  0  0  0  0  0  0  0  0  0  0
  141.5320   80.1850  221.3710 C   0  0  0  0  0  0  0  0  0  0  0  0
  141.4020   78.8730  220.6380 C   0  0  0  0  0  0  0  0  0  0  0  0
  145.0558   75.1144  219.4396 H   0  0  0  0  0  0  0  0  0  0  0  0
  146.3834   73.0164  219.2692 H   0  0  0  0  0  0  0  0  0  0  0  0
  145.3461   70.8880  220.0967 H   0  0  0  0  0  0  0  0  0  0  0  0
  143.0586   70.8915  221.0613 H   0  0  0  0  0  0  0  0  0  0  0  0
  139.0695   74.9970  222.4952 H   0  0  0  0  0  0  0  0  0  0  0  0
  137.9062   73.0467  221.1527 H   0  0  0  0  0  0  0  0  0  0  0  0
  138.4341   70.4436  221.0338 H   0  0  0  0  0  0  0  0  0  0  0  0
  138.9470   68.3876  222.3011 H   0  0  0  0  0  0  0  0  0  0  0  0
  139.8859   68.5706  224.6293 H   0  0  0  0  0  0  0  0  0  0  0  0
  139.0717   69.8128  227.1772 H   0  0  0  0  0  0  0  0  0  0  0  0
  140.4091   68.8143  226.6065 H   0  0  0  0  0  0  0  0  0  0  0  0
  140.4747   70.0297  229.0607 H   0  0  0  0  0  0  0  0  0  0  0  0
  141.9575   69.8332  228.1761 H   0  0  0  0  0  0  0  0  0  0  0  0
  140.0039   72.2610  228.1237 H   0  0  0  0  0  0  0  0  0  0  0  0
  141.6911   72.3539  228.5154 H   0  0  0  0  0  0  0  0  0  0  0  0
  141.0095   72.8430  225.9756 H   0  0  0  0  0  0  0  0  0  0  0  0
  142.3333   71.7238  226.1490 H   0  0  0  0  0  0  0  0  0  0  0  0
  139.7608   72.8575  224.2830 H   0  0  0  0  0  0  0  0  0  0  0  0
  140.4122   76.9008  220.0028 H   0  0  0  0  0  0  0  0  0  0  0  0
  139.8026   76.4494  221.6888 H   0  0  0  0  0  0  0  0  0  0  0  0
  142.4286   77.3145  221.8735 H   0  0  0  0  0  0  0  0  0  0  0  0
  139.9601   78.7692  222.7661 H   0  0  0  0  0  0  0  0  0  0  0  0
  140.7727   77.4414  223.6492 H   0  0  0  0  0  0  0  0  0  0  0  0
  141.4417   79.9599  224.1719 H   0  0  0  0  0  0  0  0  0  0  0  0
  142.7339   78.7145  224.0235 H   0  0  0  0  0  0  0  0  0  0  0  0
  143.3290   79.4880  221.9850 H   0  0  0  0  0  0  0  0  0  0  0  0
  140.5712   80.4527  221.8349 H   0  0  0  0  0  0  0  0  0  0  0  0
  141.8143   80.9901  220.6767 H   0  0  0  0  0  0  0  0  0  0  0  0
  140.4495   78.8529  220.0881 H   0  0  0  0  0  0  0  0  0  0  0  0
  142.2364   78.7642  219.9295 H   0  0  0  0  0  0  0  0  0  0  0  0
  1  2  2  0
  2  3  1  0
  3  4  2  0
  4  5  1  0
  5  6  2  0
  6  7  1  0
  7  8  2  0
  8  9  1  0
  9 10  2  0
 10 11  1  0
 11 12  2  0
 12 13  1  0
 13 14  2  0
 14 15  1  0
 15 16  2  0
 16 17  1  0
 17 18  1  0
 18 19  1  0
 19 20  1  0
 20 21  1  0
 21 22  1  0
 17 23  2  0
 10 24  1  0
 24 25  1  0
 25 26  1  0
 26 27  1  0
 27 28  1  0
 28 29  1  0
 29 30  1  0
 30 31  1  0
 24  2  1  0
 31 26  1  0
  8  3  1  0
 23 13  1  0
 22 18  1  0
  4 32  1  0
  5 33  1  0
  6 34  1  0
  7 35  1  0
 11 36  1  0
 12 37  1  0
 14 38  1  0
 15 39  1  0
 16 40  1  0
 19 41  1  0
 19 42  1  0
 20 43  1  0
 20 44  1  0
 21 45  1  0
 21 46  1  0
 22 47  1  0
 22 48  1  0
 23 49  1  0
 25 50  1  0
 25 51  1  0
 26 52  1  0
 27 53  1  0
 27 54  1  0
 28 55  1  0
 28 56  1  0
 29 57  1  0
 30 58  1  0
 30 59  1  0
 31 60  1  0
 31 61  1  0
M  END
>  <smiles>  (19) 
O=c1c2ccccc2nc(/C=C/c2cccc(N3CCCC3)c2)n1CC1CCNCC1

>  <score_type>  (19) 
oracle

>  <origin>  (19) 
autodockgpu

>  <m_score__min__energy>  (19) 
-9.4900000000000002

>  <m_primary>  (19) 
energy

>  <rmsd>  (19) 
4.596241147475313

>  <m_score__min__rmsd>  (19) 
4.596241147475313

>  <meeko>  (19) 
{"free_energy": -8.83, "intermolecular_energy": -10.62, "internal_energy": -1.47, "cluster_size": 5, "cluster_id": 2, "rank_in_cluster": 3}

>  <energy>  (19) 
-9.01

>  <cluster_rmsd>  (19) 
0.47

>  <cluster>  (19) 
1

$$$$

     RDKit          3D

 61 65  0  0  0  0  0  0  0  0999 V2000
  137.2270   77.9550  222.4480 O   0  0  0  0  0  0  0  0  0  0  0  0
  138.3920   77.4730  222.3450 C   0  0  0  0  0  0  0  0  0  0  0  0
  139.4500   78.2430  222.7800 C   0  0  0  0  0  0  0  0  0  0  0  0
  139.2870   79.5040  223.3150 C   0  0  0  0  0  0  0  0  0  0  0  0
  140.3540   80.2760  223.7520 C   0  0  0  0  0  0  0  0  0  0  0  0
  141.6290   79.7260  223.6300 C   0  0  0  0  0  0  0  0  0  0  0  0
  141.8150   78.4570  223.0930 C   0  0  0  0  0  0  0  0  0  0  0  0
  140.7180   77.7140  222.6670 C   0  0  0  0  0  0  0  0  0  0  0  0
  140.8500   76.4850  222.1410 N   0  0  0  0  0  0  0  0  0  0  0  0
  139.8290   75.7450  221.7230 C   0  0  0  0  0  0  0  0  0  0  0  0
  140.0730   74.4230  221.1590 C   0  0  0  0  0  0  0  0  0  0  0  0
  140.6550   73.5020  221.9010 C   0  0  0  0  0  0  0  0  0  0  0  0
  139.9420   72.4120  222.5550 C   0  0  0  0  0  0  0  0  0  0  0  0
  138.9150   71.7140  222.0120 C   0  0  0  0  0  0  0  0  0  0  0  0
  138.2570   70.6760  222.6650 C   0  0  0  0  0  0  0  0  0  0  0  0
  138.6650   70.3220  223.9530 C   0  0  0  0  0  0  0  0  0  0  0  0
  139.7090   71.0170  224.5270 C   0  0  0  0  0  0  0  0  0  0  0  0
  140.1120   70.6440  225.8380 N   0  0  0  0  0  0  0  0  0  0  0  0
  140.8410   71.5220  226.7350 C   0  0  0  0  0  0  0  0  0  0  0  0
  140.9850   70.7370  228.0190 C   0  0  0  0  0  0  0  0  0  0  0  0
  141.0100   69.3040  227.4820 C   0  0  0  0  0  0  0  0  0  0  0  0
  139.8720   69.3620  226.4820 C   0  0  0  0  0  0  0  0  0  0  0  0
  140.3400   72.0440  223.8450 C   0  0  0  0  0  0  0  0  0  0  0  0
  138.5780   76.2250  221.8170 N   0  0  0  0  0  0  0  0  0  0  0  0
  137.3970   75.5220  221.4140 C   0  0  0  0  0  0  0  0  0  0  0  0
  136.8620   74.5260  222.3790 C   0  0  0  0  0  0  0  0  0  0  0  0
  135.8510   73.5660  221.8620 C   0  0  0  0  0  0  0  0  0  0  0  0
  135.5760   72.5140  222.9480 C   0  0  0  0  0  0  0  0  0  0  0  0
  135.6100   73.1330  224.2610 N   0  0  0  0  0  0  0  0  0  0  0  0
  135.0970   74.4880  224.1170 C   0  0  0  0  0  0  0  0  0  0  0  0
  136.1900   75.3210  223.4950 C   0  0  0  0  0  0  0  0  0  0  0  0
  138.2698   79.9142  223.3986 H   0  0  0  0  0  0  0  0  0  0  0  0
  140.2003   81.2791  224.1765 H   0  0  0  0  0  0  0  0  0  0  0  0
  142.5023   80.3054  223.9640 H   0  0  0  0  0  0  0  0  0  0  0  0
  142.8292   78.0403  223.0049 H   0  0  0  0  0  0  0  0  0  0  0  0
  139.7745   74.1964  220.1248 H   0  0  0  0  0  0  0  0  0  0  0  0
  141.7453   73.5596  222.0348 H   0  0  0  0  0  0  0  0  0  0  0  0
  138.5829   71.9830  220.9984 H   0  0  0  0  0  0  0  0  0  0  0  0
  137.4290   70.1430  222.1747 H   0  0  0  0  0  0  0  0  0  0  0  0
  138.1650   69.5073  224.4973 H   0  0  0  0  0  0  0  0  0  0  0  0
  141.8293   71.7664  226.3183 H   0  0  0  0  0  0  0  0  0  0  0  0
  140.3200   72.4781  226.8913 H   0  0  0  0  0  0  0  0  0  0  0  0
  141.9184   70.9883  228.5439 H   0  0  0  0  0  0  0  0  0  0  0  0
  140.1957   70.9304  228.7604 H   0  0  0  0  0  0  0  0  0  0  0  0
  141.9676   69.0702  226.9939 H   0  0  0  0  0  0  0  0  0  0  0  0
  140.9041   68.5250  228.2513 H   0  0  0  0  0  0  0  0  0  0  0  0
  139.9293   68.5336  225.7605 H   0  0  0  0  0  0  0  0  0  0  0  0
  138.8738   69.2691  226.9348 H   0  0  0  0  0  0  0  0  0  0  0  0
  141.1703   72.5810  224.3269 H   0  0  0  0  0  0  0  0  0  0  0  0
  136.6093   76.2676  221.2306 H   0  0  0  0  0  0  0  0  0  0  0  0
  137.6893   74.9424  220.5260 H   0  0  0  0  0  0  0  0  0  0  0  0
  137.7219   73.9092  222.6794 H   0  0  0  0  0  0  0  0  0  0  0  0
  134.9209   74.1013  221.6202 H   0  0  0  0  0  0  0  0  0  0  0  0
  136.2271   73.0773  220.9511 H   0  0  0  0  0  0  0  0  0  0  0  0
  134.5840   72.0691  222.7809 H   0  0  0  0  0  0  0  0  0  0  0  0
  136.3492   71.7332  222.8975 H   0  0  0  0  0  0  0  0  0  0  0  0
  136.5740   73.1950  224.6070 H   0  0  0  0  0  0  0  0  0  0  0  0
  134.2094   74.4868  223.4673 H   0  0  0  0  0  0  0  0  0  0  0  0
  134.8050   74.8985  225.0949 H   0  0  0  0  0  0  0  0  0  0  0  0
  135.7571   76.2428  223.0792 H   0  0  0  0  0  0  0  0  0  0  0  0
  136.9355   75.5796  224.2614 H   0  0  0  0  0  0  0  0  0  0  0  0
  1  2  2  0
  2  3  1  0
  3  4  2  0
  4  5  1  0
  5  6  2  0
  6  7  1  0
  7  8  2  0
  8  9  1  0
  9 10  2  0
 10 11  1  0
 11 12  2  0
 12 13  1  0
 13 14  2  0
 14 15  1  0
 15 16  2  0
 16 17  1  0
 17 18  1  0
 18 19  1  0
 19 20  1  0
 20 21  1  0
 21 22  1  0
 17 23  2  0
 10 24  1  0
 24 25  1  0
 25 26  1  0
 26 27  1  0
 27 28  1  0
 28 29  1  0
 29 30  1  0
 30 31  1  0
 24  2  1  0
 31 26  1  0
  8  3  1  0
 23 13  1  0
 22 18  1  0
  4 32  1  0
  5 33  1  0
  6 34  1  0
  7 35  1  0
 11 36  1  0
 12 37  1  0
 14 38  1  0
 15 39  1  0
 16 40  1  0
 19 41  1  0
 19 42  1  0
 20 43  1  0
 20 44  1  0
 21 45  1  0
 21 46  1  0
 22 47  1  0
 22 48  1  0
 23 49  1  0
 25 50  1  0
 25 51  1  0
 26 52  1  0
 27 53  1  0
 27 54  1  0
 28 55  1  0
 28 56  1  0
 29 57  1  0
 30 58  1  0
 30 59  1  0
 31 60  1  0
 31 61  1  0
M  END
>  <smiles>  (20) 
O=c1c2ccccc2nc(/C=C/c2cccc(N3CCCC3)c2)n1CC1CCNCC1

>  <score_type>  (20) 
oracle

>  <origin>  (20) 
autodockgpu

>  <m_score__min__energy>  (20) 
-9.4900000000000002

>  <m_primary>  (20) 
energy

>  <rmsd>  (20) 
7.559215354753396

>  <m_score__min__rmsd>  (20) 
7.559215354753396

>  <meeko>  (20) 
{"free_energy": -8.17, "intermolecular_energy": -9.96, "internal_energy": -2.1, "cluster_size": 6, "cluster_id": 5, "rank_in_cluster": 4}

>  <energy>  (20) 
-8.91

>  <cluster_rmsd>  (20) 
0.62

>  <cluster>  (20) 
1

$$$$

     RDKit          3D

 61 65  0  0  0  0  0  0  0  0999 V2000
  141.0640   71.4280  224.5160 O   0  0  0  0  0  0  0  0  0  0  0  0
  140.2470   70.4920  224.7570 C   0  0  0  0  0  0  0  0  0  0  0  0
  140.2680   69.9230  226.0120 C   0  0  0  0  0  0  0  0  0  0  0  0
  141.1360   70.3300  227.0040 C   0  0  0  0  0  0  0  0  0  0  0  0
  141.1540   69.7560  228.2670 C   0  0  0  0  0  0  0  0  0  0  0  0
  140.2460   68.7270  228.5100 C   0  0  0  0  0  0  0  0  0  0  0  0
  139.3630   68.3010  227.5240 C   0  0  0  0  0  0  0  0  0  0  0  0
  139.3760   68.9030  226.2700 C   0  0  0  0  0  0  0  0  0  0  0  0
  138.5430   68.5240  225.2870 N   0  0  0  0  0  0  0  0  0  0  0  0
  138.5250   69.0740  224.0790 C   0  0  0  0  0  0  0  0  0  0  0  0
  137.5870   68.5880  223.0740 C   0  0  0  0  0  0  0  0  0  0  0  0
  136.4160   69.1800  222.9440 C   0  0  0  0  0  0  0  0  0  0  0  0
  135.6680   69.7580  224.0530 C   0  0  0  0  0  0  0  0  0  0  0  0
  135.1120   69.0560  225.0700 C   0  0  0  0  0  0  0  0  0  0  0  0
  134.4040   69.6410  226.1150 C   0  0  0  0  0  0  0  0  0  0  0  0
  134.2470   71.0290  226.1310 C   0  0  0  0  0  0  0  0  0  0  0  0
  134.8050   71.7670  225.1080 C   0  0  0  0  0  0  0  0  0  0  0  0
  134.6370   73.1770  225.1400 N   0  0  0  0  0  0  0  0  0  0  0  0
  135.4350   74.0990  224.3510 C   0  0  0  0  0  0  0  0  0  0  0  0
  134.8640   75.4660  224.6520 C   0  0  0  0  0  0  0  0  0  0  0  0
  134.3530   75.2610  226.0790 C   0  0  0  0  0  0  0  0  0  0  0  0
  133.6720   73.9140  225.9390 C   0  0  0  0  0  0  0  0  0  0  0  0
  135.5040   71.1480  224.0850 C   0  0  0  0  0  0  0  0  0  0  0  0
  139.3770   70.0700  223.7890 N   0  0  0  0  0  0  0  0  0  0  0  0
  139.4480   70.7500  222.5300 C   0  0  0  0  0  0  0  0  0  0  0  0
  139.2090   72.2170  222.5610 C   0  0  0  0  0  0  0  0  0  0  0  0
  138.1470   72.7430  221.6610 C   0  0  0  0  0  0  0  0  0  0  0  0
  137.9280   74.2300  221.9830 C   0  0  0  0  0  0  0  0  0  0  0  0
  139.1940   74.8610  222.3120 N   0  0  0  0  0  0  0  0  0  0  0  0
  140.2240   74.2170  221.5090 C   0  0  0  0  0  0  0  0  0  0  0  0
  140.5180   72.8790  222.1380 C   0  0  0  0  0  0  0  0  0  0  0  0
  141.8432   71.1434  226.7845 H   0  0  0  0  0  0  0  0  0  0  0  0
  141.8546   70.0982  229.0429 H   0  0  0  0  0  0  0  0  0  0  0  0
  140.2276   68.2439  229.4981 H   0  0  0  0  0  0  0  0  0  0  0  0
  138.6537   67.4874  227.7357 H   0  0  0  0  0  0  0  0  0  0  0  0
  137.8535   67.7363  222.4309 H   0  0  0  0  0  0  0  0  0  0  0  0
  135.9771   69.2413  221.9372 H   0  0  0  0  0  0  0  0  0  0  0  0
  135.2269   67.9620  225.0693 H   0  0  0  0  0  0  0  0  0  0  0  0
  133.9748   69.0207  226.9156 H   0  0  0  0  0  0  0  0  0  0  0  0
  133.6906   71.5225  226.9415 H   0  0  0  0  0  0  0  0  0  0  0  0
  136.4927   74.0476  224.6487 H   0  0  0  0  0  0  0  0  0  0  0  0
  135.3986   73.8630  223.2772 H   0  0  0  0  0  0  0  0  0  0  0  0
  135.6385   76.2459  224.6084 H   0  0  0  0  0  0  0  0  0  0  0  0
  134.0968   75.8039  223.9397 H   0  0  0  0  0  0  0  0  0  0  0  0
  135.1789   75.2248  226.8046 H   0  0  0  0  0  0  0  0  0  0  0  0
  133.7032   76.0660  226.4528 H   0  0  0  0  0  0  0  0  0  0  0  0
  133.5171   73.4393  226.9191 H   0  0  0  0  0  0  0  0  0  0  0  0
  132.6685   73.9656  225.4914 H   0  0  0  0  0  0  0  0  0  0  0  0
  135.9390   71.7607  223.2817 H   0  0  0  0  0  0  0  0  0  0  0  0
  140.4526   70.5825  222.1145 H   0  0  0  0  0  0  0  0  0  0  0  0
  138.6311   70.3318  221.9235 H   0  0  0  0  0  0  0  0  0  0  0  0
  138.8648   72.4427  223.5811 H   0  0  0  0  0  0  0  0  0  0  0  0
  138.4608   72.6326  220.6125 H   0  0  0  0  0  0  0  0  0  0  0  0
  137.2126   72.1827  221.8125 H   0  0  0  0  0  0  0  0  0  0  0  0
  137.4884   74.7309  221.1079 H   0  0  0  0  0  0  0  0  0  0  0  0
  137.2485   74.3157  222.8438 H   0  0  0  0  0  0  0  0  0  0  0  0
  139.4260   74.7120  223.3010 H   0  0  0  0  0  0  0  0  0  0  0  0
  139.8644   74.0769  220.4789 H   0  0  0  0  0  0  0  0  0  0  0  0
  141.1321   74.8367  221.4741 H   0  0  0  0  0  0  0  0  0  0  0  0
  141.0349   72.2370  221.4095 H   0  0  0  0  0  0  0  0  0  0  0  0
  141.1588   73.0216  223.0206 H   0  0  0  0  0  0  0  0  0  0  0  0
  1  2  2  0
  2  3  1  0
  3  4  2  0
  4  5  1  0
  5  6  2  0
  6  7  1  0
  7  8  2  0
  8  9  1  0
  9 10  2  0
 10 11  1  0
 11 12  2  0
 12 13  1  0
 13 14  2  0
 14 15  1  0
 15 16  2  0
 16 17  1  0
 17 18  1  0
 18 19  1  0
 19 20  1  0
 20 21  1  0
 21 22  1  0
 17 23  2  0
 10 24  1  0
 24 25  1  0
 25 26  1  0
 26 27  1  0
 27 28  1  0
 28 29  1  0
 29 30  1  0
 30 31  1  0
 24  2  1  0
 31 26  1  0
  8  3  1  0
 23 13  1  0
 22 18  1  0
  4 32  1  0
  5 33  1  0
  6 34  1  0
  7 35  1  0
 11 36  1  0
 12 37  1  0
 14 38  1  0
 15 39  1  0
 16 40  1  0
 19 41  1  0
 19 42  1  0
 20 43  1  0
 20 44  1  0
 21 45  1  0
 21 46  1  0
 22 47  1  0
 22 48  1  0
 23 49  1  0
 25 50  1  0
 25 51  1  0
 26 52  1  0
 27 53  1  0
 27 54  1  0
 28 55  1  0
 28 56  1  0
 29 57  1  0
 30 58  1  0
 30 59  1  0
 31 60  1  0
 31 61  1  0
M  END
>  <smiles>  (21) 
O=c1c2ccccc2nc(/C=C/c2cccc(N3CCCC3)c2)n1CC1CCNCC1

>  <score_type>  (21) 
oracle

>  <origin>  (21) 
autodockgpu

>  <m_score__min__energy>  (21) 
-9.4900000000000002

>  <m_primary>  (21) 
energy

>  <rmsd>  (21) 
9.690470077325593

>  <m_score__min__rmsd>  (21) 
9.690470077325593

>  <meeko>  (21) 
{"free_energy": -7.99, "intermolecular_energy": -9.78, "internal_energy": -2.21, "cluster_size": 6, "cluster_id": 7, "rank_in_cluster": 1}

>  <energy>  (21) 
-8.91

>  <cluster_rmsd>  (21) 
0.68

>  <cluster>  (21) 
1

$$$$

     RDKit          3D

 61 65  0  0  0  0  0  0  0  0999 V2000
  141.7900   78.3540  219.2280 O   0  0  0  0  0  0  0  0  0  0  0  0
  141.4330   77.8420  220.3290 C   0  0  0  0  0  0  0  0  0  0  0  0
  141.6300   78.5770  221.4780 C   0  0  0  0  0  0  0  0  0  0  0  0
  142.1950   79.8360  221.4730 C   0  0  0  0  0  0  0  0  0  0  0  0
  142.3920   80.5740  222.6320 C   0  0  0  0  0  0  0  0  0  0  0  0
  141.9920   79.9900  223.8320 C   0  0  0  0  0  0  0  0  0  0  0  0
  141.4210   78.7230  223.8590 C   0  0  0  0  0  0  0  0  0  0  0  0
  141.2400   78.0160  222.6750 C   0  0  0  0  0  0  0  0  0  0  0  0
  140.6940   76.7880  222.6530 N   0  0  0  0  0  0  0  0  0  0  0  0
  140.5050   76.0820  221.5440 C   0  0  0  0  0  0  0  0  0  0  0  0
  139.9100   74.7530  221.6230 C   0  0  0  0  0  0  0  0  0  0  0  0
  140.6950   73.7000  221.7290 C   0  0  0  0  0  0  0  0  0  0  0  0
  140.2850   72.4360  222.3290 C   0  0  0  0  0  0  0  0  0  0  0  0
  139.7260   71.3980  221.6590 C   0  0  0  0  0  0  0  0  0  0  0  0
  139.3470   70.2050  222.2640 C   0  0  0  0  0  0  0  0  0  0  0  0
  139.5450   70.0500  223.6380 C   0  0  0  0  0  0  0  0  0  0  0  0
  140.1130   71.0910  224.3420 C   0  0  0  0  0  0  0  0  0  0  0  0
  140.3090   70.9180  225.7390 N   0  0  0  0  0  0  0  0  0  0  0  0
  141.0560   71.8470  226.5670 C   0  0  0  0  0  0  0  0  0  0  0  0
  140.9400   71.3000  227.9710 C   0  0  0  0  0  0  0  0  0  0  0  0
  140.8110   69.8020  227.6900 C   0  0  0  0  0  0  0  0  0  0  0  0
  139.8120   69.8180  226.5500 C   0  0  0  0  0  0  0  0  0  0  0  0
  140.4780   72.2650  223.7050 C   0  0  0  0  0  0  0  0  0  0  0  0
  140.8710   76.5950  220.3590 N   0  0  0  0  0  0  0  0  0  0  0  0
  140.7100   75.9390  219.0950 C   0  0  0  0  0  0  0  0  0  0  0  0
  141.8800   75.1670  218.6010 C   0  0  0  0  0  0  0  0  0  0  0  0
  143.0690   75.1060  219.4920 C   0  0  0  0  0  0  0  0  0  0  0  0
  144.0790   74.1150  218.8920 C   0  0  0  0  0  0  0  0  0  0  0  0
  144.0700   74.2090  217.4440 N   0  0  0  0  0  0  0  0  0  0  0  0
  143.8030   75.5980  217.0990 C   0  0  0  0  0  0  0  0  0  0  0  0
  142.3290   75.8410  217.3060 C   0  0  0  0  0  0  0  0  0  0  0  0
  142.5018   80.2726  220.5111 H   0  0  0  0  0  0  0  0  0  0  0  0
  142.8443   81.5763  222.6042 H   0  0  0  0  0  0  0  0  0  0  0  0
  142.1304   80.5409  224.7740 H   0  0  0  0  0  0  0  0  0  0  0  0
  141.1122   78.2794  224.8170 H   0  0  0  0  0  0  0  0  0  0  0  0
  138.8172   74.6308  221.5944 H   0  0  0  0  0  0  0  0  0  0  0  0
  141.7214   73.7794  221.3415 H   0  0  0  0  0  0  0  0  0  0  0  0
  139.5633   71.5059  220.5765 H   0  0  0  0  0  0  0  0  0  0  0  0
  138.8981   69.3955  221.6697 H   0  0  0  0  0  0  0  0  0  0  0  0
  139.2545   69.1190  224.1468 H   0  0  0  0  0  0  0  0  0  0  0  0
  142.1094   71.8844  226.2524 H   0  0  0  0  0  0  0  0  0  0  0  0
  140.6677   72.8733  226.4900 H   0  0  0  0  0  0  0  0  0  0  0  0
  141.8370   71.5235  228.5672 H   0  0  0  0  0  0  0  0  0  0  0  0
  140.1113   71.7249  228.5565 H   0  0  0  0  0  0  0  0  0  0  0  0
  141.7713   69.3627  227.3819 H   0  0  0  0  0  0  0  0  0  0  0  0
  140.5060   69.1982  228.5574 H   0  0  0  0  0  0  0  0  0  0  0  0
  139.8251   68.8702  225.9918 H   0  0  0  0  0  0  0  0  0  0  0  0
  138.7673   69.9374  226.8730 H   0  0  0  0  0  0  0  0  0  0  0  0
  140.9284   73.0792  224.2916 H   0  0  0  0  0  0  0  0  0  0  0  0
  139.8625   75.2434  219.1838 H   0  0  0  0  0  0  0  0  0  0  0  0
  140.5599   76.7457  218.3624 H   0  0  0  0  0  0  0  0  0  0  0  0
  141.5337   74.1272  218.5064 H   0  0  0  0  0  0  0  0  0  0  0  0
  143.5276   76.1030  219.5672 H   0  0  0  0  0  0  0  0  0  0  0  0
  142.7694   74.7757  220.4975 H   0  0  0  0  0  0  0  0  0  0  0  0
  145.0863   74.3511  219.2656 H   0  0  0  0  0  0  0  0  0  0  0  0
  143.7999   73.0930  219.1881 H   0  0  0  0  0  0  0  0  0  0  0  0
  143.3160   73.6350  217.0490 H   0  0  0  0  0  0  0  0  0  0  0  0
  144.3885   76.2655  217.7483 H   0  0  0  0  0  0  0  0  0  0  0  0
  144.0861   75.7994  216.0553 H   0  0  0  0  0  0  0  0  0  0  0  0
  142.1411   76.9229  217.3712 H   0  0  0  0  0  0  0  0  0  0  0  0
  141.7654   75.4219  216.4594 H   0  0  0  0  0  0  0  0  0  0  0  0
  1  2  2  0
  2  3  1  0
  3  4  2  0
  4  5  1  0
  5  6  2  0
  6  7  1  0
  7  8  2  0
  8  9  1  0
  9 10  2  0
 10 11  1  0
 11 12  2  0
 12 13  1  0
 13 14  2  0
 14 15  1  0
 15 16  2  0
 16 17  1  0
 17 18  1  0
 18 19  1  0
 19 20  1  0
 20 21  1  0
 21 22  1  0
 17 23  2  0
 10 24  1  0
 24 25  1  0
 25 26  1  0
 26 27  1  0
 27 28  1  0
 28 29  1  0
 29 30  1  0
 30 31  1  0
 24  2  1  0
 31 26  1  0
  8  3  1  0
 23 13  1  0
 22 18  1  0
  4 32  1  0
  5 33  1  0
  6 34  1  0
  7 35  1  0
 11 36  1  0
 12 37  1  0
 14 38  1  0
 15 39  1  0
 16 40  1  0
 19 41  1  0
 19 42  1  0
 20 43  1  0
 20 44  1  0
 21 45  1  0
 21 46  1  0
 22 47  1  0
 22 48  1  0
 23 49  1  0
 25 50  1  0
 25 51  1  0
 26 52  1  0
 27 53  1  0
 27 54  1  0
 28 55  1  0
 28 56  1  0
 29 57  1  0
 30 58  1  0
 30 59  1  0
 31 60  1  0
 31 61  1  0
M  END
>  <smiles>  (22) 
O=c1c2ccccc2nc(/C=C/c2cccc(N3CCCC3)c2)n1CC1CCNCC1

>  <score_type>  (22) 
oracle

>  <origin>  (22) 
autodockgpu

>  <m_score__min__energy>  (22) 
-9.4900000000000002

>  <m_primary>  (22) 
energy

>  <rmsd>  (22) 
6.777646432830439

>  <m_score__min__rmsd>  (22) 
6.777646432830439

>  <meeko>  (22) 
{"free_energy": -7.92, "intermolecular_energy": -9.71, "internal_energy": -1.59, "cluster_size": 28, "cluster_id": 1, "rank_in_cluster": 28}

>  <energy>  (22) 
-8.8

>  <cluster_rmsd>  (22) 
0.8

>  <cluster>  (22) 
1

$$$$

     RDKit          3D

 61 65  0  0  0  0  0  0  0  0999 V2000
  142.9540   77.4200  219.2140 O   0  0  0  0  0  0  0  0  0  0  0  0
  142.1790   76.9610  220.1040 C   0  0  0  0  0  0  0  0  0  0  0  0
  141.7720   77.8130  221.1080 C   0  0  0  0  0  0  0  0  0  0  0  0
  142.1730   79.1310  221.1790 C   0  0  0  0  0  0  0  0  0  0  0  0
  141.7610   79.9870  222.1910 C   0  0  0  0  0  0  0  0  0  0  0  0
  140.9080   79.4610  223.1590 C   0  0  0  0  0  0  0  0  0  0  0  0
  140.4920   78.1350  223.1060 C   0  0  0  0  0  0  0  0  0  0  0  0
  140.9270   77.3100  222.0740 C   0  0  0  0  0  0  0  0  0  0  0  0
  140.5520   76.0230  221.9830 N   0  0  0  0  0  0  0  0  0  0  0  0
  140.9460   75.2040  221.0140 C   0  0  0  0  0  0  0  0  0  0  0  0
  140.4910   73.8190  221.0040 C   0  0  0  0  0  0  0  0  0  0  0  0
  141.0770   72.9410  221.7930 C   0  0  0  0  0  0  0  0  0  0  0  0
  140.3590   71.9600  222.5970 C   0  0  0  0  0  0  0  0  0  0  0  0
  139.3960   71.1250  222.1330 C   0  0  0  0  0  0  0  0  0  0  0  0
  138.7300   70.1990  222.9300 C   0  0  0  0  0  0  0  0  0  0  0  0
  139.0600   70.1110  224.2840 C   0  0  0  0  0  0  0  0  0  0  0  0
  140.0370   70.9490  224.7800 C   0  0  0  0  0  0  0  0  0  0  0  0
  140.3610   70.8470  226.1590 N   0  0  0  0  0  0  0  0  0  0  0  0
  140.0070   69.7060  226.9850 C   0  0  0  0  0  0  0  0  0  0  0  0
  140.6090   70.0020  228.3400 C   0  0  0  0  0  0  0  0  0  0  0  0
  140.5670   71.5310  228.3490 C   0  0  0  0  0  0  0  0  0  0  0  0
  141.0780   71.8320  226.9530 C   0  0  0  0  0  0  0  0  0  0  0  0
  140.6780   71.8590  223.9550 C   0  0  0  0  0  0  0  0  0  0  0  0
  141.7680   75.6570  220.0540 N   0  0  0  0  0  0  0  0  0  0  0  0
  142.2530   74.8790  218.9530 C   0  0  0  0  0  0  0  0  0  0  0  0
  143.4060   73.9850  219.2370 C   0  0  0  0  0  0  0  0  0  0  0  0
  144.4620   74.5170  220.1390 C   0  0  0  0  0  0  0  0  0  0  0  0
  145.4510   73.3840  220.4550 C   0  0  0  0  0  0  0  0  0  0  0  0
  145.6360   72.5430  219.2860 N   0  0  0  0  0  0  0  0  0  0  0  0
  145.5350   73.3990  218.1120 C   0  0  0  0  0  0  0  0  0  0  0  0
  144.0730   73.6970  217.8940 C   0  0  0  0  0  0  0  0  0  0  0  0
  142.8471   79.5197  220.4015 H   0  0  0  0  0  0  0  0  0  0  0  0
  142.0934   81.0349  222.2272 H   0  0  0  0  0  0  0  0  0  0  0  0
  140.5577   80.1053  223.9789 H   0  0  0  0  0  0  0  0  0  0  0  0
  139.8188   77.7385  223.8804 H   0  0  0  0  0  0  0  0  0  0  0  0
  139.6667   73.5099  220.3444 H   0  0  0  0  0  0  0  0  0  0  0  0
  142.1756   72.9490  221.8482 H   0  0  0  0  0  0  0  0  0  0  0  0
  139.1267   71.1831  221.0680 H   0  0  0  0  0  0  0  0  0  0  0  0
  137.9557   69.5465  222.5002 H   0  0  0  0  0  0  0  0  0  0  0  0
  138.5520   69.3893  224.9406 H   0  0  0  0  0  0  0  0  0  0  0  0
  138.9140   69.6077  227.0607 H   0  0  0  0  0  0  0  0  0  0  0  0
  140.3799   68.7603  226.5649 H   0  0  0  0  0  0  0  0  0  0  0  0
  140.0029   69.5762  229.1533 H   0  0  0  0  0  0  0  0  0  0  0  0
  141.6106   69.5745  228.4948 H   0  0  0  0  0  0  0  0  0  0  0  0
  139.5442   71.9079  228.4967 H   0  0  0  0  0  0  0  0  0  0  0  0
  141.1452   71.9998  229.1589 H   0  0  0  0  0  0  0  0  0  0  0  0
  140.8242   72.8571  226.6453 H   0  0  0  0  0  0  0  0  0  0  0  0
  142.1721   71.7741  226.8554 H   0  0  0  0  0  0  0  0  0  0  0  0
  141.4535   72.5154  224.3766 H   0  0  0  0  0  0  0  0  0  0  0  0
  141.4233   74.2524  218.5939 H   0  0  0  0  0  0  0  0  0  0  0  0
  142.6215   75.6090  218.2172 H   0  0  0  0  0  0  0  0  0  0  0  0
  142.9864   73.1139  219.7616 H   0  0  0  0  0  0  0  0  0  0  0  0
  144.9914   75.3439  219.6430 H   0  0  0  0  0  0  0  0  0  0  0  0
  144.0092   74.8917  221.0688 H   0  0  0  0  0  0  0  0  0  0  0  0
  146.4187   73.8170  220.7486 H   0  0  0  0  0  0  0  0  0  0  0  0
  145.0491   72.7741  221.2775 H   0  0  0  0  0  0  0  0  0  0  0  0
  144.8920   71.8370  219.2270 H   0  0  0  0  0  0  0  0  0  0  0  0
  146.0881   74.3348  218.2806 H   0  0  0  0  0  0  0  0  0  0  0  0
  145.9649   72.9007  217.2306 H   0  0  0  0  0  0  0  0  0  0  0  0
  143.9715   74.5746  217.2386 H   0  0  0  0  0  0  0  0  0  0  0  0
  143.5884   72.8292  217.4228 H   0  0  0  0  0  0  0  0  0  0  0  0
  1  2  2  0
  2  3  1  0
  3  4  2  0
  4  5  1  0
  5  6  2  0
  6  7  1  0
  7  8  2  0
  8  9  1  0
  9 10  2  0
 10 11  1  0
 11 12  2  0
 12 13  1  0
 13 14  2  0
 14 15  1  0
 15 16  2  0
 16 17  1  0
 17 18  1  0
 18 19  1  0
 19 20  1  0
 20 21  1  0
 21 22  1  0
 17 23  2  0
 10 24  1  0
 24 25  1  0
 25 26  1  0
 26 27  1  0
 27 28  1  0
 28 29  1  0
 29 30  1  0
 30 31  1  0
 24  2  1  0
 31 26  1  0
  8  3  1  0
 23 13  1  0
 22 18  1  0
  4 32  1  0
  5 33  1  0
  6 34  1  0
  7 35  1  0
 11 36  1  0
 12 37  1  0
 14 38  1  0
 15 39  1  0
 16 40  1  0
 19 41  1  0
 19 42  1  0
 20 43  1  0
 20 44  1  0
 21 45  1  0
 21 46  1  0
 22 47  1  0
 22 48  1  0
 23 49  1  0
 25 50  1  0
 25 51  1  0
 26 52  1  0
 27 53  1  0
 27 54  1  0
 28 55  1  0
 28 56  1  0
 29 57  1  0
 30 58  1  0
 30 59  1  0
 31 60  1  0
 31 61  1  0
M  END
>  <smiles>  (23) 
O=c1c2ccccc2nc(/C=C/c2cccc(N3CCCC3)c2)n1CC1CCNCC1

>  <score_type>  (23) 
oracle

>  <origin>  (23) 
autodockgpu

>  <m_score__min__energy>  (23) 
-9.4900000000000002

>  <m_primary>  (23) 
energy

>  <rmsd>  (23) 
7.476047454226132

>  <m_score__min__rmsd>  (23) 
7.476047454226132

>  <meeko>  (23) 
{"free_energy": -8.73, "intermolecular_energy": -10.52, "internal_energy": -1.5, "cluster_size": 28, "cluster_id": 1, "rank_in_cluster": 24}

>  <energy>  (23) 
-8.76

>  <cluster_rmsd>  (23) 
1.09

>  <cluster>  (23) 
1

$$$$

     RDKit          3D

 61 65  0  0  0  0  0  0  0  0999 V2000
  139.1980   67.7170  225.4140 O   0  0  0  0  0  0  0  0  0  0  0  0
  139.4550   68.9110  225.0860 C   0  0  0  0  0  0  0  0  0  0  0  0
  140.0290   69.7320  226.0340 C   0  0  0  0  0  0  0  0  0  0  0  0
  140.3290   69.3050  227.3110 C   0  0  0  0  0  0  0  0  0  0  0  0
  140.9070   70.1340  228.2620 C   0  0  0  0  0  0  0  0  0  0  0  0
  141.1820   71.4450  227.8790 C   0  0  0  0  0  0  0  0  0  0  0  0
  140.8870   71.8960  226.5970 C   0  0  0  0  0  0  0  0  0  0  0  0
  140.3080   71.0330  225.6720 C   0  0  0  0  0  0  0  0  0  0  0  0
  140.0050   71.4250  224.4230 N   0  0  0  0  0  0  0  0  0  0  0  0
  139.4520   70.6310  223.5120 C   0  0  0  0  0  0  0  0  0  0  0  0
  139.1530   71.1500  222.1830 C   0  0  0  0  0  0  0  0  0  0  0  0
  138.8690   72.4290  222.0380 C   0  0  0  0  0  0  0  0  0  0  0  0
  139.8540   73.4490  221.6980 C   0  0  0  0  0  0  0  0  0  0  0  0
  139.6130   74.7820  221.6490 C   0  0  0  0  0  0  0  0  0  0  0  0
  140.5790   75.7280  221.3210 C   0  0  0  0  0  0  0  0  0  0  0  0
  141.8730   75.2980  221.0220 C   0  0  0  0  0  0  0  0  0  0  0  0
  142.1440   73.9460  221.0650 C   0  0  0  0  0  0  0  0  0  0  0  0
  143.4660   73.5240  220.7600 N   0  0  0  0  0  0  0  0  0  0  0  0
  144.5420   74.4380  220.4180 C   0  0  0  0  0  0  0  0  0  0  0  0
  145.7600   73.5600  220.2460 C   0  0  0  0  0  0  0  0  0  0  0  0
  145.1160   72.2560  219.7710 C   0  0  0  0  0  0  0  0  0  0  0  0
  143.9520   72.1540  220.7380 C   0  0  0  0  0  0  0  0  0  0  0  0
  141.1560   73.0330  221.3970 C   0  0  0  0  0  0  0  0  0  0  0  0
  139.1660   69.3570  223.8260 N   0  0  0  0  0  0  0  0  0  0  0  0
  138.5820   68.4030  222.9310 C   0  0  0  0  0  0  0  0  0  0  0  0
  137.1300   68.1430  223.1050 C   0  0  0  0  0  0  0  0  0  0  0  0
  136.3240   67.9800  221.8650 C   0  0  0  0  0  0  0  0  0  0  0  0
  134.9070   67.5310  222.2580 C   0  0  0  0  0  0  0  0  0  0  0  0
  134.5020   68.1840  223.4900 N   0  0  0  0  0  0  0  0  0  0  0  0
  135.1020   69.5110  223.4980 C   0  0  0  0  0  0  0  0  0  0  0  0
  136.5590   69.3470  223.8500 C   0  0  0  0  0  0  0  0  0  0  0  0
  140.1007   68.2649  227.5867 H   0  0  0  0  0  0  0  0  0  0  0  0
  141.1381   69.7717  229.2746 H   0  0  0  0  0  0  0  0  0  0  0  0
  141.6402   72.1350  228.6029 H   0  0  0  0  0  0  0  0  0  0  0  0
  141.1114   72.9351  226.3143 H   0  0  0  0  0  0  0  0  0  0  0  0
  139.1643   70.4810  221.3099 H   0  0  0  0  0  0  0  0  0  0  0  0
  137.8256   72.7461  222.1822 H   0  0  0  0  0  0  0  0  0  0  0  0
  138.5976   75.1353  221.8814 H   0  0  0  0  0  0  0  0  0  0  0  0
  140.3269   76.7985  221.2976 H   0  0  0  0  0  0  0  0  0  0  0  0
  142.6589   76.0209  220.7580 H   0  0  0  0  0  0  0  0  0  0  0  0
  144.3143   74.9710  219.4831 H   0  0  0  0  0  0  0  0  0  0  0  0
  144.6923   75.2071  221.1899 H   0  0  0  0  0  0  0  0  0  0  0  0
  146.4489   73.9683  219.4919 H   0  0  0  0  0  0  0  0  0  0  0  0
  146.3763   73.4575  221.1514 H   0  0  0  0  0  0  0  0  0  0  0  0
  144.7726   72.3289  218.7285 H   0  0  0  0  0  0  0  0  0  0  0  0
  145.7891   71.3860  219.7707 H   0  0  0  0  0  0  0  0  0  0  0  0
  143.1821   71.4614  220.3671 H   0  0  0  0  0  0  0  0  0  0  0  0
  144.2272   71.7619  221.7282 H   0  0  0  0  0  0  0  0  0  0  0  0
  141.3996   71.9607  221.4245 H   0  0  0  0  0  0  0  0  0  0  0  0
  138.7370   68.7672  221.9047 H   0  0  0  0  0  0  0  0  0  0  0  0
  139.0805   67.4479  223.1531 H   0  0  0  0  0  0  0  0  0  0  0  0
  137.0601   67.1777  223.6277 H   0  0  0  0  0  0  0  0  0  0  0  0
  136.2735   68.9381  221.3270 H   0  0  0  0  0  0  0  0  0  0  0  0
  136.7889   67.2283  221.2101 H   0  0  0  0  0  0  0  0  0  0  0  0
  134.2043   67.7996  221.4555 H   0  0  0  0  0  0  0  0  0  0  0  0
  134.9028   66.4414  222.4090 H   0  0  0  0  0  0  0  0  0  0  0  0
  134.8590   67.6720  224.3050 H   0  0  0  0  0  0  0  0  0  0  0  0
  135.0053   69.9730  222.5044 H   0  0  0  0  0  0  0  0  0  0  0  0
  134.5974   70.1602  224.2287 H   0  0  0  0  0  0  0  0  0  0  0  0
  137.1107   70.2533  223.5596 H   0  0  0  0  0  0  0  0  0  0  0  0
  136.6588   69.1886  224.9340 H   0  0  0  0  0  0  0  0  0  0  0  0
  1  2  2  0
  2  3  1  0
  3  4  2  0
  4  5  1  0
  5  6  2  0
  6  7  1  0
  7  8  2  0
  8  9  1  0
  9 10  2  0
 10 11  1  0
 11 12  2  0
 12 13  1  0
 13 14  2  0
 14 15  1  0
 15 16  2  0
 16 17  1  0
 17 18  1  0
 18 19  1  0
 19 20  1  0
 20 21  1  0
 21 22  1  0
 17 23  2  0
 10 24  1  0
 24 25  1  0
 25 26  1  0
 26 27  1  0
 27 28  1  0
 28 29  1  0
 29 30  1  0
 30 31  1  0
 24  2  1  0
 31 26  1  0
  8  3  1  0
 23 13  1  0
 22 18  1  0
  4 32  1  0
  5 33  1  0
  6 34  1  0
  7 35  1  0
 11 36  1  0
 12 37  1  0
 14 38  1  0
 15 39  1  0
 16 40  1  0
 19 41  1  0
 19 42  1  0
 20 43  1  0
 20 44  1  0
 21 45  1  0
 21 46  1  0
 22 47  1  0
 22 48  1  0
 23 49  1  0
 25 50  1  0
 25 51  1  0
 26 52  1  0
 27 53  1  0
 27 54  1  0
 28 55  1  0
 28 56  1  0
 29 57  1  0
 30 58  1  0
 30 59  1  0
 31 60  1  0
 31 61  1  0
M  END
>  <smiles>  (24) 
O=c1c2ccccc2nc(/C=C/c2cccc(N3CCCC3)c2)n1CC1CCNCC1

>  <score_type>  (24) 
oracle

>  <origin>  (24) 
autodockgpu

>  <m_score__min__energy>  (24) 
-9.4900000000000002

>  <m_primary>  (24) 
energy

>  <rmsd>  (24) 
12.338962448898934

>  <m_score__min__rmsd>  (24) 
12.338962448898934

>  <meeko>  (24) 
{"free_energy": -8.38, "intermolecular_energy": -10.17, "internal_energy": -1.6, "cluster_size": 2, "cluster_id": 4, "rank_in_cluster": 1}

>  <energy>  (24) 
-8.73

>  <cluster_rmsd>  (24) 
0.83

>  <cluster>  (24) 
1

$$$$

     RDKit          3D

 61 65  0  0  0  0  0  0  0  0999 V2000
  142.8770   77.0240  219.3070 O   0  0  0  0  0  0  0  0  0  0  0  0
  142.0440   76.6580  220.1860 C   0  0  0  0  0  0  0  0  0  0  0  0
  141.6660   77.5780  221.1410 C   0  0  0  0  0  0  0  0  0  0  0  0
  142.1570   78.8670  221.1740 C   0  0  0  0  0  0  0  0  0  0  0  0
  141.7750   79.7910  222.1360 C   0  0  0  0  0  0  0  0  0  0  0  0
  140.8560   79.3670  223.0940 C   0  0  0  0  0  0  0  0  0  0  0  0
  140.3490   78.0720  223.0800 C   0  0  0  0  0  0  0  0  0  0  0  0
  140.7580   77.1760  222.0970 C   0  0  0  0  0  0  0  0  0  0  0  0
  140.2960   75.9150  222.0440 N   0  0  0  0  0  0  0  0  0  0  0  0
  140.6620   75.0310  221.1230 C   0  0  0  0  0  0  0  0  0  0  0  0
  140.1100   73.6820  221.1520 C   0  0  0  0  0  0  0  0  0  0  0  0
  140.8610   72.6860  221.5790 C   0  0  0  0  0  0  0  0  0  0  0  0
  140.3800   71.6140  222.4400 C   0  0  0  0  0  0  0  0  0  0  0  0
  139.6640   70.5400  222.0260 C   0  0  0  0  0  0  0  0  0  0  0  0
  139.2210   69.5330  222.8770 C   0  0  0  0  0  0  0  0  0  0  0  0
  139.5220   69.6180  224.2390 C   0  0  0  0  0  0  0  0  0  0  0  0
  140.2500   70.7010  224.6850 C   0  0  0  0  0  0  0  0  0  0  0  0
  140.5490   70.7720  226.0730 N   0  0  0  0  0  0  0  0  0  0  0  0
  140.2150   69.7240  227.0210 C   0  0  0  0  0  0  0  0  0  0  0  0
  140.7790   70.1980  228.3410 C   0  0  0  0  0  0  0  0  0  0  0  0
  140.6870   71.7150  228.1700 C   0  0  0  0  0  0  0  0  0  0  0  0
  141.2170   71.8670  226.7570 C   0  0  0  0  0  0  0  0  0  0  0  0
  140.6750   71.6840  223.8070 C   0  0  0  0  0  0  0  0  0  0  0  0
  141.5440   75.3850  220.1740 N   0  0  0  0  0  0  0  0  0  0  0  0
  142.0070   74.5300  219.1230 C   0  0  0  0  0  0  0  0  0  0  0  0
  143.4540   74.1940  219.1380 C   0  0  0  0  0  0  0  0  0  0  0  0
  143.8720   72.9860  218.3760 C   0  0  0  0  0  0  0  0  0  0  0  0
  145.4080   72.9270  218.3580 C   0  0  0  0  0  0  0  0  0  0  0  0
  145.9400   73.3940  219.6250 N   0  0  0  0  0  0  0  0  0  0  0  0
  144.9990   73.0010  220.6650 C   0  0  0  0  0  0  0  0  0  0  0  0
  143.8280   73.9500  220.5980 C   0  0  0  0  0  0  0  0  0  0  0  0
  142.8814   79.1749  220.4057 H   0  0  0  0  0  0  0  0  0  0  0  0
  142.1799   80.8137  222.1422 H   0  0  0  0  0  0  0  0  0  0  0  0
  140.5260   80.0684  223.8744 H   0  0  0  0  0  0  0  0  0  0  0  0
  139.6250   77.7562  223.8456 H   0  0  0  0  0  0  0  0  0  0  0  0
  139.0774   73.4970  220.8210 H   0  0  0  0  0  0  0  0  0  0  0  0
  141.9152   72.6632  221.2659 H   0  0  0  0  0  0  0  0  0  0  0  0
  139.4195   70.4604  220.9565 H   0  0  0  0  0  0  0  0  0  0  0  0
  138.6430   68.6834  222.4843 H   0  0  0  0  0  0  0  0  0  0  0  0
  139.1860   68.8390  224.9392 H   0  0  0  0  0  0  0  0  0  0  0  0
  139.1244   69.5974  227.0894 H   0  0  0  0  0  0  0  0  0  0  0  0
  140.6265   68.7488  226.7216 H   0  0  0  0  0  0  0  0  0  0  0  0
  140.1707   69.8494  229.1887 H   0  0  0  0  0  0  0  0  0  0  0  0
  141.7910   69.8271  228.5610 H   0  0  0  0  0  0  0  0  0  0  0  0
  139.6497   72.0710  228.2550 H   0  0  0  0  0  0  0  0  0  0  0  0
  141.2322   72.2955  228.9288 H   0  0  0  0  0  0  0  0  0  0  0  0
  140.9369   72.8395  226.3260 H   0  0  0  0  0  0  0  0  0  0  0  0
  142.3142   71.8354  226.6856 H   0  0  0  0  0  0  0  0  0  0  0  0
  141.2554   72.5360  224.1908 H   0  0  0  0  0  0  0  0  0  0  0  0
  141.4433   73.5874  219.1847 H   0  0  0  0  0  0  0  0  0  0  0  0
  141.8464   75.0948  218.1928 H   0  0  0  0  0  0  0  0  0  0  0  0
  143.9612   75.0375  218.6467 H   0  0  0  0  0  0  0  0  0  0  0  0
  143.4718   72.0840  218.8621 H   0  0  0  0  0  0  0  0  0  0  0  0
  143.4850   73.0369  217.3476 H   0  0  0  0  0  0  0  0  0  0  0  0
  145.7303   71.8890  218.1885 H   0  0  0  0  0  0  0  0  0  0  0  0
  145.7836   73.5722  217.5501 H   0  0  0  0  0  0  0  0  0  0  0  0
  146.0090   74.4190  219.6330 H   0  0  0  0  0  0  0  0  0  0  0  0
  144.6572   71.9698  220.4923 H   0  0  0  0  0  0  0  0  0  0  0  0
  145.4759   73.0428  221.6554 H   0  0  0  0  0  0  0  0  0  0  0  0
  142.9697   73.5114  221.1281 H   0  0  0  0  0  0  0  0  0  0  0  0
  144.1020   74.9046  221.0709 H   0  0  0  0  0  0  0  0  0  0  0  0
  1  2  2  0
  2  3  1  0
  3  4  2  0
  4  5  1  0
  5  6  2  0
  6  7  1  0
  7  8  2  0
  8  9  1  0
  9 10  2  0
 10 11  1  0
 11 12  2  0
 12 13  1  0
 13 14  2  0
 14 15  1  0
 15 16  2  0
 16 17  1  0
 17 18  1  0
 18 19  1  0
 19 20  1  0
 20 21  1  0
 21 22  1  0
 17 23  2  0
 10 24  1  0
 24 25  1  0
 25 26  1  0
 26 27  1  0
 27 28  1  0
 28 29  1  0
 29 30  1  0
 30 31  1  0
 24  2  1  0
 31 26  1  0
  8  3  1  0
 23 13  1  0
 22 18  1  0
  4 32  1  0
  5 33  1  0
  6 34  1  0
  7 35  1  0
 11 36  1  0
 12 37  1  0
 14 38  1  0
 15 39  1  0
 16 40  1  0
 19 41  1  0
 19 42  1  0
 20 43  1  0
 20 44  1  0
 21 45  1  0
 21 46  1  0
 22 47  1  0
 22 48  1  0
 23 49  1  0
 25 50  1  0
 25 51  1  0
 26 52  1  0
 27 53  1  0
 27 54  1  0
 28 55  1  0
 28 56  1  0
 29 57  1  0
 30 58  1  0
 30 59  1  0
 31 60  1  0
 31 61  1  0
M  END
>  <smiles>  (25) 
O=c1c2ccccc2nc(/C=C/c2cccc(N3CCCC3)c2)n1CC1CCNCC1

>  <score_type>  (25) 
oracle

>  <origin>  (25) 
autodockgpu

>  <m_score__min__energy>  (25) 
-9.4900000000000002

>  <m_primary>  (25) 
energy

>  <rmsd>  (25) 
7.803221046601804

>  <m_score__min__rmsd>  (25) 
7.803221046601804

>  <meeko>  (25) 
{"free_energy": -8.91, "intermolecular_energy": -10.7, "internal_energy": -1.51, "cluster_size": 28, "cluster_id": 1, "rank_in_cluster": 21}

>  <energy>  (25) 
-8.5

>  <cluster_rmsd>  (25) 
0.92

>  <cluster>  (25) 
1

$$$$

     RDKit          3D

 61 65  0  0  0  0  0  0  0  0999 V2000
  146.0140   72.2550  219.8240 O   0  0  0  0  0  0  0  0  0  0  0  0
  144.8410   71.7810  219.8650 C   0  0  0  0  0  0  0  0  0  0  0  0
  144.6750   70.4410  219.5890 C   0  0  0  0  0  0  0  0  0  0  0  0
  145.7280   69.6060  219.2740 C   0  0  0  0  0  0  0  0  0  0  0  0
  145.5580   68.2570  218.9980 C   0  0  0  0  0  0  0  0  0  0  0  0
  144.2580   67.7570  219.0490 C   0  0  0  0  0  0  0  0  0  0  0  0
  143.1830   68.5810  219.3650 C   0  0  0  0  0  0  0  0  0  0  0  0
  143.3960   69.9290  219.6360 C   0  0  0  0  0  0  0  0  0  0  0  0
  142.3890   70.7620  219.9440 N   0  0  0  0  0  0  0  0  0  0  0  0
  142.5510   72.0530  220.2090 C   0  0  0  0  0  0  0  0  0  0  0  0
  141.3930   72.8810  220.5270 C   0  0  0  0  0  0  0  0  0  0  0  0
  140.9910   72.9730  221.7790 C   0  0  0  0  0  0  0  0  0  0  0  0
  140.4720   71.8520  222.5530 C   0  0  0  0  0  0  0  0  0  0  0  0
  139.8050   70.7900  222.0390 C   0  0  0  0  0  0  0  0  0  0  0  0
  139.3250   69.7360  222.8090 C   0  0  0  0  0  0  0  0  0  0  0  0
  139.5320   69.7580  224.1900 C   0  0  0  0  0  0  0  0  0  0  0  0
  140.2090   70.8280  224.7380 C   0  0  0  0  0  0  0  0  0  0  0  0
  140.4120   70.8340  226.1440 N   0  0  0  0  0  0  0  0  0  0  0  0
  141.0860   71.9070  226.8530 C   0  0  0  0  0  0  0  0  0  0  0  0
  141.0050   71.5220  228.3130 C   0  0  0  0  0  0  0  0  0  0  0  0
  140.9870   69.9950  228.2100 C   0  0  0  0  0  0  0  0  0  0  0  0
  139.9940   69.8040  227.0810 C   0  0  0  0  0  0  0  0  0  0  0  0
  140.6730   71.8590  223.9380 C   0  0  0  0  0  0  0  0  0  0  0  0
  143.7820   72.5900  220.1750 N   0  0  0  0  0  0  0  0  0  0  0  0
  144.0880   73.9610  220.4520 C   0  0  0  0  0  0  0  0  0  0  0  0
  144.0500   74.8900  219.2930 C   0  0  0  0  0  0  0  0  0  0  0  0
  142.9050   75.8370  219.2280 C   0  0  0  0  0  0  0  0  0  0  0  0
  143.1520   76.8260  218.0770 C   0  0  0  0  0  0  0  0  0  0  0  0
  143.7940   76.1460  216.9660 N   0  0  0  0  0  0  0  0  0  0  0  0
  143.2870   74.7820  216.9370 C   0  0  0  0  0  0  0  0  0  0  0  0
  143.9770   74.0190  218.0400 C   0  0  0  0  0  0  0  0  0  0  0  0
  146.7435   70.0274  219.2404 H   0  0  0  0  0  0  0  0  0  0  0  0
  146.4123   67.6100  218.7497 H   0  0  0  0  0  0  0  0  0  0  0  0
  144.0792   66.6928  218.8357 H   0  0  0  0  0  0  0  0  0  0  0  0
  142.1645   68.1670  219.4007 H   0  0  0  0  0  0  0  0  0  0  0  0
  140.8611   73.4226  219.7309 H   0  0  0  0  0  0  0  0  0  0  0  0
  141.0508   73.9557  222.2697 H   0  0  0  0  0  0  0  0  0  0  0  0
  139.6338   70.7601  220.9528 H   0  0  0  0  0  0  0  0  0  0  0  0
  138.7906   68.8980  222.3376 H   0  0  0  0  0  0  0  0  0  0  0  0
  139.1634   68.9403  224.8268 H   0  0  0  0  0  0  0  0  0  0  0  0
  142.1350   71.9841  226.5310 H   0  0  0  0  0  0  0  0  0  0  0  0
  140.6240   72.8859  226.6574 H   0  0  0  0  0  0  0  0  0  0  0  0
  141.8810   71.8790  228.8744 H   0  0  0  0  0  0  0  0  0  0  0  0
  140.1455   71.9512  228.8488 H   0  0  0  0  0  0  0  0  0  0  0  0
  141.9780   69.5941  227.9509 H   0  0  0  0  0  0  0  0  0  0  0  0
  140.7237   69.4764  229.1437 H   0  0  0  0  0  0  0  0  0  0  0  0
  140.0785   68.8007  226.6380 H   0  0  0  0  0  0  0  0  0  0  0  0
  138.9422   69.8841  227.3929 H   0  0  0  0  0  0  0  0  0  0  0  0
  141.2102   72.7001  224.4004 H   0  0  0  0  0  0  0  0  0  0  0  0
  143.3628   74.3228  221.1957 H   0  0  0  0  0  0  0  0  0  0  0  0
  145.1323   73.9649  220.7976 H   0  0  0  0  0  0  0  0  0  0  0  0
  144.9456   75.5216  219.3878 H   0  0  0  0  0  0  0  0  0  0  0  0
  141.9738   75.2807  219.0453 H   0  0  0  0  0  0  0  0  0  0  0  0
  142.8134   76.3821  220.1790 H   0  0  0  0  0  0  0  0  0  0  0  0
  142.1906   77.2427  217.7423 H   0  0  0  0  0  0  0  0  0  0  0  0
  143.8068   77.6357  218.4314 H   0  0  0  0  0  0  0  0  0  0  0  0
  144.8110   76.1030  217.1080 H   0  0  0  0  0  0  0  0  0  0  0  0
  142.1997   74.7818  217.1033 H   0  0  0  0  0  0  0  0  0  0  0  0
  143.4847   74.3156  215.9606 H   0  0  0  0  0  0  0  0  0  0  0  0
  143.4099   73.1031  218.2626 H   0  0  0  0  0  0  0  0  0  0  0  0
  144.9947   73.7513  217.7196 H   0  0  0  0  0  0  0  0  0  0  0  0
  1  2  2  0
  2  3  1  0
  3  4  2  0
  4  5  1  0
  5  6  2  0
  6  7  1  0
  7  8  2  0
  8  9  1  0
  9 10  2  0
 10 11  1  0
 11 12  2  0
 12 13  1  0
 13 14  2  0
 14 15  1  0
 15 16  2  0
 16 17  1  0
 17 18  1  0
 18 19  1  0
 19 20  1  0
 20 21  1  0
 21 22  1  0
 17 23  2  0
 10 24  1  0
 24 25  1  0
 25 26  1  0
 26 27  1  0
 27 28  1  0
 28 29  1  0
 29 30  1  0
 30 31  1  0
 24  2  1  0
 31 26  1  0
  8  3  1  0
 23 13  1  0
 22 18  1  0
  4 32  1  0
  5 33  1  0
  6 34  1  0
  7 35  1  0
 11 36  1  0
 12 37  1  0
 14 38  1  0
 15 39  1  0
 16 40  1  0
 19 41  1  0
 19 42  1  0
 20 43  1  0
 20 44  1  0
 21 45  1  0
 21 46  1  0
 22 47  1  0
 22 48  1  0
 23 49  1  0
 25 50  1  0
 25 51  1  0
 26 52  1  0
 27 53  1  0
 27 54  1  0
 28 55  1  0
 28 56  1  0
 29 57  1  0
 30 58  1  0
 30 59  1  0
 31 60  1  0
 31 61  1  0
M  END
>  <smiles>  (26) 
O=c1c2ccccc2nc(/C=C/c2cccc(N3CCCC3)c2)n1CC1CCNCC1

>  <score_type>  (26) 
oracle

>  <origin>  (26) 
autodockgpu

>  <m_score__min__energy>  (26) 
-9.4900000000000002

>  <m_primary>  (26) 
energy

>  <rmsd>  (26) 
8.25982178739219

>  <m_score__min__rmsd>  (26) 
8.25982178739219

>  <meeko>  (26) 
{"free_energy": -8.15, "intermolecular_energy": -9.94, "internal_energy": -1.65, "cluster_size": 1, "cluster_id": 6, "rank_in_cluster": 1}

>  <energy>  (26) 
-8.26

>  <cluster_rmsd>  (26) 
1.09

>  <cluster>  (26) 
1

$$$$

     RDKit          3D

 61 65  0  0  0  0  0  0  0  0999 V2000
  142.5130   77.1130  218.7810 O   0  0  0  0  0  0  0  0  0  0  0  0
  142.0330   76.6580  219.8590 C   0  0  0  0  0  0  0  0  0  0  0  0
  141.6430   77.5610  220.8250 C   0  0  0  0  0  0  0  0  0  0  0  0
  141.7570   78.9260  220.6620 C   0  0  0  0  0  0  0  0  0  0  0  0
  141.3630   79.8330  221.6360 C   0  0  0  0  0  0  0  0  0  0  0  0
  140.8360   79.3090  222.8150 C   0  0  0  0  0  0  0  0  0  0  0  0
  140.7130   77.9370  223.0000 C   0  0  0  0  0  0  0  0  0  0  0  0
  141.1190   77.0610  221.9980 C   0  0  0  0  0  0  0  0  0  0  0  0
  141.0200   75.7280  222.1330 N   0  0  0  0  0  0  0  0  0  0  0  0
  141.3960   74.8600  221.2010 C   0  0  0  0  0  0  0  0  0  0  0  0
  141.2560   73.4290  221.4420 C   0  0  0  0  0  0  0  0  0  0  0  0
  140.0500   72.9010  221.5080 C   0  0  0  0  0  0  0  0  0  0  0  0
  139.6830   71.8170  222.4120 C   0  0  0  0  0  0  0  0  0  0  0  0
  138.8650   70.7820  222.1000 C   0  0  0  0  0  0  0  0  0  0  0  0
  138.5370   69.7640  222.9890 C   0  0  0  0  0  0  0  0  0  0  0  0
  139.0710   69.7950  224.2790 C   0  0  0  0  0  0  0  0  0  0  0  0
  139.9060   70.8380  224.6210 C   0  0  0  0  0  0  0  0  0  0  0  0
  140.4410   70.8540  225.9380 N   0  0  0  0  0  0  0  0  0  0  0  0
  140.1880   69.8160  226.9210 C   0  0  0  0  0  0  0  0  0  0  0  0
  141.0050   70.2140  228.1280 C   0  0  0  0  0  0  0  0  0  0  0  0
  141.0120   71.7370  227.9870 C   0  0  0  0  0  0  0  0  0  0  0  0
  141.3040   71.8770  226.5060 C   0  0  0  0  0  0  0  0  0  0  0  0
  140.2110   71.8340  223.7080 C   0  0  0  0  0  0  0  0  0  0  0  0
  141.9100   75.3080  220.0440 N   0  0  0  0  0  0  0  0  0  0  0  0
  142.3410   74.4760  218.9600 C   0  0  0  0  0  0  0  0  0  0  0  0
  143.7130   73.9150  219.0650 C   0  0  0  0  0  0  0  0  0  0  0  0
  143.8270   72.4880  219.4680 C   0  0  0  0  0  0  0  0  0  0  0  0
  145.2960   72.0570  219.3300 C   0  0  0  0  0  0  0  0  0  0  0  0
  146.1730   73.1500  219.7100 N   0  0  0  0  0  0  0  0  0  0  0  0
  145.5100   73.8930  220.7720 C   0  0  0  0  0  0  0  0  0  0  0  0
  144.4360   74.7360  220.1310 C   0  0  0  0  0  0  0  0  0  0  0  0
  142.1774   79.3116  219.7215 H   0  0  0  0  0  0  0  0  0  0  0  0
  141.4624   80.9179  221.4840 H   0  0  0  0  0  0  0  0  0  0  0  0
  140.5118   79.9932  223.6130 H   0  0  0  0  0  0  0  0  0  0  0  0
  140.2948   77.5437  223.9383 H   0  0  0  0  0  0  0  0  0  0  0  0
  142.1473   72.7966  221.5674 H   0  0  0  0  0  0  0  0  0  0  0  0
  139.2732   73.3024  220.8406 H   0  0  0  0  0  0  0  0  0  0  0  0
  138.4369   70.7453  221.0874 H   0  0  0  0  0  0  0  0  0  0  0  0
  137.8676   68.9473  222.6809 H   0  0  0  0  0  0  0  0  0  0  0  0
  138.8310   69.0052  225.0061 H   0  0  0  0  0  0  0  0  0  0  0  0
  139.1183   69.7756  227.1743 H   0  0  0  0  0  0  0  0  0  0  0  0
  140.4609   68.8178  226.5479 H   0  0  0  0  0  0  0  0  0  0  0  0
  140.5226   69.8973  229.0645 H   0  0  0  0  0  0  0  0  0  0  0  0
  142.0052   69.7580  228.1687 H   0  0  0  0  0  0  0  0  0  0  0  0
  140.0377   72.1737  228.2517 H   0  0  0  0  0  0  0  0  0  0  0  0
  141.7251   72.2547  228.6454 H   0  0  0  0  0  0  0  0  0  0  0  0
  141.0358   72.8780  226.1372 H   0  0  0  0  0  0  0  0  0  0  0  0
  142.3666   71.7593  226.2471 H   0  0  0  0  0  0  0  0  0  0  0  0
  140.8808   72.6537  224.0072 H   0  0  0  0  0  0  0  0  0  0  0  0
  141.6389   73.6325  218.8855 H   0  0  0  0  0  0  0  0  0  0  0  0
  142.3593   75.1315  218.0769 H   0  0  0  0  0  0  0  0  0  0  0  0
  144.1347   73.9653  218.0503 H   0  0  0  0  0  0  0  0  0  0  0  0
  143.5026   72.3705  220.5125 H   0  0  0  0  0  0  0  0  0  0  0  0
  143.1894   71.8632  218.8253 H   0  0  0  0  0  0  0  0  0  0  0  0
  145.4852   71.1938  219.9850 H   0  0  0  0  0  0  0  0  0  0  0  0
  145.4945   71.7825  218.2835 H   0  0  0  0  0  0  0  0  0  0  0  0
  146.3170   73.7890  218.9200 H   0  0  0  0  0  0  0  0  0  0  0  0
  145.0597   73.1958  221.4939 H   0  0  0  0  0  0  0  0  0  0  0  0
  146.2303   74.5261  221.3108 H   0  0  0  0  0  0  0  0  0  0  0  0
  143.7156   75.0572  220.8977 H   0  0  0  0  0  0  0  0  0  0  0  0
  144.8938   75.6208  219.6645 H   0  0  0  0  0  0  0  0  0  0  0  0
  1  2  2  0
  2  3  1  0
  3  4  2  0
  4  5  1  0
  5  6  2  0
  6  7  1  0
  7  8  2  0
  8  9  1  0
  9 10  2  0
 10 11  1  0
 11 12  2  0
 12 13  1  0
 13 14  2  0
 14 15  1  0
 15 16  2  0
 16 17  1  0
 17 18  1  0
 18 19  1  0
 19 20  1  0
 20 21  1  0
 21 22  1  0
 17 23  2  0
 10 24  1  0
 24 25  1  0
 25 26  1  0
 26 27  1  0
 27 28  1  0
 28 29  1  0
 29 30  1  0
 30 31  1  0
 24  2  1  0
 31 26  1  0
  8  3  1  0
 23 13  1  0
 22 18  1  0
  4 32  1  0
  5 33  1  0
  6 34  1  0
  7 35  1  0
 11 36  1  0
 12 37  1  0
 14 38  1  0
 15 39  1  0
 16 40  1  0
 19 41  1  0
 19 42  1  0
 20 43  1  0
 20 44  1  0
 21 45  1  0
 21 46  1  0
 22 47  1  0
 22 48  1  0
 23 49  1  0
 25 50  1  0
 25 51  1  0
 26 52  1  0
 27 53  1  0
 27 54  1  0
 28 55  1  0
 28 56  1  0
 29 57  1  0
 30 58  1  0
 30 59  1  0
 31 60  1  0
 31 61  1  0
M  END
>  <smiles>  (27) 
O=c1c2ccccc2nc(/C=C/c2cccc(N3CCCC3)c2)n1CC1CCNCC1

>  <score_type>  (27) 
oracle

>  <origin>  (27) 
autodockgpu

>  <m_score__min__energy>  (27) 
-9.4900000000000002

>  <m_primary>  (27) 
energy

>  <rmsd>  (27) 
7.6044666563605805

>  <m_score__min__rmsd>  (27) 
7.6044666563605805

>  <meeko>  (27) 
{"free_energy": -9.38, "intermolecular_energy": -11.17, "internal_energy": -1.47, "cluster_size": 28, "cluster_id": 1, "rank_in_cluster": 4}

>  <energy>  (27) 
-8.17

>  <cluster_rmsd>  (27) 
1.3

>  <cluster>  (27) 
1

$$$$

     RDKit          3D

 61 65  0  0  0  0  0  0  0  0999 V2000
  142.4460   76.6440  218.6410 O   0  0  0  0  0  0  0  0  0  0  0  0
  141.9910   76.2560  219.7550 C   0  0  0  0  0  0  0  0  0  0  0  0
  141.5690   77.2160  220.6500 C   0  0  0  0  0  0  0  0  0  0  0  0
  141.6250   78.5680  220.3790 C   0  0  0  0  0  0  0  0  0  0  0  0
  141.1980   79.5320  221.2810 C   0  0  0  0  0  0  0  0  0  0  0  0
  140.7000   79.0820  222.5030 C   0  0  0  0  0  0  0  0  0  0  0  0
  140.6360   77.7250  222.7970 C   0  0  0  0  0  0  0  0  0  0  0  0
  141.0730   76.7900  221.8640 C   0  0  0  0  0  0  0  0  0  0  0  0
  141.0300   75.4680  222.1040 N   0  0  0  0  0  0  0  0  0  0  0  0
  141.4370   74.5450  221.2400 C   0  0  0  0  0  0  0  0  0  0  0  0
  141.3580   73.1330  221.5950 C   0  0  0  0  0  0  0  0  0  0  0  0
  140.2480   72.4670  221.3460 C   0  0  0  0  0  0  0  0  0  0  0  0
  139.4950   71.7340  222.3560 C   0  0  0  0  0  0  0  0  0  0  0  0
  138.2820   71.1590  222.1620 C   0  0  0  0  0  0  0  0  0  0  0  0
  137.5910   70.4650  223.1500 C   0  0  0  0  0  0  0  0  0  0  0  0
  138.1640   70.3450  224.4180 C   0  0  0  0  0  0  0  0  0  0  0  0
  139.3970   70.9210  224.6410 C   0  0  0  0  0  0  0  0  0  0  0  0
  139.9660   70.7890  225.9370 N   0  0  0  0  0  0  0  0  0  0  0  0
  140.8640   71.7680  226.5230 C   0  0  0  0  0  0  0  0  0  0  0  0
  141.1510   71.2500  227.9140 C   0  0  0  0  0  0  0  0  0  0  0  0
  141.0200   69.7420  227.6960 C   0  0  0  0  0  0  0  0  0  0  0  0
  139.7530   69.6900  226.8650 C   0  0  0  0  0  0  0  0  0  0  0  0
  140.0560   71.6040  223.6320 C   0  0  0  0  0  0  0  0  0  0  0  0
  141.9260   74.9210  220.0470 N   0  0  0  0  0  0  0  0  0  0  0  0
  142.3850   74.0240  219.0290 C   0  0  0  0  0  0  0  0  0  0  0  0
  143.8080   73.6060  219.1130 C   0  0  0  0  0  0  0  0  0  0  0  0
  144.0720   72.1870  219.4750 C   0  0  0  0  0  0  0  0  0  0  0  0
  145.5770   71.9150  219.3200 C   0  0  0  0  0  0  0  0  0  0  0  0
  146.3390   73.0810  219.7270 N   0  0  0  0  0  0  0  0  0  0  0  0
  145.6090   73.7220  220.8120 C   0  0  0  0  0  0  0  0  0  0  0  0
  144.4500   74.4670  220.1990 C   0  0  0  0  0  0  0  0  0  0  0  0
  142.0247   78.8949  219.4077 H   0  0  0  0  0  0  0  0  0  0  0  0
  141.2501   80.6045  221.0424 H   0  0  0  0  0  0  0  0  0  0  0  0
  140.3518   79.8134  223.2472 H   0  0  0  0  0  0  0  0  0  0  0  0
  140.2399   77.3904  223.7671 H   0  0  0  0  0  0  0  0  0  0  0  0
  142.2152   72.6291  222.0654 H   0  0  0  0  0  0  0  0  0  0  0  0
  139.8672   72.4643  220.3140 H   0  0  0  0  0  0  0  0  0  0  0  0
  137.8188   71.2463  221.1681 H   0  0  0  0  0  0  0  0  0  0  0  0
  136.6090   70.0179  222.9360 H   0  0  0  0  0  0  0  0  0  0  0  0
  137.6433   69.8030  225.2211 H   0  0  0  0  0  0  0  0  0  0  0  0
  141.7926   71.8403  225.9378 H   0  0  0  0  0  0  0  0  0  0  0  0
  140.4236   72.7759  226.5394 H   0  0  0  0  0  0  0  0  0  0  0  0
  142.1632   71.5238  228.2463 H   0  0  0  0  0  0  0  0  0  0  0  0
  140.4896   71.6547  228.6942 H   0  0  0  0  0  0  0  0  0  0  0  0
  141.8821   69.3349  227.1473 H   0  0  0  0  0  0  0  0  0  0  0  0
  140.9855   69.1472  228.6207 H   0  0  0  0  0  0  0  0  0  0  0  0
  139.6593   68.7303  226.3357 H   0  0  0  0  0  0  0  0  0  0  0  0
  138.8279   69.7750  227.4541 H   0  0  0  0  0  0  0  0  0  0  0  0
  141.0390   72.0529  223.8373 H   0  0  0  0  0  0  0  0  0  0  0  0
  141.7656   73.1163  219.0780 H   0  0  0  0  0  0  0  0  0  0  0  0
  142.2985   74.5824  218.0852 H   0  0  0  0  0  0  0  0  0  0  0  0
  144.2150   73.7286  218.0985 H   0  0  0  0  0  0  0  0  0  0  0  0
  143.7680   72.0073  220.5168 H   0  0  0  0  0  0  0  0  0  0  0  0
  143.4987   71.5176  218.8168 H   0  0  0  0  0  0  0  0  0  0  0  0
  145.8586   71.0583  219.9499 H   0  0  0  0  0  0  0  0  0  0  0  0
  145.7958   71.6921  218.2653 H   0  0  0  0  0  0  0  0  0  0  0  0
  146.4110   73.7540  218.9550 H   0  0  0  0  0  0  0  0  0  0  0  0
  145.2375   72.9622  221.5153 H   0  0  0  0  0  0  0  0  0  0  0  0
  146.2635   74.4110  221.3660 H   0  0  0  0  0  0  0  0  0  0  0  0
  143.7055   74.6910  220.9771 H   0  0  0  0  0  0  0  0  0  0  0  0
  144.8115   75.4066  219.7558 H   0  0  0  0  0  0  0  0  0  0  0  0
  1  2  2  0
  2  3  1  0
  3  4  2  0
  4  5  1  0
  5  6  2  0
  6  7  1  0
  7  8  2  0
  8  9  1  0
  9 10  2  0
 10 11  1  0
 11 12  2  0
 12 13  1  0
 13 14  2  0
 14 15  1  0
 15 16  2  0
 16 17  1  0
 17 18  1  0
 18 19  1  0
 19 20  1  0
 20 21  1  0
 21 22  1  0
 17 23  2  0
 10 24  1  0
 24 25  1  0
 25 26  1  0
 26 27  1  0
 27 28  1  0
 28 29  1  0
 29 30  1  0
 30 31  1  0
 24  2  1  0
 31 26  1  0
  8  3  1  0
 23 13  1  0
 22 18  1  0
  4 32  1  0
  5 33  1  0
  6 34  1  0
  7 35  1  0
 11 36  1  0
 12 37  1  0
 14 38  1  0
 15 39  1  0
 16 40  1  0
 19 41  1  0
 19 42  1  0
 20 43  1  0
 20 44  1  0
 21 45  1  0
 21 46  1  0
 22 47  1  0
 22 48  1  0
 23 49  1  0
 25 50  1  0
 25 51  1  0
 26 52  1  0
 27 53  1  0
 27 54  1  0
 28 55  1  0
 28 56  1  0
 29 57  1  0
 30 58  1  0
 30 59  1  0
 31 60  1  0
 31 61  1  0
M  END
>  <smiles>  (28) 
O=c1c2ccccc2nc(/C=C/c2cccc(N3CCCC3)c2)n1CC1CCNCC1

>  <score_type>  (28) 
oracle

>  <origin>  (28) 
autodockgpu

>  <m_score__min__energy>  (28) 
-9.4900000000000002

>  <m_primary>  (28) 
energy

>  <rmsd>  (28) 
7.70291617625588

>  <m_score__min__rmsd>  (28) 
7.70291617625588

>  <meeko>  (28) 
{"free_energy": -9.01, "intermolecular_energy": -10.8, "internal_energy": -1.48, "cluster_size": 28, "cluster_id": 1, "rank_in_cluster": 19}

>  <energy>  (28) 
-7.92

>  <cluster_rmsd>  (28) 
1.54

>  <cluster>  (28) 
1

$$$$

     RDKit          3D

 61 65  0  0  0  0  0  0  0  0999 V2000
  142.4810   76.4820  218.9180 O   0  0  0  0  0  0  0  0  0  0  0  0
  141.9020   76.2050  220.0090 C   0  0  0  0  0  0  0  0  0  0  0  0
  141.4860   77.2510  220.8040 C   0  0  0  0  0  0  0  0  0  0  0  0
  141.6760   78.5740  220.4590 C   0  0  0  0  0  0  0  0  0  0  0  0
  141.2550   79.6250  221.2610 C   0  0  0  0  0  0  0  0  0  0  0  0
  140.6200   79.2970  222.4570 C   0  0  0  0  0  0  0  0  0  0  0  0
  140.4190   77.9700  222.8230 C   0  0  0  0  0  0  0  0  0  0  0  0
  140.8550   76.9450  221.9900 C   0  0  0  0  0  0  0  0  0  0  0  0
  140.6840   75.6490  222.3040 N   0  0  0  0  0  0  0  0  0  0  0  0
  141.0860   74.6430  221.5360 C   0  0  0  0  0  0  0  0  0  0  0  0
  140.8610   73.2680  221.9650 C   0  0  0  0  0  0  0  0  0  0  0  0
  139.6930   72.7030  221.7340 C   0  0  0  0  0  0  0  0  0  0  0  0
  139.0210   71.8100  222.6700 C   0  0  0  0  0  0  0  0  0  0  0  0
  137.7980   71.2570  222.4800 C   0  0  0  0  0  0  0  0  0  0  0  0
  137.1860   70.4070  223.3950 C   0  0  0  0  0  0  0  0  0  0  0  0
  137.8550   70.0960  224.5820 C   0  0  0  0  0  0  0  0  0  0  0  0
  139.1010   70.6470  224.7980 C   0  0  0  0  0  0  0  0  0  0  0  0
  139.7680   70.3200  226.0090 N   0  0  0  0  0  0  0  0  0  0  0  0
  140.6280   71.2440  226.7270 C   0  0  0  0  0  0  0  0  0  0  0  0
  141.0520   70.4970  227.9710 C   0  0  0  0  0  0  0  0  0  0  0  0
  141.0210   69.0530  227.4680 C   0  0  0  0  0  0  0  0  0  0  0  0
  139.7070   69.0490  226.7130 C   0  0  0  0  0  0  0  0  0  0  0  0
  139.6790   71.4880  223.8620 C   0  0  0  0  0  0  0  0  0  0  0  0
  141.7040   74.9010  220.3720 N   0  0  0  0  0  0  0  0  0  0  0  0
  142.1720   73.9060  219.4530 C   0  0  0  0  0  0  0  0  0  0  0  0
  143.5160   73.3360  219.7310 C   0  0  0  0  0  0  0  0  0  0  0  0
  144.5300   74.2560  220.3130 C   0  0  0  0  0  0  0  0  0  0  0  0
  145.7700   73.4350  220.6990 C   0  0  0  0  0  0  0  0  0  0  0  0
  145.9950   72.3830  219.7250 N   0  0  0  0  0  0  0  0  0  0  0  0
  145.5760   72.8940  218.4270 C   0  0  0  0  0  0  0  0  0  0  0  0
  144.0690   72.8560  218.3910 C   0  0  0  0  0  0  0  0  0  0  0  0
  142.1817   78.8044  219.5097 H   0  0  0  0  0  0  0  0  0  0  0  0
  141.4157   80.6723  220.9653 H   0  0  0  0  0  0  0  0  0  0  0  0
  140.2719   80.1005  223.1228 H   0  0  0  0  0  0  0  0  0  0  0  0
  139.9152   77.7313  223.7713 H   0  0  0  0  0  0  0  0  0  0  0  0
  141.6578   72.7079  222.4762 H   0  0  0  0  0  0  0  0  0  0  0  0
  139.1951   72.9183  220.7771 H   0  0  0  0  0  0  0  0  0  0  0  0
  137.2597   71.4937  221.5504 H   0  0  0  0  0  0  0  0  0  0  0  0
  136.1911   69.9861  223.1877 H   0  0  0  0  0  0  0  0  0  0  0  0
  137.3985   69.4274  225.3267 H   0  0  0  0  0  0  0  0  0  0  0  0
  141.5045   71.5094  226.1177 H   0  0  0  0  0  0  0  0  0  0  0  0
  140.1137   72.1866  226.9660 H   0  0  0  0  0  0  0  0  0  0  0  0
  142.0615   70.7907  228.2944 H   0  0  0  0  0  0  0  0  0  0  0  0
  140.4191   70.6847  228.8509 H   0  0  0  0  0  0  0  0  0  0  0  0
  141.8709   68.8363  226.8042 H   0  0  0  0  0  0  0  0  0  0  0  0
  141.0968   68.2916  228.2583 H   0  0  0  0  0  0  0  0  0  0  0  0
  139.6504   68.2040  226.0110 H   0  0  0  0  0  0  0  0  0  0  0  0
  138.8222   68.9371  227.3569 H   0  0  0  0  0  0  0  0  0  0  0  0
  140.6750   71.9112  224.0595 H   0  0  0  0  0  0  0  0  0  0  0  0
  141.4485   73.0775  219.4584 H   0  0  0  0  0  0  0  0  0  0  0  0
  142.2649   74.4200  218.4849 H   0  0  0  0  0  0  0  0  0  0  0  0
  143.3584   72.5582  220.4927 H   0  0  0  0  0  0  0  0  0  0  0  0
  144.8070   75.0197  219.5713 H   0  0  0  0  0  0  0  0  0  0  0  0
  144.1182   74.7565  221.2018 H   0  0  0  0  0  0  0  0  0  0  0  0
  146.6487   74.0960  220.7300 H   0  0  0  0  0  0  0  0  0  0  0  0
  145.6077   72.9812  221.6878 H   0  0  0  0  0  0  0  0  0  0  0  0
  145.4200   71.5600  219.9410 H   0  0  0  0  0  0  0  0  0  0  0  0
  145.9290   73.9279  218.2984 H   0  0  0  0  0  0  0  0  0  0  0  0
  145.9988   72.2840  217.6152 H   0  0  0  0  0  0  0  0  0  0  0  0
  143.7047   73.5129  217.5874 H   0  0  0  0  0  0  0  0  0  0  0  0
  143.7324   71.8258  218.2031 H   0  0  0  0  0  0  0  0  0  0  0  0
  1  2  2  0
  2  3  1  0
  3  4  2  0
  4  5  1  0
  5  6  2  0
  6  7  1  0
  7  8  2  0
  8  9  1  0
  9 10  2  0
 10 11  1  0
 11 12  2  0
 12 13  1  0
 13 14  2  0
 14 15  1  0
 15 16  2  0
 16 17  1  0
 17 18  1  0
 18 19  1  0
 19 20  1  0
 20 21  1  0
 21 22  1  0
 17 23  2  0
 10 24  1  0
 24 25  1  0
 25 26  1  0
 26 27  1  0
 27 28  1  0
 28 29  1  0
 29 30  1  0
 30 31  1  0
 24  2  1  0
 31 26  1  0
  8  3  1  0
 23 13  1  0
 22 18  1  0
  4 32  1  0
  5 33  1  0
  6 34  1  0
  7 35  1  0
 11 36  1  0
 12 37  1  0
 14 38  1  0
 15 39  1  0
 16 40  1  0
 19 41  1  0
 19 42  1  0
 20 43  1  0
 20 44  1  0
 21 45  1  0
 21 46  1  0
 22 47  1  0
 22 48  1  0
 23 49  1  0
 25 50  1  0
 25 51  1  0
 26 52  1  0
 27 53  1  0
 27 54  1  0
 28 55  1  0
 28 56  1  0
 29 57  1  0
 30 58  1  0
 30 59  1  0
 31 60  1  0
 31 61  1  0
M  END
>  <smiles>  (29) 
O=c1c2ccccc2nc(/C=C/c2cccc(N3CCCC3)c2)n1CC1CCNCC1

>  <score_type>  (29) 
oracle

>  <origin>  (29) 
autodockgpu

>  <m_score__min__energy>  (29) 
-9.4900000000000002

>  <m_primary>  (29) 
energy

>  <rmsd>  (29) 
7.479779961273176

>  <m_score__min__rmsd>  (29) 
7.479779961273176

>  <meeko>  (29) 
{"free_energy": -8.5, "intermolecular_energy": -10.29, "internal_energy": -1.42, "cluster_size": 28, "cluster_id": 1, "rank_in_cluster": 25}

>  <energy>  (29) 
-8.87

>  <cluster_rmsd>  (29) 
0.0

>  <cluster>  (29) 
2

$$$$

     RDKit          3D

 61 65  0  0  0  0  0  0  0  0999 V2000
  138.8860   68.0590  225.1870 O   0  0  0  0  0  0  0  0  0  0  0  0
  139.3460   69.2160  224.9630 C   0  0  0  0  0  0  0  0  0  0  0  0
  139.9200   69.8980  226.0140 C   0  0  0  0  0  0  0  0  0  0  0  0
  140.0100   69.3720  227.2870 C   0  0  0  0  0  0  0  0  0  0  0  0
  140.5900   70.0610  228.3430 C   0  0  0  0  0  0  0  0  0  0  0  0
  141.0890   71.3330  228.0730 C   0  0  0  0  0  0  0  0  0  0  0  0
  141.0080   71.8820  226.7980 C   0  0  0  0  0  0  0  0  0  0  0  0
  140.4200   71.1580  225.7660 C   0  0  0  0  0  0  0  0  0  0  0  0
  140.3190   71.6480  224.5190 N   0  0  0  0  0  0  0  0  0  0  0  0
  139.7650   70.9890  223.5080 C   0  0  0  0  0  0  0  0  0  0  0  0
  139.6940   71.6080  222.1890 C   0  0  0  0  0  0  0  0  0  0  0  0
  140.3560   72.7260  221.9650 C   0  0  0  0  0  0  0  0  0  0  0  0
  139.7440   74.0490  221.9690 C   0  0  0  0  0  0  0  0  0  0  0  0
  138.4110   74.2940  221.9760 C   0  0  0  0  0  0  0  0  0  0  0  0
  137.8620   75.5720  221.9810 C   0  0  0  0  0  0  0  0  0  0  0  0
  138.7170   76.6760  221.9780 C   0  0  0  0  0  0  0  0  0  0  0  0
  140.0790   76.4530  221.9720 C   0  0  0  0  0  0  0  0  0  0  0  0
  140.9350   77.5870  221.9710 N   0  0  0  0  0  0  0  0  0  0  0  0
  141.2950   78.3240  223.1690 C   0  0  0  0  0  0  0  0  0  0  0  0
  142.2640   79.3850  222.6990 C   0  0  0  0  0  0  0  0  0  0  0  0
  141.7740   79.6140  221.2680 C   0  0  0  0  0  0  0  0  0  0  0  0
  141.5770   78.1820  220.8090 C   0  0  0  0  0  0  0  0  0  0  0  0
  140.5890   75.1660  221.9680 C   0  0  0  0  0  0  0  0  0  0  0  0
  139.2670   69.7590  223.7090 N   0  0  0  0  0  0  0  0  0  0  0  0
  138.6580   68.9440  222.7010 C   0  0  0  0  0  0  0  0  0  0  0  0
  137.2680   68.4930  222.9710 C   0  0  0  0  0  0  0  0  0  0  0  0
  136.4810   68.0040  221.8070 C   0  0  0  0  0  0  0  0  0  0  0  0
  135.1600   67.4120  222.3230 C   0  0  0  0  0  0  0  0  0  0  0  0
  134.6730   68.1880  223.4490 N   0  0  0  0  0  0  0  0  0  0  0  0
  135.0520   69.5750  223.2200 C   0  0  0  0  0  0  0  0  0  0  0  0
  136.5220   69.7000  223.5350 C   0  0  0  0  0  0  0  0  0  0  0  0
  139.6056   68.3659  227.4720 H   0  0  0  0  0  0  0  0  0  0  0  0
  140.6529   69.6216  229.3495 H   0  0  0  0  0  0  0  0  0  0  0  0
  141.5554   71.9135  228.8826 H   0  0  0  0  0  0  0  0  0  0  0  0
  141.4086   72.8882  226.6056 H   0  0  0  0  0  0  0  0  0  0  0  0
  139.0947   71.1471  221.3900 H   0  0  0  0  0  0  0  0  0  0  0  0
  141.4350   72.6562  221.7629 H   0  0  0  0  0  0  0  0  0  0  0  0
  137.7250   73.4341  221.9778 H   0  0  0  0  0  0  0  0  0  0  0  0
  136.7708   75.7109  221.9872 H   0  0  0  0  0  0  0  0  0  0  0  0
  138.3143   77.6997  221.9804 H   0  0  0  0  0  0  0  0  0  0  0  0
  140.4049   78.7861  223.6208 H   0  0  0  0  0  0  0  0  0  0  0  0
  141.7362   77.6728  223.9379 H   0  0  0  0  0  0  0  0  0  0  0  0
  142.1858   80.3002  223.3042 H   0  0  0  0  0  0  0  0  0  0  0  0
  143.3231   79.0978  222.7753 H   0  0  0  0  0  0  0  0  0  0  0  0
  140.8310   80.1800  221.2476 H   0  0  0  0  0  0  0  0  0  0  0  0
  142.4558   80.2063  220.6400 H   0  0  0  0  0  0  0  0  0  0  0  0
  140.9284   78.1306  219.9220 H   0  0  0  0  0  0  0  0  0  0  0  0
  142.5063   77.6782  220.5047 H   0  0  0  0  0  0  0  0  0  0  0  0
  141.6790   75.0178  221.9640 H   0  0  0  0  0  0  0  0  0  0  0  0
  138.6474   69.5210  221.7645 H   0  0  0  0  0  0  0  0  0  0  0  0
  139.2622   68.0256  222.6613 H   0  0  0  0  0  0  0  0  0  0  0  0
  137.3610   67.6275  223.6435 H   0  0  0  0  0  0  0  0  0  0  0  0
  136.2707   68.8403  221.1241 H   0  0  0  0  0  0  0  0  0  0  0  0
  137.0507   67.2355  221.2640 H   0  0  0  0  0  0  0  0  0  0  0  0
  134.4124   67.4323  221.5164 H   0  0  0  0  0  0  0  0  0  0  0  0
  135.3320   66.3750  222.6472 H   0  0  0  0  0  0  0  0  0  0  0  0
  135.1180   67.8790  224.3210 H   0  0  0  0  0  0  0  0  0  0  0  0
  134.8683   69.8463  222.1699 H   0  0  0  0  0  0  0  0  0  0  0  0
  134.4601   70.2491  223.8566 H   0  0  0  0  0  0  0  0  0  0  0  0
  136.9173   70.6205  223.0807 H   0  0  0  0  0  0  0  0  0  0  0  0
  136.6611   69.7402  224.6254 H   0  0  0  0  0  0  0  0  0  0  0  0
  1  2  2  0
  2  3  1  0
  3  4  2  0
  4  5  1  0
  5  6  2  0
  6  7  1  0
  7  8  2  0
  8  9  1  0
  9 10  2  0
 10 11  1  0
 11 12  2  0
 12 13  1  0
 13 14  2  0
 14 15  1  0
 15 16  2  0
 16 17  1  0
 17 18  1  0
 18 19  1  0
 19 20  1  0
 20 21  1  0
 21 22  1  0
 17 23  2  0
 10 24  1  0
 24 25  1  0
 25 26  1  0
 26 27  1  0
 27 28  1  0
 28 29  1  0
 29 30  1  0
 30 31  1  0
 24  2  1  0
 31 26  1  0
  8  3  1  0
 23 13  1  0
 22 18  1  0
  4 32  1  0
  5 33  1  0
  6 34  1  0
  7 35  1  0
 11 36  1  0
 12 37  1  0
 14 38  1  0
 15 39  1  0
 16 40  1  0
 19 41  1  0
 19 42  1  0
 20 43  1  0
 20 44  1  0
 21 45  1  0
 21 46  1  0
 22 47  1  0
 22 48  1  0
 23 49  1  0
 25 50  1  0
 25 51  1  0
 26 52  1  0
 27 53  1  0
 27 54  1  0
 28 55  1  0
 28 56  1  0
 29 57  1  0
 30 58  1  0
 30 59  1  0
 31 60  1  0
 31 61  1  0
M  END
>  <smiles>  (30) 
O=c1c2ccccc2nc(/C=C/c2cccc(N3CCCC3)c2)n1CC1CCNCC1

>  <score_type>  (30) 
oracle

>  <origin>  (30) 
autodockgpu

>  <m_score__min__energy>  (30) 
-9.4900000000000002

>  <m_primary>  (30) 
energy

>  <rmsd>  (30) 
12.216368154695235

>  <m_score__min__rmsd>  (30) 
12.216368154695235

>  <meeko>  (30) 
{"free_energy": -8.77, "intermolecular_energy": -10.56, "internal_energy": -1.41, "cluster_size": 1, "cluster_id": 3, "rank_in_cluster": 1}

>  <energy>  (30) 
-8.86

>  <cluster_rmsd>  (30) 
0.19

>  <cluster>  (30) 
2

$$$$

     RDKit          3D

 61 65  0  0  0  0  0  0  0  0999 V2000
  142.8230   77.3120  219.1350 O   0  0  0  0  0  0  0  0  0  0  0  0
  142.0730   76.9100  220.0710 C   0  0  0  0  0  0  0  0  0  0  0  0
  141.7350   77.8090  221.0610 C   0  0  0  0  0  0  0  0  0  0  0  0
  142.1790   79.1150  221.0680 C   0  0  0  0  0  0  0  0  0  0  0  0
  141.8360   80.0170  222.0650 C   0  0  0  0  0  0  0  0  0  0  0  0
  141.0090   79.5520  223.0860 C   0  0  0  0  0  0  0  0  0  0  0  0
  140.5510   78.2400  223.0970 C   0  0  0  0  0  0  0  0  0  0  0  0
  140.9170   77.3660  222.0780 C   0  0  0  0  0  0  0  0  0  0  0  0
  140.5000   76.0890  222.0490 N   0  0  0  0  0  0  0  0  0  0  0  0
  140.8270   75.2250  221.0950 C   0  0  0  0  0  0  0  0  0  0  0  0
  140.3290   73.8560  221.1530 C   0  0  0  0  0  0  0  0  0  0  0  0
  141.0580   72.9290  221.7420 C   0  0  0  0  0  0  0  0  0  0  0  0
  140.5030   71.8320  222.5260 C   0  0  0  0  0  0  0  0  0  0  0  0
  139.8030   70.7870  222.0200 C   0  0  0  0  0  0  0  0  0  0  0  0
  139.2880   69.7560  222.7980 C   0  0  0  0  0  0  0  0  0  0  0  0
  139.4930   69.7840  224.1790 C   0  0  0  0  0  0  0  0  0  0  0  0
  140.2020   70.8370  224.7180 C   0  0  0  0  0  0  0  0  0  0  0  0
  140.4030   70.8500  226.1250 N   0  0  0  0  0  0  0  0  0  0  0  0
  141.1040   71.9100  226.8270 C   0  0  0  0  0  0  0  0  0  0  0  0
  141.0100   71.5390  228.2890 C   0  0  0  0  0  0  0  0  0  0  0  0
  140.9520   70.0130  228.1990 C   0  0  0  0  0  0  0  0  0  0  0  0
  139.9560   69.8390  227.0700 C   0  0  0  0  0  0  0  0  0  0  0  0
  140.7010   71.8450  223.9110 C   0  0  0  0  0  0  0  0  0  0  0  0
  141.6210   75.6190  220.0860 N   0  0  0  0  0  0  0  0  0  0  0  0
  142.0340   74.7880  218.9940 C   0  0  0  0  0  0  0  0  0  0  0  0
  143.4360   74.2950  219.0370 C   0  0  0  0  0  0  0  0  0  0  0  0
  143.6600   72.8720  218.6660 C   0  0  0  0  0  0  0  0  0  0  0  0
  145.1740   72.6200  218.5870 C   0  0  0  0  0  0  0  0  0  0  0  0
  145.8590   73.3770  219.6200 N   0  0  0  0  0  0  0  0  0  0  0  0
  144.9770   73.4340  220.7770 C   0  0  0  0  0  0  0  0  0  0  0  0
  143.9080   74.4560  220.4810 C   0  0  0  0  0  0  0  0  0  0  0  0
  142.8313   79.4551  220.2502 H   0  0  0  0  0  0  0  0  0  0  0  0
  142.2011   81.0545  222.0502 H   0  0  0  0  0  0  0  0  0  0  0  0
  140.7140   80.2348  223.8964 H   0  0  0  0  0  0  0  0  0  0  0  0
  139.8988   77.8922  223.9117 H   0  0  0  0  0  0  0  0  0  0  0  0
  139.3554   73.5994  220.7100 H   0  0  0  0  0  0  0  0  0  0  0  0
  142.1513   72.9865  221.6356 H   0  0  0  0  0  0  0  0  0  0  0  0
  139.6330   70.7529  220.9338 H   0  0  0  0  0  0  0  0  0  0  0  0
  138.7279   68.9313  222.3329 H   0  0  0  0  0  0  0  0  0  0  0  0
  139.0979   68.9841  224.8225 H   0  0  0  0  0  0  0  0  0  0  0  0
  142.1553   71.9565  226.5067 H   0  0  0  0  0  0  0  0  0  0  0  0
  140.6687   72.8993  226.6228 H   0  0  0  0  0  0  0  0  0  0  0  0
  141.8940   71.8774  228.8494 H   0  0  0  0  0  0  0  0  0  0  0  0
  140.1608   71.9949  228.8191 H   0  0  0  0  0  0  0  0  0  0  0  0
  141.9325   69.5839  227.9450 H   0  0  0  0  0  0  0  0  0  0  0  0
  140.6738   69.5094  229.1365 H   0  0  0  0  0  0  0  0  0  0  0  0
  140.0144   68.8301  226.6356 H   0  0  0  0  0  0  0  0  0  0  0  0
  138.9062   69.9496  227.3793 H   0  0  0  0  0  0  0  0  0  0  0  0
  141.2642   72.6723  224.3675 H   0  0  0  0  0  0  0  0  0  0  0  0
  141.3706   73.9109  218.9703 H   0  0  0  0  0  0  0  0  0  0  0  0
  141.9740   75.4260  218.0999 H   0  0  0  0  0  0  0  0  0  0  0  0
  143.9820   74.8819  218.2838 H   0  0  0  0  0  0  0  0  0  0  0  0
  143.2140   72.2155  219.4277 H   0  0  0  0  0  0  0  0  0  0  0  0
  143.1916   72.6582  217.6940 H   0  0  0  0  0  0  0  0  0  0  0  0
  145.3725   71.5475  218.7294 H   0  0  0  0  0  0  0  0  0  0  0  0
  145.5420   72.9403  217.6011 H   0  0  0  0  0  0  0  0  0  0  0  0
  146.0330   74.3390  219.3070 H   0  0  0  0  0  0  0  0  0  0  0  0
  144.5181   72.4491  220.9485 H   0  0  0  0  0  0  0  0  0  0  0  0
  145.5398   73.7119  221.6803 H   0  0  0  0  0  0  0  0  0  0  0  0
  143.0584   74.3062  221.1634 H   0  0  0  0  0  0  0  0  0  0  0  0
  144.3178   75.4670  220.6224 H   0  0  0  0  0  0  0  0  0  0  0  0
  1  2  2  0
  2  3  1  0
  3  4  2  0
  4  5  1  0
  5  6  2  0
  6  7  1  0
  7  8  2  0
  8  9  1  0
  9 10  2  0
 10 11  1  0
 11 12  2  0
 12 13  1  0
 13 14  2  0
 14 15  1  0
 15 16  2  0
 16 17  1  0
 17 18  1  0
 18 19  1  0
 19 20  1  0
 20 21  1  0
 21 22  1  0
 17 23  2  0
 10 24  1  0
 24 25  1  0
 25 26  1  0
 26 27  1  0
 27 28  1  0
 28 29  1  0
 29 30  1  0
 30 31  1  0
 24  2  1  0
 31 26  1  0
  8  3  1  0
 23 13  1  0
 22 18  1  0
  4 32  1  0
  5 33  1  0
  6 34  1  0
  7 35  1  0
 11 36  1  0
 12 37  1  0
 14 38  1  0
 15 39  1  0
 16 40  1  0
 19 41  1  0
 19 42  1  0
 20 43  1  0
 20 44  1  0
 21 45  1  0
 21 46  1  0
 22 47  1  0
 22 48  1  0
 23 49  1  0
 25 50  1  0
 25 51  1  0
 26 52  1  0
 27 53  1  0
 27 54  1  0
 28 55  1  0
 28 56  1  0
 29 57  1  0
 30 58  1  0
 30 59  1  0
 31 60  1  0
 31 61  1  0
M  END
>  <smiles>  (31) 
O=c1c2ccccc2nc(/C=C/c2cccc(N3CCCC3)c2)n1CC1CCNCC1

>  <score_type>  (31) 
oracle

>  <origin>  (31) 
autodockgpu

>  <m_score__min__energy>  (31) 
-9.4900000000000002

>  <m_primary>  (31) 
energy

>  <rmsd>  (31) 
7.6883377513569915

>  <m_score__min__rmsd>  (31) 
7.6883377513569915

>  <meeko>  (31) 
{"free_energy": -9.11, "intermolecular_energy": -10.9, "internal_energy": -1.53, "cluster_size": 28, "cluster_id": 1, "rank_in_cluster": 16}

>  <energy>  (31) 
-8.83

>  <cluster_rmsd>  (31) 
0.05

>  <cluster>  (31) 
2

$$$$

     RDKit          3D

 61 65  0  0  0  0  0  0  0  0999 V2000
  142.4620   76.7160  218.6290 O   0  0  0  0  0  0  0  0  0  0  0  0
  142.0040   76.3360  219.7450 C   0  0  0  0  0  0  0  0  0  0  0  0
  141.5920   77.3030  220.6380 C   0  0  0  0  0  0  0  0  0  0  0  0
  141.6610   78.6530  220.3630 C   0  0  0  0  0  0  0  0  0  0  0  0
  141.2450   79.6230  221.2630 C   0  0  0  0  0  0  0  0  0  0  0  0
  140.7430   79.1820  222.4860 C   0  0  0  0  0  0  0  0  0  0  0  0
  140.6650   77.8260  222.7840 C   0  0  0  0  0  0  0  0  0  0  0  0
  141.0920   76.8840  221.8530 C   0  0  0  0  0  0  0  0  0  0  0  0
  141.0370   75.5640  222.0960 N   0  0  0  0  0  0  0  0  0  0  0  0
  141.4340   74.6350  221.2350 C   0  0  0  0  0  0  0  0  0  0  0  0
  141.3410   73.2250  221.5930 C   0  0  0  0  0  0  0  0  0  0  0  0
  140.1860   72.6020  221.4690 C   0  0  0  0  0  0  0  0  0  0  0  0
  139.7040   71.5870  222.3970 C   0  0  0  0  0  0  0  0  0  0  0  0
  138.8750   70.5640  222.0750 C   0  0  0  0  0  0  0  0  0  0  0  0
  138.4350   69.6120  222.9880 C   0  0  0  0  0  0  0  0  0  0  0  0
  138.8600   69.7000  224.3150 C   0  0  0  0  0  0  0  0  0  0  0  0
  139.7040   70.7320  224.6690 C   0  0  0  0  0  0  0  0  0  0  0  0
  140.1290   70.8070  226.0230 N   0  0  0  0  0  0  0  0  0  0  0  0
  140.9530   71.8810  226.5480 C   0  0  0  0  0  0  0  0  0  0  0  0
  141.0880   71.5830  228.0240 C   0  0  0  0  0  0  0  0  0  0  0  0
  140.9890   70.0570  228.0230 C   0  0  0  0  0  0  0  0  0  0  0  0
  139.8210   69.8550  227.0780 C   0  0  0  0  0  0  0  0  0  0  0  0
  140.1220   71.6610  223.7310 C   0  0  0  0  0  0  0  0  0  0  0  0
  141.9260   75.0030  220.0400 N   0  0  0  0  0  0  0  0  0  0  0  0
  142.3750   74.0990  219.0240 C   0  0  0  0  0  0  0  0  0  0  0  0
  143.7970   73.6750  219.1020 C   0  0  0  0  0  0  0  0  0  0  0  0
  144.0560   72.2530  219.4530 C   0  0  0  0  0  0  0  0  0  0  0  0
  145.5600   71.9760  219.2920 C   0  0  0  0  0  0  0  0  0  0  0  0
  146.3270   73.1370  219.7070 N   0  0  0  0  0  0  0  0  0  0  0  0
  145.6020   73.7720  220.7980 C   0  0  0  0  0  0  0  0  0  0  0  0
  144.4440   74.5260  220.1930 C   0  0  0  0  0  0  0  0  0  0  0  0
  142.0623   78.9734  219.3902 H   0  0  0  0  0  0  0  0  0  0  0  0
  141.3086   80.6943  221.0218 H   0  0  0  0  0  0  0  0  0  0  0  0
  140.4027   79.9191  223.2282 H   0  0  0  0  0  0  0  0  0  0  0  0
  140.2659   77.4981  223.7552 H   0  0  0  0  0  0  0  0  0  0  0  0
  142.2258   72.6863  221.9629 H   0  0  0  0  0  0  0  0  0  0  0  0
  139.5470   72.8642  220.6129 H   0  0  0  0  0  0  0  0  0  0  0  0
  138.5312   70.4824  221.0333 H   0  0  0  0  0  0  0  0  0  0  0  0
  137.7624   68.8019  222.6696 H   0  0  0  0  0  0  0  0  0  0  0  0
  138.5292   68.9629  225.0615 H   0  0  0  0  0  0  0  0  0  0  0  0
  141.9399   71.8843  226.0622 H   0  0  0  0  0  0  0  0  0  0  0  0
  140.5090   72.8706  226.3646 H   0  0  0  0  0  0  0  0  0  0  0  0
  142.0563   71.9249  228.4184 H   0  0  0  0  0  0  0  0  0  0  0  0
  140.3431   72.0856  228.6584 H   0  0  0  0  0  0  0  0  0  0  0  0
  141.9079   69.5909  227.6379 H   0  0  0  0  0  0  0  0  0  0  0  0
  140.8564   69.6062  229.0176 H   0  0  0  0  0  0  0  0  0  0  0  0
  139.7902   68.8252  226.6927 H   0  0  0  0  0  0  0  0  0  0  0  0
  138.8367   70.0079  227.5447 H   0  0  0  0  0  0  0  0  0  0  0  0
  140.7960   72.4734  224.0403 H   0  0  0  0  0  0  0  0  0  0  0  0
  141.7519   73.1943  219.0811 H   0  0  0  0  0  0  0  0  0  0  0  0
  142.2855   74.6530  218.0779 H   0  0  0  0  0  0  0  0  0  0  0  0
  144.2029   73.8033  218.0877 H   0  0  0  0  0  0  0  0  0  0  0  0
  143.7540   72.0670  220.4943 H   0  0  0  0  0  0  0  0  0  0  0  0
  143.4782   71.5906  218.7916 H   0  0  0  0  0  0  0  0  0  0  0  0
  145.8400   71.1132  219.9143 H   0  0  0  0  0  0  0  0  0  0  0  0
  145.7758   71.7601  218.2352 H   0  0  0  0  0  0  0  0  0  0  0  0
  146.4000   73.8150  218.9390 H   0  0  0  0  0  0  0  0  0  0  0  0
  145.2293   73.0082  221.4963 H   0  0  0  0  0  0  0  0  0  0  0  0
  146.2602   74.4543  221.3559 H   0  0  0  0  0  0  0  0  0  0  0  0
  143.7019   74.7468  220.9743 H   0  0  0  0  0  0  0  0  0  0  0  0
  144.8076   75.4678  219.7562 H   0  0  0  0  0  0  0  0  0  0  0  0
  1  2  2  0
  2  3  1  0
  3  4  2  0
  4  5  1  0
  5  6  2  0
  6  7  1  0
  7  8  2  0
  8  9  1  0
  9 10  2  0
 10 11  1  0
 11 12  2  0
 12 13  1  0
 13 14  2  0
 14 15  1  0
 15 16  2  0
 16 17  1  0
 17 18  1  0
 18 19  1  0
 19 20  1  0
 20 21  1  0
 21 22  1  0
 17 23  2  0
 10 24  1  0
 24 25  1  0
 25 26  1  0
 26 27  1  0
 27 28  1  0
 28 29  1  0
 29 30  1  0
 30 31  1  0
 24  2  1  0
 31 26  1  0
  8  3  1  0
 23 13  1  0
 22 18  1  0
  4 32  1  0
  5 33  1  0
  6 34  1  0
  7 35  1  0
 11 36  1  0
 12 37  1  0
 14 38  1  0
 15 39  1  0
 16 40  1  0
 19 41  1  0
 19 42  1  0
 20 43  1  0
 20 44  1  0
 21 45  1  0
 21 46  1  0
 22 47  1  0
 22 48  1  0
 23 49  1  0
 25 50  1  0
 25 51  1  0
 26 52  1  0
 27 53  1  0
 27 54  1  0
 28 55  1  0
 28 56  1  0
 29 57  1  0
 30 58  1  0
 30 59  1  0
 31 60  1  0
 31 61  1  0
M  END
>  <smiles>  (32) 
O=c1c2ccccc2nc(/C=C/c2cccc(N3CCCC3)c2)n1CC1CCNCC1

>  <score_type>  (32) 
oracle

>  <origin>  (32) 
autodockgpu

>  <m_score__min__energy>  (32) 
-9.4900000000000002

>  <m_primary>  (32) 
energy

>  <rmsd>  (32) 
7.680606019285368

>  <m_score__min__rmsd>  (32) 
7.680606019285368

>  <meeko>  (32) 
{"free_energy": -9.29, "intermolecular_energy": -11.08, "internal_energy": -1.46, "cluster_size": 28, "cluster_id": 1, "rank_in_cluster": 7}

>  <energy>  (32) 
-8.83

>  <cluster_rmsd>  (32) 
0.18

>  <cluster>  (32) 
2

$$$$

     RDKit          3D

 61 65  0  0  0  0  0  0  0  0999 V2000
  142.6090   77.2390  218.8760 O   0  0  0  0  0  0  0  0  0  0  0  0
  142.0720   76.7750  219.9230 C   0  0  0  0  0  0  0  0  0  0  0  0
  141.6880   77.6680  220.9010 C   0  0  0  0  0  0  0  0  0  0  0  0
  141.8650   79.0310  220.7820 C   0  0  0  0  0  0  0  0  0  0  0  0
  141.4760   79.9260  221.7670 C   0  0  0  0  0  0  0  0  0  0  0  0
  140.8870   79.3940  222.9120 C   0  0  0  0  0  0  0  0  0  0  0  0
  140.6990   78.0240  223.0530 C   0  0  0  0  0  0  0  0  0  0  0  0
  141.1030   77.1590  222.0410 C   0  0  0  0  0  0  0  0  0  0  0  0
  140.9430   75.8280  222.1340 N   0  0  0  0  0  0  0  0  0  0  0  0
  141.3140   74.9700  221.1900 C   0  0  0  0  0  0  0  0  0  0  0  0
  141.1050   73.5410  221.3850 C   0  0  0  0  0  0  0  0  0  0  0  0
  139.9690   73.1200  221.9050 C   0  0  0  0  0  0  0  0  0  0  0  0
  139.8280   71.8770  222.6540 C   0  0  0  0  0  0  0  0  0  0  0  0
  139.3450   70.7130  222.1530 C   0  0  0  0  0  0  0  0  0  0  0  0
  139.2250   69.5450  222.8980 C   0  0  0  0  0  0  0  0  0  0  0  0
  139.6170   69.5530  224.2380 C   0  0  0  0  0  0  0  0  0  0  0  0
  140.1110   70.7260  224.7720 C   0  0  0  0  0  0  0  0  0  0  0  0
  140.5070   70.7170  226.1360 N   0  0  0  0  0  0  0  0  0  0  0  0
  140.3260   69.5780  227.0190 C   0  0  0  0  0  0  0  0  0  0  0  0
  140.9490   69.9970  228.3300 C   0  0  0  0  0  0  0  0  0  0  0  0
  140.7300   71.5100  228.2870 C   0  0  0  0  0  0  0  0  0  0  0  0
  141.1390   71.8100  226.8580 C   0  0  0  0  0  0  0  0  0  0  0  0
  140.2180   71.8690  223.9980 C   0  0  0  0  0  0  0  0  0  0  0  0
  141.8870   75.4270  220.0650 N   0  0  0  0  0  0  0  0  0  0  0  0
  142.3190   74.6080  218.9720 C   0  0  0  0  0  0  0  0  0  0  0  0
  143.7080   74.0860  219.0510 C   0  0  0  0  0  0  0  0  0  0  0  0
  143.8660   72.6150  219.2060 C   0  0  0  0  0  0  0  0  0  0  0  0
  145.3580   72.2670  219.0730 C   0  0  0  0  0  0  0  0  0  0  0  0
  146.1680   73.3070  219.6810 N   0  0  0  0  0  0  0  0  0  0  0  0
  145.4250   73.8300  220.8190 C   0  0  0  0  0  0  0  0  0  0  0  0
  144.3460   74.7340  220.2780 C   0  0  0  0  0  0  0  0  0  0  0  0
  142.3341   79.4240  219.8679 H   0  0  0  0  0  0  0  0  0  0  0  0
  141.6260   81.0094  221.6494 H   0  0  0  0  0  0  0  0  0  0  0  0
  140.5652   80.0696  223.7182 H   0  0  0  0  0  0  0  0  0  0  0  0
  140.2309   77.6239  223.9645 H   0  0  0  0  0  0  0  0  0  0  0  0
  141.8869   72.8212  221.1013 H   0  0  0  0  0  0  0  0  0  0  0  0
  139.0739   73.7439  221.7654 H   0  0  0  0  0  0  0  0  0  0  0  0
  139.0308   70.6916  221.0990 H   0  0  0  0  0  0  0  0  0  0  0  0
  138.8271   68.6283  222.4384 H   0  0  0  0  0  0  0  0  0  0  0  0
  139.5341   68.6454  224.8540 H   0  0  0  0  0  0  0  0  0  0  0  0
  139.2565   69.3580  227.1520 H   0  0  0  0  0  0  0  0  0  0  0  0
  140.7875   68.6647  226.6153 H   0  0  0  0  0  0  0  0  0  0  0  0
  140.4338   69.5385  229.1869 H   0  0  0  0  0  0  0  0  0  0  0  0
  141.9997   69.6942  228.4499 H   0  0  0  0  0  0  0  0  0  0  0  0
  139.6780   71.7731  228.4717 H   0  0  0  0  0  0  0  0  0  0  0  0
  141.2856   72.0747  229.0502 H   0  0  0  0  0  0  0  0  0  0  0  0
  140.7535   72.7855  226.5268 H   0  0  0  0  0  0  0  0  0  0  0  0
  142.2269   71.8744  226.7086 H   0  0  0  0  0  0  0  0  0  0  0  0
  140.6177   72.7895  224.4486 H   0  0  0  0  0  0  0  0  0  0  0  0
  141.6394   73.7452  218.9103 H   0  0  0  0  0  0  0  0  0  0  0  0
  142.3011   75.2633  218.0887 H   0  0  0  0  0  0  0  0  0  0  0  0
  144.1730   74.3274  218.0838 H   0  0  0  0  0  0  0  0  0  0  0  0
  143.4996   72.3048  220.1957 H   0  0  0  0  0  0  0  0  0  0  0  0
  143.2865   72.0904  218.4320 H   0  0  0  0  0  0  0  0  0  0  0  0
  145.5550   71.3100  219.5784 H   0  0  0  0  0  0  0  0  0  0  0  0
  145.6157   72.1866  218.0066 H   0  0  0  0  0  0  0  0  0  0  0  0
  146.3200   74.0790  219.0210 H   0  0  0  0  0  0  0  0  0  0  0  0
  144.9728   73.0022  221.3850 H   0  0  0  0  0  0  0  0  0  0  0  0
  146.0918   74.3842  221.4959 H   0  0  0  0  0  0  0  0  0  0  0  0
  143.5786   74.8921  221.0501 H   0  0  0  0  0  0  0  0  0  0  0  0
  144.7857   75.7018  219.9951 H   0  0  0  0  0  0  0  0  0  0  0  0
  1  2  2  0
  2  3  1  0
  3  4  2  0
  4  5  1  0
  5  6  2  0
  6  7  1  0
  7  8  2  0
  8  9  1  0
  9 10  2  0
 10 11  1  0
 11 12  2  0
 12 13  1  0
 13 14  2  0
 14 15  1  0
 15 16  2  0
 16 17  1  0
 17 18  1  0
 18 19  1  0
 19 20  1  0
 20 21  1  0
 21 22  1  0
 17 23  2  0
 10 24  1  0
 24 25  1  0
 25 26  1  0
 26 27  1  0
 27 28  1  0
 28 29  1  0
 29 30  1  0
 30 31  1  0
 24  2  1  0
 31 26  1  0
  8  3  1  0
 23 13  1  0
 22 18  1  0
  4 32  1  0
  5 33  1  0
  6 34  1  0
  7 35  1  0
 11 36  1  0
 12 37  1  0
 14 38  1  0
 15 39  1  0
 16 40  1  0
 19 41  1  0
 19 42  1  0
 20 43  1  0
 20 44  1  0
 21 45  1  0
 21 46  1  0
 22 47  1  0
 22 48  1  0
 23 49  1  0
 25 50  1  0
 25 51  1  0
 26 52  1  0
 27 53  1  0
 27 54  1  0
 28 55  1  0
 28 56  1  0
 29 57  1  0
 30 58  1  0
 30 59  1  0
 31 60  1  0
 31 61  1  0
M  END
>  <smiles>  (33) 
O=c1c2ccccc2nc(/C=C/c2cccc(N3CCCC3)c2)n1CC1CCNCC1

>  <score_type>  (33) 
oracle

>  <origin>  (33) 
autodockgpu

>  <m_score__min__energy>  (33) 
-9.4900000000000002

>  <m_primary>  (33) 
energy

>  <rmsd>  (33) 
7.630419123205826

>  <m_score__min__rmsd>  (33) 
7.630419123205826

>  <meeko>  (33) 
{"free_energy": -9.48, "intermolecular_energy": -11.27, "internal_energy": -1.42, "cluster_size": 28, "cluster_id": 1, "rank_in_cluster": 3}

>  <energy>  (33) 
-8.15

>  <cluster_rmsd>  (33) 
0.61

>  <cluster>  (33) 
2

$$$$

     RDKit          3D

 61 65  0  0  0  0  0  0  0  0999 V2000
  141.0720   71.3690  224.3790 O   0  0  0  0  0  0  0  0  0  0  0  0
  140.2150   70.4600  224.5750 C   0  0  0  0  0  0  0  0  0  0  0  0
  140.2110   69.8290  225.8000 C   0  0  0  0  0  0  0  0  0  0  0  0
  141.0970   70.1470  226.8090 C   0  0  0  0  0  0  0  0  0  0  0  0
  141.0900   69.5100  228.0420 C   0  0  0  0  0  0  0  0  0  0  0  0
  140.1380   68.5120  228.2350 C   0  0  0  0  0  0  0  0  0  0  0  0
  139.2360   68.1750  227.2320 C   0  0  0  0  0  0  0  0  0  0  0  0
  139.2750   68.8380  226.0100 C   0  0  0  0  0  0  0  0  0  0  0  0
  138.4240   68.5460  225.0120 N   0  0  0  0  0  0  0  0  0  0  0  0
  138.4300   69.1560  223.8320 C   0  0  0  0  0  0  0  0  0  0  0  0
  137.4700   68.7640  222.8070 C   0  0  0  0  0  0  0  0  0  0  0  0
  136.2210   68.5210  223.1520 C   0  0  0  0  0  0  0  0  0  0  0  0
  135.4840   69.2970  224.1410 C   0  0  0  0  0  0  0  0  0  0  0  0
  134.7480   68.7750  225.1530 C   0  0  0  0  0  0  0  0  0  0  0  0
  134.0570   69.5460  226.0810 C   0  0  0  0  0  0  0  0  0  0  0  0
  134.1120   70.9380  225.9790 C   0  0  0  0  0  0  0  0  0  0  0  0
  134.8550   71.4940  224.9580 C   0  0  0  0  0  0  0  0  0  0  0  0
  134.9010   72.9110  224.8680 N   0  0  0  0  0  0  0  0  0  0  0  0
  134.2300   73.7980  225.8010 C   0  0  0  0  0  0  0  0  0  0  0  0
  134.6130   75.1920  225.3600 C   0  0  0  0  0  0  0  0  0  0  0  0
  134.8080   74.9790  223.8580 C   0  0  0  0  0  0  0  0  0  0  0  0
  135.6050   73.6900  223.8610 C   0  0  0  0  0  0  0  0  0  0  0  0
  135.5310   70.6930  224.0530 C   0  0  0  0  0  0  0  0  0  0  0  0
  139.3260   70.1260  223.5900 N   0  0  0  0  0  0  0  0  0  0  0  0
  139.4260   70.8650  222.3660 C   0  0  0  0  0  0  0  0  0  0  0  0
  139.2280   72.3340  222.4670 C   0  0  0  0  0  0  0  0  0  0  0  0
  138.1980   72.9360  221.5780 C   0  0  0  0  0  0  0  0  0  0  0  0
  138.0160   74.4110  221.9710 C   0  0  0  0  0  0  0  0  0  0  0  0
  139.2920   74.9870  222.3520 N   0  0  0  0  0  0  0  0  0  0  0  0
  140.3180   74.3550  221.5340 C   0  0  0  0  0  0  0  0  0  0  0  0
  140.5630   72.9780  222.1000 C   0  0  0  0  0  0  0  0  0  0  0  0
  141.8396   70.9382  226.6286 H   0  0  0  0  0  0  0  0  0  0  0  0
  141.8052   69.7816  228.8324 H   0  0  0  0  0  0  0  0  0  0  0  0
  140.0990   67.9811  229.1976 H   0  0  0  0  0  0  0  0  0  0  0  0
  138.4915   67.3840  227.4050 H   0  0  0  0  0  0  0  0  0  0  0  0
  137.7846   68.6720  221.7570 H   0  0  0  0  0  0  0  0  0  0  0  0
  135.7040   67.6818  222.6638 H   0  0  0  0  0  0  0  0  0  0  0  0
  134.6946   67.6802  225.2450 H   0  0  0  0  0  0  0  0  0  0  0  0
  133.4760   69.0672  226.8830 H   0  0  0  0  0  0  0  0  0  0  0  0
  133.5752   71.5763  226.6963 H   0  0  0  0  0  0  0  0  0  0  0  0
  133.1398   73.6616  225.7481 H   0  0  0  0  0  0  0  0  0  0  0  0
  134.5221   73.5994  226.8427 H   0  0  0  0  0  0  0  0  0  0  0  0
  133.8101   75.9155  225.5646 H   0  0  0  0  0  0  0  0  0  0  0  0
  135.4910   75.6063  225.8772 H   0  0  0  0  0  0  0  0  0  0  0  0
  133.8466   74.8604  223.3368 H   0  0  0  0  0  0  0  0  0  0  0  0
  135.2943   75.8165  223.3364 H   0  0  0  0  0  0  0  0  0  0  0  0
  135.5738   73.1969  222.8782 H   0  0  0  0  0  0  0  0  0  0  0  0
  136.6760   73.8275  224.0706 H   0  0  0  0  0  0  0  0  0  0  0  0
  136.1165   71.1632  223.2491 H   0  0  0  0  0  0  0  0  0  0  0  0
  140.4288   70.6897  221.9494 H   0  0  0  0  0  0  0  0  0  0  0  0
  138.6024   70.5003  221.7346 H   0  0  0  0  0  0  0  0  0  0  0  0
  138.8715   72.5176  223.4913 H   0  0  0  0  0  0  0  0  0  0  0  0
  138.5270   72.8690  220.5305 H   0  0  0  0  0  0  0  0  0  0  0  0
  137.2453   72.3969  221.6862 H   0  0  0  0  0  0  0  0  0  0  0  0
  137.6067   74.9676  221.1151 H   0  0  0  0  0  0  0  0  0  0  0  0
  137.3240   74.4734  222.8238 H   0  0  0  0  0  0  0  0  0  0  0  0
  139.5020   74.7820  223.3360 H   0  0  0  0  0  0  0  0  0  0  0  0
  139.9731   74.2772  220.4924 H   0  0  0  0  0  0  0  0  0  0  0  0
  141.2436   74.9493  221.5450 H   0  0  0  0  0  0  0  0  0  0  0  0
  141.0748   72.3585  221.3489 H   0  0  0  0  0  0  0  0  0  0  0  0
  141.1914   73.0575  222.9993 H   0  0  0  0  0  0  0  0  0  0  0  0
  1  2  2  0
  2  3  1  0
  3  4  2  0
  4  5  1  0
  5  6  2  0
  6  7  1  0
  7  8  2  0
  8  9  1  0
  9 10  2  0
 10 11  1  0
 11 12  2  0
 12 13  1  0
 13 14  2  0
 14 15  1  0
 15 16  2  0
 16 17  1  0
 17 18  1  0
 18 19  1  0
 19 20  1  0
 20 21  1  0
 21 22  1  0
 17 23  2  0
 10 24  1  0
 24 25  1  0
 25 26  1  0
 26 27  1  0
 27 28  1  0
 28 29  1  0
 29 30  1  0
 30 31  1  0
 24  2  1  0
 31 26  1  0
  8  3  1  0
 23 13  1  0
 22 18  1  0
  4 32  1  0
  5 33  1  0
  6 34  1  0
  7 35  1  0
 11 36  1  0
 12 37  1  0
 14 38  1  0
 15 39  1  0
 16 40  1  0
 19 41  1  0
 19 42  1  0
 20 43  1  0
 20 44  1  0
 21 45  1  0
 21 46  1  0
 22 47  1  0
 22 48  1  0
 23 49  1  0
 25 50  1  0
 25 51  1  0
 26 52  1  0
 27 53  1  0
 27 54  1  0
 28 55  1  0
 28 56  1  0
 29 57  1  0
 30 58  1  0
 30 59  1  0
 31 60  1  0
 31 61  1  0
M  END
>  <smiles>  (34) 
O=c1c2ccccc2nc(/C=C/c2cccc(N3CCCC3)c2)n1CC1CCNCC1

>  <score_type>  (34) 
oracle

>  <origin>  (34) 
autodockgpu

>  <m_score__min__energy>  (34) 
-9.4900000000000002

>  <m_primary>  (34) 
energy

>  <rmsd>  (34) 
9.587960370943525

>  <m_score__min__rmsd>  (34) 
9.587960370943525

>  <meeko>  (34) 
{"free_energy": -7.65, "intermolecular_energy": -9.44, "internal_energy": -2.16, "cluster_size": 6, "cluster_id": 7, "rank_in_cluster": 3}

>  <energy>  (34) 
-8.77

>  <cluster_rmsd>  (34) 
0.0

>  <cluster>  (34) 
3

$$$$

     RDKit          3D

 61 65  0  0  0  0  0  0  0  0999 V2000
  137.1840   78.4210  222.8430 O   0  0  0  0  0  0  0  0  0  0  0  0
  138.3010   77.8640  222.6330 C   0  0  0  0  0  0  0  0  0  0  0  0
  139.4430   78.5600  222.9660 C   0  0  0  0  0  0  0  0  0  0  0  0
  139.4150   79.8270  223.5120 C   0  0  0  0  0  0  0  0  0  0  0  0
  140.5660   80.5240  223.8460 C   0  0  0  0  0  0  0  0  0  0  0  0
  141.7840   79.8920  223.6070 C   0  0  0  0  0  0  0  0  0  0  0  0
  141.8360   78.6160  223.0570 C   0  0  0  0  0  0  0  0  0  0  0  0
  140.6570   77.9490  222.7360 C   0  0  0  0  0  0  0  0  0  0  0  0
  140.6580   76.7160  222.2030 N   0  0  0  0  0  0  0  0  0  0  0  0
  139.5560   76.0470  221.8830 C   0  0  0  0  0  0  0  0  0  0  0  0
  139.6580   74.7140  221.3010 C   0  0  0  0  0  0  0  0  0  0  0  0
  140.3740   73.7950  221.9170 C   0  0  0  0  0  0  0  0  0  0  0  0
  139.8090   72.6050  222.5420 C   0  0  0  0  0  0  0  0  0  0  0  0
  138.8610   71.8080  221.9890 C   0  0  0  0  0  0  0  0  0  0  0  0
  138.3450   70.6780  222.6140 C   0  0  0  0  0  0  0  0  0  0  0  0
  138.8160   70.3320  223.8820 C   0  0  0  0  0  0  0  0  0  0  0  0
  139.7800   71.1270  224.4660 C   0  0  0  0  0  0  0  0  0  0  0  0
  140.2490   70.7600  225.7560 N   0  0  0  0  0  0  0  0  0  0  0  0
  139.9590   69.4830  226.3840 C   0  0  0  0  0  0  0  0  0  0  0  0
  140.7120   69.5120  227.6950 C   0  0  0  0  0  0  0  0  0  0  0  0
  140.7080   71.0110  227.9990 C   0  0  0  0  0  0  0  0  0  0  0  0
  141.0720   71.5730  226.6380 C   0  0  0  0  0  0  0  0  0  0  0  0
  140.2720   72.2440  223.8120 C   0  0  0  0  0  0  0  0  0  0  0  0
  138.3540   76.6080  222.0920 N   0  0  0  0  0  0  0  0  0  0  0  0
  137.0960   75.9870  221.8020 C   0  0  0  0  0  0  0  0  0  0  0  0
  136.6820   74.8850  222.7090 C   0  0  0  0  0  0  0  0  0  0  0  0
  135.7680   73.8560  222.1430 C   0  0  0  0  0  0  0  0  0  0  0  0
  135.6190   72.7190  223.1670 C   0  0  0  0  0  0  0  0  0  0  0  0
  135.6070   73.2600  224.5140 N   0  0  0  0  0  0  0  0  0  0  0  0
  134.9550   74.5610  224.4560 C   0  0  0  0  0  0  0  0  0  0  0  0
  135.9460   75.5390  223.8770 C   0  0  0  0  0  0  0  0  0  0  0  0
  138.4396   80.3035  223.6895 H   0  0  0  0  0  0  0  0  0  0  0  0
  140.5193   81.5332  224.2812 H   0  0  0  0  0  0  0  0  0  0  0  0
  142.7208   80.4112  223.8576 H   0  0  0  0  0  0  0  0  0  0  0  0
  142.8080   78.1340  222.8757 H   0  0  0  0  0  0  0  0  0  0  0  0
  139.1430   74.4780  220.3581 H   0  0  0  0  0  0  0  0  0  0  0  0
  141.4642   73.9341  221.9624 H   0  0  0  0  0  0  0  0  0  0  0  0
  138.4793   72.0699  220.9911 H   0  0  0  0  0  0  0  0  0  0  0  0
  137.5777   70.0662  222.1171 H   0  0  0  0  0  0  0  0  0  0  0  0
  138.4269   69.4451  224.4036 H   0  0  0  0  0  0  0  0  0  0  0  0
  138.8786   69.3756  226.5609 H   0  0  0  0  0  0  0  0  0  0  0  0
  140.2606   68.6341  225.7528 H   0  0  0  0  0  0  0  0  0  0  0  0
  140.1880   68.9400  228.4749 H   0  0  0  0  0  0  0  0  0  0  0  0
  141.7139   69.0599  227.6532 H   0  0  0  0  0  0  0  0  0  0  0  0
  139.7165   71.3555  228.3281 H   0  0  0  0  0  0  0  0  0  0  0  0
  141.3817   71.3141  228.8140 H   0  0  0  0  0  0  0  0  0  0  0  0
  140.8111   72.6388  226.5610 H   0  0  0  0  0  0  0  0  0  0  0  0
  142.1474   71.5322  226.4101 H   0  0  0  0  0  0  0  0  0  0  0  0
  141.0418   72.8595  224.3004 H   0  0  0  0  0  0  0  0  0  0  0  0
  136.3201   76.7655  221.8444 H   0  0  0  0  0  0  0  0  0  0  0  0
  137.2190   75.5224  220.8125 H   0  0  0  0  0  0  0  0  0  0  0  0
  137.6055   74.3447  222.9644 H   0  0  0  0  0  0  0  0  0  0  0  0
  134.7842   74.3045  221.9409 H   0  0  0  0  0  0  0  0  0  0  0  0
  136.1796   73.4635  221.2015 H   0  0  0  0  0  0  0  0  0  0  0  0
  134.6763   72.1834  222.9815 H   0  0  0  0  0  0  0  0  0  0  0  0
  136.4684   72.0277  223.0639 H   0  0  0  0  0  0  0  0  0  0  0  0
  136.5650   73.4020  224.8560 H   0  0  0  0  0  0  0  0  0  0  0  0
  134.0631   74.5059  223.8145 H   0  0  0  0  0  0  0  0  0  0  0  0
  134.6368   74.8801  225.4595 H   0  0  0  0  0  0  0  0  0  0  0  0
  135.4136   76.4332  223.5207 H   0  0  0  0  0  0  0  0  0  0  0  0
  136.6711   75.8291  224.6517 H   0  0  0  0  0  0  0  0  0  0  0  0
  1  2  2  0
  2  3  1  0
  3  4  2  0
  4  5  1  0
  5  6  2  0
  6  7  1  0
  7  8  2  0
  8  9  1  0
  9 10  2  0
 10 11  1  0
 11 12  2  0
 12 13  1  0
 13 14  2  0
 14 15  1  0
 15 16  2  0
 16 17  1  0
 17 18  1  0
 18 19  1  0
 19 20  1  0
 20 21  1  0
 21 22  1  0
 17 23  2  0
 10 24  1  0
 24 25  1  0
 25 26  1  0
 26 27  1  0
 27 28  1  0
 28 29  1  0
 29 30  1  0
 30 31  1  0
 24  2  1  0
 31 26  1  0
  8  3  1  0
 23 13  1  0
 22 18  1  0
  4 32  1  0
  5 33  1  0
  6 34  1  0
  7 35  1  0
 11 36  1  0
 12 37  1  0
 14 38  1  0
 15 39  1  0
 16 40  1  0
 19 41  1  0
 19 42  1  0
 20 43  1  0
 20 44  1  0
 21 45  1  0
 21 46  1  0
 22 47  1  0
 22 48  1  0
 23 49  1  0
 25 50  1  0
 25 51  1  0
 26 52  1  0
 27 53  1  0
 27 54  1  0
 28 55  1  0
 28 56  1  0
 29 57  1  0
 30 58  1  0
 30 59  1  0
 31 60  1  0
 31 61  1  0
M  END
>  <smiles>  (35) 
O=c1c2ccccc2nc(/C=C/c2cccc(N3CCCC3)c2)n1CC1CCNCC1

>  <score_type>  (35) 
oracle

>  <origin>  (35) 
autodockgpu

>  <m_score__min__energy>  (35) 
-9.4900000000000002

>  <m_primary>  (35) 
energy

>  <rmsd>  (35) 
7.638491994962702

>  <m_score__min__rmsd>  (35) 
7.638491994962702

>  <meeko>  (35) 
{"free_energy": -8.33, "intermolecular_energy": -10.12, "internal_energy": -2.05, "cluster_size": 6, "cluster_id": 5, "rank_in_cluster": 1}

>  <energy>  (35) 
-8.38

>  <cluster_rmsd>  (35) 
0.0

>  <cluster>  (35) 
4

$$$$

     RDKit          3D

 61 65  0  0  0  0  0  0  0  0999 V2000
  142.7300   77.2720  218.9160 O   0  0  0  0  0  0  0  0  0  0  0  0
  142.1220   76.7110  219.8730 C   0  0  0  0  0  0  0  0  0  0  0  0
  141.7250   77.4950  220.9350 C   0  0  0  0  0  0  0  0  0  0  0  0
  141.9630   78.8530  220.9920 C   0  0  0  0  0  0  0  0  0  0  0  0
  141.5610   79.6400  222.0620 C   0  0  0  0  0  0  0  0  0  0  0  0
  140.8940   79.0010  223.1050 C   0  0  0  0  0  0  0  0  0  0  0  0
  140.6440   77.6330  223.0670 C   0  0  0  0  0  0  0  0  0  0  0  0
  141.0620   76.8800  221.9750 C   0  0  0  0  0  0  0  0  0  0  0  0
  140.8440   75.5560  221.8960 N   0  0  0  0  0  0  0  0  0  0  0  0
  141.2280   74.8030  220.8720 C   0  0  0  0  0  0  0  0  0  0  0  0
  140.9510   73.3710  220.8800 C   0  0  0  0  0  0  0  0  0  0  0  0
  141.2390   72.6640  221.9540 C   0  0  0  0  0  0  0  0  0  0  0  0
  140.2430   71.9880  222.7760 C   0  0  0  0  0  0  0  0  0  0  0  0
  138.9240   71.8870  222.4790 C   0  0  0  0  0  0  0  0  0  0  0  0
  138.0000   71.2320  223.2870 C   0  0  0  0  0  0  0  0  0  0  0  0
  138.4390   70.6430  224.4750 C   0  0  0  0  0  0  0  0  0  0  0  0
  139.7760   70.7320  224.7990 C   0  0  0  0  0  0  0  0  0  0  0  0
  140.2060   70.1270  226.0110 N   0  0  0  0  0  0  0  0  0  0  0  0
  140.2050   68.6920  226.2370 C   0  0  0  0  0  0  0  0  0  0  0  0
  140.8020   68.5130  227.6140 C   0  0  0  0  0  0  0  0  0  0  0  0
  140.3790   69.8200  228.2870 C   0  0  0  0  0  0  0  0  0  0  0  0
  140.7040   70.8150  227.1910 C   0  0  0  0  0  0  0  0  0  0  0  0
  140.6670   71.3920  223.9690 C   0  0  0  0  0  0  0  0  0  0  0  0
  141.8750   75.3650  219.8380 N   0  0  0  0  0  0  0  0  0  0  0  0
  142.3280   74.6650  218.6740 C   0  0  0  0  0  0  0  0  0  0  0  0
  143.6760   74.0450  218.7630 C   0  0  0  0  0  0  0  0  0  0  0  0
  143.7310   72.5590  218.7960 C   0  0  0  0  0  0  0  0  0  0  0  0
  145.2010   72.1220  218.6930 C   0  0  0  0  0  0  0  0  0  0  0  0
  146.0480   73.0490  219.4220 N   0  0  0  0  0  0  0  0  0  0  0  0
  145.2900   73.5240  220.5700 C   0  0  0  0  0  0  0  0  0  0  0  0
  144.2970   74.5410  220.0670 C   0  0  0  0  0  0  0  0  0  0  0  0
  142.4930   79.3313  220.1551 H   0  0  0  0  0  0  0  0  0  0  0  0
  141.7604   80.7215  222.0856 H   0  0  0  0  0  0  0  0  0  0  0  0
  140.5594   79.5880  223.9731 H   0  0  0  0  0  0  0  0  0  0  0  0
  140.1158   77.1470  223.9005 H   0  0  0  0  0  0  0  0  0  0  0  0
  140.5062   72.8862  219.9985 H   0  0  0  0  0  0  0  0  0  0  0  0
  142.2955   72.5787  222.2482 H   0  0  0  0  0  0  0  0  0  0  0  0
  138.5644   72.3485  221.5475 H   0  0  0  0  0  0  0  0  0  0  0  0
  136.9408   71.1788  222.9950 H   0  0  0  0  0  0  0  0  0  0  0  0
  137.7336   70.1198  225.1373 H   0  0  0  0  0  0  0  0  0  0  0  0
  139.1791   68.2963  226.2059 H   0  0  0  0  0  0  0  0  0  0  0  0
  140.7742   68.1517  225.4662 H   0  0  0  0  0  0  0  0  0  0  0  0
  140.3774   67.6380  228.1279 H   0  0  0  0  0  0  0  0  0  0  0  0
  141.8868   68.3310  227.6180 H   0  0  0  0  0  0  0  0  0  0  0  0
  139.3066   69.8218  228.5318 H   0  0  0  0  0  0  0  0  0  0  0  0
  140.8738   70.0206  229.2487 H   0  0  0  0  0  0  0  0  0  0  0  0
  140.1815   71.7701  227.3487 H   0  0  0  0  0  0  0  0  0  0  0  0
  141.7689   71.0849  227.1343 H   0  0  0  0  0  0  0  0  0  0  0  0
  141.7282   71.4487  224.2530 H   0  0  0  0  0  0  0  0  0  0  0  0
  141.6041   73.8646  218.4610 H   0  0  0  0  0  0  0  0  0  0  0  0
  142.4066   75.4271  217.8847 H   0  0  0  0  0  0  0  0  0  0  0  0
  144.1997   74.3357  217.8404 H   0  0  0  0  0  0  0  0  0  0  0  0
  143.3005   72.1928  219.7397 H   0  0  0  0  0  0  0  0  0  0  0  0
  143.1546   72.1422  217.9569 H   0  0  0  0  0  0  0  0  0  0  0  0
  145.3121   71.1144  219.1201 H   0  0  0  0  0  0  0  0  0  0  0  0
  145.5017   72.1145  217.6349 H   0  0  0  0  0  0  0  0  0  0  0  0
  146.2800   73.8620  218.8380 H   0  0  0  0  0  0  0  0  0  0  0  0
  144.7605   72.6844  221.0441 H   0  0  0  0  0  0  0  0  0  0  0  0
  145.9598   73.9731  221.3181 H   0  0  0  0  0  0  0  0  0  0  0  0
  143.5064   74.6842  220.8183 H   0  0  0  0  0  0  0  0  0  0  0  0
  144.8105   75.4972  219.8880 H   0  0  0  0  0  0  0  0  0  0  0  0
  1  2  2  0
  2  3  1  0
  3  4  2  0
  4  5  1  0
  5  6  2  0
  6  7  1  0
  7  8  2  0
  8  9  1  0
  9 10  2  0
 10 11  1  0
 11 12  2  0
 12 13  1  0
 13 14  2  0
 14 15  1  0
 15 16  2  0
 16 17  1  0
 17 18  1  0
 18 19  1  0
 19 20  1  0
 20 21  1  0
 21 22  1  0
 17 23  2  0
 10 24  1  0
 24 25  1  0
 25 26  1  0
 26 27  1  0
 27 28  1  0
 28 29  1  0
 29 30  1  0
 30 31  1  0
 24  2  1  0
 31 26  1  0
  8  3  1  0
 23 13  1  0
 22 18  1  0
  4 32  1  0
  5 33  1  0
  6 34  1  0
  7 35  1  0
 11 36  1  0
 12 37  1  0
 14 38  1  0
 15 39  1  0
 16 40  1  0
 19 41  1  0
 19 42  1  0
 20 43  1  0
 20 44  1  0
 21 45  1  0
 21 46  1  0
 22 47  1  0
 22 48  1  0
 23 49  1  0
 25 50  1  0
 25 51  1  0
 26 52  1  0
 27 53  1  0
 27 54  1  0
 28 55  1  0
 28 56  1  0
 29 57  1  0
 30 58  1  0
 30 59  1  0
 31 60  1  0
 31 61  1  0
M  END
>  <smiles>  (36) 
O=c1c2ccccc2nc(/C=C/c2cccc(N3CCCC3)c2)n1CC1CCNCC1

>  <score_type>  (36) 
oracle

>  <origin>  (36) 
autodockgpu

>  <m_score__min__energy>  (36) 
-9.4900000000000002

>  <m_primary>  (36) 
energy

>  <rmsd>  (36) 
7.720724592489178

>  <m_score__min__rmsd>  (36) 
7.720724592489178

>  <meeko>  (36) 
{"free_energy": -9.16, "intermolecular_energy": -10.95, "internal_energy": -1.51, "cluster_size": 28, "cluster_id": 1, "rank_in_cluster": 14}

>  <energy>  (36) 
-8.37

>  <cluster_rmsd>  (36) 
0.5

>  <cluster>  (36) 
4

$$$$

     RDKit          3D

 61 65  0  0  0  0  0  0  0  0999 V2000
  142.8590   76.9590  219.2430 O   0  0  0  0  0  0  0  0  0  0  0  0
  142.0600   76.6060  220.1580 C   0  0  0  0  0  0  0  0  0  0  0  0
  141.7140   77.5420  221.1100 C   0  0  0  0  0  0  0  0  0  0  0  0
  142.2020   78.8320  221.1030 C   0  0  0  0  0  0  0  0  0  0  0  0
  141.8510   79.7720  222.0620 C   0  0  0  0  0  0  0  0  0  0  0  0
  140.9700   79.3620  223.0600 C   0  0  0  0  0  0  0  0  0  0  0  0
  140.4670   78.0650  223.0870 C   0  0  0  0  0  0  0  0  0  0  0  0
  140.8430   77.1540  222.1060 C   0  0  0  0  0  0  0  0  0  0  0  0
  140.3830   75.8910  222.0910 N   0  0  0  0  0  0  0  0  0  0  0  0
  140.7170   74.9920  221.1730 C   0  0  0  0  0  0  0  0  0  0  0  0
  140.1710   73.6420  221.2460 C   0  0  0  0  0  0  0  0  0  0  0  0
  140.9100   72.6730  221.7490 C   0  0  0  0  0  0  0  0  0  0  0  0
  140.3880   71.6070  222.5950 C   0  0  0  0  0  0  0  0  0  0  0  0
  139.6880   70.5330  222.1540 C   0  0  0  0  0  0  0  0  0  0  0  0
  139.2060   69.5310  222.9910 C   0  0  0  0  0  0  0  0  0  0  0  0
  139.4460   69.6230  224.3640 C   0  0  0  0  0  0  0  0  0  0  0  0
  140.1570   70.7070  224.8360 C   0  0  0  0  0  0  0  0  0  0  0  0
  140.3940   70.7840  226.2350 N   0  0  0  0  0  0  0  0  0  0  0  0
  141.0800   71.8940  226.8740 C   0  0  0  0  0  0  0  0  0  0  0  0
  141.0370   71.5810  228.3520 C   0  0  0  0  0  0  0  0  0  0  0  0
  141.0240   70.0520  228.3260 C   0  0  0  0  0  0  0  0  0  0  0  0
  140.0040   69.8010  227.2330 C   0  0  0  0  0  0  0  0  0  0  0  0
  140.6230   71.6830  223.9720 C   0  0  0  0  0  0  0  0  0  0  0  0
  141.5630   75.3320  220.1870 N   0  0  0  0  0  0  0  0  0  0  0  0
  141.9900   74.4590  219.1340 C   0  0  0  0  0  0  0  0  0  0  0  0
  143.4370   74.1220  219.1060 C   0  0  0  0  0  0  0  0  0  0  0  0
  143.8140   72.8300  218.4710 C   0  0  0  0  0  0  0  0  0  0  0  0
  145.3460   72.7630  218.3730 C   0  0  0  0  0  0  0  0  0  0  0  0
  145.9480   73.3740  219.5430 N   0  0  0  0  0  0  0  0  0  0  0  0
  145.0690   73.1110  220.6740 C   0  0  0  0  0  0  0  0  0  0  0  0
  143.8940   74.0500  220.5620 C   0  0  0  0  0  0  0  0  0  0  0  0
  142.8981   79.1281  220.3044 H   0  0  0  0  0  0  0  0  0  0  0  0
  142.2512   80.7963  222.0351 H   0  0  0  0  0  0  0  0  0  0  0  0
  140.6668   80.0758  223.8401 H   0  0  0  0  0  0  0  0  0  0  0  0
  139.7724   77.7605  223.8838 H   0  0  0  0  0  0  0  0  0  0  0  0
  139.1529   73.4341  220.8851 H   0  0  0  0  0  0  0  0  0  0  0  0
  141.9851   72.6687  221.5162 H   0  0  0  0  0  0  0  0  0  0  0  0
  139.4901   70.4489  221.0752 H   0  0  0  0  0  0  0  0  0  0  0  0
  138.6448   68.6799  222.5778 H   0  0  0  0  0  0  0  0  0  0  0  0
  139.0767   68.8491  225.0529 H   0  0  0  0  0  0  0  0  0  0  0  0
  142.1203   71.9595  226.5227 H   0  0  0  0  0  0  0  0  0  0  0  0
  140.6081   72.8602  226.6421 H   0  0  0  0  0  0  0  0  0  0  0  0
  141.9248   71.9687  228.8731 H   0  0  0  0  0  0  0  0  0  0  0  0
  140.1885   72.0327  228.8868 H   0  0  0  0  0  0  0  0  0  0  0  0
  142.0102   69.6422  228.0625 H   0  0  0  0  0  0  0  0  0  0  0  0
  140.7866   69.5799  229.2907 H   0  0  0  0  0  0  0  0  0  0  0  0
  140.0820   68.7769  226.8391 H   0  0  0  0  0  0  0  0  0  0  0  0
  138.9599   69.8932  227.5667 H   0  0  0  0  0  0  0  0  0  0  0  0
  141.1892   72.5351  224.3761 H   0  0  0  0  0  0  0  0  0  0  0  0
  141.4283   73.5181  219.2299 H   0  0  0  0  0  0  0  0  0  0  0  0
  141.7981   75.0086  218.2006 H   0  0  0  0  0  0  0  0  0  0  0  0
  143.9128   74.8996  218.4903 H   0  0  0  0  0  0  0  0  0  0  0  0
  143.4445   71.9941  219.0831 H   0  0  0  0  0  0  0  0  0  0  0  0
  143.3689   72.7595  217.4675 H   0  0  0  0  0  0  0  0  0  0  0  0
  145.6607   71.7109  218.3095 H   0  0  0  0  0  0  0  0  0  0  0  0
  145.6732   73.3067  217.4745 H   0  0  0  0  0  0  0  0  0  0  0  0
  146.0150   74.3920  219.4260 H   0  0  0  0  0  0  0  0  0  0  0  0
  144.7206   72.0681  220.6445 H   0  0  0  0  0  0  0  0  0  0  0  0
  145.6015   73.2679  221.6236 H   0  0  0  0  0  0  0  0  0  0  0  0
  143.0682   73.6804  221.1877 H   0  0  0  0  0  0  0  0  0  0  0  0
  144.1918   75.0525  220.9029 H   0  0  0  0  0  0  0  0  0  0  0  0
  1  2  2  0
  2  3  1  0
  3  4  2  0
  4  5  1  0
  5  6  2  0
  6  7  1  0
  7  8  2  0
  8  9  1  0
  9 10  2  0
 10 11  1  0
 11 12  2  0
 12 13  1  0
 13 14  2  0
 14 15  1  0
 15 16  2  0
 16 17  1  0
 17 18  1  0
 18 19  1  0
 19 20  1  0
 20 21  1  0
 21 22  1  0
 17 23  2  0
 10 24  1  0
 24 25  1  0
 25 26  1  0
 26 27  1  0
 27 28  1  0
 28 29  1  0
 29 30  1  0
 30 31  1  0
 24  2  1  0
 31 26  1  0
  8  3  1  0
 23 13  1  0
 22 18  1  0
  4 32  1  0
  5 33  1  0
  6 34  1  0
  7 35  1  0
 11 36  1  0
 12 37  1  0
 14 38  1  0
 15 39  1  0
 16 40  1  0
 19 41  1  0
 19 42  1  0
 20 43  1  0
 20 44  1  0
 21 45  1  0
 21 46  1  0
 22 47  1  0
 22 48  1  0
 23 49  1  0
 25 50  1  0
 25 51  1  0
 26 52  1  0
 27 53  1  0
 27 54  1  0
 28 55  1  0
 28 56  1  0
 29 57  1  0
 30 58  1  0
 30 59  1  0
 31 60  1  0
 31 61  1  0
M  END
>  <smiles>  (37) 
O=c1c2ccccc2nc(/C=C/c2cccc(N3CCCC3)c2)n1CC1CCNCC1

>  <score_type>  (37) 
oracle

>  <origin>  (37) 
autodockgpu

>  <m_score__min__energy>  (37) 
-9.4900000000000002

>  <m_primary>  (37) 
energy

>  <rmsd>  (37) 
7.80257934111854

>  <m_score__min__rmsd>  (37) 
7.80257934111854

>  <meeko>  (37) 
{"free_energy": -9.05, "intermolecular_energy": -10.84, "internal_energy": -1.5, "cluster_size": 28, "cluster_id": 1, "rank_in_cluster": 18}

>  <energy>  (37) 
-8.33

>  <cluster_rmsd>  (37) 
0.0

>  <cluster>  (37) 
5

$$$$

     RDKit          3D

 61 65  0  0  0  0  0  0  0  0999 V2000
  142.7360   76.8920  218.9220 O   0  0  0  0  0  0  0  0  0  0  0  0
  142.0760   76.4320  219.8980 C   0  0  0  0  0  0  0  0  0  0  0  0
  141.6280   77.3220  220.8510 C   0  0  0  0  0  0  0  0  0  0  0  0
  141.8710   78.6780  220.7810 C   0  0  0  0  0  0  0  0  0  0  0  0
  141.4180   79.5710  221.7420 C   0  0  0  0  0  0  0  0  0  0  0  0
  140.6930   79.0440  222.8080 C   0  0  0  0  0  0  0  0  0  0  0  0
  140.4380   77.6800  222.8980 C   0  0  0  0  0  0  0  0  0  0  0  0
  140.9090   76.8180  221.9140 C   0  0  0  0  0  0  0  0  0  0  0  0
  140.6870   75.4930  221.9590 N   0  0  0  0  0  0  0  0  0  0  0  0
  141.1200   74.6380  221.0400 C   0  0  0  0  0  0  0  0  0  0  0  0
  140.8350   73.2150  221.1800 C   0  0  0  0  0  0  0  0  0  0  0  0
  141.0720   72.6200  222.3320 C   0  0  0  0  0  0  0  0  0  0  0  0
  140.0840   71.8360  223.0630 C   0  0  0  0  0  0  0  0  0  0  0  0
  138.7870   71.6790  222.6990 C   0  0  0  0  0  0  0  0  0  0  0  0
  137.8710   70.9210  223.4200 C   0  0  0  0  0  0  0  0  0  0  0  0
  138.2930   70.2800  224.5880 C   0  0  0  0  0  0  0  0  0  0  0  0
  139.6080   70.4250  224.9790 C   0  0  0  0  0  0  0  0  0  0  0  0
  140.0210   69.7660  226.1680 N   0  0  0  0  0  0  0  0  0  0  0  0
  140.6430   70.4480  227.2900 C   0  0  0  0  0  0  0  0  0  0  0  0
  140.8410   69.3760  228.3370 C   0  0  0  0  0  0  0  0  0  0  0  0
  141.0170   68.1380  227.4570 C   0  0  0  0  0  0  0  0  0  0  0  0
  139.8970   68.3460  226.4560 C   0  0  0  0  0  0  0  0  0  0  0  0
  140.4920   71.1870  224.2340 C   0  0  0  0  0  0  0  0  0  0  0  0
  141.8230   75.0910  219.9900 N   0  0  0  0  0  0  0  0  0  0  0  0
  142.3330   74.2740  218.9290 C   0  0  0  0  0  0  0  0  0  0  0  0
  143.7610   73.8750  219.0350 C   0  0  0  0  0  0  0  0  0  0  0  0
  144.0480   72.4170  219.1040 C   0  0  0  0  0  0  0  0  0  0  0  0
  145.5690   72.2130  219.0140 C   0  0  0  0  0  0  0  0  0  0  0  0
  146.2570   73.2790  219.7200 N   0  0  0  0  0  0  0  0  0  0  0  0
  145.4270   73.6560  220.8560 C   0  0  0  0  0  0  0  0  0  0  0  0
  144.2900   74.4930  220.3270 C   0  0  0  0  0  0  0  0  0  0  0  0
  142.4473   79.0674  219.9288 H   0  0  0  0  0  0  0  0  0  0  0  0
  141.6228   80.6490  221.6650 H   0  0  0  0  0  0  0  0  0  0  0  0
  140.3159   79.7177  223.5915 H   0  0  0  0  0  0  0  0  0  0  0  0
  139.8635   77.2829  223.7479 H   0  0  0  0  0  0  0  0  0  0  0  0
  140.4265   72.6440  220.3332 H   0  0  0  0  0  0  0  0  0  0  0  0
  142.0766   72.7212  222.7685 H   0  0  0  0  0  0  0  0  0  0  0  0
  138.4405   72.1791  221.7826 H   0  0  0  0  0  0  0  0  0  0  0  0
  136.8303   70.8273  223.0764 H   0  0  0  0  0  0  0  0  0  0  0  0
  137.5929   69.6739  225.1817 H   0  0  0  0  0  0  0  0  0  0  0  0
  141.6094   70.8809  226.9920 H   0  0  0  0  0  0  0  0  0  0  0  0
  140.0268   71.2801  227.6614 H   0  0  0  0  0  0  0  0  0  0  0  0
  141.7355   69.5680  228.9477 H   0  0  0  0  0  0  0  0  0  0  0  0
  140.0230   69.2999  229.0685 H   0  0  0  0  0  0  0  0  0  0  0  0
  142.0018   68.1252  226.9671 H   0  0  0  0  0  0  0  0  0  0  0  0
  140.9744   67.1817  227.9989 H   0  0  0  0  0  0  0  0  0  0  0  0
  140.0491   67.7384  225.5517 H   0  0  0  0  0  0  0  0  0  0  0  0
  138.9048   68.0500  226.8273 H   0  0  0  0  0  0  0  0  0  0  0  0
  141.5352   71.2842  224.5690 H   0  0  0  0  0  0  0  0  0  0  0  0
  141.7297   73.3549  218.8937 H   0  0  0  0  0  0  0  0  0  0  0  0
  142.2676   74.8943  218.0229 H   0  0  0  0  0  0  0  0  0  0  0  0
  144.2374   74.2221  218.1062 H   0  0  0  0  0  0  0  0  0  0  0  0
  143.6750   72.0103  220.0556 H   0  0  0  0  0  0  0  0  0  0  0  0
  143.5486   71.8955  218.2741 H   0  0  0  0  0  0  0  0  0  0  0  0
  145.8340   71.2462  219.4669 H   0  0  0  0  0  0  0  0  0  0  0  0
  145.8726   72.2263  217.9568 H   0  0  0  0  0  0  0  0  0  0  0  0
  146.3610   74.1040  219.1170 H   0  0  0  0  0  0  0  0  0  0  0  0
  145.0328   72.7550  221.3488 H   0  0  0  0  0  0  0  0  0  0  0  0
  146.0140   74.2215  221.5946 H   0  0  0  0  0  0  0  0  0  0  0  0
  143.4829   74.5289  221.0735 H   0  0  0  0  0  0  0  0  0  0  0  0
  144.6487   75.5131  220.1253 H   0  0  0  0  0  0  0  0  0  0  0  0
  1  2  2  0
  2  3  1  0
  3  4  2  0
  4  5  1  0
  5  6  2  0
  6  7  1  0
  7  8  2  0
  8  9  1  0
  9 10  2  0
 10 11  1  0
 11 12  2  0
 12 13  1  0
 13 14  2  0
 14 15  1  0
 15 16  2  0
 16 17  1  0
 17 18  1  0
 18 19  1  0
 19 20  1  0
 20 21  1  0
 21 22  1  0
 17 23  2  0
 10 24  1  0
 24 25  1  0
 25 26  1  0
 26 27  1  0
 27 28  1  0
 28 29  1  0
 29 30  1  0
 30 31  1  0
 24  2  1  0
 31 26  1  0
  8  3  1  0
 23 13  1  0
 22 18  1  0
  4 32  1  0
  5 33  1  0
  6 34  1  0
  7 35  1  0
 11 36  1  0
 12 37  1  0
 14 38  1  0
 15 39  1  0
 16 40  1  0
 19 41  1  0
 19 42  1  0
 20 43  1  0
 20 44  1  0
 21 45  1  0
 21 46  1  0
 22 47  1  0
 22 48  1  0
 23 49  1  0
 25 50  1  0
 25 51  1  0
 26 52  1  0
 27 53  1  0
 27 54  1  0
 28 55  1  0
 28 56  1  0
 29 57  1  0
 30 58  1  0
 30 59  1  0
 31 60  1  0
 31 61  1  0
M  END
>  <smiles>  (38) 
O=c1c2ccccc2nc(/C=C/c2cccc(N3CCCC3)c2)n1CC1CCNCC1

>  <score_type>  (38) 
oracle

>  <origin>  (38) 
autodockgpu

>  <m_score__min__energy>  (38) 
-9.4900000000000002

>  <m_primary>  (38) 
energy

>  <rmsd>  (38) 
7.723263970599334

>  <m_score__min__rmsd>  (38) 
7.723263970599334

>  <meeko>  (38) 
{"free_energy": -9.3, "intermolecular_energy": -11.09, "internal_energy": -1.39, "cluster_size": 28, "cluster_id": 1, "rank_in_cluster": 6}

>  <energy>  (38) 
-8.3

>  <cluster_rmsd>  (38) 
0.28

>  <cluster>  (38) 
5

$$$$

     RDKit          3D

 61 65  0  0  0  0  0  0  0  0999 V2000
  140.7070   71.8700  224.3360 O   0  0  0  0  0  0  0  0  0  0  0  0
  140.0390   70.8390  224.6410 C   0  0  0  0  0  0  0  0  0  0  0  0
  140.1930   70.3210  225.9090 C   0  0  0  0  0  0  0  0  0  0  0  0
  141.0390   70.8780  226.8470 C   0  0  0  0  0  0  0  0  0  0  0  0
  141.1910   70.3550  228.1230 C   0  0  0  0  0  0  0  0  0  0  0  0
  140.4460   69.2200  228.4370 C   0  0  0  0  0  0  0  0  0  0  0  0
  139.5880   68.6430  227.5070 C   0  0  0  0  0  0  0  0  0  0  0  0
  139.4630   69.1990  226.2380 C   0  0  0  0  0  0  0  0  0  0  0  0
  138.6480   68.6760  225.3060 N   0  0  0  0  0  0  0  0  0  0  0  0
  138.5020   69.1760  224.0850 C   0  0  0  0  0  0  0  0  0  0  0  0
  137.5970   68.5330  223.1400 C   0  0  0  0  0  0  0  0  0  0  0  0
  136.3790   69.0130  222.9830 C   0  0  0  0  0  0  0  0  0  0  0  0
  135.6680   69.7780  224.0000 C   0  0  0  0  0  0  0  0  0  0  0  0
  135.1950   69.2760  225.1670 C   0  0  0  0  0  0  0  0  0  0  0  0
  134.5200   70.0360  226.1170 C   0  0  0  0  0  0  0  0  0  0  0  0
  134.3090   71.3940  225.8690 C   0  0  0  0  0  0  0  0  0  0  0  0
  134.7810   71.9300  224.6890 C   0  0  0  0  0  0  0  0  0  0  0  0
  134.5580   73.3130  224.4530 N   0  0  0  0  0  0  0  0  0  0  0  0
  135.4270   74.3640  224.9520 C   0  0  0  0  0  0  0  0  0  0  0  0
  134.8460   75.6460  224.4030 C   0  0  0  0  0  0  0  0  0  0  0  0
  133.3640   75.2770  224.3090 C   0  0  0  0  0  0  0  0  0  0  0  0
  133.4600   73.8940  223.6960 C   0  0  0  0  0  0  0  0  0  0  0  0
  135.4490   71.1410  223.7680 C   0  0  0  0  0  0  0  0  0  0  0  0
  139.1950   70.2700  223.7270 N   0  0  0  0  0  0  0  0  0  0  0  0
  139.1150   70.9100  222.4480 C   0  0  0  0  0  0  0  0  0  0  0  0
  138.5600   72.2880  222.4370 C   0  0  0  0  0  0  0  0  0  0  0  0
  137.4030   72.5390  221.5360 C   0  0  0  0  0  0  0  0  0  0  0  0
  136.8650   73.9520  221.8140 C   0  0  0  0  0  0  0  0  0  0  0  0
  137.9630   74.8550  222.1050 N   0  0  0  0  0  0  0  0  0  0  0  0
  139.1040   74.4260  221.3070 C   0  0  0  0  0  0  0  0  0  0  0  0
  139.6890   73.2070  221.9740 C   0  0  0  0  0  0  0  0  0  0  0  0
  141.6161   71.7730  226.5715 H   0  0  0  0  0  0  0  0  0  0  0  0
  141.8701   70.8163  228.8551 H   0  0  0  0  0  0  0  0  0  0  0  0
  140.5382   68.7727  229.4377 H   0  0  0  0  0  0  0  0  0  0  0  0
  139.0084   67.7473  227.7748 H   0  0  0  0  0  0  0  0  0  0  0  0
  137.9270   67.6561  222.5637 H   0  0  0  0  0  0  0  0  0  0  0  0
  135.8686   68.8248  222.0269 H   0  0  0  0  0  0  0  0  0  0  0  0
  135.3538   68.2075  225.3746 H   0  0  0  0  0  0  0  0  0  0  0  0
  134.1585   69.5749  227.0480 H   0  0  0  0  0  0  0  0  0  0  0  0
  133.7779   72.0226  226.5989 H   0  0  0  0  0  0  0  0  0  0  0  0
  135.4242   74.3782  226.0519 H   0  0  0  0  0  0  0  0  0  0  0  0
  136.4721   74.2180  224.6414 H   0  0  0  0  0  0  0  0  0  0  0  0
  135.0095   76.4902  225.0890 H   0  0  0  0  0  0  0  0  0  0  0  0
  135.2925   75.9766  223.4536 H   0  0  0  0  0  0  0  0  0  0  0  0
  132.8891   75.2492  225.3008 H   0  0  0  0  0  0  0  0  0  0  0  0
  132.7504   75.9892  223.7378 H   0  0  0  0  0  0  0  0  0  0  0  0
  132.5290   73.3260  223.8395 H   0  0  0  0  0  0  0  0  0  0  0  0
  133.6198   73.8974  222.6077 H   0  0  0  0  0  0  0  0  0  0  0  0
  135.8151   71.5944  222.8350 H   0  0  0  0  0  0  0  0  0  0  0  0
  140.1319   70.9546  222.0310 H   0  0  0  0  0  0  0  0  0  0  0  0
  138.4100   70.3043  221.8596 H   0  0  0  0  0  0  0  0  0  0  0  0
  138.1818   72.4655  223.4546 H   0  0  0  0  0  0  0  0  0  0  0  0
  137.7266   72.4650  220.4873 H   0  0  0  0  0  0  0  0  0  0  0  0
  136.6151   71.7934  221.7182 H   0  0  0  0  0  0  0  0  0  0  0  0
  136.3204   74.3145  220.9297 H   0  0  0  0  0  0  0  0  0  0  0  0
  136.1890   73.9159  222.6810 H   0  0  0  0  0  0  0  0  0  0  0  0
  138.2290   74.7940  223.0950 H   0  0  0  0  0  0  0  0  0  0  0  0
  138.7765   74.1756  220.2872 H   0  0  0  0  0  0  0  0  0  0  0  0
  139.8535   75.2283  221.2389 H   0  0  0  0  0  0  0  0  0  0  0  0
  140.3292   72.6696  221.2589 H   0  0  0  0  0  0  0  0  0  0  0  0
  140.2887   73.5168  222.8425 H   0  0  0  0  0  0  0  0  0  0  0  0
  1  2  2  0
  2  3  1  0
  3  4  2  0
  4  5  1  0
  5  6  2  0
  6  7  1  0
  7  8  2  0
  8  9  1  0
  9 10  2  0
 10 11  1  0
 11 12  2  0
 12 13  1  0
 13 14  2  0
 14 15  1  0
 15 16  2  0
 16 17  1  0
 17 18  1  0
 18 19  1  0
 19 20  1  0
 20 21  1  0
 21 22  1  0
 17 23  2  0
 10 24  1  0
 24 25  1  0
 25 26  1  0
 26 27  1  0
 27 28  1  0
 28 29  1  0
 29 30  1  0
 30 31  1  0
 24  2  1  0
 31 26  1  0
  8  3  1  0
 23 13  1  0
 22 18  1  0
  4 32  1  0
  5 33  1  0
  6 34  1  0
  7 35  1  0
 11 36  1  0
 12 37  1  0
 14 38  1  0
 15 39  1  0
 16 40  1  0
 19 41  1  0
 19 42  1  0
 20 43  1  0
 20 44  1  0
 21 45  1  0
 21 46  1  0
 22 47  1  0
 22 48  1  0
 23 49  1  0
 25 50  1  0
 25 51  1  0
 26 52  1  0
 27 53  1  0
 27 54  1  0
 28 55  1  0
 28 56  1  0
 29 57  1  0
 30 58  1  0
 30 59  1  0
 31 60  1  0
 31 61  1  0
M  END
>  <smiles>  (39) 
O=c1c2ccccc2nc(/C=C/c2cccc(N3CCCC3)c2)n1CC1CCNCC1

>  <score_type>  (39) 
oracle

>  <origin>  (39) 
autodockgpu

>  <m_score__min__energy>  (39) 
-9.4900000000000002

>  <m_primary>  (39) 
energy

>  <rmsd>  (39) 
9.484142306002603

>  <m_score__min__rmsd>  (39) 
9.484142306002603

>  <meeko>  (39) 
{"free_energy": -7.05, "intermolecular_energy": -8.84, "internal_energy": -2.58, "cluster_size": 6, "cluster_id": 7, "rank_in_cluster": 6}

>  <energy>  (39) 
-8.27

>  <cluster_rmsd>  (39) 
0.39

>  <cluster>  (39) 
5

$$$$

     RDKit          3D

 61 65  0  0  0  0  0  0  0  0999 V2000
  143.1290   75.8480  217.9180 O   0  0  0  0  0  0  0  0  0  0  0  0
  142.4950   76.2090  218.9510 C   0  0  0  0  0  0  0  0  0  0  0  0
  142.2820   77.5580  219.1400 C   0  0  0  0  0  0  0  0  0  0  0  0
  142.7310   78.5170  218.2560 C   0  0  0  0  0  0  0  0  0  0  0  0
  142.5150   79.8740  218.4480 C   0  0  0  0  0  0  0  0  0  0  0  0
  141.8130   80.2500  219.5920 C   0  0  0  0  0  0  0  0  0  0  0  0
  141.3530   79.3000  220.4970 C   0  0  0  0  0  0  0  0  0  0  0  0
  141.5900   77.9480  220.2670 C   0  0  0  0  0  0  0  0  0  0  0  0
  141.1640   76.9950  221.1130 N   0  0  0  0  0  0  0  0  0  0  0  0
  141.3700   75.6960  220.9290 C   0  0  0  0  0  0  0  0  0  0  0  0
  140.8760   74.7360  221.9090 C   0  0  0  0  0  0  0  0  0  0  0  0
  139.8920   73.9250  221.5770 C   0  0  0  0  0  0  0  0  0  0  0  0
  139.7870   72.5430  222.0310 C   0  0  0  0  0  0  0  0  0  0  0  0
  139.4740   71.4840  221.2450 C   0  0  0  0  0  0  0  0  0  0  0  0
  139.3830   70.1770  221.7130 C   0  0  0  0  0  0  0  0  0  0  0  0
  139.6240   69.9250  223.0660 C   0  0  0  0  0  0  0  0  0  0  0  0
  139.9450   70.9870  223.8860 C   0  0  0  0  0  0  0  0  0  0  0  0
  140.1880   70.7130  225.2590 N   0  0  0  0  0  0  0  0  0  0  0  0
  141.0190   71.5460  226.1100 C   0  0  0  0  0  0  0  0  0  0  0  0
  140.9310   70.9160  227.4810 C   0  0  0  0  0  0  0  0  0  0  0  0
  140.7080   69.4480  227.1130 C   0  0  0  0  0  0  0  0  0  0  0  0
  139.6650   69.5900  226.0210 C   0  0  0  0  0  0  0  0  0  0  0  0
  140.0270   72.2740  223.3840 C   0  0  0  0  0  0  0  0  0  0  0  0
  142.0400   75.2770  219.8430 N   0  0  0  0  0  0  0  0  0  0  0  0
  142.3150   73.9070  219.5270 C   0  0  0  0  0  0  0  0  0  0  0  0
  143.7490   73.5360  219.4020 C   0  0  0  0  0  0  0  0  0  0  0  0
  144.0960   72.1070  219.6230 C   0  0  0  0  0  0  0  0  0  0  0  0
  145.5750   71.9010  219.2610 C   0  0  0  0  0  0  0  0  0  0  0  0
  146.3510   73.0640  219.6540 N   0  0  0  0  0  0  0  0  0  0  0  0
  145.7480   73.6020  220.8650 C   0  0  0  0  0  0  0  0  0  0  0  0
  144.5000   74.3440  220.4580 C   0  0  0  0  0  0  0  0  0  0  0  0
  143.2832   78.1924  217.3617 H   0  0  0  0  0  0  0  0  0  0  0  0
  142.8819   80.6208  217.7285 H   0  0  0  0  0  0  0  0  0  0  0  0
  141.6197   81.3161  219.7820 H   0  0  0  0  0  0  0  0  0  0  0  0
  140.8018   79.6169  221.3946 H   0  0  0  0  0  0  0  0  0  0  0  0
  141.3199   74.6893  222.9144 H   0  0  0  0  0  0  0  0  0  0  0  0
  139.1020   74.3138  220.9176 H   0  0  0  0  0  0  0  0  0  0  0  0
  139.2812   71.6682  220.1778 H   0  0  0  0  0  0  0  0  0  0  0  0
  139.1254   69.3551  221.0288 H   0  0  0  0  0  0  0  0  0  0  0  0
  139.5593   68.9032  223.4682 H   0  0  0  0  0  0  0  0  0  0  0  0
  142.0590   71.5483  225.7517 H   0  0  0  0  0  0  0  0  0  0  0  0
  140.6850   72.5941  226.1149 H   0  0  0  0  0  0  0  0  0  0  0  0
  141.8628   71.0531  228.0493 H   0  0  0  0  0  0  0  0  0  0  0  0
  140.1519   71.3449  228.1283 H   0  0  0  0  0  0  0  0  0  0  0  0
  141.6292   68.9798  226.7359 H   0  0  0  0  0  0  0  0  0  0  0  0
  140.4058   68.8063  227.9538 H   0  0  0  0  0  0  0  0  0  0  0  0
  139.6033   68.6810  225.4046 H   0  0  0  0  0  0  0  0  0  0  0  0
  138.6425   69.7425  226.3968 H   0  0  0  0  0  0  0  0  0  0  0  0
  140.2857   73.1016  224.0609 H   0  0  0  0  0  0  0  0  0  0  0  0
  141.8757   73.2850  220.3208 H   0  0  0  0  0  0  0  0  0  0  0  0
  141.8811   73.7428  218.5296 H   0  0  0  0  0  0  0  0  0  0  0  0
  144.0201   73.7423  218.3561 H   0  0  0  0  0  0  0  0  0  0  0  0
  143.9327   71.8448  220.6788 H   0  0  0  0  0  0  0  0  0  0  0  0
  143.4619   71.4644  218.9946 H   0  0  0  0  0  0  0  0  0  0  0  0
  145.9580   71.0135  219.7861 H   0  0  0  0  0  0  0  0  0  0  0  0
  145.6635   71.7594  218.1737 H   0  0  0  0  0  0  0  0  0  0  0  0
  146.3050   73.7900  218.9290 H   0  0  0  0  0  0  0  0  0  0  0  0
  145.4906   72.7828  221.5525 H   0  0  0  0  0  0  0  0  0  0  0  0
  146.4485   74.2752  221.3808 H   0  0  0  0  0  0  0  0  0  0  0  0
  143.8551   74.4869  221.3376 H   0  0  0  0  0  0  0  0  0  0  0  0
  144.7755   75.3244  220.0422 H   0  0  0  0  0  0  0  0  0  0  0  0
  1  2  2  0
  2  3  1  0
  3  4  2  0
  4  5  1  0
  5  6  2  0
  6  7  1  0
  7  8  2  0
  8  9  1  0
  9 10  2  0
 10 11  1  0
 11 12  2  0
 12 13  1  0
 13 14  2  0
 14 15  1  0
 15 16  2  0
 16 17  1  0
 17 18  1  0
 18 19  1  0
 19 20  1  0
 20 21  1  0
 21 22  1  0
 17 23  2  0
 10 24  1  0
 24 25  1  0
 25 26  1  0
 26 27  1  0
 27 28  1  0
 28 29  1  0
 29 30  1  0
 30 31  1  0
 24  2  1  0
 31 26  1  0
  8  3  1  0
 23 13  1  0
 22 18  1  0
  4 32  1  0
  5 33  1  0
  6 34  1  0
  7 35  1  0
 11 36  1  0
 12 37  1  0
 14 38  1  0
 15 39  1  0
 16 40  1  0
 19 41  1  0
 19 42  1  0
 20 43  1  0
 20 44  1  0
 21 45  1  0
 21 46  1  0
 22 47  1  0
 22 48  1  0
 23 49  1  0
 25 50  1  0
 25 51  1  0
 26 52  1  0
 27 53  1  0
 27 54  1  0
 28 55  1  0
 28 56  1  0
 29 57  1  0
 30 58  1  0
 30 59  1  0
 31 60  1  0
 31 61  1  0
M  END
>  <smiles>  (40) 
O=c1c2ccccc2nc(/C=C/c2cccc(N3CCCC3)c2)n1CC1CCNCC1

>  <score_type>  (40) 
oracle

>  <origin>  (40) 
autodockgpu

>  <m_score__min__energy>  (40) 
-9.4900000000000002

>  <m_primary>  (40) 
energy

>  <rmsd>  (40) 
7.7518538228301725

>  <m_score__min__rmsd>  (40) 
7.7518538228301725

>  <meeko>  (40) 
{"free_energy": -8.26, "intermolecular_energy": -10.05, "internal_energy": -1.48, "cluster_size": 28, "cluster_id": 1, "rank_in_cluster": 26}

>  <energy>  (40) 
-8.17

>  <cluster_rmsd>  (40) 
0.37

>  <cluster>  (40) 
5

$$$$

     RDKit          3D

 61 65  0  0  0  0  0  0  0  0999 V2000
  143.2170   76.3480  219.7580 O   0  0  0  0  0  0  0  0  0  0  0  0
  142.7580   75.2790  220.2560 C   0  0  0  0  0  0  0  0  0  0  0  0
  143.5430   74.1480  220.1940 C   0  0  0  0  0  0  0  0  0  0  0  0
  144.7960   74.1370  219.6170 C   0  0  0  0  0  0  0  0  0  0  0  0
  145.5840   72.9970  219.5570 C   0  0  0  0  0  0  0  0  0  0  0  0
  145.0590   71.8320  220.1120 C   0  0  0  0  0  0  0  0  0  0  0  0
  143.7980   71.8210  220.6980 C   0  0  0  0  0  0  0  0  0  0  0  0
  143.0390   72.9860  220.7390 C   0  0  0  0  0  0  0  0  0  0  0  0
  141.8160   73.0220  221.2940 N   0  0  0  0  0  0  0  0  0  0  0  0
  141.0620   74.1130  221.3520 C   0  0  0  0  0  0  0  0  0  0  0  0
  139.7430   74.0520  221.9700 C   0  0  0  0  0  0  0  0  0  0  0  0
  138.9940   72.9820  221.7890 C   0  0  0  0  0  0  0  0  0  0  0  0
  139.1290   71.7540  222.5620 C   0  0  0  0  0  0  0  0  0  0  0  0
  138.7590   70.5200  222.1390 C   0  0  0  0  0  0  0  0  0  0  0  0
  138.9030   69.3680  222.9040 C   0  0  0  0  0  0  0  0  0  0  0  0
  139.4570   69.4690  224.1820 C   0  0  0  0  0  0  0  0  0  0  0  0
  139.8420   70.7140  224.6350 C   0  0  0  0  0  0  0  0  0  0  0  0
  140.4050   70.8000  225.9370 N   0  0  0  0  0  0  0  0  0  0  0  0
  140.2200   69.7880  226.9620 C   0  0  0  0  0  0  0  0  0  0  0  0
  141.0460   70.2630  228.1350 C   0  0  0  0  0  0  0  0  0  0  0  0
  140.9830   71.7790  227.9410 C   0  0  0  0  0  0  0  0  0  0  0  0
  141.2350   71.8790  226.4490 C   0  0  0  0  0  0  0  0  0  0  0  0
  139.6840   71.8390  223.8440 C   0  0  0  0  0  0  0  0  0  0  0  0
  141.5180   75.2650  220.8340 N   0  0  0  0  0  0  0  0  0  0  0  0
  140.8070   76.5090  220.8440 C   0  0  0  0  0  0  0  0  0  0  0  0
  141.4860   77.6490  221.5140 C   0  0  0  0  0  0  0  0  0  0  0  0
  140.8760   78.1460  222.7760 C   0  0  0  0  0  0  0  0  0  0  0  0
  141.8240   79.1820  223.4020 C   0  0  0  0  0  0  0  0  0  0  0  0
  142.4560   79.9720  222.3600 N   0  0  0  0  0  0  0  0  0  0  0  0
  141.4940   80.1150  221.2770 C   0  0  0  0  0  0  0  0  0  0  0  0
  141.4630   78.8100  220.5220 C   0  0  0  0  0  0  0  0  0  0  0  0
  145.1864   75.0710  219.1866 H   0  0  0  0  0  0  0  0  0  0  0  0
  146.5804   73.0122  219.0913 H   0  0  0  0  0  0  0  0  0  0  0  0
  145.6517   70.9057  220.0862 H   0  0  0  0  0  0  0  0  0  0  0  0
  143.4004   70.8905  221.1294 H   0  0  0  0  0  0  0  0  0  0  0  0
  139.3764   74.8900  222.5810 H   0  0  0  0  0  0  0  0  0  0  0  0
  138.2207   73.0185  221.0075 H   0  0  0  0  0  0  0  0  0  0  0  0
  138.3205   70.4251  221.1347 H   0  0  0  0  0  0  0  0  0  0  0  0
  138.5854   68.3919  222.5087 H   0  0  0  0  0  0  0  0  0  0  0  0
  139.5835   68.5767  224.8127 H   0  0  0  0  0  0  0  0  0  0  0  0
  139.1591   69.7111  227.2422 H   0  0  0  0  0  0  0  0  0  0  0  0
  140.5281   68.7899  226.6172 H   0  0  0  0  0  0  0  0  0  0  0  0
  140.5991   69.9594  229.0932 H   0  0  0  0  0  0  0  0  0  0  0  0
  142.0658   69.8519  228.1678 H   0  0  0  0  0  0  0  0  0  0  0  0
  139.9967   72.1824  228.2139 H   0  0  0  0  0  0  0  0  0  0  0  0
  141.6877   72.3499  228.5635 H   0  0  0  0  0  0  0  0  0  0  0  0
  140.9148   72.8539  226.0527 H   0  0  0  0  0  0  0  0  0  0  0  0
  142.2956   71.7981  226.1688 H   0  0  0  0  0  0  0  0  0  0  0  0
  140.0009   72.8189  224.2306 H   0  0  0  0  0  0  0  0  0  0  0  0
  140.6205   76.7971  219.7989 H   0  0  0  0  0  0  0  0  0  0  0  0
  139.8966   76.3223  221.4324 H   0  0  0  0  0  0  0  0  0  0  0  0
  142.4822   77.2792  221.7983 H   0  0  0  0  0  0  0  0  0  0  0  0
  139.9050   78.6152  222.5590 H   0  0  0  0  0  0  0  0  0  0  0  0
  140.7188   77.3098  223.4731 H   0  0  0  0  0  0  0  0  0  0  0  0
  141.2506   79.8463  224.0653 H   0  0  0  0  0  0  0  0  0  0  0  0
  142.6007   78.6581  223.9785 H   0  0  0  0  0  0  0  0  0  0  0  0
  143.2800   79.4860  221.9880 H   0  0  0  0  0  0  0  0  0  0  0  0
  140.4973   80.3354  221.6868 H   0  0  0  0  0  0  0  0  0  0  0  0
  141.7817   80.9412  220.6102 H   0  0  0  0  0  0  0  0  0  0  0  0
  140.5457   78.7577  219.9171 H   0  0  0  0  0  0  0  0  0  0  0  0
  142.3407   78.7466  219.8620 H   0  0  0  0  0  0  0  0  0  0  0  0
  1  2  2  0
  2  3  1  0
  3  4  2  0
  4  5  1  0
  5  6  2  0
  6  7  1  0
  7  8  2  0
  8  9  1  0
  9 10  2  0
 10 11  1  0
 11 12  2  0
 12 13  1  0
 13 14  2  0
 14 15  1  0
 15 16  2  0
 16 17  1  0
 17 18  1  0
 18 19  1  0
 19 20  1  0
 20 21  1  0
 21 22  1  0
 17 23  2  0
 10 24  1  0
 24 25  1  0
 25 26  1  0
 26 27  1  0
 27 28  1  0
 28 29  1  0
 29 30  1  0
 30 31  1  0
 24  2  1  0
 31 26  1  0
  8  3  1  0
 23 13  1  0
 22 18  1  0
  4 32  1  0
  5 33  1  0
  6 34  1  0
  7 35  1  0
 11 36  1  0
 12 37  1  0
 14 38  1  0
 15 39  1  0
 16 40  1  0
 19 41  1  0
 19 42  1  0
 20 43  1  0
 20 44  1  0
 21 45  1  0
 21 46  1  0
 22 47  1  0
 22 48  1  0
 23 49  1  0
 25 50  1  0
 25 51  1  0
 26 52  1  0
 27 53  1  0
 27 54  1  0
 28 55  1  0
 28 56  1  0
 29 57  1  0
 30 58  1  0
 30 59  1  0
 31 60  1  0
 31 61  1  0
M  END
>  <smiles>  (41) 
O=c1c2ccccc2nc(/C=C/c2cccc(N3CCCC3)c2)n1CC1CCNCC1

>  <score_type>  (41) 
oracle

>  <origin>  (41) 
autodockgpu

>  <m_score__min__energy>  (41) 
-9.4900000000000002

>  <m_primary>  (41) 
energy

>  <rmsd>  (41) 
4.697334135403153

>  <m_score__min__rmsd>  (41) 
4.697334135403153

>  <meeko>  (41) 
{"free_energy": -8.83, "intermolecular_energy": -10.62, "internal_energy": -1.5, "cluster_size": 5, "cluster_id": 2, "rank_in_cluster": 4}

>  <energy>  (41) 
-8.15

>  <cluster_rmsd>  (41) 
0.4

>  <cluster>  (41) 
5

$$$$

     RDKit          3D

 61 65  0  0  0  0  0  0  0  0999 V2000
  142.8780   77.3590  219.0030 O   0  0  0  0  0  0  0  0  0  0  0  0
  142.1760   76.8590  219.9290 C   0  0  0  0  0  0  0  0  0  0  0  0
  141.8150   77.6770  220.9790 C   0  0  0  0  0  0  0  0  0  0  0  0
  142.1870   79.0030  221.0560 C   0  0  0  0  0  0  0  0  0  0  0  0
  141.8220   79.8240  222.1140 C   0  0  0  0  0  0  0  0  0  0  0  0
  141.0490   79.2540  223.1230 C   0  0  0  0  0  0  0  0  0  0  0  0
  140.6640   77.9190  223.0650 C   0  0  0  0  0  0  0  0  0  0  0  0
  141.0500   77.1300  221.9870 C   0  0  0  0  0  0  0  0  0  0  0  0
  140.7020   75.8350  221.8890 N   0  0  0  0  0  0  0  0  0  0  0  0
  141.0500   75.0500  220.8760 C   0  0  0  0  0  0  0  0  0  0  0  0
  140.6300   73.6540  220.8620 C   0  0  0  0  0  0  0  0  0  0  0  0
  141.1380   72.8180  221.7450 C   0  0  0  0  0  0  0  0  0  0  0  0
  140.3390   71.9310  222.5820 C   0  0  0  0  0  0  0  0  0  0  0  0
  139.2860   71.1930  222.1540 C   0  0  0  0  0  0  0  0  0  0  0  0
  138.5450   70.3550  222.9820 C   0  0  0  0  0  0  0  0  0  0  0  0
  138.8920   70.2590  224.3320 C   0  0  0  0  0  0  0  0  0  0  0  0
  139.9610   71.0000  224.7910 C   0  0  0  0  0  0  0  0  0  0  0  0
  140.3010   70.8900  226.1660 N   0  0  0  0  0  0  0  0  0  0  0  0
  141.0740   71.8880  226.8850 C   0  0  0  0  0  0  0  0  0  0  0  0
  141.1260   71.3890  228.3110 C   0  0  0  0  0  0  0  0  0  0  0  0
  141.0520   69.8770  228.0930 C   0  0  0  0  0  0  0  0  0  0  0  0
  139.9460   69.7980  227.0580 C   0  0  0  0  0  0  0  0  0  0  0  0
  140.6750   71.8230  223.9360 C   0  0  0  0  0  0  0  0  0  0  0  0
  141.7950   75.5470  219.8750 N   0  0  0  0  0  0  0  0  0  0  0  0
  142.2240   74.8070  218.7260 C   0  0  0  0  0  0  0  0  0  0  0  0
  143.5970   74.2400  218.7840 C   0  0  0  0  0  0  0  0  0  0  0  0
  143.7330   72.7810  218.5270 C   0  0  0  0  0  0  0  0  0  0  0  0
  145.2280   72.4370  218.4420 C   0  0  0  0  0  0  0  0  0  0  0  0
  145.9780   73.2350  219.3960 N   0  0  0  0  0  0  0  0  0  0  0  0
  145.1270   73.4370  220.5600 C   0  0  0  0  0  0  0  0  0  0  0  0
  144.1100   74.4910  220.2000 C   0  0  0  0  0  0  0  0  0  0  0  0
  142.7980   79.4273  220.2457 H   0  0  0  0  0  0  0  0  0  0  0  0
  142.1299   80.8793  222.1540 H   0  0  0  0  0  0  0  0  0  0  0  0
  140.7380   79.8700  223.9797 H   0  0  0  0  0  0  0  0  0  0  0  0
  140.0540   77.4871  223.8720 H   0  0  0  0  0  0  0  0  0  0  0  0
  139.8964   73.3020  220.1218 H   0  0  0  0  0  0  0  0  0  0  0  0
  142.2318   72.7875  221.8574 H   0  0  0  0  0  0  0  0  0  0  0  0
  139.0012   71.2600  221.0936 H   0  0  0  0  0  0  0  0  0  0  0  0
  137.6996   69.7774  222.5800 H   0  0  0  0  0  0  0  0  0  0  0  0
  138.3255   69.6072  225.0134 H   0  0  0  0  0  0  0  0  0  0  0  0
  142.0879   71.9675  226.4659 H   0  0  0  0  0  0  0  0  0  0  0  0
  140.6245   72.8894  226.8135 H   0  0  0  0  0  0  0  0  0  0  0  0
  142.0635   71.6803  228.8072 H   0  0  0  0  0  0  0  0  0  0  0  0
  140.3367   71.7928  228.9621 H   0  0  0  0  0  0  0  0  0  0  0  0
  142.0001   69.4762  227.7050 H   0  0  0  0  0  0  0  0  0  0  0  0
  140.8668   69.2918  229.0058 H   0  0  0  0  0  0  0  0  0  0  0  0
  139.9561   68.8315  226.5329 H   0  0  0  0  0  0  0  0  0  0  0  0
  138.9328   69.8759  227.4792 H   0  0  0  0  0  0  0  0  0  0  0  0
  141.5229   72.4031  224.3291 H   0  0  0  0  0  0  0  0  0  0  0  0
  141.5221   73.9721  218.5836 H   0  0  0  0  0  0  0  0  0  0  0  0
  142.2402   75.5320  217.8989 H   0  0  0  0  0  0  0  0  0  0  0  0
  144.1577   74.7315  217.9753 H   0  0  0  0  0  0  0  0  0  0  0  0
  143.2683   72.2150  219.3478 H   0  0  0  0  0  0  0  0  0  0  0  0
  143.2317   72.5165  217.5842 H   0  0  0  0  0  0  0  0  0  0  0  0
  145.3695   71.3700  218.6692 H   0  0  0  0  0  0  0  0  0  0  0  0
  145.5906   72.6543  217.4265 H   0  0  0  0  0  0  0  0  0  0  0  0
  146.1980   74.1570  219.0020 H   0  0  0  0  0  0  0  0  0  0  0  0
  144.6180   72.4974  220.8208 H   0  0  0  0  0  0  0  0  0  0  0  0
  145.7249   73.7552  221.4268 H   0  0  0  0  0  0  0  0  0  0  0  0
  143.2693   74.4464  220.9079 H   0  0  0  0  0  0  0  0  0  0  0  0
  144.5785   75.4850  220.2496 H   0  0  0  0  0  0  0  0  0  0  0  0
  1  2  2  0
  2  3  1  0
  3  4  2  0
  4  5  1  0
  5  6  2  0
  6  7  1  0
  7  8  2  0
  8  9  1  0
  9 10  2  0
 10 11  1  0
 11 12  2  0
 12 13  1  0
 13 14  2  0
 14 15  1  0
 15 16  2  0
 16 17  1  0
 17 18  1  0
 18 19  1  0
 19 20  1  0
 20 21  1  0
 21 22  1  0
 17 23  2  0
 10 24  1  0
 24 25  1  0
 25 26  1  0
 26 27  1  0
 27 28  1  0
 28 29  1  0
 29 30  1  0
 30 31  1  0
 24  2  1  0
 31 26  1  0
  8  3  1  0
 23 13  1  0
 22 18  1  0
  4 32  1  0
  5 33  1  0
  6 34  1  0
  7 35  1  0
 11 36  1  0
 12 37  1  0
 14 38  1  0
 15 39  1  0
 16 40  1  0
 19 41  1  0
 19 42  1  0
 20 43  1  0
 20 44  1  0
 21 45  1  0
 21 46  1  0
 22 47  1  0
 22 48  1  0
 23 49  1  0
 25 50  1  0
 25 51  1  0
 26 52  1  0
 27 53  1  0
 27 54  1  0
 28 55  1  0
 28 56  1  0
 29 57  1  0
 30 58  1  0
 30 59  1  0
 31 60  1  0
 31 61  1  0
M  END
>  <smiles>  (42) 
O=c1c2ccccc2nc(/C=C/c2cccc(N3CCCC3)c2)n1CC1CCNCC1

>  <score_type>  (42) 
oracle

>  <origin>  (42) 
autodockgpu

>  <m_score__min__energy>  (42) 
-9.4900000000000002

>  <m_primary>  (42) 
energy

>  <rmsd>  (42) 
7.734818960008068

>  <m_score__min__rmsd>  (42) 
7.734818960008068

>  <meeko>  (42) 
{"free_energy": -9.26, "intermolecular_energy": -11.05, "internal_energy": -1.5, "cluster_size": 28, "cluster_id": 1, "rank_in_cluster": 11}

>  <energy>  (42) 
-7.51

>  <cluster_rmsd>  (42) 
0.76

>  <cluster>  (42) 
5

$$$$

     RDKit          3D

 61 65  0  0  0  0  0  0  0  0999 V2000
  137.3670   78.4990  221.9790 O   0  0  0  0  0  0  0  0  0  0  0  0
  138.4340   77.8260  222.0800 C   0  0  0  0  0  0  0  0  0  0  0  0
  139.5320   78.4360  222.6480 C   0  0  0  0  0  0  0  0  0  0  0  0
  139.5110   79.7370  223.1060 C   0  0  0  0  0  0  0  0  0  0  0  0
  140.6180   80.3480  223.6780 C   0  0  0  0  0  0  0  0  0  0  0  0
  141.7810   79.5880  223.7790 C   0  0  0  0  0  0  0  0  0  0  0  0
  141.8240   78.2750  223.3240 C   0  0  0  0  0  0  0  0  0  0  0  0
  140.6920   77.6990  222.7570 C   0  0  0  0  0  0  0  0  0  0  0  0
  140.6860   76.4340  222.3030 N   0  0  0  0  0  0  0  0  0  0  0  0
  139.6270   75.8490  221.7550 C   0  0  0  0  0  0  0  0  0  0  0  0
  139.7200   74.4720  221.2850 C   0  0  0  0  0  0  0  0  0  0  0  0
  140.5140   73.6280  221.9130 C   0  0  0  0  0  0  0  0  0  0  0  0
  140.0530   72.4100  222.5680 C   0  0  0  0  0  0  0  0  0  0  0  0
  139.3410   71.4230  221.9710 C   0  0  0  0  0  0  0  0  0  0  0  0
  138.9180   70.2720  222.6280 C   0  0  0  0  0  0  0  0  0  0  0  0
  139.2350   70.1090  223.9780 C   0  0  0  0  0  0  0  0  0  0  0  0
  139.9580   71.1000  224.6090 C   0  0  0  0  0  0  0  0  0  0  0  0
  140.2730   70.9180  225.9830 N   0  0  0  0  0  0  0  0  0  0  0  0
  141.0360   71.8740  226.7650 C   0  0  0  0  0  0  0  0  0  0  0  0
  141.0590   71.3030  228.1650 C   0  0  0  0  0  0  0  0  0  0  0  0
  140.9840   69.8040  227.8690 C   0  0  0  0  0  0  0  0  0  0  0  0
  139.8980   69.7830  226.8110 C   0  0  0  0  0  0  0  0  0  0  0  0
  140.3630   72.2310  223.9210 C   0  0  0  0  0  0  0  0  0  0  0  0
  138.4780   76.5340  221.6330 N   0  0  0  0  0  0  0  0  0  0  0  0
  137.2670   76.0120  221.0730 C   0  0  0  0  0  0  0  0  0  0  0  0
  136.3350   75.3500  222.0230 C   0  0  0  0  0  0  0  0  0  0  0  0
  136.5210   75.6520  223.4670 C   0  0  0  0  0  0  0  0  0  0  0  0
  135.3540   75.0310  224.2510 C   0  0  0  0  0  0  0  0  0  0  0  0
  134.9790   73.7590  223.6610 N   0  0  0  0  0  0  0  0  0  0  0  0
  136.1920   73.1430  223.1420 C   0  0  0  0  0  0  0  0  0  0  0  0
  136.5410   73.8460  221.8540 C   0  0  0  0  0  0  0  0  0  0  0  0
  138.5788   80.3137  223.0141 H   0  0  0  0  0  0  0  0  0  0  0  0
  140.5787   81.3873  224.0361 H   0  0  0  0  0  0  0  0  0  0  0  0
  142.6811   80.0345  224.2266 H   0  0  0  0  0  0  0  0  0  0  0  0
  142.7526   77.6920  223.4123 H   0  0  0  0  0  0  0  0  0  0  0  0
  139.1336   74.1409  220.4153 H   0  0  0  0  0  0  0  0  0  0  0  0
  141.5895   73.8565  221.9448 H   0  0  0  0  0  0  0  0  0  0  0  0
  139.0834   71.5386  220.9079 H   0  0  0  0  0  0  0  0  0  0  0  0
  138.3428   69.5024  222.0924 H   0  0  0  0  0  0  0  0  0  0  0  0
  138.9154   69.2105  224.5261 H   0  0  0  0  0  0  0  0  0  0  0  0
  142.0579   71.9695  226.3693 H   0  0  0  0  0  0  0  0  0  0  0  0
  140.5923   72.8801  226.7359 H   0  0  0  0  0  0  0  0  0  0  0  0
  141.9879   71.5647  228.6930 H   0  0  0  0  0  0  0  0  0  0  0  0
  140.2588   71.6767  228.8208 H   0  0  0  0  0  0  0  0  0  0  0  0
  141.9379   69.4192  227.4790 H   0  0  0  0  0  0  0  0  0  0  0  0
  140.7795   69.1739  228.7472 H   0  0  0  0  0  0  0  0  0  0  0  0
  139.9150   68.8447  226.2371 H   0  0  0  0  0  0  0  0  0  0  0  0
  138.8773   69.8434  227.2167 H   0  0  0  0  0  0  0  0  0  0  0  0
  140.9402   73.0047  224.4485 H   0  0  0  0  0  0  0  0  0  0  0  0
  136.7282   76.8472  220.6018 H   0  0  0  0  0  0  0  0  0  0  0  0
  137.5827   75.2237  220.3738 H   0  0  0  0  0  0  0  0  0  0  0  0
  135.3333   75.7297  221.7730 H   0  0  0  0  0  0  0  0  0  0  0  0
  137.4720   75.2232  223.8160 H   0  0  0  0  0  0  0  0  0  0  0  0
  136.5427   76.7405  223.6240 H   0  0  0  0  0  0  0  0  0  0  0  0
  135.6610   74.8715  225.2952 H   0  0  0  0  0  0  0  0  0  0  0  0
  134.4919   75.7133  224.2149 H   0  0  0  0  0  0  0  0  0  0  0  0
  134.3360   73.9010  222.8730 H   0  0  0  0  0  0  0  0  0  0  0  0
  137.0115   73.2579  223.8668 H   0  0  0  0  0  0  0  0  0  0  0  0
  136.0370   72.0681  222.9674 H   0  0  0  0  0  0  0  0  0  0  0  0
  137.5925   73.6461  221.6004 H   0  0  0  0  0  0  0  0  0  0  0  0
  135.8924   73.4755  221.0466 H   0  0  0  0  0  0  0  0  0  0  0  0
  1  2  2  0
  2  3  1  0
  3  4  2  0
  4  5  1  0
  5  6  2  0
  6  7  1  0
  7  8  2  0
  8  9  1  0
  9 10  2  0
 10 11  1  0
 11 12  2  0
 12 13  1  0
 13 14  2  0
 14 15  1  0
 15 16  2  0
 16 17  1  0
 17 18  1  0
 18 19  1  0
 19 20  1  0
 20 21  1  0
 21 22  1  0
 17 23  2  0
 10 24  1  0
 24 25  1  0
 25 26  1  0
 26 27  1  0
 27 28  1  0
 28 29  1  0
 29 30  1  0
 30 31  1  0
 24  2  1  0
 31 26  1  0
  8  3  1  0
 23 13  1  0
 22 18  1  0
  4 32  1  0
  5 33  1  0
  6 34  1  0
  7 35  1  0
 11 36  1  0
 12 37  1  0
 14 38  1  0
 15 39  1  0
 16 40  1  0
 19 41  1  0
 19 42  1  0
 20 43  1  0
 20 44  1  0
 21 45  1  0
 21 46  1  0
 22 47  1  0
 22 48  1  0
 23 49  1  0
 25 50  1  0
 25 51  1  0
 26 52  1  0
 27 53  1  0
 27 54  1  0
 28 55  1  0
 28 56  1  0
 29 57  1  0
 30 58  1  0
 30 59  1  0
 31 60  1  0
 31 61  1  0
M  END
>  <smiles>  (43) 
O=c1c2ccccc2nc(/C=C/c2cccc(N3CCCC3)c2)n1CC1CCNCC1

>  <score_type>  (43) 
oracle

>  <origin>  (43) 
autodockgpu

>  <m_score__min__energy>  (43) 
-9.4900000000000002

>  <m_primary>  (43) 
energy

>  <rmsd>  (43) 
7.1846315320596394

>  <m_score__min__rmsd>  (43) 
7.1846315320596394

>  <meeko>  (43) 
{"free_energy": -7.51, "intermolecular_energy": -9.3, "internal_energy": -2.01, "cluster_size": 6, "cluster_id": 5, "rank_in_cluster": 6}

>  <energy>  (43) 
-8.15

>  <cluster_rmsd>  (43) 
0.0

>  <cluster>  (43) 
6

$$$$

     RDKit          3D

 61 65  0  0  0  0  0  0  0  0999 V2000
  144.0710   76.6600  219.5080 O   0  0  0  0  0  0  0  0  0  0  0  0
  142.8060   76.6940  219.4970 C   0  0  0  0  0  0  0  0  0  0  0  0
  142.1930   77.7280  218.8230 C   0  0  0  0  0  0  0  0  0  0  0  0
  142.8990   78.7170  218.1680 C   0  0  0  0  0  0  0  0  0  0  0  0
  142.2790   79.7560  217.4890 C   0  0  0  0  0  0  0  0  0  0  0  0
  140.8860   79.7730  217.4900 C   0  0  0  0  0  0  0  0  0  0  0  0
  140.1550   78.7870  218.1440 C   0  0  0  0  0  0  0  0  0  0  0  0
  140.8150   77.7610  218.8120 C   0  0  0  0  0  0  0  0  0  0  0  0
  140.1510   76.7870  219.4590 N   0  0  0  0  0  0  0  0  0  0  0  0
  140.7450   75.7920  220.1080 C   0  0  0  0  0  0  0  0  0  0  0  0
  139.9380   74.7850  220.7860 C   0  0  0  0  0  0  0  0  0  0  0  0
  139.3350   75.0950  221.9160 C   0  0  0  0  0  0  0  0  0  0  0  0
  139.0440   76.4610  222.3370 C   0  0  0  0  0  0  0  0  0  0  0  0
  137.8080   76.9510  222.6010 C   0  0  0  0  0  0  0  0  0  0  0  0
  137.5680   78.2610  223.0020 C   0  0  0  0  0  0  0  0  0  0  0  0
  138.6490   79.1340  223.1440 C   0  0  0  0  0  0  0  0  0  0  0  0
  139.9170   78.6590  222.8810 C   0  0  0  0  0  0  0  0  0  0  0  0
  141.0060   79.5590  223.0320 N   0  0  0  0  0  0  0  0  0  0  0  0
  142.3990   79.1580  222.9430 C   0  0  0  0  0  0  0  0  0  0  0  0
  143.1860   80.4400  223.0930 C   0  0  0  0  0  0  0  0  0  0  0  0
  142.2410   81.2590  223.9750 C   0  0  0  0  0  0  0  0  0  0  0  0
  140.9160   80.9870  223.2900 C   0  0  0  0  0  0  0  0  0  0  0  0
  140.1170   77.3470  222.4850 C   0  0  0  0  0  0  0  0  0  0  0  0
  142.0850   75.7250  220.1400 N   0  0  0  0  0  0  0  0  0  0  0  0
  142.8410   74.6980  220.7940 C   0  0  0  0  0  0  0  0  0  0  0  0
  143.9220   74.0670  219.9930 C   0  0  0  0  0  0  0  0  0  0  0  0
  143.7410   72.6350  219.6320 C   0  0  0  0  0  0  0  0  0  0  0  0
  144.8580   72.2330  218.6550 C   0  0  0  0  0  0  0  0  0  0  0  0
  146.0970   72.8990  219.0130 N   0  0  0  0  0  0  0  0  0  0  0  0
  146.1210   73.0250  220.4640 C   0  0  0  0  0  0  0  0  0  0  0  0
  145.1930   74.1550  220.8350 C   0  0  0  0  0  0  0  0  0  0  0  0
  143.9982   78.6798  218.1851 H   0  0  0  0  0  0  0  0  0  0  0  0
  142.8620   80.5326  216.9723 H   0  0  0  0  0  0  0  0  0  0  0  0
  140.3550   80.5803  216.9644 H   0  0  0  0  0  0  0  0  0  0  0  0
  139.0555   78.8186  218.1330 H   0  0  0  0  0  0  0  0  0  0  0  0
  139.8335   73.7768  220.3588 H   0  0  0  0  0  0  0  0  0  0  0  0
  139.0327   74.2737  222.5823 H   0  0  0  0  0  0  0  0  0  0  0  0
  136.9470   76.2751  222.4920 H   0  0  0  0  0  0  0  0  0  0  0  0
  136.5427   78.6042  223.2042 H   0  0  0  0  0  0  0  0  0  0  0  0
  138.4927   80.1765  223.4584 H   0  0  0  0  0  0  0  0  0  0  0  0
  142.6507   78.4533  223.7493 H   0  0  0  0  0  0  0  0  0  0  0  0
  142.6215   78.6453  221.9956 H   0  0  0  0  0  0  0  0  0  0  0  0
  144.1523   80.2655  223.5889 H   0  0  0  0  0  0  0  0  0  0  0  0
  143.4523   80.9234  222.1415 H   0  0  0  0  0  0  0  0  0  0  0  0
  142.2419   80.8990  225.0144 H   0  0  0  0  0  0  0  0  0  0  0  0
  142.5022   82.3241  224.0601 H   0  0  0  0  0  0  0  0  0  0  0  0
  140.0677   81.2228  223.9494 H   0  0  0  0  0  0  0  0  0  0  0  0
  140.7462   81.5941  222.3885 H   0  0  0  0  0  0  0  0  0  0  0  0
  141.1392   76.9946  222.2829 H   0  0  0  0  0  0  0  0  0  0  0  0
  143.3016   75.1395  221.6901 H   0  0  0  0  0  0  0  0  0  0  0  0
  142.1222   73.8923  221.0040 H   0  0  0  0  0  0  0  0  0  0  0  0
  143.9410   74.6091  219.0360 H   0  0  0  0  0  0  0  0  0  0  0  0
  143.7992   72.0138  220.5379 H   0  0  0  0  0  0  0  0  0  0  0  0
  142.7577   72.4863  219.1619 H   0  0  0  0  0  0  0  0  0  0  0  0
  145.0047   71.1437  218.6983 H   0  0  0  0  0  0  0  0  0  0  0  0
  144.5700   72.5315  217.6362 H   0  0  0  0  0  0  0  0  0  0  0  0
  146.1280   73.8440  218.6130 H   0  0  0  0  0  0  0  0  0  0  0  0
  145.7775   72.0888  220.9283 H   0  0  0  0  0  0  0  0  0  0  0  0
  147.1420   73.2289  220.8189 H   0  0  0  0  0  0  0  0  0  0  0  0
  144.9325   74.0806  221.9011 H   0  0  0  0  0  0  0  0  0  0  0  0
  145.6923   75.1167  220.6459 H   0  0  0  0  0  0  0  0  0  0  0  0
  1  2  2  0
  2  3  1  0
  3  4  2  0
  4  5  1  0
  5  6  2  0
  6  7  1  0
  7  8  2  0
  8  9  1  0
  9 10  2  0
 10 11  1  0
 11 12  2  0
 12 13  1  0
 13 14  2  0
 14 15  1  0
 15 16  2  0
 16 17  1  0
 17 18  1  0
 18 19  1  0
 19 20  1  0
 20 21  1  0
 21 22  1  0
 17 23  2  0
 10 24  1  0
 24 25  1  0
 25 26  1  0
 26 27  1  0
 27 28  1  0
 28 29  1  0
 29 30  1  0
 30 31  1  0
 24  2  1  0
 31 26  1  0
  8  3  1  0
 23 13  1  0
 22 18  1  0
  4 32  1  0
  5 33  1  0
  6 34  1  0
  7 35  1  0
 11 36  1  0
 12 37  1  0
 14 38  1  0
 15 39  1  0
 16 40  1  0
 19 41  1  0
 19 42  1  0
 20 43  1  0
 20 44  1  0
 21 45  1  0
 21 46  1  0
 22 47  1  0
 22 48  1  0
 23 49  1  0
 25 50  1  0
 25 51  1  0
 26 52  1  0
 27 53  1  0
 27 54  1  0
 28 55  1  0
 28 56  1  0
 29 57  1  0
 30 58  1  0
 30 59  1  0
 31 60  1  0
 31 61  1  0
M  END
>  <smiles>  (44) 
O=c1c2ccccc2nc(/C=C/c2cccc(N3CCCC3)c2)n1CC1CCNCC1

>  <score_type>  (44) 
oracle

>  <origin>  (44) 
autodockgpu

>  <m_score__min__energy>  (44) 
-9.4900000000000002

>  <m_primary>  (44) 
energy

>  <rmsd>  (44) 
7.580930706419156

>  <m_score__min__rmsd>  (44) 
7.580930706419156

>  <meeko>  (44) 
{"free_energy": -7.92, "intermolecular_energy": -9.71, "internal_energy": -1.92, "cluster_size": 1, "cluster_id": 8, "rank_in_cluster": 1}

>  <energy>  (44) 
-7.99

>  <cluster_rmsd>  (44) 
0.0

>  <cluster>  (44) 
7

$$$$

     RDKit          3D

 61 65  0  0  0  0  0  0  0  0999 V2000
  142.8980   76.7030  219.0150 O   0  0  0  0  0  0  0  0  0  0  0  0
  142.1440   76.2460  219.9220 C   0  0  0  0  0  0  0  0  0  0  0  0
  141.6010   77.1370  220.8220 C   0  0  0  0  0  0  0  0  0  0  0  0
  141.8470   78.4940  220.7730 C   0  0  0  0  0  0  0  0  0  0  0  0
  141.2980   79.3890  221.6800 C   0  0  0  0  0  0  0  0  0  0  0  0
  140.4700   78.8630  222.6700 C   0  0  0  0  0  0  0  0  0  0  0  0
  140.2090   77.4990  222.7380 C   0  0  0  0  0  0  0  0  0  0  0  0
  140.7790   76.6350  221.8080 C   0  0  0  0  0  0  0  0  0  0  0  0
  140.5560   75.3100  221.8360 N   0  0  0  0  0  0  0  0  0  0  0  0
  141.0800   74.4530  220.9670 C   0  0  0  0  0  0  0  0  0  0  0  0
  140.7850   73.0300  221.0820 C   0  0  0  0  0  0  0  0  0  0  0  0
  139.6260   72.6500  221.5830 C   0  0  0  0  0  0  0  0  0  0  0  0
  139.4670   71.5450  222.5210 C   0  0  0  0  0  0  0  0  0  0  0  0
  138.8310   70.3790  222.2540 C   0  0  0  0  0  0  0  0  0  0  0  0
  138.6980   69.3440  223.1740 C   0  0  0  0  0  0  0  0  0  0  0  0
  139.2450   69.5000  224.4500 C   0  0  0  0  0  0  0  0  0  0  0  0
  139.8980   70.6780  224.7470 C   0  0  0  0  0  0  0  0  0  0  0  0
  140.4490   70.8200  226.0490 N   0  0  0  0  0  0  0  0  0  0  0  0
  140.2260   69.8710  227.1240 C   0  0  0  0  0  0  0  0  0  0  0  0
  141.0520   70.3870  228.2800 C   0  0  0  0  0  0  0  0  0  0  0  0
  141.0310   71.8920  228.0030 C   0  0  0  0  0  0  0  0  0  0  0  0
  141.3020   71.9040  226.5110 C   0  0  0  0  0  0  0  0  0  0  0  0
  140.0110   71.6860  223.8030 C   0  0  0  0  0  0  0  0  0  0  0  0
  141.8850   74.9040  219.9910 N   0  0  0  0  0  0  0  0  0  0  0  0
  142.5000   74.0850  218.9900 C   0  0  0  0  0  0  0  0  0  0  0  0
  143.9380   73.7690  219.1920 C   0  0  0  0  0  0  0  0  0  0  0  0
  144.2910   72.3370  219.3840 C   0  0  0  0  0  0  0  0  0  0  0  0
  145.8220   72.2050  219.3810 C   0  0  0  0  0  0  0  0  0  0  0  0
  146.4220   73.3540  220.0360 N   0  0  0  0  0  0  0  0  0  0  0  0
  145.5200   73.7700  221.1000 C   0  0  0  0  0  0  0  0  0  0  0  0
  144.3710   74.5060  220.4570 C   0  0  0  0  0  0  0  0  0  0  0  0
  142.5056   78.8822  219.9821 H   0  0  0  0  0  0  0  0  0  0  0  0
  141.5073   80.4673  221.6203 H   0  0  0  0  0  0  0  0  0  0  0  0
  140.0154   79.5382  223.4099 H   0  0  0  0  0  0  0  0  0  0  0  0
  139.5522   77.1031  223.5266 H   0  0  0  0  0  0  0  0  0  0  0  0
  141.5213   72.2813  220.7544 H   0  0  0  0  0  0  0  0  0  0  0  0
  138.7246   73.1999  221.2747 H   0  0  0  0  0  0  0  0  0  0  0  0
  138.3951   70.2430  221.2532 H   0  0  0  0  0  0  0  0  0  0  0  0
  138.1708   68.4179  222.9012 H   0  0  0  0  0  0  0  0  0  0  0  0
  139.1569   68.7012  225.2011 H   0  0  0  0  0  0  0  0  0  0  0  0
  139.1604   69.8374  227.3950 H   0  0  0  0  0  0  0  0  0  0  0  0
  140.5108   68.8479  226.8373 H   0  0  0  0  0  0  0  0  0  0  0  0
  140.5870   70.1476  229.2477 H   0  0  0  0  0  0  0  0  0  0  0  0
  142.0600   69.9518  228.3477 H   0  0  0  0  0  0  0  0  0  0  0  0
  140.0527   72.3349  228.2413 H   0  0  0  0  0  0  0  0  0  0  0  0
  141.7436   72.4777  228.6024 H   0  0  0  0  0  0  0  0  0  0  0  0
  141.0119   72.8636  226.0582 H   0  0  0  0  0  0  0  0  0  0  0  0
  142.3631   71.7810  226.2483 H   0  0  0  0  0  0  0  0  0  0  0  0
  140.5383   72.6148  224.0661 H   0  0  0  0  0  0  0  0  0  0  0  0
  141.9498   73.1333  218.9507 H   0  0  0  0  0  0  0  0  0  0  0  0
  142.4559   74.6729  218.0613 H   0  0  0  0  0  0  0  0  0  0  0  0
  144.4431   74.0714  218.2628 H   0  0  0  0  0  0  0  0  0  0  0  0
  143.8903   71.9821  220.3450 H   0  0  0  0  0  0  0  0  0  0  0  0
  143.8599   71.7316  218.5730 H   0  0  0  0  0  0  0  0  0  0  0  0
  146.1095   71.2888  219.9176 H   0  0  0  0  0  0  0  0  0  0  0  0
  146.1777   72.1562  218.3412 H   0  0  0  0  0  0  0  0  0  0  0  0
  146.5170   74.1370  219.3780 H   0  0  0  0  0  0  0  0  0  0  0  0
  145.1458   72.8886  221.6414 H   0  0  0  0  0  0  0  0  0  0  0  0
  146.0417   74.4181  221.8195 H   0  0  0  0  0  0  0  0  0  0  0  0
  143.5267   74.5539  221.1605 H   0  0  0  0  0  0  0  0  0  0  0  0
  144.6894   75.5260  220.1960 H   0  0  0  0  0  0  0  0  0  0  0  0
  1  2  2  0
  2  3  1  0
  3  4  2  0
  4  5  1  0
  5  6  2  0
  6  7  1  0
  7  8  2  0
  8  9  1  0
  9 10  2  0
 10 11  1  0
 11 12  2  0
 12 13  1  0
 13 14  2  0
 14 15  1  0
 15 16  2  0
 16 17  1  0
 17 18  1  0
 18 19  1  0
 19 20  1  0
 20 21  1  0
 21 22  1  0
 17 23  2  0
 10 24  1  0
 24 25  1  0
 25 26  1  0
 26 27  1  0
 27 28  1  0
 28 29  1  0
 29 30  1  0
 30 31  1  0
 24  2  1  0
 31 26  1  0
  8  3  1  0
 23 13  1  0
 22 18  1  0
  4 32  1  0
  5 33  1  0
  6 34  1  0
  7 35  1  0
 11 36  1  0
 12 37  1  0
 14 38  1  0
 15 39  1  0
 16 40  1  0
 19 41  1  0
 19 42  1  0
 20 43  1  0
 20 44  1  0
 21 45  1  0
 21 46  1  0
 22 47  1  0
 22 48  1  0
 23 49  1  0
 25 50  1  0
 25 51  1  0
 26 52  1  0
 27 53  1  0
 27 54  1  0
 28 55  1  0
 28 56  1  0
 29 57  1  0
 30 58  1  0
 30 59  1  0
 31 60  1  0
 31 61  1  0
M  END
>  <smiles>  (45) 
O=c1c2ccccc2nc(/C=C/c2cccc(N3CCCC3)c2)n1CC1CCNCC1

>  <score_type>  (45) 
oracle

>  <origin>  (45) 
autodockgpu

>  <m_score__min__energy>  (45) 
-9.4900000000000002

>  <m_primary>  (45) 
energy

>  <rmsd>  (45) 
7.729207616173949

>  <m_score__min__rmsd>  (45) 
7.729207616173949

>  <meeko>  (45) 
{"free_energy": -9.28, "intermolecular_energy": -11.07, "internal_energy": -1.26, "cluster_size": 28, "cluster_id": 1, "rank_in_cluster": 9}

>  <energy>  (45) 
-7.95

>  <cluster_rmsd>  (45) 
0.11

>  <cluster>  (45) 
7

$$$$

     RDKit          3D

 61 65  0  0  0  0  0  0  0  0999 V2000
  142.9980   77.2200  219.1800 O   0  0  0  0  0  0  0  0  0  0  0  0
  142.2010   76.7160  220.0230 C   0  0  0  0  0  0  0  0  0  0  0  0
  141.7290   77.5280  221.0320 C   0  0  0  0  0  0  0  0  0  0  0  0
  142.0900   78.8530  221.1570 C   0  0  0  0  0  0  0  0  0  0  0  0
  141.6130   79.6680  222.1730 C   0  0  0  0  0  0  0  0  0  0  0  0
  140.7350   79.0920  223.0900 C   0  0  0  0  0  0  0  0  0  0  0  0
  140.3580   77.7580  222.9830 C   0  0  0  0  0  0  0  0  0  0  0  0
  140.8590   76.9750  221.9480 C   0  0  0  0  0  0  0  0  0  0  0  0
  140.5240   75.6810  221.8050 N   0  0  0  0  0  0  0  0  0  0  0  0
  140.9800   74.9020  220.8320 C   0  0  0  0  0  0  0  0  0  0  0  0
  140.5630   73.5060  220.7640 C   0  0  0  0  0  0  0  0  0  0  0  0
  141.1190   72.6270  221.5740 C   0  0  0  0  0  0  0  0  0  0  0  0
  140.3680   71.7320  222.4450 C   0  0  0  0  0  0  0  0  0  0  0  0
  139.3880   70.8870  222.0400 C   0  0  0  0  0  0  0  0  0  0  0  0
  138.6920   70.0450  222.9010 C   0  0  0  0  0  0  0  0  0  0  0  0
  139.0050   70.0600  224.2620 C   0  0  0  0  0  0  0  0  0  0  0  0
  139.9980   70.9120  224.6990 C   0  0  0  0  0  0  0  0  0  0  0  0
  140.3050   70.9140  226.0870 N   0  0  0  0  0  0  0  0  0  0  0  0
  139.8860   69.8700  227.0050 C   0  0  0  0  0  0  0  0  0  0  0  0
  140.4910   70.2530  228.3350 C   0  0  0  0  0  0  0  0  0  0  0  0
  140.5290   71.7770  228.2100 C   0  0  0  0  0  0  0  0  0  0  0  0
  141.0660   71.9270  226.8000 C   0  0  0  0  0  0  0  0  0  0  0  0
  140.6710   71.7350  223.8120 C   0  0  0  0  0  0  0  0  0  0  0  0
  141.8280   75.4040  219.9200 N   0  0  0  0  0  0  0  0  0  0  0  0
  142.3790   74.6700  218.8200 C   0  0  0  0  0  0  0  0  0  0  0  0
  143.7610   74.1550  218.9990 C   0  0  0  0  0  0  0  0  0  0  0  0
  143.9620   72.6920  218.8210 C   0  0  0  0  0  0  0  0  0  0  0  0
  145.4700   72.3970  218.8570 C   0  0  0  0  0  0  0  0  0  0  0  0
  146.1240   73.2620  219.8220 N   0  0  0  0  0  0  0  0  0  0  0  0
  145.1860   73.4850  220.9130 C   0  0  0  0  0  0  0  0  0  0  0  0
  144.1650   74.4860  220.4350 C   0  0  0  0  0  0  0  0  0  0  0  0
  142.7853   79.2815  220.4202 H   0  0  0  0  0  0  0  0  0  0  0  0
  141.9144   80.7230  222.2518 H   0  0  0  0  0  0  0  0  0  0  0  0
  140.3338   79.7031  223.9119 H   0  0  0  0  0  0  0  0  0  0  0  0
  139.6639   77.3219  223.7165 H   0  0  0  0  0  0  0  0  0  0  0  0
  139.7930   73.1901  220.0447 H   0  0  0  0  0  0  0  0  0  0  0  0
  142.2171   72.5653  221.5936 H   0  0  0  0  0  0  0  0  0  0  0  0
  139.1290   70.8662  220.9711 H   0  0  0  0  0  0  0  0  0  0  0  0
  137.9071   69.3775  222.5159 H   0  0  0  0  0  0  0  0  0  0  0  0
  138.4720   69.4075  224.9692 H   0  0  0  0  0  0  0  0  0  0  0  0
  138.7888   69.8344  227.0753 H   0  0  0  0  0  0  0  0  0  0  0  0
  140.2129   68.8732  226.6741 H   0  0  0  0  0  0  0  0  0  0  0  0
  139.8569   69.9322  229.1747 H   0  0  0  0  0  0  0  0  0  0  0  0
  141.4678   69.7902  228.5391 H   0  0  0  0  0  0  0  0  0  0  0  0
  139.5262   72.2176  228.3114 H   0  0  0  0  0  0  0  0  0  0  0  0
  141.1244   72.2850  228.9830 H   0  0  0  0  0  0  0  0  0  0  0  0
  140.8684   72.9326  226.4003 H   0  0  0  0  0  0  0  0  0  0  0  0
  142.1564   71.8048  226.7215 H   0  0  0  0  0  0  0  0  0  0  0  0
  141.4588   72.4040  224.1884 H   0  0  0  0  0  0  0  0  0  0  0  0
  141.7223   73.8084  218.6294 H   0  0  0  0  0  0  0  0  0  0  0  0
  142.4388   75.3879  217.9887 H   0  0  0  0  0  0  0  0  0  0  0  0
  144.3606   74.6299  218.2085 H   0  0  0  0  0  0  0  0  0  0  0  0
  143.4582   72.1471  219.6329 H   0  0  0  0  0  0  0  0  0  0  0  0
  143.5384   72.3685  217.8588 H   0  0  0  0  0  0  0  0  0  0  0  0
  145.6287   71.3468  219.1433 H   0  0  0  0  0  0  0  0  0  0  0  0
  145.8971   72.5815  217.8602 H   0  0  0  0  0  0  0  0  0  0  0  0
  146.3420   74.1730  219.4010 H   0  0  0  0  0  0  0  0  0  0  0  0
  144.6895   72.5406  221.1804 H   0  0  0  0  0  0  0  0  0  0  0  0
  145.7101   73.8614  221.8039 H   0  0  0  0  0  0  0  0  0  0  0  0
  143.2782   74.4439  221.0844 H   0  0  0  0  0  0  0  0  0  0  0  0
  144.5977   75.4967  220.4706 H   0  0  0  0  0  0  0  0  0  0  0  0
  1  2  2  0
  2  3  1  0
  3  4  2  0
  4  5  1  0
  5  6  2  0
  6  7  1  0
  7  8  2  0
  8  9  1  0
  9 10  2  0
 10 11  1  0
 11 12  2  0
 12 13  1  0
 13 14  2  0
 14 15  1  0
 15 16  2  0
 16 17  1  0
 17 18  1  0
 18 19  1  0
 19 20  1  0
 20 21  1  0
 21 22  1  0
 17 23  2  0
 10 24  1  0
 24 25  1  0
 25 26  1  0
 26 27  1  0
 27 28  1  0
 28 29  1  0
 29 30  1  0
 30 31  1  0
 24  2  1  0
 31 26  1  0
  8  3  1  0
 23 13  1  0
 22 18  1  0
  4 32  1  0
  5 33  1  0
  6 34  1  0
  7 35  1  0
 11 36  1  0
 12 37  1  0
 14 38  1  0
 15 39  1  0
 16 40  1  0
 19 41  1  0
 19 42  1  0
 20 43  1  0
 20 44  1  0
 21 45  1  0
 21 46  1  0
 22 47  1  0
 22 48  1  0
 23 49  1  0
 25 50  1  0
 25 51  1  0
 26 52  1  0
 27 53  1  0
 27 54  1  0
 28 55  1  0
 28 56  1  0
 29 57  1  0
 30 58  1  0
 30 59  1  0
 31 60  1  0
 31 61  1  0
M  END
>  <smiles>  (46) 
O=c1c2ccccc2nc(/C=C/c2cccc(N3CCCC3)c2)n1CC1CCNCC1

>  <score_type>  (46) 
oracle

>  <origin>  (46) 
autodockgpu

>  <m_score__min__energy>  (46) 
-9.4900000000000002

>  <m_primary>  (46) 
energy

>  <rmsd>  (46) 
7.742130420298258

>  <m_score__min__rmsd>  (46) 
7.742130420298258

>  <meeko>  (46) 
{"free_energy": -9.08, "intermolecular_energy": -10.87, "internal_energy": -1.5, "cluster_size": 28, "cluster_id": 1, "rank_in_cluster": 17}

>  <energy>  (46) 
-7.65

>  <cluster_rmsd>  (46) 
0.4

>  <cluster>  (46) 
7

$$$$

     RDKit          3D

 61 65  0  0  0  0  0  0  0  0999 V2000
  143.1230   76.4410  220.0240 O   0  0  0  0  0  0  0  0  0  0  0  0
  142.6200   75.3560  220.4340 C   0  0  0  0  0  0  0  0  0  0  0  0
  143.3770   74.2090  220.3230 C   0  0  0  0  0  0  0  0  0  0  0  0
  144.6480   74.2010  219.7870 C   0  0  0  0  0  0  0  0  0  0  0  0
  145.4080   73.0450  219.6770 C   0  0  0  0  0  0  0  0  0  0  0  0
  144.8340   71.8620  220.1360 C   0  0  0  0  0  0  0  0  0  0  0  0
  143.5540   71.8470  220.6790 C   0  0  0  0  0  0  0  0  0  0  0  0
  142.8250   73.0290  220.7720 C   0  0  0  0  0  0  0  0  0  0  0  0
  141.5850   73.0630  221.2890 N   0  0  0  0  0  0  0  0  0  0  0  0
  140.8570   74.1690  221.3950 C   0  0  0  0  0  0  0  0  0  0  0  0
  139.5170   74.1050  221.9650 C   0  0  0  0  0  0  0  0  0  0  0  0
  138.8090   73.0010  221.8270 C   0  0  0  0  0  0  0  0  0  0  0  0
  139.0690   71.7690  222.5610 C   0  0  0  0  0  0  0  0  0  0  0  0
  138.8200   70.5180  222.1010 C   0  0  0  0  0  0  0  0  0  0  0  0
  139.0830   69.3630  222.8290 C   0  0  0  0  0  0  0  0  0  0  0  0
  139.6320   69.4800  224.1080 C   0  0  0  0  0  0  0  0  0  0  0  0
  139.8950   70.7420  224.5990 C   0  0  0  0  0  0  0  0  0  0  0  0
  140.4550   70.8440  225.9010 N   0  0  0  0  0  0  0  0  0  0  0  0
  140.2210   69.8720  226.9540 C   0  0  0  0  0  0  0  0  0  0  0  0
  141.0610   70.3470  228.1170 C   0  0  0  0  0  0  0  0  0  0  0  0
  141.0640   71.8570  227.8770 C   0  0  0  0  0  0  0  0  0  0  0  0
  141.3280   71.9010  226.3850 C   0  0  0  0  0  0  0  0  0  0  0  0
  139.6210   71.8700  223.8430 C   0  0  0  0  0  0  0  0  0  0  0  0
  141.3610   75.3390  220.9700 N   0  0  0  0  0  0  0  0  0  0  0  0
  140.6820   76.5990  221.0400 C   0  0  0  0  0  0  0  0  0  0  0  0
  141.4390   77.7190  221.6560 C   0  0  0  0  0  0  0  0  0  0  0  0
  140.9160   78.2590  222.9400 C   0  0  0  0  0  0  0  0  0  0  0  0
  141.9340   79.2640  223.5000 C   0  0  0  0  0  0  0  0  0  0  0  0
  142.5430   80.0130  222.4150 N   0  0  0  0  0  0  0  0  0  0  0  0
  141.5330   80.1800  221.3800 C   0  0  0  0  0  0  0  0  0  0  0  0
  141.4120   78.8670  220.6490 C   0  0  0  0  0  0  0  0  0  0  0  0
  145.0768   75.1498  219.4322 H   0  0  0  0  0  0  0  0  0  0  0  0
  146.4199   73.0624  219.2460 H   0  0  0  0  0  0  0  0  0  0  0  0
  145.4031   70.9232  220.0678 H   0  0  0  0  0  0  0  0  0  0  0  0
  143.1180   70.9018  221.0347 H   0  0  0  0  0  0  0  0  0  0  0  0
  139.1007   74.9685  222.5046 H   0  0  0  0  0  0  0  0  0  0  0  0
  137.9711   73.0105  221.1144 H   0  0  0  0  0  0  0  0  0  0  0  0
  138.3858   70.4110  221.0960 H   0  0  0  0  0  0  0  0  0  0  0  0
  138.8621   68.3726  222.4043 H   0  0  0  0  0  0  0  0  0  0  0  0
  139.8498   68.5857  224.7103 H   0  0  0  0  0  0  0  0  0  0  0  0
  139.1563   69.8492  227.2297 H   0  0  0  0  0  0  0  0  0  0  0  0
  140.4869   68.8514  226.6413 H   0  0  0  0  0  0  0  0  0  0  0  0
  140.5970   70.0921  229.0812 H   0  0  0  0  0  0  0  0  0  0  0  0
  142.0621   69.8940  228.1683 H   0  0  0  0  0  0  0  0  0  0  0  0
  140.0944   72.3102  228.1311 H   0  0  0  0  0  0  0  0  0  0  0  0
  141.7892   72.4159  228.4868 H   0  0  0  0  0  0  0  0  0  0  0  0
  141.0523   72.8763  225.9574 H   0  0  0  0  0  0  0  0  0  0  0  0
  142.3856   71.7663  226.1141 H   0  0  0  0  0  0  0  0  0  0  0  0
  139.8416   72.8644  224.2584 H   0  0  0  0  0  0  0  0  0  0  0  0
  140.4191   76.8959  220.0140 H   0  0  0  0  0  0  0  0  0  0  0  0
  139.8172   76.4310  221.6987 H   0  0  0  0  0  0  0  0  0  0  0  0
  142.4324   77.3113  221.8946 H   0  0  0  0  0  0  0  0  0  0  0  0
  139.9544   78.7639  222.7654 H   0  0  0  0  0  0  0  0  0  0  0  0
  140.7631   77.4396  223.6578 H   0  0  0  0  0  0  0  0  0  0  0  0
  141.4217   79.9602  224.1803 H   0  0  0  0  0  0  0  0  0  0  0  0
  142.7177   78.7175  224.0451 H   0  0  0  0  0  0  0  0  0  0  0  0
  143.3270   79.4890  222.0090 H   0  0  0  0  0  0  0  0  0  0  0  0
  140.5681   80.4462  221.8363 H   0  0  0  0  0  0  0  0  0  0  0  0
  141.8183   80.9847  220.6865 H   0  0  0  0  0  0  0  0  0  0  0  0
  140.4639   78.8436  220.0917 H   0  0  0  0  0  0  0  0  0  0  0  0
  142.2525   78.7592  219.9476 H   0  0  0  0  0  0  0  0  0  0  0  0
  1  2  2  0
  2  3  1  0
  3  4  2  0
  4  5  1  0
  5  6  2  0
  6  7  1  0
  7  8  2  0
  8  9  1  0
  9 10  2  0
 10 11  1  0
 11 12  2  0
 12 13  1  0
 13 14  2  0
 14 15  1  0
 15 16  2  0
 16 17  1  0
 17 18  1  0
 18 19  1  0
 19 20  1  0
 20 21  1  0
 21 22  1  0
 17 23  2  0
 10 24  1  0
 24 25  1  0
 25 26  1  0
 26 27  1  0
 27 28  1  0
 28 29  1  0
 29 30  1  0
 30 31  1  0
 24  2  1  0
 31 26  1  0
  8  3  1  0
 23 13  1  0
 22 18  1  0
  4 32  1  0
  5 33  1  0
  6 34  1  0
  7 35  1  0
 11 36  1  0
 12 37  1  0
 14 38  1  0
 15 39  1  0
 16 40  1  0
 19 41  1  0
 19 42  1  0
 20 43  1  0
 20 44  1  0
 21 45  1  0
 21 46  1  0
 22 47  1  0
 22 48  1  0
 23 49  1  0
 25 50  1  0
 25 51  1  0
 26 52  1  0
 27 53  1  0
 27 54  1  0
 28 55  1  0
 28 56  1  0
 29 57  1  0
 30 58  1  0
 30 59  1  0
 31 60  1  0
 31 61  1  0
M  END
>  <smiles>  (47) 
O=c1c2ccccc2nc(/C=C/c2cccc(N3CCCC3)c2)n1CC1CCNCC1

>  <score_type>  (47) 
oracle

>  <origin>  (47) 
autodockgpu

>  <m_score__min__energy>  (47) 
-9.4900000000000002

>  <m_primary>  (47) 
energy

>  <rmsd>  (47) 
4.601488752737543

>  <m_score__min__rmsd>  (47) 
4.601488752737543

>  <meeko>  (47) 
{"free_energy": -8.87, "intermolecular_energy": -10.66, "internal_energy": -1.46, "cluster_size": 5, "cluster_id": 2, "rank_in_cluster": 1}

>  <energy>  (47) 
-7.64

>  <cluster_rmsd>  (47) 
0.67

>  <cluster>  (47) 
7

$$$$

     RDKit          3D

 61 65  0  0  0  0  0  0  0  0999 V2000
  142.4930   76.7730  218.6010 O   0  0  0  0  0  0  0  0  0  0  0  0
  142.0340   76.3860  219.7140 C   0  0  0  0  0  0  0  0  0  0  0  0
  141.6240   77.3470  220.6140 C   0  0  0  0  0  0  0  0  0  0  0  0
  141.6960   78.6990  220.3490 C   0  0  0  0  0  0  0  0  0  0  0  0
  141.2810   79.6640  221.2560 C   0  0  0  0  0  0  0  0  0  0  0  0
  140.7790   79.2150  222.4750 C   0  0  0  0  0  0  0  0  0  0  0  0
  140.6980   77.8570  222.7630 C   0  0  0  0  0  0  0  0  0  0  0  0
  141.1230   76.9210  221.8260 C   0  0  0  0  0  0  0  0  0  0  0  0
  141.0650   75.5990  222.0600 N   0  0  0  0  0  0  0  0  0  0  0  0
  141.4600   74.6750  221.1920 C   0  0  0  0  0  0  0  0  0  0  0  0
  141.3650   73.2630  221.5400 C   0  0  0  0  0  0  0  0  0  0  0  0
  140.2180   72.6340  221.3740 C   0  0  0  0  0  0  0  0  0  0  0  0
  139.5430   71.8810  222.4240 C   0  0  0  0  0  0  0  0  0  0  0  0
  138.3320   71.2840  222.3020 C   0  0  0  0  0  0  0  0  0  0  0  0
  137.7170   70.5710  223.3260 C   0  0  0  0  0  0  0  0  0  0  0  0
  138.3690   70.4570  224.5560 C   0  0  0  0  0  0  0  0  0  0  0  0
  139.6020   71.0560  224.7060 C   0  0  0  0  0  0  0  0  0  0  0  0
  140.2520   70.9290  225.9630 N   0  0  0  0  0  0  0  0  0  0  0  0
  140.0660   69.7970  226.8530 C   0  0  0  0  0  0  0  0  0  0  0  0
  140.9950   70.0570  228.0160 C   0  0  0  0  0  0  0  0  0  0  0  0
  141.0210   71.5870  228.0320 C   0  0  0  0  0  0  0  0  0  0  0  0
  141.1830   71.8770  226.5520 C   0  0  0  0  0  0  0  0  0  0  0  0
  140.1840   71.7560  223.6620 C   0  0  0  0  0  0  0  0  0  0  0  0
  141.9530   75.0510  220.0000 N   0  0  0  0  0  0  0  0  0  0  0  0
  142.4010   74.1530  218.9770 C   0  0  0  0  0  0  0  0  0  0  0  0
  143.8120   73.6970  219.0740 C   0  0  0  0  0  0  0  0  0  0  0  0
  144.0330   72.2640  219.4090 C   0  0  0  0  0  0  0  0  0  0  0  0
  145.5320   71.9560  219.2710 C   0  0  0  0  0  0  0  0  0  0  0  0
  146.3180   73.0930  219.7150 N   0  0  0  0  0  0  0  0  0  0  0  0
  145.5880   73.7310  220.8020 C   0  0  0  0  0  0  0  0  0  0  0  0
  144.4580   74.5180  220.1880 C   0  0  0  0  0  0  0  0  0  0  0  0
  142.0989   79.0256  219.3789 H   0  0  0  0  0  0  0  0  0  0  0  0
  141.3458   80.7369  221.0222 H   0  0  0  0  0  0  0  0  0  0  0  0
  140.4407   79.9472  223.2229 H   0  0  0  0  0  0  0  0  0  0  0  0
  140.2979   77.5230  223.7317 H   0  0  0  0  0  0  0  0  0  0  0  0
  142.2404   72.7279  221.9367 H   0  0  0  0  0  0  0  0  0  0  0  0
  139.7418   72.6803  220.3835 H   0  0  0  0  0  0  0  0  0  0  0  0
  137.8063   71.3681  221.3394 H   0  0  0  0  0  0  0  0  0  0  0  0
  136.7331   70.1045  223.1696 H   0  0  0  0  0  0  0  0  0  0  0  0
  137.9091   69.9017  225.3867 H   0  0  0  0  0  0  0  0  0  0  0  0
  139.0224   69.7426  227.1965 H   0  0  0  0  0  0  0  0  0  0  0  0
  140.2842   68.8403  226.3558 H   0  0  0  0  0  0  0  0  0  0  0  0
  140.5910   69.6499  228.9547 H   0  0  0  0  0  0  0  0  0  0  0  0
  141.9851   69.5875  227.9195 H   0  0  0  0  0  0  0  0  0  0  0  0
  140.0834   72.0048  228.4273 H   0  0  0  0  0  0  0  0  0  0  0  0
  141.8004   72.0252  228.6727 H   0  0  0  0  0  0  0  0  0  0  0  0
  140.9040   72.9140  226.3136 H   0  0  0  0  0  0  0  0  0  0  0  0
  142.2156   71.7746  226.1871 H   0  0  0  0  0  0  0  0  0  0  0  0
  141.1692   72.2228  223.8087 H   0  0  0  0  0  0  0  0  0  0  0  0
  141.7576   73.2614  219.0082 H   0  0  0  0  0  0  0  0  0  0  0  0
  142.3406   74.7235  218.0384 H   0  0  0  0  0  0  0  0  0  0  0  0
  144.2391   73.8309  218.0692 H   0  0  0  0  0  0  0  0  0  0  0  0
  143.7080   72.0701  220.4419 H   0  0  0  0  0  0  0  0  0  0  0  0
  143.4528   71.6242  218.7279 H   0  0  0  0  0  0  0  0  0  0  0  0
  145.7813   71.0789  219.8862 H   0  0  0  0  0  0  0  0  0  0  0  0
  145.7615   71.7501  218.2151 H   0  0  0  0  0  0  0  0  0  0  0  0
  146.4190   73.7800  218.9580 H   0  0  0  0  0  0  0  0  0  0  0  0
  145.1865   72.9671  221.4841 H   0  0  0  0  0  0  0  0  0  0  0  0
  146.2516   74.3916  221.3792 H   0  0  0  0  0  0  0  0  0  0  0  0
  143.7071   74.7441  220.9594 H   0  0  0  0  0  0  0  0  0  0  0  0
  144.8498   75.4575  219.7710 H   0  0  0  0  0  0  0  0  0  0  0  0
  1  2  2  0
  2  3  1  0
  3  4  2  0
  4  5  1  0
  5  6  2  0
  6  7  1  0
  7  8  2  0
  8  9  1  0
  9 10  2  0
 10 11  1  0
 11 12  2  0
 12 13  1  0
 13 14  2  0
 14 15  1  0
 15 16  2  0
 16 17  1  0
 17 18  1  0
 18 19  1  0
 19 20  1  0
 20 21  1  0
 21 22  1  0
 17 23  2  0
 10 24  1  0
 24 25  1  0
 25 26  1  0
 26 27  1  0
 27 28  1  0
 28 29  1  0
 29 30  1  0
 30 31  1  0
 24  2  1  0
 31 26  1  0
  8  3  1  0
 23 13  1  0
 22 18  1  0
  4 32  1  0
  5 33  1  0
  6 34  1  0
  7 35  1  0
 11 36  1  0
 12 37  1  0
 14 38  1  0
 15 39  1  0
 16 40  1  0
 19 41  1  0
 19 42  1  0
 20 43  1  0
 20 44  1  0
 21 45  1  0
 21 46  1  0
 22 47  1  0
 22 48  1  0
 23 49  1  0
 25 50  1  0
 25 51  1  0
 26 52  1  0
 27 53  1  0
 27 54  1  0
 28 55  1  0
 28 56  1  0
 29 57  1  0
 30 58  1  0
 30 59  1  0
 31 60  1  0
 31 61  1  0
M  END
>  <smiles>  (48) 
O=c1c2ccccc2nc(/C=C/c2cccc(N3CCCC3)c2)n1CC1CCNCC1

>  <score_type>  (48) 
oracle

>  <origin>  (48) 
autodockgpu

>  <m_score__min__energy>  (48) 
-9.4900000000000002

>  <m_primary>  (48) 
energy

>  <rmsd>  (48) 
7.689384758408483

>  <m_score__min__rmsd>  (48) 
7.689384758408483

>  <meeko>  (48) 
{"free_energy": -9.33, "intermolecular_energy": -11.12, "internal_energy": -1.48, "cluster_size": 28, "cluster_id": 1, "rank_in_cluster": 5}

>  <energy>  (48) 
-7.55

>  <cluster_rmsd>  (48) 
0.73

>  <cluster>  (48) 
7

$$$$

     RDKit          3D

 61 65  0  0  0  0  0  0  0  0999 V2000
  137.2140   77.9370  222.5490 O   0  0  0  0  0  0  0  0  0  0  0  0
  138.3800   77.4710  222.3880 C   0  0  0  0  0  0  0  0  0  0  0  0
  139.4450   78.2360  222.8130 C   0  0  0  0  0  0  0  0  0  0  0  0
  139.2900   79.4750  223.3990 C   0  0  0  0  0  0  0  0  0  0  0  0
  140.3650   80.2420  223.8260 C   0  0  0  0  0  0  0  0  0  0  0  0
  141.6390   79.7100  223.6390 C   0  0  0  0  0  0  0  0  0  0  0  0
  141.8180   78.4630  223.0500 C   0  0  0  0  0  0  0  0  0  0  0  0
  140.7140   77.7250  222.6360 C   0  0  0  0  0  0  0  0  0  0  0  0
  140.8380   76.5160  222.0610 N   0  0  0  0  0  0  0  0  0  0  0  0
  139.8090   75.7820  221.6530 C   0  0  0  0  0  0  0  0  0  0  0  0
  140.0450   74.4840  221.0330 C   0  0  0  0  0  0  0  0  0  0  0  0
  140.6830   73.5510  221.7120 C   0  0  0  0  0  0  0  0  0  0  0  0
  140.0200   72.4940  222.4660 C   0  0  0  0  0  0  0  0  0  0  0  0
  139.0150   71.7140  221.9990 C   0  0  0  0  0  0  0  0  0  0  0  0
  138.4050   70.7130  222.7480 C   0  0  0  0  0  0  0  0  0  0  0  0
  138.8400   70.4860  224.0550 C   0  0  0  0  0  0  0  0  0  0  0  0
  139.8620   71.2670  224.5540 C   0  0  0  0  0  0  0  0  0  0  0  0
  140.2940   71.0230  225.8850 N   0  0  0  0  0  0  0  0  0  0  0  0
  139.9450   69.8300  226.6370 C   0  0  0  0  0  0  0  0  0  0  0  0
  140.6740   69.9720  227.9540 C   0  0  0  0  0  0  0  0  0  0  0  0
  140.7210   71.4940  228.0990 C   0  0  0  0  0  0  0  0  0  0  0  0
  141.1300   71.8950  226.6950 C   0  0  0  0  0  0  0  0  0  0  0  0
  140.4460   72.2540  223.7770 C   0  0  0  0  0  0  0  0  0  0  0  0
  138.5590   76.2450  221.8080 N   0  0  0  0  0  0  0  0  0  0  0  0
  137.3700   75.5450  221.4210 C   0  0  0  0  0  0  0  0  0  0  0  0
  136.8620   74.5310  222.3820 C   0  0  0  0  0  0  0  0  0  0  0  0
  135.8670   73.5540  221.8630 C   0  0  0  0  0  0  0  0  0  0  0  0
  135.6200   72.4880  222.9430 C   0  0  0  0  0  0  0  0  0  0  0  0
  135.6490   73.0980  224.2600 N   0  0  0  0  0  0  0  0  0  0  0  0
  135.1080   74.4440  224.1300 C   0  0  0  0  0  0  0  0  0  0  0  0
  136.1800   75.3040  223.5080 C   0  0  0  0  0  0  0  0  0  0  0  0
  138.2727   79.8714  223.5334 H   0  0  0  0  0  0  0  0  0  0  0  0
  140.2175   81.2274  224.2920 H   0  0  0  0  0  0  0  0  0  0  0  0
  142.5183   80.2862  223.9628 H   0  0  0  0  0  0  0  0  0  0  0  0
  142.8323   78.0604  222.9116 H   0  0  0  0  0  0  0  0  0  0  0  0
  139.6945   74.2850  220.0095 H   0  0  0  0  0  0  0  0  0  0  0  0
  141.7828   73.5714  221.7094 H   0  0  0  0  0  0  0  0  0  0  0  0
  138.6621   71.8817  220.9707 H   0  0  0  0  0  0  0  0  0  0  0  0
  137.5924   70.1096  222.3171 H   0  0  0  0  0  0  0  0  0  0  0  0
  138.3782   69.7020  224.6731 H   0  0  0  0  0  0  0  0  0  0  0  0
  138.8583   69.7795  226.7998 H   0  0  0  0  0  0  0  0  0  0  0  0
  140.2264   68.9089  226.1056 H   0  0  0  0  0  0  0  0  0  0  0  0
  140.1145   69.5048  228.7778 H   0  0  0  0  0  0  0  0  0  0  0  0
  141.6590   69.4832  227.9820 H   0  0  0  0  0  0  0  0  0  0  0  0
  139.7375   71.9065  228.3685 H   0  0  0  0  0  0  0  0  0  0  0  0
  141.3908   71.8576  228.8922 H   0  0  0  0  0  0  0  0  0  0  0  0
  140.9104   72.9552  226.5006 H   0  0  0  0  0  0  0  0  0  0  0  0
  142.2071   71.7920  226.4967 H   0  0  0  0  0  0  0  0  0  0  0  0
  141.2606   72.8610  224.1989 H   0  0  0  0  0  0  0  0  0  0  0  0
  136.5759   76.2910  221.2695 H   0  0  0  0  0  0  0  0  0  0  0  0
  137.6418   74.9820  220.5160 H   0  0  0  0  0  0  0  0  0  0  0  0
  137.7362   73.9301  222.6732 H   0  0  0  0  0  0  0  0  0  0  0  0
  134.9248   74.0720  221.6307 H   0  0  0  0  0  0  0  0  0  0  0  0
  136.2474   73.0801  220.9461 H   0  0  0  0  0  0  0  0  0  0  0  0
  134.6364   72.0240  222.7783 H   0  0  0  0  0  0  0  0  0  0  0  0
  136.4086   71.7236  222.8822 H   0  0  0  0  0  0  0  0  0  0  0  0
  136.6140   73.1770  224.6010 H   0  0  0  0  0  0  0  0  0  0  0  0
  134.2165   74.4301  223.4858 H   0  0  0  0  0  0  0  0  0  0  0  0
  134.8142   74.8407  225.1130 H   0  0  0  0  0  0  0  0  0  0  0  0
  135.7257   76.2196  223.1015 H   0  0  0  0  0  0  0  0  0  0  0  0
  136.9244   75.5724  224.2721 H   0  0  0  0  0  0  0  0  0  0  0  0
  1  2  2  0
  2  3  1  0
  3  4  2  0
  4  5  1  0
  5  6  2  0
  6  7  1  0
  7  8  2  0
  8  9  1  0
  9 10  2  0
 10 11  1  0
 11 12  2  0
 12 13  1  0
 13 14  2  0
 14 15  1  0
 15 16  2  0
 16 17  1  0
 17 18  1  0
 18 19  1  0
 19 20  1  0
 20 21  1  0
 21 22  1  0
 17 23  2  0
 10 24  1  0
 24 25  1  0
 25 26  1  0
 26 27  1  0
 27 28  1  0
 28 29  1  0
 29 30  1  0
 30 31  1  0
 24  2  1  0
 31 26  1  0
  8  3  1  0
 23 13  1  0
 22 18  1  0
  4 32  1  0
  5 33  1  0
  6 34  1  0
  7 35  1  0
 11 36  1  0
 12 37  1  0
 14 38  1  0
 15 39  1  0
 16 40  1  0
 19 41  1  0
 19 42  1  0
 20 43  1  0
 20 44  1  0
 21 45  1  0
 21 46  1  0
 22 47  1  0
 22 48  1  0
 23 49  1  0
 25 50  1  0
 25 51  1  0
 26 52  1  0
 27 53  1  0
 27 54  1  0
 28 55  1  0
 28 56  1  0
 29 57  1  0
 30 58  1  0
 30 59  1  0
 31 60  1  0
 31 61  1  0
M  END
>  <smiles>  (49) 
O=c1c2ccccc2nc(/C=C/c2cccc(N3CCCC3)c2)n1CC1CCNCC1

>  <score_type>  (49) 
oracle

>  <origin>  (49) 
autodockgpu

>  <m_score__min__energy>  (49) 
-9.4900000000000002

>  <m_primary>  (49) 
energy

>  <rmsd>  (49) 
7.585420598039441

>  <m_score__min__rmsd>  (49) 
7.585420598039441

>  <meeko>  (49) 
{"free_energy": -8.27, "intermolecular_energy": -10.06, "internal_energy": -2.15, "cluster_size": 6, "cluster_id": 5, "rank_in_cluster": 3}

>  <energy>  (49) 
-7.05

>  <cluster_rmsd>  (49) 
0.76

>  <cluster>  (49) 
7

$$$$

     RDKit          3D

 61 65  0  0  0  0  0  0  0  0999 V2000
  137.2160   77.9180  222.5410 O   0  0  0  0  0  0  0  0  0  0  0  0
  138.3900   77.4740  222.3830 C   0  0  0  0  0  0  0  0  0  0  0  0
  139.4400   78.2580  222.8110 C   0  0  0  0  0  0  0  0  0  0  0  0
  139.2610   79.4940  223.3970 C   0  0  0  0  0  0  0  0  0  0  0  0
  140.3210   80.2800  223.8270 C   0  0  0  0  0  0  0  0  0  0  0  0
  141.6050   79.7720  223.6430 C   0  0  0  0  0  0  0  0  0  0  0  0
  141.8080   78.5290  223.0540 C   0  0  0  0  0  0  0  0  0  0  0  0
  140.7180   77.7700  222.6370 C   0  0  0  0  0  0  0  0  0  0  0  0
  140.8660   76.5650  222.0620 N   0  0  0  0  0  0  0  0  0  0  0  0
  139.8520   75.8120  221.6510 C   0  0  0  0  0  0  0  0  0  0  0  0
  140.1140   74.5180  221.0310 C   0  0  0  0  0  0  0  0  0  0  0  0
  140.7440   73.5880  221.7200 C   0  0  0  0  0  0  0  0  0  0  0  0
  140.0760   72.4920  222.4120 C   0  0  0  0  0  0  0  0  0  0  0  0
  139.1410   71.6770  221.8640 C   0  0  0  0  0  0  0  0  0  0  0  0
  138.5240   70.6400  222.5540 C   0  0  0  0  0  0  0  0  0  0  0  0
  138.8740   70.4110  223.8870 C   0  0  0  0  0  0  0  0  0  0  0  0
  139.8230   71.2270  224.4670 C   0  0  0  0  0  0  0  0  0  0  0  0
  140.1680   70.9810  225.8230 N   0  0  0  0  0  0  0  0  0  0  0  0
  141.0240   71.8540  226.6060 C   0  0  0  0  0  0  0  0  0  0  0  0
  141.0520   71.2400  227.9860 C   0  0  0  0  0  0  0  0  0  0  0  0
  140.8580   69.7600  227.6510 C   0  0  0  0  0  0  0  0  0  0  0  0
  139.7390   69.8510  226.6320 C   0  0  0  0  0  0  0  0  0  0  0  0
  140.4170   72.2500  223.7470 C   0  0  0  0  0  0  0  0  0  0  0  0
  138.5930   76.2510  221.8040 N   0  0  0  0  0  0  0  0  0  0  0  0
  137.4180   75.5300  221.4130 C   0  0  0  0  0  0  0  0  0  0  0  0
  136.9300   74.5020  222.3700 C   0  0  0  0  0  0  0  0  0  0  0  0
  135.9940   73.4770  221.8340 C   0  0  0  0  0  0  0  0  0  0  0  0
  135.7660   72.4110  222.9180 C   0  0  0  0  0  0  0  0  0  0  0  0
  135.7320   73.0330  224.2290 N   0  0  0  0  0  0  0  0  0  0  0  0
  135.1350   74.3520  224.0720 C   0  0  0  0  0  0  0  0  0  0  0  0
  136.1840   75.2530  223.4700 C   0  0  0  0  0  0  0  0  0  0  0  0
  138.2364   79.8720  223.5288 H   0  0  0  0  0  0  0  0  0  0  0  0
  140.1543   81.2623  224.2932 H   0  0  0  0  0  0  0  0  0  0  0  0
  142.4728   80.3641  223.9691 H   0  0  0  0  0  0  0  0  0  0  0  0
  142.8298   78.1453  222.9175 H   0  0  0  0  0  0  0  0  0  0  0  0
  139.7890   74.3204  219.9988 H   0  0  0  0  0  0  0  0  0  0  0  0
  141.8412   73.6418  221.7766 H   0  0  0  0  0  0  0  0  0  0  0  0
  138.8550   71.8459  220.8153 H   0  0  0  0  0  0  0  0  0  0  0  0
  137.7716   70.0092  222.0580 H   0  0  0  0  0  0  0  0  0  0  0  0
  138.4037   69.5988  224.4607 H   0  0  0  0  0  0  0  0  0  0  0  0
  142.0366   71.8882  226.1776 H   0  0  0  0  0  0  0  0  0  0  0  0
  140.6534   72.8896  226.6222 H   0  0  0  0  0  0  0  0  0  0  0  0
  142.0146   71.4178  228.4878 H   0  0  0  0  0  0  0  0  0  0  0  0
  140.3033   71.6498  228.6799 H   0  0  0  0  0  0  0  0  0  0  0  0
  141.7676   69.3194  227.2168 H   0  0  0  0  0  0  0  0  0  0  0  0
  140.6376   69.1192  228.5175 H   0  0  0  0  0  0  0  0  0  0  0  0
  139.6678   68.9321  226.0316 H   0  0  0  0  0  0  0  0  0  0  0  0
  138.7399   69.9732  227.0757 H   0  0  0  0  0  0  0  0  0  0  0  0
  141.1717   72.8847  224.2343 H   0  0  0  0  0  0  0  0  0  0  0  0
  136.6095   76.2610  221.2645 H   0  0  0  0  0  0  0  0  0  0  0  0
  137.7005   74.9767  220.5052 H   0  0  0  0  0  0  0  0  0  0  0  0
  137.8219   73.9434  222.6900 H   0  0  0  0  0  0  0  0  0  0  0  0
  135.0363   73.9501  221.5714 H   0  0  0  0  0  0  0  0  0  0  0  0
  136.4194   73.0127  220.9321 H   0  0  0  0  0  0  0  0  0  0  0  0
  134.8090   71.9016  222.7319 H   0  0  0  0  0  0  0  0  0  0  0  0
  136.5897   71.6827  222.8860 H   0  0  0  0  0  0  0  0  0  0  0  0
  136.6830   73.1580  224.5950 H   0  0  0  0  0  0  0  0  0  0  0  0
  134.2624   74.2928  223.4049 H   0  0  0  0  0  0  0  0  0  0  0  0
  134.7974   74.7436  225.0429 H   0  0  0  0  0  0  0  0  0  0  0  0
  135.7006   76.1439  223.0427 H   0  0  0  0  0  0  0  0  0  0  0  0
  136.8951   75.5604  224.2510 H   0  0  0  0  0  0  0  0  0  0  0  0
  1  2  2  0
  2  3  1  0
  3  4  2  0
  4  5  1  0
  5  6  2  0
  6  7  1  0
  7  8  2  0
  8  9  1  0
  9 10  2  0
 10 11  1  0
 11 12  2  0
 12 13  1  0
 13 14  2  0
 14 15  1  0
 15 16  2  0
 16 17  1  0
 17 18  1  0
 18 19  1  0
 19 20  1  0
 20 21  1  0
 21 22  1  0
 17 23  2  0
 10 24  1  0
 24 25  1  0
 25 26  1  0
 26 27  1  0
 27 28  1  0
 28 29  1  0
 29 30  1  0
 30 31  1  0
 24  2  1  0
 31 26  1  0
  8  3  1  0
 23 13  1  0
 22 18  1  0
  4 32  1  0
  5 33  1  0
  6 34  1  0
  7 35  1  0
 11 36  1  0
 12 37  1  0
 14 38  1  0
 15 39  1  0
 16 40  1  0
 19 41  1  0
 19 42  1  0
 20 43  1  0
 20 44  1  0
 21 45  1  0
 21 46  1  0
 22 47  1  0
 22 48  1  0
 23 49  1  0
 25 50  1  0
 25 51  1  0
 26 52  1  0
 27 53  1  0
 27 54  1  0
 28 55  1  0
 28 56  1  0
 29 57  1  0
 30 58  1  0
 30 59  1  0
 31 60  1  0
 31 61  1  0
M  END
>  <smiles>  (50) 
O=c1c2ccccc2nc(/C=C/c2cccc(N3CCCC3)c2)n1CC1CCNCC1

>  <score_type>  (50) 
oracle

>  <origin>  (50) 
autodockgpu

>  <m_score__min__energy>  (50) 
-9.4900000000000002

>  <m_primary>  (50) 
energy

>  <rmsd>  (50) 
7.607758739992392

>  <m_score__min__rmsd>  (50) 
7.607758739992392

>  <meeko>  (50) 
{"free_energy": -8.15, "intermolecular_energy": -9.94, "internal_energy": -2.17, "cluster_size": 6, "cluster_id": 5, "rank_in_cluster": 5}

>  <energy>  (50) 
-7.92

>  <cluster_rmsd>  (50) 
0.0

>  <cluster>  (50) 
8

$$$$
