
     RDKit          3D

 51 53  0  0  0  0  0  0  0  0999 V2000
  141.4550   73.4210  219.2420 C   0  0  0  0  0  0  0  0  0  0  0  0
  141.9390   74.1620  220.3980 N   0  0  0  0  0  0  0  0  0  0  0  0
  143.3250   74.6120  220.4730 C   0  0  0  0  0  0  0  0  0  0  0  0
  143.6770   75.5890  219.3970 C   0  0  0  0  0  0  0  0  0  0  0  0
  142.9410   76.8180  219.6230 N   0  0  0  0  0  0  0  0  0  0  0  0
  141.7340   77.1430  218.9550 C   0  0  0  0  0  0  0  0  0  0  0  0
  141.2140   76.3840  218.1120 O   0  0  0  0  0  0  0  0  0  0  0  0
  141.0670   78.4150  219.2580 C   0  0  0  0  0  0  0  0  0  0  0  0
  139.7300   78.5960  219.0110 C   0  0  0  0  0  0  0  0  0  0  0  0
  139.0480   79.7650  219.2740 C   0  0  0  0  0  0  0  0  0  0  0  0
  139.7700   80.8050  219.8180 C   0  0  0  0  0  0  0  0  0  0  0  0
  139.1040   81.9780  220.0870 C   0  0  0  0  0  0  0  0  0  0  0  0
  139.8140   83.0290  220.6340 C   0  0  0  0  0  0  0  0  0  0  0  0
  138.9650   84.5030  220.9680 Cl  0  0  0  0  0  0  0  0  0  0  0  0
  141.1750   82.8600  220.8910 C   0  0  0  0  0  0  0  0  0  0  0  0
  141.8090   81.6650  220.6070 C   0  0  0  0  0  0  0  0  0  0  0  0
  141.1160   80.6180  220.0660 C   0  0  0  0  0  0  0  0  0  0  0  0
  141.7470   79.4630  219.7960 N   0  0  0  0  0  0  0  0  0  0  0  0
  140.9940   74.4170  221.4300 C   0  0  0  0  0  0  0  0  0  0  0  0
  140.9070   73.5520  222.3410 O   0  0  0  0  0  0  0  0  0  0  0  0
  140.1340   75.6280  221.4680 C   0  0  0  0  0  0  0  0  0  0  0  0
  140.9360   76.7430  221.9390 N   0  0  0  0  0  0  0  0  0  0  0  0
  140.3690   77.9230  222.4530 C   0  0  0  0  0  0  0  0  0  0  0  0
  139.1150   78.0190  222.5090 O   0  0  0  0  0  0  0  0  0  0  0  0
  141.1400   79.0630  222.9350 C   0  0  0  0  0  0  0  0  0  0  0  0
  140.4520   80.1490  223.4350 C   0  0  0  0  0  0  0  0  0  0  0  0
  141.1560   81.2600  223.9060 C   0  0  0  0  0  0  0  0  0  0  0  0
  142.5330   81.2790  223.8760 C   0  0  0  0  0  0  0  0  0  0  0  0
  143.2340   80.1970  223.3770 C   0  0  0  0  0  0  0  0  0  0  0  0
  142.5190   79.1060  222.9140 C   0  0  0  0  0  0  0  0  0  0  0  0
  140.8828   72.5450  219.5813 H   0  0  0  0  0  0  0  0  0  0  0  0
  140.8063   74.0702  218.6356 H   0  0  0  0  0  0  0  0  0  0  0  0
  142.3102   73.0879  218.6356 H   0  0  0  0  0  0  0  0  0  0  0  0
  143.4862   75.0918  221.4496 H   0  0  0  0  0  0  0  0  0  0  0  0
  143.9672   73.7287  220.3408 H   0  0  0  0  0  0  0  0  0  0  0  0
  144.7573   75.7948  219.4234 H   0  0  0  0  0  0  0  0  0  0  0  0
  143.4154   75.1721  218.4133 H   0  0  0  0  0  0  0  0  0  0  0  0
  143.3150   77.5190  220.3230 H   0  0  0  0  0  0  0  0  0  0  0  0
  139.1672   77.7568  218.5763 H   0  0  0  0  0  0  0  0  0  0  0  0
  137.9737   79.8633  219.0588 H   0  0  0  0  0  0  0  0  0  0  0  0
  138.0299   82.0769  219.8713 H   0  0  0  0  0  0  0  0  0  0  0  0
  141.7517   83.6897  221.3259 H   0  0  0  0  0  0  0  0  0  0  0  0
  142.8829   81.5552  220.8186 H   0  0  0  0  0  0  0  0  0  0  0  0
  139.7520   75.8446  220.4594 H   0  0  0  0  0  0  0  0  0  0  0  0
  139.2798   75.4648  222.1415 H   0  0  0  0  0  0  0  0  0  0  0  0
  141.9780   76.6800  221.9000 H   0  0  0  0  0  0  0  0  0  0  0  0
  139.3524   80.1403  223.4628 H   0  0  0  0  0  0  0  0  0  0  0  0
  140.6066   82.1260  224.3038 H   0  0  0  0  0  0  0  0  0  0  0  0
  143.0770   82.1586  224.2506 H   0  0  0  0  0  0  0  0  0  0  0  0
  144.3336   80.2029  223.3486 H   0  0  0  0  0  0  0  0  0  0  0  0
  143.0702   78.2418  222.5148 H   0  0  0  0  0  0  0  0  0  0  0  0
  1  2  1  0
  2  3  1  0
  3  4  1  0
  4  5  1  0
  5  6  1  0
  6  7  2  0
  6  8  1  0
  8  9  2  0
  9 10  1  0
 10 11  2  0
 11 12  1  0
 12 13  2  0
 13 14  1  0
 13 15  1  0
 15 16  2  0
 16 17  1  0
 17 18  2  0
  2 19  1  0
 19 20  2  0
 19 21  1  0
 21 22  1  0
 22 23  1  0
 23 24  2  0
 23 25  1  0
 25 26  2  0
 26 27  1  0
 27 28  2  0
 28 29  1  0
 29 30  2  0
 18  8  1  0
 30 25  1  0
 17 11  1  0
  1 31  1  0
  1 32  1  0
  1 33  1  0
  3 34  1  0
  3 35  1  0
  4 36  1  0
  4 37  1  0
  5 38  1  0
  9 39  1  0
 10 40  1  0
 12 41  1  0
 15 42  1  0
 16 43  1  0
 21 44  1  0
 21 45  1  0
 22 46  1  0
 26 47  1  0
 27 48  1  0
 28 49  1  0
 29 50  1  0
 30 51  1  0
M  END
>  <smiles>  (1) 
CN(CCNC(=O)c1ccc2cc(Cl)ccc2n1)C(=O)CNC(=O)c1ccccc1

>  <score_type>  (1) 
oracle

>  <origin>  (1) 
autodockgpu

>  <m_score__min__energy>  (1) 
-8.6300000000000008

>  <m_primary>  (1) 
energy

>  <rmsd>  (1) 
6.722667608927093

>  <m_score__min__rmsd>  (1) 
6.722667608927093

>  <meeko>  (1) 
{"free_energy": -6.43, "intermolecular_energy": -8.81, "internal_energy": -3.58, "cluster_size": 4, "cluster_id": 7, "rank_in_cluster": 3}

>  <energy>  (1) 
-8.63

>  <cluster_rmsd>  (1) 
0.0

>  <cluster>  (1) 
1

$$$$

     RDKit          3D

 51 53  0  0  0  0  0  0  0  0999 V2000
  137.6590   76.7450  219.8530 C   0  0  0  0  0  0  0  0  0  0  0  0
  137.9940   75.7020  220.8120 N   0  0  0  0  0  0  0  0  0  0  0  0
  137.1620   74.5090  220.9410 C   0  0  0  0  0  0  0  0  0  0  0  0
  137.9060   73.2480  220.6410 C   0  0  0  0  0  0  0  0  0  0  0  0
  138.4490   72.7200  221.8780 N   0  0  0  0  0  0  0  0  0  0  0  0
  139.0420   71.4370  221.9900 C   0  0  0  0  0  0  0  0  0  0  0  0
  139.1390   70.6610  221.0170 O   0  0  0  0  0  0  0  0  0  0  0  0
  139.5620   70.9990  223.2900 C   0  0  0  0  0  0  0  0  0  0  0  0
  140.3670   71.8120  224.0470 C   0  0  0  0  0  0  0  0  0  0  0  0
  140.8860   71.4580  225.2740 C   0  0  0  0  0  0  0  0  0  0  0  0
  140.5670   70.2060  225.7540 C   0  0  0  0  0  0  0  0  0  0  0  0
  141.0770   69.8380  226.9770 C   0  0  0  0  0  0  0  0  0  0  0  0
  140.7660   68.5860  227.4720 C   0  0  0  0  0  0  0  0  0  0  0  0
  141.4140   68.1320  229.0140 Cl  0  0  0  0  0  0  0  0  0  0  0  0
  139.9490   67.7470  226.7130 C   0  0  0  0  0  0  0  0  0  0  0  0
  139.4550   68.1540  225.4870 C   0  0  0  0  0  0  0  0  0  0  0  0
  139.7570   69.3910  224.9890 C   0  0  0  0  0  0  0  0  0  0  0  0
  139.2690   69.7700  223.7960 N   0  0  0  0  0  0  0  0  0  0  0  0
  139.1600   75.9130  221.5990 C   0  0  0  0  0  0  0  0  0  0  0  0
  139.2070   75.3170  222.7060 O   0  0  0  0  0  0  0  0  0  0  0  0
  140.2850   76.7850  221.1720 C   0  0  0  0  0  0  0  0  0  0  0  0
  141.5180   76.0270  221.2870 N   0  0  0  0  0  0  0  0  0  0  0  0
  141.8690   75.0080  220.3830 C   0  0  0  0  0  0  0  0  0  0  0  0
  141.0850   74.7390  219.4370 O   0  0  0  0  0  0  0  0  0  0  0  0
  143.0970   74.2260  220.4650 C   0  0  0  0  0  0  0  0  0  0  0  0
  142.9890   72.8640  220.6590 C   0  0  0  0  0  0  0  0  0  0  0  0
  144.1430   72.0800  220.7430 C   0  0  0  0  0  0  0  0  0  0  0  0
  145.3890   72.6580  220.6320 C   0  0  0  0  0  0  0  0  0  0  0  0
  145.5100   74.0210  220.4370 C   0  0  0  0  0  0  0  0  0  0  0  0
  144.3560   74.7800  220.3570 C   0  0  0  0  0  0  0  0  0  0  0  0
  137.3657   77.6581  220.3918 H   0  0  0  0  0  0  0  0  0  0  0  0
  138.5342   76.9571  219.2213 H   0  0  0  0  0  0  0  0  0  0  0  0
  136.8240   76.4078  219.2213 H   0  0  0  0  0  0  0  0  0  0  0  0
  136.7816   74.4557  221.9718 H   0  0  0  0  0  0  0  0  0  0  0  0
  136.3459   74.5939  220.2083 H   0  0  0  0  0  0  0  0  0  0  0  0
  137.2213   72.5122  220.1940 H   0  0  0  0  0  0  0  0  0  0  0  0
  138.7220   73.4550  219.9330 H   0  0  0  0  0  0  0  0  0  0  0  0
  138.4070   73.3150  222.7520 H   0  0  0  0  0  0  0  0  0  0  0  0
  140.6136   72.8079  223.6503 H   0  0  0  0  0  0  0  0  0  0  0  0
  141.5272   72.1452  225.8455 H   0  0  0  0  0  0  0  0  0  0  0  0
  141.7183   70.5251  227.5485 H   0  0  0  0  0  0  0  0  0  0  0  0
  139.6943   66.7475  227.0953 H   0  0  0  0  0  0  0  0  0  0  0  0
  138.8125   67.4755  224.9066 H   0  0  0  0  0  0  0  0  0  0  0  0
  140.1371   77.0986  220.1281 H   0  0  0  0  0  0  0  0  0  0  0  0
  140.3311   77.6824  221.8065 H   0  0  0  0  0  0  0  0  0  0  0  0
  142.1800   76.2370  222.0670 H   0  0  0  0  0  0  0  0  0  0  0  0
  141.9972   72.3965  220.7473 H   0  0  0  0  0  0  0  0  0  0  0  0
  144.0561   70.9946  220.8987 H   0  0  0  0  0  0  0  0  0  0  0  0
  146.2911   72.0321  220.6989 H   0  0  0  0  0  0  0  0  0  0  0  0
  146.5004   74.4912  220.3475 H   0  0  0  0  0  0  0  0  0  0  0  0
  144.4456   75.8653  220.2015 H   0  0  0  0  0  0  0  0  0  0  0  0
  1  2  1  0
  2  3  1  0
  3  4  1  0
  4  5  1  0
  5  6  1  0
  6  7  2  0
  6  8  1  0
  8  9  2  0
  9 10  1  0
 10 11  2  0
 11 12  1  0
 12 13  2  0
 13 14  1  0
 13 15  1  0
 15 16  2  0
 16 17  1  0
 17 18  2  0
  2 19  1  0
 19 20  2  0
 19 21  1  0
 21 22  1  0
 22 23  1  0
 23 24  2  0
 23 25  1  0
 25 26  2  0
 26 27  1  0
 27 28  2  0
 28 29  1  0
 29 30  2  0
 18  8  1  0
 30 25  1  0
 17 11  1  0
  1 31  1  0
  1 32  1  0
  1 33  1  0
  3 34  1  0
  3 35  1  0
  4 36  1  0
  4 37  1  0
  5 38  1  0
  9 39  1  0
 10 40  1  0
 12 41  1  0
 15 42  1  0
 16 43  1  0
 21 44  1  0
 21 45  1  0
 22 46  1  0
 26 47  1  0
 27 48  1  0
 28 49  1  0
 29 50  1  0
 30 51  1  0
M  END
>  <smiles>  (2) 
CN(CCNC(=O)c1ccc2cc(Cl)ccc2n1)C(=O)CNC(=O)c1ccccc1

>  <score_type>  (2) 
oracle

>  <origin>  (2) 
autodockgpu

>  <m_score__min__energy>  (2) 
-8.6300000000000008

>  <m_primary>  (2) 
energy

>  <rmsd>  (2) 
8.186213537565012

>  <m_score__min__rmsd>  (2) 
8.186213537565012

>  <meeko>  (2) 
{"free_energy": -7.85, "intermolecular_energy": -10.23, "internal_energy": -2.43, "cluster_size": 4, "cluster_id": 4, "rank_in_cluster": 2}

>  <energy>  (2) 
-8.36

>  <cluster_rmsd>  (2) 
1.9

>  <cluster>  (2) 
1

$$$$

     RDKit          3D

 51 53  0  0  0  0  0  0  0  0999 V2000
  139.7340   73.6460  219.0950 C   0  0  0  0  0  0  0  0  0  0  0  0
  140.7800   73.2830  220.0400 N   0  0  0  0  0  0  0  0  0  0  0  0
  142.1310   72.9750  219.5800 C   0  0  0  0  0  0  0  0  0  0  0  0
  143.1850   73.7180  220.3360 C   0  0  0  0  0  0  0  0  0  0  0  0
  142.8200   75.1190  220.3950 N   0  0  0  0  0  0  0  0  0  0  0  0
  142.9580   76.0130  219.3030 C   0  0  0  0  0  0  0  0  0  0  0  0
  143.4120   75.6500  218.1990 O   0  0  0  0  0  0  0  0  0  0  0  0
  142.5550   77.4140  219.4680 C   0  0  0  0  0  0  0  0  0  0  0  0
  142.5620   78.2880  218.4110 C   0  0  0  0  0  0  0  0  0  0  0  0
  142.1960   79.6140  218.5030 C   0  0  0  0  0  0  0  0  0  0  0  0
  141.8020   80.0730  219.7420 C   0  0  0  0  0  0  0  0  0  0  0  0
  141.4330   81.3930  219.8500 C   0  0  0  0  0  0  0  0  0  0  0  0
  141.0350   81.8680  221.0850 C   0  0  0  0  0  0  0  0  0  0  0  0
  140.5730   83.5330  221.2110 Cl  0  0  0  0  0  0  0  0  0  0  0  0
  141.0230   80.9910  222.1700 C   0  0  0  0  0  0  0  0  0  0  0  0
  141.4010   79.6690  222.0210 C   0  0  0  0  0  0  0  0  0  0  0  0
  141.7960   79.1890  220.8030 C   0  0  0  0  0  0  0  0  0  0  0  0
  142.1610   77.9030  220.6750 N   0  0  0  0  0  0  0  0  0  0  0  0
  140.4120   73.2490  221.4140 C   0  0  0  0  0  0  0  0  0  0  0  0
  140.7490   74.2400  222.1120 O   0  0  0  0  0  0  0  0  0  0  0  0
  139.6680   72.1210  222.0310 C   0  0  0  0  0  0  0  0  0  0  0  0
  139.9710   72.0970  223.4510 N   0  0  0  0  0  0  0  0  0  0  0  0
  139.9920   70.9080  224.2020 C   0  0  0  0  0  0  0  0  0  0  0  0
  139.7390   69.8200  223.6240 O   0  0  0  0  0  0  0  0  0  0  0  0
  140.2920   70.8430  225.6280 C   0  0  0  0  0  0  0  0  0  0  0  0
  140.0100   69.6720  226.2990 C   0  0  0  0  0  0  0  0  0  0  0  0
  140.2820   69.5700  227.6660 C   0  0  0  0  0  0  0  0  0  0  0  0
  140.8320   70.6340  228.3480 C   0  0  0  0  0  0  0  0  0  0  0  0
  141.1190   71.8130  227.6870 C   0  0  0  0  0  0  0  0  0  0  0  0
  140.8420   71.8940  226.3330 C   0  0  0  0  0  0  0  0  0  0  0  0
  138.8345   73.9582  219.6458 H   0  0  0  0  0  0  0  0  0  0  0  0
  140.0830   74.4756  218.4625 H   0  0  0  0  0  0  0  0  0  0  0  0
  139.4941   72.7786  218.4625 H   0  0  0  0  0  0  0  0  0  0  0  0
  142.3061   71.8959  219.7020 H   0  0  0  0  0  0  0  0  0  0  0  0
  142.2000   73.2837  218.5265 H   0  0  0  0  0  0  0  0  0  0  0  0
  143.2626   73.3133  221.3559 H   0  0  0  0  0  0  0  0  0  0  0  0
  144.1554   73.6064  219.8301 H   0  0  0  0  0  0  0  0  0  0  0  0
  142.4260   75.5100  221.2970 H   0  0  0  0  0  0  0  0  0  0  0  0
  142.8793   77.9074  217.4289 H   0  0  0  0  0  0  0  0  0  0  0  0
  142.2174   80.2772  217.6257 H   0  0  0  0  0  0  0  0  0  0  0  0
  141.4541   82.0563  218.9727 H   0  0  0  0  0  0  0  0  0  0  0  0
  140.7082   81.3564  223.1586 H   0  0  0  0  0  0  0  0  0  0  0  0
  141.3837   78.9966  222.8914 H   0  0  0  0  0  0  0  0  0  0  0  0
  138.5873   72.2635  221.8837 H   0  0  0  0  0  0  0  0  0  0  0  0
  139.9654   71.1705  221.5640 H   0  0  0  0  0  0  0  0  0  0  0  0
  140.1830   72.9920  223.9470 H   0  0  0  0  0  0  0  0  0  0  0  0
  139.5717   68.8196  225.7593 H   0  0  0  0  0  0  0  0  0  0  0  0
  140.0559   68.6356  228.2005 H   0  0  0  0  0  0  0  0  0  0  0  0
  141.0435   70.5442  229.4237 H   0  0  0  0  0  0  0  0  0  0  0  0
  141.5573   72.6671  228.2240 H   0  0  0  0  0  0  0  0  0  0  0  0
  141.0684   72.8294  225.8002 H   0  0  0  0  0  0  0  0  0  0  0  0
  1  2  1  0
  2  3  1  0
  3  4  1  0
  4  5  1  0
  5  6  1  0
  6  7  2  0
  6  8  1  0
  8  9  2  0
  9 10  1  0
 10 11  2  0
 11 12  1  0
 12 13  2  0
 13 14  1  0
 13 15  1  0
 15 16  2  0
 16 17  1  0
 17 18  2  0
  2 19  1  0
 19 20  2  0
 19 21  1  0
 21 22  1  0
 22 23  1  0
 23 24  2  0
 23 25  1  0
 25 26  2  0
 26 27  1  0
 27 28  2  0
 28 29  1  0
 29 30  2  0
 18  8  1  0
 30 25  1  0
 17 11  1  0
  1 31  1  0
  1 32  1  0
  1 33  1  0
  3 34  1  0
  3 35  1  0
  4 36  1  0
  4 37  1  0
  5 38  1  0
  9 39  1  0
 10 40  1  0
 12 41  1  0
 15 42  1  0
 16 43  1  0
 21 44  1  0
 21 45  1  0
 22 46  1  0
 26 47  1  0
 27 48  1  0
 28 49  1  0
 29 50  1  0
 30 51  1  0
M  END
>  <smiles>  (3) 
CN(CCNC(=O)c1ccc2cc(Cl)ccc2n1)C(=O)CNC(=O)c1ccccc1

>  <score_type>  (3) 
oracle

>  <origin>  (3) 
autodockgpu

>  <m_score__min__energy>  (3) 
-8.6300000000000008

>  <m_primary>  (3) 
energy

>  <rmsd>  (3) 
3.443526723376272

>  <m_score__min__rmsd>  (3) 
3.443526723376272

>  <meeko>  (3) 
{"free_energy": -7.94, "intermolecular_energy": -10.32, "internal_energy": -2.67, "cluster_size": 8, "cluster_id": 3, "rank_in_cluster": 4}

>  <energy>  (3) 
-8.36

>  <cluster_rmsd>  (3) 
2.0

>  <cluster>  (3) 
1

$$$$

     RDKit          3D

 51 53  0  0  0  0  0  0  0  0999 V2000
  141.1080   73.6940  219.2430 C   0  0  0  0  0  0  0  0  0  0  0  0
  141.6040   74.2700  220.4850 N   0  0  0  0  0  0  0  0  0  0  0  0
  143.0260   74.5360  220.6720 C   0  0  0  0  0  0  0  0  0  0  0  0
  143.6540   75.1960  219.4860 C   0  0  0  0  0  0  0  0  0  0  0  0
  143.3450   76.6120  219.5220 N   0  0  0  0  0  0  0  0  0  0  0  0
  142.2590   77.1970  218.8220 C   0  0  0  0  0  0  0  0  0  0  0  0
  141.4820   76.5230  218.1160 O   0  0  0  0  0  0  0  0  0  0  0  0
  142.0340   78.6430  218.9280 C   0  0  0  0  0  0  0  0  0  0  0  0
  142.7570   79.5350  218.1780 C   0  0  0  0  0  0  0  0  0  0  0  0
  142.5920   80.9020  218.2320 C   0  0  0  0  0  0  0  0  0  0  0  0
  141.6370   81.3860  219.1010 C   0  0  0  0  0  0  0  0  0  0  0  0
  141.4600   82.7480  219.1660 C   0  0  0  0  0  0  0  0  0  0  0  0
  140.5060   83.2480  220.0310 C   0  0  0  0  0  0  0  0  0  0  0  0
  140.2910   84.9660  220.1070 Cl  0  0  0  0  0  0  0  0  0  0  0  0
  139.7610   82.3530  220.8020 C   0  0  0  0  0  0  0  0  0  0  0  0
  139.9690   80.9890  220.7070 C   0  0  0  0  0  0  0  0  0  0  0  0
  140.9110   80.4840  219.8540 C   0  0  0  0  0  0  0  0  0  0  0  0
  141.1000   79.1570  219.7740 N   0  0  0  0  0  0  0  0  0  0  0  0
  140.6330   74.5520  221.4860 C   0  0  0  0  0  0  0  0  0  0  0  0
  140.4400   73.6580  222.3510 O   0  0  0  0  0  0  0  0  0  0  0  0
  139.8640   75.8220  221.5420 C   0  0  0  0  0  0  0  0  0  0  0  0
  140.7610   76.8790  221.9750 N   0  0  0  0  0  0  0  0  0  0  0  0
  140.3010   78.0660  222.5730 C   0  0  0  0  0  0  0  0  0  0  0  0
  139.0640   78.2220  222.7400 O   0  0  0  0  0  0  0  0  0  0  0  0
  141.1690   79.1490  223.0210 C   0  0  0  0  0  0  0  0  0  0  0  0
  142.5010   79.1040  222.6650 C   0  0  0  0  0  0  0  0  0  0  0  0
  143.3650   80.1230  223.0760 C   0  0  0  0  0  0  0  0  0  0  0  0
  142.8950   81.1740  223.8330 C   0  0  0  0  0  0  0  0  0  0  0  0
  141.5630   81.2300  224.1970 C   0  0  0  0  0  0  0  0  0  0  0  0
  140.7230   80.2110  223.7810 C   0  0  0  0  0  0  0  0  0  0  0  0
  140.4059   72.8787  219.4716 H   0  0  0  0  0  0  0  0  0  0  0  0
  140.5911   74.4702  218.6596 H   0  0  0  0  0  0  0  0  0  0  0  0
  141.9523   73.2980  218.6596 H   0  0  0  0  0  0  0  0  0  0  0  0
  143.1485   75.1932  221.5455 H   0  0  0  0  0  0  0  0  0  0  0  0
  143.5275   73.5676  220.8157 H   0  0  0  0  0  0  0  0  0  0  0  0
  144.7444   75.0545  219.5183 H   0  0  0  0  0  0  0  0  0  0  0  0
  143.2623   74.7511  218.5594 H   0  0  0  0  0  0  0  0  0  0  0  0
  143.9560   77.2570  220.0990 H   0  0  0  0  0  0  0  0  0  0  0  0
  143.5162   79.1341  217.4903 H   0  0  0  0  0  0  0  0  0  0  0  0
  143.1960   81.5779  217.6088 H   0  0  0  0  0  0  0  0  0  0  0  0
  142.0643   83.4241  218.5434 H   0  0  0  0  0  0  0  0  0  0  0  0
  138.9981   82.7383  221.4945 H   0  0  0  0  0  0  0  0  0  0  0  0
  139.3703   80.3030  221.3242 H   0  0  0  0  0  0  0  0  0  0  0  0
  139.4637   76.0588  220.5452 H   0  0  0  0  0  0  0  0  0  0  0  0
  139.0238   75.7258  222.2454 H   0  0  0  0  0  0  0  0  0  0  0  0
  141.7910   76.7660  221.8440 H   0  0  0  0  0  0  0  0  0  0  0  0
  142.8821   78.2685  222.0594 H   0  0  0  0  0  0  0  0  0  0  0  0
  144.4274   80.0856  222.7932 H   0  0  0  0  0  0  0  0  0  0  0  0
  143.5830   81.9720  224.1490 H   0  0  0  0  0  0  0  0  0  0  0  0
  141.1793   82.0642  224.8028 H   0  0  0  0  0  0  0  0  0  0  0  0
  139.6615   80.2494  224.0667 H   0  0  0  0  0  0  0  0  0  0  0  0
  1  2  1  0
  2  3  1  0
  3  4  1  0
  4  5  1  0
  5  6  1  0
  6  7  2  0
  6  8  1  0
  8  9  2  0
  9 10  1  0
 10 11  2  0
 11 12  1  0
 12 13  2  0
 13 14  1  0
 13 15  1  0
 15 16  2  0
 16 17  1  0
 17 18  2  0
  2 19  1  0
 19 20  2  0
 19 21  1  0
 21 22  1  0
 22 23  1  0
 23 24  2  0
 23 25  1  0
 25 26  2  0
 26 27  1  0
 27 28  2  0
 28 29  1  0
 29 30  2  0
 18  8  1  0
 30 25  1  0
 17 11  1  0
  1 31  1  0
  1 32  1  0
  1 33  1  0
  3 34  1  0
  3 35  1  0
  4 36  1  0
  4 37  1  0
  5 38  1  0
  9 39  1  0
 10 40  1  0
 12 41  1  0
 15 42  1  0
 16 43  1  0
 21 44  1  0
 21 45  1  0
 22 46  1  0
 26 47  1  0
 27 48  1  0
 28 49  1  0
 29 50  1  0
 30 51  1  0
M  END
>  <smiles>  (4) 
CN(CCNC(=O)c1ccc2cc(Cl)ccc2n1)C(=O)CNC(=O)c1ccccc1

>  <score_type>  (4) 
oracle

>  <origin>  (4) 
autodockgpu

>  <m_score__min__energy>  (4) 
-8.6300000000000008

>  <m_primary>  (4) 
energy

>  <rmsd>  (4) 
6.809796947879971

>  <m_score__min__rmsd>  (4) 
6.809796947879971

>  <meeko>  (4) 
{"free_energy": -7.24, "intermolecular_energy": -9.63, "internal_energy": -2.99, "cluster_size": 4, "cluster_id": 7, "rank_in_cluster": 1}

>  <energy>  (4) 
-8.3

>  <cluster_rmsd>  (4) 
1.88

>  <cluster>  (4) 
1

$$$$

     RDKit          3D

 51 53  0  0  0  0  0  0  0  0999 V2000
  135.7950   66.8230  221.2750 C   0  0  0  0  0  0  0  0  0  0  0  0
  136.2550   67.9070  222.1310 N   0  0  0  0  0  0  0  0  0  0  0  0
  135.3350   68.5860  223.0390 C   0  0  0  0  0  0  0  0  0  0  0  0
  134.9050   69.9260  222.5340 C   0  0  0  0  0  0  0  0  0  0  0  0
  136.0770   70.6620  222.1040 N   0  0  0  0  0  0  0  0  0  0  0  0
  136.8480   71.4840  222.9650 C   0  0  0  0  0  0  0  0  0  0  0  0
  136.5660   71.6330  224.1710 O   0  0  0  0  0  0  0  0  0  0  0  0
  138.0190   72.1860  222.4270 C   0  0  0  0  0  0  0  0  0  0  0  0
  137.9550   73.5070  222.0650 C   0  0  0  0  0  0  0  0  0  0  0  0
  139.0190   74.2200  221.5540 C   0  0  0  0  0  0  0  0  0  0  0  0
  140.2120   73.5470  221.4040 C   0  0  0  0  0  0  0  0  0  0  0  0
  141.2830   74.2450  220.8970 C   0  0  0  0  0  0  0  0  0  0  0  0
  142.4860   73.5840  220.7410 C   0  0  0  0  0  0  0  0  0  0  0  0
  143.8300   74.4720  220.1000 Cl  0  0  0  0  0  0  0  0  0  0  0  0
  142.5680   72.2390  221.1050 C   0  0  0  0  0  0  0  0  0  0  0  0
  141.4670   71.5720  221.6120 C   0  0  0  0  0  0  0  0  0  0  0  0
  140.2720   72.2170  221.7700 C   0  0  0  0  0  0  0  0  0  0  0  0
  139.2130   71.5540  222.2650 N   0  0  0  0  0  0  0  0  0  0  0  0
  137.6300   68.2570  222.0300 C   0  0  0  0  0  0  0  0  0  0  0  0
  137.9390   69.0690  221.1200 O   0  0  0  0  0  0  0  0  0  0  0  0
  138.6780   67.7120  222.9310 C   0  0  0  0  0  0  0  0  0  0  0  0
  139.2160   68.8070  223.7190 N   0  0  0  0  0  0  0  0  0  0  0  0
  139.4560   68.7020  225.1010 C   0  0  0  0  0  0  0  0  0  0  0  0
  139.1940   67.6160  225.6810 O   0  0  0  0  0  0  0  0  0  0  0  0
  139.9940   69.7770  225.9250 C   0  0  0  0  0  0  0  0  0  0  0  0
  139.8320   69.6920  227.2930 C   0  0  0  0  0  0  0  0  0  0  0  0
  140.3350   70.7030  228.1170 C   0  0  0  0  0  0  0  0  0  0  0  0
  140.9920   71.7850  227.5720 C   0  0  0  0  0  0  0  0  0  0  0  0
  141.1600   71.8820  226.2040 C   0  0  0  0  0  0  0  0  0  0  0  0
  140.6550   70.8700  225.4050 C   0  0  0  0  0  0  0  0  0  0  0  0
  135.4409   65.9886  221.8983 H   0  0  0  0  0  0  0  0  0  0  0  0
  134.9715   67.1815  220.6400 H   0  0  0  0  0  0  0  0  0  0  0  0
  136.6250   66.4798  220.6400 H   0  0  0  0  0  0  0  0  0  0  0  0
  134.4423   67.9568  223.1699 H   0  0  0  0  0  0  0  0  0  0  0  0
  135.8654   68.7452  223.9895 H   0  0  0  0  0  0  0  0  0  0  0  0
  134.2172   69.7977  221.6852 H   0  0  0  0  0  0  0  0  0  0  0  0
  134.3896   70.4785  223.3334 H   0  0  0  0  0  0  0  0  0  0  0  0
  136.3850   70.5910  221.0930 H   0  0  0  0  0  0  0  0  0  0  0  0
  136.9956   74.0304  222.1900 H   0  0  0  0  0  0  0  0  0  0  0  0
  138.9197   75.2802  221.2780 H   0  0  0  0  0  0  0  0  0  0  0  0
  141.1840   75.3055  220.6220 H   0  0  0  0  0  0  0  0  0  0  0  0
  143.5208   71.7021  220.9872 H   0  0  0  0  0  0  0  0  0  0  0  0
  141.5541   70.5115  221.8909 H   0  0  0  0  0  0  0  0  0  0  0  0
  138.2388   66.9549  223.5973 H   0  0  0  0  0  0  0  0  0  0  0  0
  139.4778   67.2409  222.3408 H   0  0  0  0  0  0  0  0  0  0  0  0
  139.4390   69.7160  223.2530 H   0  0  0  0  0  0  0  0  0  0  0  0
  139.3084   68.8309  227.7338 H   0  0  0  0  0  0  0  0  0  0  0  0
  140.2056   70.6345  229.2072 H   0  0  0  0  0  0  0  0  0  0  0  0
  141.3845   72.5750  228.2292 H   0  0  0  0  0  0  0  0  0  0  0  0
  141.6823   72.7424  225.7603 H   0  0  0  0  0  0  0  0  0  0  0  0
  140.7859   70.9405  224.3151 H   0  0  0  0  0  0  0  0  0  0  0  0
  1  2  1  0
  2  3  1  0
  3  4  1  0
  4  5  1  0
  5  6  1  0
  6  7  2  0
  6  8  1  0
  8  9  2  0
  9 10  1  0
 10 11  2  0
 11 12  1  0
 12 13  2  0
 13 14  1  0
 13 15  1  0
 15 16  2  0
 16 17  1  0
 17 18  2  0
  2 19  1  0
 19 20  2  0
 19 21  1  0
 21 22  1  0
 22 23  1  0
 23 24  2  0
 23 25  1  0
 25 26  2  0
 26 27  1  0
 27 28  2  0
 28 29  1  0
 29 30  2  0
 18  8  1  0
 30 25  1  0
 17 11  1  0
  1 31  1  0
  1 32  1  0
  1 33  1  0
  3 34  1  0
  3 35  1  0
  4 36  1  0
  4 37  1  0
  5 38  1  0
  9 39  1  0
 10 40  1  0
 12 41  1  0
 15 42  1  0
 16 43  1  0
 21 44  1  0
 21 45  1  0
 22 46  1  0
 26 47  1  0
 27 48  1  0
 28 49  1  0
 29 50  1  0
 30 51  1  0
M  END
>  <smiles>  (5) 
CN(CCNC(=O)c1ccc2cc(Cl)ccc2n1)C(=O)CNC(=O)c1ccccc1

>  <score_type>  (5) 
oracle

>  <origin>  (5) 
autodockgpu

>  <m_score__min__energy>  (5) 
-8.6300000000000008

>  <m_primary>  (5) 
energy

>  <rmsd>  (5) 
7.512243772379238

>  <m_score__min__rmsd>  (5) 
7.512243772379238

>  <meeko>  (5) 
{"free_energy": -5.9, "intermolecular_energy": -8.28, "internal_energy": -3.82, "cluster_size": 4, "cluster_id": 5, "rank_in_cluster": 4}

>  <energy>  (5) 
-8.1

>  <cluster_rmsd>  (5) 
1.62

>  <cluster>  (5) 
1

$$$$

     RDKit          3D

 51 53  0  0  0  0  0  0  0  0999 V2000
  141.7360   72.2150  220.4560 C   0  0  0  0  0  0  0  0  0  0  0  0
  140.5960   73.1170  220.5450 N   0  0  0  0  0  0  0  0  0  0  0  0
  139.2780   72.7070  220.0700 C   0  0  0  0  0  0  0  0  0  0  0  0
  138.2830   72.5560  221.1760 C   0  0  0  0  0  0  0  0  0  0  0  0
  138.0450   73.8560  221.7710 N   0  0  0  0  0  0  0  0  0  0  0  0
  137.2380   74.8570  221.1730 C   0  0  0  0  0  0  0  0  0  0  0  0
  136.6680   74.6860  220.0770 O   0  0  0  0  0  0  0  0  0  0  0  0
  137.0610   76.1410  221.8620 C   0  0  0  0  0  0  0  0  0  0  0  0
  135.8120   76.6400  222.1320 C   0  0  0  0  0  0  0  0  0  0  0  0
  135.5810   77.8370  222.7750 C   0  0  0  0  0  0  0  0  0  0  0  0
  136.6850   78.5650  223.1610 C   0  0  0  0  0  0  0  0  0  0  0  0
  136.4720   79.7630  223.8040 C   0  0  0  0  0  0  0  0  0  0  0  0
  137.5690   80.5040  224.1990 C   0  0  0  0  0  0  0  0  0  0  0  0
  137.2890   82.0110  225.0070 Cl  0  0  0  0  0  0  0  0  0  0  0  0
  138.8460   80.0100  223.9310 C   0  0  0  0  0  0  0  0  0  0  0  0
  139.0200   78.8010  223.2820 C   0  0  0  0  0  0  0  0  0  0  0  0
  137.9410   78.0600  222.8880 C   0  0  0  0  0  0  0  0  0  0  0  0
  138.1270   76.8870  222.2590 N   0  0  0  0  0  0  0  0  0  0  0  0
  140.8420   74.3970  221.1140 C   0  0  0  0  0  0  0  0  0  0  0  0
  140.5980   74.5230  222.3420 O   0  0  0  0  0  0  0  0  0  0  0  0
  141.3590   75.5500  220.3340 C   0  0  0  0  0  0  0  0  0  0  0  0
  141.5920   76.6530  221.2500 N   0  0  0  0  0  0  0  0  0  0  0  0
  141.5630   77.9990  220.8410 C   0  0  0  0  0  0  0  0  0  0  0  0
  141.3260   78.2600  219.6330 O   0  0  0  0  0  0  0  0  0  0  0  0
  141.7920   79.1320  221.7290 C   0  0  0  0  0  0  0  0  0  0  0  0
  141.5400   80.3990  221.2450 C   0  0  0  0  0  0  0  0  0  0  0  0
  141.7470   81.5110  222.0660 C   0  0  0  0  0  0  0  0  0  0  0  0
  142.2000   81.3500  223.3570 C   0  0  0  0  0  0  0  0  0  0  0  0
  142.4550   80.0860  223.8540 C   0  0  0  0  0  0  0  0  0  0  0  0
  142.2450   78.9970  223.0250 C   0  0  0  0  0  0  0  0  0  0  0  0
  142.0727   71.9486  221.4687 H   0  0  0  0  0  0  0  0  0  0  0  0
  141.4409   71.3032  219.9160 H   0  0  0  0  0  0  0  0  0  0  0  0
  142.5554   72.7119  219.9160 H   0  0  0  0  0  0  0  0  0  0  0  0
  138.9071   73.4657  219.3651 H   0  0  0  0  0  0  0  0  0  0  0  0
  139.3907   71.7236  219.5903 H   0  0  0  0  0  0  0  0  0  0  0  0
  137.3408   72.1556  220.7735 H   0  0  0  0  0  0  0  0  0  0  0  0
  138.6717   71.8626  221.9363 H   0  0  0  0  0  0  0  0  0  0  0  0
  138.4930   74.0840  222.7030 H   0  0  0  0  0  0  0  0  0  0  0  0
  134.9406   76.0479  221.8156 H   0  0  0  0  0  0  0  0  0  0  0  0
  134.5597   78.1954  222.9714 H   0  0  0  0  0  0  0  0  0  0  0  0
  135.4509   80.1226  223.9991 H   0  0  0  0  0  0  0  0  0  0  0  0
  139.7275   80.5906  224.2404 H   0  0  0  0  0  0  0  0  0  0  0  0
  140.0366   78.4322  223.0809 H   0  0  0  0  0  0  0  0  0  0  0  0
  142.3014   75.2719  219.8395 H   0  0  0  0  0  0  0  0  0  0  0  0
  140.6301   75.8441  219.5644 H   0  0  0  0  0  0  0  0  0  0  0  0
  141.7900   76.4530  222.2560 H   0  0  0  0  0  0  0  0  0  0  0  0
  141.1770   80.5338  220.2154 H   0  0  0  0  0  0  0  0  0  0  0  0
  141.5470   82.5210  221.6789 H   0  0  0  0  0  0  0  0  0  0  0  0
  142.3595   82.2316  223.9952 H   0  0  0  0  0  0  0  0  0  0  0  0
  142.8163   79.9483  224.8838 H   0  0  0  0  0  0  0  0  0  0  0  0
  142.4466   77.9880  223.4138 H   0  0  0  0  0  0  0  0  0  0  0  0
  1  2  1  0
  2  3  1  0
  3  4  1  0
  4  5  1  0
  5  6  1  0
  6  7  2  0
  6  8  1  0
  8  9  2  0
  9 10  1  0
 10 11  2  0
 11 12  1  0
 12 13  2  0
 13 14  1  0
 13 15  1  0
 15 16  2  0
 16 17  1  0
 17 18  2  0
  2 19  1  0
 19 20  2  0
 19 21  1  0
 21 22  1  0
 22 23  1  0
 23 24  2  0
 23 25  1  0
 25 26  2  0
 26 27  1  0
 27 28  2  0
 28 29  1  0
 29 30  2  0
 18  8  1  0
 30 25  1  0
 17 11  1  0
  1 31  1  0
  1 32  1  0
  1 33  1  0
  3 34  1  0
  3 35  1  0
  4 36  1  0
  4 37  1  0
  5 38  1  0
  9 39  1  0
 10 40  1  0
 12 41  1  0
 15 42  1  0
 16 43  1  0
 21 44  1  0
 21 45  1  0
 22 46  1  0
 26 47  1  0
 27 48  1  0
 28 49  1  0
 29 50  1  0
 30 51  1  0
M  END
>  <smiles>  (6) 
CN(CCNC(=O)c1ccc2cc(Cl)ccc2n1)C(=O)CNC(=O)c1ccccc1

>  <score_type>  (6) 
oracle

>  <origin>  (6) 
autodockgpu

>  <m_score__min__energy>  (6) 
-8.6300000000000008

>  <m_primary>  (6) 
energy

>  <rmsd>  (6) 
7.575352635992643

>  <m_score__min__rmsd>  (6) 
7.575352635992643

>  <meeko>  (6) 
{"free_energy": -6.12, "intermolecular_energy": -8.51, "internal_energy": -3.57, "cluster_size": 8, "cluster_id": 3, "rank_in_cluster": 8}

>  <energy>  (6) 
-7.83

>  <cluster_rmsd>  (6) 
1.85

>  <cluster>  (6) 
1

$$$$

     RDKit          3D

 51 53  0  0  0  0  0  0  0  0999 V2000
  135.6080   67.9810  222.3210 C   0  0  0  0  0  0  0  0  0  0  0  0
  136.8260   68.7700  222.2030 N   0  0  0  0  0  0  0  0  0  0  0  0
  136.7840   70.2270  222.2760 C   0  0  0  0  0  0  0  0  0  0  0  0
  137.5580   70.7730  223.4330 C   0  0  0  0  0  0  0  0  0  0  0  0
  138.1980   72.0080  223.0260 N   0  0  0  0  0  0  0  0  0  0  0  0
  139.4380   72.0600  222.3410 C   0  0  0  0  0  0  0  0  0  0  0  0
  140.0750   71.0310  222.0360 O   0  0  0  0  0  0  0  0  0  0  0  0
  140.0000   73.3660  221.9720 C   0  0  0  0  0  0  0  0  0  0  0  0
  141.1550   73.4640  221.2400 C   0  0  0  0  0  0  0  0  0  0  0  0
  141.7310   74.6590  220.8630 C   0  0  0  0  0  0  0  0  0  0  0  0
  141.0920   75.8160  221.2580 C   0  0  0  0  0  0  0  0  0  0  0  0
  141.6540   77.0160  220.8900 C   0  0  0  0  0  0  0  0  0  0  0  0
  141.0260   78.1840  221.2770 C   0  0  0  0  0  0  0  0  0  0  0  0
  141.7420   79.6910  220.8090 Cl  0  0  0  0  0  0  0  0  0  0  0  0
  139.8500   78.1000  222.0230 C   0  0  0  0  0  0  0  0  0  0  0  0
  139.3160   76.8730  222.3730 C   0  0  0  0  0  0  0  0  0  0  0  0
  139.9300   75.7110  221.9950 C   0  0  0  0  0  0  0  0  0  0  0  0
  139.3980   74.5280  222.3440 N   0  0  0  0  0  0  0  0  0  0  0  0
  138.0360   68.0460  222.0170 C   0  0  0  0  0  0  0  0  0  0  0  0
  138.4180   67.8840  220.8290 O   0  0  0  0  0  0  0  0  0  0  0  0
  138.8370   67.4940  223.1400 C   0  0  0  0  0  0  0  0  0  0  0  0
  139.3580   68.6030  223.9180 N   0  0  0  0  0  0  0  0  0  0  0  0
  139.5220   68.5410  225.3140 C   0  0  0  0  0  0  0  0  0  0  0  0
  139.2040   67.4830  225.9150 O   0  0  0  0  0  0  0  0  0  0  0  0
  140.0410   69.6330  226.1290 C   0  0  0  0  0  0  0  0  0  0  0  0
  140.6680   70.6820  225.4880 C   0  0  0  0  0  0  0  0  0  0  0  0
  141.1800   71.7470  226.2350 C   0  0  0  0  0  0  0  0  0  0  0  0
  141.0610   71.7570  227.6080 C   0  0  0  0  0  0  0  0  0  0  0  0
  140.4360   70.7120  228.2610 C   0  0  0  0  0  0  0  0  0  0  0  0
  139.9360   69.6660  227.5040 C   0  0  0  0  0  0  0  0  0  0  0  0
  135.3718   67.8280  223.3844 H   0  0  0  0  0  0  0  0  0  0  0  0
  134.7777   68.5133  221.8339 H   0  0  0  0  0  0  0  0  0  0  0  0
  135.7543   67.0057  221.8339 H   0  0  0  0  0  0  0  0  0  0  0  0
  137.2053   70.6375  221.3465 H   0  0  0  0  0  0  0  0  0  0  0  0
  135.7329   70.5210  222.4131 H   0  0  0  0  0  0  0  0  0  0  0  0
  136.8766   70.9695  224.2739 H   0  0  0  0  0  0  0  0  0  0  0  0
  138.3189   70.0448  223.7504 H   0  0  0  0  0  0  0  0  0  0  0  0
  137.7240   72.9290  223.2460 H   0  0  0  0  0  0  0  0  0  0  0  0
  141.6530   72.5320  220.9345 H   0  0  0  0  0  0  0  0  0  0  0  0
  142.6591   74.6883  220.2733 H   0  0  0  0  0  0  0  0  0  0  0  0
  142.5825   77.0451  220.3009 H   0  0  0  0  0  0  0  0  0  0  0  0
  139.3402   79.0227  222.3373 H   0  0  0  0  0  0  0  0  0  0  0  0
  138.3877   76.8315  222.9616 H   0  0  0  0  0  0  0  0  0  0  0  0
  138.1998   66.8612  223.7752 H   0  0  0  0  0  0  0  0  0  0  0  0
  139.6647   66.8833  222.7502 H   0  0  0  0  0  0  0  0  0  0  0  0
  139.6270   69.4900  223.4350 H   0  0  0  0  0  0  0  0  0  0  0  0
  140.7647   70.6802  224.3923 H   0  0  0  0  0  0  0  0  0  0  0  0
  141.6810   72.5822  225.7237 H   0  0  0  0  0  0  0  0  0  0  0  0
  141.4654   72.6007  228.1865 H   0  0  0  0  0  0  0  0  0  0  0  0
  140.3379   70.7110  229.3566 H   0  0  0  0  0  0  0  0  0  0  0  0
  139.4370   68.8311  228.0177 H   0  0  0  0  0  0  0  0  0  0  0  0
  1  2  1  0
  2  3  1  0
  3  4  1  0
  4  5  1  0
  5  6  1  0
  6  7  2  0
  6  8  1  0
  8  9  2  0
  9 10  1  0
 10 11  2  0
 11 12  1  0
 12 13  2  0
 13 14  1  0
 13 15  1  0
 15 16  2  0
 16 17  1  0
 17 18  2  0
  2 19  1  0
 19 20  2  0
 19 21  1  0
 21 22  1  0
 22 23  1  0
 23 24  2  0
 23 25  1  0
 25 26  2  0
 26 27  1  0
 27 28  2  0
 28 29  1  0
 29 30  2  0
 18  8  1  0
 30 25  1  0
 17 11  1  0
  1 31  1  0
  1 32  1  0
  1 33  1  0
  3 34  1  0
  3 35  1  0
  4 36  1  0
  4 37  1  0
  5 38  1  0
  9 39  1  0
 10 40  1  0
 12 41  1  0
 15 42  1  0
 16 43  1  0
 21 44  1  0
 21 45  1  0
 22 46  1  0
 26 47  1  0
 27 48  1  0
 28 49  1  0
 29 50  1  0
 30 51  1  0
M  END
>  <smiles>  (7) 
CN(CCNC(=O)c1ccc2cc(Cl)ccc2n1)C(=O)CNC(=O)c1ccccc1

>  <score_type>  (7) 
oracle

>  <origin>  (7) 
autodockgpu

>  <m_score__min__energy>  (7) 
-8.6300000000000008

>  <m_primary>  (7) 
energy

>  <rmsd>  (7) 
6.493479622204106

>  <m_score__min__rmsd>  (7) 
6.493479622204106

>  <meeko>  (7) 
{"free_energy": -7.79, "intermolecular_energy": -10.17, "internal_energy": -2.75, "cluster_size": 4, "cluster_id": 5, "rank_in_cluster": 2}

>  <energy>  (7) 
-7.75

>  <cluster_rmsd>  (7) 
1.75

>  <cluster>  (7) 
1

$$$$

     RDKit          3D

 51 53  0  0  0  0  0  0  0  0999 V2000
  137.5620   77.3490  222.4840 C   0  0  0  0  0  0  0  0  0  0  0  0
  138.0300   76.1240  221.8500 N   0  0  0  0  0  0  0  0  0  0  0  0
  137.0880   75.1810  221.2560 C   0  0  0  0  0  0  0  0  0  0  0  0
  137.7520   73.9470  220.7360 C   0  0  0  0  0  0  0  0  0  0  0  0
  138.1550   73.1230  221.8590 N   0  0  0  0  0  0  0  0  0  0  0  0
  138.4180   71.7340  221.7590 C   0  0  0  0  0  0  0  0  0  0  0  0
  138.3190   71.1130  220.6820 O   0  0  0  0  0  0  0  0  0  0  0  0
  138.8210   70.9920  222.9600 C   0  0  0  0  0  0  0  0  0  0  0  0
  138.4510   69.6850  223.1500 C   0  0  0  0  0  0  0  0  0  0  0  0
  138.7980   68.9370  224.2540 C   0  0  0  0  0  0  0  0  0  0  0  0
  139.5630   69.5580  225.2190 C   0  0  0  0  0  0  0  0  0  0  0  0
  139.9170   68.8250  226.3270 C   0  0  0  0  0  0  0  0  0  0  0  0
  140.6840   69.4320  227.3020 C   0  0  0  0  0  0  0  0  0  0  0  0
  141.1250   68.5000  228.6950 Cl  0  0  0  0  0  0  0  0  0  0  0  0
  141.0680   70.7620  227.1240 C   0  0  0  0  0  0  0  0  0  0  0  0
  140.6920   71.4660  225.9950 C   0  0  0  0  0  0  0  0  0  0  0  0
  139.9330   70.8740  225.0240 C   0  0  0  0  0  0  0  0  0  0  0  0
  139.5760   71.5720  223.9330 N   0  0  0  0  0  0  0  0  0  0  0  0
  139.4360   75.9100  221.8450 C   0  0  0  0  0  0  0  0  0  0  0  0
  139.8730   75.0220  222.6230 O   0  0  0  0  0  0  0  0  0  0  0  0
  140.3750   76.6720  220.9820 C   0  0  0  0  0  0  0  0  0  0  0  0
  141.6730   76.0230  221.0340 N   0  0  0  0  0  0  0  0  0  0  0  0
  141.9260   74.7830  220.4200 C   0  0  0  0  0  0  0  0  0  0  0  0
  140.9930   74.2110  219.8000 O   0  0  0  0  0  0  0  0  0  0  0  0
  143.2140   74.1000  220.4500 C   0  0  0  0  0  0  0  0  0  0  0  0
  143.2200   72.7210  220.4500 C   0  0  0  0  0  0  0  0  0  0  0  0
  144.4340   72.0300  220.4780 C   0  0  0  0  0  0  0  0  0  0  0  0
  145.6280   72.7180  220.5060 C   0  0  0  0  0  0  0  0  0  0  0  0
  145.6360   74.0990  220.5070 C   0  0  0  0  0  0  0  0  0  0  0  0
  144.4230   74.7660  220.4790 C   0  0  0  0  0  0  0  0  0  0  0  0
  137.6053   77.2357  223.5773 H   0  0  0  0  0  0  0  0  0  0  0  0
  138.2026   78.1887  222.1767 H   0  0  0  0  0  0  0  0  0  0  0  0
  136.5246   77.5477  222.1767 H   0  0  0  0  0  0  0  0  0  0  0  0
  136.3538   74.8889  222.0213 H   0  0  0  0  0  0  0  0  0  0  0  0
  136.6104   75.6842  220.4024 H   0  0  0  0  0  0  0  0  0  0  0  0
  137.0483   73.3882  220.1015 H   0  0  0  0  0  0  0  0  0  0  0  0
  138.6342   74.2213  220.1389 H   0  0  0  0  0  0  0  0  0  0  0  0
  138.2620   73.5720  222.8120 H   0  0  0  0  0  0  0  0  0  0  0  0
  137.8392   69.2040  222.3726 H   0  0  0  0  0  0  0  0  0  0  0  0
  138.4787   67.8898  224.3610 H   0  0  0  0  0  0  0  0  0  0  0  0
  139.5964   67.7783  226.4345 H   0  0  0  0  0  0  0  0  0  0  0  0
  141.6787   71.2574  227.8932 H   0  0  0  0  0  0  0  0  0  0  0  0
  141.0068   72.5133  225.8767 H   0  0  0  0  0  0  0  0  0  0  0  0
  140.0047   76.6800  219.9462 H   0  0  0  0  0  0  0  0  0  0  0  0
  140.4566   77.7102  221.3361 H   0  0  0  0  0  0  0  0  0  0  0  0
  142.4590   76.4840  221.5450 H   0  0  0  0  0  0  0  0  0  0  0  0
  142.2706   72.1660  220.4280 H   0  0  0  0  0  0  0  0  0  0  0  0
  144.4369   70.9300  220.4777 H   0  0  0  0  0  0  0  0  0  0  0  0
  146.5785   72.1648  220.5276 H   0  0  0  0  0  0  0  0  0  0  0  0
  146.5842   74.6562  220.5295 H   0  0  0  0  0  0  0  0  0  0  0  0
  144.4226   75.8660  220.4799 H   0  0  0  0  0  0  0  0  0  0  0  0
  1  2  1  0
  2  3  1  0
  3  4  1  0
  4  5  1  0
  5  6  1  0
  6  7  2  0
  6  8  1  0
  8  9  2  0
  9 10  1  0
 10 11  2  0
 11 12  1  0
 12 13  2  0
 13 14  1  0
 13 15  1  0
 15 16  2  0
 16 17  1  0
 17 18  2  0
  2 19  1  0
 19 20  2  0
 19 21  1  0
 21 22  1  0
 22 23  1  0
 23 24  2  0
 23 25  1  0
 25 26  2  0
 26 27  1  0
 27 28  2  0
 28 29  1  0
 29 30  2  0
 18  8  1  0
 30 25  1  0
 17 11  1  0
  1 31  1  0
  1 32  1  0
  1 33  1  0
  3 34  1  0
  3 35  1  0
  4 36  1  0
  4 37  1  0
  5 38  1  0
  9 39  1  0
 10 40  1  0
 12 41  1  0
 15 42  1  0
 16 43  1  0
 21 44  1  0
 21 45  1  0
 22 46  1  0
 26 47  1  0
 27 48  1  0
 28 49  1  0
 29 50  1  0
 30 51  1  0
M  END
>  <smiles>  (8) 
CN(CCNC(=O)c1ccc2cc(Cl)ccc2n1)C(=O)CNC(=O)c1ccccc1

>  <score_type>  (8) 
oracle

>  <origin>  (8) 
autodockgpu

>  <m_score__min__energy>  (8) 
-8.6300000000000008

>  <m_primary>  (8) 
energy

>  <rmsd>  (8) 
8.768809262144964

>  <m_score__min__rmsd>  (8) 
8.768809262144964

>  <meeko>  (8) 
{"free_energy": -7.99, "intermolecular_energy": -10.38, "internal_energy": -2.42, "cluster_size": 4, "cluster_id": 4, "rank_in_cluster": 1}

>  <energy>  (8) 
-7.54

>  <cluster_rmsd>  (8) 
1.97

>  <cluster>  (8) 
1

$$$$

     RDKit          3D

 51 53  0  0  0  0  0  0  0  0999 V2000
  141.7060   72.9850  219.5560 C   0  0  0  0  0  0  0  0  0  0  0  0
  142.0100   74.0600  220.4890 N   0  0  0  0  0  0  0  0  0  0  0  0
  143.3240   74.6940  220.4990 C   0  0  0  0  0  0  0  0  0  0  0  0
  143.6520   75.3720  219.2070 C   0  0  0  0  0  0  0  0  0  0  0  0
  143.3380   76.7820  219.3260 N   0  0  0  0  0  0  0  0  0  0  0  0
  142.2630   77.4080  218.6450 C   0  0  0  0  0  0  0  0  0  0  0  0
  141.5010   76.7780  217.8840 O   0  0  0  0  0  0  0  0  0  0  0  0
  142.0310   78.8440  218.8380 C   0  0  0  0  0  0  0  0  0  0  0  0
  142.7190   79.7810  218.1100 C   0  0  0  0  0  0  0  0  0  0  0  0
  142.5460   81.1430  218.2450 C   0  0  0  0  0  0  0  0  0  0  0  0
  141.6220   81.5690  219.1740 C   0  0  0  0  0  0  0  0  0  0  0  0
  141.4380   82.9240  219.3200 C   0  0  0  0  0  0  0  0  0  0  0  0
  140.5140   83.3680  220.2460 C   0  0  0  0  0  0  0  0  0  0  0  0
  140.2900   85.0780  220.4240 Cl  0  0  0  0  0  0  0  0  0  0  0  0
  139.8060   82.4270  220.9950 C   0  0  0  0  0  0  0  0  0  0  0  0
  140.0200   81.0720  220.8190 C   0  0  0  0  0  0  0  0  0  0  0  0
  140.9320   80.6220  219.9040 C   0  0  0  0  0  0  0  0  0  0  0  0
  141.1270   79.3030  219.7450 N   0  0  0  0  0  0  0  0  0  0  0  0
  140.9650   74.4470  221.3740 C   0  0  0  0  0  0  0  0  0  0  0  0
  140.7200   73.6680  222.3310 O   0  0  0  0  0  0  0  0  0  0  0  0
  140.1800   75.6980  221.2110 C   0  0  0  0  0  0  0  0  0  0  0  0
  140.9900   76.8090  221.6790 N   0  0  0  0  0  0  0  0  0  0  0  0
  140.4610   77.8660  222.4420 C   0  0  0  0  0  0  0  0  0  0  0  0
  139.2360   77.8510  222.7320 O   0  0  0  0  0  0  0  0  0  0  0  0
  141.2400   78.9970  222.9290 C   0  0  0  0  0  0  0  0  0  0  0  0
  142.5880   79.0320  222.6370 C   0  0  0  0  0  0  0  0  0  0  0  0
  143.3700   80.1000  223.0870 C   0  0  0  0  0  0  0  0  0  0  0  0
  142.8030   81.1200  223.8200 C   0  0  0  0  0  0  0  0  0  0  0  0
  141.4540   81.0960  224.1190 C   0  0  0  0  0  0  0  0  0  0  0  0
  140.6970   80.0300  223.6650 C   0  0  0  0  0  0  0  0  0  0  0  0
  141.4485   72.0745  220.1170 H   0  0  0  0  0  0  0  0  0  0  0  0
  140.8556   73.2784  218.9230 H   0  0  0  0  0  0  0  0  0  0  0  0
  142.5841   72.7896  218.9230 H   0  0  0  0  0  0  0  0  0  0  0  0
  143.3463   75.4431  221.3042 H   0  0  0  0  0  0  0  0  0  0  0  0
  144.0716   73.9025  220.6559 H   0  0  0  0  0  0  0  0  0  0  0  0
  144.7226   75.2491  218.9865 H   0  0  0  0  0  0  0  0  0  0  0  0
  143.0641   74.9259  218.3913 H   0  0  0  0  0  0  0  0  0  0  0  0
  143.9370   77.3900  219.9540 H   0  0  0  0  0  0  0  0  0  0  0  0
  143.4539   79.4245  217.3732 H   0  0  0  0  0  0  0  0  0  0  0  0
  143.1207   81.8576  217.6375 H   0  0  0  0  0  0  0  0  0  0  0  0
  142.0137   83.6383  218.7131 H   0  0  0  0  0  0  0  0  0  0  0  0
  139.0675   82.7678  221.7356 H   0  0  0  0  0  0  0  0  0  0  0  0
  139.4509   80.3485  221.4211 H   0  0  0  0  0  0  0  0  0  0  0  0
  139.9272   75.8429  220.1503 H   0  0  0  0  0  0  0  0  0  0  0  0
  139.2472   75.6384  221.7910 H   0  0  0  0  0  0  0  0  0  0  0  0
  142.0080   76.8380  221.4470 H   0  0  0  0  0  0  0  0  0  0  0  0
  143.0464   78.2214  222.0514 H   0  0  0  0  0  0  0  0  0  0  0  0
  144.4448   80.1263  222.8545 H   0  0  0  0  0  0  0  0  0  0  0  0
  143.4266   81.9565  224.1684 H   0  0  0  0  0  0  0  0  0  0  0  0
  140.9927   81.9052  224.7041 H   0  0  0  0  0  0  0  0  0  0  0  0
  139.6226   80.0054  223.8996 H   0  0  0  0  0  0  0  0  0  0  0  0
  1  2  1  0
  2  3  1  0
  3  4  1  0
  4  5  1  0
  5  6  1  0
  6  7  2  0
  6  8  1  0
  8  9  2  0
  9 10  1  0
 10 11  2  0
 11 12  1  0
 12 13  2  0
 13 14  1  0
 13 15  1  0
 15 16  2  0
 16 17  1  0
 17 18  2  0
  2 19  1  0
 19 20  2  0
 19 21  1  0
 21 22  1  0
 22 23  1  0
 23 24  2  0
 23 25  1  0
 25 26  2  0
 26 27  1  0
 27 28  2  0
 28 29  1  0
 29 30  2  0
 18  8  1  0
 30 25  1  0
 17 11  1  0
  1 31  1  0
  1 32  1  0
  1 33  1  0
  3 34  1  0
  3 35  1  0
  4 36  1  0
  4 37  1  0
  5 38  1  0
  9 39  1  0
 10 40  1  0
 12 41  1  0
 15 42  1  0
 16 43  1  0
 21 44  1  0
 21 45  1  0
 22 46  1  0
 26 47  1  0
 27 48  1  0
 28 49  1  0
 29 50  1  0
 30 51  1  0
M  END
>  <smiles>  (9) 
CN(CCNC(=O)c1ccc2cc(Cl)ccc2n1)C(=O)CNC(=O)c1ccccc1

>  <score_type>  (9) 
oracle

>  <origin>  (9) 
autodockgpu

>  <m_score__min__energy>  (9) 
-8.6300000000000008

>  <m_primary>  (9) 
energy

>  <rmsd>  (9) 
6.7975447704982965

>  <m_score__min__rmsd>  (9) 
6.7975447704982965

>  <meeko>  (9) 
{"free_energy": -7.22, "intermolecular_energy": -9.61, "internal_energy": -2.93, "cluster_size": 4, "cluster_id": 7, "rank_in_cluster": 2}

>  <energy>  (9) 
-7.48

>  <cluster_rmsd>  (9) 
1.95

>  <cluster>  (9) 
1

$$$$

     RDKit          3D

 51 53  0  0  0  0  0  0  0  0999 V2000
  135.0010   76.3460  224.2400 C   0  0  0  0  0  0  0  0  0  0  0  0
  135.6190   76.2050  222.9290 N   0  0  0  0  0  0  0  0  0  0  0  0
  135.7350   74.8970  222.2930 C   0  0  0  0  0  0  0  0  0  0  0  0
  137.1450   74.4000  222.2420 C   0  0  0  0  0  0  0  0  0  0  0  0
  137.9690   75.3990  221.5910 N   0  0  0  0  0  0  0  0  0  0  0  0
  139.3850   75.4240  221.6760 C   0  0  0  0  0  0  0  0  0  0  0  0
  140.0280   74.5760  222.3270 O   0  0  0  0  0  0  0  0  0  0  0  0
  140.1250   76.4800  220.9760 C   0  0  0  0  0  0  0  0  0  0  0  0
  141.4540   76.3350  220.6670 C   0  0  0  0  0  0  0  0  0  0  0  0
  142.2030   77.2900  220.0120 C   0  0  0  0  0  0  0  0  0  0  0  0
  141.5600   78.4560  219.6550 C   0  0  0  0  0  0  0  0  0  0  0  0
  142.2940   79.4180  219.0010 C   0  0  0  0  0  0  0  0  0  0  0  0
  141.6640   80.5930  218.6360 C   0  0  0  0  0  0  0  0  0  0  0  0
  142.5970   81.7990  217.8130 Cl  0  0  0  0  0  0  0  0  0  0  0  0
  140.3130   80.7560  218.9450 C   0  0  0  0  0  0  0  0  0  0  0  0
  139.6090   79.7640  219.6040 C   0  0  0  0  0  0  0  0  0  0  0  0
  140.2230   78.5980  219.9690 C   0  0  0  0  0  0  0  0  0  0  0  0
  139.5250   77.6450  220.6090 N   0  0  0  0  0  0  0  0  0  0  0  0
  136.0910   77.4000  222.3170 C   0  0  0  0  0  0  0  0  0  0  0  0
  136.1240   77.4140  221.0600 O   0  0  0  0  0  0  0  0  0  0  0  0
  136.5320   78.5910  223.0880 C   0  0  0  0  0  0  0  0  0  0  0  0
  137.9110   78.8770  222.7370 N   0  0  0  0  0  0  0  0  0  0  0  0
  138.7430   79.6890  223.5290 C   0  0  0  0  0  0  0  0  0  0  0  0
  138.2760   80.1890  224.5850 O   0  0  0  0  0  0  0  0  0  0  0  0
  140.1320   79.9990  223.2100 C   0  0  0  0  0  0  0  0  0  0  0  0
  141.0850   79.0280  223.4410 C   0  0  0  0  0  0  0  0  0  0  0  0
  142.4260   79.2870  223.1480 C   0  0  0  0  0  0  0  0  0  0  0  0
  142.8050   80.5060  222.6290 C   0  0  0  0  0  0  0  0  0  0  0  0
  141.8600   81.4870  222.3930 C   0  0  0  0  0  0  0  0  0  0  0  0
  140.5360   81.2110  222.6900 C   0  0  0  0  0  0  0  0  0  0  0  0
  135.7557   76.1738  225.0215 H   0  0  0  0  0  0  0  0  0  0  0  0
  134.5900   77.3610  224.3444 H   0  0  0  0  0  0  0  0  0  0  0  0
  134.1905   75.6097  224.3444 H   0  0  0  0  0  0  0  0  0  0  0  0
  135.1284   74.1755  222.8600 H   0  0  0  0  0  0  0  0  0  0  0  0
  135.3828   75.0006  221.2561 H   0  0  0  0  0  0  0  0  0  0  0  0
  137.5129   74.2261  223.2640 H   0  0  0  0  0  0  0  0  0  0  0  0
  137.1883   73.4555  221.6798 H   0  0  0  0  0  0  0  0  0  0  0  0
  137.5020   76.1560  221.0180 H   0  0  0  0  0  0  0  0  0  0  0  0
  141.9528   75.3993  220.9598 H   0  0  0  0  0  0  0  0  0  0  0  0
  143.2670   77.1284  219.7844 H   0  0  0  0  0  0  0  0  0  0  0  0
  143.3580   79.2560  218.7737 H   0  0  0  0  0  0  0  0  0  0  0  0
  139.8004   81.6867  218.6605 H   0  0  0  0  0  0  0  0  0  0  0  0
  138.5445   79.9148  219.8367 H   0  0  0  0  0  0  0  0  0  0  0  0
  135.8975   79.4533  222.8353 H   0  0  0  0  0  0  0  0  0  0  0  0
  136.4487   78.3956  224.1673 H   0  0  0  0  0  0  0  0  0  0  0  0
  138.3150   78.4700  221.8630 H   0  0  0  0  0  0  0  0  0  0  0  0
  140.7894   78.0526  223.8548 H   0  0  0  0  0  0  0  0  0  0  0  0
  143.1848   78.5124  223.3329 H   0  0  0  0  0  0  0  0  0  0  0  0
  143.8637   80.6992  222.4016 H   0  0  0  0  0  0  0  0  0  0  0  0
  142.1528   82.4633  221.9793 H   0  0  0  0  0  0  0  0  0  0  0  0
  139.7786   81.9868  222.5044 H   0  0  0  0  0  0  0  0  0  0  0  0
  1  2  1  0
  2  3  1  0
  3  4  1  0
  4  5  1  0
  5  6  1  0
  6  7  2  0
  6  8  1  0
  8  9  2  0
  9 10  1  0
 10 11  2  0
 11 12  1  0
 12 13  2  0
 13 14  1  0
 13 15  1  0
 15 16  2  0
 16 17  1  0
 17 18  2  0
  2 19  1  0
 19 20  2  0
 19 21  1  0
 21 22  1  0
 22 23  1  0
 23 24  2  0
 23 25  1  0
 25 26  2  0
 26 27  1  0
 27 28  2  0
 28 29  1  0
 29 30  2  0
 18  8  1  0
 30 25  1  0
 17 11  1  0
  1 31  1  0
  1 32  1  0
  1 33  1  0
  3 34  1  0
  3 35  1  0
  4 36  1  0
  4 37  1  0
  5 38  1  0
  9 39  1  0
 10 40  1  0
 12 41  1  0
 15 42  1  0
 16 43  1  0
 21 44  1  0
 21 45  1  0
 22 46  1  0
 26 47  1  0
 27 48  1  0
 28 49  1  0
 29 50  1  0
 30 51  1  0
M  END
>  <smiles>  (10) 
CN(CCNC(=O)c1ccc2cc(Cl)ccc2n1)C(=O)CNC(=O)c1ccccc1

>  <score_type>  (10) 
oracle

>  <origin>  (10) 
autodockgpu

>  <m_score__min__energy>  (10) 
-8.6300000000000008

>  <m_primary>  (10) 
energy

>  <rmsd>  (10) 
7.993388181037991

>  <m_score__min__rmsd>  (10) 
7.993388181037991

>  <meeko>  (10) 
{"free_energy": -5.24, "intermolecular_energy": -7.63, "internal_energy": -4.95, "cluster_size": 5, "cluster_id": 11, "rank_in_cluster": 5}

>  <energy>  (10) 
-8.53

>  <cluster_rmsd>  (10) 
0.0

>  <cluster>  (10) 
2

$$$$

     RDKit          3D

 51 53  0  0  0  0  0  0  0  0999 V2000
  140.6380   72.0480  220.4310 C   0  0  0  0  0  0  0  0  0  0  0  0
  140.1200   73.2830  219.8600 N   0  0  0  0  0  0  0  0  0  0  0  0
  138.6900   73.4580  219.6250 C   0  0  0  0  0  0  0  0  0  0  0  0
  137.9490   73.8870  220.8500 C   0  0  0  0  0  0  0  0  0  0  0  0
  138.3440   73.0380  221.9570 N   0  0  0  0  0  0  0  0  0  0  0  0
  138.0270   71.6580  222.0390 C   0  0  0  0  0  0  0  0  0  0  0  0
  137.3760   71.0700  221.1520 O   0  0  0  0  0  0  0  0  0  0  0  0
  138.4770   70.8880  223.2050 C   0  0  0  0  0  0  0  0  0  0  0  0
  138.0270   69.6130  223.4340 C   0  0  0  0  0  0  0  0  0  0  0  0
  138.4130   68.8390  224.5080 C   0  0  0  0  0  0  0  0  0  0  0  0
  139.3040   69.4000  225.3980 C   0  0  0  0  0  0  0  0  0  0  0  0
  139.6980   68.6410  226.4750 C   0  0  0  0  0  0  0  0  0  0  0  0
  140.5920   69.1890  227.3750 C   0  0  0  0  0  0  0  0  0  0  0  0
  141.0820   68.2250  228.7300 Cl  0  0  0  0  0  0  0  0  0  0  0  0
  141.0590   70.4860  227.1560 C   0  0  0  0  0  0  0  0  0  0  0  0
  140.6380   71.2170  226.0600 C   0  0  0  0  0  0  0  0  0  0  0  0
  139.7540   70.6840  225.1630 C   0  0  0  0  0  0  0  0  0  0  0  0
  139.3560   71.4080  224.1040 N   0  0  0  0  0  0  0  0  0  0  0  0
  141.0770   74.2900  219.5520 C   0  0  0  0  0  0  0  0  0  0  0  0
  140.9440   74.8730  218.4450 O   0  0  0  0  0  0  0  0  0  0  0  0
  142.1900   74.6630  220.4620 C   0  0  0  0  0  0  0  0  0  0  0  0
  141.8840   75.9530  221.0530 N   0  0  0  0  0  0  0  0  0  0  0  0
  140.8430   76.1340  221.9820 C   0  0  0  0  0  0  0  0  0  0  0  0
  140.1470   75.1410  222.3150 O   0  0  0  0  0  0  0  0  0  0  0  0
  140.5050   77.4130  222.5960 C   0  0  0  0  0  0  0  0  0  0  0  0
  139.1820   77.8030  222.6000 C   0  0  0  0  0  0  0  0  0  0  0  0
  138.8180   79.0220  223.1790 C   0  0  0  0  0  0  0  0  0  0  0  0
  139.7720   79.8360  223.7500 C   0  0  0  0  0  0  0  0  0  0  0  0
  141.1010   79.4560  223.7530 C   0  0  0  0  0  0  0  0  0  0  0  0
  141.4420   78.2450  223.1730 C   0  0  0  0  0  0  0  0  0  0  0  0
  140.6111   72.1121  221.5288 H   0  0  0  0  0  0  0  0  0  0  0  0
  140.0189   71.2020  220.0978 H   0  0  0  0  0  0  0  0  0  0  0  0
  141.6754   71.8968  220.0978 H   0  0  0  0  0  0  0  0  0  0  0  0
  138.5530   74.2223  218.8459 H   0  0  0  0  0  0  0  0  0  0  0  0
  138.2837   72.4833  219.3170 H   0  0  0  0  0  0  0  0  0  0  0  0
  138.1932   74.9342  221.0819 H   0  0  0  0  0  0  0  0  0  0  0  0
  136.8656   73.8001  220.6808 H   0  0  0  0  0  0  0  0  0  0  0  0
  138.8990   73.4580  222.7540 H   0  0  0  0  0  0  0  0  0  0  0  0
  137.3139   69.1809  222.7165 H   0  0  0  0  0  0  0  0  0  0  0  0
  138.0269   67.8186  224.6485 H   0  0  0  0  0  0  0  0  0  0  0  0
  139.3105   67.6213  226.6168 H   0  0  0  0  0  0  0  0  0  0  0  0
  141.7717   70.9329  227.8648 H   0  0  0  0  0  0  0  0  0  0  0  0
  141.0183   72.2380  225.9082 H   0  0  0  0  0  0  0  0  0  0  0  0
  142.2924   73.9062  221.2537 H   0  0  0  0  0  0  0  0  0  0  0  0
  143.1350   74.7179  219.9016 H   0  0  0  0  0  0  0  0  0  0  0  0
  142.4510   76.7890  220.7870 H   0  0  0  0  0  0  0  0  0  0  0  0
  138.4152   77.1563  222.1486 H   0  0  0  0  0  0  0  0  0  0  0  0
  137.7630   79.3336  223.1788 H   0  0  0  0  0  0  0  0  0  0  0  0
  139.4747   80.7922  224.2053 H   0  0  0  0  0  0  0  0  0  0  0  0
  141.8697   80.0999  224.2052 H   0  0  0  0  0  0  0  0  0  0  0  0
  142.4976   77.9358  223.1725 H   0  0  0  0  0  0  0  0  0  0  0  0
  1  2  1  0
  2  3  1  0
  3  4  1  0
  4  5  1  0
  5  6  1  0
  6  7  2  0
  6  8  1  0
  8  9  2  0
  9 10  1  0
 10 11  2  0
 11 12  1  0
 12 13  2  0
 13 14  1  0
 13 15  1  0
 15 16  2  0
 16 17  1  0
 17 18  2  0
  2 19  1  0
 19 20  2  0
 19 21  1  0
 21 22  1  0
 22 23  1  0
 23 24  2  0
 23 25  1  0
 25 26  2  0
 26 27  1  0
 27 28  2  0
 28 29  1  0
 29 30  2  0
 18  8  1  0
 30 25  1  0
 17 11  1  0
  1 31  1  0
  1 32  1  0
  1 33  1  0
  3 34  1  0
  3 35  1  0
  4 36  1  0
  4 37  1  0
  5 38  1  0
  9 39  1  0
 10 40  1  0
 12 41  1  0
 15 42  1  0
 16 43  1  0
 21 44  1  0
 21 45  1  0
 22 46  1  0
 26 47  1  0
 27 48  1  0
 28 49  1  0
 29 50  1  0
 30 51  1  0
M  END
>  <smiles>  (11) 
CN(CCNC(=O)c1ccc2cc(Cl)ccc2n1)C(=O)CNC(=O)c1ccccc1

>  <score_type>  (11) 
oracle

>  <origin>  (11) 
autodockgpu

>  <m_score__min__energy>  (11) 
-8.6300000000000008

>  <m_primary>  (11) 
energy

>  <rmsd>  (11) 
9.321740774588019

>  <m_score__min__rmsd>  (11) 
9.321740774588019

>  <meeko>  (11) 
{"free_energy": -7.54, "intermolecular_energy": -9.92, "internal_energy": -2.5, "cluster_size": 9, "cluster_id": 1, "rank_in_cluster": 8}

>  <energy>  (11) 
-8.28

>  <cluster_rmsd>  (11) 
1.49

>  <cluster>  (11) 
2

$$$$

     RDKit          3D

 51 53  0  0  0  0  0  0  0  0999 V2000
  139.7960   77.6760  220.3050 C   0  0  0  0  0  0  0  0  0  0  0  0
  140.0920   76.4050  220.9520 N   0  0  0  0  0  0  0  0  0  0  0  0
  141.2520   75.6140  220.5550 C   0  0  0  0  0  0  0  0  0  0  0  0
  140.8920   74.2250  220.1350 C   0  0  0  0  0  0  0  0  0  0  0  0
  140.7790   73.3940  221.3180 N   0  0  0  0  0  0  0  0  0  0  0  0
  140.0900   72.1550  221.3440 C   0  0  0  0  0  0  0  0  0  0  0  0
  139.5240   71.6870  220.3360 O   0  0  0  0  0  0  0  0  0  0  0  0
  140.0370   71.3910  222.5960 C   0  0  0  0  0  0  0  0  0  0  0  0
  139.4100   70.1730  222.6620 C   0  0  0  0  0  0  0  0  0  0  0  0
  139.3270   69.4080  223.8060 C   0  0  0  0  0  0  0  0  0  0  0  0
  139.9140   69.9170  224.9450 C   0  0  0  0  0  0  0  0  0  0  0  0
  139.8390   69.1660  226.0950 C   0  0  0  0  0  0  0  0  0  0  0  0
  140.4230   69.6610  227.2450 C   0  0  0  0  0  0  0  0  0  0  0  0
  140.3230   68.7080  228.6890 Cl  0  0  0  0  0  0  0  0  0  0  0  0
  141.0640   70.9000  227.1940 C   0  0  0  0  0  0  0  0  0  0  0  0
  141.1180   71.6250  226.0180 C   0  0  0  0  0  0  0  0  0  0  0  0
  140.5430   71.1440  224.8740 C   0  0  0  0  0  0  0  0  0  0  0  0
  140.6040   71.8610  223.7400 N   0  0  0  0  0  0  0  0  0  0  0  0
  139.1960   75.9910  221.9770 C   0  0  0  0  0  0  0  0  0  0  0  0
  139.5880   75.0580  222.7250 O   0  0  0  0  0  0  0  0  0  0  0  0
  137.8580   76.6020  222.1860 C   0  0  0  0  0  0  0  0  0  0  0  0
  137.1150   75.7670  223.1130 N   0  0  0  0  0  0  0  0  0  0  0  0
  135.8620   76.1390  223.6330 C   0  0  0  0  0  0  0  0  0  0  0  0
  135.3630   77.2390  223.2830 O   0  0  0  0  0  0  0  0  0  0  0  0
  135.0860   75.3280  224.5640 C   0  0  0  0  0  0  0  0  0  0  0  0
  134.3410   75.9770  225.5270 C   0  0  0  0  0  0  0  0  0  0  0  0
  133.5840   75.2350  226.4380 C   0  0  0  0  0  0  0  0  0  0  0  0
  133.5760   73.8590  226.3810 C   0  0  0  0  0  0  0  0  0  0  0  0
  134.3190   73.1970  225.4220 C   0  0  0  0  0  0  0  0  0  0  0  0
  135.0620   73.9490  224.5280 C   0  0  0  0  0  0  0  0  0  0  0  0
  139.6170   78.4446  221.0713 H   0  0  0  0  0  0  0  0  0  0  0  0
  140.6485   77.9753  219.6775 H   0  0  0  0  0  0  0  0  0  0  0  0
  138.8990   77.5679  219.6775 H   0  0  0  0  0  0  0  0  0  0  0  0
  141.7490   76.1178  219.7128 H   0  0  0  0  0  0  0  0  0  0  0  0
  141.9126   75.5336  221.4309 H   0  0  0  0  0  0  0  0  0  0  0  0
  139.9315   74.2380  219.5991 H   0  0  0  0  0  0  0  0  0  0  0  0
  141.6690   73.8227  219.4683 H   0  0  0  0  0  0  0  0  0  0  0  0
  141.2310   73.7190  222.2190 H   0  0  0  0  0  0  0  0  0  0  0  0
  138.9444   69.7822  221.7452 H   0  0  0  0  0  0  0  0  0  0  0  0
  138.8150   68.4344  223.8098 H   0  0  0  0  0  0  0  0  0  0  0  0
  139.3256   68.1932  226.0989 H   0  0  0  0  0  0  0  0  0  0  0  0
  141.5330   71.3054  228.1027 H   0  0  0  0  0  0  0  0  0  0  0  0
  141.6288   72.5991  226.0023 H   0  0  0  0  0  0  0  0  0  0  0  0
  137.9720   77.6126  222.6051 H   0  0  0  0  0  0  0  0  0  0  0  0
  137.3213   76.6756  221.2286 H   0  0  0  0  0  0  0  0  0  0  0  0
  137.5150   74.8490  223.4140 H   0  0  0  0  0  0  0  0  0  0  0  0
  134.3428   77.0758  225.5777 H   0  0  0  0  0  0  0  0  0  0  0  0
  132.9907   75.7535  227.2056 H   0  0  0  0  0  0  0  0  0  0  0  0
  132.9757   73.2845  227.1018 H   0  0  0  0  0  0  0  0  0  0  0  0
  134.3200   72.0982  225.3702 H   0  0  0  0  0  0  0  0  0  0  0  0
  135.6545   73.4283  223.7614 H   0  0  0  0  0  0  0  0  0  0  0  0
  1  2  1  0
  2  3  1  0
  3  4  1  0
  4  5  1  0
  5  6  1  0
  6  7  2  0
  6  8  1  0
  8  9  2  0
  9 10  1  0
 10 11  2  0
 11 12  1  0
 12 13  2  0
 13 14  1  0
 13 15  1  0
 15 16  2  0
 16 17  1  0
 17 18  2  0
  2 19  1  0
 19 20  2  0
 19 21  1  0
 21 22  1  0
 22 23  1  0
 23 24  2  0
 23 25  1  0
 25 26  2  0
 26 27  1  0
 27 28  2  0
 28 29  1  0
 29 30  2  0
 18  8  1  0
 30 25  1  0
 17 11  1  0
  1 31  1  0
  1 32  1  0
  1 33  1  0
  3 34  1  0
  3 35  1  0
  4 36  1  0
  4 37  1  0
  5 38  1  0
  9 39  1  0
 10 40  1  0
 12 41  1  0
 15 42  1  0
 16 43  1  0
 21 44  1  0
 21 45  1  0
 22 46  1  0
 26 47  1  0
 27 48  1  0
 28 49  1  0
 29 50  1  0
 30 51  1  0
M  END
>  <smiles>  (12) 
CN(CCNC(=O)c1ccc2cc(Cl)ccc2n1)C(=O)CNC(=O)c1ccccc1

>  <score_type>  (12) 
oracle

>  <origin>  (12) 
autodockgpu

>  <m_score__min__energy>  (12) 
-8.6300000000000008

>  <m_primary>  (12) 
energy

>  <rmsd>  (12) 
8.356232197368273

>  <m_score__min__rmsd>  (12) 
8.356232197368273

>  <meeko>  (12) 
{"free_energy": -6.92, "intermolecular_energy": -9.31, "internal_energy": -2.71, "cluster_size": 1, "cluster_id": 8, "rank_in_cluster": 1}

>  <energy>  (12) 
-8.11

>  <cluster_rmsd>  (12) 
1.14

>  <cluster>  (12) 
2

$$$$

     RDKit          3D

 51 53  0  0  0  0  0  0  0  0999 V2000
  137.2760   76.3850  222.4840 C   0  0  0  0  0  0  0  0  0  0  0  0
  137.9560   75.3990  221.6560 N   0  0  0  0  0  0  0  0  0  0  0  0
  137.2000   74.4020  220.9060 C   0  0  0  0  0  0  0  0  0  0  0  0
  137.9900   73.1640  220.6260 C   0  0  0  0  0  0  0  0  0  0  0  0
  138.5110   72.6480  221.8760 N   0  0  0  0  0  0  0  0  0  0  0  0
  139.0580   71.3480  222.0230 C   0  0  0  0  0  0  0  0  0  0  0  0
  139.1290   70.5450  221.0710 O   0  0  0  0  0  0  0  0  0  0  0  0
  139.5600   70.9260  223.3360 C   0  0  0  0  0  0  0  0  0  0  0  0
  140.2980   71.7710  224.1230 C   0  0  0  0  0  0  0  0  0  0  0  0
  140.7960   71.4330  225.3640 C   0  0  0  0  0  0  0  0  0  0  0  0
  140.5270   70.1620  225.8240 C   0  0  0  0  0  0  0  0  0  0  0  0
  141.0170   69.8100  227.0590 C   0  0  0  0  0  0  0  0  0  0  0  0
  140.7550   68.5390  227.5350 C   0  0  0  0  0  0  0  0  0  0  0  0
  141.3770   68.1040  229.0930 Cl  0  0  0  0  0  0  0  0  0  0  0  0
  140.0050   67.6670  226.7450 C   0  0  0  0  0  0  0  0  0  0  0  0
  139.5300   68.0590  225.5070 C   0  0  0  0  0  0  0  0  0  0  0  0
  139.7830   69.3140  225.0270 C   0  0  0  0  0  0  0  0  0  0  0  0
  139.3140   69.6790  223.8230 N   0  0  0  0  0  0  0  0  0  0  0  0
  139.3770   75.4670  221.6250 C   0  0  0  0  0  0  0  0  0  0  0  0
  139.9970   74.6270  222.3280 O   0  0  0  0  0  0  0  0  0  0  0  0
  140.1280   76.4640  220.8190 C   0  0  0  0  0  0  0  0  0  0  0  0
  140.8540   77.3330  221.7290 N   0  0  0  0  0  0  0  0  0  0  0  0
  140.8470   78.7340  221.6080 C   0  0  0  0  0  0  0  0  0  0  0  0
  140.1860   79.2590  220.6750 O   0  0  0  0  0  0  0  0  0  0  0  0
  141.5620   79.6390  222.5010 C   0  0  0  0  0  0  0  0  0  0  0  0
  140.8220   80.5190  223.2630 C   0  0  0  0  0  0  0  0  0  0  0  0
  141.4710   81.4020  224.1310 C   0  0  0  0  0  0  0  0  0  0  0  0
  142.8460   81.3990  224.2310 C   0  0  0  0  0  0  0  0  0  0  0  0
  143.5970   80.5220  223.4720 C   0  0  0  0  0  0  0  0  0  0  0  0
  142.9360   79.6550  222.6190 C   0  0  0  0  0  0  0  0  0  0  0  0
  137.4396   76.1478  223.5456 H   0  0  0  0  0  0  0  0  0  0  0  0
  137.6767   77.3859  222.2660 H   0  0  0  0  0  0  0  0  0  0  0  0
  136.1980   76.3661  222.2660 H   0  0  0  0  0  0  0  0  0  0  0  0
  136.3088   74.1257  221.4886 H   0  0  0  0  0  0  0  0  0  0  0  0
  136.9326   74.8497  219.9375 H   0  0  0  0  0  0  0  0  0  0  0  0
  137.3410   72.4098  220.1569 H   0  0  0  0  0  0  0  0  0  0  0  0
  138.8206   73.3978  219.9438 H   0  0  0  0  0  0  0  0  0  0  0  0
  138.4880   73.2670  222.7360 H   0  0  0  0  0  0  0  0  0  0  0  0
  140.5061   72.7815  223.7413 H   0  0  0  0  0  0  0  0  0  0  0  0
  141.3825   72.1470  225.9608 H   0  0  0  0  0  0  0  0  0  0  0  0
  141.6045   70.5237  227.6552 H   0  0  0  0  0  0  0  0  0  0  0  0
  139.7885   66.6530  227.1124 H   0  0  0  0  0  0  0  0  0  0  0  0
  138.9421   67.3534  224.9016 H   0  0  0  0  0  0  0  0  0  0  0  0
  140.8357   75.9475  220.1539 H   0  0  0  0  0  0  0  0  0  0  0  0
  139.4332   77.0550  220.2042 H   0  0  0  0  0  0  0  0  0  0  0  0
  141.4080   76.9130  222.5090 H   0  0  0  0  0  0  0  0  0  0  0  0
  139.7246   80.5260  223.1879 H   0  0  0  0  0  0  0  0  0  0  0  0
  140.8806   82.1039  224.7383 H   0  0  0  0  0  0  0  0  0  0  0  0
  143.3470   82.0973  224.9175 H   0  0  0  0  0  0  0  0  0  0  0  0
  144.6946   80.5130  223.5439 H   0  0  0  0  0  0  0  0  0  0  0  0
  143.5282   78.9533  222.0133 H   0  0  0  0  0  0  0  0  0  0  0  0
  1  2  1  0
  2  3  1  0
  3  4  1  0
  4  5  1  0
  5  6  1  0
  6  7  2  0
  6  8  1  0
  8  9  2  0
  9 10  1  0
 10 11  2  0
 11 12  1  0
 12 13  2  0
 13 14  1  0
 13 15  1  0
 15 16  2  0
 16 17  1  0
 17 18  2  0
  2 19  1  0
 19 20  2  0
 19 21  1  0
 21 22  1  0
 22 23  1  0
 23 24  2  0
 23 25  1  0
 25 26  2  0
 26 27  1  0
 27 28  2  0
 28 29  1  0
 29 30  2  0
 18  8  1  0
 30 25  1  0
 17 11  1  0
  1 31  1  0
  1 32  1  0
  1 33  1  0
  3 34  1  0
  3 35  1  0
  4 36  1  0
  4 37  1  0
  5 38  1  0
  9 39  1  0
 10 40  1  0
 12 41  1  0
 15 42  1  0
 16 43  1  0
 21 44  1  0
 21 45  1  0
 22 46  1  0
 26 47  1  0
 27 48  1  0
 28 49  1  0
 29 50  1  0
 30 51  1  0
M  END
>  <smiles>  (13) 
CN(CCNC(=O)c1ccc2cc(Cl)ccc2n1)C(=O)CNC(=O)c1ccccc1

>  <score_type>  (13) 
oracle

>  <origin>  (13) 
autodockgpu

>  <m_score__min__energy>  (13) 
-8.6300000000000008

>  <m_primary>  (13) 
energy

>  <rmsd>  (13) 
9.59845766816127

>  <m_score__min__rmsd>  (13) 
9.59845766816127

>  <meeko>  (13) 
{"free_energy": -8.53, "intermolecular_energy": -10.92, "internal_energy": -1.9, "cluster_size": 10, "cluster_id": 2, "rank_in_cluster": 1}

>  <energy>  (13) 
-8.08

>  <cluster_rmsd>  (13) 
1.41

>  <cluster>  (13) 
2

$$$$

     RDKit          3D

 51 53  0  0  0  0  0  0  0  0999 V2000
  135.7900   74.9460  222.9190 C   0  0  0  0  0  0  0  0  0  0  0  0
  136.9670   74.8590  222.0660 N   0  0  0  0  0  0  0  0  0  0  0  0
  136.9920   73.9610  220.9150 C   0  0  0  0  0  0  0  0  0  0  0  0
  138.3320   73.3330  220.6990 C   0  0  0  0  0  0  0  0  0  0  0  0
  138.6730   72.5440  221.8660 N   0  0  0  0  0  0  0  0  0  0  0  0
  138.7860   71.1310  221.8520 C   0  0  0  0  0  0  0  0  0  0  0  0
  138.5960   70.4580  220.8190 O   0  0  0  0  0  0  0  0  0  0  0  0
  139.1390   70.4280  223.0920 C   0  0  0  0  0  0  0  0  0  0  0  0
  138.8560   69.0970  223.2630 C   0  0  0  0  0  0  0  0  0  0  0  0
  139.1620   68.3830  224.4010 C   0  0  0  0  0  0  0  0  0  0  0  0
  139.7890   69.0650  225.4220 C   0  0  0  0  0  0  0  0  0  0  0  0
  140.1000   68.3660  226.5640 C   0  0  0  0  0  0  0  0  0  0  0  0
  140.7300   69.0360  227.5960 C   0  0  0  0  0  0  0  0  0  0  0  0
  141.1180   68.1470  229.0320 Cl  0  0  0  0  0  0  0  0  0  0  0  0
  141.0240   70.3910  227.4370 C   0  0  0  0  0  0  0  0  0  0  0  0
  140.6950   71.0590  226.2720 C   0  0  0  0  0  0  0  0  0  0  0  0
  140.0720   70.4050  225.2450 C   0  0  0  0  0  0  0  0  0  0  0  0
  139.7580   71.0690  224.1200 N   0  0  0  0  0  0  0  0  0  0  0  0
  138.0680   75.6870  222.4160 C   0  0  0  0  0  0  0  0  0  0  0  0
  139.1940   75.1290  222.4820 O   0  0  0  0  0  0  0  0  0  0  0  0
  137.9380   77.1400  222.6980 C   0  0  0  0  0  0  0  0  0  0  0  0
  139.2710   77.6950  222.8580 N   0  0  0  0  0  0  0  0  0  0  0  0
  139.5010   79.0650  223.0790 C   0  0  0  0  0  0  0  0  0  0  0  0
  138.5150   79.8440  223.1400 O   0  0  0  0  0  0  0  0  0  0  0  0
  140.8230   79.6590  223.2450 C   0  0  0  0  0  0  0  0  0  0  0  0
  140.9070   80.9040  223.8330 C   0  0  0  0  0  0  0  0  0  0  0  0
  142.1550   81.5060  224.0090 C   0  0  0  0  0  0  0  0  0  0  0  0
  143.3040   80.8650  223.6000 C   0  0  0  0  0  0  0  0  0  0  0  0
  143.2330   79.6180  223.0090 C   0  0  0  0  0  0  0  0  0  0  0  0
  141.9870   79.0370  222.8430 C   0  0  0  0  0  0  0  0  0  0  0  0
  136.0995   74.9231  223.9743 H   0  0  0  0  0  0  0  0  0  0  0  0
  135.2569   75.8860  222.7135 H   0  0  0  0  0  0  0  0  0  0  0  0
  135.1245   74.0946  222.7135 H   0  0  0  0  0  0  0  0  0  0  0  0
  136.2518   73.1633  221.0754 H   0  0  0  0  0  0  0  0  0  0  0  0
  136.7592   74.5601  220.0223 H   0  0  0  0  0  0  0  0  0  0  0  0
  138.2972   72.6840  219.8115 H   0  0  0  0  0  0  0  0  0  0  0  0
  139.0898   74.1149  220.5427 H   0  0  0  0  0  0  0  0  0  0  0  0
  138.8500   73.0380  222.7860 H   0  0  0  0  0  0  0  0  0  0  0  0
  138.3536   68.5666  222.4407 H   0  0  0  0  0  0  0  0  0  0  0  0
  138.9165   67.3145  224.4910 H   0  0  0  0  0  0  0  0  0  0  0  0
  139.8532   67.2979  226.6546 H   0  0  0  0  0  0  0  0  0  0  0  0
  141.5250   70.9357  228.2508 H   0  0  0  0  0  0  0  0  0  0  0  0
  140.9368   72.1273  226.1701 H   0  0  0  0  0  0  0  0  0  0  0  0
  137.4263   77.6370  221.8607 H   0  0  0  0  0  0  0  0  0  0  0  0
  137.3498   77.2970  223.6142 H   0  0  0  0  0  0  0  0  0  0  0  0
  140.1010   77.0620  222.8100 H   0  0  0  0  0  0  0  0  0  0  0  0
  139.9937   81.4212  224.1623 H   0  0  0  0  0  0  0  0  0  0  0  0
  142.2210   82.4990  224.4775 H   0  0  0  0  0  0  0  0  0  0  0  0
  144.2817   81.3479  223.7445 H   0  0  0  0  0  0  0  0  0  0  0  0
  144.1447   79.0990  222.6782 H   0  0  0  0  0  0  0  0  0  0  0  0
  141.9230   78.0441  222.3739 H   0  0  0  0  0  0  0  0  0  0  0  0
  1  2  1  0
  2  3  1  0
  3  4  1  0
  4  5  1  0
  5  6  1  0
  6  7  2  0
  6  8  1  0
  8  9  2  0
  9 10  1  0
 10 11  2  0
 11 12  1  0
 12 13  2  0
 13 14  1  0
 13 15  1  0
 15 16  2  0
 16 17  1  0
 17 18  2  0
  2 19  1  0
 19 20  2  0
 19 21  1  0
 21 22  1  0
 22 23  1  0
 23 24  2  0
 23 25  1  0
 25 26  2  0
 26 27  1  0
 27 28  2  0
 28 29  1  0
 29 30  2  0
 18  8  1  0
 30 25  1  0
 17 11  1  0
  1 31  1  0
  1 32  1  0
  1 33  1  0
  3 34  1  0
  3 35  1  0
  4 36  1  0
  4 37  1  0
  5 38  1  0
  9 39  1  0
 10 40  1  0
 12 41  1  0
 15 42  1  0
 16 43  1  0
 21 44  1  0
 21 45  1  0
 22 46  1  0
 26 47  1  0
 27 48  1  0
 28 49  1  0
 29 50  1  0
 30 51  1  0
M  END
>  <smiles>  (14) 
CN(CCNC(=O)c1ccc2cc(Cl)ccc2n1)C(=O)CNC(=O)c1ccccc1

>  <score_type>  (14) 
oracle

>  <origin>  (14) 
autodockgpu

>  <m_score__min__energy>  (14) 
-8.6300000000000008

>  <m_primary>  (14) 
energy

>  <rmsd>  (14) 
10.250263810169464

>  <m_score__min__rmsd>  (14) 
10.250263810169464

>  <meeko>  (14) 
{"free_energy": -7.74, "intermolecular_energy": -10.13, "internal_energy": -2.48, "cluster_size": 10, "cluster_id": 2, "rank_in_cluster": 6}

>  <energy>  (14) 
-7.77

>  <cluster_rmsd>  (14) 
1.34

>  <cluster>  (14) 
2

$$$$

     RDKit          3D

 51 53  0  0  0  0  0  0  0  0999 V2000
  134.2380   76.8680  223.6140 C   0  0  0  0  0  0  0  0  0  0  0  0
  135.6100   76.8490  223.1260 N   0  0  0  0  0  0  0  0  0  0  0  0
  136.5150   75.7600  223.4800 C   0  0  0  0  0  0  0  0  0  0  0  0
  137.0690   75.0550  222.2830 C   0  0  0  0  0  0  0  0  0  0  0  0
  137.9500   75.9600  221.5730 N   0  0  0  0  0  0  0  0  0  0  0  0
  139.3650   75.8640  221.6040 C   0  0  0  0  0  0  0  0  0  0  0  0
  139.9580   74.9790  222.2540 O   0  0  0  0  0  0  0  0  0  0  0  0
  140.1660   76.8330  220.8470 C   0  0  0  0  0  0  0  0  0  0  0  0
  141.4610   76.5620  220.4880 C   0  0  0  0  0  0  0  0  0  0  0  0
  142.2630   77.4300  219.7770 C   0  0  0  0  0  0  0  0  0  0  0  0
  141.7120   78.6410  219.4160 C   0  0  0  0  0  0  0  0  0  0  0  0
  142.5000   79.5180  218.7070 C   0  0  0  0  0  0  0  0  0  0  0  0
  141.9620   80.7350  218.3370 C   0  0  0  0  0  0  0  0  0  0  0  0
  142.9620   81.8340  217.4440 Cl  0  0  0  0  0  0  0  0  0  0  0  0
  140.6450   81.0260  218.6950 C   0  0  0  0  0  0  0  0  0  0  0  0
  139.8850   80.1170  219.4080 C   0  0  0  0  0  0  0  0  0  0  0  0
  140.4080   78.9090  219.7800 C   0  0  0  0  0  0  0  0  0  0  0  0
  139.6560   78.0380  220.4720 N   0  0  0  0  0  0  0  0  0  0  0  0
  136.0050   77.9370  222.3000 C   0  0  0  0  0  0  0  0  0  0  0  0
  135.9370   77.7540  221.0570 O   0  0  0  0  0  0  0  0  0  0  0  0
  136.4800   79.2380  222.8370 C   0  0  0  0  0  0  0  0  0  0  0  0
  137.8930   79.3710  222.5270 N   0  0  0  0  0  0  0  0  0  0  0  0
  138.8330   79.8460  223.4600 C   0  0  0  0  0  0  0  0  0  0  0  0
  138.4360   80.1700  224.6090 O   0  0  0  0  0  0  0  0  0  0  0  0
  140.2570   79.9930  223.1870 C   0  0  0  0  0  0  0  0  0  0  0  0
  141.0730   78.8980  223.3840 C   0  0  0  0  0  0  0  0  0  0  0  0
  142.4450   78.9990  223.1330 C   0  0  0  0  0  0  0  0  0  0  0  0
  142.9880   80.1860  222.6910 C   0  0  0  0  0  0  0  0  0  0  0  0
  142.1810   81.2900  222.4910 C   0  0  0  0  0  0  0  0  0  0  0  0
  140.8250   81.1700  222.7440 C   0  0  0  0  0  0  0  0  0  0  0  0
  134.2401   76.8680  224.7140 H   0  0  0  0  0  0  0  0  0  0  0  0
  133.7313   77.7732  223.2483 H   0  0  0  0  0  0  0  0  0  0  0  0
  133.7064   75.9771  223.2483 H   0  0  0  0  0  0  0  0  0  0  0  0
  137.3513   76.1734  224.0628 H   0  0  0  0  0  0  0  0  0  0  0  0
  135.9378   75.0248  224.0599 H   0  0  0  0  0  0  0  0  0  0  0  0
  137.6330   74.1672  222.6052 H   0  0  0  0  0  0  0  0  0  0  0  0
  136.2479   74.7388  221.6228 H   0  0  0  0  0  0  0  0  0  0  0  0
  137.5280   76.7410  220.9970 H   0  0  0  0  0  0  0  0  0  0  0  0
  141.8868   75.5923  220.7854 H   0  0  0  0  0  0  0  0  0  0  0  0
  143.2972   77.1674  219.5096 H   0  0  0  0  0  0  0  0  0  0  0  0
  143.5347   79.2559  218.4409 H   0  0  0  0  0  0  0  0  0  0  0  0
  140.2053   81.9920  218.4060 H   0  0  0  0  0  0  0  0  0  0  0  0
  138.8488   80.3680  219.6789 H   0  0  0  0  0  0  0  0  0  0  0  0
  135.9179   80.0604  222.3705 H   0  0  0  0  0  0  0  0  0  0  0  0
  136.3254   79.2779  223.9254 H   0  0  0  0  0  0  0  0  0  0  0  0
  138.2390   79.1070  221.5780 H   0  0  0  0  0  0  0  0  0  0  0  0
  140.6455   77.9481  223.7376 H   0  0  0  0  0  0  0  0  0  0  0  0
  143.0949   78.1254  223.2894 H   0  0  0  0  0  0  0  0  0  0  0  0
  144.0685   80.2551  222.4965 H   0  0  0  0  0  0  0  0  0  0  0  0
  142.6060   82.2416  222.1391 H   0  0  0  0  0  0  0  0  0  0  0  0
  140.1769   82.0447  222.5861 H   0  0  0  0  0  0  0  0  0  0  0  0
  1  2  1  0
  2  3  1  0
  3  4  1  0
  4  5  1  0
  5  6  1  0
  6  7  2  0
  6  8  1  0
  8  9  2  0
  9 10  1  0
 10 11  2  0
 11 12  1  0
 12 13  2  0
 13 14  1  0
 13 15  1  0
 15 16  2  0
 16 17  1  0
 17 18  2  0
  2 19  1  0
 19 20  2  0
 19 21  1  0
 21 22  1  0
 22 23  1  0
 23 24  2  0
 23 25  1  0
 25 26  2  0
 26 27  1  0
 27 28  2  0
 28 29  1  0
 29 30  2  0
 18  8  1  0
 30 25  1  0
 17 11  1  0
  1 31  1  0
  1 32  1  0
  1 33  1  0
  3 34  1  0
  3 35  1  0
  4 36  1  0
  4 37  1  0
  5 38  1  0
  9 39  1  0
 10 40  1  0
 12 41  1  0
 15 42  1  0
 16 43  1  0
 21 44  1  0
 21 45  1  0
 22 46  1  0
 26 47  1  0
 27 48  1  0
 28 49  1  0
 29 50  1  0
 30 51  1  0
M  END
>  <smiles>  (15) 
CN(CCNC(=O)c1ccc2cc(Cl)ccc2n1)C(=O)CNC(=O)c1ccccc1

>  <score_type>  (15) 
oracle

>  <origin>  (15) 
autodockgpu

>  <m_score__min__energy>  (15) 
-8.6300000000000008

>  <m_primary>  (15) 
energy

>  <rmsd>  (15) 
7.98482002370947

>  <m_score__min__rmsd>  (15) 
7.98482002370947

>  <meeko>  (15) 
{"free_energy": -5.28, "intermolecular_energy": -7.66, "internal_energy": -4.84, "cluster_size": 5, "cluster_id": 11, "rank_in_cluster": 4}

>  <energy>  (15) 
-7.74

>  <cluster_rmsd>  (15) 
1.16

>  <cluster>  (15) 
2

$$$$

     RDKit          3D

 51 53  0  0  0  0  0  0  0  0999 V2000
  140.0990   75.4000  218.1960 C   0  0  0  0  0  0  0  0  0  0  0  0
  139.8650   74.4210  219.2480 N   0  0  0  0  0  0  0  0  0  0  0  0
  138.5130   73.9770  219.5710 C   0  0  0  0  0  0  0  0  0  0  0  0
  138.0040   74.5530  220.8530 C   0  0  0  0  0  0  0  0  0  0  0  0
  138.3630   73.6630  221.9400 N   0  0  0  0  0  0  0  0  0  0  0  0
  138.1350   72.2640  221.9160 C   0  0  0  0  0  0  0  0  0  0  0  0
  137.6000   71.6930  220.9450 O   0  0  0  0  0  0  0  0  0  0  0  0
  138.5390   71.4520  223.0710 C   0  0  0  0  0  0  0  0  0  0  0  0
  137.9020   70.2760  223.3740 C   0  0  0  0  0  0  0  0  0  0  0  0
  138.2350   69.4710  224.4430 C   0  0  0  0  0  0  0  0  0  0  0  0
  139.2730   69.8910  225.2460 C   0  0  0  0  0  0  0  0  0  0  0  0
  139.6170   69.0980  226.3160 C   0  0  0  0  0  0  0  0  0  0  0  0
  140.6570   69.5050  227.1300 C   0  0  0  0  0  0  0  0  0  0  0  0
  141.0820   68.5000  228.4760 Cl  0  0  0  0  0  0  0  0  0  0  0  0
  141.3150   70.7000  226.8350 C   0  0  0  0  0  0  0  0  0  0  0  0
  140.9390   71.4690  225.7490 C   0  0  0  0  0  0  0  0  0  0  0  0
  139.9120   71.0750  224.9370 C   0  0  0  0  0  0  0  0  0  0  0  0
  139.5590   71.8340  223.8860 N   0  0  0  0  0  0  0  0  0  0  0  0
  141.0160   73.9310  219.9270 C   0  0  0  0  0  0  0  0  0  0  0  0
  141.8350   73.2670  219.2410 O   0  0  0  0  0  0  0  0  0  0  0  0
  141.2730   74.1700  221.3710 C   0  0  0  0  0  0  0  0  0  0  0  0
  141.6110   75.5710  221.5480 N   0  0  0  0  0  0  0  0  0  0  0  0
  140.7770   76.4730  222.2340 C   0  0  0  0  0  0  0  0  0  0  0  0
  139.6930   76.0510  222.7140 O   0  0  0  0  0  0  0  0  0  0  0  0
  141.0820   77.8840  222.4330 C   0  0  0  0  0  0  0  0  0  0  0  0
  141.6400   78.2660  223.6350 C   0  0  0  0  0  0  0  0  0  0  0  0
  141.9460   79.6110  223.8640 C   0  0  0  0  0  0  0  0  0  0  0  0
  141.6950   80.5580  222.8950 C   0  0  0  0  0  0  0  0  0  0  0  0
  141.1360   80.1880  221.6870 C   0  0  0  0  0  0  0  0  0  0  0  0
  140.8400   78.8520  221.4790 C   0  0  0  0  0  0  0  0  0  0  0  0
  140.3321   76.3753  218.6481 H   0  0  0  0  0  0  0  0  0  0  0  0
  140.9444   75.0734  217.5726 H   0  0  0  0  0  0  0  0  0  0  0  0
  139.1973   75.4909  217.5726 H   0  0  0  0  0  0  0  0  0  0  0  0
  137.8392   74.2820  218.7568 H   0  0  0  0  0  0  0  0  0  0  0  0
  138.5431   72.8837  219.6884 H   0  0  0  0  0  0  0  0  0  0  0  0
  138.4567   75.5416  221.0197 H   0  0  0  0  0  0  0  0  0  0  0  0
  136.9105   74.6628  220.8054 H   0  0  0  0  0  0  0  0  0  0  0  0
  138.8220   74.0670  222.8040 H   0  0  0  0  0  0  0  0  0  0  0  0
  137.0744   69.9550  222.7243 H   0  0  0  0  0  0  0  0  0  0  0  0
  137.6954   68.5342  224.6459 H   0  0  0  0  0  0  0  0  0  0  0  0
  139.0768   68.1615  226.5190 H   0  0  0  0  0  0  0  0  0  0  0  0
  142.1443   71.0348  227.4754 H   0  0  0  0  0  0  0  0  0  0  0  0
  141.4717   72.4076  225.5362 H   0  0  0  0  0  0  0  0  0  0  0  0
  140.3722   73.9281  221.9542 H   0  0  0  0  0  0  0  0  0  0  0  0
  142.0999   73.5336  221.7193 H   0  0  0  0  0  0  0  0  0  0  0  0
  142.5070   75.9380  221.1560 H   0  0  0  0  0  0  0  0  0  0  0  0
  141.8439   77.5143  224.4118 H   0  0  0  0  0  0  0  0  0  0  0  0
  142.3898   79.9150  224.8235 H   0  0  0  0  0  0  0  0  0  0  0  0
  141.9408   81.6134  223.0842 H   0  0  0  0  0  0  0  0  0  0  0  0
  140.9309   80.9377  220.9086 H   0  0  0  0  0  0  0  0  0  0  0  0
  140.3959   78.5507  220.5188 H   0  0  0  0  0  0  0  0  0  0  0  0
  1  2  1  0
  2  3  1  0
  3  4  1  0
  4  5  1  0
  5  6  1  0
  6  7  2  0
  6  8  1  0
  8  9  2  0
  9 10  1  0
 10 11  2  0
 11 12  1  0
 12 13  2  0
 13 14  1  0
 13 15  1  0
 15 16  2  0
 16 17  1  0
 17 18  2  0
  2 19  1  0
 19 20  2  0
 19 21  1  0
 21 22  1  0
 22 23  1  0
 23 24  2  0
 23 25  1  0
 25 26  2  0
 26 27  1  0
 27 28  2  0
 28 29  1  0
 29 30  2  0
 18  8  1  0
 30 25  1  0
 17 11  1  0
  1 31  1  0
  1 32  1  0
  1 33  1  0
  3 34  1  0
  3 35  1  0
  4 36  1  0
  4 37  1  0
  5 38  1  0
  9 39  1  0
 10 40  1  0
 12 41  1  0
 15 42  1  0
 16 43  1  0
 21 44  1  0
 21 45  1  0
 22 46  1  0
 26 47  1  0
 27 48  1  0
 28 49  1  0
 29 50  1  0
 30 51  1  0
M  END
>  <smiles>  (16) 
CN(CCNC(=O)c1ccc2cc(Cl)ccc2n1)C(=O)CNC(=O)c1ccccc1

>  <score_type>  (16) 
oracle

>  <origin>  (16) 
autodockgpu

>  <m_score__min__energy>  (16) 
-8.6300000000000008

>  <m_primary>  (16) 
energy

>  <rmsd>  (16) 
9.311306774225214

>  <m_score__min__rmsd>  (16) 
9.311306774225214

>  <meeko>  (16) 
{"free_energy": -7.48, "intermolecular_energy": -9.87, "internal_energy": -2.46, "cluster_size": 9, "cluster_id": 1, "rank_in_cluster": 9}

>  <energy>  (16) 
-7.58

>  <cluster_rmsd>  (16) 
1.58

>  <cluster>  (16) 
2

$$$$

     RDKit          3D

 51 53  0  0  0  0  0  0  0  0999 V2000
  143.9300   73.1940  220.8520 C   0  0  0  0  0  0  0  0  0  0  0  0
  143.0530   73.9080  219.9340 N   0  0  0  0  0  0  0  0  0  0  0  0
  142.2030   73.1830  218.9950 C   0  0  0  0  0  0  0  0  0  0  0  0
  140.7700   73.1450  219.4210 C   0  0  0  0  0  0  0  0  0  0  0  0
  140.6580   72.3310  220.6150 N   0  0  0  0  0  0  0  0  0  0  0  0
  140.2320   72.8330  221.8700 C   0  0  0  0  0  0  0  0  0  0  0  0
  139.9200   74.0300  222.0370 O   0  0  0  0  0  0  0  0  0  0  0  0
  140.1530   71.9220  223.0180 C   0  0  0  0  0  0  0  0  0  0  0  0
  139.4960   70.7210  222.9310 C   0  0  0  0  0  0  0  0  0  0  0  0
  139.3880   69.8240  223.9720 C   0  0  0  0  0  0  0  0  0  0  0  0
  139.9810   70.1720  225.1670 C   0  0  0  0  0  0  0  0  0  0  0  0
  139.8810   69.2870  226.2150 C   0  0  0  0  0  0  0  0  0  0  0  0
  140.4720   69.6220  227.4180 C   0  0  0  0  0  0  0  0  0  0  0  0
  140.3400   68.5000  228.7330 Cl  0  0  0  0  0  0  0  0  0  0  0  0
  141.1440   70.8410  227.5220 C   0  0  0  0  0  0  0  0  0  0  0  0
  141.2220   71.7040  226.4450 C   0  0  0  0  0  0  0  0  0  0  0  0
  140.6410   71.3820  225.2490 C   0  0  0  0  0  0  0  0  0  0  0  0
  140.7270   72.2320  224.2120 N   0  0  0  0  0  0  0  0  0  0  0  0
  143.0760   75.3280  220.0090 C   0  0  0  0  0  0  0  0  0  0  0  0
  144.2100   75.8720  220.0550 O   0  0  0  0  0  0  0  0  0  0  0  0
  141.8480   76.1640  220.0360 C   0  0  0  0  0  0  0  0  0  0  0  0
  142.1550   77.4060  220.7210 N   0  0  0  0  0  0  0  0  0  0  0  0
  141.2420   78.0470  221.5780 C   0  0  0  0  0  0  0  0  0  0  0  0
  140.1120   77.5240  221.7610 O   0  0  0  0  0  0  0  0  0  0  0  0
  141.5140   79.2940  222.2830 C   0  0  0  0  0  0  0  0  0  0  0  0
  142.5910   79.3320  223.1460 C   0  0  0  0  0  0  0  0  0  0  0  0
  142.8840   80.5090  223.8400 C   0  0  0  0  0  0  0  0  0  0  0  0
  142.1050   81.6330  223.6680 C   0  0  0  0  0  0  0  0  0  0  0  0
  141.0250   81.6070  222.8080 C   0  0  0  0  0  0  0  0  0  0  0  0
  140.7500   80.4320  222.1290 C   0  0  0  0  0  0  0  0  0  0  0  0
  143.6439   73.4269  221.8883 H   0  0  0  0  0  0  0  0  0  0  0  0
  143.8371   72.1114  220.6805 H   0  0  0  0  0  0  0  0  0  0  0  0
  144.9712   73.5044  220.6805 H   0  0  0  0  0  0  0  0  0  0  0  0
  142.2648   73.6748  218.0130 H   0  0  0  0  0  0  0  0  0  0  0  0
  142.5643   72.1448  218.9548 H   0  0  0  0  0  0  0  0  0  0  0  0
  140.4212   74.1659  219.6357 H   0  0  0  0  0  0  0  0  0  0  0  0
  140.1530   72.7161  218.6176 H   0  0  0  0  0  0  0  0  0  0  0  0
  140.9060   71.3030  220.5610 H   0  0  0  0  0  0  0  0  0  0  0  0
  139.0266   70.4576  221.9717 H   0  0  0  0  0  0  0  0  0  0  0  0
  138.8515   68.8710  223.8543 H   0  0  0  0  0  0  0  0  0  0  0  0
  139.3430   68.3347  226.0981 H   0  0  0  0  0  0  0  0  0  0  0  0
  141.6183   71.1189  228.4748 H   0  0  0  0  0  0  0  0  0  0  0  0
  141.7567   72.6595  226.5507 H   0  0  0  0  0  0  0  0  0  0  0  0
  141.5213   76.3777  219.0076 H   0  0  0  0  0  0  0  0  0  0  0  0
  141.0402   75.6326  220.5604 H   0  0  0  0  0  0  0  0  0  0  0  0
  143.0890   77.8540  220.5810 H   0  0  0  0  0  0  0  0  0  0  0  0
  143.2167   78.4383  223.2869 H   0  0  0  0  0  0  0  0  0  0  0  0
  143.7418   80.5387  224.5279 H   0  0  0  0  0  0  0  0  0  0  0  0
  142.3447   82.5548  224.2183 H   0  0  0  0  0  0  0  0  0  0  0  0
  140.3975   82.4992  222.6656 H   0  0  0  0  0  0  0  0  0  0  0  0
  139.8913   80.4052  221.4420 H   0  0  0  0  0  0  0  0  0  0  0  0
  1  2  1  0
  2  3  1  0
  3  4  1  0
  4  5  1  0
  5  6  1  0
  6  7  2  0
  6  8  1  0
  8  9  2  0
  9 10  1  0
 10 11  2  0
 11 12  1  0
 12 13  2  0
 13 14  1  0
 13 15  1  0
 15 16  2  0
 16 17  1  0
 17 18  2  0
  2 19  1  0
 19 20  2  0
 19 21  1  0
 21 22  1  0
 22 23  1  0
 23 24  2  0
 23 25  1  0
 25 26  2  0
 26 27  1  0
 27 28  2  0
 28 29  1  0
 29 30  2  0
 18  8  1  0
 30 25  1  0
 17 11  1  0
  1 31  1  0
  1 32  1  0
  1 33  1  0
  3 34  1  0
  3 35  1  0
  4 36  1  0
  4 37  1  0
  5 38  1  0
  9 39  1  0
 10 40  1  0
 12 41  1  0
 15 42  1  0
 16 43  1  0
 21 44  1  0
 21 45  1  0
 22 46  1  0
 26 47  1  0
 27 48  1  0
 28 49  1  0
 29 50  1  0
 30 51  1  0
M  END
>  <smiles>  (17) 
CN(CCNC(=O)c1ccc2cc(Cl)ccc2n1)C(=O)CNC(=O)c1ccccc1

>  <score_type>  (17) 
oracle

>  <origin>  (17) 
autodockgpu

>  <m_score__min__energy>  (17) 
-8.6300000000000008

>  <m_primary>  (17) 
energy

>  <rmsd>  (17) 
9.760598434434065

>  <m_score__min__rmsd>  (17) 
9.760598434434065

>  <meeko>  (17) 
{"free_energy": -8.63, "intermolecular_energy": -11.02, "internal_energy": -1.81, "cluster_size": 9, "cluster_id": 1, "rank_in_cluster": 1}

>  <energy>  (17) 
-7.37

>  <cluster_rmsd>  (17) 
1.3

>  <cluster>  (17) 
2

$$$$

     RDKit          3D

 51 53  0  0  0  0  0  0  0  0999 V2000
  139.0830   74.0450  219.1580 C   0  0  0  0  0  0  0  0  0  0  0  0
  138.8400   74.3760  220.5560 N   0  0  0  0  0  0  0  0  0  0  0  0
  137.5070   74.7510  221.0150 C   0  0  0  0  0  0  0  0  0  0  0  0
  136.6380   73.5690  221.3020 C   0  0  0  0  0  0  0  0  0  0  0  0
  137.2460   72.7870  222.3610 N   0  0  0  0  0  0  0  0  0  0  0  0
  137.2140   71.3700  222.4080 C   0  0  0  0  0  0  0  0  0  0  0  0
  136.6500   70.6880  221.5290 O   0  0  0  0  0  0  0  0  0  0  0  0
  137.8640   70.6760  223.5260 C   0  0  0  0  0  0  0  0  0  0  0  0
  137.5230   69.3900  223.8610 C   0  0  0  0  0  0  0  0  0  0  0  0
  138.0970   68.6850  224.8980 C   0  0  0  0  0  0  0  0  0  0  0  0
  139.0700   69.3290  225.6330 C   0  0  0  0  0  0  0  0  0  0  0  0
  139.6510   68.6390  226.6710 C   0  0  0  0  0  0  0  0  0  0  0  0
  140.6290   69.2700  227.4160 C   0  0  0  0  0  0  0  0  0  0  0  0
  141.3550   68.3930  228.7220 Cl  0  0  0  0  0  0  0  0  0  0  0  0
  140.9860   70.5790  227.0870 C   0  0  0  0  0  0  0  0  0  0  0  0
  140.3770   71.2390  226.0350 C   0  0  0  0  0  0  0  0  0  0  0  0
  139.4090   70.6230  225.2910 C   0  0  0  0  0  0  0  0  0  0  0  0
  138.8280   71.2790  224.2730 N   0  0  0  0  0  0  0  0  0  0  0  0
  139.9620   74.3120  221.4270 C   0  0  0  0  0  0  0  0  0  0  0  0
  139.7970   73.6970  222.5130 O   0  0  0  0  0  0  0  0  0  0  0  0
  141.2780   74.9250  221.1100 C   0  0  0  0  0  0  0  0  0  0  0  0
  141.4340   76.1160  221.9250 N   0  0  0  0  0  0  0  0  0  0  0  0
  141.0120   77.3890  221.4990 C   0  0  0  0  0  0  0  0  0  0  0  0
  140.4770   77.5020  220.3660 O   0  0  0  0  0  0  0  0  0  0  0  0
  141.1510   78.6070  222.2870 C   0  0  0  0  0  0  0  0  0  0  0  0
  140.0730   79.0200  223.0420 C   0  0  0  0  0  0  0  0  0  0  0  0
  140.1670   80.1830  223.8110 C   0  0  0  0  0  0  0  0  0  0  0  0
  141.3310   80.9200  223.8220 C   0  0  0  0  0  0  0  0  0  0  0  0
  142.4190   80.5170  223.0710 C   0  0  0  0  0  0  0  0  0  0  0  0
  142.3060   79.3620  222.3150 C   0  0  0  0  0  0  0  0  0  0  0  0
  139.7330   73.1596  219.0985 H   0  0  0  0  0  0  0  0  0  0  0  0
  138.1257   73.8313  218.6601 H   0  0  0  0  0  0  0  0  0  0  0  0
  139.5737   74.8943  218.6601 H   0  0  0  0  0  0  0  0  0  0  0  0
  137.6067   75.3453  221.9352 H   0  0  0  0  0  0  0  0  0  0  0  0
  137.0286   75.3249  220.2077 H   0  0  0  0  0  0  0  0  0  0  0  0
  135.6422   73.9111  221.6203 H   0  0  0  0  0  0  0  0  0  0  0  0
  136.5337   72.9536  220.3962 H   0  0  0  0  0  0  0  0  0  0  0  0
  137.7460   73.2900  223.1470 H   0  0  0  0  0  0  0  0  0  0  0  0
  136.7441   68.8907  223.2660 H   0  0  0  0  0  0  0  0  0  0  0  0
  137.7919   67.6537  225.1288 H   0  0  0  0  0  0  0  0  0  0  0  0
  139.3443   67.6084  226.9030 H   0  0  0  0  0  0  0  0  0  0  0  0
  141.7626   71.0927  227.6727 H   0  0  0  0  0  0  0  0  0  0  0  0
  140.6745   72.2703  225.7943 H   0  0  0  0  0  0  0  0  0  0  0  0
  142.0845   74.2118  221.3354 H   0  0  0  0  0  0  0  0  0  0  0  0
  141.3269   75.1869  220.0428 H   0  0  0  0  0  0  0  0  0  0  0  0
  141.8760   76.0400  222.8690 H   0  0  0  0  0  0  0  0  0  0  0  0
  139.1414   78.4351  223.0388 H   0  0  0  0  0  0  0  0  0  0  0  0
  139.3061   80.5122  224.4114 H   0  0  0  0  0  0  0  0  0  0  0  0
  141.3947   81.8335  224.4314 H   0  0  0  0  0  0  0  0  0  0  0  0
  143.3521   81.0995  223.0736 H   0  0  0  0  0  0  0  0  0  0  0  0
  143.1680   79.0346  221.7152 H   0  0  0  0  0  0  0  0  0  0  0  0
  1  2  1  0
  2  3  1  0
  3  4  1  0
  4  5  1  0
  5  6  1  0
  6  7  2  0
  6  8  1  0
  8  9  2  0
  9 10  1  0
 10 11  2  0
 11 12  1  0
 12 13  2  0
 13 14  1  0
 13 15  1  0
 15 16  2  0
 16 17  1  0
 17 18  2  0
  2 19  1  0
 19 20  2  0
 19 21  1  0
 21 22  1  0
 22 23  1  0
 23 24  2  0
 23 25  1  0
 25 26  2  0
 26 27  1  0
 27 28  2  0
 28 29  1  0
 29 30  2  0
 18  8  1  0
 30 25  1  0
 17 11  1  0
  1 31  1  0
  1 32  1  0
  1 33  1  0
  3 34  1  0
  3 35  1  0
  4 36  1  0
  4 37  1  0
  5 38  1  0
  9 39  1  0
 10 40  1  0
 12 41  1  0
 15 42  1  0
 16 43  1  0
 21 44  1  0
 21 45  1  0
 22 46  1  0
 26 47  1  0
 27 48  1  0
 28 49  1  0
 29 50  1  0
 30 51  1  0
M  END
>  <smiles>  (18) 
CN(CCNC(=O)c1ccc2cc(Cl)ccc2n1)C(=O)CNC(=O)c1ccccc1

>  <score_type>  (18) 
oracle

>  <origin>  (18) 
autodockgpu

>  <m_score__min__energy>  (18) 
-8.6300000000000008

>  <m_primary>  (18) 
energy

>  <rmsd>  (18) 
9.73896127939861

>  <m_score__min__rmsd>  (18) 
9.73896127939861

>  <meeko>  (18) 
{"free_energy": -8.08, "intermolecular_energy": -10.47, "internal_energy": -2.35, "cluster_size": 10, "cluster_id": 2, "rank_in_cluster": 4}

>  <energy>  (18) 
-7.16

>  <cluster_rmsd>  (18) 
1.76

>  <cluster>  (18) 
2

$$$$

     RDKit          3D

 51 53  0  0  0  0  0  0  0  0999 V2000
  134.1740   76.6650  223.0070 C   0  0  0  0  0  0  0  0  0  0  0  0
  135.6080   76.8910  222.8820 N   0  0  0  0  0  0  0  0  0  0  0  0
  136.5660   75.9500  223.4550 C   0  0  0  0  0  0  0  0  0  0  0  0
  137.3150   75.1810  222.4150 C   0  0  0  0  0  0  0  0  0  0  0  0
  138.1660   76.0950  221.6790 N   0  0  0  0  0  0  0  0  0  0  0  0
  139.5710   75.9410  221.5660 C   0  0  0  0  0  0  0  0  0  0  0  0
  140.1820   74.9950  222.1010 O   0  0  0  0  0  0  0  0  0  0  0  0
  140.3400   76.9250  220.7950 C   0  0  0  0  0  0  0  0  0  0  0  0
  141.5790   76.6250  220.2900 C   0  0  0  0  0  0  0  0  0  0  0  0
  142.3490   77.5050  219.5590 C   0  0  0  0  0  0  0  0  0  0  0  0
  141.8250   78.7600  219.3330 C   0  0  0  0  0  0  0  0  0  0  0  0
  142.5810   79.6490  218.6060 C   0  0  0  0  0  0  0  0  0  0  0  0
  142.0700   80.9110  218.3700 C   0  0  0  0  0  0  0  0  0  0  0  0
  143.0300   82.0240  217.4530 Cl  0  0  0  0  0  0  0  0  0  0  0  0
  140.8100   81.2320  218.8790 C   0  0  0  0  0  0  0  0  0  0  0  0
  140.0810   80.3090  219.6060 C   0  0  0  0  0  0  0  0  0  0  0  0
  140.5780   79.0580  219.8440 C   0  0  0  0  0  0  0  0  0  0  0  0
  139.8560   78.1740  220.5520 N   0  0  0  0  0  0  0  0  0  0  0  0
  136.0080   78.0620  222.1820 C   0  0  0  0  0  0  0  0  0  0  0  0
  135.9010   78.0330  220.9280 O   0  0  0  0  0  0  0  0  0  0  0  0
  136.5300   79.2780  222.8570 C   0  0  0  0  0  0  0  0  0  0  0  0
  137.9520   79.3780  222.5810 N   0  0  0  0  0  0  0  0  0  0  0  0
  138.8820   79.8220  223.5390 C   0  0  0  0  0  0  0  0  0  0  0  0
  138.4670   80.1460  224.6820 O   0  0  0  0  0  0  0  0  0  0  0  0
  140.3150   79.9350  223.3000 C   0  0  0  0  0  0  0  0  0  0  0  0
  140.8060   81.1430  222.8480 C   0  0  0  0  0  0  0  0  0  0  0  0
  142.1740   81.2920  222.6070 C   0  0  0  0  0  0  0  0  0  0  0  0
  143.0380   80.2400  222.8200 C   0  0  0  0  0  0  0  0  0  0  0  0
  142.5600   79.0250  223.2720 C   0  0  0  0  0  0  0  0  0  0  0  0
  141.2010   78.8980  223.5050 C   0  0  0  0  0  0  0  0  0  0  0  0
  133.9010   76.6220  224.0717 H   0  0  0  0  0  0  0  0  0  0  0  0
  133.6294   77.4884  222.5218 H   0  0  0  0  0  0  0  0  0  0  0  0
  133.9090   75.7140  222.5218 H   0  0  0  0  0  0  0  0  0  0  0  0
  137.2886   76.5118  224.0652 H   0  0  0  0  0  0  0  0  0  0  0  0
  135.9988   75.2258  224.0581 H   0  0  0  0  0  0  0  0  0  0  0  0
  137.9324   74.4098  222.8989 H   0  0  0  0  0  0  0  0  0  0  0  0
  136.6067   74.6951  221.7278 H   0  0  0  0  0  0  0  0  0  0  0  0
  137.7270   76.9280  221.1940 H   0  0  0  0  0  0  0  0  0  0  0  0
  141.9839   75.6200  220.4797 H   0  0  0  0  0  0  0  0  0  0  0  0
  143.3383   77.2181  219.1730 H   0  0  0  0  0  0  0  0  0  0  0  0
  143.5706   79.3620  218.2208 H   0  0  0  0  0  0  0  0  0  0  0  0
  140.3915   82.2332  218.6991 H   0  0  0  0  0  0  0  0  0  0  0  0
  139.0904   80.5844  219.9971 H   0  0  0  0  0  0  0  0  0  0  0  0
  136.0127   80.1687  222.4709 H   0  0  0  0  0  0  0  0  0  0  0  0
  136.3582   79.2126  223.9415 H   0  0  0  0  0  0  0  0  0  0  0  0
  138.3130   79.1130  221.6370 H   0  0  0  0  0  0  0  0  0  0  0  0
  140.1214   81.9870  222.6778 H   0  0  0  0  0  0  0  0  0  0  0  0
  142.5637   82.2549  222.2450 H   0  0  0  0  0  0  0  0  0  0  0  0
  144.1137   80.3681  222.6292 H   0  0  0  0  0  0  0  0  0  0  0  0
  143.2424   78.1793  223.4426 H   0  0  0  0  0  0  0  0  0  0  0  0
  140.8136   77.9342  223.8671 H   0  0  0  0  0  0  0  0  0  0  0  0
  1  2  1  0
  2  3  1  0
  3  4  1  0
  4  5  1  0
  5  6  1  0
  6  7  2  0
  6  8  1  0
  8  9  2  0
  9 10  1  0
 10 11  2  0
 11 12  1  0
 12 13  2  0
 13 14  1  0
 13 15  1  0
 15 16  2  0
 16 17  1  0
 17 18  2  0
  2 19  1  0
 19 20  2  0
 19 21  1  0
 21 22  1  0
 22 23  1  0
 23 24  2  0
 23 25  1  0
 25 26  2  0
 26 27  1  0
 27 28  2  0
 28 29  1  0
 29 30  2  0
 18  8  1  0
 30 25  1  0
 17 11  1  0
  1 31  1  0
  1 32  1  0
  1 33  1  0
  3 34  1  0
  3 35  1  0
  4 36  1  0
  4 37  1  0
  5 38  1  0
  9 39  1  0
 10 40  1  0
 12 41  1  0
 15 42  1  0
 16 43  1  0
 21 44  1  0
 21 45  1  0
 22 46  1  0
 26 47  1  0
 27 48  1  0
 28 49  1  0
 29 50  1  0
 30 51  1  0
M  END
>  <smiles>  (19) 
CN(CCNC(=O)c1ccc2cc(Cl)ccc2n1)C(=O)CNC(=O)c1ccccc1

>  <score_type>  (19) 
oracle

>  <origin>  (19) 
autodockgpu

>  <m_score__min__energy>  (19) 
-8.6300000000000008

>  <m_primary>  (19) 
energy

>  <rmsd>  (19) 
8.058534342728418

>  <m_score__min__rmsd>  (19) 
8.058534342728418

>  <meeko>  (19) 
{"free_energy": -5.35, "intermolecular_energy": -7.73, "internal_energy": -4.81, "cluster_size": 5, "cluster_id": 11, "rank_in_cluster": 2}

>  <energy>  (19) 
-6.91

>  <cluster_rmsd>  (19) 
1.7

>  <cluster>  (19) 
2

$$$$

     RDKit          3D

 51 53  0  0  0  0  0  0  0  0999 V2000
  138.5860   77.2070  222.3860 C   0  0  0  0  0  0  0  0  0  0  0  0
  138.4290   75.8700  221.8300 N   0  0  0  0  0  0  0  0  0  0  0  0
  137.1040   75.3240  221.5560 C   0  0  0  0  0  0  0  0  0  0  0  0
  137.1470   73.9040  221.0880 C   0  0  0  0  0  0  0  0  0  0  0  0
  137.6670   73.0750  222.1570 N   0  0  0  0  0  0  0  0  0  0  0  0
  137.4850   71.6700  222.2200 C   0  0  0  0  0  0  0  0  0  0  0  0
  136.8530   71.0410  221.3470 O   0  0  0  0  0  0  0  0  0  0  0  0
  138.0550   70.9240  223.3480 C   0  0  0  0  0  0  0  0  0  0  0  0
  137.6910   69.6260  223.6010 C   0  0  0  0  0  0  0  0  0  0  0  0
  138.1910   68.8730  224.6420 C   0  0  0  0  0  0  0  0  0  0  0  0
  139.1110   69.4790  225.4710 C   0  0  0  0  0  0  0  0  0  0  0  0
  139.6180   68.7410  226.5140 C   0  0  0  0  0  0  0  0  0  0  0  0
  140.5420   69.3340  227.3530 C   0  0  0  0  0  0  0  0  0  0  0  0
  141.1760   68.3960  228.6650 Cl  0  0  0  0  0  0  0  0  0  0  0  0
  140.9230   70.6550  227.1090 C   0  0  0  0  0  0  0  0  0  0  0  0
  140.3890   71.3640  226.0480 C   0  0  0  0  0  0  0  0  0  0  0  0
  139.4740   70.7860  225.2120 C   0  0  0  0  0  0  0  0  0  0  0  0
  138.9650   71.4890  224.1860 N   0  0  0  0  0  0  0  0  0  0  0  0
  139.6260   75.1450  221.5740 C   0  0  0  0  0  0  0  0  0  0  0  0
  139.8930   74.2020  222.3640 O   0  0  0  0  0  0  0  0  0  0  0  0
  140.5410   75.4530  220.4450 C   0  0  0  0  0  0  0  0  0  0  0  0
  141.7010   74.5860  220.5470 N   0  0  0  0  0  0  0  0  0  0  0  0
  142.9110   74.8550  219.8820 C   0  0  0  0  0  0  0  0  0  0  0  0
  142.9940   75.8870  219.1680 O   0  0  0  0  0  0  0  0  0  0  0  0
  144.0960   74.0100  219.9600 C   0  0  0  0  0  0  0  0  0  0  0  0
  144.1930   72.9430  219.0900 C   0  0  0  0  0  0  0  0  0  0  0  0
  145.3140   72.1100  219.1340 C   0  0  0  0  0  0  0  0  0  0  0  0
  146.3240   72.3460  220.0410 C   0  0  0  0  0  0  0  0  0  0  0  0
  146.2390   73.4100  220.9180 C   0  0  0  0  0  0  0  0  0  0  0  0
  145.1210   74.2250  220.8590 C   0  0  0  0  0  0  0  0  0  0  0  0
  138.5794   77.1504  223.4845 H   0  0  0  0  0  0  0  0  0  0  0  0
  139.5406   77.6354  222.0467 H   0  0  0  0  0  0  0  0  0  0  0  0
  137.7566   77.8449  222.0467 H   0  0  0  0  0  0  0  0  0  0  0  0
  136.5066   75.3720  222.4784 H   0  0  0  0  0  0  0  0  0  0  0  0
  136.6588   75.9249  220.7494 H   0  0  0  0  0  0  0  0  0  0  0  0
  136.1327   73.5715  220.8224 H   0  0  0  0  0  0  0  0  0  0  0  0
  137.7948   73.8219  220.2028 H   0  0  0  0  0  0  0  0  0  0  0  0
  138.2160   73.5310  222.9400 H   0  0  0  0  0  0  0  0  0  0  0  0
  136.9546   69.1568  222.9319 H   0  0  0  0  0  0  0  0  0  0  0  0
  137.8698   67.8335  224.8042 H   0  0  0  0  0  0  0  0  0  0  0  0
  139.2955   67.7021  226.6770 H   0  0  0  0  0  0  0  0  0  0  0  0
  141.6578   71.1385  227.7695 H   0  0  0  0  0  0  0  0  0  0  0  0
  140.7037   72.4037  225.8749 H   0  0  0  0  0  0  0  0  0  0  0  0
  140.0260   75.2739  219.4897 H   0  0  0  0  0  0  0  0  0  0  0  0
  140.8518   76.5074  220.4867 H   0  0  0  0  0  0  0  0  0  0  0  0
  141.6490   73.7250  221.1360 H   0  0  0  0  0  0  0  0  0  0  0  0
  143.3899   72.7488  218.3638 H   0  0  0  0  0  0  0  0  0  0  0  0
  145.3907   71.2601  218.4399 H   0  0  0  0  0  0  0  0  0  0  0  0
  147.2022   71.6841  220.0669 H   0  0  0  0  0  0  0  0  0  0  0  0
  147.0403   73.6052  221.6459 H   0  0  0  0  0  0  0  0  0  0  0  0
  145.0471   75.0746  221.5538 H   0  0  0  0  0  0  0  0  0  0  0  0
  1  2  1  0
  2  3  1  0
  3  4  1  0
  4  5  1  0
  5  6  1  0
  6  7  2  0
  6  8  1  0
  8  9  2  0
  9 10  1  0
 10 11  2  0
 11 12  1  0
 12 13  2  0
 13 14  1  0
 13 15  1  0
 15 16  2  0
 16 17  1  0
 17 18  2  0
  2 19  1  0
 19 20  2  0
 19 21  1  0
 21 22  1  0
 22 23  1  0
 23 24  2  0
 23 25  1  0
 25 26  2  0
 26 27  1  0
 27 28  2  0
 28 29  1  0
 29 30  2  0
 18  8  1  0
 30 25  1  0
 17 11  1  0
  1 31  1  0
  1 32  1  0
  1 33  1  0
  3 34  1  0
  3 35  1  0
  4 36  1  0
  4 37  1  0
  5 38  1  0
  9 39  1  0
 10 40  1  0
 12 41  1  0
 15 42  1  0
 16 43  1  0
 21 44  1  0
 21 45  1  0
 22 46  1  0
 26 47  1  0
 27 48  1  0
 28 49  1  0
 29 50  1  0
 30 51  1  0
M  END
>  <smiles>  (20) 
CN(CCNC(=O)c1ccc2cc(Cl)ccc2n1)C(=O)CNC(=O)c1ccccc1

>  <score_type>  (20) 
oracle

>  <origin>  (20) 
autodockgpu

>  <m_score__min__energy>  (20) 
-8.6300000000000008

>  <m_primary>  (20) 
energy

>  <rmsd>  (20) 
8.993434021868874

>  <m_score__min__rmsd>  (20) 
8.993434021868874

>  <meeko>  (20) 
{"free_energy": -7.61, "intermolecular_energy": -10.0, "internal_energy": -2.58, "cluster_size": 4, "cluster_id": 4, "rank_in_cluster": 4}

>  <energy>  (20) 
-8.12

>  <cluster_rmsd>  (20) 
0.0

>  <cluster>  (20) 
3

$$$$

     RDKit          3D

 51 53  0  0  0  0  0  0  0  0999 V2000
  139.2290   80.2220  223.8340 C   0  0  0  0  0  0  0  0  0  0  0  0
  140.4200   79.9150  223.0540 N   0  0  0  0  0  0  0  0  0  0  0  0
  141.2920   80.9800  222.5690 C   0  0  0  0  0  0  0  0  0  0  0  0
  141.4320   80.9820  221.0800 C   0  0  0  0  0  0  0  0  0  0  0  0
  141.9830   79.7080  220.6610 N   0  0  0  0  0  0  0  0  0  0  0  0
  141.7500   79.1340  219.3850 C   0  0  0  0  0  0  0  0  0  0  0  0
  141.0440   79.6930  218.5230 O   0  0  0  0  0  0  0  0  0  0  0  0
  142.3580   77.8380  219.0610 C   0  0  0  0  0  0  0  0  0  0  0  0
  142.6160   77.4760  217.7640 C   0  0  0  0  0  0  0  0  0  0  0  0
  143.1850   76.2740  217.3960 C   0  0  0  0  0  0  0  0  0  0  0  0
  143.5040   75.3950  218.4080 C   0  0  0  0  0  0  0  0  0  0  0  0
  144.0720   74.1920  218.0570 C   0  0  0  0  0  0  0  0  0  0  0  0
  144.3990   73.3000  219.0600 C   0  0  0  0  0  0  0  0  0  0  0  0
  145.1130   71.7870  218.6080 Cl  0  0  0  0  0  0  0  0  0  0  0  0
  144.1410   73.6540  220.3860 C   0  0  0  0  0  0  0  0  0  0  0  0
  143.5690   74.8740  220.6980 C   0  0  0  0  0  0  0  0  0  0  0  0
  143.2420   75.7640  219.7130 C   0  0  0  0  0  0  0  0  0  0  0  0
  142.6870   76.9440  220.0330 N   0  0  0  0  0  0  0  0  0  0  0  0
  140.6750   78.5390  222.8000 C   0  0  0  0  0  0  0  0  0  0  0  0
  141.8240   78.1160  223.0900 O   0  0  0  0  0  0  0  0  0  0  0  0
  139.6640   77.6150  222.2240 C   0  0  0  0  0  0  0  0  0  0  0  0
  140.3420   76.4000  221.8060 N   0  0  0  0  0  0  0  0  0  0  0  0
  139.6540   75.2070  221.5210 C   0  0  0  0  0  0  0  0  0  0  0  0
  138.4010   75.1880  221.6320 O   0  0  0  0  0  0  0  0  0  0  0  0
  140.2980   73.9690  221.1000 C   0  0  0  0  0  0  0  0  0  0  0  0
  140.3810   73.7060  219.7480 C   0  0  0  0  0  0  0  0  0  0  0  0
  140.9910   72.5300  219.3040 C   0  0  0  0  0  0  0  0  0  0  0  0
  141.5120   71.6300  220.2080 C   0  0  0  0  0  0  0  0  0  0  0  0
  141.4350   71.8810  221.5650 C   0  0  0  0  0  0  0  0  0  0  0  0
  140.8270   73.0520  221.9850 C   0  0  0  0  0  0  0  0  0  0  0  0
  139.4670   80.1607  224.9062 H   0  0  0  0  0  0  0  0  0  0  0  0
  138.8844   81.2383  223.5925 H   0  0  0  0  0  0  0  0  0  0  0  0
  138.4360   79.4989  223.5925 H   0  0  0  0  0  0  0  0  0  0  0  0
  140.8737   81.9474  222.8839 H   0  0  0  0  0  0  0  0  0  0  0  0
  142.2916   80.8092  222.9952 H   0  0  0  0  0  0  0  0  0  0  0  0
  140.4455   81.1287  220.6161 H   0  0  0  0  0  0  0  0  0  0  0  0
  142.0997   81.7987  220.7684 H   0  0  0  0  0  0  0  0  0  0  0  0
  142.5950   79.1660  221.3350 H   0  0  0  0  0  0  0  0  0  0  0  0
  142.3531   78.1878  216.9676 H   0  0  0  0  0  0  0  0  0  0  0  0
  143.3756   76.0283  216.3409 H   0  0  0  0  0  0  0  0  0  0  0  0
  144.2615   73.9460  217.0017 H   0  0  0  0  0  0  0  0  0  0  0  0
  144.3964   72.9525  221.1939 H   0  0  0  0  0  0  0  0  0  0  0  0
  143.3751   75.1310  221.7498 H   0  0  0  0  0  0  0  0  0  0  0  0
  138.9046   77.3749  222.9827 H   0  0  0  0  0  0  0  0  0  0  0  0
  139.1664   78.0864  221.3637 H   0  0  0  0  0  0  0  0  0  0  0  0
  141.3820   76.3990  221.7090 H   0  0  0  0  0  0  0  0  0  0  0  0
  139.9677   74.4208  219.0212 H   0  0  0  0  0  0  0  0  0  0  0  0
  141.0557   72.3213  218.2259 H   0  0  0  0  0  0  0  0  0  0  0  0
  141.9913   70.7077  219.8481 H   0  0  0  0  0  0  0  0  0  0  0  0
  141.8469   71.1675  222.2939 H   0  0  0  0  0  0  0  0  0  0  0  0
  140.7634   73.2588  223.0635 H   0  0  0  0  0  0  0  0  0  0  0  0
  1  2  1  0
  2  3  1  0
  3  4  1  0
  4  5  1  0
  5  6  1  0
  6  7  2  0
  6  8  1  0
  8  9  2  0
  9 10  1  0
 10 11  2  0
 11 12  1  0
 12 13  2  0
 13 14  1  0
 13 15  1  0
 15 16  2  0
 16 17  1  0
 17 18  2  0
  2 19  1  0
 19 20  2  0
 19 21  1  0
 21 22  1  0
 22 23  1  0
 23 24  2  0
 23 25  1  0
 25 26  2  0
 26 27  1  0
 27 28  2  0
 28 29  1  0
 29 30  2  0
 18  8  1  0
 30 25  1  0
 17 11  1  0
  1 31  1  0
  1 32  1  0
  1 33  1  0
  3 34  1  0
  3 35  1  0
  4 36  1  0
  4 37  1  0
  5 38  1  0
  9 39  1  0
 10 40  1  0
 12 41  1  0
 15 42  1  0
 16 43  1  0
 21 44  1  0
 21 45  1  0
 22 46  1  0
 26 47  1  0
 27 48  1  0
 28 49  1  0
 29 50  1  0
 30 51  1  0
M  END
>  <smiles>  (21) 
CN(CCNC(=O)c1ccc2cc(Cl)ccc2n1)C(=O)CNC(=O)c1ccccc1

>  <score_type>  (21) 
oracle

>  <origin>  (21) 
autodockgpu

>  <m_score__min__energy>  (21) 
-8.6300000000000008

>  <m_primary>  (21) 
energy

>  <rmsd>  (21) 
6.531874177337783

>  <m_score__min__rmsd>  (21) 
6.531874177337783

>  <meeko>  (21) 
{"free_energy": -4.95, "intermolecular_energy": -7.34, "internal_energy": -4.87, "cluster_size": 3, "cluster_id": 10, "rank_in_cluster": 3}

>  <energy>  (21) 
-7.97

>  <cluster_rmsd>  (21) 
1.61

>  <cluster>  (21) 
3

$$$$

     RDKit          3D

 51 53  0  0  0  0  0  0  0  0999 V2000
  136.8870   73.6050  220.7410 C   0  0  0  0  0  0  0  0  0  0  0  0
  137.8070   74.7110  220.5170 N   0  0  0  0  0  0  0  0  0  0  0  0
  138.8810   74.6040  219.5340 C   0  0  0  0  0  0  0  0  0  0  0  0
  140.2390   74.5700  220.1580 C   0  0  0  0  0  0  0  0  0  0  0  0
  140.1940   73.7190  221.3310 N   0  0  0  0  0  0  0  0  0  0  0  0
  139.9700   72.3200  221.2760 C   0  0  0  0  0  0  0  0  0  0  0  0
  139.7930   71.7150  220.2000 O   0  0  0  0  0  0  0  0  0  0  0  0
  139.9450   71.5490  222.5250 C   0  0  0  0  0  0  0  0  0  0  0  0
  139.3440   70.3180  222.5920 C   0  0  0  0  0  0  0  0  0  0  0  0
  139.2880   69.5480  223.7340 C   0  0  0  0  0  0  0  0  0  0  0  0
  139.8760   70.0630  224.8690 C   0  0  0  0  0  0  0  0  0  0  0  0
  139.8280   69.3060  226.0160 C   0  0  0  0  0  0  0  0  0  0  0  0
  140.4140   69.8080  227.1620 C   0  0  0  0  0  0  0  0  0  0  0  0
  140.3480   68.8470  228.6030 Cl  0  0  0  0  0  0  0  0  0  0  0  0
  141.0290   71.0590  227.1110 C   0  0  0  0  0  0  0  0  0  0  0  0
  141.0560   71.7910  225.9370 C   0  0  0  0  0  0  0  0  0  0  0  0
  140.4800   71.3020  224.7970 C   0  0  0  0  0  0  0  0  0  0  0  0
  140.5150   72.0250  223.6660 N   0  0  0  0  0  0  0  0  0  0  0  0
  137.5990   75.8790  221.3010 C   0  0  0  0  0  0  0  0  0  0  0  0
  136.9240   76.7990  220.7710 O   0  0  0  0  0  0  0  0  0  0  0  0
  138.1330   76.0450  222.6770 C   0  0  0  0  0  0  0  0  0  0  0  0
  138.9060   77.2730  222.7220 N   0  0  0  0  0  0  0  0  0  0  0  0
  140.3080   77.2920  222.6090 C   0  0  0  0  0  0  0  0  0  0  0  0
  140.9200   76.2020  222.4630 O   0  0  0  0  0  0  0  0  0  0  0  0
  141.1180   78.5030  222.6490 C   0  0  0  0  0  0  0  0  0  0  0  0
  141.4240   79.1220  221.4540 C   0  0  0  0  0  0  0  0  0  0  0  0
  142.1980   80.2850  221.4510 C   0  0  0  0  0  0  0  0  0  0  0  0
  142.6590   80.8200  222.6350 C   0  0  0  0  0  0  0  0  0  0  0  0
  142.3600   80.2100  223.8380 C   0  0  0  0  0  0  0  0  0  0  0  0
  141.5910   79.0580  223.8210 C   0  0  0  0  0  0  0  0  0  0  0  0
  136.7573   73.4491  221.8222 H   0  0  0  0  0  0  0  0  0  0  0  0
  135.9138   73.8395  220.2850 H   0  0  0  0  0  0  0  0  0  0  0  0
  137.2948   72.6908  220.2850 H   0  0  0  0  0  0  0  0  0  0  0  0
  138.7370   73.6792  218.9560 H   0  0  0  0  0  0  0  0  0  0  0  0
  138.8337   75.4978  218.8945 H   0  0  0  0  0  0  0  0  0  0  0  0
  140.9667   74.1682  219.4376 H   0  0  0  0  0  0  0  0  0  0  0  0
  140.5431   75.5871  220.4461 H   0  0  0  0  0  0  0  0  0  0  0  0
  140.3340   74.1530  222.2860 H   0  0  0  0  0  0  0  0  0  0  0  0
  138.8780   69.9207  221.6782 H   0  0  0  0  0  0  0  0  0  0  0  0
  138.7951   68.5646  223.7391 H   0  0  0  0  0  0  0  0  0  0  0  0
  139.3342   68.3231  226.0210 H   0  0  0  0  0  0  0  0  0  0  0  0
  141.4992   71.4694  228.0168 H   0  0  0  0  0  0  0  0  0  0  0  0
  141.5456   72.7759  225.9205 H   0  0  0  0  0  0  0  0  0  0  0  0
  137.3010   76.1030  223.3942 H   0  0  0  0  0  0  0  0  0  0  0  0
  138.7688   75.1875  222.9423 H   0  0  0  0  0  0  0  0  0  0  0  0
  138.4140   78.1870  222.8430 H   0  0  0  0  0  0  0  0  0  0  0  0
  141.0591   78.7004  220.5058 H   0  0  0  0  0  0  0  0  0  0  0  0
  142.4412   80.7771  220.4977 H   0  0  0  0  0  0  0  0  0  0  0  0
  143.2674   81.7363  222.6218 H   0  0  0  0  0  0  0  0  0  0  0  0
  142.7242   80.6295  224.7874 H   0  0  0  0  0  0  0  0  0  0  0  0
  141.3486   78.5680  224.7755 H   0  0  0  0  0  0  0  0  0  0  0  0
  1  2  1  0
  2  3  1  0
  3  4  1  0
  4  5  1  0
  5  6  1  0
  6  7  2  0
  6  8  1  0
  8  9  2  0
  9 10  1  0
 10 11  2  0
 11 12  1  0
 12 13  2  0
 13 14  1  0
 13 15  1  0
 15 16  2  0
 16 17  1  0
 17 18  2  0
  2 19  1  0
 19 20  2  0
 19 21  1  0
 21 22  1  0
 22 23  1  0
 23 24  2  0
 23 25  1  0
 25 26  2  0
 26 27  1  0
 27 28  2  0
 28 29  1  0
 29 30  2  0
 18  8  1  0
 30 25  1  0
 17 11  1  0
  1 31  1  0
  1 32  1  0
  1 33  1  0
  3 34  1  0
  3 35  1  0
  4 36  1  0
  4 37  1  0
  5 38  1  0
  9 39  1  0
 10 40  1  0
 12 41  1  0
 15 42  1  0
 16 43  1  0
 21 44  1  0
 21 45  1  0
 22 46  1  0
 26 47  1  0
 27 48  1  0
 28 49  1  0
 29 50  1  0
 30 51  1  0
M  END
>  <smiles>  (22) 
CN(CCNC(=O)c1ccc2cc(Cl)ccc2n1)C(=O)CNC(=O)c1ccccc1

>  <score_type>  (22) 
oracle

>  <origin>  (22) 
autodockgpu

>  <m_score__min__energy>  (22) 
-8.6300000000000008

>  <m_primary>  (22) 
energy

>  <rmsd>  (22) 
9.261775058848558

>  <m_score__min__rmsd>  (22) 
9.261775058848558

>  <meeko>  (22) 
{"free_energy": -6.91, "intermolecular_energy": -9.29, "internal_energy": -2.65, "cluster_size": 10, "cluster_id": 2, "rank_in_cluster": 10}

>  <energy>  (22) 
-7.97

>  <cluster_rmsd>  (22) 
0.85

>  <cluster>  (22) 
3

$$$$

     RDKit          3D

 51 53  0  0  0  0  0  0  0  0999 V2000
  142.2070   81.4620  223.9920 C   0  0  0  0  0  0  0  0  0  0  0  0
  141.6000   80.7300  222.8890 N   0  0  0  0  0  0  0  0  0  0  0  0
  140.7500   81.4090  221.9170 C   0  0  0  0  0  0  0  0  0  0  0  0
  141.4400   81.6540  220.6130 C   0  0  0  0  0  0  0  0  0  0  0  0
  141.9950   80.4030  220.1350 N   0  0  0  0  0  0  0  0  0  0  0  0
  141.4700   79.6820  219.0330 C   0  0  0  0  0  0  0  0  0  0  0  0
  140.4790   80.0800  218.3880 O   0  0  0  0  0  0  0  0  0  0  0  0
  142.1090   78.4240  218.6300 C   0  0  0  0  0  0  0  0  0  0  0  0
  142.2810   78.1020  217.3080 C   0  0  0  0  0  0  0  0  0  0  0  0
  142.8740   76.9380  216.8670 C   0  0  0  0  0  0  0  0  0  0  0  0
  143.3120   76.0530  217.8290 C   0  0  0  0  0  0  0  0  0  0  0  0
  143.9050   74.8870  217.4050 C   0  0  0  0  0  0  0  0  0  0  0  0
  144.3510   73.9900  218.3570 C   0  0  0  0  0  0  0  0  0  0  0  0
  145.0970   72.5230  217.8130 Cl  0  0  0  0  0  0  0  0  0  0  0  0
  144.1830   74.3030  219.7070 C   0  0  0  0  0  0  0  0  0  0  0  0
  143.5810   75.4870  220.0930 C   0  0  0  0  0  0  0  0  0  0  0  0
  143.1370   76.3810  219.1590 C   0  0  0  0  0  0  0  0  0  0  0  0
  142.5550   77.5260  219.5510 N   0  0  0  0  0  0  0  0  0  0  0  0
  141.8830   79.3370  222.8190 C   0  0  0  0  0  0  0  0  0  0  0  0
  143.0680   79.0170  222.5430 O   0  0  0  0  0  0  0  0  0  0  0  0
  140.8610   78.2850  223.0530 C   0  0  0  0  0  0  0  0  0  0  0  0
  141.1400   77.1720  222.1620 N   0  0  0  0  0  0  0  0  0  0  0  0
  140.2380   76.1090  221.9700 C   0  0  0  0  0  0  0  0  0  0  0  0
  139.1460   76.1200  222.5950 O   0  0  0  0  0  0  0  0  0  0  0  0
  140.4820   74.9760  221.0860 C   0  0  0  0  0  0  0  0  0  0  0  0
  140.1310   75.1020  219.7570 C   0  0  0  0  0  0  0  0  0  0  0  0
  140.3480   74.0380  218.8770 C   0  0  0  0  0  0  0  0  0  0  0  0
  140.9120   72.8640  219.3280 C   0  0  0  0  0  0  0  0  0  0  0  0
  141.2680   72.7260  220.6560 C   0  0  0  0  0  0  0  0  0  0  0  0
  141.0450   73.7910  221.5120 C   0  0  0  0  0  0  0  0  0  0  0  0
  141.8584   81.0417  224.9469 H   0  0  0  0  0  0  0  0  0  0  0  0
  143.3019   81.3753  223.9311 H   0  0  0  0  0  0  0  0  0  0  0  0
  141.9192   82.5219  223.9311 H   0  0  0  0  0  0  0  0  0  0  0  0
  139.8614   80.7874  221.7328 H   0  0  0  0  0  0  0  0  0  0  0  0
  140.4829   82.3891  222.3390 H   0  0  0  0  0  0  0  0  0  0  0  0
  140.7176   82.0419  219.8798 H   0  0  0  0  0  0  0  0  0  0  0  0
  142.2446   82.3917  220.7491 H   0  0  0  0  0  0  0  0  0  0  0  0
  142.8380   79.9940  220.6280 H   0  0  0  0  0  0  0  0  0  0  0  0
  141.9236   78.8170  216.5524 H   0  0  0  0  0  0  0  0  0  0  0  0
  142.9924   76.7248  215.7944 H   0  0  0  0  0  0  0  0  0  0  0  0
  144.0217   74.6731  216.3323 H   0  0  0  0  0  0  0  0  0  0  0  0
  144.5344   73.5980  220.4748 H   0  0  0  0  0  0  0  0  0  0  0  0
  143.4582   75.7116  221.1628 H   0  0  0  0  0  0  0  0  0  0  0  0
  140.9089   77.9458  224.0983 H   0  0  0  0  0  0  0  0  0  0  0  0
  139.8547   78.6840  222.8576 H   0  0  0  0  0  0  0  0  0  0  0  0
  142.0420   77.1480  221.6360 H   0  0  0  0  0  0  0  0  0  0  0  0
  139.6817   76.0372  219.3915 H   0  0  0  0  0  0  0  0  0  0  0  0
  140.0670   74.1382  217.8182 H   0  0  0  0  0  0  0  0  0  0  0  0
  141.0795   72.0328  218.6273 H   0  0  0  0  0  0  0  0  0  0  0  0
  141.7179   71.7922  221.0243 H   0  0  0  0  0  0  0  0  0  0  0  0
  141.3270   73.6885  222.5703 H   0  0  0  0  0  0  0  0  0  0  0  0
  1  2  1  0
  2  3  1  0
  3  4  1  0
  4  5  1  0
  5  6  1  0
  6  7  2  0
  6  8  1  0
  8  9  2  0
  9 10  1  0
 10 11  2  0
 11 12  1  0
 12 13  2  0
 13 14  1  0
 13 15  1  0
 15 16  2  0
 16 17  1  0
 17 18  2  0
  2 19  1  0
 19 20  2  0
 19 21  1  0
 21 22  1  0
 22 23  1  0
 23 24  2  0
 23 25  1  0
 25 26  2  0
 26 27  1  0
 27 28  2  0
 28 29  1  0
 29 30  2  0
 18  8  1  0
 30 25  1  0
 17 11  1  0
  1 31  1  0
  1 32  1  0
  1 33  1  0
  3 34  1  0
  3 35  1  0
  4 36  1  0
  4 37  1  0
  5 38  1  0
  9 39  1  0
 10 40  1  0
 12 41  1  0
 15 42  1  0
 16 43  1  0
 21 44  1  0
 21 45  1  0
 22 46  1  0
 26 47  1  0
 27 48  1  0
 28 49  1  0
 29 50  1  0
 30 51  1  0
M  END
>  <smiles>  (23) 
CN(CCNC(=O)c1ccc2cc(Cl)ccc2n1)C(=O)CNC(=O)c1ccccc1

>  <score_type>  (23) 
oracle

>  <origin>  (23) 
autodockgpu

>  <m_score__min__energy>  (23) 
-8.6300000000000008

>  <m_primary>  (23) 
energy

>  <rmsd>  (23) 
7.059870881428919

>  <m_score__min__rmsd>  (23) 
7.059870881428919

>  <meeko>  (23) 
{"free_energy": -5.42, "intermolecular_energy": -7.81, "internal_energy": -4.89, "cluster_size": 3, "cluster_id": 10, "rank_in_cluster": 1}

>  <energy>  (23) 
-7.94

>  <cluster_rmsd>  (23) 
1.66

>  <cluster>  (23) 
3

$$$$

     RDKit          3D

 51 53  0  0  0  0  0  0  0  0999 V2000
  135.5480   67.9730  222.3360 C   0  0  0  0  0  0  0  0  0  0  0  0
  136.7550   68.7840  222.2550 N   0  0  0  0  0  0  0  0  0  0  0  0
  136.6980   70.2300  222.4450 C   0  0  0  0  0  0  0  0  0  0  0  0
  137.6240   70.7110  223.5160 C   0  0  0  0  0  0  0  0  0  0  0  0
  138.2620   71.9330  223.0680 N   0  0  0  0  0  0  0  0  0  0  0  0
  139.5080   71.9650  222.3920 C   0  0  0  0  0  0  0  0  0  0  0  0
  140.1520   70.9290  222.1330 O   0  0  0  0  0  0  0  0  0  0  0  0
  140.0670   73.2590  221.9790 C   0  0  0  0  0  0  0  0  0  0  0  0
  141.2000   73.3340  221.2100 C   0  0  0  0  0  0  0  0  0  0  0  0
  141.7710   74.5160  220.7910 C   0  0  0  0  0  0  0  0  0  0  0  0
  141.1530   75.6850  221.1800 C   0  0  0  0  0  0  0  0  0  0  0  0
  141.7110   76.8730  220.7690 C   0  0  0  0  0  0  0  0  0  0  0  0
  141.1030   78.0540  221.1500 C   0  0  0  0  0  0  0  0  0  0  0  0
  141.8140   79.5460  220.6290 Cl  0  0  0  0  0  0  0  0  0  0  0  0
  139.9490   77.9940  221.9340 C   0  0  0  0  0  0  0  0  0  0  0  0
  139.4180   76.7790  222.3260 C   0  0  0  0  0  0  0  0  0  0  0  0
  140.0130   75.6050  221.9540 C   0  0  0  0  0  0  0  0  0  0  0  0
  139.4840   74.4330  222.3440 N   0  0  0  0  0  0  0  0  0  0  0  0
  137.9680   68.0930  221.9850 C   0  0  0  0  0  0  0  0  0  0  0  0
  138.3050   67.9980  220.7770 O   0  0  0  0  0  0  0  0  0  0  0  0
  138.8220   67.4990  223.0460 C   0  0  0  0  0  0  0  0  0  0  0  0
  139.3610   68.5780  223.8550 N   0  0  0  0  0  0  0  0  0  0  0  0
  139.5220   68.4740  225.2490 C   0  0  0  0  0  0  0  0  0  0  0  0
  139.1860   67.4050  225.8200 O   0  0  0  0  0  0  0  0  0  0  0  0
  140.0600   69.5340  226.0940 C   0  0  0  0  0  0  0  0  0  0  0  0
  140.6280   70.6310  225.4790 C   0  0  0  0  0  0  0  0  0  0  0  0
  141.1540   71.6670  226.2550 C   0  0  0  0  0  0  0  0  0  0  0  0
  141.1080   71.6020  227.6310 C   0  0  0  0  0  0  0  0  0  0  0  0
  140.5420   70.5090  228.2580 C   0  0  0  0  0  0  0  0  0  0  0  0
  140.0260   69.4920  227.4720 C   0  0  0  0  0  0  0  0  0  0  0  0
  135.2920   67.8010  223.3919 H   0  0  0  0  0  0  0  0  0  0  0  0
  134.7193   68.4982  221.8386 H   0  0  0  0  0  0  0  0  0  0  0  0
  135.7211   67.0072  221.8386 H   0  0  0  0  0  0  0  0  0  0  0  0
  136.9708   70.7198  221.4986 H   0  0  0  0  0  0  0  0  0  0  0  0
  135.6734   70.4830  222.7551 H   0  0  0  0  0  0  0  0  0  0  0  0
  137.0545   70.9073  224.4364 H   0  0  0  0  0  0  0  0  0  0  0  0
  138.3864   69.9454  223.7224 H   0  0  0  0  0  0  0  0  0  0  0  0
  137.7820   72.8600  223.2490 H   0  0  0  0  0  0  0  0  0  0  0  0
  141.6827   72.3925  220.9091 H   0  0  0  0  0  0  0  0  0  0  0  0
  142.6808   74.5262  220.1728 H   0  0  0  0  0  0  0  0  0  0  0  0
  142.6208   76.8828  220.1509 H   0  0  0  0  0  0  0  0  0  0  0  0
  139.4553   78.9268  222.2442 H   0  0  0  0  0  0  0  0  0  0  0  0
  138.5078   76.7564  222.9433 H   0  0  0  0  0  0  0  0  0  0  0  0
  138.2199   66.8272  223.6754 H   0  0  0  0  0  0  0  0  0  0  0  0
  139.6402   66.9194  222.5937 H   0  0  0  0  0  0  0  0  0  0  0  0
  139.6460   69.4720  223.3960 H   0  0  0  0  0  0  0  0  0  0  0  0
  140.6665   70.6896  224.3812 H   0  0  0  0  0  0  0  0  0  0  0  0
  141.6080   72.5406  225.7644 H   0  0  0  0  0  0  0  0  0  0  0  0
  141.5237   72.4239  228.2324 H   0  0  0  0  0  0  0  0  0  0  0  0
  140.5020   70.4478  229.3556 H   0  0  0  0  0  0  0  0  0  0  0  0
  139.5727   68.6192  227.9647 H   0  0  0  0  0  0  0  0  0  0  0  0
  1  2  1  0
  2  3  1  0
  3  4  1  0
  4  5  1  0
  5  6  1  0
  6  7  2  0
  6  8  1  0
  8  9  2  0
  9 10  1  0
 10 11  2  0
 11 12  1  0
 12 13  2  0
 13 14  1  0
 13 15  1  0
 15 16  2  0
 16 17  1  0
 17 18  2  0
  2 19  1  0
 19 20  2  0
 19 21  1  0
 21 22  1  0
 22 23  1  0
 23 24  2  0
 23 25  1  0
 25 26  2  0
 26 27  1  0
 27 28  2  0
 28 29  1  0
 29 30  2  0
 18  8  1  0
 30 25  1  0
 17 11  1  0
  1 31  1  0
  1 32  1  0
  1 33  1  0
  3 34  1  0
  3 35  1  0
  4 36  1  0
  4 37  1  0
  5 38  1  0
  9 39  1  0
 10 40  1  0
 12 41  1  0
 15 42  1  0
 16 43  1  0
 21 44  1  0
 21 45  1  0
 22 46  1  0
 26 47  1  0
 27 48  1  0
 28 49  1  0
 29 50  1  0
 30 51  1  0
M  END
>  <smiles>  (24) 
CN(CCNC(=O)c1ccc2cc(Cl)ccc2n1)C(=O)CNC(=O)c1ccccc1

>  <score_type>  (24) 
oracle

>  <origin>  (24) 
autodockgpu

>  <m_score__min__energy>  (24) 
-8.6300000000000008

>  <m_primary>  (24) 
energy

>  <rmsd>  (24) 
6.535963799066482

>  <m_score__min__rmsd>  (24) 
6.535963799066482

>  <meeko>  (24) 
{"free_energy": -7.8, "intermolecular_energy": -10.19, "internal_energy": -2.69, "cluster_size": 4, "cluster_id": 5, "rank_in_cluster": 1}

>  <energy>  (24) 
-7.87

>  <cluster_rmsd>  (24) 
1.66

>  <cluster>  (24) 
3

$$$$

     RDKit          3D

 51 53  0  0  0  0  0  0  0  0999 V2000
  137.3580   73.5220  220.0680 C   0  0  0  0  0  0  0  0  0  0  0  0
  138.0150   74.2370  221.1540 N   0  0  0  0  0  0  0  0  0  0  0  0
  137.7600   75.6570  221.3770 C   0  0  0  0  0  0  0  0  0  0  0  0
  136.4350   75.9150  222.0190 C   0  0  0  0  0  0  0  0  0  0  0  0
  135.9780   74.6960  222.6570 N   0  0  0  0  0  0  0  0  0  0  0  0
  135.5740   74.6230  224.0140 C   0  0  0  0  0  0  0  0  0  0  0  0
  135.5830   75.6190  224.7650 O   0  0  0  0  0  0  0  0  0  0  0  0
  135.1270   73.3370  224.5600 C   0  0  0  0  0  0  0  0  0  0  0  0
  134.3850   73.2700  225.7120 C   0  0  0  0  0  0  0  0  0  0  0  0
  133.9360   72.0940  226.2750 C   0  0  0  0  0  0  0  0  0  0  0  0
  134.2640   70.9230  225.6260 C   0  0  0  0  0  0  0  0  0  0  0  0
  133.8240   69.7410  226.1750 C   0  0  0  0  0  0  0  0  0  0  0  0
  134.1430   68.5580  225.5360 C   0  0  0  0  0  0  0  0  0  0  0  0
  133.5850   67.0740  226.2360 Cl  0  0  0  0  0  0  0  0  0  0  0  0
  134.8980   68.6090  224.3630 C   0  0  0  0  0  0  0  0  0  0  0  0
  135.3230   69.8180  223.8430 C   0  0  0  0  0  0  0  0  0  0  0  0
  135.0110   70.9940  224.4670 C   0  0  0  0  0  0  0  0  0  0  0  0
  135.4310   72.1600  223.9480 N   0  0  0  0  0  0  0  0  0  0  0  0
  138.9010   73.4800  221.9680 C   0  0  0  0  0  0  0  0  0  0  0  0
  139.9480   74.0620  222.3540 O   0  0  0  0  0  0  0  0  0  0  0  0
  138.6420   72.0720  222.3660 C   0  0  0  0  0  0  0  0  0  0  0  0
  139.3200   71.8210  223.6250 N   0  0  0  0  0  0  0  0  0  0  0  0
  139.1290   70.6420  224.3680 C   0  0  0  0  0  0  0  0  0  0  0  0
  138.3390   69.7680  223.9270 O   0  0  0  0  0  0  0  0  0  0  0  0
  139.7910   70.3540  225.6350 C   0  0  0  0  0  0  0  0  0  0  0  0
  140.4130   71.3930  226.2950 C   0  0  0  0  0  0  0  0  0  0  0  0
  141.0580   71.1570  227.5120 C   0  0  0  0  0  0  0  0  0  0  0  0
  141.0770   69.8920  228.0580 C   0  0  0  0  0  0  0  0  0  0  0  0
  140.4580   68.8430  227.4060 C   0  0  0  0  0  0  0  0  0  0  0  0
  139.8240   69.0970  226.2020 C   0  0  0  0  0  0  0  0  0  0  0  0
  136.6695   72.7728  220.4859 H   0  0  0  0  0  0  0  0  0  0  0  0
  136.7929   74.2344  219.4490 H   0  0  0  0  0  0  0  0  0  0  0  0
  138.1155   73.0190  219.4490 H   0  0  0  0  0  0  0  0  0  0  0  0
  138.5502   76.0576  222.0291 H   0  0  0  0  0  0  0  0  0  0  0  0
  137.7525   76.1500  220.3937 H   0  0  0  0  0  0  0  0  0  0  0  0
  136.5380   76.7100  222.7723 H   0  0  0  0  0  0  0  0  0  0  0  0
  135.7073   76.2332  221.2579 H   0  0  0  0  0  0  0  0  0  0  0  0
  135.9400   73.8030  222.0890 H   0  0  0  0  0  0  0  0  0  0  0  0
  134.1324   74.2134  226.2182 H   0  0  0  0  0  0  0  0  0  0  0  0
  133.3423   72.0905  227.2010 H   0  0  0  0  0  0  0  0  0  0  0  0
  133.2316   69.7375  227.1018 H   0  0  0  0  0  0  0  0  0  0  0  0
  135.1586   67.6743  223.8449 H   0  0  0  0  0  0  0  0  0  0  0  0
  135.9181   69.8337  222.9180 H   0  0  0  0  0  0  0  0  0  0  0  0
  137.5604   71.9131  222.4881 H   0  0  0  0  0  0  0  0  0  0  0  0
  139.0147   71.3851  221.5918 H   0  0  0  0  0  0  0  0  0  0  0  0
  139.9800   72.5360  224.0060 H   0  0  0  0  0  0  0  0  0  0  0  0
  140.4014   72.4052  225.8644 H   0  0  0  0  0  0  0  0  0  0  0  0
  141.5538   71.9865  228.0375 H   0  0  0  0  0  0  0  0  0  0  0  0
  141.5870   69.7167  229.0167 H   0  0  0  0  0  0  0  0  0  0  0  0
  140.4687   67.8296  227.8337 H   0  0  0  0  0  0  0  0  0  0  0  0
  139.3285   68.2662  225.6783 H   0  0  0  0  0  0  0  0  0  0  0  0
  1  2  1  0
  2  3  1  0
  3  4  1  0
  4  5  1  0
  5  6  1  0
  6  7  2  0
  6  8  1  0
  8  9  2  0
  9 10  1  0
 10 11  2  0
 11 12  1  0
 12 13  2  0
 13 14  1  0
 13 15  1  0
 15 16  2  0
 16 17  1  0
 17 18  2  0
  2 19  1  0
 19 20  2  0
 19 21  1  0
 21 22  1  0
 22 23  1  0
 23 24  2  0
 23 25  1  0
 25 26  2  0
 26 27  1  0
 27 28  2  0
 28 29  1  0
 29 30  2  0
 18  8  1  0
 30 25  1  0
 17 11  1  0
  1 31  1  0
  1 32  1  0
  1 33  1  0
  3 34  1  0
  3 35  1  0
  4 36  1  0
  4 37  1  0
  5 38  1  0
  9 39  1  0
 10 40  1  0
 12 41  1  0
 15 42  1  0
 16 43  1  0
 21 44  1  0
 21 45  1  0
 22 46  1  0
 26 47  1  0
 27 48  1  0
 28 49  1  0
 29 50  1  0
 30 51  1  0
M  END
>  <smiles>  (25) 
CN(CCNC(=O)c1ccc2cc(Cl)ccc2n1)C(=O)CNC(=O)c1ccccc1

>  <score_type>  (25) 
oracle

>  <origin>  (25) 
autodockgpu

>  <m_score__min__energy>  (25) 
-8.6300000000000008

>  <m_primary>  (25) 
energy

>  <rmsd>  (25) 
7.604201111824619

>  <m_score__min__rmsd>  (25) 
7.604201111824619

>  <meeko>  (25) 
{"free_energy": -6.43, "intermolecular_energy": -8.81, "internal_energy": -2.95, "cluster_size": 1, "cluster_id": 9, "rank_in_cluster": 1}

>  <energy>  (25) 
-7.64

>  <cluster_rmsd>  (25) 
0.88

>  <cluster>  (25) 
3

$$$$

     RDKit          3D

 51 53  0  0  0  0  0  0  0  0999 V2000
  140.5140   73.2560  219.0020 C   0  0  0  0  0  0  0  0  0  0  0  0
  141.3380   73.4510  220.1870 N   0  0  0  0  0  0  0  0  0  0  0  0
  142.7730   73.6890  220.0700 C   0  0  0  0  0  0  0  0  0  0  0  0
  143.0970   75.0750  219.6140 C   0  0  0  0  0  0  0  0  0  0  0  0
  142.4160   76.0220  220.4750 N   0  0  0  0  0  0  0  0  0  0  0  0
  142.1780   77.3740  220.1230 C   0  0  0  0  0  0  0  0  0  0  0  0
  142.5460   77.8520  219.0300 O   0  0  0  0  0  0  0  0  0  0  0  0
  141.4770   78.2490  221.0700 C   0  0  0  0  0  0  0  0  0  0  0  0
  142.1220   79.2860  221.6940 C   0  0  0  0  0  0  0  0  0  0  0  0
  141.5180   80.1420  222.5920 C   0  0  0  0  0  0  0  0  0  0  0  0
  140.1850   79.9250  222.8670 C   0  0  0  0  0  0  0  0  0  0  0  0
  139.5690   80.7700  223.7610 C   0  0  0  0  0  0  0  0  0  0  0  0
  138.2330   80.5660  224.0470 C   0  0  0  0  0  0  0  0  0  0  0  0
  137.4660   81.6350  225.1740 Cl  0  0  0  0  0  0  0  0  0  0  0  0
  137.5630   79.5140  223.4190 C   0  0  0  0  0  0  0  0  0  0  0  0
  138.2180   78.6860  222.5260 C   0  0  0  0  0  0  0  0  0  0  0  0
  139.5410   78.8800  222.2360 C   0  0  0  0  0  0  0  0  0  0  0  0
  140.1620   78.0660  221.3660 N   0  0  0  0  0  0  0  0  0  0  0  0
  140.6690   73.3980  221.4410 C   0  0  0  0  0  0  0  0  0  0  0  0
  140.6960   74.4450  222.1380 O   0  0  0  0  0  0  0  0  0  0  0  0
  139.9640   72.1880  221.9380 C   0  0  0  0  0  0  0  0  0  0  0  0
  140.0880   72.1510  223.3850 N   0  0  0  0  0  0  0  0  0  0  0  0
  140.0620   70.9500  224.1180 C   0  0  0  0  0  0  0  0  0  0  0  0
  139.9270   69.8640  223.4980 O   0  0  0  0  0  0  0  0  0  0  0  0
  140.1830   70.8710  225.5680 C   0  0  0  0  0  0  0  0  0  0  0  0
  140.8880   71.8650  226.2170 C   0  0  0  0  0  0  0  0  0  0  0  0
  141.0270   71.8240  227.6070 C   0  0  0  0  0  0  0  0  0  0  0  0
  140.4630   70.8000  228.3350 C   0  0  0  0  0  0  0  0  0  0  0  0
  139.7550   69.7990  227.6970 C   0  0  0  0  0  0  0  0  0  0  0  0
  139.6290   69.8560  226.3200 C   0  0  0  0  0  0  0  0  0  0  0  0
  139.4854   73.0126  219.3066 H   0  0  0  0  0  0  0  0  0  0  0  0
  140.5103   74.1781  218.4022 H   0  0  0  0  0  0  0  0  0  0  0  0
  140.9240   72.4301  218.4022 H   0  0  0  0  0  0  0  0  0  0  0  0
  143.2373   73.5255  221.0537 H   0  0  0  0  0  0  0  0  0  0  0  0
  143.1626   72.9926  219.3129 H   0  0  0  0  0  0  0  0  0  0  0  0
  144.1833   75.2384  219.6711 H   0  0  0  0  0  0  0  0  0  0  0  0
  142.7676   75.2124  218.5735 H   0  0  0  0  0  0  0  0  0  0  0  0
  142.0710   75.6970  221.4230 H   0  0  0  0  0  0  0  0  0  0  0  0
  143.1860   79.4451  221.4646 H   0  0  0  0  0  0  0  0  0  0  0  0
  142.0761   80.9619  223.0677 H   0  0  0  0  0  0  0  0  0  0  0  0
  140.1275   81.5893  224.2372 H   0  0  0  0  0  0  0  0  0  0  0  0
  136.4989   79.3415  223.6378 H   0  0  0  0  0  0  0  0  0  0  0  0
  137.6699   77.8631  222.0439 H   0  0  0  0  0  0  0  0  0  0  0  0
  138.9016   72.2344  221.6566 H   0  0  0  0  0  0  0  0  0  0  0  0
  140.4062   71.2829  221.4961 H   0  0  0  0  0  0  0  0  0  0  0  0
  140.2010   73.0440  223.9150 H   0  0  0  0  0  0  0  0  0  0  0  0
  141.3390   72.6869  225.6416 H   0  0  0  0  0  0  0  0  0  0  0  0
  141.5908   72.6151  228.1231 H   0  0  0  0  0  0  0  0  0  0  0  0
  140.5765   70.7787  229.4289 H   0  0  0  0  0  0  0  0  0  0  0  0
  139.3024   68.9765  228.2702 H   0  0  0  0  0  0  0  0  0  0  0  0
  139.0663   69.0626  225.8063 H   0  0  0  0  0  0  0  0  0  0  0  0
  1  2  1  0
  2  3  1  0
  3  4  1  0
  4  5  1  0
  5  6  1  0
  6  7  2  0
  6  8  1  0
  8  9  2  0
  9 10  1  0
 10 11  2  0
 11 12  1  0
 12 13  2  0
 13 14  1  0
 13 15  1  0
 15 16  2  0
 16 17  1  0
 17 18  2  0
  2 19  1  0
 19 20  2  0
 19 21  1  0
 21 22  1  0
 22 23  1  0
 23 24  2  0
 23 25  1  0
 25 26  2  0
 26 27  1  0
 27 28  2  0
 28 29  1  0
 29 30  2  0
 18  8  1  0
 30 25  1  0
 17 11  1  0
  1 31  1  0
  1 32  1  0
  1 33  1  0
  3 34  1  0
  3 35  1  0
  4 36  1  0
  4 37  1  0
  5 38  1  0
  9 39  1  0
 10 40  1  0
 12 41  1  0
 15 42  1  0
 16 43  1  0
 21 44  1  0
 21 45  1  0
 22 46  1  0
 26 47  1  0
 27 48  1  0
 28 49  1  0
 29 50  1  0
 30 51  1  0
M  END
>  <smiles>  (26) 
CN(CCNC(=O)c1ccc2cc(Cl)ccc2n1)C(=O)CNC(=O)c1ccccc1

>  <score_type>  (26) 
oracle

>  <origin>  (26) 
autodockgpu

>  <m_score__min__energy>  (26) 
-8.6300000000000008

>  <m_primary>  (26) 
energy

>  <rmsd>  (26) 
3.1719167250312696

>  <m_score__min__rmsd>  (26) 
3.1719167250312696

>  <meeko>  (26) 
{"free_energy": -8.12, "intermolecular_energy": -10.51, "internal_energy": -2.43, "cluster_size": 8, "cluster_id": 3, "rank_in_cluster": 1}

>  <energy>  (26) 
-7.45

>  <cluster_rmsd>  (26) 
0.84

>  <cluster>  (26) 
3

$$$$

     RDKit          3D

 51 53  0  0  0  0  0  0  0  0999 V2000
  136.6440   73.4030  222.0460 C   0  0  0  0  0  0  0  0  0  0  0  0
  137.7230   74.0170  221.2850 N   0  0  0  0  0  0  0  0  0  0  0  0
  137.9080   73.7140  219.8700 C   0  0  0  0  0  0  0  0  0  0  0  0
  138.8310   72.5610  219.6380 C   0  0  0  0  0  0  0  0  0  0  0  0
  139.1090   71.9220  220.9100 N   0  0  0  0  0  0  0  0  0  0  0  0
  138.6360   70.6320  221.2600 C   0  0  0  0  0  0  0  0  0  0  0  0
  137.9360   69.9470  220.4860 O   0  0  0  0  0  0  0  0  0  0  0  0
  138.9760   70.0760  222.5750 C   0  0  0  0  0  0  0  0  0  0  0  0
  138.6020   68.8060  222.9310 C   0  0  0  0  0  0  0  0  0  0  0  0
  138.8910   68.2280  224.1490 C   0  0  0  0  0  0  0  0  0  0  0  0
  139.6010   68.9900  225.0520 C   0  0  0  0  0  0  0  0  0  0  0  0
  139.8970   68.4280  226.2720 C   0  0  0  0  0  0  0  0  0  0  0  0
  140.6090   69.1790  227.1880 C   0  0  0  0  0  0  0  0  0  0  0  0
  140.9770   68.4620  228.7220 Cl  0  0  0  0  0  0  0  0  0  0  0  0
  140.9970   70.4740  226.8410 C   0  0  0  0  0  0  0  0  0  0  0  0
  140.6790   71.0040  225.6030 C   0  0  0  0  0  0  0  0  0  0  0  0
  139.9760   70.2690  224.6890 C   0  0  0  0  0  0  0  0  0  0  0  0
  139.6750   70.7980  223.4920 N   0  0  0  0  0  0  0  0  0  0  0  0
  138.5690   74.9140  221.9940 C   0  0  0  0  0  0  0  0  0  0  0  0
  139.6980   74.4740  222.3330 O   0  0  0  0  0  0  0  0  0  0  0  0
  138.1770   76.3050  222.3380 C   0  0  0  0  0  0  0  0  0  0  0  0
  139.3860   77.0770  222.5670 N   0  0  0  0  0  0  0  0  0  0  0  0
  139.3640   78.4480  222.8780 C   0  0  0  0  0  0  0  0  0  0  0  0
  138.2530   79.0340  222.9600 O   0  0  0  0  0  0  0  0  0  0  0  0
  140.5540   79.2560  223.1150 C   0  0  0  0  0  0  0  0  0  0  0  0
  141.7830   78.7060  222.8140 C   0  0  0  0  0  0  0  0  0  0  0  0
  142.9480   79.4480  223.0270 C   0  0  0  0  0  0  0  0  0  0  0  0
  142.8780   80.7270  223.5350 C   0  0  0  0  0  0  0  0  0  0  0  0
  141.6530   81.2890  223.8410 C   0  0  0  0  0  0  0  0  0  0  0  0
  140.5100   80.5380  223.6230 C   0  0  0  0  0  0  0  0  0  0  0  0
  136.8434   73.5164  223.1218 H   0  0  0  0  0  0  0  0  0  0  0  0
  135.6926   73.8950  221.7955 H   0  0  0  0  0  0  0  0  0  0  0  0
  136.5810   72.3338  221.7955 H   0  0  0  0  0  0  0  0  0  0  0  0
  136.9283   73.4731  219.4316 H   0  0  0  0  0  0  0  0  0  0  0  0
  138.3606   74.5992  219.3992 H   0  0  0  0  0  0  0  0  0  0  0  0
  138.3566   71.8388  218.9572 H   0  0  0  0  0  0  0  0  0  0  0  0
  139.7683   72.9175  219.1859 H   0  0  0  0  0  0  0  0  0  0  0  0
  139.6960   72.4360  221.6250 H   0  0  0  0  0  0  0  0  0  0  0  0
  138.0360   68.2109  222.1992 H   0  0  0  0  0  0  0  0  0  0  0  0
  138.5692   67.2040  224.3895 H   0  0  0  0  0  0  0  0  0  0  0  0
  139.5745   67.4044  226.5131 H   0  0  0  0  0  0  0  0  0  0  0  0
  141.5635   71.0818  227.5618 H   0  0  0  0  0  0  0  0  0  0  0  0
  140.9950   72.0272  225.3515 H   0  0  0  0  0  0  0  0  0  0  0  0
  137.6057   76.7463  221.5080 H   0  0  0  0  0  0  0  0  0  0  0  0
  137.5485   76.3090  223.2407 H   0  0  0  0  0  0  0  0  0  0  0  0
  140.3170   76.6060  222.5030 H   0  0  0  0  0  0  0  0  0  0  0  0
  141.8458   77.6859  222.4073 H   0  0  0  0  0  0  0  0  0  0  0  0
  143.9274   79.0081  222.7875 H   0  0  0  0  0  0  0  0  0  0  0  0
  143.8009   81.3030  223.6977 H   0  0  0  0  0  0  0  0  0  0  0  0
  141.5874   82.3088  224.2481 H   0  0  0  0  0  0  0  0  0  0  0  0
  139.5317   80.9796  223.8636 H   0  0  0  0  0  0  0  0  0  0  0  0
  1  2  1  0
  2  3  1  0
  3  4  1  0
  4  5  1  0
  5  6  1  0
  6  7  2  0
  6  8  1  0
  8  9  2  0
  9 10  1  0
 10 11  2  0
 11 12  1  0
 12 13  2  0
 13 14  1  0
 13 15  1  0
 15 16  2  0
 16 17  1  0
 17 18  2  0
  2 19  1  0
 19 20  2  0
 19 21  1  0
 21 22  1  0
 22 23  1  0
 23 24  2  0
 23 25  1  0
 25 26  2  0
 26 27  1  0
 27 28  2  0
 28 29  1  0
 29 30  2  0
 18  8  1  0
 30 25  1  0
 17 11  1  0
  1 31  1  0
  1 32  1  0
  1 33  1  0
  3 34  1  0
  3 35  1  0
  4 36  1  0
  4 37  1  0
  5 38  1  0
  9 39  1  0
 10 40  1  0
 12 41  1  0
 15 42  1  0
 16 43  1  0
 21 44  1  0
 21 45  1  0
 22 46  1  0
 26 47  1  0
 27 48  1  0
 28 49  1  0
 29 50  1  0
 30 51  1  0
M  END
>  <smiles>  (27) 
CN(CCNC(=O)c1ccc2cc(Cl)ccc2n1)C(=O)CNC(=O)c1ccccc1

>  <score_type>  (27) 
oracle

>  <origin>  (27) 
autodockgpu

>  <m_score__min__energy>  (27) 
-8.6300000000000008

>  <m_primary>  (27) 
energy

>  <rmsd>  (27) 
9.950544190240304

>  <m_score__min__rmsd>  (27) 
9.950544190240304

>  <meeko>  (27) 
{"free_energy": -7.37, "intermolecular_energy": -9.76, "internal_energy": -2.9, "cluster_size": 10, "cluster_id": 2, "rank_in_cluster": 8}

>  <energy>  (27) 
-6.12

>  <cluster_rmsd>  (27) 
1.94

>  <cluster>  (27) 
3

$$$$

     RDKit          3D

 51 53  0  0  0  0  0  0  0  0999 V2000
  139.8710   73.8720  219.0980 C   0  0  0  0  0  0  0  0  0  0  0  0
  140.8410   73.3930  220.0720 N   0  0  0  0  0  0  0  0  0  0  0  0
  142.1780   72.9800  219.6560 C   0  0  0  0  0  0  0  0  0  0  0  0
  143.2620   73.7710  220.3160 C   0  0  0  0  0  0  0  0  0  0  0  0
  142.8560   75.1610  220.3750 N   0  0  0  0  0  0  0  0  0  0  0  0
  143.0400   76.0780  219.3090 C   0  0  0  0  0  0  0  0  0  0  0  0
  143.5720   75.7470  218.2310 O   0  0  0  0  0  0  0  0  0  0  0  0
  142.5910   77.4660  219.4730 C   0  0  0  0  0  0  0  0  0  0  0  0
  142.5770   78.3400  218.4160 C   0  0  0  0  0  0  0  0  0  0  0  0
  142.1670   79.6540  218.5060 C   0  0  0  0  0  0  0  0  0  0  0  0
  141.7500   80.0980  219.7420 C   0  0  0  0  0  0  0  0  0  0  0  0
  141.3380   81.4060  219.8480 C   0  0  0  0  0  0  0  0  0  0  0  0
  140.9150   81.8660  221.0800 C   0  0  0  0  0  0  0  0  0  0  0  0
  140.3980   83.5160  221.2040 Cl  0  0  0  0  0  0  0  0  0  0  0  0
  140.9230   80.9880  222.1660 C   0  0  0  0  0  0  0  0  0  0  0  0
  141.3450   79.6800  222.0180 C   0  0  0  0  0  0  0  0  0  0  0  0
  141.7650   79.2140  220.8030 C   0  0  0  0  0  0  0  0  0  0  0  0
  142.1720   77.9400  220.6770 N   0  0  0  0  0  0  0  0  0  0  0  0
  140.4140   73.3550  221.4280 C   0  0  0  0  0  0  0  0  0  0  0  0
  140.6920   74.3580  222.1350 O   0  0  0  0  0  0  0  0  0  0  0  0
  139.6760   72.2080  222.0180 C   0  0  0  0  0  0  0  0  0  0  0  0
  139.9950   72.1400  223.4330 N   0  0  0  0  0  0  0  0  0  0  0  0
  139.9840   70.9330  224.1560 C   0  0  0  0  0  0  0  0  0  0  0  0
  139.6850   69.8690  223.5560 O   0  0  0  0  0  0  0  0  0  0  0  0
  140.2990   70.8240  225.5760 C   0  0  0  0  0  0  0  0  0  0  0  0
  140.1030   69.6050  226.1930 C   0  0  0  0  0  0  0  0  0  0  0  0
  140.3930   69.4600  227.5520 C   0  0  0  0  0  0  0  0  0  0  0  0
  140.8740   70.5260  228.2810 C   0  0  0  0  0  0  0  0  0  0  0  0
  141.0740   71.7520  227.6740 C   0  0  0  0  0  0  0  0  0  0  0  0
  140.7810   71.8750  226.3270 C   0  0  0  0  0  0  0  0  0  0  0  0
  139.0045   74.2999  219.6234 H   0  0  0  0  0  0  0  0  0  0  0  0
  140.3354   74.6443  218.4673 H   0  0  0  0  0  0  0  0  0  0  0  0
  139.5401   73.0337  218.4673 H   0  0  0  0  0  0  0  0  0  0  0  0
  142.3129   71.9185  219.9110 H   0  0  0  0  0  0  0  0  0  0  0  0
  142.2553   73.1532  218.5725 H   0  0  0  0  0  0  0  0  0  0  0  0
  143.4290   73.3911  221.3347 H   0  0  0  0  0  0  0  0  0  0  0  0
  144.1953   73.6783  219.7412 H   0  0  0  0  0  0  0  0  0  0  0  0
  142.3960   75.5250  221.2570 H   0  0  0  0  0  0  0  0  0  0  0  0
  142.9134   77.9703  217.4361 H   0  0  0  0  0  0  0  0  0  0  0  0
  142.1727   80.3184  217.6293 H   0  0  0  0  0  0  0  0  0  0  0  0
  141.3452   82.0707  218.9716 H   0  0  0  0  0  0  0  0  0  0  0  0
  140.5890   81.3421  223.1525 H   0  0  0  0  0  0  0  0  0  0  0  0
  141.3429   79.0063  222.8876 H   0  0  0  0  0  0  0  0  0  0  0  0
  138.5937   72.3552  221.8873 H   0  0  0  0  0  0  0  0  0  0  0  0
  139.9675   71.2724  221.5184 H   0  0  0  0  0  0  0  0  0  0  0  0
  140.2460   73.0140  223.9480 H   0  0  0  0  0  0  0  0  0  0  0  0
  139.7196   68.7502  225.6165 H   0  0  0  0  0  0  0  0  0  0  0  0
  140.2364   68.4884  228.0434 H   0  0  0  0  0  0  0  0  0  0  0  0
  141.0997   70.4009  229.3503 H   0  0  0  0  0  0  0  0  0  0  0  0
  141.4567   72.6089  228.2478 H   0  0  0  0  0  0  0  0  0  0  0  0
  140.9385   72.8474  225.8374 H   0  0  0  0  0  0  0  0  0  0  0  0
  1  2  1  0
  2  3  1  0
  3  4  1  0
  4  5  1  0
  5  6  1  0
  6  7  2  0
  6  8  1  0
  8  9  2  0
  9 10  1  0
 10 11  2  0
 11 12  1  0
 12 13  2  0
 13 14  1  0
 13 15  1  0
 15 16  2  0
 16 17  1  0
 17 18  2  0
  2 19  1  0
 19 20  2  0
 19 21  1  0
 21 22  1  0
 22 23  1  0
 23 24  2  0
 23 25  1  0
 25 26  2  0
 26 27  1  0
 27 28  2  0
 28 29  1  0
 29 30  2  0
 18  8  1  0
 30 25  1  0
 17 11  1  0
  1 31  1  0
  1 32  1  0
  1 33  1  0
  3 34  1  0
  3 35  1  0
  4 36  1  0
  4 37  1  0
  5 38  1  0
  9 39  1  0
 10 40  1  0
 12 41  1  0
 15 42  1  0
 16 43  1  0
 21 44  1  0
 21 45  1  0
 22 46  1  0
 26 47  1  0
 27 48  1  0
 28 49  1  0
 29 50  1  0
 30 51  1  0
M  END
>  <smiles>  (28) 
CN(CCNC(=O)c1ccc2cc(Cl)ccc2n1)C(=O)CNC(=O)c1ccccc1

>  <score_type>  (28) 
oracle

>  <origin>  (28) 
autodockgpu

>  <m_score__min__energy>  (28) 
-8.6300000000000008

>  <m_primary>  (28) 
energy

>  <rmsd>  (28) 
3.3953338790219836

>  <m_score__min__rmsd>  (28) 
3.3953338790219836

>  <meeko>  (28) 
{"free_energy": -7.87, "intermolecular_energy": -10.26, "internal_energy": -2.72, "cluster_size": 8, "cluster_id": 3, "rank_in_cluster": 5}

>  <energy>  (28) 
-7.99

>  <cluster_rmsd>  (28) 
0.0

>  <cluster>  (28) 
4

$$$$

     RDKit          3D

 51 53  0  0  0  0  0  0  0  0999 V2000
  138.8470   74.1110  219.3960 C   0  0  0  0  0  0  0  0  0  0  0  0
  140.0870   73.9170  220.1350 N   0  0  0  0  0  0  0  0  0  0  0  0
  141.3810   74.1000  219.4860 C   0  0  0  0  0  0  0  0  0  0  0  0
  142.4210   74.6480  220.4100 C   0  0  0  0  0  0  0  0  0  0  0  0
  141.8230   75.6880  221.2230 N   0  0  0  0  0  0  0  0  0  0  0  0
  141.2470   76.8690  220.6890 C   0  0  0  0  0  0  0  0  0  0  0  0
  141.2160   77.0980  219.4630 O   0  0  0  0  0  0  0  0  0  0  0  0
  140.6650   77.8590  221.6020 C   0  0  0  0  0  0  0  0  0  0  0  0
  141.4540   78.7460  222.2900 C   0  0  0  0  0  0  0  0  0  0  0  0
  140.9670   79.6980  223.1600 C   0  0  0  0  0  0  0  0  0  0  0  0
  139.6020   79.7460  223.3390 C   0  0  0  0  0  0  0  0  0  0  0  0
  139.1010   80.6900  224.2050 C   0  0  0  0  0  0  0  0  0  0  0  0
  137.7340   80.7520  224.3940 C   0  0  0  0  0  0  0  0  0  0  0  0
  137.1130   81.9450  225.4870 Cl  0  0  0  0  0  0  0  0  0  0  0  0
  136.9170   79.8560  223.7020 C   0  0  0  0  0  0  0  0  0  0  0  0
  137.4590   78.9210  222.8400 C   0  0  0  0  0  0  0  0  0  0  0  0
  138.8110   78.8520  222.6450 C   0  0  0  0  0  0  0  0  0  0  0  0
  139.3210   77.9370  221.8040 N   0  0  0  0  0  0  0  0  0  0  0  0
  139.9600   73.5460  221.5030 C   0  0  0  0  0  0  0  0  0  0  0  0
  139.9260   74.4850  222.3400 O   0  0  0  0  0  0  0  0  0  0  0  0
  139.8690   72.1360  221.9600 C   0  0  0  0  0  0  0  0  0  0  0  0
  140.0710   72.1090  223.3980 N   0  0  0  0  0  0  0  0  0  0  0  0
  140.0980   70.9130  224.1390 C   0  0  0  0  0  0  0  0  0  0  0  0
  139.9420   69.8210  223.5340 O   0  0  0  0  0  0  0  0  0  0  0  0
  140.2980   70.8450  225.5810 C   0  0  0  0  0  0  0  0  0  0  0  0
  139.9020   69.7000  226.2400 C   0  0  0  0  0  0  0  0  0  0  0  0
  140.0760   69.5960  227.6220 C   0  0  0  0  0  0  0  0  0  0  0  0
  140.6430   70.6320  228.3330 C   0  0  0  0  0  0  0  0  0  0  0  0
  141.0440   71.7840  227.6860 C   0  0  0  0  0  0  0  0  0  0  0  0
  140.8630   71.8680  226.3160 C   0  0  0  0  0  0  0  0  0  0  0  0
  138.0150   74.2412  220.1036 H   0  0  0  0  0  0  0  0  0  0  0  0
  138.9336   75.0065  218.7631 H   0  0  0  0  0  0  0  0  0  0  0  0
  138.6559   73.2318  218.7631 H   0  0  0  0  0  0  0  0  0  0  0  0
  141.7252   73.1261  219.1077 H   0  0  0  0  0  0  0  0  0  0  0  0
  141.2435   74.8284  218.6733 H   0  0  0  0  0  0  0  0  0  0  0  0
  142.8000   73.8442  221.0582 H   0  0  0  0  0  0  0  0  0  0  0  0
  143.2566   75.0634  219.8275 H   0  0  0  0  0  0  0  0  0  0  0  0
  141.8080   75.5720  222.2760 H   0  0  0  0  0  0  0  0  0  0  0  0
  142.5422   78.6943  222.1380 H   0  0  0  0  0  0  0  0  0  0  0  0
  141.6395   80.3896  223.6886 H   0  0  0  0  0  0  0  0  0  0  0  0
  139.7738   81.3801  224.7352 H   0  0  0  0  0  0  0  0  0  0  0  0
  135.8270   79.8946  223.8446 H   0  0  0  0  0  0  0  0  0  0  0  0
  136.7959   78.2251  222.3052 H   0  0  0  0  0  0  0  0  0  0  0  0
  138.8765   71.7292  221.7161 H   0  0  0  0  0  0  0  0  0  0  0  0
  140.6336   71.5248  221.4582 H   0  0  0  0  0  0  0  0  0  0  0  0
  140.2030   73.0070  223.9170 H   0  0  0  0  0  0  0  0  0  0  0  0
  139.4496   68.8697  225.6779 H   0  0  0  0  0  0  0  0  0  0  0  0
  139.7588   68.6823  228.1459 H   0  0  0  0  0  0  0  0  0  0  0  0
  140.7766   70.5405  229.4210 H   0  0  0  0  0  0  0  0  0  0  0  0
  141.4967   72.6156  228.2460 H   0  0  0  0  0  0  0  0  0  0  0  0
  141.1808   72.7828  225.7943 H   0  0  0  0  0  0  0  0  0  0  0  0
  1  2  1  0
  2  3  1  0
  3  4  1  0
  4  5  1  0
  5  6  1  0
  6  7  2  0
  6  8  1  0
  8  9  2  0
  9 10  1  0
 10 11  2  0
 11 12  1  0
 12 13  2  0
 13 14  1  0
 13 15  1  0
 15 16  2  0
 16 17  1  0
 17 18  2  0
  2 19  1  0
 19 20  2  0
 19 21  1  0
 21 22  1  0
 22 23  1  0
 23 24  2  0
 23 25  1  0
 25 26  2  0
 26 27  1  0
 27 28  2  0
 28 29  1  0
 29 30  2  0
 18  8  1  0
 30 25  1  0
 17 11  1  0
  1 31  1  0
  1 32  1  0
  1 33  1  0
  3 34  1  0
  3 35  1  0
  4 36  1  0
  4 37  1  0
  5 38  1  0
  9 39  1  0
 10 40  1  0
 12 41  1  0
 15 42  1  0
 16 43  1  0
 21 44  1  0
 21 45  1  0
 22 46  1  0
 26 47  1  0
 27 48  1  0
 28 49  1  0
 29 50  1  0
 30 51  1  0
M  END
>  <smiles>  (29) 
CN(CCNC(=O)c1ccc2cc(Cl)ccc2n1)C(=O)CNC(=O)c1ccccc1

>  <score_type>  (29) 
oracle

>  <origin>  (29) 
autodockgpu

>  <m_score__min__energy>  (29) 
-8.6300000000000008

>  <m_primary>  (29) 
energy

>  <rmsd>  (29) 
3.1006287745897465

>  <m_score__min__rmsd>  (29) 
3.1006287745897465

>  <meeko>  (29) 
{"free_energy": -7.97, "intermolecular_energy": -10.35, "internal_energy": -2.45, "cluster_size": 8, "cluster_id": 3, "rank_in_cluster": 3}

>  <energy>  (29) 
-7.85

>  <cluster_rmsd>  (29) 
0.85

>  <cluster>  (29) 
4

$$$$

     RDKit          3D

 51 53  0  0  0  0  0  0  0  0999 V2000
  141.5540   73.0330  219.5530 C   0  0  0  0  0  0  0  0  0  0  0  0
  140.4300   73.7930  220.0820 N   0  0  0  0  0  0  0  0  0  0  0  0
  139.0570   73.3470  219.8660 C   0  0  0  0  0  0  0  0  0  0  0  0
  138.1700   73.6110  221.0410 C   0  0  0  0  0  0  0  0  0  0  0  0
  138.6020   72.7810  222.1480 N   0  0  0  0  0  0  0  0  0  0  0  0
  138.4490   71.3720  222.1790 C   0  0  0  0  0  0  0  0  0  0  0  0
  137.9240   70.7380  221.2420 O   0  0  0  0  0  0  0  0  0  0  0  0
  138.9230   70.6250  223.3510 C   0  0  0  0  0  0  0  0  0  0  0  0
  138.7450   69.2690  223.4530 C   0  0  0  0  0  0  0  0  0  0  0  0
  139.1670   68.5130  224.5260 C   0  0  0  0  0  0  0  0  0  0  0  0
  139.8040   69.1790  225.5510 C   0  0  0  0  0  0  0  0  0  0  0  0
  140.2310   68.4380  226.6280 C   0  0  0  0  0  0  0  0  0  0  0  0
  140.8730   69.0910  227.6630 C   0  0  0  0  0  0  0  0  0  0  0  0
  141.4070   68.1500  229.0170 Cl  0  0  0  0  0  0  0  0  0  0  0  0
  141.0620   70.4710  227.5750 C   0  0  0  0  0  0  0  0  0  0  0  0
  140.6170   71.1800  226.4740 C   0  0  0  0  0  0  0  0  0  0  0  0
  139.9820   70.5440  225.4440 C   0  0  0  0  0  0  0  0  0  0  0  0
  139.5560   71.2480  224.3820 N   0  0  0  0  0  0  0  0  0  0  0  0
  140.7480   74.9740  220.8080 C   0  0  0  0  0  0  0  0  0  0  0  0
  141.0700   74.8230  222.0150 O   0  0  0  0  0  0  0  0  0  0  0  0
  140.7130   76.3330  220.2100 C   0  0  0  0  0  0  0  0  0  0  0  0
  141.1910   77.2800  221.2010 N   0  0  0  0  0  0  0  0  0  0  0  0
  141.0480   78.6720  221.0530 C   0  0  0  0  0  0  0  0  0  0  0  0
  140.4830   79.1170  220.0200 O   0  0  0  0  0  0  0  0  0  0  0  0
  141.5140   79.6540  222.0250 C   0  0  0  0  0  0  0  0  0  0  0  0
  142.1370   79.1930  223.1660 C   0  0  0  0  0  0  0  0  0  0  0  0
  142.5980   80.1030  224.1220 C   0  0  0  0  0  0  0  0  0  0  0  0
  142.4360   81.4580  223.9310 C   0  0  0  0  0  0  0  0  0  0  0  0
  141.8130   81.9310  222.7920 C   0  0  0  0  0  0  0  0  0  0  0  0
  141.3630   81.0150  221.8570 C   0  0  0  0  0  0  0  0  0  0  0  0
  142.1491   72.6306  220.3861 H   0  0  0  0  0  0  0  0  0  0  0  0
  141.1779   72.2031  218.9367 H   0  0  0  0  0  0  0  0  0  0  0  0
  142.1840   73.6912  218.9367 H   0  0  0  0  0  0  0  0  0  0  0  0
  138.6491   73.8758  218.9919 H   0  0  0  0  0  0  0  0  0  0  0  0
  139.0833   72.2586  219.7089 H   0  0  0  0  0  0  0  0  0  0  0  0
  138.2386   74.6714  221.3252 H   0  0  0  0  0  0  0  0  0  0  0  0
  137.1270   73.3759  220.7823 H   0  0  0  0  0  0  0  0  0  0  0  0
  139.0580   73.2400  222.9860 H   0  0  0  0  0  0  0  0  0  0  0  0
  138.2337   68.7524  222.6274 H   0  0  0  0  0  0  0  0  0  0  0  0
  139.0026   67.4260  224.5625 H   0  0  0  0  0  0  0  0  0  0  0  0
  140.0654   67.3512  226.6648 H   0  0  0  0  0  0  0  0  0  0  0  0
  141.5718   71.0020  228.3924 H   0  0  0  0  0  0  0  0  0  0  0  0
  140.7758   72.2674  226.4267 H   0  0  0  0  0  0  0  0  0  0  0  0
  141.3611   76.3653  219.3218 H   0  0  0  0  0  0  0  0  0  0  0  0
  139.6865   76.5873  219.9072 H   0  0  0  0  0  0  0  0  0  0  0  0
  141.6620   76.9280  222.0650 H   0  0  0  0  0  0  0  0  0  0  0  0
  142.2707   78.1125  223.3233 H   0  0  0  0  0  0  0  0  0  0  0  0
  143.0933   79.7349  225.0326 H   0  0  0  0  0  0  0  0  0  0  0  0
  142.8041   82.1659  224.6882 H   0  0  0  0  0  0  0  0  0  0  0  0
  141.6777   83.0109  222.6320 H   0  0  0  0  0  0  0  0  0  0  0  0
  140.8673   81.3854  220.9475 H   0  0  0  0  0  0  0  0  0  0  0  0
  1  2  1  0
  2  3  1  0
  3  4  1  0
  4  5  1  0
  5  6  1  0
  6  7  2  0
  6  8  1  0
  8  9  2  0
  9 10  1  0
 10 11  2  0
 11 12  1  0
 12 13  2  0
 13 14  1  0
 13 15  1  0
 15 16  2  0
 16 17  1  0
 17 18  2  0
  2 19  1  0
 19 20  2  0
 19 21  1  0
 21 22  1  0
 22 23  1  0
 23 24  2  0
 23 25  1  0
 25 26  2  0
 26 27  1  0
 27 28  2  0
 28 29  1  0
 29 30  2  0
 18  8  1  0
 30 25  1  0
 17 11  1  0
  1 31  1  0
  1 32  1  0
  1 33  1  0
  3 34  1  0
  3 35  1  0
  4 36  1  0
  4 37  1  0
  5 38  1  0
  9 39  1  0
 10 40  1  0
 12 41  1  0
 15 42  1  0
 16 43  1  0
 21 44  1  0
 21 45  1  0
 22 46  1  0
 26 47  1  0
 27 48  1  0
 28 49  1  0
 29 50  1  0
 30 51  1  0
M  END
>  <smiles>  (30) 
CN(CCNC(=O)c1ccc2cc(Cl)ccc2n1)C(=O)CNC(=O)c1ccccc1

>  <score_type>  (30) 
oracle

>  <origin>  (30) 
autodockgpu

>  <m_score__min__energy>  (30) 
-8.6300000000000008

>  <m_primary>  (30) 
energy

>  <rmsd>  (30) 
10.06361631242156

>  <m_score__min__rmsd>  (30) 
10.06361631242156

>  <meeko>  (30) 
{"free_energy": -8.1, "intermolecular_energy": -10.48, "internal_energy": -2.3, "cluster_size": 9, "cluster_id": 1, "rank_in_cluster": 5}

>  <energy>  (30) 
-7.67

>  <cluster_rmsd>  (30) 
1.3

>  <cluster>  (30) 
4

$$$$

     RDKit          3D

 51 53  0  0  0  0  0  0  0  0999 V2000
  139.7910   71.9370  220.1150 C   0  0  0  0  0  0  0  0  0  0  0  0
  139.3910   73.3080  220.4020 N   0  0  0  0  0  0  0  0  0  0  0  0
  138.0760   73.8020  220.0060 C   0  0  0  0  0  0  0  0  0  0  0  0
  137.0600   73.6870  221.0970 C   0  0  0  0  0  0  0  0  0  0  0  0
  137.6180   72.8940  222.1750 N   0  0  0  0  0  0  0  0  0  0  0  0
  137.2140   71.5660  222.4630 C   0  0  0  0  0  0  0  0  0  0  0  0
  136.3350   70.9790  221.8000 O   0  0  0  0  0  0  0  0  0  0  0  0
  137.8460   70.8500  223.5780 C   0  0  0  0  0  0  0  0  0  0  0  0
  137.4150   69.6070  223.9630 C   0  0  0  0  0  0  0  0  0  0  0  0
  137.9680   68.8850  225.0000 C   0  0  0  0  0  0  0  0  0  0  0  0
  139.0150   69.4660  225.6810 C   0  0  0  0  0  0  0  0  0  0  0  0
  139.5770   68.7590  226.7180 C   0  0  0  0  0  0  0  0  0  0  0  0
  140.6290   69.3270  227.4100 C   0  0  0  0  0  0  0  0  0  0  0  0
  141.3290   68.4290  228.7160 Cl  0  0  0  0  0  0  0  0  0  0  0  0
  141.0780   70.5930  227.0310 C   0  0  0  0  0  0  0  0  0  0  0  0
  140.4870   71.2730  225.9820 C   0  0  0  0  0  0  0  0  0  0  0  0
  139.4460   70.7190  225.2900 C   0  0  0  0  0  0  0  0  0  0  0  0
  138.8820   71.3920  224.2730 N   0  0  0  0  0  0  0  0  0  0  0  0
  140.3430   74.1180  221.0800 C   0  0  0  0  0  0  0  0  0  0  0  0
  140.4430   73.9480  222.3230 O   0  0  0  0  0  0  0  0  0  0  0  0
  141.1930   75.1250  220.3940 C   0  0  0  0  0  0  0  0  0  0  0  0
  141.4900   76.1900  221.3360 N   0  0  0  0  0  0  0  0  0  0  0  0
  141.3410   77.5510  221.0140 C   0  0  0  0  0  0  0  0  0  0  0  0
  140.9350   77.8620  219.8650 O   0  0  0  0  0  0  0  0  0  0  0  0
  141.6290   78.6470  221.9320 C   0  0  0  0  0  0  0  0  0  0  0  0
  141.5530   78.3980  223.2870 C   0  0  0  0  0  0  0  0  0  0  0  0
  141.8210   79.4230  224.1980 C   0  0  0  0  0  0  0  0  0  0  0  0
  142.1630   80.6820  223.7520 C   0  0  0  0  0  0  0  0  0  0  0  0
  142.2420   80.9440  222.3980 C   0  0  0  0  0  0  0  0  0  0  0  0
  141.9720   79.9150  221.5110 C   0  0  0  0  0  0  0  0  0  0  0  0
  139.9489   71.3958  221.0595 H   0  0  0  0  0  0  0  0  0  0  0  0
  139.0009   71.4384  219.5344 H   0  0  0  0  0  0  0  0  0  0  0  0
  140.7253   71.9415  219.5344 H   0  0  0  0  0  0  0  0  0  0  0  0
  138.1692   74.8609  219.7230 H   0  0  0  0  0  0  0  0  0  0  0  0
  137.7297   73.1832  219.1650 H   0  0  0  0  0  0  0  0  0  0  0  0
  136.8035   74.6895  221.4702 H   0  0  0  0  0  0  0  0  0  0  0  0
  136.1504   73.2040  220.7105 H   0  0  0  0  0  0  0  0  0  0  0  0
  138.3710   73.3180  222.7870 H   0  0  0  0  0  0  0  0  0  0  0  0
  136.5764   69.1576  223.4109 H   0  0  0  0  0  0  0  0  0  0  0  0
  137.5894   67.8885  225.2714 H   0  0  0  0  0  0  0  0  0  0  0  0
  139.1972   67.7632  226.9904 H   0  0  0  0  0  0  0  0  0  0  0  0
  141.9143   71.0566  227.5748 H   0  0  0  0  0  0  0  0  0  0  0  0
  140.8581   72.2698  225.7014 H   0  0  0  0  0  0  0  0  0  0  0  0
  142.1287   74.6546  220.0576 H   0  0  0  0  0  0  0  0  0  0  0  0
  140.6667   75.5307  219.5174 H   0  0  0  0  0  0  0  0  0  0  0  0
  141.8280   75.9490  222.2950 H   0  0  0  0  0  0  0  0  0  0  0  0
  141.2821   77.3952  223.6491 H   0  0  0  0  0  0  0  0  0  0  0  0
  141.7587   79.2242  225.2781 H   0  0  0  0  0  0  0  0  0  0  0  0
  142.3739   81.4814  224.4776 H   0  0  0  0  0  0  0  0  0  0  0  0
  142.5128   81.9457  222.0330 H   0  0  0  0  0  0  0  0  0  0  0  0
  142.0333   80.1163  220.4313 H   0  0  0  0  0  0  0  0  0  0  0  0
  1  2  1  0
  2  3  1  0
  3  4  1  0
  4  5  1  0
  5  6  1  0
  6  7  2  0
  6  8  1  0
  8  9  2  0
  9 10  1  0
 10 11  2  0
 11 12  1  0
 12 13  2  0
 13 14  1  0
 13 15  1  0
 15 16  2  0
 16 17  1  0
 17 18  2  0
  2 19  1  0
 19 20  2  0
 19 21  1  0
 21 22  1  0
 22 23  1  0
 23 24  2  0
 23 25  1  0
 25 26  2  0
 26 27  1  0
 27 28  2  0
 28 29  1  0
 29 30  2  0
 18  8  1  0
 30 25  1  0
 17 11  1  0
  1 31  1  0
  1 32  1  0
  1 33  1  0
  3 34  1  0
  3 35  1  0
  4 36  1  0
  4 37  1  0
  5 38  1  0
  9 39  1  0
 10 40  1  0
 12 41  1  0
 15 42  1  0
 16 43  1  0
 21 44  1  0
 21 45  1  0
 22 46  1  0
 26 47  1  0
 27 48  1  0
 28 49  1  0
 29 50  1  0
 30 51  1  0
M  END
>  <smiles>  (31) 
CN(CCNC(=O)c1ccc2cc(Cl)ccc2n1)C(=O)CNC(=O)c1ccccc1

>  <score_type>  (31) 
oracle

>  <origin>  (31) 
autodockgpu

>  <m_score__min__energy>  (31) 
-8.6300000000000008

>  <m_primary>  (31) 
energy

>  <rmsd>  (31) 
9.745794690389252

>  <m_score__min__rmsd>  (31) 
9.745794690389252

>  <meeko>  (31) 
{"free_energy": -8.28, "intermolecular_energy": -10.67, "internal_energy": -2.72, "cluster_size": 10, "cluster_id": 2, "rank_in_cluster": 2}

>  <energy>  (31) 
-7.61

>  <cluster_rmsd>  (31) 
1.12

>  <cluster>  (31) 
4

$$$$

     RDKit          3D

 51 53  0  0  0  0  0  0  0  0999 V2000
  138.8040   73.5760  219.2980 C   0  0  0  0  0  0  0  0  0  0  0  0
  139.9370   73.3200  220.1760 N   0  0  0  0  0  0  0  0  0  0  0  0
  141.2930   73.2320  219.6430 C   0  0  0  0  0  0  0  0  0  0  0  0
  141.8590   74.5650  219.2720 C   0  0  0  0  0  0  0  0  0  0  0  0
  141.2890   75.5730  220.1430 N   0  0  0  0  0  0  0  0  0  0  0  0
  141.9130   76.8170  220.4170 C   0  0  0  0  0  0  0  0  0  0  0  0
  143.0130   77.1340  219.9200 O   0  0  0  0  0  0  0  0  0  0  0  0
  141.2480   77.7700  221.3140 C   0  0  0  0  0  0  0  0  0  0  0  0
  141.9470   78.7760  221.9310 C   0  0  0  0  0  0  0  0  0  0  0  0
  141.3810   79.7010  222.7820 C   0  0  0  0  0  0  0  0  0  0  0  0
  140.0270   79.5900  223.0180 C   0  0  0  0  0  0  0  0  0  0  0  0
  139.4470   80.5050  223.8660 C   0  0  0  0  0  0  0  0  0  0  0  0
  138.0910   80.4080  224.1110 C   0  0  0  0  0  0  0  0  0  0  0  0
  137.3700   81.5650  225.1810 Cl  0  0  0  0  0  0  0  0  0  0  0  0
  137.3660   79.3900  223.4920 C   0  0  0  0  0  0  0  0  0  0  0  0
  137.9860   78.4890  222.6460 C   0  0  0  0  0  0  0  0  0  0  0  0
  139.3280   78.5760  222.3950 C   0  0  0  0  0  0  0  0  0  0  0  0
  139.9140   77.6920  221.5710 N   0  0  0  0  0  0  0  0  0  0  0  0
  139.6460   73.1670  221.5600 C   0  0  0  0  0  0  0  0  0  0  0  0
  139.7500   74.1970  222.2750 O   0  0  0  0  0  0  0  0  0  0  0  0
  139.2370   71.8750  222.1690 C   0  0  0  0  0  0  0  0  0  0  0  0
  139.6630   71.8700  223.5570 N   0  0  0  0  0  0  0  0  0  0  0  0
  139.8140   70.6850  224.3010 C   0  0  0  0  0  0  0  0  0  0  0  0
  139.5700   69.5840  223.7430 O   0  0  0  0  0  0  0  0  0  0  0  0
  140.2390   70.6390  225.6950 C   0  0  0  0  0  0  0  0  0  0  0  0
  140.7100   71.8020  226.2700 C   0  0  0  0  0  0  0  0  0  0  0  0
  141.1270   71.7980  227.6030 C   0  0  0  0  0  0  0  0  0  0  0  0
  141.0700   70.6410  228.3490 C   0  0  0  0  0  0  0  0  0  0  0  0
  140.6010   69.4710  227.7850 C   0  0  0  0  0  0  0  0  0  0  0  0
  140.1920   69.4940  226.4620 C   0  0  0  0  0  0  0  0  0  0  0  0
  137.9087   73.7783  219.9042 H   0  0  0  0  0  0  0  0  0  0  0  0
  139.0216   74.4476  218.6632 H   0  0  0  0  0  0  0  0  0  0  0  0
  138.6257   72.6955  218.6632 H   0  0  0  0  0  0  0  0  0  0  0  0
  141.9411   72.7753  220.4055 H   0  0  0  0  0  0  0  0  0  0  0  0
  141.2492   72.6250  218.7267 H   0  0  0  0  0  0  0  0  0  0  0  0
  142.9524   74.5486  219.3914 H   0  0  0  0  0  0  0  0  0  0  0  0
  141.6161   74.7957  218.2242 H   0  0  0  0  0  0  0  0  0  0  0  0
  140.3560   75.3840  220.6070 H   0  0  0  0  0  0  0  0  0  0  0  0
  143.0268   78.8492  221.7344 H   0  0  0  0  0  0  0  0  0  0  0  0
  141.9829   80.4927  223.2520 H   0  0  0  0  0  0  0  0  0  0  0  0
  140.0491   81.2954  224.3379 H   0  0  0  0  0  0  0  0  0  0  0  0
  136.2856   79.3026  223.6795 H   0  0  0  0  0  0  0  0  0  0  0  0
  137.3938   77.6937  222.1697 H   0  0  0  0  0  0  0  0  0  0  0  0
  138.1435   71.7681  222.1152 H   0  0  0  0  0  0  0  0  0  0  0  0
  139.7004   71.0372  221.6274 H   0  0  0  0  0  0  0  0  0  0  0  0
  139.8700   72.7760  224.0360 H   0  0  0  0  0  0  0  0  0  0  0  0
  140.7568   72.7293  225.6802 H   0  0  0  0  0  0  0  0  0  0  0  0
  141.5035   72.7249  228.0604 H   0  0  0  0  0  0  0  0  0  0  0  0
  141.3996   70.6493  229.3984 H   0  0  0  0  0  0  0  0  0  0  0  0
  140.5534   68.5424  228.3728 H   0  0  0  0  0  0  0  0  0  0  0  0
  139.8163   68.5658  226.0068 H   0  0  0  0  0  0  0  0  0  0  0  0
  1  2  1  0
  2  3  1  0
  3  4  1  0
  4  5  1  0
  5  6  1  0
  6  7  2  0
  6  8  1  0
  8  9  2  0
  9 10  1  0
 10 11  2  0
 11 12  1  0
 12 13  2  0
 13 14  1  0
 13 15  1  0
 15 16  2  0
 16 17  1  0
 17 18  2  0
  2 19  1  0
 19 20  2  0
 19 21  1  0
 21 22  1  0
 22 23  1  0
 23 24  2  0
 23 25  1  0
 25 26  2  0
 26 27  1  0
 27 28  2  0
 28 29  1  0
 29 30  2  0
 18  8  1  0
 30 25  1  0
 17 11  1  0
  1 31  1  0
  1 32  1  0
  1 33  1  0
  3 34  1  0
  3 35  1  0
  4 36  1  0
  4 37  1  0
  5 38  1  0
  9 39  1  0
 10 40  1  0
 12 41  1  0
 15 42  1  0
 16 43  1  0
 21 44  1  0
 21 45  1  0
 22 46  1  0
 26 47  1  0
 27 48  1  0
 28 49  1  0
 29 50  1  0
 30 51  1  0
M  END
>  <smiles>  (32) 
CN(CCNC(=O)c1ccc2cc(Cl)ccc2n1)C(=O)CNC(=O)c1ccccc1

>  <score_type>  (32) 
oracle

>  <origin>  (32) 
autodockgpu

>  <m_score__min__energy>  (32) 
-8.6300000000000008

>  <m_primary>  (32) 
energy

>  <rmsd>  (32) 
3.2536370034987145

>  <m_score__min__rmsd>  (32) 
3.2536370034987145

>  <meeko>  (32) 
{"free_energy": -7.45, "intermolecular_energy": -9.84, "internal_energy": -2.75, "cluster_size": 8, "cluster_id": 3, "rank_in_cluster": 7}

>  <energy>  (32) 
-7.8

>  <cluster_rmsd>  (32) 
0.0

>  <cluster>  (32) 
5

$$$$

     RDKit          3D

 51 53  0  0  0  0  0  0  0  0999 V2000
  140.1910   71.9960  219.8180 C   0  0  0  0  0  0  0  0  0  0  0  0
  139.6520   73.2840  220.2310 N   0  0  0  0  0  0  0  0  0  0  0  0
  138.2750   73.6540  219.9210 C   0  0  0  0  0  0  0  0  0  0  0  0
  137.4440   73.8750  221.1440 C   0  0  0  0  0  0  0  0  0  0  0  0
  137.9470   73.0320  222.2100 N   0  0  0  0  0  0  0  0  0  0  0  0
  137.5760   71.6740  222.3780 C   0  0  0  0  0  0  0  0  0  0  0  0
  136.7770   71.1020  221.6090 O   0  0  0  0  0  0  0  0  0  0  0  0
  138.1460   70.9070  223.4920 C   0  0  0  0  0  0  0  0  0  0  0  0
  137.7490   69.6200  223.7500 C   0  0  0  0  0  0  0  0  0  0  0  0
  138.2470   68.8490  224.7790 C   0  0  0  0  0  0  0  0  0  0  0  0
  139.2010   69.4260  225.5900 C   0  0  0  0  0  0  0  0  0  0  0  0
  139.7070   68.6700  226.6210 C   0  0  0  0  0  0  0  0  0  0  0  0
  140.6650   69.2330  227.4420 C   0  0  0  0  0  0  0  0  0  0  0  0
  141.2970   68.2730  228.7400 Cl  0  0  0  0  0  0  0  0  0  0  0  0
  141.0800   70.5420  227.1930 C   0  0  0  0  0  0  0  0  0  0  0  0
  140.5460   71.2700  226.1460 C   0  0  0  0  0  0  0  0  0  0  0  0
  139.5980   70.7220  225.3270 C   0  0  0  0  0  0  0  0  0  0  0  0
  139.0900   71.4420  224.3130 N   0  0  0  0  0  0  0  0  0  0  0  0
  140.5350   74.1430  220.9430 C   0  0  0  0  0  0  0  0  0  0  0  0
  140.6250   73.9550  222.1840 O   0  0  0  0  0  0  0  0  0  0  0  0
  141.3290   75.2170  220.2930 C   0  0  0  0  0  0  0  0  0  0  0  0
  141.5710   76.2620  221.2720 N   0  0  0  0  0  0  0  0  0  0  0  0
  141.4820   77.6310  220.9590 C   0  0  0  0  0  0  0  0  0  0  0  0
  141.1810   77.9660  219.7840 O   0  0  0  0  0  0  0  0  0  0  0  0
  141.7170   78.7080  221.9130 C   0  0  0  0  0  0  0  0  0  0  0  0
  141.6010   78.4220  223.2580 C   0  0  0  0  0  0  0  0  0  0  0  0
  141.8190   79.4280  224.2040 C   0  0  0  0  0  0  0  0  0  0  0  0
  142.1500   80.7040  223.8020 C   0  0  0  0  0  0  0  0  0  0  0  0
  142.2690   81.0020  222.4580 C   0  0  0  0  0  0  0  0  0  0  0  0
  142.0490   79.9930  221.5370 C   0  0  0  0  0  0  0  0  0  0  0  0
  140.4403   71.4003  220.7085 H   0  0  0  0  0  0  0  0  0  0  0  0
  139.4414   71.4606  219.2167 H   0  0  0  0  0  0  0  0  0  0  0  0
  141.0985   72.1541  219.2167 H   0  0  0  0  0  0  0  0  0  0  0  0
  138.2851   74.5822  219.3308 H   0  0  0  0  0  0  0  0  0  0  0  0
  137.8260   72.8194  219.3625 H   0  0  0  0  0  0  0  0  0  0  0  0
  137.5060   74.9306  221.4471 H   0  0  0  0  0  0  0  0  0  0  0  0
  136.3943   73.6232  220.9327 H   0  0  0  0  0  0  0  0  0  0  0  0
  138.6310   73.4390  222.9080 H   0  0  0  0  0  0  0  0  0  0  0  0
  136.9855   69.1749  223.0951 H   0  0  0  0  0  0  0  0  0  0  0  0
  137.8985   67.8190  224.9455 H   0  0  0  0  0  0  0  0  0  0  0  0
  139.3571   67.6406  226.7883 H   0  0  0  0  0  0  0  0  0  0  0  0
  141.8429   71.0011  227.8390 H   0  0  0  0  0  0  0  0  0  0  0  0
  140.8873   72.3008  225.9700 H   0  0  0  0  0  0  0  0  0  0  0  0
  142.2876   74.8090  219.9400 H   0  0  0  0  0  0  0  0  0  0  0  0
  140.7803   75.6250  219.4313 H   0  0  0  0  0  0  0  0  0  0  0  0
  141.8220   76.0010  222.2520 H   0  0  0  0  0  0  0  0  0  0  0  0
  141.3377   77.4052  223.5849 H   0  0  0  0  0  0  0  0  0  0  0  0
  141.7258   79.1996  225.2760 H   0  0  0  0  0  0  0  0  0  0  0  0
  142.3201   81.4884  224.5541 H   0  0  0  0  0  0  0  0  0  0  0  0
  142.5325   82.0177  222.1279 H   0  0  0  0  0  0  0  0  0  0  0  0
  142.1423   80.2241  220.4656 H   0  0  0  0  0  0  0  0  0  0  0  0
  1  2  1  0
  2  3  1  0
  3  4  1  0
  4  5  1  0
  5  6  1  0
  6  7  2  0
  6  8  1  0
  8  9  2  0
  9 10  1  0
 10 11  2  0
 11 12  1  0
 12 13  2  0
 13 14  1  0
 13 15  1  0
 15 16  2  0
 16 17  1  0
 17 18  2  0
  2 19  1  0
 19 20  2  0
 19 21  1  0
 21 22  1  0
 22 23  1  0
 23 24  2  0
 23 25  1  0
 25 26  2  0
 26 27  1  0
 27 28  2  0
 28 29  1  0
 29 30  2  0
 18  8  1  0
 30 25  1  0
 17 11  1  0
  1 31  1  0
  1 32  1  0
  1 33  1  0
  3 34  1  0
  3 35  1  0
  4 36  1  0
  4 37  1  0
  5 38  1  0
  9 39  1  0
 10 40  1  0
 12 41  1  0
 15 42  1  0
 16 43  1  0
 21 44  1  0
 21 45  1  0
 22 46  1  0
 26 47  1  0
 27 48  1  0
 28 49  1  0
 29 50  1  0
 30 51  1  0
M  END
>  <smiles>  (33) 
CN(CCNC(=O)c1ccc2cc(Cl)ccc2n1)C(=O)CNC(=O)c1ccccc1

>  <score_type>  (33) 
oracle

>  <origin>  (33) 
autodockgpu

>  <m_score__min__energy>  (33) 
-8.6300000000000008

>  <m_primary>  (33) 
energy

>  <rmsd>  (33) 
9.733691635315521

>  <m_score__min__rmsd>  (33) 
9.733691635315521

>  <meeko>  (33) 
{"free_energy": -8.36, "intermolecular_energy": -10.75, "internal_energy": -2.79, "cluster_size": 9, "cluster_id": 1, "rank_in_cluster": 2}

>  <energy>  (33) 
-7.79

>  <cluster_rmsd>  (33) 
0.14

>  <cluster>  (33) 
5

$$$$

     RDKit          3D

 51 53  0  0  0  0  0  0  0  0999 V2000
  139.6440   74.7210  219.1250 C   0  0  0  0  0  0  0  0  0  0  0  0
  140.4930   74.0200  220.0780 N   0  0  0  0  0  0  0  0  0  0  0  0
  141.8620   73.6530  219.7320 C   0  0  0  0  0  0  0  0  0  0  0  0
  142.8520   74.7210  220.0710 C   0  0  0  0  0  0  0  0  0  0  0  0
  142.1910   75.7360  220.8660 N   0  0  0  0  0  0  0  0  0  0  0  0
  141.9710   77.0640  220.4200 C   0  0  0  0  0  0  0  0  0  0  0  0
  142.3390   77.4570  219.2940 O   0  0  0  0  0  0  0  0  0  0  0  0
  141.2890   78.0150  221.3060 C   0  0  0  0  0  0  0  0  0  0  0  0
  141.9640   79.0540  221.8930 C   0  0  0  0  0  0  0  0  0  0  0  0
  141.3800   79.9780  222.7330 C   0  0  0  0  0  0  0  0  0  0  0  0
  140.0330   79.8320  222.9870 C   0  0  0  0  0  0  0  0  0  0  0  0
  139.4350   80.7460  223.8230 C   0  0  0  0  0  0  0  0  0  0  0  0
  138.0860   80.6140  224.0880 C   0  0  0  0  0  0  0  0  0  0  0  0
  137.3420   81.7700  225.1430 Cl  0  0  0  0  0  0  0  0  0  0  0  0
  137.3840   79.5610  223.4980 C   0  0  0  0  0  0  0  0  0  0  0  0
  138.0220   78.6620  222.6630 C   0  0  0  0  0  0  0  0  0  0  0  0
  139.3570   78.7840  222.3940 C   0  0  0  0  0  0  0  0  0  0  0  0
  139.9610   77.9020  221.5800 N   0  0  0  0  0  0  0  0  0  0  0  0
  139.9150   73.7200  221.3420 C   0  0  0  0  0  0  0  0  0  0  0  0
  140.3250   74.3940  222.3230 O   0  0  0  0  0  0  0  0  0  0  0  0
  138.8780   72.6740  221.5380 C   0  0  0  0  0  0  0  0  0  0  0  0
  138.9290   72.2340  222.9210 N   0  0  0  0  0  0  0  0  0  0  0  0
  140.0760   71.6510  223.4900 C   0  0  0  0  0  0  0  0  0  0  0  0
  141.1000   71.5020  222.7750 O   0  0  0  0  0  0  0  0  0  0  0  0
  140.1660   71.1970  224.8730 C   0  0  0  0  0  0  0  0  0  0  0  0
  140.9940   71.8900  225.7320 C   0  0  0  0  0  0  0  0  0  0  0  0
  141.1070   71.4860  227.0650 C   0  0  0  0  0  0  0  0  0  0  0  0
  140.3960   70.4000  227.5280 C   0  0  0  0  0  0  0  0  0  0  0  0
  139.5630   69.6980  226.6780 C   0  0  0  0  0  0  0  0  0  0  0  0
  139.4650   70.1140  225.3610 C   0  0  0  0  0  0  0  0  0  0  0  0
  138.9068   75.3297  219.6692 H   0  0  0  0  0  0  0  0  0  0  0  0
  140.2638   75.3740  218.4930 H   0  0  0  0  0  0  0  0  0  0  0  0
  139.1201   73.9889  218.4930 H   0  0  0  0  0  0  0  0  0  0  0  0
  142.1300   72.7383  220.2811 H   0  0  0  0  0  0  0  0  0  0  0  0
  141.8988   73.5012  218.6431 H   0  0  0  0  0  0  0  0  0  0  0  0
  143.6834   74.2856  220.6447 H   0  0  0  0  0  0  0  0  0  0  0  0
  143.2486   75.1691  219.1480 H   0  0  0  0  0  0  0  0  0  0  0  0
  141.8470   75.4850  221.8360 H   0  0  0  0  0  0  0  0  0  0  0  0
  143.0384   79.1567  221.6805 H   0  0  0  0  0  0  0  0  0  0  0  0
  141.9633   80.7960  223.1810 H   0  0  0  0  0  0  0  0  0  0  0  0
  140.0184   81.5641  224.2707 H   0  0  0  0  0  0  0  0  0  0  0  0
  136.3090   79.4450  223.7001 H   0  0  0  0  0  0  0  0  0  0  0  0
  137.4490   77.8395  222.2101 H   0  0  0  0  0  0  0  0  0  0  0  0
  137.8840   73.0897  221.3165 H   0  0  0  0  0  0  0  0  0  0  0  0
  139.0640   71.8252  220.8634 H   0  0  0  0  0  0  0  0  0  0  0  0
  138.0880   72.3500  223.5300 H   0  0  0  0  0  0  0  0  0  0  0  0
  141.5636   72.7581  225.3686 H   0  0  0  0  0  0  0  0  0  0  0  0
  141.7678   72.0384  227.7492 H   0  0  0  0  0  0  0  0  0  0  0  0
  140.4921   70.0906  228.5792 H   0  0  0  0  0  0  0  0  0  0  0  0
  138.9917   68.8299  227.0387 H   0  0  0  0  0  0  0  0  0  0  0  0
  138.8035   69.5602  224.6785 H   0  0  0  0  0  0  0  0  0  0  0  0
  1  2  1  0
  2  3  1  0
  3  4  1  0
  4  5  1  0
  5  6  1  0
  6  7  2  0
  6  8  1  0
  8  9  2  0
  9 10  1  0
 10 11  2  0
 11 12  1  0
 12 13  2  0
 13 14  1  0
 13 15  1  0
 15 16  2  0
 16 17  1  0
 17 18  2  0
  2 19  1  0
 19 20  2  0
 19 21  1  0
 21 22  1  0
 22 23  1  0
 23 24  2  0
 23 25  1  0
 25 26  2  0
 26 27  1  0
 27 28  2  0
 28 29  1  0
 29 30  2  0
 18  8  1  0
 30 25  1  0
 17 11  1  0
  1 31  1  0
  1 32  1  0
  1 33  1  0
  3 34  1  0
  3 35  1  0
  4 36  1  0
  4 37  1  0
  5 38  1  0
  9 39  1  0
 10 40  1  0
 12 41  1  0
 15 42  1  0
 16 43  1  0
 21 44  1  0
 21 45  1  0
 22 46  1  0
 26 47  1  0
 27 48  1  0
 28 49  1  0
 29 50  1  0
 30 51  1  0
M  END
>  <smiles>  (34) 
CN(CCNC(=O)c1ccc2cc(Cl)ccc2n1)C(=O)CNC(=O)c1ccccc1

>  <score_type>  (34) 
oracle

>  <origin>  (34) 
autodockgpu

>  <m_score__min__energy>  (34) 
-8.6300000000000008

>  <m_primary>  (34) 
energy

>  <rmsd>  (34) 
2.9786882581813336

>  <m_score__min__rmsd>  (34) 
2.9786882581813336

>  <meeko>  (34) 
{"free_energy": -7.64, "intermolecular_energy": -10.02, "internal_energy": -2.29, "cluster_size": 8, "cluster_id": 3, "rank_in_cluster": 6}

>  <energy>  (34) 
-7.32

>  <cluster_rmsd>  (34) 
0.61

>  <cluster>  (34) 
5

$$$$

     RDKit          3D

 51 53  0  0  0  0  0  0  0  0999 V2000
  139.6110   72.9420  219.2110 C   0  0  0  0  0  0  0  0  0  0  0  0
  140.4760   73.1580  220.3620 N   0  0  0  0  0  0  0  0  0  0  0  0
  141.5620   72.2320  220.6660 C   0  0  0  0  0  0  0  0  0  0  0  0
  142.8820   72.9170  220.8210 C   0  0  0  0  0  0  0  0  0  0  0  0
  142.7500   74.2920  220.3800 N   0  0  0  0  0  0  0  0  0  0  0  0
  143.0530   74.7270  219.0650 C   0  0  0  0  0  0  0  0  0  0  0  0
  143.4620   73.9460  218.1830 O   0  0  0  0  0  0  0  0  0  0  0  0
  142.8830   76.1440  218.7220 C   0  0  0  0  0  0  0  0  0  0  0  0
  143.1760   76.6150  217.4680 C   0  0  0  0  0  0  0  0  0  0  0  0
  143.0370   77.9320  217.0860 C   0  0  0  0  0  0  0  0  0  0  0  0
  142.5750   78.8170  218.0360 C   0  0  0  0  0  0  0  0  0  0  0  0
  142.4300   80.1340  217.6700 C   0  0  0  0  0  0  0  0  0  0  0  0
  141.9670   81.0330  218.6120 C   0  0  0  0  0  0  0  0  0  0  0  0
  141.7890   82.6920  218.1410 Cl  0  0  0  0  0  0  0  0  0  0  0  0
  141.6640   80.5700  219.8930 C   0  0  0  0  0  0  0  0  0  0  0  0
  141.8230   79.2360  220.2220 C   0  0  0  0  0  0  0  0  0  0  0  0
  142.2800   78.3380  219.2980 C   0  0  0  0  0  0  0  0  0  0  0  0
  142.4290   77.0460  219.6340 N   0  0  0  0  0  0  0  0  0  0  0  0
  140.2010   74.3070  221.1560 C   0  0  0  0  0  0  0  0  0  0  0  0
  140.6960   74.3230  222.3130 O   0  0  0  0  0  0  0  0  0  0  0  0
  139.3780   75.4480  220.6810 C   0  0  0  0  0  0  0  0  0  0  0  0
  139.9950   76.6790  221.1430 N   0  0  0  0  0  0  0  0  0  0  0  0
  139.6300   77.3050  222.3490 C   0  0  0  0  0  0  0  0  0  0  0  0
  138.7330   76.7790  223.0580 O   0  0  0  0  0  0  0  0  0  0  0  0
  140.2260   78.5390  222.8460 C   0  0  0  0  0  0  0  0  0  0  0  0
  141.5120   78.4870  223.3430 C   0  0  0  0  0  0  0  0  0  0  0  0
  142.1170   79.6490  223.8290 C   0  0  0  0  0  0  0  0  0  0  0  0
  141.4390   80.8480  223.8140 C   0  0  0  0  0  0  0  0  0  0  0  0
  140.1500   80.9140  223.3190 C   0  0  0  0  0  0  0  0  0  0  0  0
  139.5670   79.7520  222.8420 C   0  0  0  0  0  0  0  0  0  0  0  0
  138.5977   72.6890  219.5562 H   0  0  0  0  0  0  0  0  0  0  0  0
  139.5733   73.8583  218.6036 H   0  0  0  0  0  0  0  0  0  0  0  0
  140.0085   72.1155  218.6036 H   0  0  0  0  0  0  0  0  0  0  0  0
  141.3253   71.7088  221.6042 H   0  0  0  0  0  0  0  0  0  0  0  0
  141.6486   71.5343  219.8200 H   0  0  0  0  0  0  0  0  0  0  0  0
  143.1879   72.8954  221.8774 H   0  0  0  0  0  0  0  0  0  0  0  0
  143.6433   72.4022  220.2164 H   0  0  0  0  0  0  0  0  0  0  0  0
  142.4090   75.0210  221.0680 H   0  0  0  0  0  0  0  0  0  0  0  0
  143.5449   75.8972  216.7205 H   0  0  0  0  0  0  0  0  0  0  0  0
  143.2843   78.2625  216.0664 H   0  0  0  0  0  0  0  0  0  0  0  0
  142.6769   80.4649  216.6504 H   0  0  0  0  0  0  0  0  0  0  0  0
  141.2937   81.2755  220.6514 H   0  0  0  0  0  0  0  0  0  0  0  0
  141.5790   78.8938  221.2385 H   0  0  0  0  0  0  0  0  0  0  0  0
  139.3349   75.4433  219.5819 H   0  0  0  0  0  0  0  0  0  0  0  0
  138.3541   75.3664  221.0746 H   0  0  0  0  0  0  0  0  0  0  0  0
  140.7410   77.1290  220.5660 H   0  0  0  0  0  0  0  0  0  0  0  0
  142.0597   77.5331  223.3566 H   0  0  0  0  0  0  0  0  0  0  0  0
  143.1418   79.6060  224.2263 H   0  0  0  0  0  0  0  0  0  0  0  0
  141.9254   81.7570  224.1976 H   0  0  0  0  0  0  0  0  0  0  0  0
  139.6005   81.8668  223.3044 H   0  0  0  0  0  0  0  0  0  0  0  0
  138.5419   79.7972  222.4456 H   0  0  0  0  0  0  0  0  0  0  0  0
  1  2  1  0
  2  3  1  0
  3  4  1  0
  4  5  1  0
  5  6  1  0
  6  7  2  0
  6  8  1  0
  8  9  2  0
  9 10  1  0
 10 11  2  0
 11 12  1  0
 12 13  2  0
 13 14  1  0
 13 15  1  0
 15 16  2  0
 16 17  1  0
 17 18  2  0
  2 19  1  0
 19 20  2  0
 19 21  1  0
 21 22  1  0
 22 23  1  0
 23 24  2  0
 23 25  1  0
 25 26  2  0
 26 27  1  0
 27 28  2  0
 28 29  1  0
 29 30  2  0
 18  8  1  0
 30 25  1  0
 17 11  1  0
  1 31  1  0
  1 32  1  0
  1 33  1  0
  3 34  1  0
  3 35  1  0
  4 36  1  0
  4 37  1  0
  5 38  1  0
  9 39  1  0
 10 40  1  0
 12 41  1  0
 15 42  1  0
 16 43  1  0
 21 44  1  0
 21 45  1  0
 22 46  1  0
 26 47  1  0
 27 48  1  0
 28 49  1  0
 29 50  1  0
 30 51  1  0
M  END
>  <smiles>  (35) 
CN(CCNC(=O)c1ccc2cc(Cl)ccc2n1)C(=O)CNC(=O)c1ccccc1

>  <score_type>  (35) 
oracle

>  <origin>  (35) 
autodockgpu

>  <m_score__min__energy>  (35) 
-8.6300000000000008

>  <m_primary>  (35) 
energy

>  <rmsd>  (35) 
7.0455384940559185

>  <m_score__min__rmsd>  (35) 
7.0455384940559185

>  <meeko>  (35) 
{"free_energy": -5.83, "intermolecular_energy": -8.22, "internal_energy": -3.77, "cluster_size": 4, "cluster_id": 7, "rank_in_cluster": 4}

>  <energy>  (35) 
-5.9

>  <cluster_rmsd>  (35) 
1.82

>  <cluster>  (35) 
5

$$$$

     RDKit          3D

 51 53  0  0  0  0  0  0  0  0999 V2000
  137.8870   75.6820  222.3870 C   0  0  0  0  0  0  0  0  0  0  0  0
  138.5880   74.9960  221.3110 N   0  0  0  0  0  0  0  0  0  0  0  0
  137.9110   74.6810  220.0570 C   0  0  0  0  0  0  0  0  0  0  0  0
  137.4900   73.2490  219.9680 C   0  0  0  0  0  0  0  0  0  0  0  0
  137.9540   72.5520  221.1510 N   0  0  0  0  0  0  0  0  0  0  0  0
  137.1750   71.6010  221.8580 C   0  0  0  0  0  0  0  0  0  0  0  0
  136.0170   71.2960  221.5060 O   0  0  0  0  0  0  0  0  0  0  0  0
  137.7410   70.9500  223.0450 C   0  0  0  0  0  0  0  0  0  0  0  0
  137.1200   69.8810  223.6380 C   0  0  0  0  0  0  0  0  0  0  0  0
  137.6010   69.2280  224.7520 C   0  0  0  0  0  0  0  0  0  0  0  0
  138.7810   69.6940  225.2920 C   0  0  0  0  0  0  0  0  0  0  0  0
  139.2750   69.0530  226.4040 C   0  0  0  0  0  0  0  0  0  0  0  0
  140.4570   69.5070  226.9560 C   0  0  0  0  0  0  0  0  0  0  0  0
  141.0710   68.6930  228.3580 Cl  0  0  0  0  0  0  0  0  0  0  0  0
  141.1010   70.5950  226.3650 C   0  0  0  0  0  0  0  0  0  0  0  0
  140.5730   71.2130  225.2470 C   0  0  0  0  0  0  0  0  0  0  0  0
  139.4030   70.7710  224.6920 C   0  0  0  0  0  0  0  0  0  0  0  0
  138.9040   71.3820  223.6060 N   0  0  0  0  0  0  0  0  0  0  0  0
  139.9490   74.6600  221.5530 C   0  0  0  0  0  0  0  0  0  0  0  0
  140.1610   73.7060  222.3460 O   0  0  0  0  0  0  0  0  0  0  0  0
  141.0900   75.3730  220.9220 C   0  0  0  0  0  0  0  0  0  0  0  0
  141.4340   76.5110  221.7560 N   0  0  0  0  0  0  0  0  0  0  0  0
  141.0100   77.8200  221.4650 C   0  0  0  0  0  0  0  0  0  0  0  0
  140.3050   78.0170  220.4420 O   0  0  0  0  0  0  0  0  0  0  0  0
  141.3350   78.9870  222.2770 C   0  0  0  0  0  0  0  0  0  0  0  0
  140.2940   79.6990  222.8370 C   0  0  0  0  0  0  0  0  0  0  0  0
  140.5640   80.8240  223.6220 C   0  0  0  0  0  0  0  0  0  0  0  0
  141.8640   81.2260  223.8410 C   0  0  0  0  0  0  0  0  0  0  0  0
  142.9150   80.5220  223.2850 C   0  0  0  0  0  0  0  0  0  0  0  0
  142.6270   79.4110  222.5110 C   0  0  0  0  0  0  0  0  0  0  0  0
  138.2582   75.3187  223.3566 H   0  0  0  0  0  0  0  0  0  0  0  0
  138.0647   76.7647  222.3086 H   0  0  0  0  0  0  0  0  0  0  0  0
  136.8084   75.4809  222.3086 H   0  0  0  0  0  0  0  0  0  0  0  0
  137.0168   75.3159  219.9716 H   0  0  0  0  0  0  0  0  0  0  0  0
  138.6242   74.8673  219.2405 H   0  0  0  0  0  0  0  0  0  0  0  0
  136.3932   73.1889  219.9097 H   0  0  0  0  0  0  0  0  0  0  0  0
  137.9225   72.7873  219.0681 H   0  0  0  0  0  0  0  0  0  0  0  0
  138.9270   72.7540  221.5180 H   0  0  0  0  0  0  0  0  0  0  0  0
  136.1785   69.5221  223.1966 H   0  0  0  0  0  0  0  0  0  0  0  0
  137.0670   68.3725  225.1912 H   0  0  0  0  0  0  0  0  0  0  0  0
  138.7408   68.1980  226.8440 H   0  0  0  0  0  0  0  0  0  0  0  0
  142.0428   70.9663  226.7953 H   0  0  0  0  0  0  0  0  0  0  0  0
  141.0988   72.0690  224.7988 H   0  0  0  0  0  0  0  0  0  0  0  0
  141.9533   74.6960  220.8420 H   0  0  0  0  0  0  0  0  0  0  0  0
  140.8134   75.7125  219.9129 H   0  0  0  0  0  0  0  0  0  0  0  0
  142.0190   76.3660  222.6090 H   0  0  0  0  0  0  0  0  0  0  0  0
  139.2545   79.3823  222.6663 H   0  0  0  0  0  0  0  0  0  0  0  0
  139.7338   81.3917  224.0675 H   0  0  0  0  0  0  0  0  0  0  0  0
  142.0659   82.1116  224.4614 H   0  0  0  0  0  0  0  0  0  0  0  0
  143.9555   80.8368  223.4534 H   0  0  0  0  0  0  0  0  0  0  0  0
  143.4589   78.8453  222.0661 H   0  0  0  0  0  0  0  0  0  0  0  0
  1  2  1  0
  2  3  1  0
  3  4  1  0
  4  5  1  0
  5  6  1  0
  6  7  2  0
  6  8  1  0
  8  9  2  0
  9 10  1  0
 10 11  2  0
 11 12  1  0
 12 13  2  0
 13 14  1  0
 13 15  1  0
 15 16  2  0
 16 17  1  0
 17 18  2  0
  2 19  1  0
 19 20  2  0
 19 21  1  0
 21 22  1  0
 22 23  1  0
 23 24  2  0
 23 25  1  0
 25 26  2  0
 26 27  1  0
 27 28  2  0
 28 29  1  0
 29 30  2  0
 18  8  1  0
 30 25  1  0
 17 11  1  0
  1 31  1  0
  1 32  1  0
  1 33  1  0
  3 34  1  0
  3 35  1  0
  4 36  1  0
  4 37  1  0
  5 38  1  0
  9 39  1  0
 10 40  1  0
 12 41  1  0
 15 42  1  0
 16 43  1  0
 21 44  1  0
 21 45  1  0
 22 46  1  0
 26 47  1  0
 27 48  1  0
 28 49  1  0
 29 50  1  0
 30 51  1  0
M  END
>  <smiles>  (36) 
CN(CCNC(=O)c1ccc2cc(Cl)ccc2n1)C(=O)CNC(=O)c1ccccc1

>  <score_type>  (36) 
oracle

>  <origin>  (36) 
autodockgpu

>  <m_score__min__energy>  (36) 
-8.6300000000000008

>  <m_primary>  (36) 
energy

>  <rmsd>  (36) 
9.764752221220702

>  <m_score__min__rmsd>  (36) 
9.764752221220702

>  <meeko>  (36) 
{"free_energy": -7.77, "intermolecular_energy": -10.16, "internal_energy": -2.46, "cluster_size": 10, "cluster_id": 2, "rank_in_cluster": 5}

>  <energy>  (36) 
-7.69

>  <cluster_rmsd>  (36) 
0.0

>  <cluster>  (36) 
6

$$$$

     RDKit          3D

 51 53  0  0  0  0  0  0  0  0999 V2000
  140.0990   73.7050  219.0050 C   0  0  0  0  0  0  0  0  0  0  0  0
  140.9810   73.2250  220.0600 N   0  0  0  0  0  0  0  0  0  0  0  0
  142.3240   72.7450  219.7530 C   0  0  0  0  0  0  0  0  0  0  0  0
  143.3940   73.5580  220.4090 C   0  0  0  0  0  0  0  0  0  0  0  0
  142.9650   74.9410  220.4630 N   0  0  0  0  0  0  0  0  0  0  0  0
  143.0780   75.8400  219.3720 C   0  0  0  0  0  0  0  0  0  0  0  0
  143.5630   75.4990  218.2750 O   0  0  0  0  0  0  0  0  0  0  0  0
  142.6110   77.2220  219.5320 C   0  0  0  0  0  0  0  0  0  0  0  0
  142.5940   78.0960  218.4750 C   0  0  0  0  0  0  0  0  0  0  0  0
  142.1660   79.4040  218.5610 C   0  0  0  0  0  0  0  0  0  0  0  0
  141.7350   79.8440  219.7940 C   0  0  0  0  0  0  0  0  0  0  0  0
  141.3050   81.1460  219.8970 C   0  0  0  0  0  0  0  0  0  0  0  0
  140.8680   81.6020  221.1260 C   0  0  0  0  0  0  0  0  0  0  0  0
  140.3300   83.2450  221.2450 Cl  0  0  0  0  0  0  0  0  0  0  0  0
  140.8800   80.7250  222.2110 C   0  0  0  0  0  0  0  0  0  0  0  0
  141.3200   79.4210  222.0680 C   0  0  0  0  0  0  0  0  0  0  0  0
  141.7540   78.9610  220.8550 C   0  0  0  0  0  0  0  0  0  0  0  0
  142.1770   77.6920  220.7330 N   0  0  0  0  0  0  0  0  0  0  0  0
  140.4600   73.2530  221.3830 C   0  0  0  0  0  0  0  0  0  0  0  0
  140.6920   74.2900  222.0580 O   0  0  0  0  0  0  0  0  0  0  0  0
  139.6780   72.1370  221.9760 C   0  0  0  0  0  0  0  0  0  0  0  0
  139.9210   72.1200  223.4080 N   0  0  0  0  0  0  0  0  0  0  0  0
  139.9690   70.9300  224.1550 C   0  0  0  0  0  0  0  0  0  0  0  0
  139.7960   69.8340  223.5630 O   0  0  0  0  0  0  0  0  0  0  0  0
  140.2100   70.8720  225.5920 C   0  0  0  0  0  0  0  0  0  0  0  0
  139.7900   69.7510  226.2780 C   0  0  0  0  0  0  0  0  0  0  0  0
  140.0020   69.6580  227.6560 C   0  0  0  0  0  0  0  0  0  0  0  0
  140.6300   70.6790  228.3350 C   0  0  0  0  0  0  0  0  0  0  0  0
  141.0550   71.8070  227.6600 C   0  0  0  0  0  0  0  0  0  0  0  0
  140.8360   71.8810  226.2950 C   0  0  0  0  0  0  0  0  0  0  0  0
  139.2171   74.1849  219.4544 H   0  0  0  0  0  0  0  0  0  0  0  0
  140.6362   74.4352  218.3819 H   0  0  0  0  0  0  0  0  0  0  0  0
  139.7775   72.8574  218.3819 H   0  0  0  0  0  0  0  0  0  0  0  0
  142.4125   71.7041  220.0975 H   0  0  0  0  0  0  0  0  0  0  0  0
  142.4648   72.8282  218.6652 H   0  0  0  0  0  0  0  0  0  0  0  0
  143.5681   73.1852  221.4291 H   0  0  0  0  0  0  0  0  0  0  0  0
  144.3280   73.4794  219.8333 H   0  0  0  0  0  0  0  0  0  0  0  0
  142.5420   75.3130  221.3590 H   0  0  0  0  0  0  0  0  0  0  0  0
  142.9435   77.7308  217.4980 H   0  0  0  0  0  0  0  0  0  0  0  0
  142.1685   80.0675  217.6836 H   0  0  0  0  0  0  0  0  0  0  0  0
  141.3088   81.8101  219.0201 H   0  0  0  0  0  0  0  0  0  0  0  0
  140.5345   81.0754  223.1948 H   0  0  0  0  0  0  0  0  0  0  0  0
  141.3208   78.7478  222.9380 H   0  0  0  0  0  0  0  0  0  0  0  0
  138.6060   72.2901  221.7825 H   0  0  0  0  0  0  0  0  0  0  0  0
  139.9842   71.1800  221.5283 H   0  0  0  0  0  0  0  0  0  0  0  0
  140.0670   73.0210  223.9160 H   0  0  0  0  0  0  0  0  0  0  0  0
  139.2891   68.9319  225.7411 H   0  0  0  0  0  0  0  0  0  0  0  0
  139.6655   68.7643  228.2019 H   0  0  0  0  0  0  0  0  0  0  0  0
  140.7938   70.5957  229.4195 H   0  0  0  0  0  0  0  0  0  0  0  0
  141.5558   72.6274  228.1948 H   0  0  0  0  0  0  0  0  0  0  0  0
  141.1730   72.7760  225.7515 H   0  0  0  0  0  0  0  0  0  0  0  0
  1  2  1  0
  2  3  1  0
  3  4  1  0
  4  5  1  0
  5  6  1  0
  6  7  2  0
  6  8  1  0
  8  9  2  0
  9 10  1  0
 10 11  2  0
 11 12  1  0
 12 13  2  0
 13 14  1  0
 13 15  1  0
 15 16  2  0
 16 17  1  0
 17 18  2  0
  2 19  1  0
 19 20  2  0
 19 21  1  0
 21 22  1  0
 22 23  1  0
 23 24  2  0
 23 25  1  0
 25 26  2  0
 26 27  1  0
 27 28  2  0
 28 29  1  0
 29 30  2  0
 18  8  1  0
 30 25  1  0
 17 11  1  0
  1 31  1  0
  1 32  1  0
  1 33  1  0
  3 34  1  0
  3 35  1  0
  4 36  1  0
  4 37  1  0
  5 38  1  0
  9 39  1  0
 10 40  1  0
 12 41  1  0
 15 42  1  0
 16 43  1  0
 21 44  1  0
 21 45  1  0
 22 46  1  0
 26 47  1  0
 27 48  1  0
 28 49  1  0
 29 50  1  0
 30 51  1  0
M  END
>  <smiles>  (37) 
CN(CCNC(=O)c1ccc2cc(Cl)ccc2n1)C(=O)CNC(=O)c1ccccc1

>  <score_type>  (37) 
oracle

>  <origin>  (37) 
autodockgpu

>  <m_score__min__energy>  (37) 
-8.6300000000000008

>  <m_primary>  (37) 
energy

>  <rmsd>  (37) 
3.4709898751916115

>  <m_score__min__rmsd>  (37) 
3.4709898751916115

>  <meeko>  (37) 
{"free_energy": -7.97, "intermolecular_energy": -10.36, "internal_energy": -2.74, "cluster_size": 8, "cluster_id": 3, "rank_in_cluster": 2}

>  <energy>  (37) 
-7.24

>  <cluster_rmsd>  (37) 
0.0

>  <cluster>  (37) 
7

$$$$

     RDKit          3D

 51 53  0  0  0  0  0  0  0  0999 V2000
  138.8630   74.2360  219.3930 C   0  0  0  0  0  0  0  0  0  0  0  0
  138.3440   73.5500  220.5670 N   0  0  0  0  0  0  0  0  0  0  0  0
  136.9320   73.1930  220.6620 C   0  0  0  0  0  0  0  0  0  0  0  0
  136.1320   74.1880  221.4410 C   0  0  0  0  0  0  0  0  0  0  0  0
  137.0020   75.2780  221.8380 N   0  0  0  0  0  0  0  0  0  0  0  0
  136.5280   76.5200  222.3310 C   0  0  0  0  0  0  0  0  0  0  0  0
  135.3110   76.7650  222.4580 O   0  0  0  0  0  0  0  0  0  0  0  0
  137.4950   77.5570  222.7080 C   0  0  0  0  0  0  0  0  0  0  0  0
  137.0850   78.8070  223.0970 C   0  0  0  0  0  0  0  0  0  0  0  0
  137.9440   79.8220  223.4620 C   0  0  0  0  0  0  0  0  0  0  0  0
  139.2940   79.5460  223.4260 C   0  0  0  0  0  0  0  0  0  0  0  0
  140.1640   80.5490  223.7870 C   0  0  0  0  0  0  0  0  0  0  0  0
  141.5200   80.2880  223.7570 C   0  0  0  0  0  0  0  0  0  0  0  0
  142.6080   81.5580  224.2130 Cl  0  0  0  0  0  0  0  0  0  0  0  0
  141.9530   79.0210  223.3620 C   0  0  0  0  0  0  0  0  0  0  0  0
  141.0460   78.0390  223.0060 C   0  0  0  0  0  0  0  0  0  0  0  0
  139.7020   78.2870  223.0330 C   0  0  0  0  0  0  0  0  0  0  0  0
  138.8350   77.3220  222.6840 N   0  0  0  0  0  0  0  0  0  0  0  0
  139.2800   73.2540  221.5960 C   0  0  0  0  0  0  0  0  0  0  0  0
  139.8450   74.2370  222.1430 O   0  0  0  0  0  0  0  0  0  0  0  0
  139.6040   71.8710  222.0320 C   0  0  0  0  0  0  0  0  0  0  0  0
  139.9590   71.9080  223.4400 N   0  0  0  0  0  0  0  0  0  0  0  0
  140.0720   70.7460  224.2250 C   0  0  0  0  0  0  0  0  0  0  0  0
  139.8560   69.6290  223.6890 O   0  0  0  0  0  0  0  0  0  0  0  0
  140.4270   70.7420  225.6390 C   0  0  0  0  0  0  0  0  0  0  0  0
  140.3010   69.5590  226.3380 C   0  0  0  0  0  0  0  0  0  0  0  0
  140.6310   69.5150  227.6950 C   0  0  0  0  0  0  0  0  0  0  0  0
  141.0830   70.6450  228.3410 C   0  0  0  0  0  0  0  0  0  0  0  0
  141.2130   71.8360  227.6520 C   0  0  0  0  0  0  0  0  0  0  0  0
  140.8810   71.8600  226.3080 C   0  0  0  0  0  0  0  0  0  0  0  0
  139.4985   75.0760  219.7102 H   0  0  0  0  0  0  0  0  0  0  0  0
  139.4576   73.5334  218.7908 H   0  0  0  0  0  0  0  0  0  0  0  0
  138.0251   74.6172  218.7908 H   0  0  0  0  0  0  0  0  0  0  0  0
  136.5172   73.1277  219.6453 H   0  0  0  0  0  0  0  0  0  0  0  0
  136.8693   72.2311  221.1919 H   0  0  0  0  0  0  0  0  0  0  0  0
  135.3145   74.5762  220.8157 H   0  0  0  0  0  0  0  0  0  0  0  0
  135.7036   73.7075  222.3329 H   0  0  0  0  0  0  0  0  0  0  0  0
  138.0500   75.1520  221.7620 H   0  0  0  0  0  0  0  0  0  0  0  0
  136.0045   79.0122  223.1191 H   0  0  0  0  0  0  0  0  0  0  0  0
  137.5682   80.8093  223.7687 H   0  0  0  0  0  0  0  0  0  0  0  0
  139.7880   81.5365  224.0926 H   0  0  0  0  0  0  0  0  0  0  0  0
  143.0303   78.8004  223.3334 H   0  0  0  0  0  0  0  0  0  0  0  0
  141.4103   77.0479  222.6978 H   0  0  0  0  0  0  0  0  0  0  0  0
  138.7291   71.2204  221.8860 H   0  0  0  0  0  0  0  0  0  0  0  0
  140.4418   71.4736  221.4403 H   0  0  0  0  0  0  0  0  0  0  0  0
  140.1420   72.8270  223.9010 H   0  0  0  0  0  0  0  0  0  0  0  0
  139.9417   68.6529  225.8282 H   0  0  0  0  0  0  0  0  0  0  0  0
  140.5292   68.5716  228.2515 H   0  0  0  0  0  0  0  0  0  0  0  0
  141.3414   70.5990  229.4092 H   0  0  0  0  0  0  0  0  0  0  0  0
  141.5718   72.7436  228.1595 H   0  0  0  0  0  0  0  0  0  0  0  0
  140.9829   72.8046  225.7536 H   0  0  0  0  0  0  0  0  0  0  0  0
  1  2  1  0
  2  3  1  0
  3  4  1  0
  4  5  1  0
  5  6  1  0
  6  7  2  0
  6  8  1  0
  8  9  2  0
  9 10  1  0
 10 11  2  0
 11 12  1  0
 12 13  2  0
 13 14  1  0
 13 15  1  0
 15 16  2  0
 16 17  1  0
 17 18  2  0
  2 19  1  0
 19 20  2  0
 19 21  1  0
 21 22  1  0
 22 23  1  0
 23 24  2  0
 23 25  1  0
 25 26  2  0
 26 27  1  0
 27 28  2  0
 28 29  1  0
 29 30  2  0
 18  8  1  0
 30 25  1  0
 17 11  1  0
  1 31  1  0
  1 32  1  0
  1 33  1  0
  3 34  1  0
  3 35  1  0
  4 36  1  0
  4 37  1  0
  5 38  1  0
  9 39  1  0
 10 40  1  0
 12 41  1  0
 15 42  1  0
 16 43  1  0
 21 44  1  0
 21 45  1  0
 22 46  1  0
 26 47  1  0
 27 48  1  0
 28 49  1  0
 29 50  1  0
 30 51  1  0
M  END
>  <smiles>  (38) 
CN(CCNC(=O)c1ccc2cc(Cl)ccc2n1)C(=O)CNC(=O)c1ccccc1

>  <score_type>  (38) 
oracle

>  <origin>  (38) 
autodockgpu

>  <m_score__min__energy>  (38) 
-8.6300000000000008

>  <m_primary>  (38) 
energy

>  <rmsd>  (38) 
3.982925574659312

>  <m_score__min__rmsd>  (38) 
3.982925574659312

>  <meeko>  (38) 
{"free_energy": -7.69, "intermolecular_energy": -10.08, "internal_energy": -2.85, "cluster_size": 1, "cluster_id": 6, "rank_in_cluster": 1}

>  <energy>  (38) 
-7.22

>  <cluster_rmsd>  (38) 
0.33

>  <cluster>  (38) 
7

$$$$

     RDKit          3D

 51 53  0  0  0  0  0  0  0  0999 V2000
  134.1740   76.7500  223.2580 C   0  0  0  0  0  0  0  0  0  0  0  0
  135.5950   76.9300  222.9920 N   0  0  0  0  0  0  0  0  0  0  0  0
  136.5740   75.9550  223.4620 C   0  0  0  0  0  0  0  0  0  0  0  0
  137.2250   75.2020  222.3460 C   0  0  0  0  0  0  0  0  0  0  0  0
  138.0890   76.1070  221.6140 N   0  0  0  0  0  0  0  0  0  0  0  0
  139.5030   75.9980  221.5950 C   0  0  0  0  0  0  0  0  0  0  0  0
  140.1100   75.1030  222.2180 O   0  0  0  0  0  0  0  0  0  0  0  0
  140.2860   76.9670  220.8200 C   0  0  0  0  0  0  0  0  0  0  0  0
  141.5260   76.6510  220.3270 C   0  0  0  0  0  0  0  0  0  0  0  0
  142.3090   77.5160  219.5920 C   0  0  0  0  0  0  0  0  0  0  0  0
  141.7980   78.7730  219.3490 C   0  0  0  0  0  0  0  0  0  0  0  0
  142.5660   79.6480  218.6180 C   0  0  0  0  0  0  0  0  0  0  0  0
  142.0670   80.9110  218.3640 C   0  0  0  0  0  0  0  0  0  0  0  0
  143.0440   82.0070  217.4420 Cl  0  0  0  0  0  0  0  0  0  0  0  0
  140.8070   81.2480  218.8600 C   0  0  0  0  0  0  0  0  0  0  0  0
  140.0640   80.3400  219.5910 C   0  0  0  0  0  0  0  0  0  0  0  0
  140.5490   79.0870  219.8470 C   0  0  0  0  0  0  0  0  0  0  0  0
  139.8140   78.2170  220.5600 N   0  0  0  0  0  0  0  0  0  0  0  0
  135.9620   78.0930  222.2600 C   0  0  0  0  0  0  0  0  0  0  0  0
  135.8230   78.0390  221.0100 O   0  0  0  0  0  0  0  0  0  0  0  0
  136.4850   79.3280  222.8990 C   0  0  0  0  0  0  0  0  0  0  0  0
  137.9060   79.4230  222.6120 N   0  0  0  0  0  0  0  0  0  0  0  0
  138.8360   79.9210  223.5420 C   0  0  0  0  0  0  0  0  0  0  0  0
  138.4250   80.3000  224.6690 O   0  0  0  0  0  0  0  0  0  0  0  0
  140.2680   80.0320  223.2910 C   0  0  0  0  0  0  0  0  0  0  0  0
  141.0640   78.9390  223.5680 C   0  0  0  0  0  0  0  0  0  0  0  0
  142.4410   79.0060  223.3410 C   0  0  0  0  0  0  0  0  0  0  0  0
  143.0110   80.1570  222.8410 C   0  0  0  0  0  0  0  0  0  0  0  0
  142.2250   81.2580  222.5610 C   0  0  0  0  0  0  0  0  0  0  0  0
  140.8630   81.1720  222.7930 C   0  0  0  0  0  0  0  0  0  0  0  0
  134.0042   76.7285  224.3446 H   0  0  0  0  0  0  0  0  0  0  0  0
  133.6096   77.5838  222.8151 H   0  0  0  0  0  0  0  0  0  0  0  0
  133.8353   75.8018  222.8151 H   0  0  0  0  0  0  0  0  0  0  0  0
  137.3531   76.4850  224.0296 H   0  0  0  0  0  0  0  0  0  0  0  0
  136.0394   75.2241  224.0866 H   0  0  0  0  0  0  0  0  0  0  0  0
  137.8206   74.3735  222.7569 H   0  0  0  0  0  0  0  0  0  0  0  0
  136.4570   74.7922  221.6734 H   0  0  0  0  0  0  0  0  0  0  0  0
  137.6540   76.8960  221.0580 H   0  0  0  0  0  0  0  0  0  0  0  0
  141.9207   75.6446  220.5306 H   0  0  0  0  0  0  0  0  0  0  0  0
  143.2983   77.2160  219.2160 H   0  0  0  0  0  0  0  0  0  0  0  0
  143.5561   79.3491  218.2435 H   0  0  0  0  0  0  0  0  0  0  0  0
  140.3990   82.2510  218.6664 H   0  0  0  0  0  0  0  0  0  0  0  0
  139.0726   80.6281  219.9707 H   0  0  0  0  0  0  0  0  0  0  0  0
  135.9637   80.2069  222.4919 H   0  0  0  0  0  0  0  0  0  0  0  0
  136.3193   79.2919  223.9858 H   0  0  0  0  0  0  0  0  0  0  0  0
  138.2650   79.1130  221.6810 H   0  0  0  0  0  0  0  0  0  0  0  0
  140.6153   78.0172  223.9666 H   0  0  0  0  0  0  0  0  0  0  0  0
  143.0744   78.1344  223.5628 H   0  0  0  0  0  0  0  0  0  0  0  0
  144.0959   80.1991  222.6642 H   0  0  0  0  0  0  0  0  0  0  0  0
  142.6710   82.1814  222.1630 H   0  0  0  0  0  0  0  0  0  0  0  0
  140.2319   82.0454  222.5719 H   0  0  0  0  0  0  0  0  0  0  0  0
  1  2  1  0
  2  3  1  0
  3  4  1  0
  4  5  1  0
  5  6  1  0
  6  7  2  0
  6  8  1  0
  8  9  2  0
  9 10  1  0
 10 11  2  0
 11 12  1  0
 12 13  2  0
 13 14  1  0
 13 15  1  0
 15 16  2  0
 16 17  1  0
 17 18  2  0
  2 19  1  0
 19 20  2  0
 19 21  1  0
 21 22  1  0
 22 23  1  0
 23 24  2  0
 23 25  1  0
 25 26  2  0
 26 27  1  0
 27 28  2  0
 28 29  1  0
 29 30  2  0
 18  8  1  0
 30 25  1  0
 17 11  1  0
  1 31  1  0
  1 32  1  0
  1 33  1  0
  3 34  1  0
  3 35  1  0
  4 36  1  0
  4 37  1  0
  5 38  1  0
  9 39  1  0
 10 40  1  0
 12 41  1  0
 15 42  1  0
 16 43  1  0
 21 44  1  0
 21 45  1  0
 22 46  1  0
 26 47  1  0
 27 48  1  0
 28 49  1  0
 29 50  1  0
 30 51  1  0
M  END
>  <smiles>  (39) 
CN(CCNC(=O)c1ccc2cc(Cl)ccc2n1)C(=O)CNC(=O)c1ccccc1

>  <score_type>  (39) 
oracle

>  <origin>  (39) 
autodockgpu

>  <m_score__min__energy>  (39) 
-8.6300000000000008

>  <m_primary>  (39) 
energy

>  <rmsd>  (39) 
7.972446086450279

>  <m_score__min__rmsd>  (39) 
7.972446086450279

>  <meeko>  (39) 
{"free_energy": -5.37, "intermolecular_energy": -7.76, "internal_energy": -4.81, "cluster_size": 5, "cluster_id": 11, "rank_in_cluster": 1}

>  <energy>  (39) 
-6.43

>  <cluster_rmsd>  (39) 
0.86

>  <cluster>  (39) 
7

$$$$

     RDKit          3D

 51 53  0  0  0  0  0  0  0  0999 V2000
  141.1780   72.0760  219.9670 C   0  0  0  0  0  0  0  0  0  0  0  0
  140.3100   73.2420  220.0500 N   0  0  0  0  0  0  0  0  0  0  0  0
  139.0040   73.2520  219.3990 C   0  0  0  0  0  0  0  0  0  0  0  0
  137.8730   73.1060  220.3660 C   0  0  0  0  0  0  0  0  0  0  0  0
  138.3430   72.3820  221.5300 N   0  0  0  0  0  0  0  0  0  0  0  0
  138.0020   71.0340  221.8070 C   0  0  0  0  0  0  0  0  0  0  0  0
  137.2620   70.3670  221.0570 O   0  0  0  0  0  0  0  0  0  0  0  0
  138.5350   70.3940  223.0160 C   0  0  0  0  0  0  0  0  0  0  0  0
  138.3260   69.0620  223.2690 C   0  0  0  0  0  0  0  0  0  0  0  0
  138.8000   68.4050  224.3850 C   0  0  0  0  0  0  0  0  0  0  0  0
  139.5250   69.1480  225.2910 C   0  0  0  0  0  0  0  0  0  0  0  0
  140.0050   68.5070  226.4090 C   0  0  0  0  0  0  0  0  0  0  0  0
  140.7350   69.2380  227.3260 C   0  0  0  0  0  0  0  0  0  0  0  0
  141.3340   68.4210  228.7320 Cl  0  0  0  0  0  0  0  0  0  0  0  0
  140.9550   70.5940  227.0830 C   0  0  0  0  0  0  0  0  0  0  0  0
  140.4560   71.2030  225.9460 C   0  0  0  0  0  0  0  0  0  0  0  0
  139.7330   70.4890  225.0320 C   0  0  0  0  0  0  0  0  0  0  0  0
  139.2550   71.0960  223.9330 N   0  0  0  0  0  0  0  0  0  0  0  0
  140.8060   74.3500  220.7920 C   0  0  0  0  0  0  0  0  0  0  0  0
  140.6680   74.2970  222.0420 O   0  0  0  0  0  0  0  0  0  0  0  0
  141.4570   75.5270  220.1630 C   0  0  0  0  0  0  0  0  0  0  0  0
  141.6440   76.5450  221.1820 N   0  0  0  0  0  0  0  0  0  0  0  0
  141.6210   77.9220  220.8930 C   0  0  0  0  0  0  0  0  0  0  0  0
  141.4310   78.2890  219.7050 O   0  0  0  0  0  0  0  0  0  0  0  0
  141.8030   78.9720  221.8880 C   0  0  0  0  0  0  0  0  0  0  0  0
  141.7680   78.6180  223.2210 C   0  0  0  0  0  0  0  0  0  0  0  0
  141.9390   79.5970  224.2050 C   0  0  0  0  0  0  0  0  0  0  0  0
  142.1440   80.9130  223.8520 C   0  0  0  0  0  0  0  0  0  0  0  0
  142.1810   81.2790  222.5200 C   0  0  0  0  0  0  0  0  0  0  0  0
  142.0090   80.2960  221.5600 C   0  0  0  0  0  0  0  0  0  0  0  0
  141.4319   71.7349  220.9815 H   0  0  0  0  0  0  0  0  0  0  0  0
  140.6585   71.2698  219.4284 H   0  0  0  0  0  0  0  0  0  0  0  0
  142.0994   72.3424  219.4284 H   0  0  0  0  0  0  0  0  0  0  0  0
  138.8864   74.2048  218.8620 H   0  0  0  0  0  0  0  0  0  0  0  0
  138.9683   72.3909  218.7154 H   0  0  0  0  0  0  0  0  0  0  0  0
  137.5154   74.1010  220.6693 H   0  0  0  0  0  0  0  0  0  0  0  0
  137.0461   72.5560  219.8930 H   0  0  0  0  0  0  0  0  0  0  0  0
  138.9770   72.8760  222.2200 H   0  0  0  0  0  0  0  0  0  0  0  0
  137.7447   68.4824  222.5368 H   0  0  0  0  0  0  0  0  0  0  0  0
  138.6076   67.3338  224.5450 H   0  0  0  0  0  0  0  0  0  0  0  0
  139.8119   67.4360  226.5695 H   0  0  0  0  0  0  0  0  0  0  0  0
  141.5337   71.1874  227.8062 H   0  0  0  0  0  0  0  0  0  0  0  0
  140.6430   72.2735  225.7755 H   0  0  0  0  0  0  0  0  0  0  0  0
  142.4322   75.2341  219.7468 H   0  0  0  0  0  0  0  0  0  0  0  0
  140.8283   75.9172  219.3491 H   0  0  0  0  0  0  0  0  0  0  0  0
  141.8020   76.2570  222.1740 H   0  0  0  0  0  0  0  0  0  0  0  0
  141.6061   77.5688  223.5090 H   0  0  0  0  0  0  0  0  0  0  0  0
  141.9096   79.3145  225.2677 H   0  0  0  0  0  0  0  0  0  0  0  0
  142.2787   81.6753  224.6336 H   0  0  0  0  0  0  0  0  0  0  0  0
  142.3434   82.3273  222.2289 H   0  0  0  0  0  0  0  0  0  0  0  0
  142.0377   80.5810  220.4980 H   0  0  0  0  0  0  0  0  0  0  0  0
  1  2  1  0
  2  3  1  0
  3  4  1  0
  4  5  1  0
  5  6  1  0
  6  7  2  0
  6  8  1  0
  8  9  2  0
  9 10  1  0
 10 11  2  0
 11 12  1  0
 12 13  2  0
 13 14  1  0
 13 15  1  0
 15 16  2  0
 16 17  1  0
 17 18  2  0
  2 19  1  0
 19 20  2  0
 19 21  1  0
 21 22  1  0
 22 23  1  0
 23 24  2  0
 23 25  1  0
 25 26  2  0
 26 27  1  0
 27 28  2  0
 28 29  1  0
 29 30  2  0
 18  8  1  0
 30 25  1  0
 17 11  1  0
  1 31  1  0
  1 32  1  0
  1 33  1  0
  3 34  1  0
  3 35  1  0
  4 36  1  0
  4 37  1  0
  5 38  1  0
  9 39  1  0
 10 40  1  0
 12 41  1  0
 15 42  1  0
 16 43  1  0
 21 44  1  0
 21 45  1  0
 22 46  1  0
 26 47  1  0
 27 48  1  0
 28 49  1  0
 29 50  1  0
 30 51  1  0
M  END
>  <smiles>  (40) 
CN(CCNC(=O)c1ccc2cc(Cl)ccc2n1)C(=O)CNC(=O)c1ccccc1

>  <score_type>  (40) 
oracle

>  <origin>  (40) 
autodockgpu

>  <m_score__min__energy>  (40) 
-8.6300000000000008

>  <m_primary>  (40) 
energy

>  <rmsd>  (40) 
9.917985554087576

>  <m_score__min__rmsd>  (40) 
9.917985554087576

>  <meeko>  (40) 
{"free_energy": -7.75, "intermolecular_energy": -10.14, "internal_energy": -2.8, "cluster_size": 9, "cluster_id": 1, "rank_in_cluster": 7}

>  <energy>  (40) 
-5.83

>  <cluster_rmsd>  (40) 
1.65

>  <cluster>  (40) 
7

$$$$

     RDKit          3D

 51 53  0  0  0  0  0  0  0  0999 V2000
  139.3920   72.8320  218.5000 C   0  0  0  0  0  0  0  0  0  0  0  0
  139.6680   73.8160  219.5380 N   0  0  0  0  0  0  0  0  0  0  0  0
  138.5800   74.5200  220.2100 C   0  0  0  0  0  0  0  0  0  0  0  0
  137.6130   73.5930  220.8750 C   0  0  0  0  0  0  0  0  0  0  0  0
  138.2430   73.0230  222.0490 N   0  0  0  0  0  0  0  0  0  0  0  0
  138.4040   71.6290  222.2540 C   0  0  0  0  0  0  0  0  0  0  0  0
  138.0080   70.7840  221.4270 O   0  0  0  0  0  0  0  0  0  0  0  0
  139.0590   71.1570  223.4800 C   0  0  0  0  0  0  0  0  0  0  0  0
  140.0460   71.8880  224.0890 C   0  0  0  0  0  0  0  0  0  0  0  0
  140.6980   71.4980  225.2400 C   0  0  0  0  0  0  0  0  0  0  0  0
  140.3210   70.2950  225.7980 C   0  0  0  0  0  0  0  0  0  0  0  0
  140.9610   69.8920  226.9460 C   0  0  0  0  0  0  0  0  0  0  0  0
  140.5930   68.6900  227.5190 C   0  0  0  0  0  0  0  0  0  0  0  0
  141.4070   68.1900  228.9660 Cl  0  0  0  0  0  0  0  0  0  0  0  0
  139.5900   67.9340  226.9110 C   0  0  0  0  0  0  0  0  0  0  0  0
  138.9690   68.3740  225.7560 C   0  0  0  0  0  0  0  0  0  0  0  0
  139.3250   69.5630  225.1820 C   0  0  0  0  0  0  0  0  0  0  0  0
  138.7130   69.9750  224.0600 N   0  0  0  0  0  0  0  0  0  0  0  0
  141.0370   74.0430  219.8490 C   0  0  0  0  0  0  0  0  0  0  0  0
  141.8360   74.0890  218.8780 O   0  0  0  0  0  0  0  0  0  0  0  0
  141.5390   74.2200  221.2360 C   0  0  0  0  0  0  0  0  0  0  0  0
  141.5420   75.6400  221.5420 N   0  0  0  0  0  0  0  0  0  0  0  0
  140.5270   76.2550  222.2990 C   0  0  0  0  0  0  0  0  0  0  0  0
  139.5790   75.5500  222.7290 O   0  0  0  0  0  0  0  0  0  0  0  0
  140.4950   77.6750  222.6270 C   0  0  0  0  0  0  0  0  0  0  0  0
  141.4760   78.1730  223.4600 C   0  0  0  0  0  0  0  0  0  0  0  0
  141.4790   79.5290  223.7980 C   0  0  0  0  0  0  0  0  0  0  0  0
  140.5090   80.3740  223.3030 C   0  0  0  0  0  0  0  0  0  0  0  0
  139.5210   79.8870  222.4680 C   0  0  0  0  0  0  0  0  0  0  0  0
  139.5350   78.5410  222.1450 C   0  0  0  0  0  0  0  0  0  0  0  0
  139.1229   71.8728  218.9663 H   0  0  0  0  0  0  0  0  0  0  0  0
  138.5575   73.1826  217.8749 H   0  0  0  0  0  0  0  0  0  0  0  0
  140.2871   72.6975  217.8749 H   0  0  0  0  0  0  0  0  0  0  0  0
  139.0103   75.1854  220.9730 H   0  0  0  0  0  0  0  0  0  0  0  0
  138.0262   75.0821  219.4436 H   0  0  0  0  0  0  0  0  0  0  0  0
  136.7123   74.1499  221.1726 H   0  0  0  0  0  0  0  0  0  0  0  0
  137.3258   72.7911  220.1790 H   0  0  0  0  0  0  0  0  0  0  0  0
  138.6080   73.6720  222.8020 H   0  0  0  0  0  0  0  0  0  0  0  0
  140.3360   72.8452  223.6311 H   0  0  0  0  0  0  0  0  0  0  0  0
  141.4844   72.1196  225.6930 H   0  0  0  0  0  0  0  0  0  0  0  0
  141.7485   70.5127  227.3982 H   0  0  0  0  0  0  0  0  0  0  0  0
  139.2889   66.9744  227.3566 H   0  0  0  0  0  0  0  0  0  0  0  0
  138.1807   67.7612  225.2945 H   0  0  0  0  0  0  0  0  0  0  0  0
  140.8815   73.6891  221.9402 H   0  0  0  0  0  0  0  0  0  0  0  0
  142.5560   73.8106  221.3262 H   0  0  0  0  0  0  0  0  0  0  0  0
  142.3220   76.2400  221.1930 H   0  0  0  0  0  0  0  0  0  0  0  0
  142.2538   77.5042  223.8571 H   0  0  0  0  0  0  0  0  0  0  0  0
  142.2605   79.9246  224.4634 H   0  0  0  0  0  0  0  0  0  0  0  0
  140.5212   81.4401  223.5735 H   0  0  0  0  0  0  0  0  0  0  0  0
  138.7418   80.5534  222.0695 H   0  0  0  0  0  0  0  0  0  0  0  0
  138.7523   78.1475  221.4798 H   0  0  0  0  0  0  0  0  0  0  0  0
  1  2  1  0
  2  3  1  0
  3  4  1  0
  4  5  1  0
  5  6  1  0
  6  7  2  0
  6  8  1  0
  8  9  2  0
  9 10  1  0
 10 11  2  0
 11 12  1  0
 12 13  2  0
 13 14  1  0
 13 15  1  0
 15 16  2  0
 16 17  1  0
 17 18  2  0
  2 19  1  0
 19 20  2  0
 19 21  1  0
 21 22  1  0
 22 23  1  0
 23 24  2  0
 23 25  1  0
 25 26  2  0
 26 27  1  0
 27 28  2  0
 28 29  1  0
 29 30  2  0
 18  8  1  0
 30 25  1  0
 17 11  1  0
  1 31  1  0
  1 32  1  0
  1 33  1  0
  3 34  1  0
  3 35  1  0
  4 36  1  0
  4 37  1  0
  5 38  1  0
  9 39  1  0
 10 40  1  0
 12 41  1  0
 15 42  1  0
 16 43  1  0
 21 44  1  0
 21 45  1  0
 22 46  1  0
 26 47  1  0
 27 48  1  0
 28 49  1  0
 29 50  1  0
 30 51  1  0
M  END
>  <smiles>  (41) 
CN(CCNC(=O)c1ccc2cc(Cl)ccc2n1)C(=O)CNC(=O)c1ccccc1

>  <score_type>  (41) 
oracle

>  <origin>  (41) 
autodockgpu

>  <m_score__min__energy>  (41) 
-8.6300000000000008

>  <m_primary>  (41) 
energy

>  <rmsd>  (41) 
8.878719430182196

>  <m_score__min__rmsd>  (41) 
8.878719430182196

>  <meeko>  (41) 
{"free_energy": -7.58, "intermolecular_energy": -9.97, "internal_energy": -2.33, "cluster_size": 10, "cluster_id": 2, "rank_in_cluster": 7}

>  <energy>  (41) 
-6.92

>  <cluster_rmsd>  (41) 
0.0

>  <cluster>  (41) 
8

$$$$

     RDKit          3D

 51 53  0  0  0  0  0  0  0  0999 V2000
  134.0360   76.5310  222.9760 C   0  0  0  0  0  0  0  0  0  0  0  0
  135.4810   76.6940  222.8910 N   0  0  0  0  0  0  0  0  0  0  0  0
  136.3820   75.6730  223.4160 C   0  0  0  0  0  0  0  0  0  0  0  0
  137.0900   74.9150  222.3400 C   0  0  0  0  0  0  0  0  0  0  0  0
  137.9640   75.8240  221.6240 N   0  0  0  0  0  0  0  0  0  0  0  0
  139.3780   75.7300  221.6430 C   0  0  0  0  0  0  0  0  0  0  0  0
  139.9780   74.8450  222.2870 O   0  0  0  0  0  0  0  0  0  0  0  0
  140.1710   76.7020  220.8810 C   0  0  0  0  0  0  0  0  0  0  0  0
  141.4510   76.4190  220.4770 C   0  0  0  0  0  0  0  0  0  0  0  0
  142.2440   77.2900  219.7600 C   0  0  0  0  0  0  0  0  0  0  0  0
  141.7020   78.5160  219.4400 C   0  0  0  0  0  0  0  0  0  0  0  0
  142.4810   79.3950  218.7260 C   0  0  0  0  0  0  0  0  0  0  0  0
  141.9510   80.6280  218.3960 C   0  0  0  0  0  0  0  0  0  0  0  0
  142.9410   81.7290  217.4960 Cl  0  0  0  0  0  0  0  0  0  0  0  0
  140.6500   80.9310  218.8000 C   0  0  0  0  0  0  0  0  0  0  0  0
  139.8980   80.0190  219.5190 C   0  0  0  0  0  0  0  0  0  0  0  0
  140.4130   78.7960  219.8490 C   0  0  0  0  0  0  0  0  0  0  0  0
  139.6690   77.9220  220.5470 N   0  0  0  0  0  0  0  0  0  0  0  0
  135.9500   77.8880  222.2760 C   0  0  0  0  0  0  0  0  0  0  0  0
  135.8630   77.9460  221.0220 O   0  0  0  0  0  0  0  0  0  0  0  0
  136.5200   79.0290  223.0380 C   0  0  0  0  0  0  0  0  0  0  0  0
  137.9320   79.1320  222.7160 N   0  0  0  0  0  0  0  0  0  0  0  0
  138.8570   79.7760  223.5590 C   0  0  0  0  0  0  0  0  0  0  0  0
  138.4470   80.2830  224.6340 O   0  0  0  0  0  0  0  0  0  0  0  0
  140.2810   79.9000  223.2710 C   0  0  0  0  0  0  0  0  0  0  0  0
  140.7430   81.1050  222.7850 C   0  0  0  0  0  0  0  0  0  0  0  0
  142.1020   81.2630  222.4970 C   0  0  0  0  0  0  0  0  0  0  0  0
  142.9830   80.2230  222.6970 C   0  0  0  0  0  0  0  0  0  0  0  0
  142.5320   79.0110  223.1830 C   0  0  0  0  0  0  0  0  0  0  0  0
  141.1830   78.8740  223.4620 C   0  0  0  0  0  0  0  0  0  0  0  0
  133.7324   76.4968  224.0327 H   0  0  0  0  0  0  0  0  0  0  0  0
  133.5415   77.3791  222.4797 H   0  0  0  0  0  0  0  0  0  0  0  0
  133.7429   75.5941  222.4797 H   0  0  0  0  0  0  0  0  0  0  0  0
  137.1332   76.1618  224.0538 H   0  0  0  0  0  0  0  0  0  0  0  0
  135.7722   74.9529  223.9813 H   0  0  0  0  0  0  0  0  0  0  0  0
  137.6856   74.1062  222.7885 H   0  0  0  0  0  0  0  0  0  0  0  0
  136.3563   74.4786  221.6463 H   0  0  0  0  0  0  0  0  0  0  0  0
  137.5350   76.6050  221.0530 H   0  0  0  0  0  0  0  0  0  0  0  0
  141.8706   75.4371  220.7412 H   0  0  0  0  0  0  0  0  0  0  0  0
  143.2656   77.0178  219.4564 H   0  0  0  0  0  0  0  0  0  0  0  0
  143.5032   79.1232  218.4240 H   0  0  0  0  0  0  0  0  0  0  0  0
  140.2163   81.9087  218.5432 H   0  0  0  0  0  0  0  0  0  0  0  0
  138.8753   80.2804  219.8284 H   0  0  0  0  0  0  0  0  0  0  0  0
  136.0052   79.9592  222.7555 H   0  0  0  0  0  0  0  0  0  0  0  0
  136.3883   78.8671  224.1180 H   0  0  0  0  0  0  0  0  0  0  0  0
  138.2890   78.7160  221.8270 H   0  0  0  0  0  0  0  0  0  0  0  0
  140.0444   81.9394  222.6244 H   0  0  0  0  0  0  0  0  0  0  0  0
  142.4701   82.2239  222.1082 H   0  0  0  0  0  0  0  0  0  0  0  0
  144.0505   80.3582  222.4687 H   0  0  0  0  0  0  0  0  0  0  0  0
  143.2282   78.1748  223.3444 H   0  0  0  0  0  0  0  0  0  0  0  0
  140.8171   77.9120  223.8501 H   0  0  0  0  0  0  0  0  0  0  0  0
  1  2  1  0
  2  3  1  0
  3  4  1  0
  4  5  1  0
  5  6  1  0
  6  7  2  0
  6  8  1  0
  8  9  2  0
  9 10  1  0
 10 11  2  0
 11 12  1  0
 12 13  2  0
 13 14  1  0
 13 15  1  0
 15 16  2  0
 16 17  1  0
 17 18  2  0
  2 19  1  0
 19 20  2  0
 19 21  1  0
 21 22  1  0
 22 23  1  0
 23 24  2  0
 23 25  1  0
 25 26  2  0
 26 27  1  0
 27 28  2  0
 28 29  1  0
 29 30  2  0
 18  8  1  0
 30 25  1  0
 17 11  1  0
  1 31  1  0
  1 32  1  0
  1 33  1  0
  3 34  1  0
  3 35  1  0
  4 36  1  0
  4 37  1  0
  5 38  1  0
  9 39  1  0
 10 40  1  0
 12 41  1  0
 15 42  1  0
 16 43  1  0
 21 44  1  0
 21 45  1  0
 22 46  1  0
 26 47  1  0
 27 48  1  0
 28 49  1  0
 29 50  1  0
 30 51  1  0
M  END
>  <smiles>  (42) 
CN(CCNC(=O)c1ccc2cc(Cl)ccc2n1)C(=O)CNC(=O)c1ccccc1

>  <score_type>  (42) 
oracle

>  <origin>  (42) 
autodockgpu

>  <m_score__min__energy>  (42) 
-8.6300000000000008

>  <m_primary>  (42) 
energy

>  <rmsd>  (42) 
8.06410857355182

>  <m_score__min__rmsd>  (42) 
8.06410857355182

>  <meeko>  (42) 
{"free_energy": -5.32, "intermolecular_energy": -7.71, "internal_energy": -4.87, "cluster_size": 5, "cluster_id": 11, "rank_in_cluster": 3}

>  <energy>  (42) 
-6.43

>  <cluster_rmsd>  (42) 
0.0

>  <cluster>  (42) 
9

$$$$

     RDKit          3D

 51 53  0  0  0  0  0  0  0  0999 V2000
  138.0100   76.0220  222.7470 C   0  0  0  0  0  0  0  0  0  0  0  0
  138.5460   75.3640  221.5630 N   0  0  0  0  0  0  0  0  0  0  0  0
  137.7040   75.1220  220.3960 C   0  0  0  0  0  0  0  0  0  0  0  0
  137.0740   73.7660  220.4060 C   0  0  0  0  0  0  0  0  0  0  0  0
  137.5800   73.0230  221.5430 N   0  0  0  0  0  0  0  0  0  0  0  0
  137.4270   71.6220  221.6960 C   0  0  0  0  0  0  0  0  0  0  0  0
  136.8370   70.9200  220.8500 O   0  0  0  0  0  0  0  0  0  0  0  0
  137.9790   70.9670  222.8880 C   0  0  0  0  0  0  0  0  0  0  0  0
  137.5090   69.7520  223.3170 C   0  0  0  0  0  0  0  0  0  0  0  0
  137.9860   69.0870  224.4260 C   0  0  0  0  0  0  0  0  0  0  0  0
  138.9980   69.6970  225.1370 C   0  0  0  0  0  0  0  0  0  0  0  0
  139.4850   69.0460  226.2460 C   0  0  0  0  0  0  0  0  0  0  0  0
  140.4990   69.6440  226.9690 C   0  0  0  0  0  0  0  0  0  0  0  0
  141.1060   68.8170  228.3660 Cl  0  0  0  0  0  0  0  0  0  0  0  0
  140.9880   70.8810  226.5450 C   0  0  0  0  0  0  0  0  0  0  0  0
  140.4720   71.5040  225.4240 C   0  0  0  0  0  0  0  0  0  0  0  0
  139.4680   70.9200  224.7010 C   0  0  0  0  0  0  0  0  0  0  0  0
  138.9780   71.5380  223.6140 N   0  0  0  0  0  0  0  0  0  0  0  0
  139.9140   74.9800  221.6160 C   0  0  0  0  0  0  0  0  0  0  0  0
  140.1900   73.9700  222.3150 O   0  0  0  0  0  0  0  0  0  0  0  0
  140.9930   75.7050  220.8970 C   0  0  0  0  0  0  0  0  0  0  0  0
  141.4470   76.7980  221.7380 N   0  0  0  0  0  0  0  0  0  0  0  0
  140.9410   78.1060  221.6230 C   0  0  0  0  0  0  0  0  0  0  0  0
  140.0590   78.3410  220.7560 O   0  0  0  0  0  0  0  0  0  0  0  0
  141.3710   79.2280  222.4480 C   0  0  0  0  0  0  0  0  0  0  0  0
  142.7230   79.3990  222.6610 C   0  0  0  0  0  0  0  0  0  0  0  0
  143.1750   80.4630  223.4460 C   0  0  0  0  0  0  0  0  0  0  0  0
  142.2780   81.3440  224.0090 C   0  0  0  0  0  0  0  0  0  0  0  0
  140.9210   81.1840  223.8040 C   0  0  0  0  0  0  0  0  0  0  0  0
  140.4930   80.1240  223.0230 C   0  0  0  0  0  0  0  0  0  0  0  0
  138.4074   75.5341  223.6492 H   0  0  0  0  0  0  0  0  0  0  0  0
  138.3052   77.0816  222.7429 H   0  0  0  0  0  0  0  0  0  0  0  0
  136.9126   75.9471  222.7429 H   0  0  0  0  0  0  0  0  0  0  0  0
  136.9067   75.8796  220.3749 H   0  0  0  0  0  0  0  0  0  0  0  0
  138.3475   75.1812  219.5058 H   0  0  0  0  0  0  0  0  0  0  0  0
  135.9816   73.8667  220.4869 H   0  0  0  0  0  0  0  0  0  0  0  0
  137.3177   73.2344  219.4743 H   0  0  0  0  0  0  0  0  0  0  0  0
  138.0940   73.5440  222.3090 H   0  0  0  0  0  0  0  0  0  0  0  0
  136.7009   69.2787  222.7399 H   0  0  0  0  0  0  0  0  0  0  0  0
  137.5773   68.1122  224.7307 H   0  0  0  0  0  0  0  0  0  0  0  0
  139.0764   68.0712  226.5506 H   0  0  0  0  0  0  0  0  0  0  0  0
  141.7960   71.3672  227.1114 H   0  0  0  0  0  0  0  0  0  0  0  0
  140.8727   72.4792  225.1101 H   0  0  0  0  0  0  0  0  0  0  0  0
  141.8294   75.0202  220.6934 H   0  0  0  0  0  0  0  0  0  0  0  0
  140.6152   76.0948  219.9403 H   0  0  0  0  0  0  0  0  0  0  0  0
  142.1780   76.6210  222.4620 H   0  0  0  0  0  0  0  0  0  0  0  0
  143.4441   78.6991  222.2137 H   0  0  0  0  0  0  0  0  0  0  0  0
  144.2535   80.5979  223.6154 H   0  0  0  0  0  0  0  0  0  0  0  0
  142.6439   82.1789  224.6247 H   0  0  0  0  0  0  0  0  0  0  0  0
  140.1979   81.8822  224.2507 H   0  0  0  0  0  0  0  0  0  0  0  0
  139.4141   79.9912  222.8547 H   0  0  0  0  0  0  0  0  0  0  0  0
  1  2  1  0
  2  3  1  0
  3  4  1  0
  4  5  1  0
  5  6  1  0
  6  7  2  0
  6  8  1  0
  8  9  2  0
  9 10  1  0
 10 11  2  0
 11 12  1  0
 12 13  2  0
 13 14  1  0
 13 15  1  0
 15 16  2  0
 16 17  1  0
 17 18  2  0
  2 19  1  0
 19 20  2  0
 19 21  1  0
 21 22  1  0
 22 23  1  0
 23 24  2  0
 23 25  1  0
 25 26  2  0
 26 27  1  0
 27 28  2  0
 28 29  1  0
 29 30  2  0
 18  8  1  0
 30 25  1  0
 17 11  1  0
  1 31  1  0
  1 32  1  0
  1 33  1  0
  3 34  1  0
  3 35  1  0
  4 36  1  0
  4 37  1  0
  5 38  1  0
  9 39  1  0
 10 40  1  0
 12 41  1  0
 15 42  1  0
 16 43  1  0
 21 44  1  0
 21 45  1  0
 22 46  1  0
 26 47  1  0
 27 48  1  0
 28 49  1  0
 29 50  1  0
 30 51  1  0
M  END
>  <smiles>  (43) 
CN(CCNC(=O)c1ccc2cc(Cl)ccc2n1)C(=O)CNC(=O)c1ccccc1

>  <score_type>  (43) 
oracle

>  <origin>  (43) 
autodockgpu

>  <m_score__min__energy>  (43) 
-8.6300000000000008

>  <m_primary>  (43) 
energy

>  <rmsd>  (43) 
9.847054538071617

>  <m_score__min__rmsd>  (43) 
9.847054538071617

>  <meeko>  (43) 
{"free_energy": -8.11, "intermolecular_energy": -10.5, "internal_energy": -2.44, "cluster_size": 10, "cluster_id": 2, "rank_in_cluster": 3}

>  <energy>  (43) 
-5.42

>  <cluster_rmsd>  (43) 
0.0

>  <cluster>  (43) 
10

$$$$

     RDKit          3D

 51 53  0  0  0  0  0  0  0  0999 V2000
  139.2790   72.6460  218.7630 C   0  0  0  0  0  0  0  0  0  0  0  0
  139.6570   73.6550  219.7430 N   0  0  0  0  0  0  0  0  0  0  0  0
  138.8390   74.8470  219.9440 C   0  0  0  0  0  0  0  0  0  0  0  0
  137.6690   74.6030  220.8430 C   0  0  0  0  0  0  0  0  0  0  0  0
  138.0750   73.7040  221.9050 N   0  0  0  0  0  0  0  0  0  0  0  0
  137.8190   72.3090  221.8930 C   0  0  0  0  0  0  0  0  0  0  0  0
  137.2170   71.7510  220.9540 O   0  0  0  0  0  0  0  0  0  0  0  0
  138.2750   71.4870  223.0200 C   0  0  0  0  0  0  0  0  0  0  0  0
  137.6590   70.3030  223.3350 C   0  0  0  0  0  0  0  0  0  0  0  0
  138.0400   69.4880  224.3800 C   0  0  0  0  0  0  0  0  0  0  0  0
  139.1080   69.9060  225.1440 C   0  0  0  0  0  0  0  0  0  0  0  0
  139.5010   69.1040  226.1900 C   0  0  0  0  0  0  0  0  0  0  0  0
  140.5710   69.5080  226.9660 C   0  0  0  0  0  0  0  0  0  0  0  0
  141.0580   68.4910  228.2820 Cl  0  0  0  0  0  0  0  0  0  0  0  0
  141.2080   70.7110  226.6580 C   0  0  0  0  0  0  0  0  0  0  0  0
  140.7830   71.4900  225.5970 C   0  0  0  0  0  0  0  0  0  0  0  0
  139.7260   71.0980  224.8230 C   0  0  0  0  0  0  0  0  0  0  0  0
  139.3260   71.8670  223.7970 N   0  0  0  0  0  0  0  0  0  0  0  0
  140.8500   73.4100  220.4780 C   0  0  0  0  0  0  0  0  0  0  0  0
  141.7600   72.7790  219.8810 O   0  0  0  0  0  0  0  0  0  0  0  0
  141.0500   73.8590  221.8800 C   0  0  0  0  0  0  0  0  0  0  0  0
  141.5010   75.2400  221.8570 N   0  0  0  0  0  0  0  0  0  0  0  0
  140.6930   76.3090  222.2850 C   0  0  0  0  0  0  0  0  0  0  0  0
  139.5320   76.0630  222.7040 O   0  0  0  0  0  0  0  0  0  0  0  0
  141.1090   77.7060  222.2770 C   0  0  0  0  0  0  0  0  0  0  0  0
  141.4800   78.2810  223.4750 C   0  0  0  0  0  0  0  0  0  0  0  0
  141.8850   79.6180  223.5090 C   0  0  0  0  0  0  0  0  0  0  0  0
  141.9170   80.3670  222.3530 C   0  0  0  0  0  0  0  0  0  0  0  0
  141.5470   79.8030  221.1470 C   0  0  0  0  0  0  0  0  0  0  0  0
  141.1490   78.4770  221.1340 C   0  0  0  0  0  0  0  0  0  0  0  0
  138.9390   71.7385  219.2835 H   0  0  0  0  0  0  0  0  0  0  0  0
  138.4652   73.0338  218.1327 H   0  0  0  0  0  0  0  0  0  0  0  0
  140.1473   72.4036  218.1327 H   0  0  0  0  0  0  0  0  0  0  0  0
  139.4667   75.6328  220.3897 H   0  0  0  0  0  0  0  0  0  0  0  0
  138.4447   75.1472  218.9619 H   0  0  0  0  0  0  0  0  0  0  0  0
  137.3297   75.5560  221.2750 H   0  0  0  0  0  0  0  0  0  0  0  0
  136.8441   74.1552  220.2694 H   0  0  0  0  0  0  0  0  0  0  0  0
  138.5920   74.0970  222.7410 H   0  0  0  0  0  0  0  0  0  0  0  0
  136.8080   69.9835  222.7155 H   0  0  0  0  0  0  0  0  0  0  0  0
  137.5146   68.5457  224.5944 H   0  0  0  0  0  0  0  0  0  0  0  0
  138.9753   68.1618  226.4042 H   0  0  0  0  0  0  0  0  0  0  0  0
  142.0605   71.0445  227.2679 H   0  0  0  0  0  0  0  0  0  0  0  0
  141.3006   72.4345  225.3735 H   0  0  0  0  0  0  0  0  0  0  0  0
  140.1016   73.7866  222.4326 H   0  0  0  0  0  0  0  0  0  0  0  0
  141.7978   73.2244  222.3781 H   0  0  0  0  0  0  0  0  0  0  0  0
  142.4610   75.4620  221.5120 H   0  0  0  0  0  0  0  0  0  0  0  0
  141.4570   77.6883  224.4014 H   0  0  0  0  0  0  0  0  0  0  0  0
  142.1801   80.0754  224.4649 H   0  0  0  0  0  0  0  0  0  0  0  0
  142.2385   81.4183  222.3903 H   0  0  0  0  0  0  0  0  0  0  0  0
  141.5682   80.3936  220.2192 H   0  0  0  0  0  0  0  0  0  0  0  0
  140.8539   78.0217  220.1771 H   0  0  0  0  0  0  0  0  0  0  0  0
  1  2  1  0
  2  3  1  0
  3  4  1  0
  4  5  1  0
  5  6  1  0
  6  7  2  0
  6  8  1  0
  8  9  2  0
  9 10  1  0
 10 11  2  0
 11 12  1  0
 12 13  2  0
 13 14  1  0
 13 15  1  0
 15 16  2  0
 16 17  1  0
 17 18  2  0
  2 19  1  0
 19 20  2  0
 19 21  1  0
 21 22  1  0
 22 23  1  0
 23 24  2  0
 23 25  1  0
 25 26  2  0
 26 27  1  0
 27 28  2  0
 28 29  1  0
 29 30  2  0
 18  8  1  0
 30 25  1  0
 17 11  1  0
  1 31  1  0
  1 32  1  0
  1 33  1  0
  3 34  1  0
  3 35  1  0
  4 36  1  0
  4 37  1  0
  5 38  1  0
  9 39  1  0
 10 40  1  0
 12 41  1  0
 15 42  1  0
 16 43  1  0
 21 44  1  0
 21 45  1  0
 22 46  1  0
 26 47  1  0
 27 48  1  0
 28 49  1  0
 29 50  1  0
 30 51  1  0
M  END
>  <smiles>  (44) 
CN(CCNC(=O)c1ccc2cc(Cl)ccc2n1)C(=O)CNC(=O)c1ccccc1

>  <score_type>  (44) 
oracle

>  <origin>  (44) 
autodockgpu

>  <m_score__min__energy>  (44) 
-8.6300000000000008

>  <m_primary>  (44) 
energy

>  <rmsd>  (44) 
9.258405883527947

>  <m_score__min__rmsd>  (44) 
9.258405883527947

>  <meeko>  (44) 
{"free_energy": -7.16, "intermolecular_energy": -9.54, "internal_energy": -2.73, "cluster_size": 10, "cluster_id": 2, "rank_in_cluster": 9}

>  <energy>  (44) 
-5.41

>  <cluster_rmsd>  (44) 
0.7

>  <cluster>  (44) 
10

$$$$

     RDKit          3D

 51 53  0  0  0  0  0  0  0  0999 V2000
  140.9780   72.3680  220.2760 C   0  0  0  0  0  0  0  0  0  0  0  0
  140.0840   73.4800  220.5720 N   0  0  0  0  0  0  0  0  0  0  0  0
  138.7020   73.4730  220.1060 C   0  0  0  0  0  0  0  0  0  0  0  0
  137.7110   73.4900  221.2250 C   0  0  0  0  0  0  0  0  0  0  0  0
  138.2190   72.6760  222.3120 N   0  0  0  0  0  0  0  0  0  0  0  0
  138.0480   71.2700  222.3840 C   0  0  0  0  0  0  0  0  0  0  0  0
  137.4390   70.6270  221.5060 O   0  0  0  0  0  0  0  0  0  0  0  0
  138.6040   70.5390  223.5290 C   0  0  0  0  0  0  0  0  0  0  0  0
  138.4670   69.1790  223.6420 C   0  0  0  0  0  0  0  0  0  0  0  0
  138.9660   68.4370  224.6910 C   0  0  0  0  0  0  0  0  0  0  0  0
  139.6410   69.1210  225.6790 C   0  0  0  0  0  0  0  0  0  0  0  0
  140.1450   68.3950  226.7330 C   0  0  0  0  0  0  0  0  0  0  0  0
  140.8250   69.0660  227.7310 C   0  0  0  0  0  0  0  0  0  0  0  0
  141.4560   68.1430  229.0550 Cl  0  0  0  0  0  0  0  0  0  0  0  0
  140.9730   70.4510  227.6300 C   0  0  0  0  0  0  0  0  0  0  0  0
  140.4510   71.1450  226.5550 C   0  0  0  0  0  0  0  0  0  0  0  0
  139.7770   70.4900  225.5610 C   0  0  0  0  0  0  0  0  0  0  0  0
  139.2760   71.1800  224.5230 N   0  0  0  0  0  0  0  0  0  0  0  0
  140.6330   74.5510  221.3310 C   0  0  0  0  0  0  0  0  0  0  0  0
  141.8640   74.4890  221.5840 O   0  0  0  0  0  0  0  0  0  0  0  0
  139.8280   75.7010  221.8180 C   0  0  0  0  0  0  0  0  0  0  0  0
  140.7380   76.7690  222.1910 N   0  0  0  0  0  0  0  0  0  0  0  0
  140.2920   78.0130  222.6740 C   0  0  0  0  0  0  0  0  0  0  0  0
  139.0540   78.2100  222.7880 O   0  0  0  0  0  0  0  0  0  0  0  0
  141.1730   79.1090  223.0580 C   0  0  0  0  0  0  0  0  0  0  0  0
  142.5090   79.0160  222.7250 C   0  0  0  0  0  0  0  0  0  0  0  0
  143.3860   80.0460  223.0760 C   0  0  0  0  0  0  0  0  0  0  0  0
  142.9250   81.1550  223.7520 C   0  0  0  0  0  0  0  0  0  0  0  0
  141.5900   81.2590  224.0910 C   0  0  0  0  0  0  0  0  0  0  0  0
  140.7370   80.2290  223.7350 C   0  0  0  0  0  0  0  0  0  0  0  0
  141.3349   71.9240  221.2170 H   0  0  0  0  0  0  0  0  0  0  0  0
  140.4370   71.6075  219.6938 H   0  0  0  0  0  0  0  0  0  0  0  0
  141.8369   72.7330  219.6938 H   0  0  0  0  0  0  0  0  0  0  0  0
  138.5385   74.3618  219.4788 H   0  0  0  0  0  0  0  0  0  0  0  0
  138.5481   72.5407  219.5428 H   0  0  0  0  0  0  0  0  0  0  0  0
  137.5650   74.5230  221.5738 H   0  0  0  0  0  0  0  0  0  0  0  0
  136.7476   73.0892  220.8769 H   0  0  0  0  0  0  0  0  0  0  0  0
  138.7480   73.1440  223.1000 H   0  0  0  0  0  0  0  0  0  0  0  0
  137.9252   68.6473  222.8459 H   0  0  0  0  0  0  0  0  0  0  0  0
  138.8313   67.3463  224.7376 H   0  0  0  0  0  0  0  0  0  0  0  0
  140.0096   67.3044  226.7802 H   0  0  0  0  0  0  0  0  0  0  0  0
  141.5128   70.9973  228.4175 H   0  0  0  0  0  0  0  0  0  0  0  0
  140.5789   72.2360  226.4980 H   0  0  0  0  0  0  0  0  0  0  0  0
  139.1544   76.0478  221.0205 H   0  0  0  0  0  0  0  0  0  0  0  0
  139.2220   75.3993  222.6850 H   0  0  0  0  0  0  0  0  0  0  0  0
  141.7690   76.6220  222.1020 H   0  0  0  0  0  0  0  0  0  0  0  0
  142.8826   78.1336  222.1848 H   0  0  0  0  0  0  0  0  0  0  0  0
  144.4510   79.9711  222.8110 H   0  0  0  0  0  0  0  0  0  0  0  0
  143.6232   81.9608  224.0227 H   0  0  0  0  0  0  0  0  0  0  0  0
  141.2136   82.1401  224.6314 H   0  0  0  0  0  0  0  0  0  0  0  0
  139.6726   80.3062  224.0016 H   0  0  0  0  0  0  0  0  0  0  0  0
  1  2  1  0
  2  3  1  0
  3  4  1  0
  4  5  1  0
  5  6  1  0
  6  7  2  0
  6  8  1  0
  8  9  2  0
  9 10  1  0
 10 11  2  0
 11 12  1  0
 12 13  2  0
 13 14  1  0
 13 15  1  0
 15 16  2  0
 16 17  1  0
 17 18  2  0
  2 19  1  0
 19 20  2  0
 19 21  1  0
 21 22  1  0
 22 23  1  0
 23 24  2  0
 23 25  1  0
 25 26  2  0
 26 27  1  0
 27 28  2  0
 28 29  1  0
 29 30  2  0
 18  8  1  0
 30 25  1  0
 17 11  1  0
  1 31  1  0
  1 32  1  0
  1 33  1  0
  3 34  1  0
  3 35  1  0
  4 36  1  0
  4 37  1  0
  5 38  1  0
  9 39  1  0
 10 40  1  0
 12 41  1  0
 15 42  1  0
 16 43  1  0
 21 44  1  0
 21 45  1  0
 22 46  1  0
 26 47  1  0
 27 48  1  0
 28 49  1  0
 29 50  1  0
 30 51  1  0
M  END
>  <smiles>  (45) 
CN(CCNC(=O)c1ccc2cc(Cl)ccc2n1)C(=O)CNC(=O)c1ccccc1

>  <score_type>  (45) 
oracle

>  <origin>  (45) 
autodockgpu

>  <m_score__min__energy>  (45) 
-8.6300000000000008

>  <m_primary>  (45) 
energy

>  <rmsd>  (45) 
9.946765701590518

>  <m_score__min__rmsd>  (45) 
9.946765701590518

>  <meeko>  (45) 
{"free_energy": -8.3, "intermolecular_energy": -10.69, "internal_energy": -2.19, "cluster_size": 9, "cluster_id": 1, "rank_in_cluster": 4}

>  <energy>  (45) 
-4.95

>  <cluster_rmsd>  (45) 
1.09

>  <cluster>  (45) 
10

$$$$

     RDKit          3D

 51 53  0  0  0  0  0  0  0  0999 V2000
  135.4590   68.5800  223.3570 C   0  0  0  0  0  0  0  0  0  0  0  0
  136.6860   68.8860  222.6350 N   0  0  0  0  0  0  0  0  0  0  0  0
  137.0370   70.2640  222.3060 C   0  0  0  0  0  0  0  0  0  0  0  0
  137.4830   71.0490  223.4970 C   0  0  0  0  0  0  0  0  0  0  0  0
  138.1410   72.2580  223.0410 N   0  0  0  0  0  0  0  0  0  0  0  0
  139.3980   72.2670  222.3850 C   0  0  0  0  0  0  0  0  0  0  0  0
  140.0350   71.2200  222.1530 O   0  0  0  0  0  0  0  0  0  0  0  0
  139.9760   73.5480  221.9620 C   0  0  0  0  0  0  0  0  0  0  0  0
  141.1010   73.5990  221.1780 C   0  0  0  0  0  0  0  0  0  0  0  0
  141.6900   74.7690  220.7490 C   0  0  0  0  0  0  0  0  0  0  0  0
  141.1000   75.9500  221.1420 C   0  0  0  0  0  0  0  0  0  0  0  0
  141.6760   77.1260  220.7210 C   0  0  0  0  0  0  0  0  0  0  0  0
  141.0950   78.3190  221.1060 C   0  0  0  0  0  0  0  0  0  0  0  0
  141.8290   79.7960  220.5720 Cl  0  0  0  0  0  0  0  0  0  0  0  0
  139.9510   78.2840  221.9040 C   0  0  0  0  0  0  0  0  0  0  0  0
  139.4010   77.0810  222.3060 C   0  0  0  0  0  0  0  0  0  0  0  0
  139.9680   75.8940  221.9300 C   0  0  0  0  0  0  0  0  0  0  0  0
  139.4210   74.7340  222.3300 N   0  0  0  0  0  0  0  0  0  0  0  0
  137.5060   67.7790  222.2780 C   0  0  0  0  0  0  0  0  0  0  0  0
  136.9110   66.7350  221.9040 O   0  0  0  0  0  0  0  0  0  0  0  0
  138.9900   67.8140  222.3300 C   0  0  0  0  0  0  0  0  0  0  0  0
  139.3890   68.8140  223.3030 N   0  0  0  0  0  0  0  0  0  0  0  0
  139.4690   68.5440  224.6820 C   0  0  0  0  0  0  0  0  0  0  0  0
  139.1830   67.3890  225.0910 O   0  0  0  0  0  0  0  0  0  0  0  0
  139.8660   69.5210  225.6880 C   0  0  0  0  0  0  0  0  0  0  0  0
  140.5490   70.6450  225.2700 C   0  0  0  0  0  0  0  0  0  0  0  0
  140.9470   71.6040  226.2050 C   0  0  0  0  0  0  0  0  0  0  0  0
  140.6590   71.4370  227.5430 C   0  0  0  0  0  0  0  0  0  0  0  0
  139.9760   70.3160  227.9740 C   0  0  0  0  0  0  0  0  0  0  0  0
  139.5910   69.3770  227.0330 C   0  0  0  0  0  0  0  0  0  0  0  0
  135.6490   68.6274  224.4394 H   0  0  0  0  0  0  0  0  0  0  0  0
  134.6832   69.3122  223.0885 H   0  0  0  0  0  0  0  0  0  0  0  0
  135.1179   67.5693  223.0885 H   0  0  0  0  0  0  0  0  0  0  0  0
  137.8523   70.2521  221.5677 H   0  0  0  0  0  0  0  0  0  0  0  0
  136.1334   70.7498  221.9090 H   0  0  0  0  0  0  0  0  0  0  0  0
  136.6110   71.3129  224.1134 H   0  0  0  0  0  0  0  0  0  0  0  0
  138.1804   70.4490  224.0999 H   0  0  0  0  0  0  0  0  0  0  0  0
  137.6680   73.1910  223.1990 H   0  0  0  0  0  0  0  0  0  0  0  0
  141.5611   72.6475  220.8731 H   0  0  0  0  0  0  0  0  0  0  0  0
  142.5923   74.7600  220.1199 H   0  0  0  0  0  0  0  0  0  0  0  0
  142.5785   77.1169  220.0922 H   0  0  0  0  0  0  0  0  0  0  0  0
  139.4799   79.2272  222.2178 H   0  0  0  0  0  0  0  0  0  0  0  0
  138.4983   77.0781  222.9346 H   0  0  0  0  0  0  0  0  0  0  0  0
  139.3749   66.8284  222.6306 H   0  0  0  0  0  0  0  0  0  0  0  0
  139.3978   68.0652  221.3398 H   0  0  0  0  0  0  0  0  0  0  0  0
  139.6300   69.7790  222.9810 H   0  0  0  0  0  0  0  0  0  0  0  0
  140.7794   70.7855  224.2036 H   0  0  0  0  0  0  0  0  0  0  0  0
  141.4938   72.4983  225.8714 H   0  0  0  0  0  0  0  0  0  0  0  0
  140.9743   72.1995  228.2704 H   0  0  0  0  0  0  0  0  0  0  0  0
  139.7437   70.1732  229.0397 H   0  0  0  0  0  0  0  0  0  0  0  0
  139.0457   68.4828  227.3694 H   0  0  0  0  0  0  0  0  0  0  0  0
  1  2  1  0
  2  3  1  0
  3  4  1  0
  4  5  1  0
  5  6  1  0
  6  7  2  0
  6  8  1  0
  8  9  2  0
  9 10  1  0
 10 11  2  0
 11 12  1  0
 12 13  2  0
 13 14  1  0
 13 15  1  0
 15 16  2  0
 16 17  1  0
 17 18  2  0
  2 19  1  0
 19 20  2  0
 19 21  1  0
 21 22  1  0
 22 23  1  0
 23 24  2  0
 23 25  1  0
 25 26  2  0
 26 27  1  0
 27 28  2  0
 28 29  1  0
 29 30  2  0
 18  8  1  0
 30 25  1  0
 17 11  1  0
  1 31  1  0
  1 32  1  0
  1 33  1  0
  3 34  1  0
  3 35  1  0
  4 36  1  0
  4 37  1  0
  5 38  1  0
  9 39  1  0
 10 40  1  0
 12 41  1  0
 15 42  1  0
 16 43  1  0
 21 44  1  0
 21 45  1  0
 22 46  1  0
 26 47  1  0
 27 48  1  0
 28 49  1  0
 29 50  1  0
 30 51  1  0
M  END
>  <smiles>  (46) 
CN(CCNC(=O)c1ccc2cc(Cl)ccc2n1)C(=O)CNC(=O)c1ccccc1

>  <score_type>  (46) 
oracle

>  <origin>  (46) 
autodockgpu

>  <m_score__min__energy>  (46) 
-8.6300000000000008

>  <m_primary>  (46) 
energy

>  <rmsd>  (46) 
6.378128333518834

>  <m_score__min__rmsd>  (46) 
6.378128333518834

>  <meeko>  (46) 
{"free_energy": -7.32, "intermolecular_energy": -9.71, "internal_energy": -2.83, "cluster_size": 4, "cluster_id": 5, "rank_in_cluster": 3}

>  <energy>  (46) 
-5.37

>  <cluster_rmsd>  (46) 
0.0

>  <cluster>  (46) 
11

$$$$

     RDKit          3D

 51 53  0  0  0  0  0  0  0  0999 V2000
  138.7930   78.0530  221.7670 C   0  0  0  0  0  0  0  0  0  0  0  0
  138.9600   76.6130  221.6280 N   0  0  0  0  0  0  0  0  0  0  0  0
  137.8280   75.7080  221.7960 C   0  0  0  0  0  0  0  0  0  0  0  0
  138.0550   74.3710  221.1680 C   0  0  0  0  0  0  0  0  0  0  0  0
  138.3580   73.4100  222.2110 N   0  0  0  0  0  0  0  0  0  0  0  0
  139.4160   72.4700  222.1280 C   0  0  0  0  0  0  0  0  0  0  0  0
  140.1710   72.4020  221.1370 O   0  0  0  0  0  0  0  0  0  0  0  0
  139.6380   71.5410  223.2430 C   0  0  0  0  0  0  0  0  0  0  0  0
  139.3090   70.2130  223.1410 C   0  0  0  0  0  0  0  0  0  0  0  0
  139.4930   69.2930  224.1510 C   0  0  0  0  0  0  0  0  0  0  0  0
  140.0410   69.7540  225.3290 C   0  0  0  0  0  0  0  0  0  0  0  0
  140.2310   68.8480  226.3460 C   0  0  0  0  0  0  0  0  0  0  0  0
  140.7800   69.2940  227.5330 C   0  0  0  0  0  0  0  0  0  0  0  0
  141.0140   68.1450  228.8090 Cl  0  0  0  0  0  0  0  0  0  0  0  0
  141.1190   70.6430  227.6520 C   0  0  0  0  0  0  0  0  0  0  0  0
  140.9130   71.5230  226.6060 C   0  0  0  0  0  0  0  0  0  0  0  0
  140.3700   71.0910  225.4270 C   0  0  0  0  0  0  0  0  0  0  0  0
  140.1760   71.9600  224.4200 N   0  0  0  0  0  0  0  0  0  0  0  0
  140.2710   76.1530  221.3230 C   0  0  0  0  0  0  0  0  0  0  0  0
  141.0590   76.0130  222.2940 O   0  0  0  0  0  0  0  0  0  0  0  0
  140.7260   75.8430  219.9430 C   0  0  0  0  0  0  0  0  0  0  0  0
  141.7460   74.8130  220.0190 N   0  0  0  0  0  0  0  0  0  0  0  0
  143.1210   75.0980  219.9360 C   0  0  0  0  0  0  0  0  0  0  0  0
  143.4850   76.2940  219.7900 O   0  0  0  0  0  0  0  0  0  0  0  0
  144.1740   74.0920  220.0090 C   0  0  0  0  0  0  0  0  0  0  0  0
  145.2430   74.3280  220.8490 C   0  0  0  0  0  0  0  0  0  0  0  0
  146.2720   73.3880  220.9460 C   0  0  0  0  0  0  0  0  0  0  0  0
  146.2270   72.2250  220.2080 C   0  0  0  0  0  0  0  0  0  0  0  0
  145.1620   71.9770  219.3630 C   0  0  0  0  0  0  0  0  0  0  0  0
  144.1520   72.9210  219.2800 C   0  0  0  0  0  0  0  0  0  0  0  0
  138.7624   78.3172  222.8344 H   0  0  0  0  0  0  0  0  0  0  0  0
  139.6374   78.5682  221.2858 H   0  0  0  0  0  0  0  0  0  0  0  0
  137.8531   78.3613  221.2858 H   0  0  0  0  0  0  0  0  0  0  0  0
  137.6496   75.5648  222.8720 H   0  0  0  0  0  0  0  0  0  0  0  0
  136.9621   76.1655  221.2952 H   0  0  0  0  0  0  0  0  0  0  0  0
  137.1492   74.0575  220.6283 H   0  0  0  0  0  0  0  0  0  0  0  0
  138.8934   74.4290  220.4583 H   0  0  0  0  0  0  0  0  0  0  0  0
  137.7640   73.4000  223.0870 H   0  0  0  0  0  0  0  0  0  0  0  0
  138.8715   69.8607  222.1952 H   0  0  0  0  0  0  0  0  0  0  0  0
  139.2146   68.2366  224.0225 H   0  0  0  0  0  0  0  0  0  0  0  0
  139.9521   67.7917  226.2174 H   0  0  0  0  0  0  0  0  0  0  0  0
  141.5564   71.0111  228.5918 H   0  0  0  0  0  0  0  0  0  0  0  0
  141.1885   72.5815  226.7229 H   0  0  0  0  0  0  0  0  0  0  0  0
  139.8770   75.4820  219.3439 H   0  0  0  0  0  0  0  0  0  0  0  0
  141.1350   76.7465  219.4673 H   0  0  0  0  0  0  0  0  0  0  0  0
  141.4620   73.8150  220.1400 H   0  0  0  0  0  0  0  0  0  0  0  0
  145.2849   75.2542  221.4409 H   0  0  0  0  0  0  0  0  0  0  0  0
  147.1237   73.5774  221.6158 H   0  0  0  0  0  0  0  0  0  0  0  0
  147.0421   71.4911  220.2919 H   0  0  0  0  0  0  0  0  0  0  0  0
  145.1175   71.0515  218.7702 H   0  0  0  0  0  0  0  0  0  0  0  0
  143.3017   72.7302  218.6087 H   0  0  0  0  0  0  0  0  0  0  0  0
  1  2  1  0
  2  3  1  0
  3  4  1  0
  4  5  1  0
  5  6  1  0
  6  7  2  0
  6  8  1  0
  8  9  2  0
  9 10  1  0
 10 11  2  0
 11 12  1  0
 12 13  2  0
 13 14  1  0
 13 15  1  0
 15 16  2  0
 16 17  1  0
 17 18  2  0
  2 19  1  0
 19 20  2  0
 19 21  1  0
 21 22  1  0
 22 23  1  0
 23 24  2  0
 23 25  1  0
 25 26  2  0
 26 27  1  0
 27 28  2  0
 28 29  1  0
 29 30  2  0
 18  8  1  0
 30 25  1  0
 17 11  1  0
  1 31  1  0
  1 32  1  0
  1 33  1  0
  3 34  1  0
  3 35  1  0
  4 36  1  0
  4 37  1  0
  5 38  1  0
  9 39  1  0
 10 40  1  0
 12 41  1  0
 15 42  1  0
 16 43  1  0
 21 44  1  0
 21 45  1  0
 22 46  1  0
 26 47  1  0
 27 48  1  0
 28 49  1  0
 29 50  1  0
 30 51  1  0
M  END
>  <smiles>  (47) 
CN(CCNC(=O)c1ccc2cc(Cl)ccc2n1)C(=O)CNC(=O)c1ccccc1

>  <score_type>  (47) 
oracle

>  <origin>  (47) 
autodockgpu

>  <m_score__min__energy>  (47) 
-8.6300000000000008

>  <m_primary>  (47) 
energy

>  <rmsd>  (47) 
8.879588684322147

>  <m_score__min__rmsd>  (47) 
8.879588684322147

>  <meeko>  (47) 
{"free_energy": -7.67, "intermolecular_energy": -10.05, "internal_energy": -2.21, "cluster_size": 4, "cluster_id": 4, "rank_in_cluster": 3}

>  <energy>  (47) 
-5.35

>  <cluster_rmsd>  (47) 
0.1

>  <cluster>  (47) 
11

$$$$

     RDKit          3D

 51 53  0  0  0  0  0  0  0  0999 V2000
  140.6230   72.3540  220.2890 C   0  0  0  0  0  0  0  0  0  0  0  0
  139.6940   73.4060  220.6770 N   0  0  0  0  0  0  0  0  0  0  0  0
  138.3080   73.3860  220.2220 C   0  0  0  0  0  0  0  0  0  0  0  0
  137.3270   73.3470  221.3490 C   0  0  0  0  0  0  0  0  0  0  0  0
  137.8830   72.5500  222.4250 N   0  0  0  0  0  0  0  0  0  0  0  0
  137.9520   71.1340  222.3980 C   0  0  0  0  0  0  0  0  0  0  0  0
  137.5310   70.4650  221.4330 O   0  0  0  0  0  0  0  0  0  0  0  0
  138.5370   70.4230  223.5410 C   0  0  0  0  0  0  0  0  0  0  0  0
  138.4780   69.0570  223.6380 C   0  0  0  0  0  0  0  0  0  0  0  0
  139.0090   68.3330  224.6850 C   0  0  0  0  0  0  0  0  0  0  0  0
  139.6320   69.0440  225.6880 C   0  0  0  0  0  0  0  0  0  0  0  0
  140.1660   68.3360  226.7390 C   0  0  0  0  0  0  0  0  0  0  0  0
  140.7940   69.0340  227.7520 C   0  0  0  0  0  0  0  0  0  0  0  0
  141.4640   68.1340  229.0730 Cl  0  0  0  0  0  0  0  0  0  0  0  0
  140.8620   70.4260  227.6690 C   0  0  0  0  0  0  0  0  0  0  0  0
  140.3130   71.1010  226.5950 C   0  0  0  0  0  0  0  0  0  0  0  0
  139.6890   70.4200  225.5870 C   0  0  0  0  0  0  0  0  0  0  0  0
  139.1600   71.0910  224.5500 N   0  0  0  0  0  0  0  0  0  0  0  0
  140.2130   74.4350  221.5110 C   0  0  0  0  0  0  0  0  0  0  0  0
  141.3810   74.2700  221.9480 O   0  0  0  0  0  0  0  0  0  0  0  0
  139.4470   75.6560  221.8730 C   0  0  0  0  0  0  0  0  0  0  0  0
  140.3920   76.6930  222.2450 N   0  0  0  0  0  0  0  0  0  0  0  0
  140.0020   78.0210  222.4970 C   0  0  0  0  0  0  0  0  0  0  0  0
  138.7850   78.3250  222.3960 O   0  0  0  0  0  0  0  0  0  0  0  0
  140.9200   79.0900  222.8730 C   0  0  0  0  0  0  0  0  0  0  0  0
  140.3930   80.2250  223.4530 C   0  0  0  0  0  0  0  0  0  0  0  0
  141.2410   81.2720  223.8270 C   0  0  0  0  0  0  0  0  0  0  0  0
  142.6000   81.1760  223.6220 C   0  0  0  0  0  0  0  0  0  0  0  0
  143.1390   80.0440  223.0420 C   0  0  0  0  0  0  0  0  0  0  0  0
  142.2840   79.0180  222.6780 C   0  0  0  0  0  0  0  0  0  0  0  0
  141.0399   71.8820  221.1909 H   0  0  0  0  0  0  0  0  0  0  0  0
  140.0923   71.5982  219.6915 H   0  0  0  0  0  0  0  0  0  0  0  0
  141.4387   72.7872  219.6915 H   0  0  0  0  0  0  0  0  0  0  0  0
  138.1213   74.2909  219.6252 H   0  0  0  0  0  0  0  0  0  0  0  0
  138.1678   72.4695  219.6301 H   0  0  0  0  0  0  0  0  0  0  0  0
  137.1347   74.3691  221.7073 H   0  0  0  0  0  0  0  0  0  0  0  0
  136.3808   72.9034  221.0057 H   0  0  0  0  0  0  0  0  0  0  0  0
  138.2630   73.0400  223.2830 H   0  0  0  0  0  0  0  0  0  0  0  0
  137.9759   68.5038  222.8306 H   0  0  0  0  0  0  0  0  0  0  0  0
  138.9384   67.2358  224.7181 H   0  0  0  0  0  0  0  0  0  0  0  0
  140.0946   67.2388  226.7722 H   0  0  0  0  0  0  0  0  0  0  0  0
  141.3594   70.9934  228.4694 H   0  0  0  0  0  0  0  0  0  0  0  0
  140.3789   72.1981  226.5508 H   0  0  0  0  0  0  0  0  0  0  0  0
  138.8492   75.9890  221.0118 H   0  0  0  0  0  0  0  0  0  0  0  0
  138.7683   75.4429  222.7120 H   0  0  0  0  0  0  0  0  0  0  0  0
  141.4070   76.4580  222.3330 H   0  0  0  0  0  0  0  0  0  0  0  0
  139.3089   80.3063  223.6208 H   0  0  0  0  0  0  0  0  0  0  0  0
  140.8204   82.1780  224.2878 H   0  0  0  0  0  0  0  0  0  0  0  0
  143.2588   82.0044  223.9215 H   0  0  0  0  0  0  0  0  0  0  0  0
  144.2227   79.9598  222.8733 H   0  0  0  0  0  0  0  0  0  0  0  0
  142.7070   78.1133  222.2169 H   0  0  0  0  0  0  0  0  0  0  0  0
  1  2  1  0
  2  3  1  0
  3  4  1  0
  4  5  1  0
  5  6  1  0
  6  7  2  0
  6  8  1  0
  8  9  2  0
  9 10  1  0
 10 11  2  0
 11 12  1  0
 12 13  2  0
 13 14  1  0
 13 15  1  0
 15 16  2  0
 16 17  1  0
 17 18  2  0
  2 19  1  0
 19 20  2  0
 19 21  1  0
 21 22  1  0
 22 23  1  0
 23 24  2  0
 23 25  1  0
 25 26  2  0
 26 27  1  0
 27 28  2  0
 28 29  1  0
 29 30  2  0
 18  8  1  0
 30 25  1  0
 17 11  1  0
  1 31  1  0
  1 32  1  0
  1 33  1  0
  3 34  1  0
  3 35  1  0
  4 36  1  0
  4 37  1  0
  5 38  1  0
  9 39  1  0
 10 40  1  0
 12 41  1  0
 15 42  1  0
 16 43  1  0
 21 44  1  0
 21 45  1  0
 22 46  1  0
 26 47  1  0
 27 48  1  0
 28 49  1  0
 29 50  1  0
 30 51  1  0
M  END
>  <smiles>  (48) 
CN(CCNC(=O)c1ccc2cc(Cl)ccc2n1)C(=O)CNC(=O)c1ccccc1

>  <score_type>  (48) 
oracle

>  <origin>  (48) 
autodockgpu

>  <m_score__min__energy>  (48) 
-8.6300000000000008

>  <m_primary>  (48) 
energy

>  <rmsd>  (48) 
10.017096756355254

>  <m_score__min__rmsd>  (48) 
10.017096756355254

>  <meeko>  (48) 
{"free_energy": -8.36, "intermolecular_energy": -10.74, "internal_energy": -2.23, "cluster_size": 9, "cluster_id": 1, "rank_in_cluster": 3}

>  <energy>  (48) 
-5.32

>  <cluster_rmsd>  (48) 
0.28

>  <cluster>  (48) 
11

$$$$

     RDKit          3D

 51 53  0  0  0  0  0  0  0  0999 V2000
  140.0730   80.9150  223.3720 C   0  0  0  0  0  0  0  0  0  0  0  0
  141.2220   80.5200  222.5690 N   0  0  0  0  0  0  0  0  0  0  0  0
  141.8320   81.4530  221.6260 C   0  0  0  0  0  0  0  0  0  0  0  0
  141.5470   81.1050  220.2000 C   0  0  0  0  0  0  0  0  0  0  0  0
  142.1100   79.8000  219.9150 N   0  0  0  0  0  0  0  0  0  0  0  0
  141.8060   79.0520  218.7500 C   0  0  0  0  0  0  0  0  0  0  0  0
  141.0210   79.4710  217.8750 O   0  0  0  0  0  0  0  0  0  0  0  0
  142.4330   77.7390  218.5570 C   0  0  0  0  0  0  0  0  0  0  0  0
  142.5480   77.1790  217.3110 C   0  0  0  0  0  0  0  0  0  0  0  0
  143.1260   75.9510  217.0660 C   0  0  0  0  0  0  0  0  0  0  0  0
  143.6110   75.2570  218.1540 C   0  0  0  0  0  0  0  0  0  0  0  0
  144.1910   74.0310  217.9260 C   0  0  0  0  0  0  0  0  0  0  0  0
  144.6830   73.3240  219.0060 C   0  0  0  0  0  0  0  0  0  0  0  0
  145.4110   71.7790  218.7090 Cl  0  0  0  0  0  0  0  0  0  0  0  0
  144.5730   73.8800  220.2820 C   0  0  0  0  0  0  0  0  0  0  0  0
  143.9840   75.1170  220.4690 C   0  0  0  0  0  0  0  0  0  0  0  0
  143.4940   75.8250  219.4070 C   0  0  0  0  0  0  0  0  0  0  0  0
  142.9240   77.0250  219.6070 N   0  0  0  0  0  0  0  0  0  0  0  0
  141.7030   79.1950  222.7570 C   0  0  0  0  0  0  0  0  0  0  0  0
  142.9440   79.0250  222.6450 O   0  0  0  0  0  0  0  0  0  0  0  0
  140.8180   78.0430  223.0710 C   0  0  0  0  0  0  0  0  0  0  0  0
  141.1550   76.9520  222.1750 N   0  0  0  0  0  0  0  0  0  0  0  0
  140.3570   75.8000  222.0470 C   0  0  0  0  0  0  0  0  0  0  0  0
  139.3080   75.7100  222.7360 O   0  0  0  0  0  0  0  0  0  0  0  0
  140.6610   74.6850  221.1590 C   0  0  0  0  0  0  0  0  0  0  0  0
  140.3740   74.8250  219.8170 C   0  0  0  0  0  0  0  0  0  0  0  0
  140.6510   73.7780  218.9340 C   0  0  0  0  0  0  0  0  0  0  0  0
  141.2110   72.6060  219.3950 C   0  0  0  0  0  0  0  0  0  0  0  0
  141.5030   72.4530  220.7370 C   0  0  0  0  0  0  0  0  0  0  0  0
  141.2210   73.5020  221.5960 C   0  0  0  0  0  0  0  0  0  0  0  0
  140.3245   80.8285  224.4394 H   0  0  0  0  0  0  0  0  0  0  0  0
  139.8053   81.9568  223.1416 H   0  0  0  0  0  0  0  0  0  0  0  0
  139.2213   80.2580  223.1416 H   0  0  0  0  0  0  0  0  0  0  0  0
  141.4409   82.4614  221.8266 H   0  0  0  0  0  0  0  0  0  0  0  0
  142.9216   81.4022  221.7679 H   0  0  0  0  0  0  0  0  0  0  0  0
  140.4596   81.0823  220.0354 H   0  0  0  0  0  0  0  0  0  0  0  0
  141.9952   81.8582  219.5352 H   0  0  0  0  0  0  0  0  0  0  0  0
  142.7870   79.3710  220.6070 H   0  0  0  0  0  0  0  0  0  0  0  0
  142.1548   77.7443  216.4532 H   0  0  0  0  0  0  0  0  0  0  0  0
  143.1969   75.5431  216.0469 H   0  0  0  0  0  0  0  0  0  0  0  0
  144.2615   73.6227  216.9070 H   0  0  0  0  0  0  0  0  0  0  0  0
  144.9601   73.3265  221.1502 H   0  0  0  0  0  0  0  0  0  0  0  0
  143.9089   75.5360  221.4833 H   0  0  0  0  0  0  0  0  0  0  0  0
  140.9721   77.7290  224.1139 H   0  0  0  0  0  0  0  0  0  0  0  0
  139.7637   78.3285  222.9408 H   0  0  0  0  0  0  0  0  0  0  0  0
  142.0220   77.0100  221.5950 H   0  0  0  0  0  0  0  0  0  0  0  0
  139.9282   75.7585  219.4429 H   0  0  0  0  0  0  0  0  0  0  0  0
  140.4207   73.8899  217.8642 H   0  0  0  0  0  0  0  0  0  0  0  0
  141.4265   71.7885  218.6913 H   0  0  0  0  0  0  0  0  0  0  0  0
  141.9487   71.5206  221.1138 H   0  0  0  0  0  0  0  0  0  0  0  0
  141.4518   73.3880  222.6655 H   0  0  0  0  0  0  0  0  0  0  0  0
  1  2  1  0
  2  3  1  0
  3  4  1  0
  4  5  1  0
  5  6  1  0
  6  7  2  0
  6  8  1  0
  8  9  2  0
  9 10  1  0
 10 11  2  0
 11 12  1  0
 12 13  2  0
 13 14  1  0
 13 15  1  0
 15 16  2  0
 16 17  1  0
 17 18  2  0
  2 19  1  0
 19 20  2  0
 19 21  1  0
 21 22  1  0
 22 23  1  0
 23 24  2  0
 23 25  1  0
 25 26  2  0
 26 27  1  0
 27 28  2  0
 28 29  1  0
 29 30  2  0
 18  8  1  0
 30 25  1  0
 17 11  1  0
  1 31  1  0
  1 32  1  0
  1 33  1  0
  3 34  1  0
  3 35  1  0
  4 36  1  0
  4 37  1  0
  5 38  1  0
  9 39  1  0
 10 40  1  0
 12 41  1  0
 15 42  1  0
 16 43  1  0
 21 44  1  0
 21 45  1  0
 22 46  1  0
 26 47  1  0
 27 48  1  0
 28 49  1  0
 29 50  1  0
 30 51  1  0
M  END
>  <smiles>  (49) 
CN(CCNC(=O)c1ccc2cc(Cl)ccc2n1)C(=O)CNC(=O)c1ccccc1

>  <score_type>  (49) 
oracle

>  <origin>  (49) 
autodockgpu

>  <m_score__min__energy>  (49) 
-8.6300000000000008

>  <m_primary>  (49) 
energy

>  <rmsd>  (49) 
7.07120489702692

>  <m_score__min__rmsd>  (49) 
7.07120489702692

>  <meeko>  (49) 
{"free_energy": -5.41, "intermolecular_energy": -7.79, "internal_energy": -4.92, "cluster_size": 3, "cluster_id": 10, "rank_in_cluster": 2}

>  <energy>  (49) 
-5.28

>  <cluster_rmsd>  (49) 
0.2

>  <cluster>  (49) 
11

$$$$

     RDKit          3D

 51 53  0  0  0  0  0  0  0  0999 V2000
  140.7610   74.9620  221.7870 C   0  0  0  0  0  0  0  0  0  0  0  0
  139.7890   75.4910  220.8400 N   0  0  0  0  0  0  0  0  0  0  0  0
  138.3570   75.3530  221.0810 C   0  0  0  0  0  0  0  0  0  0  0  0
  137.8600   73.9630  220.8410 C   0  0  0  0  0  0  0  0  0  0  0  0
  138.2670   73.1230  221.9490 N   0  0  0  0  0  0  0  0  0  0  0  0
  138.3570   71.7100  221.8710 C   0  0  0  0  0  0  0  0  0  0  0  0
  138.0870   71.0820  220.8280 O   0  0  0  0  0  0  0  0  0  0  0  0
  138.7820   70.9520  223.0550 C   0  0  0  0  0  0  0  0  0  0  0  0
  138.4820   69.6220  223.1960 C   0  0  0  0  0  0  0  0  0  0  0  0
  138.8530   68.8570  224.2820 C   0  0  0  0  0  0  0  0  0  0  0  0
  139.5680   69.4870  225.2780 C   0  0  0  0  0  0  0  0  0  0  0  0
  139.9460   68.7370  226.3670 C   0  0  0  0  0  0  0  0  0  0  0  0
  140.6640   69.3540  227.3740 C   0  0  0  0  0  0  0  0  0  0  0  0
  141.1350   68.4010  228.7430 Cl  0  0  0  0  0  0  0  0  0  0  0  0
  140.9780   70.7080  227.2450 C   0  0  0  0  0  0  0  0  0  0  0  0
  140.5800   71.4270  226.1330 C   0  0  0  0  0  0  0  0  0  0  0  0
  139.8690   70.8260  225.1310 C   0  0  0  0  0  0  0  0  0  0  0  0
  139.4900   71.5400  224.0580 N   0  0  0  0  0  0  0  0  0  0  0  0
  140.3140   76.1400  219.6880 C   0  0  0  0  0  0  0  0  0  0  0  0
  139.5300   76.2780  218.7130 O   0  0  0  0  0  0  0  0  0  0  0  0
  141.7090   76.6430  219.6000 C   0  0  0  0  0  0  0  0  0  0  0  0
  141.9650   77.4840  220.7560 N   0  0  0  0  0  0  0  0  0  0  0  0
  141.4480   78.7870  220.8760 C   0  0  0  0  0  0  0  0  0  0  0  0
  140.7360   79.2450  219.9460 O   0  0  0  0  0  0  0  0  0  0  0  0
  141.6830   79.6610  222.0190 C   0  0  0  0  0  0  0  0  0  0  0  0
  142.9590   79.7230  222.5390 C   0  0  0  0  0  0  0  0  0  0  0  0
  143.2240   80.5490  223.6350 C   0  0  0  0  0  0  0  0  0  0  0  0
  142.2180   81.3040  224.1990 C   0  0  0  0  0  0  0  0  0  0  0  0
  140.9360   81.2500  223.6880 C   0  0  0  0  0  0  0  0  0  0  0  0
  140.6930   80.4260  222.6020 C   0  0  0  0  0  0  0  0  0  0  0  0
  140.4134   75.1512  222.8134 H   0  0  0  0  0  0  0  0  0  0  0  0
  140.8725   73.8788  221.6314 H   0  0  0  0  0  0  0  0  0  0  0  0
  141.7312   75.4565  221.6314 H   0  0  0  0  0  0  0  0  0  0  0  0
  138.1487   75.6251  222.1263 H   0  0  0  0  0  0  0  0  0  0  0  0
  137.8369   76.0171  220.3750 H   0  0  0  0  0  0  0  0  0  0  0  0
  136.7625   73.9706  220.7667 H   0  0  0  0  0  0  0  0  0  0  0  0
  138.2807   73.5729  219.9025 H   0  0  0  0  0  0  0  0  0  0  0  0
  138.5140   73.5760  222.8740 H   0  0  0  0  0  0  0  0  0  0  0  0
  137.9097   69.1344  222.3930 H   0  0  0  0  0  0  0  0  0  0  0  0
  138.5899   67.7911  224.3503 H   0  0  0  0  0  0  0  0  0  0  0  0
  139.6831   67.6711  226.4350 H   0  0  0  0  0  0  0  0  0  0  0  0
  141.5501   71.2100  228.0391 H   0  0  0  0  0  0  0  0  0  0  0  0
  140.8379   72.4934  226.0534 H   0  0  0  0  0  0  0  0  0  0  0  0
  142.4102   75.7955  219.5942 H   0  0  0  0  0  0  0  0  0  0  0  0
  141.8456   77.2205  218.6738 H   0  0  0  0  0  0  0  0  0  0  0  0
  142.5550   77.1200  221.5370 H   0  0  0  0  0  0  0  0  0  0  0  0
  143.7661   79.1238  222.0923 H   0  0  0  0  0  0  0  0  0  0  0  0
  144.2416   80.5969  224.0500 H   0  0  0  0  0  0  0  0  0  0  0  0
  142.4373   81.9525  225.0600 H   0  0  0  0  0  0  0  0  0  0  0  0
  140.1269   81.8476  224.1333 H   0  0  0  0  0  0  0  0  0  0  0  0
  139.6745   80.3794  222.1891 H   0  0  0  0  0  0  0  0  0  0  0  0
  1  2  1  0
  2  3  1  0
  3  4  1  0
  4  5  1  0
  5  6  1  0
  6  7  2  0
  6  8  1  0
  8  9  2  0
  9 10  1  0
 10 11  2  0
 11 12  1  0
 12 13  2  0
 13 14  1  0
 13 15  1  0
 15 16  2  0
 16 17  1  0
 17 18  2  0
  2 19  1  0
 19 20  2  0
 19 21  1  0
 21 22  1  0
 22 23  1  0
 23 24  2  0
 23 25  1  0
 25 26  2  0
 26 27  1  0
 27 28  2  0
 28 29  1  0
 29 30  2  0
 18  8  1  0
 30 25  1  0
 17 11  1  0
  1 31  1  0
  1 32  1  0
  1 33  1  0
  3 34  1  0
  3 35  1  0
  4 36  1  0
  4 37  1  0
  5 38  1  0
  9 39  1  0
 10 40  1  0
 12 41  1  0
 15 42  1  0
 16 43  1  0
 21 44  1  0
 21 45  1  0
 22 46  1  0
 26 47  1  0
 27 48  1  0
 28 49  1  0
 29 50  1  0
 30 51  1  0
M  END
>  <smiles>  (50) 
CN(CCNC(=O)c1ccc2cc(Cl)ccc2n1)C(=O)CNC(=O)c1ccccc1

>  <score_type>  (50) 
oracle

>  <origin>  (50) 
autodockgpu

>  <m_score__min__energy>  (50) 
-8.6300000000000008

>  <m_primary>  (50) 
energy

>  <rmsd>  (50) 
10.023460855531775

>  <m_score__min__rmsd>  (50) 
10.023460855531775

>  <meeko>  (50) 
{"free_energy": -7.83, "intermolecular_energy": -10.21, "internal_energy": -1.48, "cluster_size": 9, "cluster_id": 1, "rank_in_cluster": 6}

>  <energy>  (50) 
-5.24

>  <cluster_rmsd>  (50) 
0.66

>  <cluster>  (50) 
11

$$$$
