
     RDKit          3D

 31 32  0  0  0  0  0  0  0  0999 V2000
  141.0380   75.1190  221.5980 C   0  0  0  0  0  0  0  0  0  0  0  0
  140.1440   74.1070  221.9840 O   0  0  0  0  0  0  0  0  0  0  0  0
  139.2180   73.8650  220.9810 C   0  0  0  0  0  0  0  0  0  0  0  0
  138.0650   73.0800  221.5790 C   0  0  0  0  0  0  0  0  0  0  0  0
  138.5660   72.2770  222.6700 N   0  0  0  0  0  0  0  0  0  0  0  0
  138.2380   70.9110  222.8510 C   0  0  0  0  0  0  0  0  0  0  0  0
  137.4710   70.3090  222.0460 O   0  0  0  0  0  0  0  0  0  0  0  0
  138.7930   70.1680  223.9900 C   0  0  0  0  0  0  0  0  0  0  0  0
  138.7070   68.8010  224.0410 C   0  0  0  0  0  0  0  0  0  0  0  0
  139.2200   68.0750  225.0980 C   0  0  0  0  0  0  0  0  0  0  0  0
  139.8300   68.7710  226.1200 C   0  0  0  0  0  0  0  0  0  0  0  0
  140.3780   68.1550  227.2250 C   0  0  0  0  0  0  0  0  0  0  0  0
  140.9900   68.8370  228.2510 C   0  0  0  0  0  0  0  0  0  0  0  0
  141.5090   68.1650  229.3120 F   0  0  0  0  0  0  0  0  0  0  0  0
  141.0780   70.2190  228.2010 C   0  0  0  0  0  0  0  0  0  0  0  0
  140.5410   70.8640  227.1100 C   0  0  0  0  0  0  0  0  0  0  0  0
  139.9280   70.1630  226.0860 C   0  0  0  0  0  0  0  0  0  0  0  0
  139.4030   70.7840  225.0220 N   0  0  0  0  0  0  0  0  0  0  0  0
  141.4601   75.5968  222.4944 H   0  0  0  0  0  0  0  0  0  0  0  0
  141.8502   74.6818  220.9987 H   0  0  0  0  0  0  0  0  0  0  0  0
  140.5039   75.8710  220.9987 H   0  0  0  0  0  0  0  0  0  0  0  0
  138.8489   74.8192  220.5770 H   0  0  0  0  0  0  0  0  0  0  0  0
  139.6833   73.2937  220.1643 H   0  0  0  0  0  0  0  0  0  0  0  0
  137.2988   73.7751  221.9528 H   0  0  0  0  0  0  0  0  0  0  0  0
  137.6166   72.4313  220.8122 H   0  0  0  0  0  0  0  0  0  0  0  0
  139.2190   72.7010  223.3960 H   0  0  0  0  0  0  0  0  0  0  0  0
  138.2147   68.2662  223.2154 H   0  0  0  0  0  0  0  0  0  0  0  0
  139.1444   66.9779  225.1236 H   0  0  0  0  0  0  0  0  0  0  0  0
  140.3228   67.0583  227.2897 H   0  0  0  0  0  0  0  0  0  0  0  0
  141.5632   70.7845  229.0102 H   0  0  0  0  0  0  0  0  0  0  0  0
  140.6003   71.9608  227.0506 H   0  0  0  0  0  0  0  0  0  0  0  0
  1  2  1  0
  2  3  1  0
  3  4  1  0
  4  5  1  0
  5  6  1  0
  6  7  2  0
  6  8  1  0
  8  9  2  0
  9 10  1  0
 10 11  2  0
 11 12  1  0
 12 13  2  0
 13 14  1  0
 13 15  1  0
 15 16  2  0
 16 17  1  0
 17 18  2  0
 18  8  1  0
 17 11  1  0
  1 19  1  0
  1 20  1  0
  1 21  1  0
  3 22  1  0
  3 23  1  0
  4 24  1  0
  4 25  1  0
  5 26  1  0
  9 27  1  0
 10 28  1  0
 12 29  1  0
 15 30  1  0
 16 31  1  0
M  END
>  <smiles>  (1) 
COCCNC(=O)c1ccc2cc(F)ccc2n1

>  <score_type>  (1) 
oracle

>  <origin>  (1) 
autodockgpu

>  <m_score__min__energy>  (1) 
-5.71

>  <m_primary>  (1) 
energy

>  <rmsd>  (1) 
1.076670470396922

>  <m_score__min__rmsd>  (1) 
1.076670470396922

>  <meeko>  (1) 
{"free_energy": -5.42, "intermolecular_energy": -6.62, "internal_energy": -1.43, "cluster_size": 50, "cluster_id": 1, "rank_in_cluster": 45}

>  <energy>  (1) 
-5.71

>  <cluster_rmsd>  (1) 
0.0

>  <cluster>  (1) 
1

$$$$

     RDKit          3D

 31 32  0  0  0  0  0  0  0  0999 V2000
  140.6970   75.9770  221.9490 C   0  0  0  0  0  0  0  0  0  0  0  0
  140.1930   74.6670  221.9800 O   0  0  0  0  0  0  0  0  0  0  0  0
  139.4490   74.4030  220.8400 C   0  0  0  0  0  0  0  0  0  0  0  0
  138.3190   73.4620  221.2180 C   0  0  0  0  0  0  0  0  0  0  0  0
  138.7420   72.6550  222.3390 N   0  0  0  0  0  0  0  0  0  0  0  0
  138.4910   71.2650  222.4430 C   0  0  0  0  0  0  0  0  0  0  0  0
  137.8660   70.6430  221.5350 O   0  0  0  0  0  0  0  0  0  0  0  0
  138.9570   70.5200  223.6190 C   0  0  0  0  0  0  0  0  0  0  0  0
  138.7860   69.1620  223.6990 C   0  0  0  0  0  0  0  0  0  0  0  0
  139.2150   68.4350  224.7920 C   0  0  0  0  0  0  0  0  0  0  0  0
  139.8290   69.1200  225.8190 C   0  0  0  0  0  0  0  0  0  0  0  0
  140.2970   68.5010  226.9590 C   0  0  0  0  0  0  0  0  0  0  0  0
  140.9110   69.1720  227.9910 C   0  0  0  0  0  0  0  0  0  0  0  0
  141.3490   68.4980  229.0870 F   0  0  0  0  0  0  0  0  0  0  0  0
  141.0850   70.5450  227.9110 C   0  0  0  0  0  0  0  0  0  0  0  0
  140.6280   71.1910  226.7860 C   0  0  0  0  0  0  0  0  0  0  0  0
  140.0120   70.5020  225.7560 C   0  0  0  0  0  0  0  0  0  0  0  0
  139.5650   71.1250  224.6580 N   0  0  0  0  0  0  0  0  0  0  0  0
  140.8369   76.3405  222.9778 H   0  0  0  0  0  0  0  0  0  0  0  0
  141.6628   75.9859  221.4225 H   0  0  0  0  0  0  0  0  0  0  0  0
  139.9863   76.6310  221.4225 H   0  0  0  0  0  0  0  0  0  0  0  0
  139.0349   75.3404  220.4403 H   0  0  0  0  0  0  0  0  0  0  0  0
  140.0850   73.9427  220.0695 H   0  0  0  0  0  0  0  0  0  0  0  0
  137.4294   74.0456  221.4972 H   0  0  0  0  0  0  0  0  0  0  0  0
  138.0693   72.8150  220.3642 H   0  0  0  0  0  0  0  0  0  0  0  0
  139.2750   73.0950  223.1490 H   0  0  0  0  0  0  0  0  0  0  0  0
  138.2927   68.6362  222.8683 H   0  0  0  0  0  0  0  0  0  0  0  0
  139.0716   67.3455  224.8416 H   0  0  0  0  0  0  0  0  0  0  0  0
  140.1726   67.4117  227.0479 H   0  0  0  0  0  0  0  0  0  0  0  0
  141.5744   71.1017  228.7237 H   0  0  0  0  0  0  0  0  0  0  0  0
  140.7551   72.2805  226.7031 H   0  0  0  0  0  0  0  0  0  0  0  0
  1  2  1  0
  2  3  1  0
  3  4  1  0
  4  5  1  0
  5  6  1  0
  6  7  2  0
  6  8  1  0
  8  9  2  0
  9 10  1  0
 10 11  2  0
 11 12  1  0
 12 13  2  0
 13 14  1  0
 13 15  1  0
 15 16  2  0
 16 17  1  0
 17 18  2  0
 18  8  1  0
 17 11  1  0
  1 19  1  0
  1 20  1  0
  1 21  1  0
  3 22  1  0
  3 23  1  0
  4 24  1  0
  4 25  1  0
  5 26  1  0
  9 27  1  0
 10 28  1  0
 12 29  1  0
 15 30  1  0
 16 31  1  0
M  END
>  <smiles>  (2) 
COCCNC(=O)c1ccc2cc(F)ccc2n1

>  <score_type>  (2) 
oracle

>  <origin>  (2) 
autodockgpu

>  <m_score__min__energy>  (2) 
-5.71

>  <m_primary>  (2) 
energy

>  <rmsd>  (2) 
0.7339329642529338

>  <m_score__min__rmsd>  (2) 
0.7339329642529338

>  <meeko>  (2) 
{"free_energy": -5.45, "intermolecular_energy": -6.64, "internal_energy": -1.47, "cluster_size": 50, "cluster_id": 1, "rank_in_cluster": 28}

>  <energy>  (2) 
-5.7

>  <cluster_rmsd>  (2) 
0.1

>  <cluster>  (2) 
1

$$$$

     RDKit          3D

 31 32  0  0  0  0  0  0  0  0999 V2000
  141.0520   74.9670  221.5610 C   0  0  0  0  0  0  0  0  0  0  0  0
  140.0650   74.2020  222.2020 O   0  0  0  0  0  0  0  0  0  0  0  0
  138.8320   74.3890  221.5950 C   0  0  0  0  0  0  0  0  0  0  0  0
  138.0930   73.0630  221.6040 C   0  0  0  0  0  0  0  0  0  0  0  0
  138.5810   72.2660  222.7050 N   0  0  0  0  0  0  0  0  0  0  0  0
  138.3300   70.8780  222.8390 C   0  0  0  0  0  0  0  0  0  0  0  0
  137.6470   70.2510  221.9800 O   0  0  0  0  0  0  0  0  0  0  0  0
  138.8660   70.1430  223.9920 C   0  0  0  0  0  0  0  0  0  0  0  0
  138.7780   68.7760  224.0510 C   0  0  0  0  0  0  0  0  0  0  0  0
  139.2730   68.0580  225.1220 C   0  0  0  0  0  0  0  0  0  0  0  0
  139.8670   68.7610  226.1480 C   0  0  0  0  0  0  0  0  0  0  0  0
  140.3970   68.1520  227.2670 C   0  0  0  0  0  0  0  0  0  0  0  0
  140.9930   68.8420  228.2970 C   0  0  0  0  0  0  0  0  0  0  0  0
  141.4940   68.1770  229.3710 F   0  0  0  0  0  0  0  0  0  0  0  0
  141.0830   70.2230  228.2390 C   0  0  0  0  0  0  0  0  0  0  0  0
  140.5640   70.8600  227.1350 C   0  0  0  0  0  0  0  0  0  0  0  0
  139.9670   70.1520  226.1060 C   0  0  0  0  0  0  0  0  0  0  0  0
  139.4590   70.7660  225.0290 N   0  0  0  0  0  0  0  0  0  0  0  0
  141.6841   75.4570  222.3162 H   0  0  0  0  0  0  0  0  0  0  0  0
  141.6729   74.3119  220.9322 H   0  0  0  0  0  0  0  0  0  0  0  0
  140.5725   75.7317  220.9322 H   0  0  0  0  0  0  0  0  0  0  0  0
  138.2535   75.1415  222.1510 H   0  0  0  0  0  0  0  0  0  0  0  0
  138.9667   74.7420  220.5619 H   0  0  0  0  0  0  0  0  0  0  0  0
  137.0145   73.2416  221.7263 H   0  0  0  0  0  0  0  0  0  0  0  0
  138.2633   72.5336  220.6549 H   0  0  0  0  0  0  0  0  0  0  0  0
  139.1660   72.7110  223.4760 H   0  0  0  0  0  0  0  0  0  0  0  0
  138.2992   68.2354  223.2212 H   0  0  0  0  0  0  0  0  0  0  0  0
  139.1957   66.9612  225.1551 H   0  0  0  0  0  0  0  0  0  0  0  0
  140.3399   67.0559  227.3393 H   0  0  0  0  0  0  0  0  0  0  0  0
  141.5556   70.7940  229.0518 H   0  0  0  0  0  0  0  0  0  0  0  0
  140.6249   71.9563  227.0687 H   0  0  0  0  0  0  0  0  0  0  0  0
  1  2  1  0
  2  3  1  0
  3  4  1  0
  4  5  1  0
  5  6  1  0
  6  7  2  0
  6  8  1  0
  8  9  2  0
  9 10  1  0
 10 11  2  0
 11 12  1  0
 12 13  2  0
 13 14  1  0
 13 15  1  0
 15 16  2  0
 16 17  1  0
 17 18  2  0
 18  8  1  0
 17 11  1  0
  1 19  1  0
  1 20  1  0
  1 21  1  0
  3 22  1  0
  3 23  1  0
  4 24  1  0
  4 25  1  0
  5 26  1  0
  9 27  1  0
 10 28  1  0
 12 29  1  0
 15 30  1  0
 16 31  1  0
M  END
>  <smiles>  (3) 
COCCNC(=O)c1ccc2cc(F)ccc2n1

>  <score_type>  (3) 
oracle

>  <origin>  (3) 
autodockgpu

>  <m_score__min__energy>  (3) 
-5.71

>  <m_primary>  (3) 
energy

>  <rmsd>  (3) 
1.073880935138443

>  <m_score__min__rmsd>  (3) 
1.073880935138443

>  <meeko>  (3) 
{"free_energy": -5.51, "intermolecular_energy": -6.7, "internal_energy": -1.46, "cluster_size": 50, "cluster_id": 1, "rank_in_cluster": 5}

>  <energy>  (3) 
-5.69

>  <cluster_rmsd>  (3) 
0.27

>  <cluster>  (3) 
1

$$$$

     RDKit          3D

 31 32  0  0  0  0  0  0  0  0999 V2000
  141.0310   75.3480  221.6060 C   0  0  0  0  0  0  0  0  0  0  0  0
  139.9700   74.7000  222.2560 O   0  0  0  0  0  0  0  0  0  0  0  0
  138.8050   74.8030  221.5110 C   0  0  0  0  0  0  0  0  0  0  0  0
  138.1970   73.4170  221.3850 C   0  0  0  0  0  0  0  0  0  0  0  0
  138.6630   72.6040  222.4840 N   0  0  0  0  0  0  0  0  0  0  0  0
  138.3400   71.2340  222.6360 C   0  0  0  0  0  0  0  0  0  0  0  0
  137.6090   70.6360  221.7940 O   0  0  0  0  0  0  0  0  0  0  0  0
  138.8570   70.4800  223.7850 C   0  0  0  0  0  0  0  0  0  0  0  0
  138.7350   69.1160  223.8380 C   0  0  0  0  0  0  0  0  0  0  0  0
  139.2110   68.3810  224.9060 C   0  0  0  0  0  0  0  0  0  0  0  0
  139.8210   69.0640  225.9360 C   0  0  0  0  0  0  0  0  0  0  0  0
  140.3350   68.4370  227.0520 C   0  0  0  0  0  0  0  0  0  0  0  0
  140.9460   69.1070  228.0860 C   0  0  0  0  0  0  0  0  0  0  0  0
  141.4300   68.4260  229.1580 F   0  0  0  0  0  0  0  0  0  0  0  0
  141.0690   70.4870  228.0350 C   0  0  0  0  0  0  0  0  0  0  0  0
  140.5670   71.1410  226.9330 C   0  0  0  0  0  0  0  0  0  0  0  0
  139.9540   70.4530  225.9010 C   0  0  0  0  0  0  0  0  0  0  0  0
  139.4630   71.0840  224.8260 N   0  0  0  0  0  0  0  0  0  0  0  0
  141.7184   75.7678  222.3552 H   0  0  0  0  0  0  0  0  0  0  0  0
  141.5714   74.6256  220.9766 H   0  0  0  0  0  0  0  0  0  0  0  0
  140.6351   76.1586  220.9766 H   0  0  0  0  0  0  0  0  0  0  0  0
  138.0972   75.4752  222.0181 H   0  0  0  0  0  0  0  0  0  0  0  0
  139.0268   75.2122  220.5143 H   0  0  0  0  0  0  0  0  0  0  0  0
  137.0999   73.4899  221.4180 H   0  0  0  0  0  0  0  0  0  0  0  0
  138.4970   72.9621  220.4294 H   0  0  0  0  0  0  0  0  0  0  0  0
  139.2840   73.0240  223.2400 H   0  0  0  0  0  0  0  0  0  0  0  0
  138.2436   68.5912  223.0055 H   0  0  0  0  0  0  0  0  0  0  0  0
  139.1067   67.2863  224.9337 H   0  0  0  0  0  0  0  0  0  0  0  0
  140.2517   67.3422  227.1185 H   0  0  0  0  0  0  0  0  0  0  0  0
  141.5535   71.0428  228.8513 H   0  0  0  0  0  0  0  0  0  0  0  0
  140.6552   72.2357  226.8713 H   0  0  0  0  0  0  0  0  0  0  0  0
  1  2  1  0
  2  3  1  0
  3  4  1  0
  4  5  1  0
  5  6  1  0
  6  7  2  0
  6  8  1  0
  8  9  2  0
  9 10  1  0
 10 11  2  0
 11 12  1  0
 12 13  2  0
 13 14  1  0
 13 15  1  0
 15 16  2  0
 16 17  1  0
 17 18  2  0
 18  8  1  0
 17 11  1  0
  1 19  1  0
  1 20  1  0
  1 21  1  0
  3 22  1  0
  3 23  1  0
  4 24  1  0
  4 25  1  0
  5 26  1  0
  9 27  1  0
 10 28  1  0
 12 29  1  0
 15 30  1  0
 16 31  1  0
M  END
>  <smiles>  (4) 
COCCNC(=O)c1ccc2cc(F)ccc2n1

>  <score_type>  (4) 
oracle

>  <origin>  (4) 
autodockgpu

>  <m_score__min__energy>  (4) 
-5.71

>  <m_primary>  (4) 
energy

>  <rmsd>  (4) 
0.8533706893411714

>  <m_score__min__rmsd>  (4) 
0.8533706893411714

>  <meeko>  (4) 
{"free_energy": -5.43, "intermolecular_energy": -6.63, "internal_energy": -1.48, "cluster_size": 50, "cluster_id": 1, "rank_in_cluster": 42}

>  <energy>  (4) 
-5.51

>  <cluster_rmsd>  (4) 
1.25

>  <cluster>  (4) 
1

$$$$

     RDKit          3D

 31 32  0  0  0  0  0  0  0  0999 V2000
  140.7300   76.0290  221.9710 C   0  0  0  0  0  0  0  0  0  0  0  0
  139.9390   74.9140  222.2890 O   0  0  0  0  0  0  0  0  0  0  0  0
  138.7730   74.9130  221.5380 C   0  0  0  0  0  0  0  0  0  0  0  0
  138.3960   73.4710  221.2480 C   0  0  0  0  0  0  0  0  0  0  0  0
  138.7920   72.6530  222.3710 N   0  0  0  0  0  0  0  0  0  0  0  0
  138.5850   71.2530  222.4310 C   0  0  0  0  0  0  0  0  0  0  0  0
  138.0280   70.6320  221.4800 O   0  0  0  0  0  0  0  0  0  0  0  0
  139.0190   70.4970  223.6120 C   0  0  0  0  0  0  0  0  0  0  0  0
  138.8250   69.1420  223.6850 C   0  0  0  0  0  0  0  0  0  0  0  0
  139.2230   68.4040  224.7820 C   0  0  0  0  0  0  0  0  0  0  0  0
  139.8300   69.0760  225.8220 C   0  0  0  0  0  0  0  0  0  0  0  0
  140.2690   68.4450  226.9680 C   0  0  0  0  0  0  0  0  0  0  0  0
  140.8760   69.1030  228.0120 C   0  0  0  0  0  0  0  0  0  0  0  0
  141.2850   68.4180  229.1130 F   0  0  0  0  0  0  0  0  0  0  0  0
  141.0730   70.4730  227.9410 C   0  0  0  0  0  0  0  0  0  0  0  0
  140.6470   71.1300  226.8100 C   0  0  0  0  0  0  0  0  0  0  0  0
  140.0370   70.4540  225.7670 C   0  0  0  0  0  0  0  0  0  0  0  0
  139.6180   71.0890  224.6640 N   0  0  0  0  0  0  0  0  0  0  0  0
  141.0726   76.5119  222.8980 H   0  0  0  0  0  0  0  0  0  0  0  0
  141.6012   75.7048  221.3829 H   0  0  0  0  0  0  0  0  0  0  0  0
  140.1361   76.7441  221.3829 H   0  0  0  0  0  0  0  0  0  0  0  0
  137.9659   75.4024  222.1029 H   0  0  0  0  0  0  0  0  0  0  0  0
  138.9268   75.4618  220.5972 H   0  0  0  0  0  0  0  0  0  0  0  0
  137.3086   73.3954  221.1004 H   0  0  0  0  0  0  0  0  0  0  0  0
  138.9057   73.1269  220.3360 H   0  0  0  0  0  0  0  0  0  0  0  0
  139.2680   73.0910  223.2160 H   0  0  0  0  0  0  0  0  0  0  0  0
  138.3375   68.6270  222.8441 H   0  0  0  0  0  0  0  0  0  0  0  0
  139.0614   67.3168  224.8249 H   0  0  0  0  0  0  0  0  0  0  0  0
  140.1258   67.3575  227.0509 H   0  0  0  0  0  0  0  0  0  0  0  0
  141.5558   71.0190  228.7649 H   0  0  0  0  0  0  0  0  0  0  0  0
  140.7944   72.2173  226.7325 H   0  0  0  0  0  0  0  0  0  0  0  0
  1  2  1  0
  2  3  1  0
  3  4  1  0
  4  5  1  0
  5  6  1  0
  6  7  2  0
  6  8  1  0
  8  9  2  0
  9 10  1  0
 10 11  2  0
 11 12  1  0
 12 13  2  0
 13 14  1  0
 13 15  1  0
 15 16  2  0
 16 17  1  0
 17 18  2  0
 18  8  1  0
 17 11  1  0
  1 19  1  0
  1 20  1  0
  1 21  1  0
  3 22  1  0
  3 23  1  0
  4 24  1  0
  4 25  1  0
  5 26  1  0
  9 27  1  0
 10 28  1  0
 12 29  1  0
 15 30  1  0
 16 31  1  0
M  END
>  <smiles>  (5) 
COCCNC(=O)c1ccc2cc(F)ccc2n1

>  <score_type>  (5) 
oracle

>  <origin>  (5) 
autodockgpu

>  <m_score__min__energy>  (5) 
-5.71

>  <m_primary>  (5) 
energy

>  <rmsd>  (5) 
0.7229153551025707

>  <m_score__min__rmsd>  (5) 
0.7229153551025707

>  <meeko>  (5) 
{"free_energy": -5.46, "intermolecular_energy": -6.66, "internal_energy": -1.46, "cluster_size": 50, "cluster_id": 1, "rank_in_cluster": 19}

>  <energy>  (5) 
-5.51

>  <cluster_rmsd>  (5) 
1.29

>  <cluster>  (5) 
1

$$$$

     RDKit          3D

 31 32  0  0  0  0  0  0  0  0999 V2000
  141.3430   73.3820  221.2320 C   0  0  0  0  0  0  0  0  0  0  0  0
  140.3320   73.8960  222.0600 O   0  0  0  0  0  0  0  0  0  0  0  0
  139.1920   74.1760  221.3220 C   0  0  0  0  0  0  0  0  0  0  0  0
  138.1700   73.0870  221.5930 C   0  0  0  0  0  0  0  0  0  0  0  0
  138.6340   72.2810  222.6990 N   0  0  0  0  0  0  0  0  0  0  0  0
  138.3900   70.8900  222.8100 C   0  0  0  0  0  0  0  0  0  0  0  0
  137.7380   70.2670  221.9240 O   0  0  0  0  0  0  0  0  0  0  0  0
  138.8990   70.1460  223.9690 C   0  0  0  0  0  0  0  0  0  0  0  0
  138.7780   68.7820  224.0320 C   0  0  0  0  0  0  0  0  0  0  0  0
  139.2470   68.0560  225.1080 C   0  0  0  0  0  0  0  0  0  0  0  0
  139.8480   68.7480  226.1380 C   0  0  0  0  0  0  0  0  0  0  0  0
  140.3530   68.1300  227.2630 C   0  0  0  0  0  0  0  0  0  0  0  0
  140.9560   68.8080  228.2970 C   0  0  0  0  0  0  0  0  0  0  0  0
  141.4320   68.1360  229.3770 F   0  0  0  0  0  0  0  0  0  0  0  0
  141.0780   70.1880  228.2360 C   0  0  0  0  0  0  0  0  0  0  0  0
  140.5840   70.8330  227.1260 C   0  0  0  0  0  0  0  0  0  0  0  0
  139.9800   70.1360  226.0930 C   0  0  0  0  0  0  0  0  0  0  0  0
  139.4970   70.7580  225.0100 N   0  0  0  0  0  0  0  0  0  0  0  0
  142.1521   72.9707  221.8534 H   0  0  0  0  0  0  0  0  0  0  0  0
  140.9274   72.5857  220.5970 H   0  0  0  0  0  0  0  0  0  0  0  0
  141.7415   74.1870  220.5970 H   0  0  0  0  0  0  0  0  0  0  0  0
  138.7842   75.1522  221.6233 H   0  0  0  0  0  0  0  0  0  0  0  0
  139.4337   74.2108  220.2494 H   0  0  0  0  0  0  0  0  0  0  0  0
  137.2019   73.5430  221.8478 H   0  0  0  0  0  0  0  0  0  0  0  0
  138.0450   72.4593  220.6984 H   0  0  0  0  0  0  0  0  0  0  0  0
  139.1920   72.7220  223.4910 H   0  0  0  0  0  0  0  0  0  0  0  0
  138.2927   68.2503  223.2003 H   0  0  0  0  0  0  0  0  0  0  0  0
  139.1447   66.9613  225.1427 H   0  0  0  0  0  0  0  0  0  0  0  0
  140.2690   67.0357  227.3374 H   0  0  0  0  0  0  0  0  0  0  0  0
  141.5559   70.7505  229.0515 H   0  0  0  0  0  0  0  0  0  0  0  0
  140.6707   71.9274  227.0573 H   0  0  0  0  0  0  0  0  0  0  0  0
  1  2  1  0
  2  3  1  0
  3  4  1  0
  4  5  1  0
  5  6  1  0
  6  7  2  0
  6  8  1  0
  8  9  2  0
  9 10  1  0
 10 11  2  0
 11 12  1  0
 12 13  2  0
 13 14  1  0
 13 15  1  0
 15 16  2  0
 16 17  1  0
 17 18  2  0
 18  8  1  0
 17 11  1  0
  1 19  1  0
  1 20  1  0
  1 21  1  0
  3 22  1  0
  3 23  1  0
  4 24  1  0
  4 25  1  0
  5 26  1  0
  9 27  1  0
 10 28  1  0
 12 29  1  0
 15 30  1  0
 16 31  1  0
M  END
>  <smiles>  (6) 
COCCNC(=O)c1ccc2cc(F)ccc2n1

>  <score_type>  (6) 
oracle

>  <origin>  (6) 
autodockgpu

>  <m_score__min__energy>  (6) 
-5.71

>  <m_primary>  (6) 
energy

>  <rmsd>  (6) 
1.044947531115598

>  <m_score__min__rmsd>  (6) 
1.044947531115598

>  <meeko>  (6) 
{"free_energy": -5.44, "intermolecular_energy": -6.63, "internal_energy": -1.53, "cluster_size": 50, "cluster_id": 1, "rank_in_cluster": 38}

>  <energy>  (6) 
-5.51

>  <cluster_rmsd>  (6) 
1.29

>  <cluster>  (6) 
1

$$$$

     RDKit          3D

 31 32  0  0  0  0  0  0  0  0999 V2000
  141.1110   75.1580  221.5460 C   0  0  0  0  0  0  0  0  0  0  0  0
  140.0020   74.5840  222.1870 O   0  0  0  0  0  0  0  0  0  0  0  0
  138.8610   74.7270  221.4110 C   0  0  0  0  0  0  0  0  0  0  0  0
  138.1460   73.3890  221.3650 C   0  0  0  0  0  0  0  0  0  0  0  0
  138.6130   72.5750  222.4640 N   0  0  0  0  0  0  0  0  0  0  0  0
  138.3650   71.1850  222.5690 C   0  0  0  0  0  0  0  0  0  0  0  0
  137.7050   70.5690  221.6830 O   0  0  0  0  0  0  0  0  0  0  0  0
  138.8780   70.4320  223.7210 C   0  0  0  0  0  0  0  0  0  0  0  0
  138.7490   69.0690  223.7770 C   0  0  0  0  0  0  0  0  0  0  0  0
  139.2220   68.3350  224.8470 C   0  0  0  0  0  0  0  0  0  0  0  0
  139.8340   69.0180  225.8760 C   0  0  0  0  0  0  0  0  0  0  0  0
  140.3440   68.3920  226.9940 C   0  0  0  0  0  0  0  0  0  0  0  0
  140.9580   69.0620  228.0270 C   0  0  0  0  0  0  0  0  0  0  0  0
  141.4380   68.3810  229.1000 F   0  0  0  0  0  0  0  0  0  0  0  0
  141.0880   70.4400  227.9710 C   0  0  0  0  0  0  0  0  0  0  0  0
  140.5900   71.0940  226.8680 C   0  0  0  0  0  0  0  0  0  0  0  0
  139.9740   70.4060  225.8370 C   0  0  0  0  0  0  0  0  0  0  0  0
  139.4870   71.0360  224.7600 N   0  0  0  0  0  0  0  0  0  0  0  0
  141.8213   75.5256  222.3012 H   0  0  0  0  0  0  0  0  0  0  0  0
  141.6032   74.4015  220.9172 H   0  0  0  0  0  0  0  0  0  0  0  0
  140.7775   75.9967  220.9172 H   0  0  0  0  0  0  0  0  0  0  0  0
  138.2012   75.4864  221.8560 H   0  0  0  0  0  0  0  0  0  0  0  0
  139.1316   75.0476  220.3941 H   0  0  0  0  0  0  0  0  0  0  0  0
  137.0610   73.5460  221.4558 H   0  0  0  0  0  0  0  0  0  0  0  0
  138.3560   72.8849  220.4101 H   0  0  0  0  0  0  0  0  0  0  0  0
  139.1770   73.0100  223.2550 H   0  0  0  0  0  0  0  0  0  0  0  0
  138.2546   68.5445  222.9461 H   0  0  0  0  0  0  0  0  0  0  0  0
  139.1138   67.2407  224.8771 H   0  0  0  0  0  0  0  0  0  0  0  0
  140.2551   67.2978  227.0636 H   0  0  0  0  0  0  0  0  0  0  0  0
  141.5757   70.9956  228.7855 H   0  0  0  0  0  0  0  0  0  0  0  0
  140.6834   72.1882  226.8039 H   0  0  0  0  0  0  0  0  0  0  0  0
  1  2  1  0
  2  3  1  0
  3  4  1  0
  4  5  1  0
  5  6  1  0
  6  7  2  0
  6  8  1  0
  8  9  2  0
  9 10  1  0
 10 11  2  0
 11 12  1  0
 12 13  2  0
 13 14  1  0
 13 15  1  0
 15 16  2  0
 16 17  1  0
 17 18  2  0
 18  8  1  0
 17 11  1  0
  1 19  1  0
  1 20  1  0
  1 21  1  0
  3 22  1  0
  3 23  1  0
  4 24  1  0
  4 25  1  0
  5 26  1  0
  9 27  1  0
 10 28  1  0
 12 29  1  0
 15 30  1  0
 16 31  1  0
M  END
>  <smiles>  (7) 
COCCNC(=O)c1ccc2cc(F)ccc2n1

>  <score_type>  (7) 
oracle

>  <origin>  (7) 
autodockgpu

>  <m_score__min__energy>  (7) 
-5.71

>  <m_primary>  (7) 
energy

>  <rmsd>  (7) 
0.8217488216991063

>  <m_score__min__rmsd>  (7) 
0.8217488216991063

>  <meeko>  (7) 
{"free_energy": -5.44, "intermolecular_energy": -6.63, "internal_energy": -1.5, "cluster_size": 50, "cluster_id": 1, "rank_in_cluster": 37}

>  <energy>  (7) 
-5.51

>  <cluster_rmsd>  (7) 
1.27

>  <cluster>  (7) 
1

$$$$

     RDKit          3D

 31 32  0  0  0  0  0  0  0  0999 V2000
  141.3510   73.3400  221.2780 C   0  0  0  0  0  0  0  0  0  0  0  0
  140.3220   73.8840  222.0620 O   0  0  0  0  0  0  0  0  0  0  0  0
  139.2030   74.1470  221.2860 C   0  0  0  0  0  0  0  0  0  0  0  0
  138.1460   73.1070  221.6090 C   0  0  0  0  0  0  0  0  0  0  0  0
  138.6110   72.2980  222.7120 N   0  0  0  0  0  0  0  0  0  0  0  0
  138.3630   70.9080  222.8230 C   0  0  0  0  0  0  0  0  0  0  0  0
  137.7030   70.2890  221.9400 O   0  0  0  0  0  0  0  0  0  0  0  0
  138.8750   70.1610  223.9790 C   0  0  0  0  0  0  0  0  0  0  0  0
  138.7510   68.7970  224.0390 C   0  0  0  0  0  0  0  0  0  0  0  0
  139.2220   68.0680  225.1130 C   0  0  0  0  0  0  0  0  0  0  0  0
  139.8300   68.7570  226.1410 C   0  0  0  0  0  0  0  0  0  0  0  0
  140.3390   68.1360  227.2630 C   0  0  0  0  0  0  0  0  0  0  0  0
  140.9470   68.8110  228.2950 C   0  0  0  0  0  0  0  0  0  0  0  0
  141.4260   68.1350  229.3720 F   0  0  0  0  0  0  0  0  0  0  0  0
  141.0730   70.1900  228.2360 C   0  0  0  0  0  0  0  0  0  0  0  0
  140.5760   70.8380  227.1290 C   0  0  0  0  0  0  0  0  0  0  0  0
  139.9650   70.1450  226.0980 C   0  0  0  0  0  0  0  0  0  0  0  0
  139.4790   70.7700  225.0180 N   0  0  0  0  0  0  0  0  0  0  0  0
  142.1321   72.9271  221.9333 H   0  0  0  0  0  0  0  0  0  0  0  0
  140.9440   72.5392  220.6431 H   0  0  0  0  0  0  0  0  0  0  0  0
  141.7835   74.1273  220.6431 H   0  0  0  0  0  0  0  0  0  0  0  0
  138.8188   75.1519  221.5153 H   0  0  0  0  0  0  0  0  0  0  0  0
  139.4632   74.1049  220.2180 H   0  0  0  0  0  0  0  0  0  0  0  0
  137.2073   73.6081  221.8879 H   0  0  0  0  0  0  0  0  0  0  0  0
  137.9655   72.4717  220.7294 H   0  0  0  0  0  0  0  0  0  0  0  0
  139.1750   72.7360  223.5010 H   0  0  0  0  0  0  0  0  0  0  0  0
  138.2622   68.2680  223.2076 H   0  0  0  0  0  0  0  0  0  0  0  0
  139.1157   66.9737  225.1473 H   0  0  0  0  0  0  0  0  0  0  0  0
  140.2538   67.0417  227.3358 H   0  0  0  0  0  0  0  0  0  0  0  0
  141.5562   70.7498  229.0504 H   0  0  0  0  0  0  0  0  0  0  0  0
  140.6662   71.9322  227.0614 H   0  0  0  0  0  0  0  0  0  0  0  0
  1  2  1  0
  2  3  1  0
  3  4  1  0
  4  5  1  0
  5  6  1  0
  6  7  2  0
  6  8  1  0
  8  9  2  0
  9 10  1  0
 10 11  2  0
 11 12  1  0
 12 13  2  0
 13 14  1  0
 13 15  1  0
 15 16  2  0
 16 17  1  0
 17 18  2  0
 18  8  1  0
 17 11  1  0
  1 19  1  0
  1 20  1  0
  1 21  1  0
  3 22  1  0
  3 23  1  0
  4 24  1  0
  4 25  1  0
  5 26  1  0
  9 27  1  0
 10 28  1  0
 12 29  1  0
 15 30  1  0
 16 31  1  0
M  END
>  <smiles>  (8) 
COCCNC(=O)c1ccc2cc(F)ccc2n1

>  <score_type>  (8) 
oracle

>  <origin>  (8) 
autodockgpu

>  <m_score__min__energy>  (8) 
-5.71

>  <m_primary>  (8) 
energy

>  <rmsd>  (8) 
1.0472336267475968

>  <m_score__min__rmsd>  (8) 
1.0472336267475968

>  <meeko>  (8) 
{"free_energy": -5.42, "intermolecular_energy": -6.62, "internal_energy": -1.53, "cluster_size": 50, "cluster_id": 1, "rank_in_cluster": 46}

>  <energy>  (8) 
-5.5

>  <cluster_rmsd>  (8) 
1.25

>  <cluster>  (8) 
1

$$$$

     RDKit          3D

 31 32  0  0  0  0  0  0  0  0999 V2000
  140.7080   75.9590  221.9420 C   0  0  0  0  0  0  0  0  0  0  0  0
  140.1560   74.6700  222.0000 O   0  0  0  0  0  0  0  0  0  0  0  0
  139.4180   74.4030  220.8560 C   0  0  0  0  0  0  0  0  0  0  0  0
  138.3040   73.4410  221.2220 C   0  0  0  0  0  0  0  0  0  0  0  0
  138.7340   72.6360  222.3430 N   0  0  0  0  0  0  0  0  0  0  0  0
  138.4840   71.2460  222.4500 C   0  0  0  0  0  0  0  0  0  0  0  0
  137.8550   70.6230  221.5480 O   0  0  0  0  0  0  0  0  0  0  0  0
  138.9590   70.5040  223.6250 C   0  0  0  0  0  0  0  0  0  0  0  0
  138.8030   69.1440  223.7010 C   0  0  0  0  0  0  0  0  0  0  0  0
  139.2400   68.4190  224.7930 C   0  0  0  0  0  0  0  0  0  0  0  0
  139.8450   69.1080  225.8220 C   0  0  0  0  0  0  0  0  0  0  0  0
  140.3210   68.4920  226.9610 C   0  0  0  0  0  0  0  0  0  0  0  0
  140.9270   69.1670  227.9940 C   0  0  0  0  0  0  0  0  0  0  0  0
  141.3720   68.4960  229.0880 F   0  0  0  0  0  0  0  0  0  0  0  0
  141.0850   70.5420  227.9180 C   0  0  0  0  0  0  0  0  0  0  0  0
  140.6220   71.1860  226.7940 C   0  0  0  0  0  0  0  0  0  0  0  0
  140.0130   70.4920  225.7620 C   0  0  0  0  0  0  0  0  0  0  0  0
  139.5590   71.1130  224.6660 N   0  0  0  0  0  0  0  0  0  0  0  0
  140.8691   76.3352  222.9631 H   0  0  0  0  0  0  0  0  0  0  0  0
  141.6694   75.9225  221.4087 H   0  0  0  0  0  0  0  0  0  0  0  0
  140.0181   76.6296  221.4087 H   0  0  0  0  0  0  0  0  0  0  0  0
  138.9891   75.3369  220.4636 H   0  0  0  0  0  0  0  0  0  0  0  0
  140.0633   73.9595  220.0835 H   0  0  0  0  0  0  0  0  0  0  0  0
  137.4021   74.0072  221.4977 H   0  0  0  0  0  0  0  0  0  0  0  0
  138.0721   72.7934  220.3636 H   0  0  0  0  0  0  0  0  0  0  0  0
  139.2720   73.0780  223.1480 H   0  0  0  0  0  0  0  0  0  0  0  0
  138.3159   68.6148  222.8687 H   0  0  0  0  0  0  0  0  0  0  0  0
  139.1094   67.3278  224.8396 H   0  0  0  0  0  0  0  0  0  0  0  0
  140.2095   67.4011  227.0473 H   0  0  0  0  0  0  0  0  0  0  0  0
  141.5668   71.1021  228.7330 H   0  0  0  0  0  0  0  0  0  0  0  0
  140.7381   72.2769  226.7132 H   0  0  0  0  0  0  0  0  0  0  0  0
  1  2  1  0
  2  3  1  0
  3  4  1  0
  4  5  1  0
  5  6  1  0
  6  7  2  0
  6  8  1  0
  8  9  2  0
  9 10  1  0
 10 11  2  0
 11 12  1  0
 12 13  2  0
 13 14  1  0
 13 15  1  0
 15 16  2  0
 16 17  1  0
 17 18  2  0
 18  8  1  0
 17 11  1  0
  1 19  1  0
  1 20  1  0
  1 21  1  0
  3 22  1  0
  3 23  1  0
  4 24  1  0
  4 25  1  0
  5 26  1  0
  9 27  1  0
 10 28  1  0
 12 29  1  0
 15 30  1  0
 16 31  1  0
M  END
>  <smiles>  (9) 
COCCNC(=O)c1ccc2cc(F)ccc2n1

>  <score_type>  (9) 
oracle

>  <origin>  (9) 
autodockgpu

>  <m_score__min__energy>  (9) 
-5.71

>  <m_primary>  (9) 
energy

>  <rmsd>  (9) 
0.7424174641377299

>  <m_score__min__rmsd>  (9) 
0.7424174641377299

>  <meeko>  (9) 
{"free_energy": -5.44, "intermolecular_energy": -6.63, "internal_energy": -1.47, "cluster_size": 50, "cluster_id": 1, "rank_in_cluster": 39}

>  <energy>  (9) 
-5.5

>  <cluster_rmsd>  (9) 
1.3

>  <cluster>  (9) 
1

$$$$

     RDKit          3D

 31 32  0  0  0  0  0  0  0  0999 V2000
  141.3570   73.1740  221.2800 C   0  0  0  0  0  0  0  0  0  0  0  0
  140.3320   73.7970  222.0090 O   0  0  0  0  0  0  0  0  0  0  0  0
  139.2300   74.0310  221.2000 C   0  0  0  0  0  0  0  0  0  0  0  0
  138.1250   73.0770  221.6150 C   0  0  0  0  0  0  0  0  0  0  0  0
  138.5980   72.2680  222.7140 N   0  0  0  0  0  0  0  0  0  0  0  0
  138.3350   70.8810  222.8350 C   0  0  0  0  0  0  0  0  0  0  0  0
  137.6540   70.2650  221.9650 O   0  0  0  0  0  0  0  0  0  0  0  0
  138.8550   70.1330  223.9860 C   0  0  0  0  0  0  0  0  0  0  0  0
  138.7350   68.7680  224.0450 C   0  0  0  0  0  0  0  0  0  0  0  0
  139.2150   68.0390  225.1140 C   0  0  0  0  0  0  0  0  0  0  0  0
  139.8270   68.7270  226.1400 C   0  0  0  0  0  0  0  0  0  0  0  0
  140.3450   68.1050  227.2570 C   0  0  0  0  0  0  0  0  0  0  0  0
  140.9580   68.7800  228.2870 C   0  0  0  0  0  0  0  0  0  0  0  0
  141.4450   68.1030  229.3600 F   0  0  0  0  0  0  0  0  0  0  0  0
  141.0800   70.1590  228.2290 C   0  0  0  0  0  0  0  0  0  0  0  0
  140.5740   70.8080  227.1270 C   0  0  0  0  0  0  0  0  0  0  0  0
  139.9590   70.1150  226.0990 C   0  0  0  0  0  0  0  0  0  0  0  0
  139.4640   70.7410  225.0230 N   0  0  0  0  0  0  0  0  0  0  0  0
  142.0850   72.7315  221.9758 H   0  0  0  0  0  0  0  0  0  0  0  0
  140.9281   72.3836  220.6464 H   0  0  0  0  0  0  0  0  0  0  0  0
  141.8611   73.9186  220.6464 H   0  0  0  0  0  0  0  0  0  0  0  0
  138.8909   75.0700  221.3243 H   0  0  0  0  0  0  0  0  0  0  0  0
  139.4933   73.8706  220.1441 H   0  0  0  0  0  0  0  0  0  0  0  0
  137.2410   73.6501  221.9313 H   0  0  0  0  0  0  0  0  0  0  0  0
  137.8495   72.4323  220.7674 H   0  0  0  0  0  0  0  0  0  0  0  0
  139.1790   72.7020  223.4920 H   0  0  0  0  0  0  0  0  0  0  0  0
  138.2419   68.2389  223.2162 H   0  0  0  0  0  0  0  0  0  0  0  0
  139.1126   66.9443  225.1464 H   0  0  0  0  0  0  0  0  0  0  0  0
  140.2635   67.0103  227.3279 H   0  0  0  0  0  0  0  0  0  0  0  0
  141.5675   70.7186  229.0409 H   0  0  0  0  0  0  0  0  0  0  0  0
  140.6601   71.9027  227.0612 H   0  0  0  0  0  0  0  0  0  0  0  0
  1  2  1  0
  2  3  1  0
  3  4  1  0
  4  5  1  0
  5  6  1  0
  6  7  2  0
  6  8  1  0
  8  9  2  0
  9 10  1  0
 10 11  2  0
 11 12  1  0
 12 13  2  0
 13 14  1  0
 13 15  1  0
 15 16  2  0
 16 17  1  0
 17 18  2  0
 18  8  1  0
 17 11  1  0
  1 19  1  0
  1 20  1  0
  1 21  1  0
  3 22  1  0
  3 23  1  0
  4 24  1  0
  4 25  1  0
  5 26  1  0
  9 27  1  0
 10 28  1  0
 12 29  1  0
 15 30  1  0
 16 31  1  0
M  END
>  <smiles>  (10) 
COCCNC(=O)c1ccc2cc(F)ccc2n1

>  <score_type>  (10) 
oracle

>  <origin>  (10) 
autodockgpu

>  <m_score__min__energy>  (10) 
-5.71

>  <m_primary>  (10) 
energy

>  <rmsd>  (10) 
1.0688305442850323

>  <m_score__min__rmsd>  (10) 
1.0688305442850323

>  <meeko>  (10) 
{"free_energy": -5.41, "intermolecular_energy": -6.6, "internal_energy": -1.54, "cluster_size": 50, "cluster_id": 1, "rank_in_cluster": 49}

>  <energy>  (10) 
-5.48

>  <cluster_rmsd>  (10) 
1.28

>  <cluster>  (10) 
1

$$$$

     RDKit          3D

 31 32  0  0  0  0  0  0  0  0999 V2000
  141.0660   75.3140  221.5820 C   0  0  0  0  0  0  0  0  0  0  0  0
  139.9520   74.8770  222.3170 O   0  0  0  0  0  0  0  0  0  0  0  0
  138.8100   74.9010  221.5320 C   0  0  0  0  0  0  0  0  0  0  0  0
  138.3970   73.4670  221.2500 C   0  0  0  0  0  0  0  0  0  0  0  0
  138.7780   72.6450  222.3760 N   0  0  0  0  0  0  0  0  0  0  0  0
  138.6210   71.2380  222.4060 C   0  0  0  0  0  0  0  0  0  0  0  0
  138.1270   70.6130  221.4230 O   0  0  0  0  0  0  0  0  0  0  0  0
  139.0350   70.4780  223.5920 C   0  0  0  0  0  0  0  0  0  0  0  0
  138.8190   69.1260  223.6670 C   0  0  0  0  0  0  0  0  0  0  0  0
  139.1980   68.3860  224.7690 C   0  0  0  0  0  0  0  0  0  0  0  0
  139.8080   69.0500  225.8110 C   0  0  0  0  0  0  0  0  0  0  0  0
  140.2290   68.4160  226.9620 C   0  0  0  0  0  0  0  0  0  0  0  0
  140.8390   69.0670  228.0090 C   0  0  0  0  0  0  0  0  0  0  0  0
  141.2280   68.3790  229.1140 F   0  0  0  0  0  0  0  0  0  0  0  0
  141.0580   70.4330  227.9350 C   0  0  0  0  0  0  0  0  0  0  0  0
  140.6490   71.0940  226.8000 C   0  0  0  0  0  0  0  0  0  0  0  0
  140.0360   70.4250  225.7540 C   0  0  0  0  0  0  0  0  0  0  0  0
  139.6360   71.0630  224.6470 N   0  0  0  0  0  0  0  0  0  0  0  0
  141.8621   75.6263  222.2738 H   0  0  0  0  0  0  0  0  0  0  0  0
  141.4322   74.4929  220.9482 H   0  0  0  0  0  0  0  0  0  0  0  0
  140.7762   76.1651  220.9482 H   0  0  0  0  0  0  0  0  0  0  0  0
  138.0022   75.4229  222.0659 H   0  0  0  0  0  0  0  0  0  0  0  0
  139.0086   75.4314  220.5890 H   0  0  0  0  0  0  0  0  0  0  0  0
  137.3075   73.4169  221.1070 H   0  0  0  0  0  0  0  0  0  0  0  0
  138.8943   73.1064  220.3375 H   0  0  0  0  0  0  0  0  0  0  0  0
  139.2020   73.0860  223.2470 H   0  0  0  0  0  0  0  0  0  0  0  0
  138.3293   68.6161  222.8243 H   0  0  0  0  0  0  0  0  0  0  0  0
  139.0189   67.3016  224.8138 H   0  0  0  0  0  0  0  0  0  0  0  0
  140.0681   67.3312  227.0469 H   0  0  0  0  0  0  0  0  0  0  0  0
  141.5449   70.9735  228.7601 H   0  0  0  0  0  0  0  0  0  0  0  0
  140.8127   72.1789  226.7216 H   0  0  0  0  0  0  0  0  0  0  0  0
  1  2  1  0
  2  3  1  0
  3  4  1  0
  4  5  1  0
  5  6  1  0
  6  7  2  0
  6  8  1  0
  8  9  2  0
  9 10  1  0
 10 11  2  0
 11 12  1  0
 12 13  2  0
 13 14  1  0
 13 15  1  0
 15 16  2  0
 16 17  1  0
 17 18  2  0
 18  8  1  0
 17 11  1  0
  1 19  1  0
  1 20  1  0
  1 21  1  0
  3 22  1  0
  3 23  1  0
  4 24  1  0
  4 25  1  0
  5 26  1  0
  9 27  1  0
 10 28  1  0
 12 29  1  0
 15 30  1  0
 16 31  1  0
M  END
>  <smiles>  (11) 
COCCNC(=O)c1ccc2cc(F)ccc2n1

>  <score_type>  (11) 
oracle

>  <origin>  (11) 
autodockgpu

>  <m_score__min__energy>  (11) 
-5.71

>  <m_primary>  (11) 
energy

>  <rmsd>  (11) 
0.7039587337620424

>  <m_score__min__rmsd>  (11) 
0.7039587337620424

>  <meeko>  (11) 
{"free_energy": -5.45, "intermolecular_energy": -6.65, "internal_energy": -1.48, "cluster_size": 50, "cluster_id": 1, "rank_in_cluster": 25}

>  <energy>  (11) 
-5.48

>  <cluster_rmsd>  (11) 
1.28

>  <cluster>  (11) 
1

$$$$

     RDKit          3D

 31 32  0  0  0  0  0  0  0  0999 V2000
  141.3040   73.8590  221.2200 C   0  0  0  0  0  0  0  0  0  0  0  0
  140.3250   74.1560  222.1810 O   0  0  0  0  0  0  0  0  0  0  0  0
  139.1070   74.4190  221.5720 C   0  0  0  0  0  0  0  0  0  0  0  0
  138.2680   73.1550  221.6210 C   0  0  0  0  0  0  0  0  0  0  0  0
  138.7270   72.3360  222.7190 N   0  0  0  0  0  0  0  0  0  0  0  0
  138.4010   70.9650  222.8630 C   0  0  0  0  0  0  0  0  0  0  0  0
  137.6730   70.3730  222.0150 O   0  0  0  0  0  0  0  0  0  0  0  0
  138.9120   70.2050  224.0110 C   0  0  0  0  0  0  0  0  0  0  0  0
  138.7800   68.8420  224.0600 C   0  0  0  0  0  0  0  0  0  0  0  0
  139.2510   68.1010  225.1270 C   0  0  0  0  0  0  0  0  0  0  0  0
  139.8650   68.7780  226.1590 C   0  0  0  0  0  0  0  0  0  0  0  0
  140.3730   68.1450  227.2740 C   0  0  0  0  0  0  0  0  0  0  0  0
  140.9880   68.8070  228.3100 C   0  0  0  0  0  0  0  0  0  0  0  0
  141.4660   68.1200  229.3800 F   0  0  0  0  0  0  0  0  0  0  0  0
  141.1220   70.1860  228.2620 C   0  0  0  0  0  0  0  0  0  0  0  0
  140.6250   70.8470  227.1620 C   0  0  0  0  0  0  0  0  0  0  0  0
  140.0080   70.1650  226.1270 C   0  0  0  0  0  0  0  0  0  0  0  0
  139.5220   70.8020  225.0530 N   0  0  0  0  0  0  0  0  0  0  0  0
  142.2392   73.5753  221.7249 H   0  0  0  0  0  0  0  0  0  0  0  0
  140.9593   73.0250  220.5910 H   0  0  0  0  0  0  0  0  0  0  0  0
  141.4807   74.7439  220.5910 H   0  0  0  0  0  0  0  0  0  0  0  0
  138.5906   75.2294  222.1073 H   0  0  0  0  0  0  0  0  0  0  0  0
  139.2638   74.7301  220.5286 H   0  0  0  0  0  0  0  0  0  0  0  0
  137.2108   73.4183  221.7725 H   0  0  0  0  0  0  0  0  0  0  0  0
  138.3671   72.6028  220.6749 H   0  0  0  0  0  0  0  0  0  0  0  0
  139.3460   72.7510  223.4790 H   0  0  0  0  0  0  0  0  0  0  0  0
  138.2849   68.3229  223.2261 H   0  0  0  0  0  0  0  0  0  0  0  0
  139.1397   67.0069  225.1521 H   0  0  0  0  0  0  0  0  0  0  0  0
  140.2811   67.0507  227.3378 H   0  0  0  0  0  0  0  0  0  0  0  0
  141.6114   70.7359  229.0794 H   0  0  0  0  0  0  0  0  0  0  0  0
  140.7200   71.9413  227.1038 H   0  0  0  0  0  0  0  0  0  0  0  0
  1  2  1  0
  2  3  1  0
  3  4  1  0
  4  5  1  0
  5  6  1  0
  6  7  2  0
  6  8  1  0
  8  9  2  0
  9 10  1  0
 10 11  2  0
 11 12  1  0
 12 13  2  0
 13 14  1  0
 13 15  1  0
 15 16  2  0
 16 17  1  0
 17 18  2  0
 18  8  1  0
 17 11  1  0
  1 19  1  0
  1 20  1  0
  1 21  1  0
  3 22  1  0
  3 23  1  0
  4 24  1  0
  4 25  1  0
  5 26  1  0
  9 27  1  0
 10 28  1  0
 12 29  1  0
 15 30  1  0
 16 31  1  0
M  END
>  <smiles>  (12) 
COCCNC(=O)c1ccc2cc(F)ccc2n1

>  <score_type>  (12) 
oracle

>  <origin>  (12) 
autodockgpu

>  <m_score__min__energy>  (12) 
-5.71

>  <m_primary>  (12) 
energy

>  <rmsd>  (12) 
1.0520628746599978

>  <m_score__min__rmsd>  (12) 
1.0520628746599978

>  <meeko>  (12) 
{"free_energy": -5.48, "intermolecular_energy": -6.68, "internal_energy": -1.5, "cluster_size": 50, "cluster_id": 1, "rank_in_cluster": 10}

>  <energy>  (12) 
-5.48

>  <cluster_rmsd>  (12) 
1.28

>  <cluster>  (12) 
1

$$$$

     RDKit          3D

 31 32  0  0  0  0  0  0  0  0999 V2000
  140.6630   75.9830  221.9690 C   0  0  0  0  0  0  0  0  0  0  0  0
  140.2310   74.6480  221.9840 O   0  0  0  0  0  0  0  0  0  0  0  0
  139.4660   74.3690  220.8610 C   0  0  0  0  0  0  0  0  0  0  0  0
  138.3120   73.4760  221.2800 C   0  0  0  0  0  0  0  0  0  0  0  0
  138.7390   72.6590  222.3930 N   0  0  0  0  0  0  0  0  0  0  0  0
  138.4320   71.2820  222.5150 C   0  0  0  0  0  0  0  0  0  0  0  0
  137.7520   70.6820  221.6330 O   0  0  0  0  0  0  0  0  0  0  0  0
  138.9070   70.5240  223.6800 C   0  0  0  0  0  0  0  0  0  0  0  0
  138.7430   69.1650  223.7430 C   0  0  0  0  0  0  0  0  0  0  0  0
  139.1790   68.4260  224.8250 C   0  0  0  0  0  0  0  0  0  0  0  0
  139.7930   69.1010  225.8590 C   0  0  0  0  0  0  0  0  0  0  0  0
  140.2690   68.4700  226.9900 C   0  0  0  0  0  0  0  0  0  0  0  0
  140.8830   69.1310  228.0270 C   0  0  0  0  0  0  0  0  0  0  0  0
  141.3280   68.4460  229.1130 F   0  0  0  0  0  0  0  0  0  0  0  0
  141.0500   70.5060  227.9650 C   0  0  0  0  0  0  0  0  0  0  0  0
  140.5860   71.1640  226.8490 C   0  0  0  0  0  0  0  0  0  0  0  0
  139.9690   70.4840  225.8130 C   0  0  0  0  0  0  0  0  0  0  0  0
  139.5150   71.1190  224.7250 N   0  0  0  0  0  0  0  0  0  0  0  0
  140.7793   76.3424  223.0021 H   0  0  0  0  0  0  0  0  0  0  0  0
  141.6287   76.0501  221.4466 H   0  0  0  0  0  0  0  0  0  0  0  0
  139.9196   76.6031  221.4466 H   0  0  0  0  0  0  0  0  0  0  0  0
  139.0761   75.3051  220.4346 H   0  0  0  0  0  0  0  0  0  0  0  0
  140.0795   73.8636  220.1006 H   0  0  0  0  0  0  0  0  0  0  0  0
  137.4553   74.0959  221.5830 H   0  0  0  0  0  0  0  0  0  0  0  0
  138.0094   72.8350  220.4388 H   0  0  0  0  0  0  0  0  0  0  0  0
  139.3170   73.0800  223.1810 H   0  0  0  0  0  0  0  0  0  0  0  0
  138.2495   68.6475  222.9071 H   0  0  0  0  0  0  0  0  0  0  0  0
  139.0411   67.3353  224.8609 H   0  0  0  0  0  0  0  0  0  0  0  0
  140.1507   67.3790  227.0659 H   0  0  0  0  0  0  0  0  0  0  0  0
  141.5389   71.0546  228.7836 H   0  0  0  0  0  0  0  0  0  0  0  0
  140.7081   72.2549  226.7785 H   0  0  0  0  0  0  0  0  0  0  0  0
  1  2  1  0
  2  3  1  0
  3  4  1  0
  4  5  1  0
  5  6  1  0
  6  7  2  0
  6  8  1  0
  8  9  2  0
  9 10  1  0
 10 11  2  0
 11 12  1  0
 12 13  2  0
 13 14  1  0
 13 15  1  0
 15 16  2  0
 16 17  1  0
 17 18  2  0
 18  8  1  0
 17 11  1  0
  1 19  1  0
  1 20  1  0
  1 21  1  0
  3 22  1  0
  3 23  1  0
  4 24  1  0
  4 25  1  0
  5 26  1  0
  9 27  1  0
 10 28  1  0
 12 29  1  0
 15 30  1  0
 16 31  1  0
M  END
>  <smiles>  (13) 
COCCNC(=O)c1ccc2cc(F)ccc2n1

>  <score_type>  (13) 
oracle

>  <origin>  (13) 
autodockgpu

>  <m_score__min__energy>  (13) 
-5.71

>  <m_primary>  (13) 
energy

>  <rmsd>  (13) 
0.7671739390588026

>  <m_score__min__rmsd>  (13) 
0.7671739390588026

>  <meeko>  (13) 
{"free_energy": -5.44, "intermolecular_energy": -6.64, "internal_energy": -1.46, "cluster_size": 50, "cluster_id": 1, "rank_in_cluster": 35}

>  <energy>  (13) 
-5.48

>  <cluster_rmsd>  (13) 
1.29

>  <cluster>  (13) 
1

$$$$

     RDKit          3D

 31 32  0  0  0  0  0  0  0  0999 V2000
  141.0710   75.3330  221.5990 C   0  0  0  0  0  0  0  0  0  0  0  0
  139.9580   74.8330  222.2940 O   0  0  0  0  0  0  0  0  0  0  0  0
  138.8250   74.8750  221.4970 C   0  0  0  0  0  0  0  0  0  0  0  0
  138.3690   73.4500  221.2420 C   0  0  0  0  0  0  0  0  0  0  0  0
  138.7540   72.6310  222.3690 N   0  0  0  0  0  0  0  0  0  0  0  0
  138.6190   71.2220  222.3950 C   0  0  0  0  0  0  0  0  0  0  0  0
  138.1420   70.5910  221.4080 O   0  0  0  0  0  0  0  0  0  0  0  0
  139.0360   70.4660  223.5830 C   0  0  0  0  0  0  0  0  0  0  0  0
  138.8240   69.1140  223.6610 C   0  0  0  0  0  0  0  0  0  0  0  0
  139.2060   68.3770  224.7640 C   0  0  0  0  0  0  0  0  0  0  0  0
  139.8150   69.0460  225.8050 C   0  0  0  0  0  0  0  0  0  0  0  0
  140.2400   68.4150  226.9560 C   0  0  0  0  0  0  0  0  0  0  0  0
  140.8490   69.0700  228.0000 C   0  0  0  0  0  0  0  0  0  0  0  0
  141.2420   68.3860  229.1070 F   0  0  0  0  0  0  0  0  0  0  0  0
  141.0650   70.4370  227.9230 C   0  0  0  0  0  0  0  0  0  0  0  0
  140.6540   71.0950  226.7860 C   0  0  0  0  0  0  0  0  0  0  0  0
  140.0410   70.4210  225.7440 C   0  0  0  0  0  0  0  0  0  0  0  0
  139.6370   71.0550  224.6350 N   0  0  0  0  0  0  0  0  0  0  0  0
  141.8298   75.6739  222.3187 H   0  0  0  0  0  0  0  0  0  0  0  0
  141.4956   74.5391  220.9669 H   0  0  0  0  0  0  0  0  0  0  0  0
  140.7595   76.1777  220.9669 H   0  0  0  0  0  0  0  0  0  0  0  0
  138.0291   75.4339  222.0110 H   0  0  0  0  0  0  0  0  0  0  0  0
  139.0499   75.3773  220.5445 H   0  0  0  0  0  0  0  0  0  0  0  0
  137.2756   73.4268  221.1241 H   0  0  0  0  0  0  0  0  0  0  0  0
  138.8361   73.0660  220.3231 H   0  0  0  0  0  0  0  0  0  0  0  0
  139.1660   73.0770  223.2430 H   0  0  0  0  0  0  0  0  0  0  0  0
  138.3350   68.6011  222.8197 H   0  0  0  0  0  0  0  0  0  0  0  0
  139.0305   67.2921  224.8111 H   0  0  0  0  0  0  0  0  0  0  0  0
  140.0832   67.3297  227.0429 H   0  0  0  0  0  0  0  0  0  0  0  0
  141.5509   70.9804  228.7468 H   0  0  0  0  0  0  0  0  0  0  0  0
  140.8162   72.1799  226.7037 H   0  0  0  0  0  0  0  0  0  0  0  0
  1  2  1  0
  2  3  1  0
  3  4  1  0
  4  5  1  0
  5  6  1  0
  6  7  2  0
  6  8  1  0
  8  9  2  0
  9 10  1  0
 10 11  2  0
 11 12  1  0
 12 13  2  0
 13 14  1  0
 13 15  1  0
 15 16  2  0
 16 17  1  0
 17 18  2  0
 18  8  1  0
 17 11  1  0
  1 19  1  0
  1 20  1  0
  1 21  1  0
  3 22  1  0
  3 23  1  0
  4 24  1  0
  4 25  1  0
  5 26  1  0
  9 27  1  0
 10 28  1  0
 12 29  1  0
 15 30  1  0
 16 31  1  0
M  END
>  <smiles>  (14) 
COCCNC(=O)c1ccc2cc(F)ccc2n1

>  <score_type>  (14) 
oracle

>  <origin>  (14) 
autodockgpu

>  <m_score__min__energy>  (14) 
-5.71

>  <m_primary>  (14) 
energy

>  <rmsd>  (14) 
0.7007662045210207

>  <m_score__min__rmsd>  (14) 
0.7007662045210207

>  <meeko>  (14) 
{"free_energy": -5.46, "intermolecular_energy": -6.65, "internal_energy": -1.48, "cluster_size": 50, "cluster_id": 1, "rank_in_cluster": 23}

>  <energy>  (14) 
-5.48

>  <cluster_rmsd>  (14) 
1.28

>  <cluster>  (14) 
1

$$$$

     RDKit          3D

 31 32  0  0  0  0  0  0  0  0999 V2000
  141.3120   73.7880  221.2250 C   0  0  0  0  0  0  0  0  0  0  0  0
  140.3060   74.1080  222.1510 O   0  0  0  0  0  0  0  0  0  0  0  0
  139.1130   74.3800  221.4990 C   0  0  0  0  0  0  0  0  0  0  0  0
  138.2350   73.1440  221.5780 C   0  0  0  0  0  0  0  0  0  0  0  0
  138.6800   72.3290  222.6850 N   0  0  0  0  0  0  0  0  0  0  0  0
  138.4170   70.9410  222.7900 C   0  0  0  0  0  0  0  0  0  0  0  0
  137.7610   70.3290  221.8980 O   0  0  0  0  0  0  0  0  0  0  0  0
  138.9080   70.1860  223.9500 C   0  0  0  0  0  0  0  0  0  0  0  0
  138.7600   68.8250  224.0110 C   0  0  0  0  0  0  0  0  0  0  0  0
  139.2120   68.0890  225.0890 C   0  0  0  0  0  0  0  0  0  0  0  0
  139.8240   68.7690  226.1200 C   0  0  0  0  0  0  0  0  0  0  0  0
  140.3150   68.1410  227.2460 C   0  0  0  0  0  0  0  0  0  0  0  0
  140.9280   68.8060  228.2820 C   0  0  0  0  0  0  0  0  0  0  0  0
  141.3880   68.1240  229.3630 F   0  0  0  0  0  0  0  0  0  0  0  0
  141.0780   70.1830  228.2220 C   0  0  0  0  0  0  0  0  0  0  0  0
  140.5990   70.8390  227.1110 C   0  0  0  0  0  0  0  0  0  0  0  0
  139.9840   70.1540  226.0770 C   0  0  0  0  0  0  0  0  0  0  0  0
  139.5150   70.7860  224.9930 N   0  0  0  0  0  0  0  0  0  0  0  0
  142.2264   73.4971  221.7629 H   0  0  0  0  0  0  0  0  0  0  0  0
  140.9766   72.9522  220.5934 H   0  0  0  0  0  0  0  0  0  0  0  0
  141.5211   74.6640  220.5934 H   0  0  0  0  0  0  0  0  0  0  0  0
  138.6077   75.2271  221.9858 H   0  0  0  0  0  0  0  0  0  0  0  0
  139.3061   74.6416  220.4481 H   0  0  0  0  0  0  0  0  0  0  0  0
  137.1883   73.4431  221.7360 H   0  0  0  0  0  0  0  0  0  0  0  0
  138.3063   72.5733  220.6403 H   0  0  0  0  0  0  0  0  0  0  0  0
  139.2400   72.7590  223.4810 H   0  0  0  0  0  0  0  0  0  0  0  0
  138.2669   68.3035  223.1774 H   0  0  0  0  0  0  0  0  0  0  0  0
  139.0877   66.9966  225.1235 H   0  0  0  0  0  0  0  0  0  0  0  0
  140.2104   67.0484  227.3191 H   0  0  0  0  0  0  0  0  0  0  0  0
  141.5658   70.7352  229.0388 H   0  0  0  0  0  0  0  0  0  0  0  0
  140.7072   71.9316  227.0431 H   0  0  0  0  0  0  0  0  0  0  0  0
  1  2  1  0
  2  3  1  0
  3  4  1  0
  4  5  1  0
  5  6  1  0
  6  7  2  0
  6  8  1  0
  8  9  2  0
  9 10  1  0
 10 11  2  0
 11 12  1  0
 12 13  2  0
 13 14  1  0
 13 15  1  0
 15 16  2  0
 16 17  1  0
 17 18  2  0
 18  8  1  0
 17 11  1  0
  1 19  1  0
  1 20  1  0
  1 21  1  0
  3 22  1  0
  3 23  1  0
  4 24  1  0
  4 25  1  0
  5 26  1  0
  9 27  1  0
 10 28  1  0
 12 29  1  0
 15 30  1  0
 16 31  1  0
M  END
>  <smiles>  (15) 
COCCNC(=O)c1ccc2cc(F)ccc2n1

>  <score_type>  (15) 
oracle

>  <origin>  (15) 
autodockgpu

>  <m_score__min__energy>  (15) 
-5.71

>  <m_primary>  (15) 
energy

>  <rmsd>  (15) 
1.0123871764605974

>  <m_score__min__rmsd>  (15) 
1.0123871764605974

>  <meeko>  (15) 
{"free_energy": -5.48, "intermolecular_energy": -6.67, "internal_energy": -1.51, "cluster_size": 50, "cluster_id": 1, "rank_in_cluster": 14}

>  <energy>  (15) 
-5.47

>  <cluster_rmsd>  (15) 
1.29

>  <cluster>  (15) 
1

$$$$

     RDKit          3D

 31 32  0  0  0  0  0  0  0  0999 V2000
  141.3740   74.8730  221.2120 C   0  0  0  0  0  0  0  0  0  0  0  0
  140.2550   74.5620  222.0010 O   0  0  0  0  0  0  0  0  0  0  0  0
  139.0840   74.7530  221.2830 C   0  0  0  0  0  0  0  0  0  0  0  0
  138.3320   73.4360  221.2420 C   0  0  0  0  0  0  0  0  0  0  0  0
  138.7420   72.6310  222.3690 N   0  0  0  0  0  0  0  0  0  0  0  0
  138.5170   71.2350  222.4580 C   0  0  0  0  0  0  0  0  0  0  0  0
  137.9290   70.6070  221.5310 O   0  0  0  0  0  0  0  0  0  0  0  0
  138.9690   70.4930  223.6420 C   0  0  0  0  0  0  0  0  0  0  0  0
  138.7810   69.1380  223.7300 C   0  0  0  0  0  0  0  0  0  0  0  0
  139.1950   68.4130  224.8300 C   0  0  0  0  0  0  0  0  0  0  0  0
  139.8120   69.0970  225.8560 C   0  0  0  0  0  0  0  0  0  0  0  0
  140.2680   68.4800  227.0020 C   0  0  0  0  0  0  0  0  0  0  0  0
  140.8850   69.1510  228.0320 C   0  0  0  0  0  0  0  0  0  0  0  0
  141.3090   68.4790  229.1350 F   0  0  0  0  0  0  0  0  0  0  0  0
  141.0760   70.5210  227.9440 C   0  0  0  0  0  0  0  0  0  0  0  0
  140.6330   71.1650  226.8130 C   0  0  0  0  0  0  0  0  0  0  0  0
  140.0130   70.4760  225.7840 C   0  0  0  0  0  0  0  0  0  0  0  0
  139.5790   71.0980  224.6800 N   0  0  0  0  0  0  0  0  0  0  0  0
  142.2277   75.1103  221.8638 H   0  0  0  0  0  0  0  0  0  0  0  0
  141.6260   74.0108  220.5770 H   0  0  0  0  0  0  0  0  0  0  0  0
  141.1450   75.7415  220.5770 H   0  0  0  0  0  0  0  0  0  0  0  0
  138.4665   75.5190  221.7749 H   0  0  0  0  0  0  0  0  0  0  0  0
  139.3155   75.0899  220.2618 H   0  0  0  0  0  0  0  0  0  0  0  0
  137.2500   73.6261  221.2976 H   0  0  0  0  0  0  0  0  0  0  0  0
  138.5553   72.9070  220.3037 H   0  0  0  0  0  0  0  0  0  0  0  0
  139.2450   73.0760  223.1950 H   0  0  0  0  0  0  0  0  0  0  0  0
  138.2858   68.6127  222.9000 H   0  0  0  0  0  0  0  0  0  0  0  0
  139.0378   67.3257  224.8859 H   0  0  0  0  0  0  0  0  0  0  0  0
  140.1309   67.3928  227.0975 H   0  0  0  0  0  0  0  0  0  0  0  0
  141.5679   71.0770  228.7557 H   0  0  0  0  0  0  0  0  0  0  0  0
  140.7742   72.2522  226.7234 H   0  0  0  0  0  0  0  0  0  0  0  0
  1  2  1  0
  2  3  1  0
  3  4  1  0
  4  5  1  0
  5  6  1  0
  6  7  2  0
  6  8  1  0
  8  9  2  0
  9 10  1  0
 10 11  2  0
 11 12  1  0
 12 13  2  0
 13 14  1  0
 13 15  1  0
 15 16  2  0
 16 17  1  0
 17 18  2  0
 18  8  1  0
 17 11  1  0
  1 19  1  0
  1 20  1  0
  1 21  1  0
  3 22  1  0
  3 23  1  0
  4 24  1  0
  4 25  1  0
  5 26  1  0
  9 27  1  0
 10 28  1  0
 12 29  1  0
 15 30  1  0
 16 31  1  0
M  END
>  <smiles>  (16) 
COCCNC(=O)c1ccc2cc(F)ccc2n1

>  <score_type>  (16) 
oracle

>  <origin>  (16) 
autodockgpu

>  <m_score__min__energy>  (16) 
-5.71

>  <m_primary>  (16) 
energy

>  <rmsd>  (16) 
0.7392409655331963

>  <m_score__min__rmsd>  (16) 
0.7392409655331963

>  <meeko>  (16) 
{"free_energy": -5.45, "intermolecular_energy": -6.65, "internal_energy": -1.49, "cluster_size": 50, "cluster_id": 1, "rank_in_cluster": 24}

>  <energy>  (16) 
-5.47

>  <cluster_rmsd>  (16) 
1.28

>  <cluster>  (16) 
1

$$$$

     RDKit          3D

 31 32  0  0  0  0  0  0  0  0999 V2000
  140.6340   76.4420  222.2930 C   0  0  0  0  0  0  0  0  0  0  0  0
  140.0340   75.1730  222.3060 O   0  0  0  0  0  0  0  0  0  0  0  0
  139.5330   74.8570  221.0520 C   0  0  0  0  0  0  0  0  0  0  0  0
  139.0880   73.4060  221.0690 C   0  0  0  0  0  0  0  0  0  0  0  0
  139.3910   72.8430  222.3650 N   0  0  0  0  0  0  0  0  0  0  0  0
  139.9000   71.5340  222.5500 C   0  0  0  0  0  0  0  0  0  0  0  0
  140.1220   70.7720  221.5650 O   0  0  0  0  0  0  0  0  0  0  0  0
  140.1820   71.0410  223.9040 C   0  0  0  0  0  0  0  0  0  0  0  0
  140.7060   71.8750  224.8570 C   0  0  0  0  0  0  0  0  0  0  0  0
  140.9810   71.4380  226.1380 C   0  0  0  0  0  0  0  0  0  0  0  0
  140.7120   70.1210  226.4400 C   0  0  0  0  0  0  0  0  0  0  0  0
  140.9440   69.5740  227.6850 C   0  0  0  0  0  0  0  0  0  0  0  0
  140.6800   68.2610  228.0000 C   0  0  0  0  0  0  0  0  0  0  0  0
  140.9340   67.7870  229.2480 F   0  0  0  0  0  0  0  0  0  0  0  0
  140.1490   67.4160  227.0370 C   0  0  0  0  0  0  0  0  0  0  0  0
  139.9050   67.9330  225.7860 C   0  0  0  0  0  0  0  0  0  0  0  0
  140.1780   69.2560  225.4840 C   0  0  0  0  0  0  0  0  0  0  0  0
  139.9430   69.7650  224.2680 N   0  0  0  0  0  0  0  0  0  0  0  0
  140.7948   76.7821  223.3267 H   0  0  0  0  0  0  0  0  0  0  0  0
  141.6006   76.3852  221.7711 H   0  0  0  0  0  0  0  0  0  0  0  0
  139.9767   77.1530  221.7711 H   0  0  0  0  0  0  0  0  0  0  0  0
  138.6761   75.5063  220.8193 H   0  0  0  0  0  0  0  0  0  0  0  0
  140.3074   75.0072  220.2854 H   0  0  0  0  0  0  0  0  0  0  0  0
  138.0050   73.3489  220.8848 H   0  0  0  0  0  0  0  0  0  0  0  0
  139.6146   72.8435  220.2839 H   0  0  0  0  0  0  0  0  0  0  0  0
  139.2370   73.4130  223.2500 H   0  0  0  0  0  0  0  0  0  0  0  0
  140.9135   72.9227  224.5940 H   0  0  0  0  0  0  0  0  0  0  0  0
  141.4011   72.1193  226.8925 H   0  0  0  0  0  0  0  0  0  0  0  0
  141.3628   70.2228  228.4684 H   0  0  0  0  0  0  0  0  0  0  0  0
  139.9294   66.3630  227.2670 H   0  0  0  0  0  0  0  0  0  0  0  0
  139.4832   67.2801  225.0076 H   0  0  0  0  0  0  0  0  0  0  0  0
  1  2  1  0
  2  3  1  0
  3  4  1  0
  4  5  1  0
  5  6  1  0
  6  7  2  0
  6  8  1  0
  8  9  2  0
  9 10  1  0
 10 11  2  0
 11 12  1  0
 12 13  2  0
 13 14  1  0
 13 15  1  0
 15 16  2  0
 16 17  1  0
 17 18  2  0
 18  8  1  0
 17 11  1  0
  1 19  1  0
  1 20  1  0
  1 21  1  0
  3 22  1  0
  3 23  1  0
  4 24  1  0
  4 25  1  0
  5 26  1  0
  9 27  1  0
 10 28  1  0
 12 29  1  0
 15 30  1  0
 16 31  1  0
M  END
>  <smiles>  (17) 
COCCNC(=O)c1ccc2cc(F)ccc2n1

>  <score_type>  (17) 
oracle

>  <origin>  (17) 
autodockgpu

>  <m_score__min__energy>  (17) 
-5.71

>  <m_primary>  (17) 
energy

>  <rmsd>  (17) 
2.916950437179418

>  <m_score__min__rmsd>  (17) 
2.916950437179418

>  <meeko>  (17) 
{"free_energy": -5.71, "intermolecular_energy": -6.9, "internal_energy": -1.2, "cluster_size": 50, "cluster_id": 1, "rank_in_cluster": 1}

>  <energy>  (17) 
-5.47

>  <cluster_rmsd>  (17) 
1.29

>  <cluster>  (17) 
1

$$$$

     RDKit          3D

 31 32  0  0  0  0  0  0  0  0999 V2000
  141.1110   73.8040  221.3000 C   0  0  0  0  0  0  0  0  0  0  0  0
  140.1240   74.1790  222.2260 O   0  0  0  0  0  0  0  0  0  0  0  0
  138.9060   74.3710  221.5910 C   0  0  0  0  0  0  0  0  0  0  0  0
  138.1550   73.0520  221.5960 C   0  0  0  0  0  0  0  0  0  0  0  0
  138.6270   72.2530  222.7030 N   0  0  0  0  0  0  0  0  0  0  0  0
  138.3760   70.8650  222.8300 C   0  0  0  0  0  0  0  0  0  0  0  0
  137.7090   70.2380  221.9570 O   0  0  0  0  0  0  0  0  0  0  0  0
  138.8950   70.1270  223.9890 C   0  0  0  0  0  0  0  0  0  0  0  0
  138.7900   68.7620  224.0530 C   0  0  0  0  0  0  0  0  0  0  0  0
  139.2680   68.0420  225.1300 C   0  0  0  0  0  0  0  0  0  0  0  0
  139.8620   68.7420  226.1580 C   0  0  0  0  0  0  0  0  0  0  0  0
  140.3760   68.1310  227.2830 C   0  0  0  0  0  0  0  0  0  0  0  0
  140.9710   68.8170  228.3160 C   0  0  0  0  0  0  0  0  0  0  0  0
  141.4560   68.1510  229.3960 F   0  0  0  0  0  0  0  0  0  0  0  0
  141.0780   70.1980  228.2530 C   0  0  0  0  0  0  0  0  0  0  0  0
  140.5750   70.8370  227.1430 C   0  0  0  0  0  0  0  0  0  0  0  0
  139.9780   70.1320  226.1120 C   0  0  0  0  0  0  0  0  0  0  0  0
  139.4860   70.7470  225.0290 N   0  0  0  0  0  0  0  0  0  0  0  0
  142.0079   73.4632  221.8379 H   0  0  0  0  0  0  0  0  0  0  0  0
  140.7301   72.9879  220.6684 H   0  0  0  0  0  0  0  0  0  0  0  0
  141.3681   74.6671  220.6684 H   0  0  0  0  0  0  0  0  0  0  0  0
  138.3225   75.1337  222.1276 H   0  0  0  0  0  0  0  0  0  0  0  0
  139.0661   74.7130  220.5578 H   0  0  0  0  0  0  0  0  0  0  0  0
  137.0772   73.2405  221.7089 H   0  0  0  0  0  0  0  0  0  0  0  0
  138.3281   72.5192  220.6493 H   0  0  0  0  0  0  0  0  0  0  0  0
  139.1980   72.6970  223.4840 H   0  0  0  0  0  0  0  0  0  0  0  0
  138.3107   68.2240  223.2218 H   0  0  0  0  0  0  0  0  0  0  0  0
  139.1777   66.9463  225.1663 H   0  0  0  0  0  0  0  0  0  0  0  0
  140.3062   67.0358  227.3579 H   0  0  0  0  0  0  0  0  0  0  0  0
  141.5514   70.7665  229.0671 H   0  0  0  0  0  0  0  0  0  0  0  0
  140.6489   71.9323  227.0734 H   0  0  0  0  0  0  0  0  0  0  0  0
  1  2  1  0
  2  3  1  0
  3  4  1  0
  4  5  1  0
  5  6  1  0
  6  7  2  0
  6  8  1  0
  8  9  2  0
  9 10  1  0
 10 11  2  0
 11 12  1  0
 12 13  2  0
 13 14  1  0
 13 15  1  0
 15 16  2  0
 16 17  1  0
 17 18  2  0
 18  8  1  0
 17 11  1  0
  1 19  1  0
  1 20  1  0
  1 21  1  0
  3 22  1  0
  3 23  1  0
  4 24  1  0
  4 25  1  0
  5 26  1  0
  9 27  1  0
 10 28  1  0
 12 29  1  0
 15 30  1  0
 16 31  1  0
M  END
>  <smiles>  (18) 
COCCNC(=O)c1ccc2cc(F)ccc2n1

>  <score_type>  (18) 
oracle

>  <origin>  (18) 
autodockgpu

>  <m_score__min__energy>  (18) 
-5.71

>  <m_primary>  (18) 
energy

>  <rmsd>  (18) 
1.0701275472378102

>  <m_score__min__rmsd>  (18) 
1.0701275472378102

>  <meeko>  (18) 
{"free_energy": -5.48, "intermolecular_energy": -6.67, "internal_energy": -1.51, "cluster_size": 50, "cluster_id": 1, "rank_in_cluster": 13}

>  <energy>  (18) 
-5.47

>  <cluster_rmsd>  (18) 
1.32

>  <cluster>  (18) 
1

$$$$

     RDKit          3D

 31 32  0  0  0  0  0  0  0  0999 V2000
  141.0720   74.8930  221.5890 C   0  0  0  0  0  0  0  0  0  0  0  0
  140.0520   74.1510  222.2050 O   0  0  0  0  0  0  0  0  0  0  0  0
  138.8400   74.3620  221.5640 C   0  0  0  0  0  0  0  0  0  0  0  0
  138.0450   73.0690  221.6150 C   0  0  0  0  0  0  0  0  0  0  0  0
  138.5340   72.2660  222.7120 N   0  0  0  0  0  0  0  0  0  0  0  0
  138.2960   70.8750  222.8300 C   0  0  0  0  0  0  0  0  0  0  0  0
  137.6250   70.2490  221.9590 O   0  0  0  0  0  0  0  0  0  0  0  0
  138.8310   70.1330  223.9790 C   0  0  0  0  0  0  0  0  0  0  0  0
  138.7270   68.7680  224.0390 C   0  0  0  0  0  0  0  0  0  0  0  0
  139.2210   68.0440  225.1060 C   0  0  0  0  0  0  0  0  0  0  0  0
  139.8300   68.7400  226.1280 C   0  0  0  0  0  0  0  0  0  0  0  0
  140.3600   68.1250  227.2430 C   0  0  0  0  0  0  0  0  0  0  0  0
  140.9700   68.8070  228.2700 C   0  0  0  0  0  0  0  0  0  0  0  0
  141.4710   68.1370  229.3410 F   0  0  0  0  0  0  0  0  0  0  0  0
  141.0750   70.1880  228.2110 C   0  0  0  0  0  0  0  0  0  0  0  0
  140.5570   70.8310  227.1110 C   0  0  0  0  0  0  0  0  0  0  0  0
  139.9450   70.1300  226.0860 C   0  0  0  0  0  0  0  0  0  0  0  0
  139.4380   70.7490  225.0120 N   0  0  0  0  0  0  0  0  0  0  0  0
  141.7065   75.3545  222.3600 H   0  0  0  0  0  0  0  0  0  0  0  0
  141.6828   74.2267  220.9621 H   0  0  0  0  0  0  0  0  0  0  0  0
  140.6261   75.6793  220.9621 H   0  0  0  0  0  0  0  0  0  0  0  0
  138.2832   75.1619  222.0741 H   0  0  0  0  0  0  0  0  0  0  0  0
  139.0097   74.6628  220.5196 H   0  0  0  0  0  0  0  0  0  0  0  0
  136.9796   73.2956  221.7686 H   0  0  0  0  0  0  0  0  0  0  0  0
  138.1616   72.5205  220.6687 H   0  0  0  0  0  0  0  0  0  0  0  0
  139.1080   72.7090  223.4900 H   0  0  0  0  0  0  0  0  0  0  0  0
  138.2355   68.2332  223.2129 H   0  0  0  0  0  0  0  0  0  0  0  0
  139.1315   66.9482  225.1393 H   0  0  0  0  0  0  0  0  0  0  0  0
  140.2911   67.0295  227.3148 H   0  0  0  0  0  0  0  0  0  0  0  0
  141.5589   70.7536  229.0209 H   0  0  0  0  0  0  0  0  0  0  0  0
  140.6306   71.9265  227.0442 H   0  0  0  0  0  0  0  0  0  0  0  0
  1  2  1  0
  2  3  1  0
  3  4  1  0
  4  5  1  0
  5  6  1  0
  6  7  2  0
  6  8  1  0
  8  9  2  0
  9 10  1  0
 10 11  2  0
 11 12  1  0
 12 13  2  0
 13 14  1  0
 13 15  1  0
 15 16  2  0
 16 17  1  0
 17 18  2  0
 18  8  1  0
 17 11  1  0
  1 19  1  0
  1 20  1  0
  1 21  1  0
  3 22  1  0
  3 23  1  0
  4 24  1  0
  4 25  1  0
  5 26  1  0
  9 27  1  0
 10 28  1  0
 12 29  1  0
 15 30  1  0
 16 31  1  0
M  END
>  <smiles>  (19) 
COCCNC(=O)c1ccc2cc(F)ccc2n1

>  <score_type>  (19) 
oracle

>  <origin>  (19) 
autodockgpu

>  <m_score__min__energy>  (19) 
-5.71

>  <m_primary>  (19) 
energy

>  <rmsd>  (19) 
1.072060456325133

>  <m_score__min__rmsd>  (19) 
1.072060456325133

>  <meeko>  (19) 
{"free_energy": -5.5, "intermolecular_energy": -6.69, "internal_energy": -1.48, "cluster_size": 50, "cluster_id": 1, "rank_in_cluster": 9}

>  <energy>  (19) 
-5.46

>  <cluster_rmsd>  (19) 
1.12

>  <cluster>  (19) 
1

$$$$

     RDKit          3D

 31 32  0  0  0  0  0  0  0  0999 V2000
  141.0880   75.3800  221.5950 C   0  0  0  0  0  0  0  0  0  0  0  0
  140.0210   74.6980  222.2020 O   0  0  0  0  0  0  0  0  0  0  0  0
  138.8760   74.7960  221.4260 C   0  0  0  0  0  0  0  0  0  0  0  0
  138.2870   73.4050  221.2720 C   0  0  0  0  0  0  0  0  0  0  0  0
  138.7130   72.5940  222.3890 N   0  0  0  0  0  0  0  0  0  0  0  0
  138.4910   71.1970  222.4710 C   0  0  0  0  0  0  0  0  0  0  0  0
  137.8940   70.5740  221.5470 O   0  0  0  0  0  0  0  0  0  0  0  0
  138.9590   70.4470  223.6430 C   0  0  0  0  0  0  0  0  0  0  0  0
  138.7980   69.0880  223.7130 C   0  0  0  0  0  0  0  0  0  0  0  0
  139.2280   68.3570  224.8030 C   0  0  0  0  0  0  0  0  0  0  0  0
  139.8320   69.0390  225.8370 C   0  0  0  0  0  0  0  0  0  0  0  0
  140.3010   68.4150  226.9750 C   0  0  0  0  0  0  0  0  0  0  0  0
  140.9060   69.0830  228.0140 C   0  0  0  0  0  0  0  0  0  0  0  0
  141.3450   68.4050  229.1060 F   0  0  0  0  0  0  0  0  0  0  0  0
  141.0700   70.4580  227.9450 C   0  0  0  0  0  0  0  0  0  0  0  0
  140.6130   71.1090  226.8220 C   0  0  0  0  0  0  0  0  0  0  0  0
  140.0050   70.4220  225.7850 C   0  0  0  0  0  0  0  0  0  0  0  0
  139.5580   71.0500  224.6900 N   0  0  0  0  0  0  0  0  0  0  0  0
  141.7443   75.7995  222.3717 H   0  0  0  0  0  0  0  0  0  0  0  0
  141.6614   74.6806  220.9689 H   0  0  0  0  0  0  0  0  0  0  0  0
  140.6940   76.1941  220.9689 H   0  0  0  0  0  0  0  0  0  0  0  0
  138.1474   75.4564  221.9190 H   0  0  0  0  0  0  0  0  0  0  0  0
  139.1204   75.2166  220.4394 H   0  0  0  0  0  0  0  0  0  0  0  0
  137.1889   73.4678  221.2580 H   0  0  0  0  0  0  0  0  0  0  0  0
  138.6320   72.9547  220.3295 H   0  0  0  0  0  0  0  0  0  0  0  0
  139.2250   73.0340  223.2110 H   0  0  0  0  0  0  0  0  0  0  0  0
  138.3121   68.5640  222.8767 H   0  0  0  0  0  0  0  0  0  0  0  0
  139.0928   67.2661  224.8444 H   0  0  0  0  0  0  0  0  0  0  0  0
  140.1847   67.3241  227.0555 H   0  0  0  0  0  0  0  0  0  0  0  0
  141.5514   71.0124  228.7641 H   0  0  0  0  0  0  0  0  0  0  0  0
  140.7335   72.1998  226.7465 H   0  0  0  0  0  0  0  0  0  0  0  0
  1  2  1  0
  2  3  1  0
  3  4  1  0
  4  5  1  0
  5  6  1  0
  6  7  2  0
  6  8  1  0
  8  9  2  0
  9 10  1  0
 10 11  2  0
 11 12  1  0
 12 13  2  0
 13 14  1  0
 13 15  1  0
 15 16  2  0
 16 17  1  0
 17 18  2  0
 18  8  1  0
 17 11  1  0
  1 19  1  0
  1 20  1  0
  1 21  1  0
  3 22  1  0
  3 23  1  0
  4 24  1  0
  4 25  1  0
  5 26  1  0
  9 27  1  0
 10 28  1  0
 12 29  1  0
 15 30  1  0
 16 31  1  0
M  END
>  <smiles>  (20) 
COCCNC(=O)c1ccc2cc(F)ccc2n1

>  <score_type>  (20) 
oracle

>  <origin>  (20) 
autodockgpu

>  <m_score__min__energy>  (20) 
-5.71

>  <m_primary>  (20) 
energy

>  <rmsd>  (20) 
0.7565107601872981

>  <m_score__min__rmsd>  (20) 
0.7565107601872981

>  <meeko>  (20) 
{"free_energy": -5.46, "intermolecular_energy": -6.65, "internal_energy": -1.48, "cluster_size": 50, "cluster_id": 1, "rank_in_cluster": 21}

>  <energy>  (20) 
-5.46

>  <cluster_rmsd>  (20) 
1.14

>  <cluster>  (20) 
1

$$$$

     RDKit          3D

 31 32  0  0  0  0  0  0  0  0999 V2000
  140.6940   75.9890  221.9850 C   0  0  0  0  0  0  0  0  0  0  0  0
  140.2050   74.6730  222.0130 O   0  0  0  0  0  0  0  0  0  0  0  0
  139.4560   74.4060  220.8770 C   0  0  0  0  0  0  0  0  0  0  0  0
  138.3240   73.4710  221.2630 C   0  0  0  0  0  0  0  0  0  0  0  0
  138.7500   72.6650  222.3830 N   0  0  0  0  0  0  0  0  0  0  0  0
  138.4920   71.2760  222.4910 C   0  0  0  0  0  0  0  0  0  0  0  0
  137.8600   70.6560  221.5880 O   0  0  0  0  0  0  0  0  0  0  0  0
  138.9620   70.5300  223.6650 C   0  0  0  0  0  0  0  0  0  0  0  0
  138.8020   69.1710  223.7400 C   0  0  0  0  0  0  0  0  0  0  0  0
  139.2340   68.4440  224.8320 C   0  0  0  0  0  0  0  0  0  0  0  0
  139.8390   69.1300  225.8630 C   0  0  0  0  0  0  0  0  0  0  0  0
  140.3090   68.5110  227.0020 C   0  0  0  0  0  0  0  0  0  0  0  0
  140.9150   69.1830  228.0380 C   0  0  0  0  0  0  0  0  0  0  0  0
  141.3560   68.5090  229.1320 F   0  0  0  0  0  0  0  0  0  0  0  0
  141.0770   70.5580  227.9640 C   0  0  0  0  0  0  0  0  0  0  0  0
  140.6180   71.2050  226.8400 C   0  0  0  0  0  0  0  0  0  0  0  0
  140.0100   70.5130  225.8060 C   0  0  0  0  0  0  0  0  0  0  0  0
  139.5610   71.1370  224.7090 N   0  0  0  0  0  0  0  0  0  0  0  0
  140.8289   76.3520  223.0146 H   0  0  0  0  0  0  0  0  0  0  0  0
  141.6600   76.0101  221.4592 H   0  0  0  0  0  0  0  0  0  0  0  0
  139.9762   76.6358  221.4592 H   0  0  0  0  0  0  0  0  0  0  0  0
  139.0439   75.3430  220.4742 H   0  0  0  0  0  0  0  0  0  0  0  0
  140.0877   73.9395  220.1068 H   0  0  0  0  0  0  0  0  0  0  0  0
  137.4385   74.0591  221.5459 H   0  0  0  0  0  0  0  0  0  0  0  0
  138.0664   72.8234  220.4120 H   0  0  0  0  0  0  0  0  0  0  0  0
  139.2890   73.1030  223.1890 H   0  0  0  0  0  0  0  0  0  0  0  0
  138.3153   68.6438  222.9062 H   0  0  0  0  0  0  0  0  0  0  0  0
  139.0996   67.3532  224.8774 H   0  0  0  0  0  0  0  0  0  0  0  0
  140.1930   67.4204  227.0868 H   0  0  0  0  0  0  0  0  0  0  0  0
  141.5588   71.1156  228.7807 H   0  0  0  0  0  0  0  0  0  0  0  0
  140.7365   72.2957  226.7609 H   0  0  0  0  0  0  0  0  0  0  0  0
  1  2  1  0
  2  3  1  0
  3  4  1  0
  4  5  1  0
  5  6  1  0
  6  7  2  0
  6  8  1  0
  8  9  2  0
  9 10  1  0
 10 11  2  0
 11 12  1  0
 12 13  2  0
 13 14  1  0
 13 15  1  0
 15 16  2  0
 16 17  1  0
 17 18  2  0
 18  8  1  0
 17 11  1  0
  1 19  1  0
  1 20  1  0
  1 21  1  0
  3 22  1  0
  3 23  1  0
  4 24  1  0
  4 25  1  0
  5 26  1  0
  9 27  1  0
 10 28  1  0
 12 29  1  0
 15 30  1  0
 16 31  1  0
M  END
>  <smiles>  (21) 
COCCNC(=O)c1ccc2cc(F)ccc2n1

>  <score_type>  (21) 
oracle

>  <origin>  (21) 
autodockgpu

>  <m_score__min__energy>  (21) 
-5.71

>  <m_primary>  (21) 
energy

>  <rmsd>  (21) 
0.7547241612518566

>  <m_score__min__rmsd>  (21) 
0.7547241612518566

>  <meeko>  (21) 
{"free_energy": -5.45, "intermolecular_energy": -6.64, "internal_energy": -1.47, "cluster_size": 50, "cluster_id": 1, "rank_in_cluster": 32}

>  <energy>  (21) 
-5.46

>  <cluster_rmsd>  (21) 
1.18

>  <cluster>  (21) 
1

$$$$

     RDKit          3D

 31 32  0  0  0  0  0  0  0  0999 V2000
  141.0300   75.3970  221.5990 C   0  0  0  0  0  0  0  0  0  0  0  0
  140.0210   74.5330  222.0520 O   0  0  0  0  0  0  0  0  0  0  0  0
  138.8650   74.6980  221.3040 C   0  0  0  0  0  0  0  0  0  0  0  0
  138.0830   73.3970  221.3440 C   0  0  0  0  0  0  0  0  0  0  0  0
  138.5610   72.6020  222.4510 N   0  0  0  0  0  0  0  0  0  0  0  0
  138.2990   71.2170  222.5910 C   0  0  0  0  0  0  0  0  0  0  0  0
  137.6150   70.5900  221.7310 O   0  0  0  0  0  0  0  0  0  0  0  0
  138.8250   70.4830  223.7490 C   0  0  0  0  0  0  0  0  0  0  0  0
  138.7110   69.1190  223.8220 C   0  0  0  0  0  0  0  0  0  0  0  0
  139.1960   68.4030  224.8980 C   0  0  0  0  0  0  0  0  0  0  0  0
  139.8060   69.1040  225.9160 C   0  0  0  0  0  0  0  0  0  0  0  0
  140.3280   68.4970  227.0390 C   0  0  0  0  0  0  0  0  0  0  0  0
  140.9390   69.1850  228.0610 C   0  0  0  0  0  0  0  0  0  0  0  0
  141.4310   68.5220  229.1400 F   0  0  0  0  0  0  0  0  0  0  0  0
  141.0540   70.5640  227.9890 C   0  0  0  0  0  0  0  0  0  0  0  0
  140.5440   71.2000  226.8800 C   0  0  0  0  0  0  0  0  0  0  0  0
  139.9310   70.4930  225.8600 C   0  0  0  0  0  0  0  0  0  0  0  0
  139.4320   71.1050  224.7790 N   0  0  0  0  0  0  0  0  0  0  0  0
  141.5479   75.8404  222.4622 H   0  0  0  0  0  0  0  0  0  0  0  0
  141.7506   74.8317  220.9899 H   0  0  0  0  0  0  0  0  0  0  0  0
  140.5823   76.1961  220.9899 H   0  0  0  0  0  0  0  0  0  0  0  0
  138.2583   75.5102  221.7308 H   0  0  0  0  0  0  0  0  0  0  0  0
  139.1187   74.9565  220.2653 H   0  0  0  0  0  0  0  0  0  0  0  0
  137.0127   73.6127  221.4783 H   0  0  0  0  0  0  0  0  0  0  0  0
  138.2218   72.8477  220.4012 H   0  0  0  0  0  0  0  0  0  0  0  0
  139.1460   73.0460  223.2220 H   0  0  0  0  0  0  0  0  0  0  0  0
  138.2188   68.5794  222.9995 H   0  0  0  0  0  0  0  0  0  0  0  0
  139.0988   67.3082  224.9416 H   0  0  0  0  0  0  0  0  0  0  0  0
  140.2514   67.4028  227.1217 H   0  0  0  0  0  0  0  0  0  0  0  0
  141.5390   71.1341  228.7951 H   0  0  0  0  0  0  0  0  0  0  0  0
  140.6254   72.2942  226.8026 H   0  0  0  0  0  0  0  0  0  0  0  0
  1  2  1  0
  2  3  1  0
  3  4  1  0
  4  5  1  0
  5  6  1  0
  6  7  2  0
  6  8  1  0
  8  9  2  0
  9 10  1  0
 10 11  2  0
 11 12  1  0
 12 13  2  0
 13 14  1  0
 13 15  1  0
 15 16  2  0
 16 17  1  0
 17 18  2  0
 18  8  1  0
 17 11  1  0
  1 19  1  0
  1 20  1  0
  1 21  1  0
  3 22  1  0
  3 23  1  0
  4 24  1  0
  4 25  1  0
  5 26  1  0
  9 27  1  0
 10 28  1  0
 12 29  1  0
 15 30  1  0
 16 31  1  0
M  END
>  <smiles>  (22) 
COCCNC(=O)c1ccc2cc(F)ccc2n1

>  <score_type>  (22) 
oracle

>  <origin>  (22) 
autodockgpu

>  <m_score__min__energy>  (22) 
-5.71

>  <m_primary>  (22) 
energy

>  <rmsd>  (22) 
0.8419654135883047

>  <m_score__min__rmsd>  (22) 
0.8419654135883047

>  <meeko>  (22) 
{"free_energy": -5.45, "intermolecular_energy": -6.64, "internal_energy": -1.49, "cluster_size": 50, "cluster_id": 1, "rank_in_cluster": 29}

>  <energy>  (22) 
-5.46

>  <cluster_rmsd>  (22) 
1.19

>  <cluster>  (22) 
1

$$$$

     RDKit          3D

 31 32  0  0  0  0  0  0  0  0999 V2000
  141.0610   74.9160  221.5400 C   0  0  0  0  0  0  0  0  0  0  0  0
  140.0580   74.2320  222.2440 O   0  0  0  0  0  0  0  0  0  0  0  0
  138.8270   74.4010  221.6280 C   0  0  0  0  0  0  0  0  0  0  0  0
  138.1170   73.0590  221.6080 C   0  0  0  0  0  0  0  0  0  0  0  0
  138.6040   72.2600  222.7080 N   0  0  0  0  0  0  0  0  0  0  0  0
  138.3340   70.8770  222.8510 C   0  0  0  0  0  0  0  0  0  0  0  0
  137.6350   70.2550  221.9990 O   0  0  0  0  0  0  0  0  0  0  0  0
  138.8690   70.1390  224.0020 C   0  0  0  0  0  0  0  0  0  0  0  0
  138.7850   68.7720  224.0560 C   0  0  0  0  0  0  0  0  0  0  0  0
  139.2790   68.0510  225.1250 C   0  0  0  0  0  0  0  0  0  0  0  0
  139.8680   68.7520  226.1560 C   0  0  0  0  0  0  0  0  0  0  0  0
  140.3970   68.1410  227.2740 C   0  0  0  0  0  0  0  0  0  0  0  0
  140.9880   68.8280  228.3080 C   0  0  0  0  0  0  0  0  0  0  0  0
  141.4880   68.1610  229.3810 F   0  0  0  0  0  0  0  0  0  0  0  0
  141.0740   70.2100  228.2550 C   0  0  0  0  0  0  0  0  0  0  0  0
  140.5560   70.8500  227.1520 C   0  0  0  0  0  0  0  0  0  0  0  0
  139.9640   70.1430  226.1190 C   0  0  0  0  0  0  0  0  0  0  0  0
  139.4570   70.7600  225.0430 N   0  0  0  0  0  0  0  0  0  0  0  0
  141.7529   75.3878  222.2532 H   0  0  0  0  0  0  0  0  0  0  0  0
  141.6142   74.2061  220.9075 H   0  0  0  0  0  0  0  0  0  0  0  0
  140.6021   75.6902  220.9075 H   0  0  0  0  0  0  0  0  0  0  0  0
  138.2266   75.1313  222.1903 H   0  0  0  0  0  0  0  0  0  0  0  0
  138.9640   74.7732  220.6020 H   0  0  0  0  0  0  0  0  0  0  0  0
  137.0329   73.2124  221.7137 H   0  0  0  0  0  0  0  0  0  0  0  0
  138.3146   72.5451  220.6557 H   0  0  0  0  0  0  0  0  0  0  0  0
  139.2010   72.7000  223.4720 H   0  0  0  0  0  0  0  0  0  0  0  0
  138.3099   68.2333  223.2229 H   0  0  0  0  0  0  0  0  0  0  0  0
  139.2051   66.9538  225.1532 H   0  0  0  0  0  0  0  0  0  0  0  0
  140.3431   67.0444  227.3419 H   0  0  0  0  0  0  0  0  0  0  0  0
  141.5429   70.7793  229.0711 H   0  0  0  0  0  0  0  0  0  0  0  0
  140.6135   71.9467  227.0898 H   0  0  0  0  0  0  0  0  0  0  0  0
  1  2  1  0
  2  3  1  0
  3  4  1  0
  4  5  1  0
  5  6  1  0
  6  7  2  0
  6  8  1  0
  8  9  2  0
  9 10  1  0
 10 11  2  0
 11 12  1  0
 12 13  2  0
 13 14  1  0
 13 15  1  0
 15 16  2  0
 16 17  1  0
 17 18  2  0
 18  8  1  0
 17 11  1  0
  1 19  1  0
  1 20  1  0
  1 21  1  0
  3 22  1  0
  3 23  1  0
  4 24  1  0
  4 25  1  0
  5 26  1  0
  9 27  1  0
 10 28  1  0
 12 29  1  0
 15 30  1  0
 16 31  1  0
M  END
>  <smiles>  (23) 
COCCNC(=O)c1ccc2cc(F)ccc2n1

>  <score_type>  (23) 
oracle

>  <origin>  (23) 
autodockgpu

>  <m_score__min__energy>  (23) 
-5.71

>  <m_primary>  (23) 
energy

>  <rmsd>  (23) 
1.0818749627334556

>  <m_score__min__rmsd>  (23) 
1.0818749627334556

>  <meeko>  (23) 
{"free_energy": -5.51, "intermolecular_energy": -6.7, "internal_energy": -1.47, "cluster_size": 50, "cluster_id": 1, "rank_in_cluster": 6}

>  <energy>  (23) 
-5.46

>  <cluster_rmsd>  (23) 
1.14

>  <cluster>  (23) 
1

$$$$

     RDKit          3D

 31 32  0  0  0  0  0  0  0  0999 V2000
  141.3370   73.4730  221.2290 C   0  0  0  0  0  0  0  0  0  0  0  0
  140.3290   73.9380  222.0880 O   0  0  0  0  0  0  0  0  0  0  0  0
  139.1700   74.2100  221.3770 C   0  0  0  0  0  0  0  0  0  0  0  0
  138.1860   73.0800  221.6220 C   0  0  0  0  0  0  0  0  0  0  0  0
  138.6690   72.2740  222.7190 N   0  0  0  0  0  0  0  0  0  0  0  0
  138.3700   70.8980  222.8690 C   0  0  0  0  0  0  0  0  0  0  0  0
  137.6470   70.2890  222.0290 O   0  0  0  0  0  0  0  0  0  0  0  0
  138.9030   70.1520  224.0170 C   0  0  0  0  0  0  0  0  0  0  0  0
  138.8200   68.7840  224.0600 C   0  0  0  0  0  0  0  0  0  0  0  0
  139.3130   68.0570  225.1250 C   0  0  0  0  0  0  0  0  0  0  0  0
  139.8980   68.7510  226.1630 C   0  0  0  0  0  0  0  0  0  0  0  0
  140.4250   68.1320  227.2770 C   0  0  0  0  0  0  0  0  0  0  0  0
  141.0120   68.8120  228.3180 C   0  0  0  0  0  0  0  0  0  0  0  0
  141.5100   68.1380  229.3880 F   0  0  0  0  0  0  0  0  0  0  0  0
  141.0960   70.1950  228.2760 C   0  0  0  0  0  0  0  0  0  0  0  0
  140.5800   70.8410  227.1770 C   0  0  0  0  0  0  0  0  0  0  0  0
  139.9920   70.1420  226.1370 C   0  0  0  0  0  0  0  0  0  0  0  0
  139.4880   70.7660  225.0640 N   0  0  0  0  0  0  0  0  0  0  0  0
  142.1766   73.0857  221.8248 H   0  0  0  0  0  0  0  0  0  0  0  0
  140.9360   72.6689  220.5945 H   0  0  0  0  0  0  0  0  0  0  0  0
  141.6884   74.3000  220.5945 H   0  0  0  0  0  0  0  0  0  0  0  0
  138.7373   75.1613  221.7203 H   0  0  0  0  0  0  0  0  0  0  0  0
  139.3939   74.2923  220.3032 H   0  0  0  0  0  0  0  0  0  0  0  0
  137.1998   73.4965  221.8750 H   0  0  0  0  0  0  0  0  0  0  0  0
  138.0920   72.4624  220.7166 H   0  0  0  0  0  0  0  0  0  0  0  0
  139.2840   72.7030  223.4730 H   0  0  0  0  0  0  0  0  0  0  0  0
  138.3472   68.2507  223.2221 H   0  0  0  0  0  0  0  0  0  0  0  0
  139.2415   66.9595  225.1449 H   0  0  0  0  0  0  0  0  0  0  0  0
  140.3729   67.0348  227.3359 H   0  0  0  0  0  0  0  0  0  0  0  0
  141.5617   70.7592  229.0975 H   0  0  0  0  0  0  0  0  0  0  0  0
  140.6358   71.9383  227.1232 H   0  0  0  0  0  0  0  0  0  0  0  0
  1  2  1  0
  2  3  1  0
  3  4  1  0
  4  5  1  0
  5  6  1  0
  6  7  2  0
  6  8  1  0
  8  9  2  0
  9 10  1  0
 10 11  2  0
 11 12  1  0
 12 13  2  0
 13 14  1  0
 13 15  1  0
 15 16  2  0
 16 17  1  0
 17 18  2  0
 18  8  1  0
 17 11  1  0
  1 19  1  0
  1 20  1  0
  1 21  1  0
  3 22  1  0
  3 23  1  0
  4 24  1  0
  4 25  1  0
  5 26  1  0
  9 27  1  0
 10 28  1  0
 12 29  1  0
 15 30  1  0
 16 31  1  0
M  END
>  <smiles>  (24) 
COCCNC(=O)c1ccc2cc(F)ccc2n1

>  <score_type>  (24) 
oracle

>  <origin>  (24) 
autodockgpu

>  <m_score__min__energy>  (24) 
-5.71

>  <m_primary>  (24) 
energy

>  <rmsd>  (24) 
1.0823955960629363

>  <m_score__min__rmsd>  (24) 
1.0823955960629363

>  <meeko>  (24) 
{"free_energy": -5.45, "intermolecular_energy": -6.64, "internal_energy": -1.52, "cluster_size": 50, "cluster_id": 1, "rank_in_cluster": 30}

>  <energy>  (24) 
-5.45

>  <cluster_rmsd>  (24) 
1.21

>  <cluster>  (24) 
1

$$$$

     RDKit          3D

 31 32  0  0  0  0  0  0  0  0999 V2000
  141.2930   73.6750  221.2260 C   0  0  0  0  0  0  0  0  0  0  0  0
  140.3120   74.1080  222.1320 O   0  0  0  0  0  0  0  0  0  0  0  0
  139.1270   74.3920  221.4690 C   0  0  0  0  0  0  0  0  0  0  0  0
  138.2170   73.1820  221.5800 C   0  0  0  0  0  0  0  0  0  0  0  0
  138.6680   72.3620  222.6810 N   0  0  0  0  0  0  0  0  0  0  0  0
  138.3890   70.9780  222.7900 C   0  0  0  0  0  0  0  0  0  0  0  0
  137.7140   70.3740  221.9080 O   0  0  0  0  0  0  0  0  0  0  0  0
  138.8880   70.2180  223.9440 C   0  0  0  0  0  0  0  0  0  0  0  0
  138.7420   68.8560  223.9990 C   0  0  0  0  0  0  0  0  0  0  0  0
  139.2000   68.1150  225.0710 C   0  0  0  0  0  0  0  0  0  0  0  0
  139.8170   68.7900  226.1020 C   0  0  0  0  0  0  0  0  0  0  0  0
  140.3150   68.1570  227.2220 C   0  0  0  0  0  0  0  0  0  0  0  0
  140.9330   68.8180  228.2580 C   0  0  0  0  0  0  0  0  0  0  0  0
  141.3990   68.1310  229.3330 F   0  0  0  0  0  0  0  0  0  0  0  0
  141.0810   70.1950  228.2030 C   0  0  0  0  0  0  0  0  0  0  0  0
  140.5950   70.8560  227.0990 C   0  0  0  0  0  0  0  0  0  0  0  0
  139.9750   70.1760  226.0640 C   0  0  0  0  0  0  0  0  0  0  0  0
  139.5000   70.8130  224.9860 N   0  0  0  0  0  0  0  0  0  0  0  0
  142.1616   73.2916  221.7815 H   0  0  0  0  0  0  0  0  0  0  0  0
  140.8804   72.8754  220.5933 H   0  0  0  0  0  0  0  0  0  0  0  0
  141.6057   74.5187  220.5933 H   0  0  0  0  0  0  0  0  0  0  0  0
  138.6427   75.2652  221.9304 H   0  0  0  0  0  0  0  0  0  0  0  0
  139.3291   74.6185  220.4117 H   0  0  0  0  0  0  0  0  0  0  0  0
  137.1837   73.5117  221.7631 H   0  0  0  0  0  0  0  0  0  0  0  0
  138.2474   72.6034  220.6450 H   0  0  0  0  0  0  0  0  0  0  0  0
  139.2440   72.7860  223.4690 H   0  0  0  0  0  0  0  0  0  0  0  0
  138.2456   68.3381  223.1651 H   0  0  0  0  0  0  0  0  0  0  0  0
  139.0763   67.0224  225.1008 H   0  0  0  0  0  0  0  0  0  0  0  0
  140.2123   67.0639  227.2903 H   0  0  0  0  0  0  0  0  0  0  0  0
  141.5733   70.7438  229.0194 H   0  0  0  0  0  0  0  0  0  0  0  0
  140.7011   71.9491  227.0368 H   0  0  0  0  0  0  0  0  0  0  0  0
  1  2  1  0
  2  3  1  0
  3  4  1  0
  4  5  1  0
  5  6  1  0
  6  7  2  0
  6  8  1  0
  8  9  2  0
  9 10  1  0
 10 11  2  0
 11 12  1  0
 12 13  2  0
 13 14  1  0
 13 15  1  0
 15 16  2  0
 16 17  1  0
 17 18  2  0
 18  8  1  0
 17 11  1  0
  1 19  1  0
  1 20  1  0
  1 21  1  0
  3 22  1  0
  3 23  1  0
  4 24  1  0
  4 25  1  0
  5 26  1  0
  9 27  1  0
 10 28  1  0
 12 29  1  0
 15 30  1  0
 16 31  1  0
M  END
>  <smiles>  (25) 
COCCNC(=O)c1ccc2cc(F)ccc2n1

>  <score_type>  (25) 
oracle

>  <origin>  (25) 
autodockgpu

>  <m_score__min__energy>  (25) 
-5.71

>  <m_primary>  (25) 
energy

>  <rmsd>  (25) 
1.0002882385404699

>  <m_score__min__rmsd>  (25) 
1.0002882385404699

>  <meeko>  (25) 
{"free_energy": -5.47, "intermolecular_energy": -6.66, "internal_energy": -1.52, "cluster_size": 50, "cluster_id": 1, "rank_in_cluster": 17}

>  <energy>  (25) 
-5.45

>  <cluster_rmsd>  (25) 
1.14

>  <cluster>  (25) 
1

$$$$

     RDKit          3D

 31 32  0  0  0  0  0  0  0  0999 V2000
  141.4270   74.0790  221.2130 C   0  0  0  0  0  0  0  0  0  0  0  0
  140.3290   74.4410  222.0110 O   0  0  0  0  0  0  0  0  0  0  0  0
  139.2130   74.6830  221.2240 C   0  0  0  0  0  0  0  0  0  0  0  0
  138.3160   73.4600  221.2840 C   0  0  0  0  0  0  0  0  0  0  0  0
  138.7260   72.6370  222.3980 N   0  0  0  0  0  0  0  0  0  0  0  0
  138.5310   71.2350  222.4480 C   0  0  0  0  0  0  0  0  0  0  0  0
  137.9740   70.6170  221.4960 O   0  0  0  0  0  0  0  0  0  0  0  0
  138.9810   70.4730  223.6200 C   0  0  0  0  0  0  0  0  0  0  0  0
  138.7960   69.1160  223.6840 C   0  0  0  0  0  0  0  0  0  0  0  0
  139.2080   68.3740  224.7730 C   0  0  0  0  0  0  0  0  0  0  0  0
  139.8190   69.0420  225.8130 C   0  0  0  0  0  0  0  0  0  0  0  0
  140.2710   68.4060  226.9510 C   0  0  0  0  0  0  0  0  0  0  0  0
  140.8820   69.0600  227.9950 C   0  0  0  0  0  0  0  0  0  0  0  0
  141.3040   68.3710  229.0870 F   0  0  0  0  0  0  0  0  0  0  0  0
  141.0700   70.4320  227.9320 C   0  0  0  0  0  0  0  0  0  0  0  0
  140.6290   71.0950  226.8090 C   0  0  0  0  0  0  0  0  0  0  0  0
  140.0150   70.4220  225.7670 C   0  0  0  0  0  0  0  0  0  0  0  0
  139.5840   71.0610  224.6720 N   0  0  0  0  0  0  0  0  0  0  0  0
  142.2731   73.8001  221.8582 H   0  0  0  0  0  0  0  0  0  0  0  0
  141.1526   73.2238  220.5780 H   0  0  0  0  0  0  0  0  0  0  0  0
  141.7151   74.9297  220.5780 H   0  0  0  0  0  0  0  0  0  0  0  0
  138.6714   75.5610  221.6058 H   0  0  0  0  0  0  0  0  0  0  0  0
  139.5163   74.8811  220.1854 H   0  0  0  0  0  0  0  0  0  0  0  0
  137.2708   73.7743  221.4213 H   0  0  0  0  0  0  0  0  0  0  0  0
  138.3984   72.8894  220.3472 H   0  0  0  0  0  0  0  0  0  0  0  0
  139.2040   73.0730  223.2430 H   0  0  0  0  0  0  0  0  0  0  0  0
  138.3052   68.6036  222.8434 H   0  0  0  0  0  0  0  0  0  0  0  0
  139.0538   67.2855  224.8097 H   0  0  0  0  0  0  0  0  0  0  0  0
  140.1352   67.3171  227.0272 H   0  0  0  0  0  0  0  0  0  0  0  0
  141.5573   70.9750  228.7552 H   0  0  0  0  0  0  0  0  0  0  0  0
  140.7677   72.1839  226.7382 H   0  0  0  0  0  0  0  0  0  0  0  0
  1  2  1  0
  2  3  1  0
  3  4  1  0
  4  5  1  0
  5  6  1  0
  6  7  2  0
  6  8  1  0
  8  9  2  0
  9 10  1  0
 10 11  2  0
 11 12  1  0
 12 13  2  0
 13 14  1  0
 13 15  1  0
 15 16  2  0
 16 17  1  0
 17 18  2  0
 18  8  1  0
 17 11  1  0
  1 19  1  0
  1 20  1  0
  1 21  1  0
  3 22  1  0
  3 23  1  0
  4 24  1  0
  4 25  1  0
  5 26  1  0
  9 27  1  0
 10 28  1  0
 12 29  1  0
 15 30  1  0
 16 31  1  0
M  END
>  <smiles>  (26) 
COCCNC(=O)c1ccc2cc(F)ccc2n1

>  <score_type>  (26) 
oracle

>  <origin>  (26) 
autodockgpu

>  <m_score__min__energy>  (26) 
-5.71

>  <m_primary>  (26) 
energy

>  <rmsd>  (26) 
0.7240805446760922

>  <m_score__min__rmsd>  (26) 
0.7240805446760922

>  <meeko>  (26) 
{"free_energy": -5.42, "intermolecular_energy": -6.62, "internal_energy": -1.52, "cluster_size": 50, "cluster_id": 1, "rank_in_cluster": 47}

>  <energy>  (26) 
-5.45

>  <cluster_rmsd>  (26) 
1.3

>  <cluster>  (26) 
1

$$$$

     RDKit          3D

 31 32  0  0  0  0  0  0  0  0999 V2000
  141.0420   74.9700  221.5760 C   0  0  0  0  0  0  0  0  0  0  0  0
  140.0350   74.3340  222.3190 O   0  0  0  0  0  0  0  0  0  0  0  0
  138.8080   74.4580  221.6850 C   0  0  0  0  0  0  0  0  0  0  0  0
  138.1860   73.0780  221.5780 C   0  0  0  0  0  0  0  0  0  0  0  0
  138.6440   72.2750  222.6890 N   0  0  0  0  0  0  0  0  0  0  0  0
  138.3970   70.8850  222.8040 C   0  0  0  0  0  0  0  0  0  0  0  0
  137.7460   70.2600  221.9180 O   0  0  0  0  0  0  0  0  0  0  0  0
  138.8990   70.1440  223.9680 C   0  0  0  0  0  0  0  0  0  0  0  0
  138.7690   68.7810  224.0380 C   0  0  0  0  0  0  0  0  0  0  0  0
  139.2320   68.0580  225.1200 C   0  0  0  0  0  0  0  0  0  0  0  0
  139.8370   68.7520  226.1460 C   0  0  0  0  0  0  0  0  0  0  0  0
  140.3380   68.1380  227.2750 C   0  0  0  0  0  0  0  0  0  0  0  0
  140.9440   68.8180  228.3050 C   0  0  0  0  0  0  0  0  0  0  0  0
  141.4150   68.1480  229.3890 F   0  0  0  0  0  0  0  0  0  0  0  0
  141.0770   70.1950  228.2350 C   0  0  0  0  0  0  0  0  0  0  0  0
  140.5880   70.8380  227.1210 C   0  0  0  0  0  0  0  0  0  0  0  0
  139.9800   70.1390  226.0930 C   0  0  0  0  0  0  0  0  0  0  0  0
  139.5010   70.7580  225.0060 N   0  0  0  0  0  0  0  0  0  0  0  0
  141.7691   75.4292  222.2619 H   0  0  0  0  0  0  0  0  0  0  0  0
  141.5526   74.2302  220.9420 H   0  0  0  0  0  0  0  0  0  0  0  0
  140.5934   75.7489  220.9420 H   0  0  0  0  0  0  0  0  0  0  0  0
  138.1513   75.1177  222.2712 H   0  0  0  0  0  0  0  0  0  0  0  0
  138.9409   74.8928  220.6833 H   0  0  0  0  0  0  0  0  0  0  0  0
  137.0897   73.1628  221.6099 H   0  0  0  0  0  0  0  0  0  0  0  0
  138.4810   72.6069  220.6288 H   0  0  0  0  0  0  0  0  0  0  0  0
  139.2000   72.7180  223.4810 H   0  0  0  0  0  0  0  0  0  0  0  0
  138.2818   68.2477  223.2084 H   0  0  0  0  0  0  0  0  0  0  0  0
  139.1216   66.9643  225.1616 H   0  0  0  0  0  0  0  0  0  0  0  0
  140.2478   67.0447  227.3557 H   0  0  0  0  0  0  0  0  0  0  0  0
  141.5598   70.7586  229.0469 H   0  0  0  0  0  0  0  0  0  0  0  0
  140.6824   71.9314  227.0460 H   0  0  0  0  0  0  0  0  0  0  0  0
  1  2  1  0
  2  3  1  0
  3  4  1  0
  4  5  1  0
  5  6  1  0
  6  7  2  0
  6  8  1  0
  8  9  2  0
  9 10  1  0
 10 11  2  0
 11 12  1  0
 12 13  2  0
 13 14  1  0
 13 15  1  0
 15 16  2  0
 16 17  1  0
 17 18  2  0
 18  8  1  0
 17 11  1  0
  1 19  1  0
  1 20  1  0
  1 21  1  0
  3 22  1  0
  3 23  1  0
  4 24  1  0
  4 25  1  0
  5 26  1  0
  9 27  1  0
 10 28  1  0
 12 29  1  0
 15 30  1  0
 16 31  1  0
M  END
>  <smiles>  (27) 
COCCNC(=O)c1ccc2cc(F)ccc2n1

>  <score_type>  (27) 
oracle

>  <origin>  (27) 
autodockgpu

>  <m_score__min__energy>  (27) 
-5.71

>  <m_primary>  (27) 
energy

>  <rmsd>  (27) 
1.0464604620538742

>  <m_score__min__rmsd>  (27) 
1.0464604620538742

>  <meeko>  (27) 
{"free_energy": -5.51, "intermolecular_energy": -6.7, "internal_energy": -1.47, "cluster_size": 50, "cluster_id": 1, "rank_in_cluster": 4}

>  <energy>  (27) 
-5.45

>  <cluster_rmsd>  (27) 
1.15

>  <cluster>  (27) 
1

$$$$

     RDKit          3D

 31 32  0  0  0  0  0  0  0  0999 V2000
  141.3160   73.4190  221.2590 C   0  0  0  0  0  0  0  0  0  0  0  0
  140.3280   73.9510  222.1030 O   0  0  0  0  0  0  0  0  0  0  0  0
  139.1770   74.2380  221.3850 C   0  0  0  0  0  0  0  0  0  0  0  0
  138.1840   73.1120  221.6070 C   0  0  0  0  0  0  0  0  0  0  0  0
  138.6410   72.3010  222.7120 N   0  0  0  0  0  0  0  0  0  0  0  0
  138.3920   70.9110  222.8180 C   0  0  0  0  0  0  0  0  0  0  0  0
  137.7400   70.2920  221.9290 O   0  0  0  0  0  0  0  0  0  0  0  0
  138.8950   70.1610  223.9770 C   0  0  0  0  0  0  0  0  0  0  0  0
  138.7610   68.7990  224.0390 C   0  0  0  0  0  0  0  0  0  0  0  0
  139.2230   68.0680  225.1150 C   0  0  0  0  0  0  0  0  0  0  0  0
  139.8330   68.7540  226.1440 C   0  0  0  0  0  0  0  0  0  0  0  0
  140.3340   68.1310  227.2690 C   0  0  0  0  0  0  0  0  0  0  0  0
  140.9440   68.8030  228.3020 C   0  0  0  0  0  0  0  0  0  0  0  0
  141.4150   68.1250  229.3810 F   0  0  0  0  0  0  0  0  0  0  0  0
  141.0810   70.1810  228.2400 C   0  0  0  0  0  0  0  0  0  0  0  0
  140.5910   70.8310  227.1310 C   0  0  0  0  0  0  0  0  0  0  0  0
  139.9790   70.1400  226.0990 C   0  0  0  0  0  0  0  0  0  0  0  0
  139.5000   70.7680  225.0170 N   0  0  0  0  0  0  0  0  0  0  0  0
  142.1229   72.9845  221.8674 H   0  0  0  0  0  0  0  0  0  0  0  0
  140.8738   72.6371  220.6242 H   0  0  0  0  0  0  0  0  0  0  0  0
  141.7254   74.2186  220.6242 H   0  0  0  0  0  0  0  0  0  0  0  0
  138.7469   75.1878  221.7357 H   0  0  0  0  0  0  0  0  0  0  0  0
  139.4114   74.3311  220.3143 H   0  0  0  0  0  0  0  0  0  0  0  0
  137.1946   73.5320  221.8407 H   0  0  0  0  0  0  0  0  0  0  0  0
  138.1062   72.4969  220.6983 H   0  0  0  0  0  0  0  0  0  0  0  0
  139.1990   72.7380  223.5060 H   0  0  0  0  0  0  0  0  0  0  0  0
  138.2708   68.2724  223.2069 H   0  0  0  0  0  0  0  0  0  0  0  0
  139.1084   66.9746  225.1504 H   0  0  0  0  0  0  0  0  0  0  0  0
  140.2402   67.0375  227.3433 H   0  0  0  0  0  0  0  0  0  0  0  0
  141.5674   70.7386  229.0540 H   0  0  0  0  0  0  0  0  0  0  0  0
  140.6876   71.9246  227.0626 H   0  0  0  0  0  0  0  0  0  0  0  0
  1  2  1  0
  2  3  1  0
  3  4  1  0
  4  5  1  0
  5  6  1  0
  6  7  2  0
  6  8  1  0
  8  9  2  0
  9 10  1  0
 10 11  2  0
 11 12  1  0
 12 13  2  0
 13 14  1  0
 13 15  1  0
 15 16  2  0
 16 17  1  0
 17 18  2  0
 18  8  1  0
 17 11  1  0
  1 19  1  0
  1 20  1  0
  1 21  1  0
  3 22  1  0
  3 23  1  0
  4 24  1  0
  4 25  1  0
  5 26  1  0
  9 27  1  0
 10 28  1  0
 12 29  1  0
 15 30  1  0
 16 31  1  0
M  END
>  <smiles>  (28) 
COCCNC(=O)c1ccc2cc(F)ccc2n1

>  <score_type>  (28) 
oracle

>  <origin>  (28) 
autodockgpu

>  <m_score__min__energy>  (28) 
-5.71

>  <m_primary>  (28) 
energy

>  <rmsd>  (28) 
1.0417092925641924

>  <m_score__min__rmsd>  (28) 
1.0417092925641924

>  <meeko>  (28) 
{"free_energy": -5.45, "intermolecular_energy": -6.64, "internal_energy": -1.52, "cluster_size": 50, "cluster_id": 1, "rank_in_cluster": 31}

>  <energy>  (28) 
-5.45

>  <cluster_rmsd>  (28) 
1.15

>  <cluster>  (28) 
1

$$$$

     RDKit          3D

 31 32  0  0  0  0  0  0  0  0999 V2000
  141.0640   73.6680  221.5800 C   0  0  0  0  0  0  0  0  0  0  0  0
  139.9740   74.1410  222.3280 O   0  0  0  0  0  0  0  0  0  0  0  0
  138.8600   74.3020  221.5170 C   0  0  0  0  0  0  0  0  0  0  0  0
  138.0170   73.0430  221.6120 C   0  0  0  0  0  0  0  0  0  0  0  0
  138.4980   72.2450  222.7170 N   0  0  0  0  0  0  0  0  0  0  0  0
  138.3580   70.8370  222.7840 C   0  0  0  0  0  0  0  0  0  0  0  0
  137.7890   70.1900  221.8580 O   0  0  0  0  0  0  0  0  0  0  0  0
  138.8770   70.1020  223.9450 C   0  0  0  0  0  0  0  0  0  0  0  0
  138.7670   68.7370  224.0140 C   0  0  0  0  0  0  0  0  0  0  0  0
  139.2470   68.0200  225.0920 C   0  0  0  0  0  0  0  0  0  0  0  0
  139.8470   68.7210  226.1160 C   0  0  0  0  0  0  0  0  0  0  0  0
  140.3620   68.1130  227.2410 C   0  0  0  0  0  0  0  0  0  0  0  0
  140.9630   68.8010  228.2690 C   0  0  0  0  0  0  0  0  0  0  0  0
  141.4490   68.1370  229.3510 F   0  0  0  0  0  0  0  0  0  0  0  0
  141.0750   70.1800  228.2010 C   0  0  0  0  0  0  0  0  0  0  0  0
  140.5710   70.8170  227.0900 C   0  0  0  0  0  0  0  0  0  0  0  0
  139.9680   70.1100  226.0640 C   0  0  0  0  0  0  0  0  0  0  0  0
  139.4750   70.7240  224.9800 N   0  0  0  0  0  0  0  0  0  0  0  0
  141.8555   73.3245  222.2623 H   0  0  0  0  0  0  0  0  0  0  0  0
  140.7377   72.8305  220.9458 H   0  0  0  0  0  0  0  0  0  0  0  0
  141.4528   74.4784  220.9458 H   0  0  0  0  0  0  0  0  0  0  0  0
  138.2742   75.1687  221.8570 H   0  0  0  0  0  0  0  0  0  0  0  0
  139.1702   74.4734  220.4757 H   0  0  0  0  0  0  0  0  0  0  0  0
  136.9646   73.3142  221.7819 H   0  0  0  0  0  0  0  0  0  0  0  0
  138.0921   72.4704  220.6758 H   0  0  0  0  0  0  0  0  0  0  0  0
  138.9910   72.7050  223.5400 H   0  0  0  0  0  0  0  0  0  0  0  0
  138.2824   68.1976  223.1868 H   0  0  0  0  0  0  0  0  0  0  0  0
  139.1536   66.9247  225.1323 H   0  0  0  0  0  0  0  0  0  0  0  0
  140.2882   67.0184  227.3207 H   0  0  0  0  0  0  0  0  0  0  0  0
  141.5530   70.7495  229.0116 H   0  0  0  0  0  0  0  0  0  0  0  0
  140.6490   71.9117  227.0157 H   0  0  0  0  0  0  0  0  0  0  0  0
  1  2  1  0
  2  3  1  0
  3  4  1  0
  4  5  1  0
  5  6  1  0
  6  7  2  0
  6  8  1  0
  8  9  2  0
  9 10  1  0
 10 11  2  0
 11 12  1  0
 12 13  2  0
 13 14  1  0
 13 15  1  0
 15 16  2  0
 16 17  1  0
 17 18  2  0
 18  8  1  0
 17 11  1  0
  1 19  1  0
  1 20  1  0
  1 21  1  0
  3 22  1  0
  3 23  1  0
  4 24  1  0
  4 25  1  0
  5 26  1  0
  9 27  1  0
 10 28  1  0
 12 29  1  0
 15 30  1  0
 16 31  1  0
M  END
>  <smiles>  (29) 
COCCNC(=O)c1ccc2cc(F)ccc2n1

>  <score_type>  (29) 
oracle

>  <origin>  (29) 
autodockgpu

>  <m_score__min__energy>  (29) 
-5.71

>  <m_primary>  (29) 
energy

>  <rmsd>  (29) 
1.0574481984923765

>  <m_score__min__rmsd>  (29) 
1.0574481984923765

>  <meeko>  (29) 
{"free_energy": -5.44, "intermolecular_energy": -6.63, "internal_energy": -1.53, "cluster_size": 50, "cluster_id": 1, "rank_in_cluster": 36}

>  <energy>  (29) 
-5.45

>  <cluster_rmsd>  (29) 
1.26

>  <cluster>  (29) 
1

$$$$

     RDKit          3D

 31 32  0  0  0  0  0  0  0  0999 V2000
  141.0760   73.7380  221.4230 C   0  0  0  0  0  0  0  0  0  0  0  0
  140.0400   74.1590  222.2720 O   0  0  0  0  0  0  0  0  0  0  0  0
  138.8690   74.3500  221.5540 C   0  0  0  0  0  0  0  0  0  0  0  0
  138.0540   73.0710  221.6250 C   0  0  0  0  0  0  0  0  0  0  0  0
  138.5480   72.2670  222.7190 N   0  0  0  0  0  0  0  0  0  0  0  0
  138.3040   70.8770  222.8410 C   0  0  0  0  0  0  0  0  0  0  0  0
  137.6240   70.2530  221.9760 O   0  0  0  0  0  0  0  0  0  0  0  0
  138.8440   70.1340  223.9870 C   0  0  0  0  0  0  0  0  0  0  0  0
  138.7600   68.7670  224.0350 C   0  0  0  0  0  0  0  0  0  0  0  0
  139.2590   68.0420  225.0990 C   0  0  0  0  0  0  0  0  0  0  0  0
  139.8530   68.7380  226.1300 C   0  0  0  0  0  0  0  0  0  0  0  0
  140.3870   68.1220  227.2430 C   0  0  0  0  0  0  0  0  0  0  0  0
  140.9830   68.8050  228.2780 C   0  0  0  0  0  0  0  0  0  0  0  0
  141.4880   68.1340  229.3460 F   0  0  0  0  0  0  0  0  0  0  0  0
  141.0680   70.1880  228.2300 C   0  0  0  0  0  0  0  0  0  0  0  0
  140.5450   70.8320  227.1320 C   0  0  0  0  0  0  0  0  0  0  0  0
  139.9490   70.1300  226.0990 C   0  0  0  0  0  0  0  0  0  0  0  0
  139.4370   70.7510  225.0280 N   0  0  0  0  0  0  0  0  0  0  0  0
  141.9275   73.3920  222.0273 H   0  0  0  0  0  0  0  0  0  0  0  0
  140.7180   72.9140  220.7883 H   0  0  0  0  0  0  0  0  0  0  0  0
  141.3942   74.5782  220.7883 H   0  0  0  0  0  0  0  0  0  0  0  0
  138.2960   75.1812  221.9907 H   0  0  0  0  0  0  0  0  0  0  0  0
  139.1013   74.5944  220.5070 H   0  0  0  0  0  0  0  0  0  0  0  0
  136.9950   73.3158  221.7943 H   0  0  0  0  0  0  0  0  0  0  0  0
  138.1458   72.5152  220.6802 H   0  0  0  0  0  0  0  0  0  0  0  0
  139.1300   72.7080  223.4930 H   0  0  0  0  0  0  0  0  0  0  0  0
  138.2812   68.2318  223.2018 H   0  0  0  0  0  0  0  0  0  0  0  0
  139.1849   66.9448  225.1231 H   0  0  0  0  0  0  0  0  0  0  0  0
  140.3333   67.0251  227.3064 H   0  0  0  0  0  0  0  0  0  0  0  0
  141.5400   70.7544  229.0463 H   0  0  0  0  0  0  0  0  0  0  0  0
  140.6020   71.9290  227.0742 H   0  0  0  0  0  0  0  0  0  0  0  0
  1  2  1  0
  2  3  1  0
  3  4  1  0
  4  5  1  0
  5  6  1  0
  6  7  2  0
  6  8  1  0
  8  9  2  0
  9 10  1  0
 10 11  2  0
 11 12  1  0
 12 13  2  0
 13 14  1  0
 13 15  1  0
 15 16  2  0
 16 17  1  0
 17 18  2  0
 18  8  1  0
 17 11  1  0
  1 19  1  0
  1 20  1  0
  1 21  1  0
  3 22  1  0
  3 23  1  0
  4 24  1  0
  4 25  1  0
  5 26  1  0
  9 27  1  0
 10 28  1  0
 12 29  1  0
 15 30  1  0
 16 31  1  0
M  END
>  <smiles>  (30) 
COCCNC(=O)c1ccc2cc(F)ccc2n1

>  <score_type>  (30) 
oracle

>  <origin>  (30) 
autodockgpu

>  <m_score__min__energy>  (30) 
-5.71

>  <m_primary>  (30) 
energy

>  <rmsd>  (30) 
1.077880253492153

>  <m_score__min__rmsd>  (30) 
1.077880253492153

>  <meeko>  (30) 
{"free_energy": -5.47, "intermolecular_energy": -6.66, "internal_energy": -1.51, "cluster_size": 50, "cluster_id": 1, "rank_in_cluster": 18}

>  <energy>  (30) 
-5.45

>  <cluster_rmsd>  (30) 
1.33

>  <cluster>  (30) 
1

$$$$

     RDKit          3D

 31 32  0  0  0  0  0  0  0  0999 V2000
  141.0860   75.2920  221.5790 C   0  0  0  0  0  0  0  0  0  0  0  0
  139.9740   74.6830  222.1810 O   0  0  0  0  0  0  0  0  0  0  0  0
  138.8620   74.7760  221.3590 C   0  0  0  0  0  0  0  0  0  0  0  0
  138.2390   73.3960  221.2430 C   0  0  0  0  0  0  0  0  0  0  0  0
  138.6680   72.5980  222.3690 N   0  0  0  0  0  0  0  0  0  0  0  0
  138.4830   71.1960  222.4490 C   0  0  0  0  0  0  0  0  0  0  0  0
  137.9200   70.5550  221.5160 O   0  0  0  0  0  0  0  0  0  0  0  0
  138.9500   70.4600  223.6310 C   0  0  0  0  0  0  0  0  0  0  0  0
  138.7800   69.1030  223.7220 C   0  0  0  0  0  0  0  0  0  0  0  0
  139.2090   68.3860  224.8210 C   0  0  0  0  0  0  0  0  0  0  0  0
  139.8220   69.0790  225.8430 C   0  0  0  0  0  0  0  0  0  0  0  0
  140.2910   68.4690  226.9880 C   0  0  0  0  0  0  0  0  0  0  0  0
  140.9050   69.1490  228.0140 C   0  0  0  0  0  0  0  0  0  0  0  0
  141.3430   68.4840  229.1150 F   0  0  0  0  0  0  0  0  0  0  0  0
  141.0780   70.5210  227.9230 C   0  0  0  0  0  0  0  0  0  0  0  0
  140.6210   71.1580  226.7930 C   0  0  0  0  0  0  0  0  0  0  0  0
  140.0050   70.4600  225.7690 C   0  0  0  0  0  0  0  0  0  0  0  0
  139.5570   71.0740  224.6660 N   0  0  0  0  0  0  0  0  0  0  0  0
  141.7667   75.6648  222.3586 H   0  0  0  0  0  0  0  0  0  0  0  0
  141.6128   74.5565  220.9533 H   0  0  0  0  0  0  0  0  0  0  0  0
  140.7500   76.1320  220.9533 H   0  0  0  0  0  0  0  0  0  0  0  0
  138.1349   75.4771  221.7946 H   0  0  0  0  0  0  0  0  0  0  0  0
  139.1549   75.1447  220.3649 H   0  0  0  0  0  0  0  0  0  0  0  0
  137.1425   73.4833  221.2475 H   0  0  0  0  0  0  0  0  0  0  0  0
  138.5557   72.9195  220.3035 H   0  0  0  0  0  0  0  0  0  0  0  0
  139.1520   73.0530  223.2000 H   0  0  0  0  0  0  0  0  0  0  0  0
  138.2875   68.5698  222.8955 H   0  0  0  0  0  0  0  0  0  0  0  0
  139.0663   67.2969  224.8793 H   0  0  0  0  0  0  0  0  0  0  0  0
  140.1673   67.3804  227.0858 H   0  0  0  0  0  0  0  0  0  0  0  0
  141.5669   71.0844  228.7314 H   0  0  0  0  0  0  0  0  0  0  0  0
  140.7480   72.2468  226.7011 H   0  0  0  0  0  0  0  0  0  0  0  0
  1  2  1  0
  2  3  1  0
  3  4  1  0
  4  5  1  0
  5  6  1  0
  6  7  2  0
  6  8  1  0
  8  9  2  0
  9 10  1  0
 10 11  2  0
 11 12  1  0
 12 13  2  0
 13 14  1  0
 13 15  1  0
 15 16  2  0
 16 17  1  0
 17 18  2  0
 18  8  1  0
 17 11  1  0
  1 19  1  0
  1 20  1  0
  1 21  1  0
  3 22  1  0
  3 23  1  0
  4 24  1  0
  4 25  1  0
  5 26  1  0
  9 27  1  0
 10 28  1  0
 12 29  1  0
 15 30  1  0
 16 31  1  0
M  END
>  <smiles>  (31) 
COCCNC(=O)c1ccc2cc(F)ccc2n1

>  <score_type>  (31) 
oracle

>  <origin>  (31) 
autodockgpu

>  <m_score__min__energy>  (31) 
-5.71

>  <m_primary>  (31) 
energy

>  <rmsd>  (31) 
0.7491904650806276

>  <m_score__min__rmsd>  (31) 
0.7491904650806276

>  <meeko>  (31) 
{"free_energy": -5.46, "intermolecular_energy": -6.65, "internal_energy": -1.49, "cluster_size": 50, "cluster_id": 1, "rank_in_cluster": 22}

>  <energy>  (31) 
-5.45

>  <cluster_rmsd>  (31) 
1.31

>  <cluster>  (31) 
1

$$$$

     RDKit          3D

 31 32  0  0  0  0  0  0  0  0999 V2000
  141.0660   74.9070  221.5970 C   0  0  0  0  0  0  0  0  0  0  0  0
  140.0290   74.3040  222.3270 O   0  0  0  0  0  0  0  0  0  0  0  0
  138.8210   74.4380  221.6610 C   0  0  0  0  0  0  0  0  0  0  0  0
  138.1710   73.0690  221.5740 C   0  0  0  0  0  0  0  0  0  0  0  0
  138.6310   72.2660  222.6830 N   0  0  0  0  0  0  0  0  0  0  0  0
  138.3990   70.8730  222.7900 C   0  0  0  0  0  0  0  0  0  0  0  0
  137.7610   70.2450  221.8960 O   0  0  0  0  0  0  0  0  0  0  0  0
  138.9030   70.1310  223.9530 C   0  0  0  0  0  0  0  0  0  0  0  0
  138.7740   68.7680  224.0220 C   0  0  0  0  0  0  0  0  0  0  0  0
  139.2380   68.0450  225.1030 C   0  0  0  0  0  0  0  0  0  0  0  0
  139.8440   68.7390  226.1290 C   0  0  0  0  0  0  0  0  0  0  0  0
  140.3450   68.1230  227.2570 C   0  0  0  0  0  0  0  0  0  0  0  0
  140.9520   68.8030  228.2870 C   0  0  0  0  0  0  0  0  0  0  0  0
  141.4240   68.1330  229.3710 F   0  0  0  0  0  0  0  0  0  0  0  0
  141.0840   70.1810  228.2190 C   0  0  0  0  0  0  0  0  0  0  0  0
  140.5930   70.8240  227.1050 C   0  0  0  0  0  0  0  0  0  0  0  0
  139.9850   70.1250  226.0770 C   0  0  0  0  0  0  0  0  0  0  0  0
  139.5050   70.7450  224.9910 N   0  0  0  0  0  0  0  0  0  0  0  0
  141.8028   75.3355  222.2923 H   0  0  0  0  0  0  0  0  0  0  0  0
  141.5552   74.1525  220.9634 H   0  0  0  0  0  0  0  0  0  0  0  0
  140.6523   75.7054  220.9634 H   0  0  0  0  0  0  0  0  0  0  0  0
  138.1655   75.1266  222.2143 H   0  0  0  0  0  0  0  0  0  0  0  0
  138.9871   74.8438  220.6522 H   0  0  0  0  0  0  0  0  0  0  0  0
  137.0772   73.1750  221.6225 H   0  0  0  0  0  0  0  0  0  0  0  0
  138.4418   72.5855  220.6238 H   0  0  0  0  0  0  0  0  0  0  0  0
  139.1770   72.7100  223.4810 H   0  0  0  0  0  0  0  0  0  0  0  0
  138.2868   68.2349  223.1923 H   0  0  0  0  0  0  0  0  0  0  0  0
  139.1279   66.9513  225.1444 H   0  0  0  0  0  0  0  0  0  0  0  0
  140.2542   67.0297  227.3370 H   0  0  0  0  0  0  0  0  0  0  0  0
  141.5668   70.7443  229.0311 H   0  0  0  0  0  0  0  0  0  0  0  0
  140.6861   71.9175  227.0304 H   0  0  0  0  0  0  0  0  0  0  0  0
  1  2  1  0
  2  3  1  0
  3  4  1  0
  4  5  1  0
  5  6  1  0
  6  7  2  0
  6  8  1  0
  8  9  2  0
  9 10  1  0
 10 11  2  0
 11 12  1  0
 12 13  2  0
 13 14  1  0
 13 15  1  0
 15 16  2  0
 16 17  1  0
 17 18  2  0
 18  8  1  0
 17 11  1  0
  1 19  1  0
  1 20  1  0
  1 21  1  0
  3 22  1  0
  3 23  1  0
  4 24  1  0
  4 25  1  0
  5 26  1  0
  9 27  1  0
 10 28  1  0
 12 29  1  0
 15 30  1  0
 16 31  1  0
M  END
>  <smiles>  (32) 
COCCNC(=O)c1ccc2cc(F)ccc2n1

>  <score_type>  (32) 
oracle

>  <origin>  (32) 
autodockgpu

>  <m_score__min__energy>  (32) 
-5.71

>  <m_primary>  (32) 
energy

>  <rmsd>  (32) 
1.042650208988558

>  <m_score__min__rmsd>  (32) 
1.042650208988558

>  <meeko>  (32) 
{"free_energy": -5.5, "intermolecular_energy": -6.7, "internal_energy": -1.48, "cluster_size": 50, "cluster_id": 1, "rank_in_cluster": 8}

>  <energy>  (32) 
-5.45

>  <cluster_rmsd>  (32) 
1.15

>  <cluster>  (32) 
1

$$$$

     RDKit          3D

 31 32  0  0  0  0  0  0  0  0999 V2000
  140.6840   76.5050  222.1630 C   0  0  0  0  0  0  0  0  0  0  0  0
  140.5400   75.1160  222.0170 O   0  0  0  0  0  0  0  0  0  0  0  0
  139.8790   74.8150  220.8360 C   0  0  0  0  0  0  0  0  0  0  0  0
  139.0380   73.5720  221.0650 C   0  0  0  0  0  0  0  0  0  0  0  0
  139.4110   72.9870  222.3330 N   0  0  0  0  0  0  0  0  0  0  0  0
  139.6370   71.6020  222.5190 C   0  0  0  0  0  0  0  0  0  0  0  0
  139.5200   70.7840  221.5610 O   0  0  0  0  0  0  0  0  0  0  0  0
  140.0130   71.0900  223.8430 C   0  0  0  0  0  0  0  0  0  0  0  0
  140.6640   71.8940  224.7430 C   0  0  0  0  0  0  0  0  0  0  0  0
  141.0310   71.4410  225.9950 C   0  0  0  0  0  0  0  0  0  0  0  0
  140.7220   70.1380  226.3230 C   0  0  0  0  0  0  0  0  0  0  0  0
  141.0380   69.5760  227.5430 C   0  0  0  0  0  0  0  0  0  0  0  0
  140.7360   68.2790  227.8830 C   0  0  0  0  0  0  0  0  0  0  0  0
  141.0770   67.7890  229.1040 F   0  0  0  0  0  0  0  0  0  0  0  0
  140.0780   67.4650  226.9740 C   0  0  0  0  0  0  0  0  0  0  0  0
  139.7480   67.9960  225.7490 C   0  0  0  0  0  0  0  0  0  0  0  0
  140.0600   69.3050  225.4210 C   0  0  0  0  0  0  0  0  0  0  0  0
  139.7430   69.8280  224.2300 N   0  0  0  0  0  0  0  0  0  0  0  0
  140.7105   76.7605  223.2326 H   0  0  0  0  0  0  0  0  0  0  0  0
  141.6205   76.8287  221.6854 H   0  0  0  0  0  0  0  0  0  0  0  0
  139.8338   77.0140  221.6854 H   0  0  0  0  0  0  0  0  0  0  0  0
  139.2303   75.6554  220.5481 H   0  0  0  0  0  0  0  0  0  0  0  0
  140.6054   74.6382  220.0291 H   0  0  0  0  0  0  0  0  0  0  0  0
  137.9723   73.8441  221.0821 H   0  0  0  0  0  0  0  0  0  0  0  0
  139.2094   72.8490  220.2539 H   0  0  0  0  0  0  0  0  0  0  0  0
  139.5320   73.6000  223.1950 H   0  0  0  0  0  0  0  0  0  0  0  0
  140.9009   72.9301  224.4595 H   0  0  0  0  0  0  0  0  0  0  0  0
  141.5525   72.0979  226.7067 H   0  0  0  0  0  0  0  0  0  0  0  0
  141.5599   70.1998  228.2836 H   0  0  0  0  0  0  0  0  0  0  0  0
  139.8270   66.4239  227.2254 H   0  0  0  0  0  0  0  0  0  0  0  0
  139.2248   67.3673  225.0135 H   0  0  0  0  0  0  0  0  0  0  0  0
  1  2  1  0
  2  3  1  0
  3  4  1  0
  4  5  1  0
  5  6  1  0
  6  7  2  0
  6  8  1  0
  8  9  2  0
  9 10  1  0
 10 11  2  0
 11 12  1  0
 12 13  2  0
 13 14  1  0
 13 15  1  0
 15 16  2  0
 16 17  1  0
 17 18  2  0
 18  8  1  0
 17 11  1  0
  1 19  1  0
  1 20  1  0
  1 21  1  0
  3 22  1  0
  3 23  1  0
  4 24  1  0
  4 25  1  0
  5 26  1  0
  9 27  1  0
 10 28  1  0
 12 29  1  0
 15 30  1  0
 16 31  1  0
M  END
>  <smiles>  (33) 
COCCNC(=O)c1ccc2cc(F)ccc2n1

>  <score_type>  (33) 
oracle

>  <origin>  (33) 
autodockgpu

>  <m_score__min__energy>  (33) 
-5.71

>  <m_primary>  (33) 
energy

>  <rmsd>  (33) 
2.886138464264067

>  <m_score__min__rmsd>  (33) 
2.886138464264067

>  <meeko>  (33) 
{"free_energy": -5.69, "intermolecular_energy": -6.89, "internal_energy": -1.19, "cluster_size": 50, "cluster_id": 1, "rank_in_cluster": 3}

>  <energy>  (33) 
-5.45

>  <cluster_rmsd>  (33) 
1.15

>  <cluster>  (33) 
1

$$$$

     RDKit          3D

 31 32  0  0  0  0  0  0  0  0999 V2000
  141.1100   75.1440  221.5720 C   0  0  0  0  0  0  0  0  0  0  0  0
  139.9830   74.4370  222.0200 O   0  0  0  0  0  0  0  0  0  0  0  0
  138.9380   74.5630  221.1180 C   0  0  0  0  0  0  0  0  0  0  0  0
  138.0490   73.3390  221.2470 C   0  0  0  0  0  0  0  0  0  0  0  0
  138.4990   72.5550  222.3730 N   0  0  0  0  0  0  0  0  0  0  0  0
  138.4630   71.1390  222.4050 C   0  0  0  0  0  0  0  0  0  0  0  0
  138.0240   70.4730  221.4250 O   0  0  0  0  0  0  0  0  0  0  0  0
  138.9430   70.4200  223.5920 C   0  0  0  0  0  0  0  0  0  0  0  0
  138.7920   69.0610  223.6940 C   0  0  0  0  0  0  0  0  0  0  0  0
  139.2330   68.3580  224.7970 C   0  0  0  0  0  0  0  0  0  0  0  0
  139.8370   69.0670  225.8130 C   0  0  0  0  0  0  0  0  0  0  0  0
  140.3160   68.4730  226.9620 C   0  0  0  0  0  0  0  0  0  0  0  0
  140.9200   69.1690  227.9830 C   0  0  0  0  0  0  0  0  0  0  0  0
  141.3700   68.5190  229.0880 F   0  0  0  0  0  0  0  0  0  0  0  0
  141.0730   70.5430  227.8820 C   0  0  0  0  0  0  0  0  0  0  0  0
  140.6060   71.1650  226.7470 C   0  0  0  0  0  0  0  0  0  0  0  0
  139.9990   70.4510  225.7290 C   0  0  0  0  0  0  0  0  0  0  0  0
  139.5410   71.0500  224.6220 N   0  0  0  0  0  0  0  0  0  0  0  0
  141.6847   75.5045  222.4379 H   0  0  0  0  0  0  0  0  0  0  0  0
  141.7415   74.4799  220.9636 H   0  0  0  0  0  0  0  0  0  0  0  0
  140.7869   76.0015  220.9636 H   0  0  0  0  0  0  0  0  0  0  0  0
  138.3581   75.4698  221.3445 H   0  0  0  0  0  0  0  0  0  0  0  0
  139.3288   74.6421  220.0928 H   0  0  0  0  0  0  0  0  0  0  0  0
  137.0073   73.6537  221.4080 H   0  0  0  0  0  0  0  0  0  0  0  0
  138.1034   72.7383  220.3271 H   0  0  0  0  0  0  0  0  0  0  0  0
  138.8860   73.0320  223.2420 H   0  0  0  0  0  0  0  0  0  0  0  0
  138.3051   68.5149  222.8726 H   0  0  0  0  0  0  0  0  0  0  0  0
  139.1065   67.2673  224.8630 H   0  0  0  0  0  0  0  0  0  0  0  0
  140.2091   67.3833  227.0675 H   0  0  0  0  0  0  0  0  0  0  0  0
  141.5539   71.1194  228.6860 H   0  0  0  0  0  0  0  0  0  0  0  0
  140.7178   72.2547  226.6466 H   0  0  0  0  0  0  0  0  0  0  0  0
  1  2  1  0
  2  3  1  0
  3  4  1  0
  4  5  1  0
  5  6  1  0
  6  7  2  0
  6  8  1  0
  8  9  2  0
  9 10  1  0
 10 11  2  0
 11 12  1  0
 12 13  2  0
 13 14  1  0
 13 15  1  0
 15 16  2  0
 16 17  1  0
 17 18  2  0
 18  8  1  0
 17 11  1  0
  1 19  1  0
  1 20  1  0
  1 21  1  0
  3 22  1  0
  3 23  1  0
  4 24  1  0
  4 25  1  0
  5 26  1  0
  9 27  1  0
 10 28  1  0
 12 29  1  0
 15 30  1  0
 16 31  1  0
M  END
>  <smiles>  (34) 
COCCNC(=O)c1ccc2cc(F)ccc2n1

>  <score_type>  (34) 
oracle

>  <origin>  (34) 
autodockgpu

>  <m_score__min__energy>  (34) 
-5.71

>  <m_primary>  (34) 
energy

>  <rmsd>  (34) 
0.7481268758330614

>  <m_score__min__rmsd>  (34) 
0.7481268758330614

>  <meeko>  (34) 
{"free_energy": -5.43, "intermolecular_energy": -6.62, "internal_energy": -1.5, "cluster_size": 50, "cluster_id": 1, "rank_in_cluster": 44}

>  <energy>  (34) 
-5.44

>  <cluster_rmsd>  (34) 
1.32

>  <cluster>  (34) 
1

$$$$

     RDKit          3D

 31 32  0  0  0  0  0  0  0  0999 V2000
  140.6800   75.9720  221.9730 C   0  0  0  0  0  0  0  0  0  0  0  0
  140.1480   74.6740  222.0300 O   0  0  0  0  0  0  0  0  0  0  0  0
  139.4100   74.3990  220.8880 C   0  0  0  0  0  0  0  0  0  0  0  0
  138.2910   73.4440  221.2640 C   0  0  0  0  0  0  0  0  0  0  0  0
  138.7210   72.6460  222.3880 N   0  0  0  0  0  0  0  0  0  0  0  0
  138.4790   71.2540  222.4980 C   0  0  0  0  0  0  0  0  0  0  0  0
  137.8600   70.6240  221.5930 O   0  0  0  0  0  0  0  0  0  0  0  0
  138.9520   70.5180  223.6770 C   0  0  0  0  0  0  0  0  0  0  0  0
  138.7910   69.1590  223.7630 C   0  0  0  0  0  0  0  0  0  0  0  0
  139.2250   68.4400  224.8590 C   0  0  0  0  0  0  0  0  0  0  0  0
  139.8330   69.1340  225.8830 C   0  0  0  0  0  0  0  0  0  0  0  0
  140.3060   68.5230  227.0260 C   0  0  0  0  0  0  0  0  0  0  0  0
  140.9150   69.2030  228.0550 C   0  0  0  0  0  0  0  0  0  0  0  0
  141.3580   68.5370  229.1530 F   0  0  0  0  0  0  0  0  0  0  0  0
  141.0780   70.5760  227.9700 C   0  0  0  0  0  0  0  0  0  0  0  0
  140.6170   71.2150  226.8420 C   0  0  0  0  0  0  0  0  0  0  0  0
  140.0060   70.5160  225.8150 C   0  0  0  0  0  0  0  0  0  0  0  0
  139.5540   71.1320  224.7140 N   0  0  0  0  0  0  0  0  0  0  0  0
  140.8349   76.3499  222.9944 H   0  0  0  0  0  0  0  0  0  0  0  0
  141.6420   75.9509  221.4400 H   0  0  0  0  0  0  0  0  0  0  0  0
  139.9799   76.6321  221.4400 H   0  0  0  0  0  0  0  0  0  0  0  0
  138.9850   75.3306  220.4861 H   0  0  0  0  0  0  0  0  0  0  0  0
  140.0539   73.9458  220.1198 H   0  0  0  0  0  0  0  0  0  0  0  0
  137.3926   74.0163  221.5386 H   0  0  0  0  0  0  0  0  0  0  0  0
  138.0526   72.7918  220.4109 H   0  0  0  0  0  0  0  0  0  0  0  0
  139.2500   73.0930  223.1970 H   0  0  0  0  0  0  0  0  0  0  0  0
  138.3017   68.6259  222.9345 H   0  0  0  0  0  0  0  0  0  0  0  0
  139.0900   67.3497  224.9131 H   0  0  0  0  0  0  0  0  0  0  0  0
  140.1898   67.4332  227.1195 H   0  0  0  0  0  0  0  0  0  0  0  0
  141.5622   71.1394  228.7812 H   0  0  0  0  0  0  0  0  0  0  0  0
  140.7365   72.3050  226.7543 H   0  0  0  0  0  0  0  0  0  0  0  0
  1  2  1  0
  2  3  1  0
  3  4  1  0
  4  5  1  0
  5  6  1  0
  6  7  2  0
  6  8  1  0
  8  9  2  0
  9 10  1  0
 10 11  2  0
 11 12  1  0
 12 13  2  0
 13 14  1  0
 13 15  1  0
 15 16  2  0
 16 17  1  0
 17 18  2  0
 18  8  1  0
 17 11  1  0
  1 19  1  0
  1 20  1  0
  1 21  1  0
  3 22  1  0
  3 23  1  0
  4 24  1  0
  4 25  1  0
  5 26  1  0
  9 27  1  0
 10 28  1  0
 12 29  1  0
 15 30  1  0
 16 31  1  0
M  END
>  <smiles>  (35) 
COCCNC(=O)c1ccc2cc(F)ccc2n1

>  <score_type>  (35) 
oracle

>  <origin>  (35) 
autodockgpu

>  <m_score__min__energy>  (35) 
-5.71

>  <m_primary>  (35) 
energy

>  <rmsd>  (35) 
0.7639225395817233

>  <m_score__min__rmsd>  (35) 
0.7639225395817233

>  <meeko>  (35) 
{"free_energy": -5.45, "intermolecular_energy": -6.64, "internal_energy": -1.47, "cluster_size": 50, "cluster_id": 1, "rank_in_cluster": 33}

>  <energy>  (35) 
-5.44

>  <cluster_rmsd>  (35) 
1.17

>  <cluster>  (35) 
1

$$$$

     RDKit          3D

 31 32  0  0  0  0  0  0  0  0999 V2000
  141.2800   73.7510  221.2480 C   0  0  0  0  0  0  0  0  0  0  0  0
  140.2970   74.1280  222.1770 O   0  0  0  0  0  0  0  0  0  0  0  0
  139.0950   74.3870  221.5360 C   0  0  0  0  0  0  0  0  0  0  0  0
  138.2460   73.1300  221.5900 C   0  0  0  0  0  0  0  0  0  0  0  0
  138.6900   72.3180  222.7000 N   0  0  0  0  0  0  0  0  0  0  0  0
  138.4130   70.9330  222.8160 C   0  0  0  0  0  0  0  0  0  0  0  0
  137.7470   70.3220  221.9310 O   0  0  0  0  0  0  0  0  0  0  0  0
  138.9030   70.1820  223.9780 C   0  0  0  0  0  0  0  0  0  0  0  0
  138.7480   68.8210  224.0470 C   0  0  0  0  0  0  0  0  0  0  0  0
  139.1990   68.0890  225.1270 C   0  0  0  0  0  0  0  0  0  0  0  0
  139.8180   68.7700  226.1530 C   0  0  0  0  0  0  0  0  0  0  0  0
  140.3080   68.1450  227.2810 C   0  0  0  0  0  0  0  0  0  0  0  0
  140.9270   68.8120  228.3120 C   0  0  0  0  0  0  0  0  0  0  0  0
  141.3860   68.1330  229.3950 F   0  0  0  0  0  0  0  0  0  0  0  0
  141.0840   70.1880  228.2440 C   0  0  0  0  0  0  0  0  0  0  0  0
  140.6060   70.8400  227.1310 C   0  0  0  0  0  0  0  0  0  0  0  0
  139.9840   70.1540  226.1020 C   0  0  0  0  0  0  0  0  0  0  0  0
  139.5170   70.7830  225.0160 N   0  0  0  0  0  0  0  0  0  0  0  0
  142.1774   73.4068  221.7830 H   0  0  0  0  0  0  0  0  0  0  0  0
  140.8948   72.9368  220.6166 H   0  0  0  0  0  0  0  0  0  0  0  0
  141.5380   74.6140  220.6166 H   0  0  0  0  0  0  0  0  0  0  0  0
  138.5725   75.2110  222.0440 H   0  0  0  0  0  0  0  0  0  0  0  0
  139.2775   74.6766  220.4906 H   0  0  0  0  0  0  0  0  0  0  0  0
  137.1896   73.4026  221.7302 H   0  0  0  0  0  0  0  0  0  0  0  0
  138.3485   72.5679  220.6500 H   0  0  0  0  0  0  0  0  0  0  0  0
  139.2570   72.7480  223.4900 H   0  0  0  0  0  0  0  0  0  0  0  0
  138.2498   68.2975  223.2177 H   0  0  0  0  0  0  0  0  0  0  0  0
  139.0686   66.9975  225.1674 H   0  0  0  0  0  0  0  0  0  0  0  0
  140.1975   67.0534  227.3601 H   0  0  0  0  0  0  0  0  0  0  0  0
  141.5765   70.7422  229.0566 H   0  0  0  0  0  0  0  0  0  0  0  0
  140.7207   71.9315  227.0570 H   0  0  0  0  0  0  0  0  0  0  0  0
  1  2  1  0
  2  3  1  0
  3  4  1  0
  4  5  1  0
  5  6  1  0
  6  7  2  0
  6  8  1  0
  8  9  2  0
  9 10  1  0
 10 11  2  0
 11 12  1  0
 12 13  2  0
 13 14  1  0
 13 15  1  0
 15 16  2  0
 16 17  1  0
 17 18  2  0
 18  8  1  0
 17 11  1  0
  1 19  1  0
  1 20  1  0
  1 21  1  0
  3 22  1  0
  3 23  1  0
  4 24  1  0
  4 25  1  0
  5 26  1  0
  9 27  1  0
 10 28  1  0
 12 29  1  0
 15 30  1  0
 16 31  1  0
M  END
>  <smiles>  (36) 
COCCNC(=O)c1ccc2cc(F)ccc2n1

>  <score_type>  (36) 
oracle

>  <origin>  (36) 
autodockgpu

>  <m_score__min__energy>  (36) 
-5.71

>  <m_primary>  (36) 
energy

>  <rmsd>  (36) 
1.0315113661941189

>  <m_score__min__rmsd>  (36) 
1.0315113661941189

>  <meeko>  (36) 
{"free_energy": -5.48, "intermolecular_energy": -6.67, "internal_energy": -1.51, "cluster_size": 50, "cluster_id": 1, "rank_in_cluster": 12}

>  <energy>  (36) 
-5.44

>  <cluster_rmsd>  (36) 
1.31

>  <cluster>  (36) 
1

$$$$

     RDKit          3D

 31 32  0  0  0  0  0  0  0  0999 V2000
  141.0520   75.4770  221.5860 C   0  0  0  0  0  0  0  0  0  0  0  0
  140.0000   74.8410  222.2630 O   0  0  0  0  0  0  0  0  0  0  0  0
  138.8380   74.8820  221.5080 C   0  0  0  0  0  0  0  0  0  0  0  0
  138.3840   73.4560  221.2550 C   0  0  0  0  0  0  0  0  0  0  0  0
  138.7780   72.6370  222.3780 N   0  0  0  0  0  0  0  0  0  0  0  0
  138.5860   71.2350  222.4300 C   0  0  0  0  0  0  0  0  0  0  0  0
  138.0460   70.6120  221.4710 O   0  0  0  0  0  0  0  0  0  0  0  0
  139.0180   70.4780  223.6120 C   0  0  0  0  0  0  0  0  0  0  0  0
  138.8180   69.1240  223.6860 C   0  0  0  0  0  0  0  0  0  0  0  0
  139.2130   68.3860  224.7840 C   0  0  0  0  0  0  0  0  0  0  0  0
  139.8220   69.0560  225.8240 C   0  0  0  0  0  0  0  0  0  0  0  0
  140.2590   68.4250  226.9700 C   0  0  0  0  0  0  0  0  0  0  0  0
  140.8690   69.0820  228.0140 C   0  0  0  0  0  0  0  0  0  0  0  0
  141.2740   68.3970  229.1150 F   0  0  0  0  0  0  0  0  0  0  0  0
  141.0720   70.4510  227.9410 C   0  0  0  0  0  0  0  0  0  0  0  0
  140.6470   71.1090  226.8090 C   0  0  0  0  0  0  0  0  0  0  0  0
  140.0350   70.4340  225.7670 C   0  0  0  0  0  0  0  0  0  0  0  0
  139.6190   71.0690  224.6640 N   0  0  0  0  0  0  0  0  0  0  0  0
  141.7550   75.9020  222.3176 H   0  0  0  0  0  0  0  0  0  0  0  0
  141.5775   74.7451  220.9549 H   0  0  0  0  0  0  0  0  0  0  0  0
  140.6481   76.2824  220.9549 H   0  0  0  0  0  0  0  0  0  0  0  0
  138.0571   75.4293  222.0564 H   0  0  0  0  0  0  0  0  0  0  0  0
  139.0241   75.3957  220.5533 H   0  0  0  0  0  0  0  0  0  0  0  0
  137.2899   73.4303  221.1442 H   0  0  0  0  0  0  0  0  0  0  0  0
  138.8463   73.0741  220.3328 H   0  0  0  0  0  0  0  0  0  0  0  0
  139.2410   73.0770  223.2300 H   0  0  0  0  0  0  0  0  0  0  0  0
  138.3283   68.6101  222.8457 H   0  0  0  0  0  0  0  0  0  0  0  0
  139.0473   67.2994  224.8277 H   0  0  0  0  0  0  0  0  0  0  0  0
  140.1120   67.3381  227.0539 H   0  0  0  0  0  0  0  0  0  0  0  0
  141.5585   70.9958  228.7635 H   0  0  0  0  0  0  0  0  0  0  0  0
  140.7972   72.1959  226.7308 H   0  0  0  0  0  0  0  0  0  0  0  0
  1  2  1  0
  2  3  1  0
  3  4  1  0
  4  5  1  0
  5  6  1  0
  6  7  2  0
  6  8  1  0
  8  9  2  0
  9 10  1  0
 10 11  2  0
 11 12  1  0
 12 13  2  0
 13 14  1  0
 13 15  1  0
 15 16  2  0
 16 17  1  0
 17 18  2  0
 18  8  1  0
 17 11  1  0
  1 19  1  0
  1 20  1  0
  1 21  1  0
  3 22  1  0
  3 23  1  0
  4 24  1  0
  4 25  1  0
  5 26  1  0
  9 27  1  0
 10 28  1  0
 12 29  1  0
 15 30  1  0
 16 31  1  0
M  END
>  <smiles>  (37) 
COCCNC(=O)c1ccc2cc(F)ccc2n1

>  <score_type>  (37) 
oracle

>  <origin>  (37) 
autodockgpu

>  <m_score__min__energy>  (37) 
-5.71

>  <m_primary>  (37) 
energy

>  <rmsd>  (37) 
0.7210136933794318

>  <m_score__min__rmsd>  (37) 
0.7210136933794318

>  <meeko>  (37) 
{"free_energy": -5.46, "intermolecular_energy": -6.65, "internal_energy": -1.47, "cluster_size": 50, "cluster_id": 1, "rank_in_cluster": 20}

>  <energy>  (37) 
-5.44

>  <cluster_rmsd>  (37) 
1.24

>  <cluster>  (37) 
1

$$$$

     RDKit          3D

 31 32  0  0  0  0  0  0  0  0999 V2000
  140.7000   75.9840  221.9750 C   0  0  0  0  0  0  0  0  0  0  0  0
  140.1770   74.6820  222.0130 O   0  0  0  0  0  0  0  0  0  0  0  0
  139.4330   74.4210  220.8720 C   0  0  0  0  0  0  0  0  0  0  0  0
  138.3090   73.4710  221.2450 C   0  0  0  0  0  0  0  0  0  0  0  0
  138.7350   72.6630  222.3630 N   0  0  0  0  0  0  0  0  0  0  0  0
  138.4870   71.2720  222.4630 C   0  0  0  0  0  0  0  0  0  0  0  0
  137.8630   70.6510  221.5550 O   0  0  0  0  0  0  0  0  0  0  0  0
  138.9570   70.5240  223.6370 C   0  0  0  0  0  0  0  0  0  0  0  0
  138.7880   69.1660  223.7140 C   0  0  0  0  0  0  0  0  0  0  0  0
  139.2200   68.4370  224.8040 C   0  0  0  0  0  0  0  0  0  0  0  0
  139.8350   69.1200  225.8320 C   0  0  0  0  0  0  0  0  0  0  0  0
  140.3070   68.4990  226.9690 C   0  0  0  0  0  0  0  0  0  0  0  0
  140.9220   69.1680  228.0010 C   0  0  0  0  0  0  0  0  0  0  0  0
  141.3630   68.4920  229.0940 F   0  0  0  0  0  0  0  0  0  0  0  0
  141.0940   70.5410  227.9250 C   0  0  0  0  0  0  0  0  0  0  0  0
  140.6340   71.1900  226.8020 C   0  0  0  0  0  0  0  0  0  0  0  0
  140.0160   70.5020  225.7720 C   0  0  0  0  0  0  0  0  0  0  0  0
  139.5660   71.1280  224.6760 N   0  0  0  0  0  0  0  0  0  0  0  0
  140.8471   76.3502  223.0018 H   0  0  0  0  0  0  0  0  0  0  0  0
  141.6648   75.9763  221.4467 H   0  0  0  0  0  0  0  0  0  0  0  0
  139.9980   76.6459  221.4467 H   0  0  0  0  0  0  0  0  0  0  0  0
  139.0130   75.3586  220.4789 H   0  0  0  0  0  0  0  0  0  0  0  0
  140.0708   73.9694  220.0978 H   0  0  0  0  0  0  0  0  0  0  0  0
  137.4151   74.0476  221.5249 H   0  0  0  0  0  0  0  0  0  0  0  0
  138.0654   72.8254  220.3884 H   0  0  0  0  0  0  0  0  0  0  0  0
  139.2680   73.1010  223.1740 H   0  0  0  0  0  0  0  0  0  0  0  0
  138.2937   68.6416  222.8830 H   0  0  0  0  0  0  0  0  0  0  0  0
  139.0783   67.3472  224.8509 H   0  0  0  0  0  0  0  0  0  0  0  0
  140.1850   67.4092  227.0552 H   0  0  0  0  0  0  0  0  0  0  0  0
  141.5839   71.0959  228.7386 H   0  0  0  0  0  0  0  0  0  0  0  0
  140.7602   72.2797  226.7211 H   0  0  0  0  0  0  0  0  0  0  0  0
  1  2  1  0
  2  3  1  0
  3  4  1  0
  4  5  1  0
  5  6  1  0
  6  7  2  0
  6  8  1  0
  8  9  2  0
  9 10  1  0
 10 11  2  0
 11 12  1  0
 12 13  2  0
 13 14  1  0
 13 15  1  0
 15 16  2  0
 16 17  1  0
 17 18  2  0
 18  8  1  0
 17 11  1  0
  1 19  1  0
  1 20  1  0
  1 21  1  0
  3 22  1  0
  3 23  1  0
  4 24  1  0
  4 25  1  0
  5 26  1  0
  9 27  1  0
 10 28  1  0
 12 29  1  0
 15 30  1  0
 16 31  1  0
M  END
>  <smiles>  (38) 
COCCNC(=O)c1ccc2cc(F)ccc2n1

>  <score_type>  (38) 
oracle

>  <origin>  (38) 
autodockgpu

>  <m_score__min__energy>  (38) 
-5.71

>  <m_primary>  (38) 
energy

>  <rmsd>  (38) 
0.7416350628794224

>  <m_score__min__rmsd>  (38) 
0.7416350628794224

>  <meeko>  (38) 
{"free_energy": -5.45, "intermolecular_energy": -6.64, "internal_energy": -1.47, "cluster_size": 50, "cluster_id": 1, "rank_in_cluster": 27}

>  <energy>  (38) 
-5.44

>  <cluster_rmsd>  (38) 
1.32

>  <cluster>  (38) 
1

$$$$

     RDKit          3D

 31 32  0  0  0  0  0  0  0  0999 V2000
  141.0570   73.6030  221.5760 C   0  0  0  0  0  0  0  0  0  0  0  0
  139.9710   74.0880  222.3230 O   0  0  0  0  0  0  0  0  0  0  0  0
  138.8550   74.2460  221.5140 C   0  0  0  0  0  0  0  0  0  0  0  0
  138.0170   72.9840  221.6080 C   0  0  0  0  0  0  0  0  0  0  0  0
  138.4910   72.1930  222.7210 N   0  0  0  0  0  0  0  0  0  0  0  0
  138.3970   70.7810  222.7740 C   0  0  0  0  0  0  0  0  0  0  0  0
  137.8790   70.1230  221.8260 O   0  0  0  0  0  0  0  0  0  0  0  0
  138.9050   70.0550  223.9450 C   0  0  0  0  0  0  0  0  0  0  0  0
  138.7910   68.6910  224.0250 C   0  0  0  0  0  0  0  0  0  0  0  0
  139.2590   67.9820  225.1130 C   0  0  0  0  0  0  0  0  0  0  0  0
  139.8540   68.6910  226.1350 C   0  0  0  0  0  0  0  0  0  0  0  0
  140.3590   68.0900  227.2700 C   0  0  0  0  0  0  0  0  0  0  0  0
  140.9550   68.7850  228.2960 C   0  0  0  0  0  0  0  0  0  0  0  0
  141.4310   68.1290  229.3870 F   0  0  0  0  0  0  0  0  0  0  0  0
  141.0710   70.1640  228.2170 C   0  0  0  0  0  0  0  0  0  0  0  0
  140.5780   70.7920  227.0970 C   0  0  0  0  0  0  0  0  0  0  0  0
  139.9800   70.0790  226.0720 C   0  0  0  0  0  0  0  0  0  0  0  0
  139.4970   70.6840  224.9790 N   0  0  0  0  0  0  0  0  0  0  0  0
  141.8442   73.2515  222.2592 H   0  0  0  0  0  0  0  0  0  0  0  0
  140.7225   72.7688  220.9419 H   0  0  0  0  0  0  0  0  0  0  0  0
  141.4549   74.4089  220.9419 H   0  0  0  0  0  0  0  0  0  0  0  0
  138.2664   75.1099  221.8565 H   0  0  0  0  0  0  0  0  0  0  0  0
  139.1630   74.4202  220.4725 H   0  0  0  0  0  0  0  0  0  0  0  0
  136.9620   73.2516  221.7672 H   0  0  0  0  0  0  0  0  0  0  0  0
  138.1035   72.4072  220.6754 H   0  0  0  0  0  0  0  0  0  0  0  0
  138.9420   72.6630  223.5630 H   0  0  0  0  0  0  0  0  0  0  0  0
  138.3126   68.1458  223.1980 H   0  0  0  0  0  0  0  0  0  0  0  0
  139.1605   66.8876  225.1630 H   0  0  0  0  0  0  0  0  0  0  0  0
  140.2805   66.9964  227.3587 H   0  0  0  0  0  0  0  0  0  0  0  0
  141.5437   70.7395  229.0266 H   0  0  0  0  0  0  0  0  0  0  0  0
  140.6608   71.8857  227.0138 H   0  0  0  0  0  0  0  0  0  0  0  0
  1  2  1  0
  2  3  1  0
  3  4  1  0
  4  5  1  0
  5  6  1  0
  6  7  2  0
  6  8  1  0
  8  9  2  0
  9 10  1  0
 10 11  2  0
 11 12  1  0
 12 13  2  0
 13 14  1  0
 13 15  1  0
 15 16  2  0
 16 17  1  0
 17 18  2  0
 18  8  1  0
 17 11  1  0
  1 19  1  0
  1 20  1  0
  1 21  1  0
  3 22  1  0
  3 23  1  0
  4 24  1  0
  4 25  1  0
  5 26  1  0
  9 27  1  0
 10 28  1  0
 12 29  1  0
 15 30  1  0
 16 31  1  0
M  END
>  <smiles>  (39) 
COCCNC(=O)c1ccc2cc(F)ccc2n1

>  <score_type>  (39) 
oracle

>  <origin>  (39) 
autodockgpu

>  <m_score__min__energy>  (39) 
-5.71

>  <m_primary>  (39) 
energy

>  <rmsd>  (39) 
1.0739591629067595

>  <m_score__min__rmsd>  (39) 
1.0739591629067595

>  <meeko>  (39) 
{"free_energy": -5.43, "intermolecular_energy": -6.63, "internal_energy": -1.53, "cluster_size": 50, "cluster_id": 1, "rank_in_cluster": 40}

>  <energy>  (39) 
-5.44

>  <cluster_rmsd>  (39) 
1.15

>  <cluster>  (39) 
1

$$$$

     RDKit          3D

 31 32  0  0  0  0  0  0  0  0999 V2000
  141.0740   73.6800  221.4820 C   0  0  0  0  0  0  0  0  0  0  0  0
  140.0300   74.1590  222.2890 O   0  0  0  0  0  0  0  0  0  0  0  0
  138.8790   74.3440  221.5390 C   0  0  0  0  0  0  0  0  0  0  0  0
  138.0620   73.0660  221.5990 C   0  0  0  0  0  0  0  0  0  0  0  0
  138.5300   72.2680  222.7080 N   0  0  0  0  0  0  0  0  0  0  0  0
  138.3690   70.8630  222.7840 C   0  0  0  0  0  0  0  0  0  0  0  0
  137.7910   70.2190  221.8610 O   0  0  0  0  0  0  0  0  0  0  0  0
  138.8770   70.1270  223.9490 C   0  0  0  0  0  0  0  0  0  0  0  0
  138.7440   68.7650  224.0270 C   0  0  0  0  0  0  0  0  0  0  0  0
  139.2120   68.0460  225.1090 C   0  0  0  0  0  0  0  0  0  0  0  0
  139.8250   68.7450  226.1280 C   0  0  0  0  0  0  0  0  0  0  0  0
  140.3310   68.1350  227.2570 C   0  0  0  0  0  0  0  0  0  0  0  0
  140.9440   68.8190  228.2800 C   0  0  0  0  0  0  0  0  0  0  0  0
  141.4200   68.1540  229.3660 F   0  0  0  0  0  0  0  0  0  0  0  0
  141.0790   70.1960  228.2030 C   0  0  0  0  0  0  0  0  0  0  0  0
  140.5850   70.8340  227.0880 C   0  0  0  0  0  0  0  0  0  0  0  0
  139.9690   70.1310  226.0670 C   0  0  0  0  0  0  0  0  0  0  0  0
  139.4850   70.7450  224.9790 N   0  0  0  0  0  0  0  0  0  0  0  0
  141.8886   73.3063  222.1198 H   0  0  0  0  0  0  0  0  0  0  0  0
  140.7012   72.8629  220.8469 H   0  0  0  0  0  0  0  0  0  0  0  0
  141.4503   74.4955  220.8469 H   0  0  0  0  0  0  0  0  0  0  0  0
  138.2949   75.1789  221.9534 H   0  0  0  0  0  0  0  0  0  0  0  0
  139.1391   74.5796  220.4965 H   0  0  0  0  0  0  0  0  0  0  0  0
  136.9996   73.3124  221.7428 H   0  0  0  0  0  0  0  0  0  0  0  0
  138.1752   72.5048  220.6597 H   0  0  0  0  0  0  0  0  0  0  0  0
  139.0290   72.7250  223.5290 H   0  0  0  0  0  0  0  0  0  0  0  0
  138.2499   68.2289  223.2033 H   0  0  0  0  0  0  0  0  0  0  0  0
  139.0998   66.9528  225.1567 H   0  0  0  0  0  0  0  0  0  0  0  0
  140.2391   67.0423  227.3435 H   0  0  0  0  0  0  0  0  0  0  0  0
  141.5669   70.7628  229.0097 H   0  0  0  0  0  0  0  0  0  0  0  0
  140.6819   71.9267  227.0064 H   0  0  0  0  0  0  0  0  0  0  0  0
  1  2  1  0
  2  3  1  0
  3  4  1  0
  4  5  1  0
  5  6  1  0
  6  7  2  0
  6  8  1  0
  8  9  2  0
  9 10  1  0
 10 11  2  0
 11 12  1  0
 12 13  2  0
 13 14  1  0
 13 15  1  0
 15 16  2  0
 16 17  1  0
 17 18  2  0
 18  8  1  0
 17 11  1  0
  1 19  1  0
  1 20  1  0
  1 21  1  0
  3 22  1  0
  3 23  1  0
  4 24  1  0
  4 25  1  0
  5 26  1  0
  9 27  1  0
 10 28  1  0
 12 29  1  0
 15 30  1  0
 16 31  1  0
M  END
>  <smiles>  (40) 
COCCNC(=O)c1ccc2cc(F)ccc2n1

>  <score_type>  (40) 
oracle

>  <origin>  (40) 
autodockgpu

>  <m_score__min__energy>  (40) 
-5.71

>  <m_primary>  (40) 
energy

>  <rmsd>  (40) 
1.0432047435079745

>  <m_score__min__rmsd>  (40) 
1.0432047435079745

>  <meeko>  (40) 
{"free_energy": -5.45, "intermolecular_energy": -6.65, "internal_energy": -1.52, "cluster_size": 50, "cluster_id": 1, "rank_in_cluster": 26}

>  <energy>  (40) 
-5.43

>  <cluster_rmsd>  (40) 
1.3

>  <cluster>  (40) 
1

$$$$

     RDKit          3D

 31 32  0  0  0  0  0  0  0  0999 V2000
  140.6680   76.4390  222.1960 C   0  0  0  0  0  0  0  0  0  0  0  0
  139.9420   75.2450  222.3290 O   0  0  0  0  0  0  0  0  0  0  0  0
  139.2790   74.9420  221.1490 C   0  0  0  0  0  0  0  0  0  0  0  0
  139.0800   73.4390  221.0880 C   0  0  0  0  0  0  0  0  0  0  0  0
  139.4110   72.8740  222.3750 N   0  0  0  0  0  0  0  0  0  0  0  0
  139.8300   71.5330  222.5570 C   0  0  0  0  0  0  0  0  0  0  0  0
  139.9390   70.7420  221.5760 O   0  0  0  0  0  0  0  0  0  0  0  0
  140.1470   71.0390  223.9030 C   0  0  0  0  0  0  0  0  0  0  0  0
  140.6870   71.8760  224.8450 C   0  0  0  0  0  0  0  0  0  0  0  0
  140.9950   71.4400  226.1190 C   0  0  0  0  0  0  0  0  0  0  0  0
  140.7450   70.1190  226.4250 C   0  0  0  0  0  0  0  0  0  0  0  0
  141.0120   69.5720  227.6620 C   0  0  0  0  0  0  0  0  0  0  0  0
  140.7660   68.2570  227.9800 C   0  0  0  0  0  0  0  0  0  0  0  0
  141.0540   67.7830  229.2210 F   0  0  0  0  0  0  0  0  0  0  0  0
  140.2210   67.4090  227.0290 C   0  0  0  0  0  0  0  0  0  0  0  0
  139.9430   67.9250  225.7850 C   0  0  0  0  0  0  0  0  0  0  0  0
  140.1960   69.2520  225.4790 C   0  0  0  0  0  0  0  0  0  0  0  0
  139.9290   69.7610  224.2700 N   0  0  0  0  0  0  0  0  0  0  0  0
  140.9087   76.8348  223.1937 H   0  0  0  0  0  0  0  0  0  0  0  0
  141.5995   76.2423  221.6450 H   0  0  0  0  0  0  0  0  0  0  0  0
  140.0647   77.1755  221.6450 H   0  0  0  0  0  0  0  0  0  0  0  0
  138.3023   75.4478  221.1305 H   0  0  0  0  0  0  0  0  0  0  0  0
  139.8682   75.2821  220.2846 H   0  0  0  0  0  0  0  0  0  0  0  0
  138.0312   73.2144  220.8442 H   0  0  0  0  0  0  0  0  0  0  0  0
  139.7287   73.0069  220.3117 H   0  0  0  0  0  0  0  0  0  0  0  0
  139.3480   73.4670  223.2570 H   0  0  0  0  0  0  0  0  0  0  0  0
  140.8807   72.9255  224.5785 H   0  0  0  0  0  0  0  0  0  0  0  0
  141.4256   72.1242  226.8650 H   0  0  0  0  0  0  0  0  0  0  0  0
  141.4451   70.2224  228.4362 H   0  0  0  0  0  0  0  0  0  0  0  0
  140.0167   66.3537  227.2625 H   0  0  0  0  0  0  0  0  0  0  0  0
  139.5099   67.2691  225.0155 H   0  0  0  0  0  0  0  0  0  0  0  0
  1  2  1  0
  2  3  1  0
  3  4  1  0
  4  5  1  0
  5  6  1  0
  6  7  2  0
  6  8  1  0
  8  9  2  0
  9 10  1  0
 10 11  2  0
 11 12  1  0
 12 13  2  0
 13 14  1  0
 13 15  1  0
 15 16  2  0
 16 17  1  0
 17 18  2  0
 18  8  1  0
 17 11  1  0
  1 19  1  0
  1 20  1  0
  1 21  1  0
  3 22  1  0
  3 23  1  0
  4 24  1  0
  4 25  1  0
  5 26  1  0
  9 27  1  0
 10 28  1  0
 12 29  1  0
 15 30  1  0
 16 31  1  0
M  END
>  <smiles>  (41) 
COCCNC(=O)c1ccc2cc(F)ccc2n1

>  <score_type>  (41) 
oracle

>  <origin>  (41) 
autodockgpu

>  <m_score__min__energy>  (41) 
-5.71

>  <m_primary>  (41) 
energy

>  <rmsd>  (41) 
2.914931480329389

>  <m_score__min__rmsd>  (41) 
2.914931480329389

>  <meeko>  (41) 
{"free_energy": -5.7, "intermolecular_energy": -6.89, "internal_energy": -1.2, "cluster_size": 50, "cluster_id": 1, "rank_in_cluster": 2}

>  <energy>  (41) 
-5.43

>  <cluster_rmsd>  (41) 
1.1

>  <cluster>  (41) 
1

$$$$

     RDKit          3D

 31 32  0  0  0  0  0  0  0  0999 V2000
  141.1480   73.6870  221.3680 C   0  0  0  0  0  0  0  0  0  0  0  0
  140.1630   74.1560  222.2510 O   0  0  0  0  0  0  0  0  0  0  0  0
  138.9660   74.3640  221.5810 C   0  0  0  0  0  0  0  0  0  0  0  0
  138.1770   73.0670  221.6050 C   0  0  0  0  0  0  0  0  0  0  0  0
  138.6350   72.2650  222.7160 N   0  0  0  0  0  0  0  0  0  0  0  0
  138.4160   70.8690  222.8170 C   0  0  0  0  0  0  0  0  0  0  0  0
  137.7920   70.2380  221.9160 O   0  0  0  0  0  0  0  0  0  0  0  0
  138.9170   70.1300  223.9830 C   0  0  0  0  0  0  0  0  0  0  0  0
  138.7840   68.7680  224.0560 C   0  0  0  0  0  0  0  0  0  0  0  0
  139.2450   68.0460  225.1390 C   0  0  0  0  0  0  0  0  0  0  0  0
  139.8510   68.7410  226.1640 C   0  0  0  0  0  0  0  0  0  0  0  0
  140.3500   68.1280  227.2940 C   0  0  0  0  0  0  0  0  0  0  0  0
  140.9580   68.8090  228.3230 C   0  0  0  0  0  0  0  0  0  0  0  0
  141.4270   68.1400  229.4090 F   0  0  0  0  0  0  0  0  0  0  0  0
  141.0930   70.1860  228.2510 C   0  0  0  0  0  0  0  0  0  0  0  0
  140.6060   70.8270  227.1350 C   0  0  0  0  0  0  0  0  0  0  0  0
  139.9960   70.1270  226.1080 C   0  0  0  0  0  0  0  0  0  0  0  0
  139.5190   70.7450  225.0200 N   0  0  0  0  0  0  0  0  0  0  0  0
  141.9944   73.2840  221.9434 H   0  0  0  0  0  0  0  0  0  0  0  0
  140.7247   72.8938  220.7342 H   0  0  0  0  0  0  0  0  0  0  0  0
  141.4969   74.5156  220.7342 H   0  0  0  0  0  0  0  0  0  0  0  0
  138.3924   75.1581  222.0814 H   0  0  0  0  0  0  0  0  0  0  0  0
  139.1602   74.6713  220.5428 H   0  0  0  0  0  0  0  0  0  0  0  0
  137.1061   73.2877  221.7248 H   0  0  0  0  0  0  0  0  0  0  0  0
  138.3267   72.5205  220.6622 H   0  0  0  0  0  0  0  0  0  0  0  0
  139.1700   72.7130  223.5200 H   0  0  0  0  0  0  0  0  0  0  0  0
  138.2956   68.2342  223.2274 H   0  0  0  0  0  0  0  0  0  0  0  0
  139.1325   66.9526  225.1825 H   0  0  0  0  0  0  0  0  0  0  0  0
  140.2568   67.0351  227.3770 H   0  0  0  0  0  0  0  0  0  0  0  0
  141.5755   70.7505  229.0625 H   0  0  0  0  0  0  0  0  0  0  0  0
  140.7035   71.9199  227.0571 H   0  0  0  0  0  0  0  0  0  0  0  0
  1  2  1  0
  2  3  1  0
  3  4  1  0
  4  5  1  0
  5  6  1  0
  6  7  2  0
  6  8  1  0
  8  9  2  0
  9 10  1  0
 10 11  2  0
 11 12  1  0
 12 13  2  0
 13 14  1  0
 13 15  1  0
 15 16  2  0
 16 17  1  0
 17 18  2  0
 18  8  1  0
 17 11  1  0
  1 19  1  0
  1 20  1  0
  1 21  1  0
  3 22  1  0
  3 23  1  0
  4 24  1  0
  4 25  1  0
  5 26  1  0
  9 27  1  0
 10 28  1  0
 12 29  1  0
 15 30  1  0
 16 31  1  0
M  END
>  <smiles>  (42) 
COCCNC(=O)c1ccc2cc(F)ccc2n1

>  <score_type>  (42) 
oracle

>  <origin>  (42) 
autodockgpu

>  <m_score__min__energy>  (42) 
-5.71

>  <m_primary>  (42) 
energy

>  <rmsd>  (42) 
1.0574176138420746

>  <m_score__min__rmsd>  (42) 
1.0574176138420746

>  <meeko>  (42) 
{"free_energy": -5.47, "intermolecular_energy": -6.67, "internal_energy": -1.51, "cluster_size": 50, "cluster_id": 1, "rank_in_cluster": 16}

>  <energy>  (42) 
-5.43

>  <cluster_rmsd>  (42) 
1.24

>  <cluster>  (42) 
1

$$$$

     RDKit          3D

 31 32  0  0  0  0  0  0  0  0999 V2000
  141.2430   73.7920  221.2580 C   0  0  0  0  0  0  0  0  0  0  0  0
  140.2560   74.1310  222.1970 O   0  0  0  0  0  0  0  0  0  0  0  0
  139.0440   74.3670  221.5660 C   0  0  0  0  0  0  0  0  0  0  0  0
  138.2360   73.0820  221.5960 C   0  0  0  0  0  0  0  0  0  0  0  0
  138.6890   72.2740  222.7040 N   0  0  0  0  0  0  0  0  0  0  0  0
  138.4150   70.8890  222.8270 C   0  0  0  0  0  0  0  0  0  0  0  0
  137.7420   70.2750  221.9500 O   0  0  0  0  0  0  0  0  0  0  0  0
  138.9150   70.1420  223.9880 C   0  0  0  0  0  0  0  0  0  0  0  0
  138.7870   68.7790  224.0490 C   0  0  0  0  0  0  0  0  0  0  0  0
  139.2480   68.0500  225.1280 C   0  0  0  0  0  0  0  0  0  0  0  0
  139.8480   68.7390  226.1610 C   0  0  0  0  0  0  0  0  0  0  0  0
  140.3450   68.1180  227.2880 C   0  0  0  0  0  0  0  0  0  0  0  0
  140.9460   68.7930  228.3240 C   0  0  0  0  0  0  0  0  0  0  0  0
  141.4140   68.1170  229.4070 F   0  0  0  0  0  0  0  0  0  0  0  0
  141.0750   70.1710  228.2640 C   0  0  0  0  0  0  0  0  0  0  0  0
  140.5890   70.8200  227.1530 C   0  0  0  0  0  0  0  0  0  0  0  0
  139.9860   70.1260  226.1170 C   0  0  0  0  0  0  0  0  0  0  0  0
  139.5110   70.7510  225.0320 N   0  0  0  0  0  0  0  0  0  0  0  0
  142.1569   73.4781  221.7837 H   0  0  0  0  0  0  0  0  0  0  0  0
  140.8810   72.9667  220.6273 H   0  0  0  0  0  0  0  0  0  0  0  0
  141.4645   74.6656  220.6273 H   0  0  0  0  0  0  0  0  0  0  0  0
  138.4980   75.1627  222.0939 H   0  0  0  0  0  0  0  0  0  0  0  0
  139.2122   74.6861  220.5268 H   0  0  0  0  0  0  0  0  0  0  0  0
  137.1693   73.3188  221.7227 H   0  0  0  0  0  0  0  0  0  0  0  0
  138.3715   72.5328  220.6526 H   0  0  0  0  0  0  0  0  0  0  0  0
  139.2620   72.7070  223.4890 H   0  0  0  0  0  0  0  0  0  0  0  0
  138.3032   68.2501  223.2146 H   0  0  0  0  0  0  0  0  0  0  0  0
  139.1400   66.9558  225.1621 H   0  0  0  0  0  0  0  0  0  0  0  0
  140.2557   67.0241  227.3617 H   0  0  0  0  0  0  0  0  0  0  0  0
  141.5527   70.7304  229.0819 H   0  0  0  0  0  0  0  0  0  0  0  0
  140.6812   71.9141  227.0857 H   0  0  0  0  0  0  0  0  0  0  0  0
  1  2  1  0
  2  3  1  0
  3  4  1  0
  4  5  1  0
  5  6  1  0
  6  7  2  0
  6  8  1  0
  8  9  2  0
  9 10  1  0
 10 11  2  0
 11 12  1  0
 12 13  2  0
 13 14  1  0
 13 15  1  0
 15 16  2  0
 16 17  1  0
 17 18  2  0
 18  8  1  0
 17 11  1  0
  1 19  1  0
  1 20  1  0
  1 21  1  0
  3 22  1  0
  3 23  1  0
  4 24  1  0
  4 25  1  0
  5 26  1  0
  9 27  1  0
 10 28  1  0
 12 29  1  0
 15 30  1  0
 16 31  1  0
M  END
>  <smiles>  (43) 
COCCNC(=O)c1ccc2cc(F)ccc2n1

>  <score_type>  (43) 
oracle

>  <origin>  (43) 
autodockgpu

>  <m_score__min__energy>  (43) 
-5.71

>  <m_primary>  (43) 
energy

>  <rmsd>  (43) 
1.05693908759564

>  <m_score__min__rmsd>  (43) 
1.05693908759564

>  <meeko>  (43) 
{"free_energy": -5.48, "intermolecular_energy": -6.68, "internal_energy": -1.51, "cluster_size": 50, "cluster_id": 1, "rank_in_cluster": 11}

>  <energy>  (43) 
-5.43

>  <cluster_rmsd>  (43) 
1.32

>  <cluster>  (43) 
1

$$$$

     RDKit          3D

 31 32  0  0  0  0  0  0  0  0999 V2000
  137.3900   76.0730  222.7490 C   0  0  0  0  0  0  0  0  0  0  0  0
  138.7690   75.8220  222.6780 O   0  0  0  0  0  0  0  0  0  0  0  0
  139.2000   75.8310  221.3600 C   0  0  0  0  0  0  0  0  0  0  0  0
  140.1020   74.6290  221.1470 C   0  0  0  0  0  0  0  0  0  0  0  0
  139.9300   73.7170  222.2540 N   0  0  0  0  0  0  0  0  0  0  0  0
  140.4870   72.4150  222.2900 C   0  0  0  0  0  0  0  0  0  0  0  0
  141.1810   71.9740  221.3300 O   0  0  0  0  0  0  0  0  0  0  0  0
  140.2630   71.5530  223.4570 C   0  0  0  0  0  0  0  0  0  0  0  0
  139.5790   70.3720  223.3330 C   0  0  0  0  0  0  0  0  0  0  0  0
  139.3540   69.5410  224.4120 C   0  0  0  0  0  0  0  0  0  0  0  0
  139.8410   69.9350  225.6400 C   0  0  0  0  0  0  0  0  0  0  0  0
  139.6770   69.1870  226.7880 C   0  0  0  0  0  0  0  0  0  0  0  0
  140.1580   69.5690  228.0180 C   0  0  0  0  0  0  0  0  0  0  0  0
  139.9600   68.7830  229.1090 F   0  0  0  0  0  0  0  0  0  0  0  0
  140.8500   70.7630  228.1460 C   0  0  0  0  0  0  0  0  0  0  0  0
  141.0300   71.5310  227.0190 C   0  0  0  0  0  0  0  0  0  0  0  0
  140.5390   71.1330  225.7870 C   0  0  0  0  0  0  0  0  0  0  0  0
  140.7110   71.8770  224.6870 N   0  0  0  0  0  0  0  0  0  0  0  0
  137.0813   76.1292  223.8033 H   0  0  0  0  0  0  0  0  0  0  0  0
  137.1647   77.0269  222.2497 H   0  0  0  0  0  0  0  0  0  0  0  0
  136.8431   75.2596  222.2497 H   0  0  0  0  0  0  0  0  0  0  0  0
  138.3338   75.7707  220.6847 H   0  0  0  0  0  0  0  0  0  0  0  0
  139.7488   76.7601  221.1464 H   0  0  0  0  0  0  0  0  0  0  0  0
  139.8313   74.1253  220.2073 H   0  0  0  0  0  0  0  0  0  0  0  0
  141.1513   74.9541  221.0897 H   0  0  0  0  0  0  0  0  0  0  0  0
  139.3610   74.0050  223.1060 H   0  0  0  0  0  0  0  0  0  0  0  0
  139.1979   70.0774  222.3441 H   0  0  0  0  0  0  0  0  0  0  0  0
  138.8041   68.5954  224.2958 H   0  0  0  0  0  0  0  0  0  0  0  0
  139.1323   68.2341  226.7151 H   0  0  0  0  0  0  0  0  0  0  0  0
  141.2439   71.0871  229.1206 H   0  0  0  0  0  0  0  0  0  0  0  0
  141.5762   72.4825  227.0983 H   0  0  0  0  0  0  0  0  0  0  0  0
  1  2  1  0
  2  3  1  0
  3  4  1  0
  4  5  1  0
  5  6  1  0
  6  7  2  0
  6  8  1  0
  8  9  2  0
  9 10  1  0
 10 11  2  0
 11 12  1  0
 12 13  2  0
 13 14  1  0
 13 15  1  0
 15 16  2  0
 16 17  1  0
 17 18  2  0
 18  8  1  0
 17 11  1  0
  1 19  1  0
  1 20  1  0
  1 21  1  0
  3 22  1  0
  3 23  1  0
  4 24  1  0
  4 25  1  0
  5 26  1  0
  9 27  1  0
 10 28  1  0
 12 29  1  0
 15 30  1  0
 16 31  1  0
M  END
>  <smiles>  (44) 
COCCNC(=O)c1ccc2cc(F)ccc2n1

>  <score_type>  (44) 
oracle

>  <origin>  (44) 
autodockgpu

>  <m_score__min__energy>  (44) 
-5.71

>  <m_primary>  (44) 
energy

>  <rmsd>  (44) 
1.4712305996575916

>  <m_score__min__rmsd>  (44) 
1.4712305996575916

>  <meeko>  (44) 
{"free_energy": -5.41, "intermolecular_energy": -6.6, "internal_energy": -1.26, "cluster_size": 50, "cluster_id": 1, "rank_in_cluster": 50}

>  <energy>  (44) 
-5.43

>  <cluster_rmsd>  (44) 
1.22

>  <cluster>  (44) 
1

$$$$

     RDKit          3D

 31 32  0  0  0  0  0  0  0  0999 V2000
  140.6530   76.3610  222.2720 C   0  0  0  0  0  0  0  0  0  0  0  0
  140.5940   74.9780  222.0390 O   0  0  0  0  0  0  0  0  0  0  0  0
  139.9000   74.7090  220.8690 C   0  0  0  0  0  0  0  0  0  0  0  0
  138.6960   73.8530  221.2180 C   0  0  0  0  0  0  0  0  0  0  0  0
  139.0370   73.0050  222.3360 N   0  0  0  0  0  0  0  0  0  0  0  0
  138.7090   71.6290  222.4030 C   0  0  0  0  0  0  0  0  0  0  0  0
  138.0850   71.0580  221.4630 O   0  0  0  0  0  0  0  0  0  0  0  0
  139.0950   70.8380  223.5790 C   0  0  0  0  0  0  0  0  0  0  0  0
  138.8500   69.4900  223.6260 C   0  0  0  0  0  0  0  0  0  0  0  0
  139.2020   68.7220  224.7180 C   0  0  0  0  0  0  0  0  0  0  0  0
  139.8150   69.3540  225.7790 C   0  0  0  0  0  0  0  0  0  0  0  0
  140.2110   68.6900  226.9210 C   0  0  0  0  0  0  0  0  0  0  0  0
  140.8250   69.3080  227.9850 C   0  0  0  0  0  0  0  0  0  0  0  0
  141.1890   68.5920  229.0820 F   0  0  0  0  0  0  0  0  0  0  0  0
  141.0730   70.6710  227.9390 C   0  0  0  0  0  0  0  0  0  0  0  0
  140.6900   71.3610  226.8130 C   0  0  0  0  0  0  0  0  0  0  0  0
  140.0740   70.7250  225.7490 C   0  0  0  0  0  0  0  0  0  0  0  0
  139.6980   71.3910  224.6500 N   0  0  0  0  0  0  0  0  0  0  0  0
  140.6611   76.5503  223.3556 H   0  0  0  0  0  0  0  0  0  0  0  0
  141.5694   76.7700  221.8215 H   0  0  0  0  0  0  0  0  0  0  0  0
  139.7748   76.8465  221.8215 H   0  0  0  0  0  0  0  0  0  0  0  0
  139.5665   75.6509  220.4089 H   0  0  0  0  0  0  0  0  0  0  0  0
  140.5487   74.1796  220.1556 H   0  0  0  0  0  0  0  0  0  0  0  0
  137.8486   74.4997  221.4894 H   0  0  0  0  0  0  0  0  0  0  0  0
  138.4128   73.2354  220.3529 H   0  0  0  0  0  0  0  0  0  0  0  0
  139.5640   73.4000  223.1720 H   0  0  0  0  0  0  0  0  0  0  0  0
  138.3588   69.0062  222.7689 H   0  0  0  0  0  0  0  0  0  0  0  0
  138.9999   67.6410  224.7408 H   0  0  0  0  0  0  0  0  0  0  0  0
  140.0257   67.6076  226.9842 H   0  0  0  0  0  0  0  0  0  0  0  0
  141.5621   71.1858  228.7791 H   0  0  0  0  0  0  0  0  0  0  0  0
  140.8775   72.4434  226.7564 H   0  0  0  0  0  0  0  0  0  0  0  0
  1  2  1  0
  2  3  1  0
  3  4  1  0
  4  5  1  0
  5  6  1  0
  6  7  2  0
  6  8  1  0
  8  9  2  0
  9 10  1  0
 10 11  2  0
 11 12  1  0
 12 13  2  0
 13 14  1  0
 13 15  1  0
 15 16  2  0
 16 17  1  0
 17 18  2  0
 18  8  1  0
 17 11  1  0
  1 19  1  0
  1 20  1  0
  1 21  1  0
  3 22  1  0
  3 23  1  0
  4 24  1  0
  4 25  1  0
  5 26  1  0
  9 27  1  0
 10 28  1  0
 12 29  1  0
 15 30  1  0
 16 31  1  0
M  END
>  <smiles>  (45) 
COCCNC(=O)c1ccc2cc(F)ccc2n1

>  <score_type>  (45) 
oracle

>  <origin>  (45) 
autodockgpu

>  <m_score__min__energy>  (45) 
-5.71

>  <m_primary>  (45) 
energy

>  <rmsd>  (45) 
0.7247613806895351

>  <m_score__min__rmsd>  (45) 
0.7247613806895351

>  <meeko>  (45) 
{"free_energy": -5.43, "intermolecular_energy": -6.63, "internal_energy": -1.45, "cluster_size": 50, "cluster_id": 1, "rank_in_cluster": 41}

>  <energy>  (45) 
-5.42

>  <cluster_rmsd>  (45) 
1.31

>  <cluster>  (45) 
1

$$$$

     RDKit          3D

 31 32  0  0  0  0  0  0  0  0999 V2000
  141.3510   73.4370  221.2430 C   0  0  0  0  0  0  0  0  0  0  0  0
  140.3350   73.9310  222.0760 O   0  0  0  0  0  0  0  0  0  0  0  0
  139.1950   74.2140  221.3390 C   0  0  0  0  0  0  0  0  0  0  0  0
  138.1840   73.1080  221.5830 C   0  0  0  0  0  0  0  0  0  0  0  0
  138.6390   72.2990  222.6900 N   0  0  0  0  0  0  0  0  0  0  0  0
  138.3860   70.9100  222.8000 C   0  0  0  0  0  0  0  0  0  0  0  0
  137.7320   70.2910  221.9120 O   0  0  0  0  0  0  0  0  0  0  0  0
  138.8880   70.1620  223.9600 C   0  0  0  0  0  0  0  0  0  0  0  0
  138.7470   68.8000  224.0280 C   0  0  0  0  0  0  0  0  0  0  0  0
  139.2080   68.0710  225.1050 C   0  0  0  0  0  0  0  0  0  0  0  0
  139.8230   68.7570  226.1300 C   0  0  0  0  0  0  0  0  0  0  0  0
  140.3230   68.1350  227.2560 C   0  0  0  0  0  0  0  0  0  0  0  0
  140.9390   68.8080  228.2850 C   0  0  0  0  0  0  0  0  0  0  0  0
  141.4090   68.1320  229.3660 F   0  0  0  0  0  0  0  0  0  0  0  0
  141.0820   70.1850  228.2190 C   0  0  0  0  0  0  0  0  0  0  0  0
  140.5940   70.8340  227.1080 C   0  0  0  0  0  0  0  0  0  0  0  0
  139.9760   70.1430  226.0800 C   0  0  0  0  0  0  0  0  0  0  0  0
  139.4980   70.7690  224.9970 N   0  0  0  0  0  0  0  0  0  0  0  0
  142.1699   73.0388  221.8601 H   0  0  0  0  0  0  0  0  0  0  0  0
  140.9469   72.6348  220.6080 H   0  0  0  0  0  0  0  0  0  0  0  0
  141.7324   74.2502  220.6080 H   0  0  0  0  0  0  0  0  0  0  0  0
  138.7752   75.1791  221.6588 H   0  0  0  0  0  0  0  0  0  0  0  0
  139.4406   74.2741  220.2685 H   0  0  0  0  0  0  0  0  0  0  0  0
  137.2052   73.5481  221.8242 H   0  0  0  0  0  0  0  0  0  0  0  0
  138.0844   72.4862  220.6811 H   0  0  0  0  0  0  0  0  0  0  0  0
  139.1990   72.7360  223.4830 H   0  0  0  0  0  0  0  0  0  0  0  0
  138.2516   68.2727  223.1994 H   0  0  0  0  0  0  0  0  0  0  0  0
  139.0886   66.9782  225.1442 H   0  0  0  0  0  0  0  0  0  0  0  0
  140.2235   67.0423  227.3346 H   0  0  0  0  0  0  0  0  0  0  0  0
  141.5713   70.7428  229.0310 H   0  0  0  0  0  0  0  0  0  0  0  0
  140.6973   71.9267  227.0352 H   0  0  0  0  0  0  0  0  0  0  0  0
  1  2  1  0
  2  3  1  0
  3  4  1  0
  4  5  1  0
  5  6  1  0
  6  7  2  0
  6  8  1  0
  8  9  2  0
  9 10  1  0
 10 11  2  0
 11 12  1  0
 12 13  2  0
 13 14  1  0
 13 15  1  0
 15 16  2  0
 16 17  1  0
 17 18  2  0
 18  8  1  0
 17 11  1  0
  1 19  1  0
  1 20  1  0
  1 21  1  0
  3 22  1  0
  3 23  1  0
  4 24  1  0
  4 25  1  0
  5 26  1  0
  9 27  1  0
 10 28  1  0
 12 29  1  0
 15 30  1  0
 16 31  1  0
M  END
>  <smiles>  (46) 
COCCNC(=O)c1ccc2cc(F)ccc2n1

>  <score_type>  (46) 
oracle

>  <origin>  (46) 
autodockgpu

>  <m_score__min__energy>  (46) 
-5.71

>  <m_primary>  (46) 
energy

>  <rmsd>  (46) 
1.0307534669089589

>  <m_score__min__rmsd>  (46) 
1.0307534669089589

>  <meeko>  (46) 
{"free_energy": -5.44, "intermolecular_energy": -6.64, "internal_energy": -1.53, "cluster_size": 50, "cluster_id": 1, "rank_in_cluster": 34}

>  <energy>  (46) 
-5.42

>  <cluster_rmsd>  (46) 
1.33

>  <cluster>  (46) 
1

$$$$

     RDKit          3D

 31 32  0  0  0  0  0  0  0  0999 V2000
  141.1190   73.8490  221.3300 C   0  0  0  0  0  0  0  0  0  0  0  0
  140.1120   74.1790  222.2510 O   0  0  0  0  0  0  0  0  0  0  0  0
  138.9040   74.3820  221.6010 C   0  0  0  0  0  0  0  0  0  0  0  0
  138.1320   73.0750  221.6150 C   0  0  0  0  0  0  0  0  0  0  0  0
  138.6010   72.2710  222.7200 N   0  0  0  0  0  0  0  0  0  0  0  0
  138.3720   70.8770  222.8270 C   0  0  0  0  0  0  0  0  0  0  0  0
  137.7280   70.2500  221.9370 O   0  0  0  0  0  0  0  0  0  0  0  0
  138.8850   70.1350  223.9850 C   0  0  0  0  0  0  0  0  0  0  0  0
  138.7720   68.7700  224.0470 C   0  0  0  0  0  0  0  0  0  0  0  0
  139.2450   68.0460  225.1230 C   0  0  0  0  0  0  0  0  0  0  0  0
  139.8430   68.7410  226.1530 C   0  0  0  0  0  0  0  0  0  0  0  0
  140.3530   68.1250  227.2770 C   0  0  0  0  0  0  0  0  0  0  0  0
  140.9520   68.8060  228.3110 C   0  0  0  0  0  0  0  0  0  0  0  0
  141.4330   68.1360  229.3910 F   0  0  0  0  0  0  0  0  0  0  0  0
  141.0680   70.1860  228.2500 C   0  0  0  0  0  0  0  0  0  0  0  0
  140.5690   70.8300  227.1410 C   0  0  0  0  0  0  0  0  0  0  0  0
  139.9680   70.1300  226.1090 C   0  0  0  0  0  0  0  0  0  0  0  0
  139.4810   70.7500  225.0260 N   0  0  0  0  0  0  0  0  0  0  0  0
  142.0285   73.5510  221.8722 H   0  0  0  0  0  0  0  0  0  0  0  0
  140.7791   73.0153  220.6981 H   0  0  0  0  0  0  0  0  0  0  0  0
  141.3384   74.7222  220.6981 H   0  0  0  0  0  0  0  0  0  0  0  0
  138.3273   75.1607  222.1217 H   0  0  0  0  0  0  0  0  0  0  0  0
  139.0801   74.7081  220.5653 H   0  0  0  0  0  0  0  0  0  0  0  0
  137.0583   73.2807  221.7366 H   0  0  0  0  0  0  0  0  0  0  0  0
  138.2883   72.5376  220.6680 H   0  0  0  0  0  0  0  0  0  0  0  0
  139.1520   72.7150  223.5150 H   0  0  0  0  0  0  0  0  0  0  0  0
  138.2902   68.2360  223.2147 H   0  0  0  0  0  0  0  0  0  0  0  0
  139.1481   66.9508  225.1576 H   0  0  0  0  0  0  0  0  0  0  0  0
  140.2765   67.0301  227.3503 H   0  0  0  0  0  0  0  0  0  0  0  0
  141.5453   70.7502  229.0648 H   0  0  0  0  0  0  0  0  0  0  0  0
  140.6494   71.9250  227.0731 H   0  0  0  0  0  0  0  0  0  0  0  0
  1  2  1  0
  2  3  1  0
  3  4  1  0
  4  5  1  0
  5  6  1  0
  6  7  2  0
  6  8  1  0
  8  9  2  0
  9 10  1  0
 10 11  2  0
 11 12  1  0
 12 13  2  0
 13 14  1  0
 13 15  1  0
 15 16  2  0
 16 17  1  0
 17 18  2  0
 18  8  1  0
 17 11  1  0
  1 19  1  0
  1 20  1  0
  1 21  1  0
  3 22  1  0
  3 23  1  0
  4 24  1  0
  4 25  1  0
  5 26  1  0
  9 27  1  0
 10 28  1  0
 12 29  1  0
 15 30  1  0
 16 31  1  0
M  END
>  <smiles>  (47) 
COCCNC(=O)c1ccc2cc(F)ccc2n1

>  <score_type>  (47) 
oracle

>  <origin>  (47) 
autodockgpu

>  <m_score__min__energy>  (47) 
-5.71

>  <m_primary>  (47) 
energy

>  <rmsd>  (47) 
1.0635317345224529

>  <m_score__min__rmsd>  (47) 
1.0635317345224529

>  <meeko>  (47) 
{"free_energy": -5.47, "intermolecular_energy": -6.67, "internal_energy": -1.51, "cluster_size": 50, "cluster_id": 1, "rank_in_cluster": 15}

>  <energy>  (47) 
-5.42

>  <cluster_rmsd>  (47) 
1.22

>  <cluster>  (47) 
1

$$$$

     RDKit          3D

 31 32  0  0  0  0  0  0  0  0999 V2000
  141.0700   73.5800  221.5470 C   0  0  0  0  0  0  0  0  0  0  0  0
  139.9760   74.1070  222.2520 O   0  0  0  0  0  0  0  0  0  0  0  0
  138.8850   74.2650  221.4120 C   0  0  0  0  0  0  0  0  0  0  0  0
  137.9750   73.0630  221.5830 C   0  0  0  0  0  0  0  0  0  0  0  0
  138.4620   72.2650  222.6850 N   0  0  0  0  0  0  0  0  0  0  0  0
  138.3100   70.8590  222.7600 C   0  0  0  0  0  0  0  0  0  0  0  0
  137.7260   70.2130  221.8420 O   0  0  0  0  0  0  0  0  0  0  0  0
  138.8370   70.1240  223.9170 C   0  0  0  0  0  0  0  0  0  0  0  0
  138.7200   68.7610  223.9910 C   0  0  0  0  0  0  0  0  0  0  0  0
  139.2060   68.0440  225.0670 C   0  0  0  0  0  0  0  0  0  0  0  0
  139.8210   68.7450  226.0820 C   0  0  0  0  0  0  0  0  0  0  0  0
  140.3430   68.1360  227.2050 C   0  0  0  0  0  0  0  0  0  0  0  0
  140.9590   68.8230  228.2240 C   0  0  0  0  0  0  0  0  0  0  0  0
  141.4530   68.1600  229.3030 F   0  0  0  0  0  0  0  0  0  0  0  0
  141.0790   70.2020  228.1510 C   0  0  0  0  0  0  0  0  0  0  0  0
  140.5670   70.8380  227.0430 C   0  0  0  0  0  0  0  0  0  0  0  0
  139.9490   70.1330  226.0250 C   0  0  0  0  0  0  0  0  0  0  0  0
  139.4490   70.7460  224.9450 N   0  0  0  0  0  0  0  0  0  0  0  0
  141.8248   73.2164  222.2598 H   0  0  0  0  0  0  0  0  0  0  0  0
  140.7313   72.7462  220.9145 H   0  0  0  0  0  0  0  0  0  0  0  0
  141.5109   74.3645  220.9145 H   0  0  0  0  0  0  0  0  0  0  0  0
  138.3414   75.1839  221.6769 H   0  0  0  0  0  0  0  0  0  0  0  0
  139.2191   74.3422  220.3668 H   0  0  0  0  0  0  0  0  0  0  0  0
  136.9505   73.4020  221.7961 H   0  0  0  0  0  0  0  0  0  0  0  0
  137.9692   72.4637  220.6606 H   0  0  0  0  0  0  0  0  0  0  0  0
  138.9670   72.7250  223.5010 H   0  0  0  0  0  0  0  0  0  0  0  0
  138.2248   68.2221  223.1699 H   0  0  0  0  0  0  0  0  0  0  0  0
  139.1055   66.9495  225.1123 H   0  0  0  0  0  0  0  0  0  0  0  0
  140.2618   67.0422  227.2893 H   0  0  0  0  0  0  0  0  0  0  0  0
  141.5689   70.7712  228.9548 H   0  0  0  0  0  0  0  0  0  0  0  0
  140.6510   71.9320  226.9648 H   0  0  0  0  0  0  0  0  0  0  0  0
  1  2  1  0
  2  3  1  0
  3  4  1  0
  4  5  1  0
  5  6  1  0
  6  7  2  0
  6  8  1  0
  8  9  2  0
  9 10  1  0
 10 11  2  0
 11 12  1  0
 12 13  2  0
 13 14  1  0
 13 15  1  0
 15 16  2  0
 16 17  1  0
 17 18  2  0
 18  8  1  0
 17 11  1  0
  1 19  1  0
  1 20  1  0
  1 21  1  0
  3 22  1  0
  3 23  1  0
  4 24  1  0
  4 25  1  0
  5 26  1  0
  9 27  1  0
 10 28  1  0
 12 29  1  0
 15 30  1  0
 16 31  1  0
M  END
>  <smiles>  (48) 
COCCNC(=O)c1ccc2cc(F)ccc2n1

>  <score_type>  (48) 
oracle

>  <origin>  (48) 
autodockgpu

>  <m_score__min__energy>  (48) 
-5.71

>  <m_primary>  (48) 
energy

>  <rmsd>  (48) 
1.037038968606044

>  <m_score__min__rmsd>  (48) 
1.037038968606044

>  <meeko>  (48) 
{"free_energy": -5.43, "intermolecular_energy": -6.62, "internal_energy": -1.54, "cluster_size": 50, "cluster_id": 1, "rank_in_cluster": 43}

>  <energy>  (48) 
-5.41

>  <cluster_rmsd>  (48) 
1.22

>  <cluster>  (48) 
1

$$$$

     RDKit          3D

 31 32  0  0  0  0  0  0  0  0999 V2000
  141.4520   74.2690  221.2050 C   0  0  0  0  0  0  0  0  0  0  0  0
  140.2930   74.4030  221.9860 O   0  0  0  0  0  0  0  0  0  0  0  0
  139.1860   74.6290  221.1820 C   0  0  0  0  0  0  0  0  0  0  0  0
  138.2720   73.4210  221.2810 C   0  0  0  0  0  0  0  0  0  0  0  0
  138.6950   72.6090  222.3980 N   0  0  0  0  0  0  0  0  0  0  0  0
  138.5120   71.2060  222.4600 C   0  0  0  0  0  0  0  0  0  0  0  0
  137.9550   70.5760  221.5150 O   0  0  0  0  0  0  0  0  0  0  0  0
  138.9740   70.4560  223.6350 C   0  0  0  0  0  0  0  0  0  0  0  0
  138.7900   69.1000  223.7150 C   0  0  0  0  0  0  0  0  0  0  0  0
  139.2140   68.3690  224.8070 C   0  0  0  0  0  0  0  0  0  0  0  0
  139.8350   69.0470  225.8340 C   0  0  0  0  0  0  0  0  0  0  0  0
  140.2990   68.4230  226.9730 C   0  0  0  0  0  0  0  0  0  0  0  0
  140.9210   69.0880  228.0040 C   0  0  0  0  0  0  0  0  0  0  0  0
  141.3540   68.4100  229.0990 F   0  0  0  0  0  0  0  0  0  0  0  0
  141.1060   70.4600  227.9250 C   0  0  0  0  0  0  0  0  0  0  0  0
  140.6540   71.1110  226.8010 C   0  0  0  0  0  0  0  0  0  0  0  0
  140.0300   70.4270  225.7710 C   0  0  0  0  0  0  0  0  0  0  0  0
  139.5880   71.0550  224.6740 N   0  0  0  0  0  0  0  0  0  0  0  0
  142.3278   74.1677  221.8629 H   0  0  0  0  0  0  0  0  0  0  0  0
  141.3650   73.3749  220.5701 H   0  0  0  0  0  0  0  0  0  0  0  0
  141.5713   75.1593  220.5701 H   0  0  0  0  0  0  0  0  0  0  0  0
  138.6534   75.5279  221.5261 H   0  0  0  0  0  0  0  0  0  0  0  0
  139.4996   74.7832  220.1390 H   0  0  0  0  0  0  0  0  0  0  0  0
  137.2351   73.7535  221.4371 H   0  0  0  0  0  0  0  0  0  0  0  0
  138.3241   72.8351  220.3515 H   0  0  0  0  0  0  0  0  0  0  0  0
  139.1740   73.0540  223.2380 H   0  0  0  0  0  0  0  0  0  0  0  0
  138.2900   68.5790  222.8852 H   0  0  0  0  0  0  0  0  0  0  0  0
  139.0612   67.2808  224.8558 H   0  0  0  0  0  0  0  0  0  0  0  0
  140.1644   67.3349  227.0618 H   0  0  0  0  0  0  0  0  0  0  0  0
  141.6002   71.0119  228.7381 H   0  0  0  0  0  0  0  0  0  0  0  0
  140.7912   72.1993  226.7182 H   0  0  0  0  0  0  0  0  0  0  0  0
  1  2  1  0
  2  3  1  0
  3  4  1  0
  4  5  1  0
  5  6  1  0
  6  7  2  0
  6  8  1  0
  8  9  2  0
  9 10  1  0
 10 11  2  0
 11 12  1  0
 12 13  2  0
 13 14  1  0
 13 15  1  0
 15 16  2  0
 16 17  1  0
 17 18  2  0
 18  8  1  0
 17 11  1  0
  1 19  1  0
  1 20  1  0
  1 21  1  0
  3 22  1  0
  3 23  1  0
  4 24  1  0
  4 25  1  0
  5 26  1  0
  9 27  1  0
 10 28  1  0
 12 29  1  0
 15 30  1  0
 16 31  1  0
M  END
>  <smiles>  (49) 
COCCNC(=O)c1ccc2cc(F)ccc2n1

>  <score_type>  (49) 
oracle

>  <origin>  (49) 
autodockgpu

>  <m_score__min__energy>  (49) 
-5.71

>  <m_primary>  (49) 
energy

>  <rmsd>  (49) 
0.7406592826576475

>  <m_score__min__rmsd>  (49) 
0.7406592826576475

>  <meeko>  (49) 
{"free_energy": -5.41, "intermolecular_energy": -6.6, "internal_energy": -1.52, "cluster_size": 50, "cluster_id": 1, "rank_in_cluster": 48}

>  <energy>  (49) 
-5.41

>  <cluster_rmsd>  (49) 
1.34

>  <cluster>  (49) 
1

$$$$

     RDKit          3D

 31 32  0  0  0  0  0  0  0  0999 V2000
  141.0610   74.9250  221.5930 C   0  0  0  0  0  0  0  0  0  0  0  0
  140.0340   74.2480  222.2690 O   0  0  0  0  0  0  0  0  0  0  0  0
  138.8250   74.4120  221.6110 C   0  0  0  0  0  0  0  0  0  0  0  0
  138.1150   73.0710  221.5780 C   0  0  0  0  0  0  0  0  0  0  0  0
  138.5840   72.2710  222.6850 N   0  0  0  0  0  0  0  0  0  0  0  0
  138.3660   70.8750  222.7890 C   0  0  0  0  0  0  0  0  0  0  0  0
  137.7330   70.2420  221.8950 O   0  0  0  0  0  0  0  0  0  0  0  0
  138.8780   70.1360  223.9510 C   0  0  0  0  0  0  0  0  0  0  0  0
  138.7520   68.7730  224.0230 C   0  0  0  0  0  0  0  0  0  0  0  0
  139.2250   68.0520  225.1020 C   0  0  0  0  0  0  0  0  0  0  0  0
  139.8340   68.7490  226.1230 C   0  0  0  0  0  0  0  0  0  0  0  0
  140.3440   68.1370  227.2490 C   0  0  0  0  0  0  0  0  0  0  0  0
  140.9550   68.8190  228.2750 C   0  0  0  0  0  0  0  0  0  0  0  0
  141.4340   68.1520  229.3570 F   0  0  0  0  0  0  0  0  0  0  0  0
  141.0820   70.1980  228.2040 C   0  0  0  0  0  0  0  0  0  0  0  0
  140.5840   70.8380  227.0930 C   0  0  0  0  0  0  0  0  0  0  0  0
  139.9720   70.1360  226.0680 C   0  0  0  0  0  0  0  0  0  0  0  0
  139.4840   70.7530  224.9840 N   0  0  0  0  0  0  0  0  0  0  0  0
  141.7463   75.3768  222.3253 H   0  0  0  0  0  0  0  0  0  0  0  0
  141.6151   74.2145  220.9620 H   0  0  0  0  0  0  0  0  0  0  0  0
  140.6265   75.7143  220.9620 H   0  0  0  0  0  0  0  0  0  0  0  0
  138.2066   75.1472  222.1467 H   0  0  0  0  0  0  0  0  0  0  0  0
  138.9969   74.7753  220.5870 H   0  0  0  0  0  0  0  0  0  0  0  0
  137.0294   73.2248  221.6663 H   0  0  0  0  0  0  0  0  0  0  0  0
  138.3275   72.5579  220.6285 H   0  0  0  0  0  0  0  0  0  0  0  0
  139.1260   72.7190  223.4830 H   0  0  0  0  0  0  0  0  0  0  0  0
  138.2599   68.2378  223.1975 H   0  0  0  0  0  0  0  0  0  0  0  0
  139.1191   66.9580  225.1449 H   0  0  0  0  0  0  0  0  0  0  0  0
  140.2572   67.0435  227.3308 H   0  0  0  0  0  0  0  0  0  0  0  0
  141.5671   70.7639  229.0130 H   0  0  0  0  0  0  0  0  0  0  0  0
  140.6738   71.9317  227.0170 H   0  0  0  0  0  0  0  0  0  0  0  0
  1  2  1  0
  2  3  1  0
  3  4  1  0
  4  5  1  0
  5  6  1  0
  6  7  2  0
  6  8  1  0
  8  9  2  0
  9 10  1  0
 10 11  2  0
 11 12  1  0
 12 13  2  0
 13 14  1  0
 13 15  1  0
 15 16  2  0
 16 17  1  0
 17 18  2  0
 18  8  1  0
 17 11  1  0
  1 19  1  0
  1 20  1  0
  1 21  1  0
  3 22  1  0
  3 23  1  0
  4 24  1  0
  4 25  1  0
  5 26  1  0
  9 27  1  0
 10 28  1  0
 12 29  1  0
 15 30  1  0
 16 31  1  0
M  END
>  <smiles>  (50) 
COCCNC(=O)c1ccc2cc(F)ccc2n1

>  <score_type>  (50) 
oracle

>  <origin>  (50) 
autodockgpu

>  <m_score__min__energy>  (50) 
-5.71

>  <m_primary>  (50) 
energy

>  <rmsd>  (50) 
1.0423174612219932

>  <m_score__min__rmsd>  (50) 
1.0423174612219932

>  <meeko>  (50) 
{"free_energy": -5.51, "intermolecular_energy": -6.7, "internal_energy": -1.48, "cluster_size": 50, "cluster_id": 1, "rank_in_cluster": 7}

>  <energy>  (50) 
-5.41

>  <cluster_rmsd>  (50) 
1.35

>  <cluster>  (50) 
1

$$$$
