
     RDKit          3D

 70 73  0  0  0  0  0  0  0  0999 V2000
  138.7890   67.6850  223.0640 C   0  0  0  0  0  0  0  0  0  0  0  0
  139.2400   67.9510  224.4990 C   0  0  0  0  0  0  0  0  0  0  0  0
  138.4500   69.1270  224.9820 C   0  0  0  0  0  0  0  0  0  0  0  0
  137.2640   68.8800  225.3430 O   0  0  0  0  0  0  0  0  0  0  0  0
  139.0190   70.4330  225.0210 N   0  0  0  0  0  0  0  0  0  0  0  0
  139.8670   70.7610  226.1190 C   0  0  0  0  0  0  0  0  0  0  0  0
  139.8260   69.8990  227.1980 C   0  0  0  0  0  0  0  0  0  0  0  0
  140.5840   70.0790  228.3400 C   0  0  0  0  0  0  0  0  0  0  0  0
  141.4120   71.1910  228.3560 C   0  0  0  0  0  0  0  0  0  0  0  0
  141.4590   72.0630  227.2730 C   0  0  0  0  0  0  0  0  0  0  0  0
  140.6930   71.8590  226.1510 C   0  0  0  0  0  0  0  0  0  0  0  0
  138.7050   71.3500  223.9520 C   0  0  0  0  0  0  0  0  0  0  0  0
  139.5220   70.9470  222.7630 C   0  0  0  0  0  0  0  0  0  0  0  0
  139.6430   72.1890  221.8680 C   0  0  0  0  0  0  0  0  0  0  0  0
  138.3370   72.8320  221.9650 N   0  0  0  0  0  0  0  0  0  0  0  0
  138.1470   74.2320  221.9000 C   0  0  0  0  0  0  0  0  0  0  0  0
  136.9580   74.6670  221.9910 O   0  0  0  0  0  0  0  0  0  0  0  0
  139.2150   75.2170  221.7380 C   0  0  2  0  0  0  0  0  0  0  0  0
  138.8280   76.5020  222.3240 N   0  0  0  0  0  0  0  0  0  0  0  0
  139.3600   75.5160  220.2380 C   0  0  0  0  0  0  0  0  0  0  0  0
  140.7910   75.8910  220.0570 C   0  0  0  0  0  0  0  0  0  0  0  0
  141.1960   77.2070  219.9120 C   0  0  0  0  0  0  0  0  0  0  0  0
  142.5550   77.4440  219.7420 C   0  0  0  0  0  0  0  0  0  0  0  0
  143.4610   76.3830  219.7220 C   0  0  0  0  0  0  0  0  0  0  0  0
  143.0700   75.0830  219.8640 C   0  0  0  0  0  0  0  0  0  0  0  0
  143.9490   73.9920  219.8430 N   0  0  0  0  0  0  0  0  0  0  0  0
  143.9070   72.9050  218.8870 C   0  0  0  0  0  0  0  0  0  0  0  0
  145.2450   72.8960  218.1640 C   0  0  0  0  0  0  0  0  0  0  0  0
  146.2870   72.8910  219.0560 O   0  0  0  0  0  0  0  0  0  0  0  0
  145.9440   72.8090  220.3820 C   0  0  0  0  0  0  0  0  0  0  0  0
  145.0120   73.9000  220.8550 C   0  0  0  0  0  0  0  0  0  0  0  0
  141.7030   74.8620  220.0340 C   0  0  0  0  0  0  0  0  0  0  0  0
  137.2070   71.9070  222.1460 C   0  0  0  0  0  0  0  0  0  0  0  0
  137.2460   71.3530  223.5770 C   0  0  0  0  0  0  0  0  0  0  0  0
  137.8416   67.1262  223.0750 H   0  0  0  0  0  0  0  0  0  0  0  0
  138.6441   68.6422  222.5418 H   0  0  0  0  0  0  0  0  0  0  0  0
  139.5566   67.0950  222.5418 H   0  0  0  0  0  0  0  0  0  0  0  0
  139.0381   67.0727  225.1297 H   0  0  0  0  0  0  0  0  0  0  0  0
  140.3206   68.1516  224.5455 H   0  0  0  0  0  0  0  0  0  0  0  0
  139.1576   69.0269  227.1458 H   0  0  0  0  0  0  0  0  0  0  0  0
  140.5331   69.3798  229.1877 H   0  0  0  0  0  0  0  0  0  0  0  0
  142.0405   71.3865  229.2373 H   0  0  0  0  0  0  0  0  0  0  0  0
  142.1256   72.9369  227.3161 H   0  0  0  0  0  0  0  0  0  0  0  0
  140.7395   72.5557  225.3011 H   0  0  0  0  0  0  0  0  0  0  0  0
  138.9371   72.3697  224.2931 H   0  0  0  0  0  0  0  0  0  0  0  0
  140.5195   70.6129  223.0843 H   0  0  0  0  0  0  0  0  0  0  0  0
  139.0486   70.1145  222.2219 H   0  0  0  0  0  0  0  0  0  0  0  0
  140.4350   72.8582  222.2352 H   0  0  0  0  0  0  0  0  0  0  0  0
  139.9107   71.9356  220.8316 H   0  0  0  0  0  0  0  0  0  0  0  0
  140.1245   74.8147  222.2080 H   0  0  0  0  0  0  0  0  0  0  0  0
  137.8330   76.6580  222.0960 H   0  0  0  0  0  0  0  0  0  0  0  0
  138.8830   76.4600  223.3760 H   0  0  0  0  0  0  0  0  0  0  0  0
  139.1150   74.6254  219.6406 H   0  0  0  0  0  0  0  0  0  0  0  0
  138.6784   76.3137  219.9075 H   0  0  0  0  0  0  0  0  0  0  0  0
  140.4701   78.0333  219.9306 H   0  0  0  0  0  0  0  0  0  0  0  0
  142.9188   78.4752  219.6224 H   0  0  0  0  0  0  0  0  0  0  0  0
  144.5304   76.6025  219.5867 H   0  0  0  0  0  0  0  0  0  0  0  0
  143.7532   71.9489  219.4087 H   0  0  0  0  0  0  0  0  0  0  0  0
  143.0780   73.0392  218.1765 H   0  0  0  0  0  0  0  0  0  0  0  0
  145.3070   71.9966  217.5337 H   0  0  0  0  0  0  0  0  0  0  0  0
  145.3160   73.8046  217.5481 H   0  0  0  0  0  0  0  0  0  0  0  0
  145.4523   71.8396  220.5507 H   0  0  0  0  0  0  0  0  0  0  0  0
  146.8762   72.9229  220.9547 H   0  0  0  0  0  0  0  0  0  0  0  0
  144.5853   73.6399  221.8349 H   0  0  0  0  0  0  0  0  0  0  0  0
  145.5399   74.8578  220.9730 H   0  0  0  0  0  0  0  0  0  0  0  0
  141.3425   73.8297  220.1537 H   0  0  0  0  0  0  0  0  0  0  0  0
  136.2605   72.4431  221.9827 H   0  0  0  0  0  0  0  0  0  0  0  0
  137.2804   71.0811  221.4232 H   0  0  0  0  0  0  0  0  0  0  0  0
  136.6727   71.9993  224.2579 H   0  0  0  0  0  0  0  0  0  0  0  0
  136.7989   70.3503  223.6451 H   0  0  0  0  0  0  0  0  0  0  0  0
  1  2  1  0
  2  3  1  0
  3  4  2  0
  3  5  1  0
  5  6  1  0
  6  7  2  0
  7  8  1  0
  8  9  2  0
  9 10  1  0
 10 11  2  0
  5 12  1  0
 12 13  1  0
 13 14  1  0
 14 15  1  0
 15 16  1  0
 16 17  2  0
 16 18  1  0
 18 19  1  0
 18 20  1  0
 20 21  1  0
 21 22  2  0
 22 23  1  0
 23 24  2  0
 24 25  1  0
 25 26  1  0
 26 27  1  0
 27 28  1  0
 28 29  1  0
 29 30  1  0
 30 31  1  0
 25 32  2  0
 15 33  1  0
 33 34  1  0
 11  6  1  0
 34 12  1  0
 32 21  1  0
 31 26  1  0
  1 35  1  0
  1 36  1  0
  1 37  1  0
  2 38  1  0
  2 39  1  0
  7 40  1  0
  8 41  1  0
  9 42  1  0
 10 43  1  0
 11 44  1  0
 12 45  1  0
 13 46  1  0
 13 47  1  0
 14 48  1  0
 14 49  1  0
 18 50  1  1
 19 51  1  0
 19 52  1  0
 20 53  1  0
 20 54  1  0
 22 55  1  0
 23 56  1  0
 24 57  1  0
 27 58  1  0
 27 59  1  0
 28 60  1  0
 28 61  1  0
 30 62  1  0
 30 63  1  0
 31 64  1  0
 31 65  1  0
 32 66  1  0
 33 67  1  0
 33 68  1  0
 34 69  1  0
 34 70  1  0
M  END
>  <smiles>  (1) 
CCC(=O)N(c1ccccc1)C1CCN(C(=O)[C@H](N)Cc2cccc(N3CCOCC3)c2)CC1

>  <score_type>  (1) 
oracle

>  <origin>  (1) 
autodockgpu

>  <m_score__min__energy>  (1) 
-8.8800000000000008

>  <m_primary>  (1) 
energy

>  <rmsd>  (1) 
7.0459804788774605

>  <m_score__min__rmsd>  (1) 
7.0459804788774605

>  <meeko>  (1) 
{"free_energy": -7.44, "intermolecular_energy": -10.12, "internal_energy": -2.68, "cluster_size": 7, "cluster_id": 2, "rank_in_cluster": 4}

>  <energy>  (1) 
-8.88

>  <cluster_rmsd>  (1) 
0.0

>  <cluster>  (1) 
1

$$$$

     RDKit          3D

 70 73  0  0  0  0  0  0  0  0999 V2000
  132.6140   69.3370  225.7160 C   0  0  0  0  0  0  0  0  0  0  0  0
  132.2440   70.7500  226.1620 C   0  0  0  0  0  0  0  0  0  0  0  0
  133.5210   71.4150  226.5740 C   0  0  0  0  0  0  0  0  0  0  0  0
  134.1050   70.9090  227.5730 O   0  0  0  0  0  0  0  0  0  0  0  0
  134.0250   72.5470  225.8700 N   0  0  0  0  0  0  0  0  0  0  0  0
  133.6390   73.8430  226.3230 C   0  0  0  0  0  0  0  0  0  0  0  0
  132.5000   73.9000  227.1040 C   0  0  0  0  0  0  0  0  0  0  0  0
  131.9940   75.0790  227.6180 C   0  0  0  0  0  0  0  0  0  0  0  0
  132.6970   76.2340  227.3080 C   0  0  0  0  0  0  0  0  0  0  0  0
  133.8440   76.1830  226.5230 C   0  0  0  0  0  0  0  0  0  0  0  0
  134.3240   74.9960  226.0260 C   0  0  0  0  0  0  0  0  0  0  0  0
  134.8930   72.3210  224.7400 C   0  0  0  0  0  0  0  0  0  0  0  0
  135.3230   70.8870  224.7870 C   0  0  0  0  0  0  0  0  0  0  0  0
  136.6340   70.7920  223.9930 C   0  0  0  0  0  0  0  0  0  0  0  0
  136.4420   71.7030  222.8700 N   0  0  0  0  0  0  0  0  0  0  0  0
  137.4890   72.4450  222.2760 C   0  0  0  0  0  0  0  0  0  0  0  0
  137.1920   73.1990  221.2990 O   0  0  0  0  0  0  0  0  0  0  0  0
  138.8870   72.4120  222.7010 C   0  0  2  0  0  0  0  0  0  0  0  0
  139.5710   73.6520  222.3290 N   0  0  0  0  0  0  0  0  0  0  0  0
  139.6050   71.3270  221.8840 C   0  0  0  0  0  0  0  0  0  0  0  0
  139.4350   70.0750  222.6750 C   0  0  0  0  0  0  0  0  0  0  0  0
  138.8410   68.9430  222.1460 C   0  0  0  0  0  0  0  0  0  0  0  0
  138.7250   67.8330  222.9740 C   0  0  0  0  0  0  0  0  0  0  0  0
  139.1970   67.8770  224.2850 C   0  0  0  0  0  0  0  0  0  0  0  0
  139.7840   68.9890  224.8170 C   0  0  0  0  0  0  0  0  0  0  0  0
  140.2650   69.0730  226.1300 N   0  0  0  0  0  0  0  0  0  0  0  0
  141.0410   70.1720  226.6650 C   0  0  0  0  0  0  0  0  0  0  0  0
  140.2510   70.7470  227.8310 C   0  0  0  0  0  0  0  0  0  0  0  0
  139.8900   69.7630  228.7140 O   0  0  0  0  0  0  0  0  0  0  0  0
  140.3620   68.5040  228.4400 C   0  0  0  0  0  0  0  0  0  0  0  0
  139.9860   67.9800  227.0730 C   0  0  0  0  0  0  0  0  0  0  0  0
  139.8920   70.0950  223.9720 C   0  0  0  0  0  0  0  0  0  0  0  0
  135.0540   71.8050  222.3900 C   0  0  0  0  0  0  0  0  0  0  0  0
  134.2340   72.6010  223.4150 C   0  0  0  0  0  0  0  0  0  0  0  0
  132.7795   68.7048  226.6008 H   0  0  0  0  0  0  0  0  0  0  0  0
  131.7956   68.9167  225.1130 H   0  0  0  0  0  0  0  0  0  0  0  0
  133.5333   69.3718  225.1130 H   0  0  0  0  0  0  0  0  0  0  0  0
  131.7796   71.3012  225.3310 H   0  0  0  0  0  0  0  0  0  0  0  0
  131.5216   70.7286  226.9913 H   0  0  0  0  0  0  0  0  0  0  0  0
  131.9708   72.9619  227.3272 H   0  0  0  0  0  0  0  0  0  0  0  0
  131.0854   75.1003  228.2377 H   0  0  0  0  0  0  0  0  0  0  0  0
  132.3425   77.2034  227.6882 H   0  0  0  0  0  0  0  0  0  0  0  0
  134.3798   77.1161  226.2946 H   0  0  0  0  0  0  0  0  0  0  0  0
  135.2327   74.9694  225.4067 H   0  0  0  0  0  0  0  0  0  0  0  0
  135.7428   73.0156  224.8136 H   0  0  0  0  0  0  0  0  0  0  0  0
  135.4875   70.5747  225.8288 H   0  0  0  0  0  0  0  0  0  0  0  0
  134.5527   70.2292  224.3582 H   0  0  0  0  0  0  0  0  0  0  0  0
  137.4874   71.1090  224.6104 H   0  0  0  0  0  0  0  0  0  0  0  0
  136.8549   69.7647  223.6678 H   0  0  0  0  0  0  0  0  0  0  0  0
  138.9092   72.2472  223.7884 H   0  0  0  0  0  0  0  0  0  0  0  0
  139.2310   73.9240  221.3930 H   0  0  0  0  0  0  0  0  0  0  0  0
  139.2940   74.4360  222.9780 H   0  0  0  0  0  0  0  0  0  0  0  0
  139.1445   71.2225  220.8905 H   0  0  0  0  0  0  0  0  0  0  0  0
  140.6646   71.5693  221.7153 H   0  0  0  0  0  0  0  0  0  0  0  0
  138.4744   68.9224  221.1091 H   0  0  0  0  0  0  0  0  0  0  0  0
  138.2575   66.9133  222.5923 H   0  0  0  0  0  0  0  0  0  0  0  0
  139.0925   66.9814  224.9151 H   0  0  0  0  0  0  0  0  0  0  0  0
  142.0193   69.8094  227.0135 H   0  0  0  0  0  0  0  0  0  0  0  0
  141.2198   70.9378  225.8958 H   0  0  0  0  0  0  0  0  0  0  0  0
  140.8714   71.4895  228.3542 H   0  0  0  0  0  0  0  0  0  0  0  0
  139.3373   71.2161  227.4371 H   0  0  0  0  0  0  0  0  0  0  0  0
  141.4595   68.5252  228.5104 H   0  0  0  0  0  0  0  0  0  0  0  0
  139.8982   67.8283  229.1737 H   0  0  0  0  0  0  0  0  0  0  0  0
  140.5905   67.0957  226.8230 H   0  0  0  0  0  0  0  0  0  0  0  0
  138.9300   67.6742  227.0348 H   0  0  0  0  0  0  0  0  0  0  0  0
  140.3586   71.0139  224.3567 H   0  0  0  0  0  0  0  0  0  0  0  0
  135.0354   72.3224  221.4195 H   0  0  0  0  0  0  0  0  0  0  0  0
  134.6255   70.7992  222.2681 H   0  0  0  0  0  0  0  0  0  0  0  0
  134.2670   73.6764  223.1859 H   0  0  0  0  0  0  0  0  0  0  0  0
  133.1728   72.3116  223.4110 H   0  0  0  0  0  0  0  0  0  0  0  0
  1  2  1  0
  2  3  1  0
  3  4  2  0
  3  5  1  0
  5  6  1  0
  6  7  2  0
  7  8  1  0
  8  9  2  0
  9 10  1  0
 10 11  2  0
  5 12  1  0
 12 13  1  0
 13 14  1  0
 14 15  1  0
 15 16  1  0
 16 17  2  0
 16 18  1  0
 18 19  1  0
 18 20  1  0
 20 21  1  0
 21 22  2  0
 22 23  1  0
 23 24  2  0
 24 25  1  0
 25 26  1  0
 26 27  1  0
 27 28  1  0
 28 29  1  0
 29 30  1  0
 30 31  1  0
 25 32  2  0
 15 33  1  0
 33 34  1  0
 11  6  1  0
 34 12  1  0
 32 21  1  0
 31 26  1  0
  1 35  1  0
  1 36  1  0
  1 37  1  0
  2 38  1  0
  2 39  1  0
  7 40  1  0
  8 41  1  0
  9 42  1  0
 10 43  1  0
 11 44  1  0
 12 45  1  0
 13 46  1  0
 13 47  1  0
 14 48  1  0
 14 49  1  0
 18 50  1  1
 19 51  1  0
 19 52  1  0
 20 53  1  0
 20 54  1  0
 22 55  1  0
 23 56  1  0
 24 57  1  0
 27 58  1  0
 27 59  1  0
 28 60  1  0
 28 61  1  0
 30 62  1  0
 30 63  1  0
 31 64  1  0
 31 65  1  0
 32 66  1  0
 33 67  1  0
 33 68  1  0
 34 69  1  0
 34 70  1  0
M  END
>  <smiles>  (2) 
CCC(=O)N(c1ccccc1)C1CCN(C(=O)[C@H](N)Cc2cccc(N3CCOCC3)c2)CC1

>  <score_type>  (2) 
oracle

>  <origin>  (2) 
autodockgpu

>  <m_score__min__energy>  (2) 
-8.8800000000000008

>  <m_primary>  (2) 
energy

>  <rmsd>  (2) 
8.903763831714313

>  <m_score__min__rmsd>  (2) 
8.903763831714313

>  <meeko>  (2) 
{"free_energy": -6.99, "intermolecular_energy": -9.67, "internal_energy": -2.98, "cluster_size": 1, "cluster_id": 9, "rank_in_cluster": 1}

>  <energy>  (2) 
-8.79

>  <cluster_rmsd>  (2) 
0.24

>  <cluster>  (2) 
1

$$$$

     RDKit          3D

 70 73  0  0  0  0  0  0  0  0999 V2000
  137.6340   67.9050  222.3500 C   0  0  0  0  0  0  0  0  0  0  0  0
  137.4400   68.8650  223.5230 C   0  0  0  0  0  0  0  0  0  0  0  0
  138.7420   68.9030  224.2610 C   0  0  0  0  0  0  0  0  0  0  0  0
  139.2090   67.7820  224.6080 O   0  0  0  0  0  0  0  0  0  0  0  0
  139.3940   70.1390  224.5460 N   0  0  0  0  0  0  0  0  0  0  0  0
  139.9170   70.3320  225.8580 C   0  0  0  0  0  0  0  0  0  0  0  0
  140.6080   71.5090  226.0710 C   0  0  0  0  0  0  0  0  0  0  0  0
  141.1790   71.8430  227.2850 C   0  0  0  0  0  0  0  0  0  0  0  0
  141.0230   70.9210  228.3090 C   0  0  0  0  0  0  0  0  0  0  0  0
  140.3280   69.7340  228.1020 C   0  0  0  0  0  0  0  0  0  0  0  0
  139.7710   69.4290  226.8840 C   0  0  0  0  0  0  0  0  0  0  0  0
  139.4850   71.1230  223.4960 C   0  0  0  0  0  0  0  0  0  0  0  0
  139.9350   70.4140  222.2560 C   0  0  0  0  0  0  0  0  0  0  0  0
  140.5740   71.4730  221.3470 C   0  0  0  0  0  0  0  0  0  0  0  0
  139.7400   72.6570  221.5300 N   0  0  0  0  0  0  0  0  0  0  0  0
  140.2350   73.9800  221.4690 C   0  0  0  0  0  0  0  0  0  0  0  0
  139.4040   74.9250  221.6400 O   0  0  0  0  0  0  0  0  0  0  0  0
  141.6300   74.3440  221.2280 C   0  0  2  0  0  0  0  0  0  0  0  0
  141.7840   75.7990  221.1770 N   0  0  0  0  0  0  0  0  0  0  0  0
  142.0020   73.8770  219.8120 C   0  0  0  0  0  0  0  0  0  0  0  0
  143.3970   73.3640  219.9320 C   0  0  0  0  0  0  0  0  0  0  0  0
  144.4580   74.1830  220.2760 C   0  0  0  0  0  0  0  0  0  0  0  0
  145.7180   73.6020  220.3510 C   0  0  0  0  0  0  0  0  0  0  0  0
  145.8870   72.2430  220.0870 C   0  0  0  0  0  0  0  0  0  0  0  0
  144.8470   71.4270  219.7460 C   0  0  0  0  0  0  0  0  0  0  0  0
  144.9780   70.0610  219.4690 N   0  0  0  0  0  0  0  0  0  0  0  0
  143.9520   69.0630  219.6870 C   0  0  0  0  0  0  0  0  0  0  0  0
  143.6520   68.4300  218.3370 C   0  0  0  0  0  0  0  0  0  0  0  0
  144.8030   68.0040  217.7260 O   0  0  0  0  0  0  0  0  0  0  0  0
  145.9590   68.1430  218.4530 C   0  0  0  0  0  0  0  0  0  0  0  0
  146.2430   69.5540  218.9130 C   0  0  0  0  0  0  0  0  0  0  0  0
  143.5880   72.0260  219.6750 C   0  0  0  0  0  0  0  0  0  0  0  0
  138.3210   72.3740  221.7950 C   0  0  0  0  0  0  0  0  0  0  0  0
  138.1830   71.8280  223.2230 C   0  0  0  0  0  0  0  0  0  0  0  0
  137.8382   66.8943  222.7333 H   0  0  0  0  0  0  0  0  0  0  0  0
  136.7214   67.8869  221.7362 H   0  0  0  0  0  0  0  0  0  0  0  0
  138.4821   68.2427  221.7362 H   0  0  0  0  0  0  0  0  0  0  0  0
  137.1829   69.8689  223.1540 H   0  0  0  0  0  0  0  0  0  0  0  0
  136.6211   68.5325  224.1779 H   0  0  0  0  0  0  0  0  0  0  0  0
  140.7089   72.2152  225.2336 H   0  0  0  0  0  0  0  0  0  0  0  0
  141.7259   72.7863  227.4303 H   0  0  0  0  0  0  0  0  0  0  0  0
  141.4548   71.1312  229.2986 H   0  0  0  0  0  0  0  0  0  0  0  0
  140.2219   69.0222  228.9339 H   0  0  0  0  0  0  0  0  0  0  0  0
  139.2227   68.4873  226.7337 H   0  0  0  0  0  0  0  0  0  0  0  0
  140.1948   71.9009  223.8140 H   0  0  0  0  0  0  0  0  0  0  0  0
  140.6722   69.6381  222.5098 H   0  0  0  0  0  0  0  0  0  0  0  0
  139.0893   69.9213  221.7540 H   0  0  0  0  0  0  0  0  0  0  0  0
  141.6107   71.6755  221.6539 H   0  0  0  0  0  0  0  0  0  0  0  0
  140.6216   71.1511  220.2962 H   0  0  0  0  0  0  0  0  0  0  0  0
  142.2424   73.8993  222.0263 H   0  0  0  0  0  0  0  0  0  0  0  0
  140.9110   76.1890  220.7860 H   0  0  0  0  0  0  0  0  0  0  0  0
  141.8700   76.1960  222.1500 H   0  0  0  0  0  0  0  0  0  0  0  0
  141.3234   73.0787  219.4769 H   0  0  0  0  0  0  0  0  0  0  0  0
  141.9209   74.6882  219.0735 H   0  0  0  0  0  0  0  0  0  0  0  0
  144.3096   75.2533  220.4822 H   0  0  0  0  0  0  0  0  0  0  0  0
  146.5884   74.2183  220.6205 H   0  0  0  0  0  0  0  0  0  0  0  0
  146.8968   71.8122  220.1562 H   0  0  0  0  0  0  0  0  0  0  0  0
  144.3125   68.2984  220.3908 H   0  0  0  0  0  0  0  0  0  0  0  0
  143.0473   69.5180  220.1165 H   0  0  0  0  0  0  0  0  0  0  0  0
  142.9834   67.5690  218.4843 H   0  0  0  0  0  0  0  0  0  0  0  0
  143.1739   69.1847  217.6952 H   0  0  0  0  0  0  0  0  0  0  0  0
  145.8852   67.4998  219.3423 H   0  0  0  0  0  0  0  0  0  0  0  0
  146.7853   67.8591  217.7848 H   0  0  0  0  0  0  0  0  0  0  0  0
  147.0270   69.5541  219.6845 H   0  0  0  0  0  0  0  0  0  0  0  0
  146.6006   70.1837  218.0850 H   0  0  0  0  0  0  0  0  0  0  0  0
  142.7195   71.4074  219.4045 H   0  0  0  0  0  0  0  0  0  0  0  0
  137.7346   73.2993  221.6948 H   0  0  0  0  0  0  0  0  0  0  0  0
  137.9471   71.6323  221.0738 H   0  0  0  0  0  0  0  0  0  0  0  0
  138.0304   72.6496  223.9384 H   0  0  0  0  0  0  0  0  0  0  0  0
  137.3185   71.1559  223.3275 H   0  0  0  0  0  0  0  0  0  0  0  0
  1  2  1  0
  2  3  1  0
  3  4  2  0
  3  5  1  0
  5  6  1  0
  6  7  2  0
  7  8  1  0
  8  9  2  0
  9 10  1  0
 10 11  2  0
  5 12  1  0
 12 13  1  0
 13 14  1  0
 14 15  1  0
 15 16  1  0
 16 17  2  0
 16 18  1  0
 18 19  1  0
 18 20  1  0
 20 21  1  0
 21 22  2  0
 22 23  1  0
 23 24  2  0
 24 25  1  0
 25 26  1  0
 26 27  1  0
 27 28  1  0
 28 29  1  0
 29 30  1  0
 30 31  1  0
 25 32  2  0
 15 33  1  0
 33 34  1  0
 11  6  1  0
 34 12  1  0
 32 21  1  0
 31 26  1  0
  1 35  1  0
  1 36  1  0
  1 37  1  0
  2 38  1  0
  2 39  1  0
  7 40  1  0
  8 41  1  0
  9 42  1  0
 10 43  1  0
 11 44  1  0
 12 45  1  0
 13 46  1  0
 13 47  1  0
 14 48  1  0
 14 49  1  0
 18 50  1  1
 19 51  1  0
 19 52  1  0
 20 53  1  0
 20 54  1  0
 22 55  1  0
 23 56  1  0
 24 57  1  0
 27 58  1  0
 27 59  1  0
 28 60  1  0
 28 61  1  0
 30 62  1  0
 30 63  1  0
 31 64  1  0
 31 65  1  0
 32 66  1  0
 33 67  1  0
 33 68  1  0
 34 69  1  0
 34 70  1  0
M  END
>  <smiles>  (3) 
CCC(=O)N(c1ccccc1)C1CCN(C(=O)[C@H](N)Cc2cccc(N3CCOCC3)c2)CC1

>  <score_type>  (3) 
oracle

>  <origin>  (3) 
autodockgpu

>  <m_score__min__energy>  (3) 
-8.8800000000000008

>  <m_primary>  (3) 
energy

>  <rmsd>  (3) 
7.185907389904441

>  <m_score__min__rmsd>  (3) 
7.185907389904441

>  <meeko>  (3) 
{"free_energy": -8.06, "intermolecular_energy": -10.75, "internal_energy": -2.62, "cluster_size": 20, "cluster_id": 1, "rank_in_cluster": 14}

>  <energy>  (3) 
-8.74

>  <cluster_rmsd>  (3) 
0.35

>  <cluster>  (3) 
1

$$$$

     RDKit          3D

 70 73  0  0  0  0  0  0  0  0999 V2000
  146.3770   73.0720  221.9850 C   0  0  0  0  0  0  0  0  0  0  0  0
  146.1340   74.0850  220.8680 C   0  0  0  0  0  0  0  0  0  0  0  0
  145.7580   73.2960  219.6530 C   0  0  0  0  0  0  0  0  0  0  0  0
  146.5460   73.3920  218.6700 O   0  0  0  0  0  0  0  0  0  0  0  0
  144.5780   72.4950  219.6270 N   0  0  0  0  0  0  0  0  0  0  0  0
  144.7330   71.0780  219.5880 C   0  0  0  0  0  0  0  0  0  0  0  0
  145.8850   70.6080  218.9900 C   0  0  0  0  0  0  0  0  0  0  0  0
  146.1810   69.2630  218.8700 C   0  0  0  0  0  0  0  0  0  0  0  0
  145.2460   68.3810  219.3920 C   0  0  0  0  0  0  0  0  0  0  0  0
  144.0840   68.8480  219.9970 C   0  0  0  0  0  0  0  0  0  0  0  0
  143.8160   70.1920  220.1020 C   0  0  0  0  0  0  0  0  0  0  0  0
  143.2980   73.1600  219.6390 C   0  0  0  0  0  0  0  0  0  0  0  0
  143.4930   74.5170  219.0340 C   0  0  0  0  0  0  0  0  0  0  0  0
  142.3520   75.4020  219.5540 C   0  0  0  0  0  0  0  0  0  0  0  0
  141.1920   74.5170  219.5790 N   0  0  0  0  0  0  0  0  0  0  0  0
  140.1500   74.6180  220.5290 C   0  0  0  0  0  0  0  0  0  0  0  0
  139.1920   73.7900  220.4390 O   0  0  0  0  0  0  0  0  0  0  0  0
  140.0920   75.6000  221.6100 C   0  0  2  0  0  0  0  0  0  0  0  0
  139.1660   75.1660  222.6560 N   0  0  0  0  0  0  0  0  0  0  0  0
  139.4540   76.8810  221.0510 C   0  0  0  0  0  0  0  0  0  0  0  0
  139.8120   77.9470  222.0290 C   0  0  0  0  0  0  0  0  0  0  0  0
  141.0750   78.0420  222.5880 C   0  0  0  0  0  0  0  0  0  0  0  0
  141.2980   79.0710  223.4950 C   0  0  0  0  0  0  0  0  0  0  0  0
  140.2770   79.9650  223.8170 C   0  0  0  0  0  0  0  0  0  0  0  0
  139.0280   79.8790  223.2710 C   0  0  0  0  0  0  0  0  0  0  0  0
  137.9770   80.7530  223.5730 N   0  0  0  0  0  0  0  0  0  0  0  0
  136.9590   80.5180  224.5750 C   0  0  0  0  0  0  0  0  0  0  0  0
  137.0530   81.6560  225.5810 C   0  0  0  0  0  0  0  0  0  0  0  0
  137.0260   82.8730  224.9510 O   0  0  0  0  0  0  0  0  0  0  0  0
  136.8390   82.8450  223.5920 C   0  0  0  0  0  0  0  0  0  0  0  0
  137.8570   82.0220  222.8380 C   0  0  0  0  0  0  0  0  0  0  0  0
  138.8200   78.8410  222.3620 C   0  0  0  0  0  0  0  0  0  0  0  0
  141.1820   73.4850  218.5290 C   0  0  0  0  0  0  0  0  0  0  0  0
  142.2340   72.4210  218.8720 C   0  0  0  0  0  0  0  0  0  0  0  0
  146.2584   73.5663  222.9605 H   0  0  0  0  0  0  0  0  0  0  0  0
  145.6504   72.2506  221.8995 H   0  0  0  0  0  0  0  0  0  0  0  0
  147.3972   72.6696  221.8995 H   0  0  0  0  0  0  0  0  0  0  0  0
  145.3175   74.7679  221.1453 H   0  0  0  0  0  0  0  0  0  0  0  0
  147.0297   74.6964  220.6837 H   0  0  0  0  0  0  0  0  0  0  0  0
  146.6024   71.3394  218.5895 H   0  0  0  0  0  0  0  0  0  0  0  0
  147.1054   68.9120  218.3880 H   0  0  0  0  0  0  0  0  0  0  0  0
  145.4261   67.2978  219.3265 H   0  0  0  0  0  0  0  0  0  0  0  0
  143.3615   68.1238  220.4015 H   0  0  0  0  0  0  0  0  0  0  0  0
  142.8937   70.5487  220.5838 H   0  0  0  0  0  0  0  0  0  0  0  0
  142.9469   73.2123  220.6802 H   0  0  0  0  0  0  0  0  0  0  0  0
  144.4643   74.9323  219.3405 H   0  0  0  0  0  0  0  0  0  0  0  0
  143.4828   74.4646  217.9353 H   0  0  0  0  0  0  0  0  0  0  0  0
  142.5783   75.7765  220.5633 H   0  0  0  0  0  0  0  0  0  0  0  0
  142.1895   76.2903  218.9259 H   0  0  0  0  0  0  0  0  0  0  0  0
  141.1106   75.7361  222.0023 H   0  0  0  0  0  0  0  0  0  0  0  0
  138.3160   74.8110  222.1890 H   0  0  0  0  0  0  0  0  0  0  0  0
  139.5670   74.3490  223.1900 H   0  0  0  0  0  0  0  0  0  0  0  0
  139.8629   77.1148  220.0569 H   0  0  0  0  0  0  0  0  0  0  0  0
  138.3655   76.7813  220.9276 H   0  0  0  0  0  0  0  0  0  0  0  0
  141.8713   77.3304  222.3244 H   0  0  0  0  0  0  0  0  0  0  0  0
  142.2875   79.1813  223.9626 H   0  0  0  0  0  0  0  0  0  0  0  0
  140.4855   80.7695  224.5377 H   0  0  0  0  0  0  0  0  0  0  0  0
  135.9635   80.5088  224.1071 H   0  0  0  0  0  0  0  0  0  0  0  0
  137.1099   79.5459  225.0671 H   0  0  0  0  0  0  0  0  0  0  0  0
  136.2032   81.5922  226.2765 H   0  0  0  0  0  0  0  0  0  0  0  0
  138.0046   81.5645  226.1252 H   0  0  0  0  0  0  0  0  0  0  0  0
  135.8416   82.4270  223.3907 H   0  0  0  0  0  0  0  0  0  0  0  0
  136.9496   83.8809  223.2389 H   0  0  0  0  0  0  0  0  0  0  0  0
  137.5131   81.8371  221.8096 H   0  0  0  0  0  0  0  0  0  0  0  0
  138.8243   82.5413  222.7698 H   0  0  0  0  0  0  0  0  0  0  0  0
  137.8295   78.7336  221.8957 H   0  0  0  0  0  0  0  0  0  0  0  0
  140.1871   73.0185  218.4784 H   0  0  0  0  0  0  0  0  0  0  0  0
  141.4143   73.9402  217.5549 H   0  0  0  0  0  0  0  0  0  0  0  0
  141.7926   71.6260  219.4910 H   0  0  0  0  0  0  0  0  0  0  0  0
  142.6365   71.9322  217.9725 H   0  0  0  0  0  0  0  0  0  0  0  0
  1  2  1  0
  2  3  1  0
  3  4  2  0
  3  5  1  0
  5  6  1  0
  6  7  2  0
  7  8  1  0
  8  9  2  0
  9 10  1  0
 10 11  2  0
  5 12  1  0
 12 13  1  0
 13 14  1  0
 14 15  1  0
 15 16  1  0
 16 17  2  0
 16 18  1  0
 18 19  1  0
 18 20  1  0
 20 21  1  0
 21 22  2  0
 22 23  1  0
 23 24  2  0
 24 25  1  0
 25 26  1  0
 26 27  1  0
 27 28  1  0
 28 29  1  0
 29 30  1  0
 30 31  1  0
 25 32  2  0
 15 33  1  0
 33 34  1  0
 11  6  1  0
 34 12  1  0
 32 21  1  0
 31 26  1  0
  1 35  1  0
  1 36  1  0
  1 37  1  0
  2 38  1  0
  2 39  1  0
  7 40  1  0
  8 41  1  0
  9 42  1  0
 10 43  1  0
 11 44  1  0
 12 45  1  0
 13 46  1  0
 13 47  1  0
 14 48  1  0
 14 49  1  0
 18 50  1  1
 19 51  1  0
 19 52  1  0
 20 53  1  0
 20 54  1  0
 22 55  1  0
 23 56  1  0
 24 57  1  0
 27 58  1  0
 27 59  1  0
 28 60  1  0
 28 61  1  0
 30 62  1  0
 30 63  1  0
 31 64  1  0
 31 65  1  0
 32 66  1  0
 33 67  1  0
 33 68  1  0
 34 69  1  0
 34 70  1  0
M  END
>  <smiles>  (4) 
CCC(=O)N(c1ccccc1)C1CCN(C(=O)[C@H](N)Cc2cccc(N3CCOCC3)c2)CC1

>  <score_type>  (4) 
oracle

>  <origin>  (4) 
autodockgpu

>  <m_score__min__energy>  (4) 
-8.8800000000000008

>  <m_primary>  (4) 
energy

>  <rmsd>  (4) 
6.0303705627393045

>  <m_score__min__rmsd>  (4) 
6.0303705627393045

>  <meeko>  (4) 
{"free_energy": -7.26, "intermolecular_energy": -9.94, "internal_energy": -2.44, "cluster_size": 2, "cluster_id": 7, "rank_in_cluster": 2}

>  <energy>  (4) 
-8.71

>  <cluster_rmsd>  (4) 
0.24

>  <cluster>  (4) 
1

$$$$

     RDKit          3D

 70 73  0  0  0  0  0  0  0  0999 V2000
  136.4040   69.6590  224.9660 C   0  0  0  0  0  0  0  0  0  0  0  0
  137.3380   69.2320  223.8350 C   0  0  0  0  0  0  0  0  0  0  0  0
  138.7280   69.2780  224.3890 C   0  0  0  0  0  0  0  0  0  0  0  0
  139.2530   68.1590  224.6480 O   0  0  0  0  0  0  0  0  0  0  0  0
  139.3960   70.5190  224.6060 N   0  0  0  0  0  0  0  0  0  0  0  0
  139.9250   70.7760  225.9040 C   0  0  0  0  0  0  0  0  0  0  0  0
  140.7430   71.8840  226.0200 C   0  0  0  0  0  0  0  0  0  0  0  0
  141.3350   72.2660  227.2090 C   0  0  0  0  0  0  0  0  0  0  0  0
  141.0660   71.4680  228.3110 C   0  0  0  0  0  0  0  0  0  0  0  0
  140.2440   70.3520  228.2020 C   0  0  0  0  0  0  0  0  0  0  0  0
  139.6680   69.9960  227.0060 C   0  0  0  0  0  0  0  0  0  0  0  0
  139.4970   71.4440  223.5040 C   0  0  0  0  0  0  0  0  0  0  0  0
  140.2630   70.7590  222.4130 C   0  0  0  0  0  0  0  0  0  0  0  0
  140.8600   71.8640  221.5300 C   0  0  0  0  0  0  0  0  0  0  0  0
  139.8200   72.8860  221.4790 N   0  0  0  0  0  0  0  0  0  0  0  0
  140.0880   74.2710  221.3860 C   0  0  0  0  0  0  0  0  0  0  0  0
  139.0940   75.0600  221.3430 O   0  0  0  0  0  0  0  0  0  0  0  0
  141.4220   74.8660  221.3360 C   0  0  2  0  0  0  0  0  0  0  0  0
  141.3540   76.3120  221.5600 N   0  0  0  0  0  0  0  0  0  0  0  0
  141.9470   74.7330  219.8980 C   0  0  0  0  0  0  0  0  0  0  0  0
  143.2870   74.0950  220.0350 C   0  0  0  0  0  0  0  0  0  0  0  0
  144.3970   74.7950  220.4730 C   0  0  0  0  0  0  0  0  0  0  0  0
  145.6000   74.1040  220.5560 C   0  0  0  0  0  0  0  0  0  0  0  0
  145.6650   72.7550  220.2100 C   0  0  0  0  0  0  0  0  0  0  0  0
  144.5750   72.0550  219.7770 C   0  0  0  0  0  0  0  0  0  0  0  0
  144.6030   70.7020  219.4150 N   0  0  0  0  0  0  0  0  0  0  0  0
  145.4750   70.1240  218.4140 C   0  0  0  0  0  0  0  0  0  0  0  0
  146.3160   69.0670  219.1140 C   0  0  0  0  0  0  0  0  0  0  0  0
  145.5260   68.1950  219.8170 O   0  0  0  0  0  0  0  0  0  0  0  0
  144.1710   68.3770  219.6950 C   0  0  0  0  0  0  0  0  0  0  0  0
  143.6890   69.7580  220.0760 C   0  0  0  0  0  0  0  0  0  0  0  0
  143.3760   72.7640  219.6980 C   0  0  0  0  0  0  0  0  0  0  0  0
  138.4440   72.3680  221.5410 C   0  0  0  0  0  0  0  0  0  0  0  0
  138.1600   71.8870  222.9710 C   0  0  0  0  0  0  0  0  0  0  0  0
  136.8781   69.4422  225.9346 H   0  0  0  0  0  0  0  0  0  0  0  0
  136.2041   70.7379  224.8889 H   0  0  0  0  0  0  0  0  0  0  0  0
  135.4573   69.1043  224.8889 H   0  0  0  0  0  0  0  0  0  0  0  0
  137.0940   68.2111  223.5060 H   0  0  0  0  0  0  0  0  0  0  0  0
  137.2357   69.8956  222.9637 H   0  0  0  0  0  0  0  0  0  0  0  0
  140.9320   72.4912  225.1225 H   0  0  0  0  0  0  0  0  0  0  0  0
  141.9827   73.1525  227.2774 H   0  0  0  0  0  0  0  0  0  0  0  0
  141.5093   71.7217  229.2852 H   0  0  0  0  0  0  0  0  0  0  0  0
  140.0500   69.7391  229.0946 H   0  0  0  0  0  0  0  0  0  0  0  0
  139.0190   69.1109  226.9328 H   0  0  0  0  0  0  0  0  0  0  0  0
  140.0019   72.3529  223.8632 H   0  0  0  0  0  0  0  0  0  0  0  0
  141.0661   70.1427  222.8434 H   0  0  0  0  0  0  0  0  0  0  0  0
  139.6091   70.0958  221.8277 H   0  0  0  0  0  0  0  0  0  0  0  0
  141.7803   72.2665  221.9784 H   0  0  0  0  0  0  0  0  0  0  0  0
  141.1394   71.4985  220.5308 H   0  0  0  0  0  0  0  0  0  0  0  0
  142.0459   74.3674  222.0924 H   0  0  0  0  0  0  0  0  0  0  0  0
  140.4970   76.5000  222.1050 H   0  0  0  0  0  0  0  0  0  0  0  0
  142.1580   76.6310  222.1630 H   0  0  0  0  0  0  0  0  0  0  0  0
  141.2766   74.0997  219.2985 H   0  0  0  0  0  0  0  0  0  0  0  0
  142.0022   75.7052  219.3863 H   0  0  0  0  0  0  0  0  0  0  0  0
  144.3299   75.8586  220.7454 H   0  0  0  0  0  0  0  0  0  0  0  0
  146.5069   74.6249  220.8969 H   0  0  0  0  0  0  0  0  0  0  0  0
  146.6309   72.2346  220.2887 H   0  0  0  0  0  0  0  0  0  0  0  0
  144.8778   69.6626  217.6137 H   0  0  0  0  0  0  0  0  0  0  0  0
  146.1134   70.8946  217.9572 H   0  0  0  0  0  0  0  0  0  0  0  0
  146.8883   68.5060  218.3605 H   0  0  0  0  0  0  0  0  0  0  0  0
  146.9946   69.5701  219.8186 H   0  0  0  0  0  0  0  0  0  0  0  0
  143.8922   68.1924  218.6471 H   0  0  0  0  0  0  0  0  0  0  0  0
  143.6959   67.6746  220.3957 H   0  0  0  0  0  0  0  0  0  0  0  0
  142.6584   69.9138  219.7244 H   0  0  0  0  0  0  0  0  0  0  0  0
  143.6854   69.8971  221.1672 H   0  0  0  0  0  0  0  0  0  0  0  0
  142.4712   72.2412  219.3546 H   0  0  0  0  0  0  0  0  0  0  0  0
  137.7362   73.1659  221.2720 H   0  0  0  0  0  0  0  0  0  0  0  0
  138.3274   71.5321  220.8356 H   0  0  0  0  0  0  0  0  0  0  0  0
  137.7525   72.7066  223.5811 H   0  0  0  0  0  0  0  0  0  0  0  0
  137.4158   71.0773  222.9952 H   0  0  0  0  0  0  0  0  0  0  0  0
  1  2  1  0
  2  3  1  0
  3  4  2  0
  3  5  1  0
  5  6  1  0
  6  7  2  0
  7  8  1  0
  8  9  2  0
  9 10  1  0
 10 11  2  0
  5 12  1  0
 12 13  1  0
 13 14  1  0
 14 15  1  0
 15 16  1  0
 16 17  2  0
 16 18  1  0
 18 19  1  0
 18 20  1  0
 20 21  1  0
 21 22  2  0
 22 23  1  0
 23 24  2  0
 24 25  1  0
 25 26  1  0
 26 27  1  0
 27 28  1  0
 28 29  1  0
 29 30  1  0
 30 31  1  0
 25 32  2  0
 15 33  1  0
 33 34  1  0
 11  6  1  0
 34 12  1  0
 32 21  1  0
 31 26  1  0
  1 35  1  0
  1 36  1  0
  1 37  1  0
  2 38  1  0
  2 39  1  0
  7 40  1  0
  8 41  1  0
  9 42  1  0
 10 43  1  0
 11 44  1  0
 12 45  1  0
 13 46  1  0
 13 47  1  0
 14 48  1  0
 14 49  1  0
 18 50  1  1
 19 51  1  0
 19 52  1  0
 20 53  1  0
 20 54  1  0
 22 55  1  0
 23 56  1  0
 24 57  1  0
 27 58  1  0
 27 59  1  0
 28 60  1  0
 28 61  1  0
 30 62  1  0
 30 63  1  0
 31 64  1  0
 31 65  1  0
 32 66  1  0
 33 67  1  0
 33 68  1  0
 34 69  1  0
 34 70  1  0
M  END
>  <smiles>  (5) 
CCC(=O)N(c1ccccc1)C1CCN(C(=O)[C@H](N)Cc2cccc(N3CCOCC3)c2)CC1

>  <score_type>  (5) 
oracle

>  <origin>  (5) 
autodockgpu

>  <m_score__min__energy>  (5) 
-8.8800000000000008

>  <m_primary>  (5) 
energy

>  <rmsd>  (5) 
6.952978245883291

>  <m_score__min__rmsd>  (5) 
6.952978245883291

>  <meeko>  (5) 
{"free_energy": -8.74, "intermolecular_energy": -11.43, "internal_energy": -2.61, "cluster_size": 20, "cluster_id": 1, "rank_in_cluster": 3}

>  <energy>  (5) 
-8.52

>  <cluster_rmsd>  (5) 
0.3

>  <cluster>  (5) 
1

$$$$

     RDKit          3D

 70 73  0  0  0  0  0  0  0  0999 V2000
  135.9820   69.2640  224.9820 C   0  0  0  0  0  0  0  0  0  0  0  0
  136.7770   68.8720  223.7380 C   0  0  0  0  0  0  0  0  0  0  0  0
  138.2230   69.0470  224.0840 C   0  0  0  0  0  0  0  0  0  0  0  0
  138.9240   67.9960  224.0630 O   0  0  0  0  0  0  0  0  0  0  0  0
  138.7540   70.3280  224.4170 N   0  0  0  0  0  0  0  0  0  0  0  0
  139.5420   70.4390  225.6000 C   0  0  0  0  0  0  0  0  0  0  0  0
  139.4290   69.4020  226.5060 C   0  0  0  0  0  0  0  0  0  0  0  0
  140.1240   69.3620  227.7000 C   0  0  0  0  0  0  0  0  0  0  0  0
  140.9630   70.4360  227.9570 C   0  0  0  0  0  0  0  0  0  0  0  0
  141.0820   71.4830  227.0490 C   0  0  0  0  0  0  0  0  0  0  0  0
  140.3780   71.4960  225.8680 C   0  0  0  0  0  0  0  0  0  0  0  0
  138.4630   71.4380  223.5430 C   0  0  0  0  0  0  0  0  0  0  0  0
  138.9120   71.0540  222.1660 C   0  0  0  0  0  0  0  0  0  0  0  0
  139.1470   72.3600  221.3950 C   0  0  0  0  0  0  0  0  0  0  0  0
  138.0760   73.2430  221.8470 N   0  0  0  0  0  0  0  0  0  0  0  0
  138.2140   74.6440  221.9660 C   0  0  0  0  0  0  0  0  0  0  0  0
  137.2030   75.3020  222.3650 O   0  0  0  0  0  0  0  0  0  0  0  0
  139.4320   75.3960  221.6680 C   0  0  2  0  0  0  0  0  0  0  0  0
  139.2860   76.7970  222.0660 N   0  0  0  0  0  0  0  0  0  0  0  0
  139.5910   75.4530  220.1410 C   0  0  0  0  0  0  0  0  0  0  0  0
  141.0300   75.7710  219.9160 C   0  0  0  0  0  0  0  0  0  0  0  0
  141.4530   77.0180  219.4910 C   0  0  0  0  0  0  0  0  0  0  0  0
  142.8180   77.2030  219.3060 C   0  0  0  0  0  0  0  0  0  0  0  0
  143.7120   76.1600  219.5450 C   0  0  0  0  0  0  0  0  0  0  0  0
  143.3040   74.9260  219.9640 C   0  0  0  0  0  0  0  0  0  0  0  0
  144.1710   73.8530  220.2100 N   0  0  0  0  0  0  0  0  0  0  0  0
  143.8810   72.4640  219.9220 C   0  0  0  0  0  0  0  0  0  0  0  0
  144.9430   71.9810  218.9470 C   0  0  0  0  0  0  0  0  0  0  0  0
  146.2030   72.2630  219.4110 O   0  0  0  0  0  0  0  0  0  0  0  0
  146.2720   72.8280  220.6600 C   0  0  0  0  0  0  0  0  0  0  0  0
  145.4890   74.1110  220.8090 C   0  0  0  0  0  0  0  0  0  0  0  0
  141.9310   74.7560  220.1460 C   0  0  0  0  0  0  0  0  0  0  0  0
  136.8160   72.5590  222.1830 C   0  0  0  0  0  0  0  0  0  0  0  0
  137.0020   71.8030  223.5060 C   0  0  0  0  0  0  0  0  0  0  0  0
  136.5487   68.9846  225.8824 H   0  0  0  0  0  0  0  0  0  0  0  0
  135.8096   70.3504  224.9797 H   0  0  0  0  0  0  0  0  0  0  0  0
  135.0152   68.7393  224.9797 H   0  0  0  0  0  0  0  0  0  0  0  0
  136.5741   67.8241  223.4722 H   0  0  0  0  0  0  0  0  0  0  0  0
  136.4968   69.4938  222.8750 H   0  0  0  0  0  0  0  0  0  0  0  0
  138.7533   68.5680  226.2654 H   0  0  0  0  0  0  0  0  0  0  0  0
  140.0177   68.5256  228.4065 H   0  0  0  0  0  0  0  0  0  0  0  0
  141.5423   70.4602  228.8918 H   0  0  0  0  0  0  0  0  0  0  0  0
  141.7557   72.3209  227.2814 H   0  0  0  0  0  0  0  0  0  0  0  0
  140.4812   72.3294  225.1575 H   0  0  0  0  0  0  0  0  0  0  0  0
  138.9925   72.3235  223.9246 H   0  0  0  0  0  0  0  0  0  0  0  0
  139.8447   70.4733  222.2201 H   0  0  0  0  0  0  0  0  0  0  0  0
  138.1571   70.4304  221.6646 H   0  0  0  0  0  0  0  0  0  0  0  0
  140.1317   72.7850  221.6393 H   0  0  0  0  0  0  0  0  0  0  0  0
  139.1381   72.2122  220.3050 H   0  0  0  0  0  0  0  0  0  0  0  0
  140.2694   74.9114  222.1913 H   0  0  0  0  0  0  0  0  0  0  0  0
  138.8530   77.3000  221.2740 H   0  0  0  0  0  0  0  0  0  0  0  0
  138.6110   76.8850  222.8710 H   0  0  0  0  0  0  0  0  0  0  0  0
  139.3337   74.4838  219.6888 H   0  0  0  0  0  0  0  0  0  0  0  0
  138.9257   76.1999  219.6833 H   0  0  0  0  0  0  0  0  0  0  0  0
  140.7363   77.8318  219.3066 H   0  0  0  0  0  0  0  0  0  0  0  0
  143.1958   78.1794  218.9686 H   0  0  0  0  0  0  0  0  0  0  0  0
  144.7864   76.3379  219.3902 H   0  0  0  0  0  0  0  0  0  0  0  0
  143.9196   71.8703  220.8472 H   0  0  0  0  0  0  0  0  0  0  0  0
  142.8744   72.3541  219.4922 H   0  0  0  0  0  0  0  0  0  0  0  0
  144.8431   70.8934  218.8164 H   0  0  0  0  0  0  0  0  0  0  0  0
  144.7992   72.4998  217.9878 H   0  0  0  0  0  0  0  0  0  0  0  0
  145.8831   72.1011  221.3883 H   0  0  0  0  0  0  0  0  0  0  0  0
  147.3282   73.0834  220.8309 H   0  0  0  0  0  0  0  0  0  0  0  0
  145.3813   74.3718  221.8722 H   0  0  0  0  0  0  0  0  0  0  0  0
  145.9976   74.9530  220.3167 H   0  0  0  0  0  0  0  0  0  0  0  0
  141.5563   73.7787  220.4844 H   0  0  0  0  0  0  0  0  0  0  0  0
  136.0102   73.3000  222.2906 H   0  0  0  0  0  0  0  0  0  0  0  0
  136.5488   71.8529  221.3830 H   0  0  0  0  0  0  0  0  0  0  0  0
  136.7424   72.4469  224.3593 H   0  0  0  0  0  0  0  0  0  0  0  0
  136.3526   70.9175  223.5713 H   0  0  0  0  0  0  0  0  0  0  0  0
  1  2  1  0
  2  3  1  0
  3  4  2  0
  3  5  1  0
  5  6  1  0
  6  7  2  0
  7  8  1  0
  8  9  2  0
  9 10  1  0
 10 11  2  0
  5 12  1  0
 12 13  1  0
 13 14  1  0
 14 15  1  0
 15 16  1  0
 16 17  2  0
 16 18  1  0
 18 19  1  0
 18 20  1  0
 20 21  1  0
 21 22  2  0
 22 23  1  0
 23 24  2  0
 24 25  1  0
 25 26  1  0
 26 27  1  0
 27 28  1  0
 28 29  1  0
 29 30  1  0
 30 31  1  0
 25 32  2  0
 15 33  1  0
 33 34  1  0
 11  6  1  0
 34 12  1  0
 32 21  1  0
 31 26  1  0
  1 35  1  0
  1 36  1  0
  1 37  1  0
  2 38  1  0
  2 39  1  0
  7 40  1  0
  8 41  1  0
  9 42  1  0
 10 43  1  0
 11 44  1  0
 12 45  1  0
 13 46  1  0
 13 47  1  0
 14 48  1  0
 14 49  1  0
 18 50  1  1
 19 51  1  0
 19 52  1  0
 20 53  1  0
 20 54  1  0
 22 55  1  0
 23 56  1  0
 24 57  1  0
 27 58  1  0
 27 59  1  0
 28 60  1  0
 28 61  1  0
 30 62  1  0
 30 63  1  0
 31 64  1  0
 31 65  1  0
 32 66  1  0
 33 67  1  0
 33 68  1  0
 34 69  1  0
 34 70  1  0
M  END
>  <smiles>  (6) 
CCC(=O)N(c1ccccc1)C1CCN(C(=O)[C@H](N)Cc2cccc(N3CCOCC3)c2)CC1

>  <score_type>  (6) 
oracle

>  <origin>  (6) 
autodockgpu

>  <m_score__min__energy>  (6) 
-8.8800000000000008

>  <m_primary>  (6) 
energy

>  <rmsd>  (6) 
6.851475829355737

>  <m_score__min__rmsd>  (6) 
6.851475829355737

>  <meeko>  (6) 
{"free_energy": -7.45, "intermolecular_energy": -10.14, "internal_energy": -2.45, "cluster_size": 20, "cluster_id": 1, "rank_in_cluster": 19}

>  <energy>  (6) 
-8.47

>  <cluster_rmsd>  (6) 
0.42

>  <cluster>  (6) 
1

$$$$

     RDKit          3D

 70 73  0  0  0  0  0  0  0  0999 V2000
  138.8240   67.4890  223.1740 C   0  0  0  0  0  0  0  0  0  0  0  0
  137.7360   68.5520  223.0270 C   0  0  0  0  0  0  0  0  0  0  0  0
  137.8200   69.4190  224.2450 C   0  0  0  0  0  0  0  0  0  0  0  0
  136.9190   69.2350  225.1120 O   0  0  0  0  0  0  0  0  0  0  0  0
  138.8580   70.3850  224.3950 N   0  0  0  0  0  0  0  0  0  0  0  0
  139.5920   70.3940  225.6170 C   0  0  0  0  0  0  0  0  0  0  0  0
  140.3250   71.5350  225.8780 C   0  0  0  0  0  0  0  0  0  0  0  0
  141.0910   71.6990  227.0170 C   0  0  0  0  0  0  0  0  0  0  0  0
  141.0910   70.6400  227.9120 C   0  0  0  0  0  0  0  0  0  0  0  0
  140.3540   69.4880  227.6560 C   0  0  0  0  0  0  0  0  0  0  0  0
  139.6020   69.3530  226.5140 C   0  0  0  0  0  0  0  0  0  0  0  0
  139.1060   71.2980  223.3060 C   0  0  0  0  0  0  0  0  0  0  0  0
  139.9020   70.5590  222.2750 C   0  0  0  0  0  0  0  0  0  0  0  0
  140.6400   71.6180  221.4420 C   0  0  0  0  0  0  0  0  0  0  0  0
  139.6810   72.7100  221.3170 N   0  0  0  0  0  0  0  0  0  0  0  0
  140.0510   74.0730  221.2480 C   0  0  0  0  0  0  0  0  0  0  0  0
  139.1200   74.9280  221.1330 O   0  0  0  0  0  0  0  0  0  0  0  0
  141.4230   74.5730  221.3010 C   0  0  2  0  0  0  0  0  0  0  0  0
  141.4410   76.0040  221.6100 N   0  0  0  0  0  0  0  0  0  0  0  0
  142.0130   74.4880  219.8850 C   0  0  0  0  0  0  0  0  0  0  0  0
  143.3640   73.8860  220.0670 C   0  0  0  0  0  0  0  0  0  0  0  0
  144.4470   74.6240  220.5110 C   0  0  0  0  0  0  0  0  0  0  0  0
  145.6640   73.9650  220.6380 C   0  0  0  0  0  0  0  0  0  0  0  0
  145.7700   72.6090  220.3260 C   0  0  0  0  0  0  0  0  0  0  0  0
  144.7070   71.8730  219.8870 C   0  0  0  0  0  0  0  0  0  0  0  0
  144.7760   70.5130  219.5590 N   0  0  0  0  0  0  0  0  0  0  0  0
  143.6820   69.5710  219.6740 C   0  0  0  0  0  0  0  0  0  0  0  0
  143.4280   69.0120  218.2830 C   0  0  0  0  0  0  0  0  0  0  0  0
  144.5870   68.5410  217.7220 O   0  0  0  0  0  0  0  0  0  0  0  0
  145.7030   68.5810  218.5210 C   0  0  0  0  0  0  0  0  0  0  0  0
  146.0400   69.9530  219.0570 C   0  0  0  0  0  0  0  0  0  0  0  0
  143.4930   72.5500  219.7650 C   0  0  0  0  0  0  0  0  0  0  0  0
  138.2710   72.2890  221.2730 C   0  0  0  0  0  0  0  0  0  0  0  0
  137.8470   71.8320  222.6760 C   0  0  0  0  0  0  0  0  0  0  0  0
  139.0137   67.3037  224.2415 H   0  0  0  0  0  0  0  0  0  0  0  0
  138.4931   66.5567  222.6931 H   0  0  0  0  0  0  0  0  0  0  0  0
  139.7484   67.8415  222.6931 H   0  0  0  0  0  0  0  0  0  0  0  0
  137.9105   69.1514  222.1213 H   0  0  0  0  0  0  0  0  0  0  0  0
  136.7410   68.0921  222.9344 H   0  0  0  0  0  0  0  0  0  0  0  0
  140.2980   72.3534  225.1435 H   0  0  0  0  0  0  0  0  0  0  0  0
  141.6676   72.6172  227.2027 H   0  0  0  0  0  0  0  0  0  0  0  0
  141.6818   70.7116  228.8371 H   0  0  0  0  0  0  0  0  0  0  0  0
  140.3738   68.6651  228.3857 H   0  0  0  0  0  0  0  0  0  0  0  0
  139.0239   68.4369  226.3230 H   0  0  0  0  0  0  0  0  0  0  0  0
  139.6448   72.1705  223.7039 H   0  0  0  0  0  0  0  0  0  0  0  0
  140.6254   69.8894  222.7632 H   0  0  0  0  0  0  0  0  0  0  0  0
  139.2496   69.9414  221.6402 H   0  0  0  0  0  0  0  0  0  0  0  0
  141.5502   71.9559  221.9591 H   0  0  0  0  0  0  0  0  0  0  0  0
  140.9671   71.2318  220.4654 H   0  0  0  0  0  0  0  0  0  0  0  0
  141.9705   73.9879  222.0546 H   0  0  0  0  0  0  0  0  0  0  0  0
  140.5290   76.2410  222.0330 H   0  0  0  0  0  0  0  0  0  0  0  0
  142.1660   76.2140  222.3470 H   0  0  0  0  0  0  0  0  0  0  0  0
  141.3882   73.8494  219.2433 H   0  0  0  0  0  0  0  0  0  0  0  0
  142.0612   75.4727  219.3971 H   0  0  0  0  0  0  0  0  0  0  0  0
  144.3484   75.6922  220.7543 H   0  0  0  0  0  0  0  0  0  0  0  0
  146.5498   74.5161  220.9869 H   0  0  0  0  0  0  0  0  0  0  0  0
  146.7463   72.1146  220.4379 H   0  0  0  0  0  0  0  0  0  0  0  0
  143.9542   68.7584  220.3637 H   0  0  0  0  0  0  0  0  0  0  0  0
  142.7810   70.0625  220.0699 H   0  0  0  0  0  0  0  0  0  0  0  0
  142.7023   68.1884  218.3536 H   0  0  0  0  0  0  0  0  0  0  0  0
  143.0350   69.8196  217.6479 H   0  0  0  0  0  0  0  0  0  0  0  0
  145.5379   67.9090  219.3760 H   0  0  0  0  0  0  0  0  0  0  0  0
  146.5507   68.2741  217.8907 H   0  0  0  0  0  0  0  0  0  0  0  0
  146.7742   69.8752  219.8724 H   0  0  0  0  0  0  0  0  0  0  0  0
  146.4834   70.5921  218.2792 H   0  0  0  0  0  0  0  0  0  0  0  0
  142.6089   71.9966  219.4154 H   0  0  0  0  0  0  0  0  0  0  0  0
  137.6428   73.1336  220.9537 H   0  0  0  0  0  0  0  0  0  0  0  0
  138.1501   71.4618  220.5581 H   0  0  0  0  0  0  0  0  0  0  0  0
  137.4529   72.6792  223.2565 H   0  0  0  0  0  0  0  0  0  0  0  0
  137.0482   71.0765  222.6418 H   0  0  0  0  0  0  0  0  0  0  0  0
  1  2  1  0
  2  3  1  0
  3  4  2  0
  3  5  1  0
  5  6  1  0
  6  7  2  0
  7  8  1  0
  8  9  2  0
  9 10  1  0
 10 11  2  0
  5 12  1  0
 12 13  1  0
 13 14  1  0
 14 15  1  0
 15 16  1  0
 16 17  2  0
 16 18  1  0
 18 19  1  0
 18 20  1  0
 20 21  1  0
 21 22  2  0
 22 23  1  0
 23 24  2  0
 24 25  1  0
 25 26  1  0
 26 27  1  0
 27 28  1  0
 28 29  1  0
 29 30  1  0
 30 31  1  0
 25 32  2  0
 15 33  1  0
 33 34  1  0
 11  6  1  0
 34 12  1  0
 32 21  1  0
 31 26  1  0
  1 35  1  0
  1 36  1  0
  1 37  1  0
  2 38  1  0
  2 39  1  0
  7 40  1  0
  8 41  1  0
  9 42  1  0
 10 43  1  0
 11 44  1  0
 12 45  1  0
 13 46  1  0
 13 47  1  0
 14 48  1  0
 14 49  1  0
 18 50  1  1
 19 51  1  0
 19 52  1  0
 20 53  1  0
 20 54  1  0
 22 55  1  0
 23 56  1  0
 24 57  1  0
 27 58  1  0
 27 59  1  0
 28 60  1  0
 28 61  1  0
 30 62  1  0
 30 63  1  0
 31 64  1  0
 31 65  1  0
 32 66  1  0
 33 67  1  0
 33 68  1  0
 34 69  1  0
 34 70  1  0
M  END
>  <smiles>  (7) 
CCC(=O)N(c1ccccc1)C1CCN(C(=O)[C@H](N)Cc2cccc(N3CCOCC3)c2)CC1

>  <score_type>  (7) 
oracle

>  <origin>  (7) 
autodockgpu

>  <m_score__min__energy>  (7) 
-8.8800000000000008

>  <m_primary>  (7) 
energy

>  <rmsd>  (7) 
7.094166716424764

>  <m_score__min__rmsd>  (7) 
7.094166716424764

>  <meeko>  (7) 
{"free_energy": -7.33, "intermolecular_energy": -10.01, "internal_energy": -2.71, "cluster_size": 20, "cluster_id": 1, "rank_in_cluster": 20}

>  <energy>  (7) 
-8.31

>  <cluster_rmsd>  (7) 
0.67

>  <cluster>  (7) 
1

$$$$

     RDKit          3D

 70 73  0  0  0  0  0  0  0  0999 V2000
  137.8170   80.8850  223.4260 C   0  0  0  0  0  0  0  0  0  0  0  0
  137.4360   79.4060  223.4030 C   0  0  0  0  0  0  0  0  0  0  0  0
  138.1000   78.8140  222.1990 C   0  0  0  0  0  0  0  0  0  0  0  0
  137.4180   78.8260  221.1350 O   0  0  0  0  0  0  0  0  0  0  0  0
  139.4170   78.2740  222.2720 N   0  0  0  0  0  0  0  0  0  0  0  0
  140.4830   79.1560  222.6150 C   0  0  0  0  0  0  0  0  0  0  0  0
  140.7880   80.1330  221.6870 C   0  0  0  0  0  0  0  0  0  0  0  0
  141.7950   81.0620  221.8680 C   0  0  0  0  0  0  0  0  0  0  0  0
  142.5060   80.9710  223.0560 C   0  0  0  0  0  0  0  0  0  0  0  0
  142.2040   79.9900  223.9950 C   0  0  0  0  0  0  0  0  0  0  0  0
  141.1960   79.0790  223.7870 C   0  0  0  0  0  0  0  0  0  0  0  0
  139.5990   76.8710  221.9930 C   0  0  0  0  0  0  0  0  0  0  0  0
  139.3760   76.6740  220.5240 C   0  0  0  0  0  0  0  0  0  0  0  0
  138.9970   75.1990  220.3270 C   0  0  0  0  0  0  0  0  0  0  0  0
  139.8400   74.4810  221.2780 N   0  0  0  0  0  0  0  0  0  0  0  0
  139.4430   73.2930  221.9340 C   0  0  0  0  0  0  0  0  0  0  0  0
  140.2720   72.7600  222.7350 O   0  0  0  0  0  0  0  0  0  0  0  0
  138.1510   72.6320  221.7640 C   0  0  2  0  0  0  0  0  0  0  0  0
  137.3930   72.6460  223.0160 N   0  0  0  0  0  0  0  0  0  0  0  0
  138.4130   71.1410  221.5000 C   0  0  0  0  0  0  0  0  0  0  0  0
  138.1180   70.4650  222.7950 C   0  0  0  0  0  0  0  0  0  0  0  0
  136.9200   69.8140  223.0320 C   0  0  0  0  0  0  0  0  0  0  0  0
  136.7460   69.2230  224.2780 C   0  0  0  0  0  0  0  0  0  0  0  0
  137.7540   69.2930  225.2400 C   0  0  0  0  0  0  0  0  0  0  0  0
  138.9390   69.9330  225.0160 C   0  0  0  0  0  0  0  0  0  0  0  0
  139.9710   70.0290  225.9590 N   0  0  0  0  0  0  0  0  0  0  0  0
  141.0730   70.9650  225.8950 C   0  0  0  0  0  0  0  0  0  0  0  0
  141.0070   71.8170  227.1540 C   0  0  0  0  0  0  0  0  0  0  0  0
  140.9310   71.0320  228.2760 O   0  0  0  0  0  0  0  0  0  0  0  0
  141.0120   69.6770  228.0710 C   0  0  0  0  0  0  0  0  0  0  0  0
  139.9760   69.1260  227.1200 C   0  0  0  0  0  0  0  0  0  0  0  0
  139.0970   70.5210  223.7600 C   0  0  0  0  0  0  0  0  0  0  0  0
  141.1570   75.0930  221.5180 C   0  0  0  0  0  0  0  0  0  0  0  0
  140.9670   76.3610  222.3620 C   0  0  0  0  0  0  0  0  0  0  0  0
  137.9046   81.2249  224.4685 H   0  0  0  0  0  0  0  0  0  0  0  0
  138.7802   81.0235  222.9130 H   0  0  0  0  0  0  0  0  0  0  0  0
  137.0407   81.4716  222.9130 H   0  0  0  0  0  0  0  0  0  0  0  0
  137.7921   78.9077  224.3167 H   0  0  0  0  0  0  0  0  0  0  0  0
  136.3445   79.2773  223.3585 H   0  0  0  0  0  0  0  0  0  0  0  0
  140.2002   80.1734  220.7581 H   0  0  0  0  0  0  0  0  0  0  0  0
  142.0200   81.8299  221.1132 H   0  0  0  0  0  0  0  0  0  0  0  0
  143.3191   81.6838  223.2580 H   0  0  0  0  0  0  0  0  0  0  0  0
  142.7863   79.9422  224.9270 H   0  0  0  0  0  0  0  0  0  0  0  0
  140.9664   78.3092  224.5384 H   0  0  0  0  0  0  0  0  0  0  0  0
  138.8831   76.3027  222.6050 H   0  0  0  0  0  0  0  0  0  0  0  0
  138.5609   77.3245  220.1741 H   0  0  0  0  0  0  0  0  0  0  0  0
  140.2787   76.9298  219.9498 H   0  0  0  0  0  0  0  0  0  0  0  0
  137.9321   75.0369  220.5502 H   0  0  0  0  0  0  0  0  0  0  0  0
  139.1484   74.8604  219.2914 H   0  0  0  0  0  0  0  0  0  0  0  0
  137.6089   73.1453  220.9562 H   0  0  0  0  0  0  0  0  0  0  0  0
  138.0690   72.5360  223.7890 H   0  0  0  0  0  0  0  0  0  0  0  0
  136.9360   73.5860  223.1610 H   0  0  0  0  0  0  0  0  0  0  0  0
  137.7490   70.7657  220.7074 H   0  0  0  0  0  0  0  0  0  0  0  0
  139.4427   70.9551  221.1608 H   0  0  0  0  0  0  0  0  0  0  0  0
  136.1348   69.7661  222.2631 H   0  0  0  0  0  0  0  0  0  0  0  0
  135.8076   68.6968  224.5070 H   0  0  0  0  0  0  0  0  0  0  0  0
  137.5877   68.8142  226.2163 H   0  0  0  0  0  0  0  0  0  0  0  0
  142.0285   70.4214  225.8564 H   0  0  0  0  0  0  0  0  0  0  0  0
  141.0042   71.5912  224.9933 H   0  0  0  0  0  0  0  0  0  0  0  0
  141.9102   72.4421  227.2130 H   0  0  0  0  0  0  0  0  0  0  0  0
  140.1056   72.4455  227.1046 H   0  0  0  0  0  0  0  0  0  0  0  0
  142.0082   69.4498  227.6636 H   0  0  0  0  0  0  0  0  0  0  0  0
  140.8279   69.2009  229.0454 H   0  0  0  0  0  0  0  0  0  0  0  0
  140.2461   68.1058  226.8097 H   0  0  0  0  0  0  0  0  0  0  0  0
  138.9840   69.0711  227.5922 H   0  0  0  0  0  0  0  0  0  0  0  0
  140.0362   71.0471  223.5340 H   0  0  0  0  0  0  0  0  0  0  0  0
  141.8017   74.3833  222.0571 H   0  0  0  0  0  0  0  0  0  0  0  0
  141.6300   75.3500  220.5587 H   0  0  0  0  0  0  0  0  0  0  0  0
  141.0147   76.1225  223.4348 H   0  0  0  0  0  0  0  0  0  0  0  0
  141.7524   77.1071  222.1709 H   0  0  0  0  0  0  0  0  0  0  0  0
  1  2  1  0
  2  3  1  0
  3  4  2  0
  3  5  1  0
  5  6  1  0
  6  7  2  0
  7  8  1  0
  8  9  2  0
  9 10  1  0
 10 11  2  0
  5 12  1  0
 12 13  1  0
 13 14  1  0
 14 15  1  0
 15 16  1  0
 16 17  2  0
 16 18  1  0
 18 19  1  0
 18 20  1  0
 20 21  1  0
 21 22  2  0
 22 23  1  0
 23 24  2  0
 24 25  1  0
 25 26  1  0
 26 27  1  0
 27 28  1  0
 28 29  1  0
 29 30  1  0
 30 31  1  0
 25 32  2  0
 15 33  1  0
 33 34  1  0
 11  6  1  0
 34 12  1  0
 32 21  1  0
 31 26  1  0
  1 35  1  0
  1 36  1  0
  1 37  1  0
  2 38  1  0
  2 39  1  0
  7 40  1  0
  8 41  1  0
  9 42  1  0
 10 43  1  0
 11 44  1  0
 12 45  1  0
 13 46  1  0
 13 47  1  0
 14 48  1  0
 14 49  1  0
 18 50  1  6
 19 51  1  0
 19 52  1  0
 20 53  1  0
 20 54  1  0
 22 55  1  0
 23 56  1  0
 24 57  1  0
 27 58  1  0
 27 59  1  0
 28 60  1  0
 28 61  1  0
 30 62  1  0
 30 63  1  0
 31 64  1  0
 31 65  1  0
 32 66  1  0
 33 67  1  0
 33 68  1  0
 34 69  1  0
 34 70  1  0
M  END
>  <smiles>  (8) 
CCC(=O)N(c1ccccc1)C1CCN(C(=O)[C@H](N)Cc2cccc(N3CCOCC3)c2)CC1

>  <score_type>  (8) 
oracle

>  <origin>  (8) 
autodockgpu

>  <m_score__min__energy>  (8) 
-8.8800000000000008

>  <m_primary>  (8) 
energy

>  <rmsd>  (8) 
6.12615099100702

>  <m_score__min__rmsd>  (8) 
6.12615099100702

>  <meeko>  (8) 
{"free_energy": -8.05, "intermolecular_energy": -10.74, "internal_energy": -1.97, "cluster_size": 3, "cluster_id": 5, "rank_in_cluster": 1}

>  <energy>  (8) 
-8.31

>  <cluster_rmsd>  (8) 
0.64

>  <cluster>  (8) 
1

$$$$

     RDKit          3D

 70 73  0  0  0  0  0  0  0  0999 V2000
  138.1090   68.0900  222.4660 C   0  0  0  0  0  0  0  0  0  0  0  0
  138.7530   68.1970  223.8470 C   0  0  0  0  0  0  0  0  0  0  0  0
  138.3190   69.5110  224.4190 C   0  0  0  0  0  0  0  0  0  0  0  0
  137.1040   69.5870  224.7580 O   0  0  0  0  0  0  0  0  0  0  0  0
  139.2350   70.5940  224.5600 N   0  0  0  0  0  0  0  0  0  0  0  0
  139.9040   70.7460  225.8100 C   0  0  0  0  0  0  0  0  0  0  0  0
  139.6810   69.7520  226.7440 C   0  0  0  0  0  0  0  0  0  0  0  0
  140.2530   69.7540  228.0030 C   0  0  0  0  0  0  0  0  0  0  0  0
  141.0840   70.8250  228.2960 C   0  0  0  0  0  0  0  0  0  0  0  0
  141.3140   71.8290  227.3600 C   0  0  0  0  0  0  0  0  0  0  0  0
  140.7310   71.8000  226.1160 C   0  0  0  0  0  0  0  0  0  0  0  0
  139.4320   71.4760  223.4360 C   0  0  0  0  0  0  0  0  0  0  0  0
  140.3190   70.7660  222.4600 C   0  0  0  0  0  0  0  0  0  0  0  0
  140.9830   71.8480  221.5960 C   0  0  0  0  0  0  0  0  0  0  0  0
  139.9350   72.8430  221.3960 N   0  0  0  0  0  0  0  0  0  0  0  0
  140.1840   74.2290  221.2710 C   0  0  0  0  0  0  0  0  0  0  0  0
  139.1850   74.9910  221.0940 O   0  0  0  0  0  0  0  0  0  0  0  0
  141.5050   74.8520  221.3340 C   0  0  2  0  0  0  0  0  0  0  0  0
  141.3920   76.2720  221.6740 N   0  0  0  0  0  0  0  0  0  0  0  0
  142.0950   74.8520  219.9150 C   0  0  0  0  0  0  0  0  0  0  0  0
  143.4230   74.1880  220.0520 C   0  0  0  0  0  0  0  0  0  0  0  0
  144.5500   74.8710  220.4750 C   0  0  0  0  0  0  0  0  0  0  0  0
  145.7390   74.1560  220.5600 C   0  0  0  0  0  0  0  0  0  0  0  0
  145.7750   72.8020  220.2280 C   0  0  0  0  0  0  0  0  0  0  0  0
  144.6690   72.1190  219.8100 C   0  0  0  0  0  0  0  0  0  0  0  0
  144.6670   70.7620  219.4630 N   0  0  0  0  0  0  0  0  0  0  0  0
  145.6040   70.1320  218.5570 C   0  0  0  0  0  0  0  0  0  0  0  0
  146.3210   69.0460  219.3440 C   0  0  0  0  0  0  0  0  0  0  0  0
  145.4260   68.2210  219.9740 O   0  0  0  0  0  0  0  0  0  0  0  0
  144.0990   68.4640  219.7190 C   0  0  0  0  0  0  0  0  0  0  0  0
  143.6490   69.8700  220.0390 C   0  0  0  0  0  0  0  0  0  0  0  0
  143.4830   72.8510  219.7300 C   0  0  0  0  0  0  0  0  0  0  0  0
  138.5700   72.2960  221.3390 C   0  0  0  0  0  0  0  0  0  0  0  0
  138.1490   71.8660  222.7510 C   0  0  0  0  0  0  0  0  0  0  0  0
  137.0295   67.9106  222.5777 H   0  0  0  0  0  0  0  0  0  0  0  0
  138.2697   69.0271  221.9129 H   0  0  0  0  0  0  0  0  0  0  0  0
  138.5641   67.2552  221.9129 H   0  0  0  0  0  0  0  0  0  0  0  0
  138.4125   67.3719  224.4898 H   0  0  0  0  0  0  0  0  0  0  0  0
  139.8492   68.1354  223.7801 H   0  0  0  0  0  0  0  0  0  0  0  0
  139.0161   68.9187  226.4727 H   0  0  0  0  0  0  0  0  0  0  0  0
  140.0599   68.9519  228.7306 H   0  0  0  0  0  0  0  0  0  0  0  0
  141.5682   70.8817  229.2821 H   0  0  0  0  0  0  0  0  0  0  0  0
  141.9783   72.6656  227.6223 H   0  0  0  0  0  0  0  0  0  0  0  0
  140.9212   72.5992  225.3845 H   0  0  0  0  0  0  0  0  0  0  0  0
  139.8800   72.4101  223.8058 H   0  0  0  0  0  0  0  0  0  0  0  0
  141.0850   70.1867  222.9963 H   0  0  0  0  0  0  0  0  0  0  0  0
  139.7417   70.0646  221.8397 H   0  0  0  0  0  0  0  0  0  0  0  0
  141.8447   72.2893  222.1182 H   0  0  0  0  0  0  0  0  0  0  0  0
  141.3703   71.4489  220.6469 H   0  0  0  0  0  0  0  0  0  0  0  0
  142.1067   74.3042  222.0742 H   0  0  0  0  0  0  0  0  0  0  0  0
  142.2130   76.7520  221.2720 H   0  0  0  0  0  0  0  0  0  0  0  0
  140.5480   76.6980  221.2060 H   0  0  0  0  0  0  0  0  0  0  0  0
  141.4488   74.2869  219.2271 H   0  0  0  0  0  0  0  0  0  0  0  0
  142.1805   75.8679  219.5019 H   0  0  0  0  0  0  0  0  0  0  0  0
  144.5065   75.9392  220.7341 H   0  0  0  0  0  0  0  0  0  0  0  0
  146.6579   74.6617  220.8914 H   0  0  0  0  0  0  0  0  0  0  0  0
  146.7310   72.2636  220.3059 H   0  0  0  0  0  0  0  0  0  0  0  0
  145.0667   69.6892  217.7054 H   0  0  0  0  0  0  0  0  0  0  0  0
  146.3199   70.8663  218.1592 H   0  0  0  0  0  0  0  0  0  0  0  0
  146.9360   68.4491  218.6544 H   0  0  0  0  0  0  0  0  0  0  0  0
  146.9512   69.5258  220.1073 H   0  0  0  0  0  0  0  0  0  0  0  0
  143.9145   68.2786  218.6505 H   0  0  0  0  0  0  0  0  0  0  0  0
  143.5254   67.7938  220.3761 H   0  0  0  0  0  0  0  0  0  0  0  0
  142.6662   70.0691  219.5867 H   0  0  0  0  0  0  0  0  0  0  0  0
  143.5458   70.0232  221.1234 H   0  0  0  0  0  0  0  0  0  0  0  0
  142.5657   72.3424  219.3985 H   0  0  0  0  0  0  0  0  0  0  0  0
  137.8787   73.0659  220.9657 H   0  0  0  0  0  0  0  0  0  0  0  0
  138.5429   71.4299  220.6614 H   0  0  0  0  0  0  0  0  0  0  0  0
  137.6651   72.6995  223.2812 H   0  0  0  0  0  0  0  0  0  0  0  0
  137.4218   71.0408  222.7330 H   0  0  0  0  0  0  0  0  0  0  0  0
  1  2  1  0
  2  3  1  0
  3  4  2  0
  3  5  1  0
  5  6  1  0
  6  7  2  0
  7  8  1  0
  8  9  2  0
  9 10  1  0
 10 11  2  0
  5 12  1  0
 12 13  1  0
 13 14  1  0
 14 15  1  0
 15 16  1  0
 16 17  2  0
 16 18  1  0
 18 19  1  0
 18 20  1  0
 20 21  1  0
 21 22  2  0
 22 23  1  0
 23 24  2  0
 24 25  1  0
 25 26  1  0
 26 27  1  0
 27 28  1  0
 28 29  1  0
 29 30  1  0
 30 31  1  0
 25 32  2  0
 15 33  1  0
 33 34  1  0
 11  6  1  0
 34 12  1  0
 32 21  1  0
 31 26  1  0
  1 35  1  0
  1 36  1  0
  1 37  1  0
  2 38  1  0
  2 39  1  0
  7 40  1  0
  8 41  1  0
  9 42  1  0
 10 43  1  0
 11 44  1  0
 12 45  1  0
 13 46  1  0
 13 47  1  0
 14 48  1  0
 14 49  1  0
 18 50  1  1
 19 51  1  0
 19 52  1  0
 20 53  1  0
 20 54  1  0
 22 55  1  0
 23 56  1  0
 24 57  1  0
 27 58  1  0
 27 59  1  0
 28 60  1  0
 28 61  1  0
 30 62  1  0
 30 63  1  0
 31 64  1  0
 31 65  1  0
 32 66  1  0
 33 67  1  0
 33 68  1  0
 34 69  1  0
 34 70  1  0
M  END
>  <smiles>  (9) 
CCC(=O)N(c1ccccc1)C1CCN(C(=O)[C@H](N)Cc2cccc(N3CCOCC3)c2)CC1

>  <score_type>  (9) 
oracle

>  <origin>  (9) 
autodockgpu

>  <m_score__min__energy>  (9) 
-8.8800000000000008

>  <m_primary>  (9) 
energy

>  <rmsd>  (9) 
6.97339080701283

>  <m_score__min__rmsd>  (9) 
6.97339080701283

>  <meeko>  (9) 
{"free_energy": -8.21, "intermolecular_energy": -10.9, "internal_energy": -2.84, "cluster_size": 20, "cluster_id": 1, "rank_in_cluster": 11}

>  <energy>  (9) 
-8.29

>  <cluster_rmsd>  (9) 
0.66

>  <cluster>  (9) 
1

$$$$

     RDKit          3D

 70 73  0  0  0  0  0  0  0  0999 V2000
  138.4890   68.1380  222.4530 C   0  0  0  0  0  0  0  0  0  0  0  0
  139.4540   69.2580  222.0660 C   0  0  0  0  0  0  0  0  0  0  0  0
  139.4080   70.2610  223.1770 C   0  0  0  0  0  0  0  0  0  0  0  0
  139.9900   71.3590  222.9480 O   0  0  0  0  0  0  0  0  0  0  0  0
  138.7470   69.9730  224.4060 N   0  0  0  0  0  0  0  0  0  0  0  0
  139.4800   69.2790  225.4130 C   0  0  0  0  0  0  0  0  0  0  0  0
  140.1750   70.0660  226.3120 C   0  0  0  0  0  0  0  0  0  0  0  0
  140.9350   69.5470  227.3430 C   0  0  0  0  0  0  0  0  0  0  0  0
  140.9710   68.1640  227.4410 C   0  0  0  0  0  0  0  0  0  0  0  0
  140.2730   67.3660  226.5400 C   0  0  0  0  0  0  0  0  0  0  0  0
  139.5250   67.9100  225.5240 C   0  0  0  0  0  0  0  0  0  0  0  0
  137.3770   70.3960  224.5630 C   0  0  0  0  0  0  0  0  0  0  0  0
  136.9300   70.9610  223.2490 C   0  0  0  0  0  0  0  0  0  0  0  0
  135.7540   71.9020  223.5480 C   0  0  0  0  0  0  0  0  0  0  0  0
  135.0120   71.2250  224.6070 N   0  0  0  0  0  0  0  0  0  0  0  0
  134.3080   71.9050  225.6270 C   0  0  0  0  0  0  0  0  0  0  0  0
  133.6960   71.2000  226.4880 O   0  0  0  0  0  0  0  0  0  0  0  0
  134.2330   73.3580  225.7700 C   0  0  2  0  0  0  0  0  0  0  0  0
  133.3690   73.7240  226.8940 N   0  0  0  0  0  0  0  0  0  0  0  0
  133.5030   73.9160  224.5380 C   0  0  0  0  0  0  0  0  0  0  0  0
  134.3140   75.0930  224.1130 C   0  0  0  0  0  0  0  0  0  0  0  0
  133.9470   76.3910  224.4200 C   0  0  0  0  0  0  0  0  0  0  0  0
  134.7720   77.4140  223.9660 C   0  0  0  0  0  0  0  0  0  0  0  0
  135.9220   77.1230  223.2330 C   0  0  0  0  0  0  0  0  0  0  0  0
  136.2910   75.8450  222.9250 C   0  0  0  0  0  0  0  0  0  0  0  0
  137.4340   75.5140  222.1860 N   0  0  0  0  0  0  0  0  0  0  0  0
  138.4150   76.4610  221.6980 C   0  0  0  0  0  0  0  0  0  0  0  0
  139.7510   76.0750  222.3140 C   0  0  0  0  0  0  0  0  0  0  0  0
  140.0230   74.7470  222.1080 O   0  0  0  0  0  0  0  0  0  0  0  0
  139.1180   74.0580  221.3400 C   0  0  0  0  0  0  0  0  0  0  0  0
  137.6980   74.1050  221.8540 C   0  0  0  0  0  0  0  0  0  0  0  0
  135.4530   74.8300  223.3870 C   0  0  0  0  0  0  0  0  0  0  0  0
  135.0530   69.7550  224.5440 C   0  0  0  0  0  0  0  0  0  0  0  0
  136.4500   69.2800  224.9660 C   0  0  0  0  0  0  0  0  0  0  0  0
  138.4289   68.0682  223.5491 H   0  0  0  0  0  0  0  0  0  0  0  0
  137.4913   68.3560  222.0442 H   0  0  0  0  0  0  0  0  0  0  0  0
  138.8522   67.1835  222.0442 H   0  0  0  0  0  0  0  0  0  0  0  0
  140.4735   68.8600  221.9552 H   0  0  0  0  0  0  0  0  0  0  0  0
  139.1700   69.7140  221.1061 H   0  0  0  0  0  0  0  0  0  0  0  0
  140.1205   71.1591  226.2014 H   0  0  0  0  0  0  0  0  0  0  0  0
  141.4803   70.1940  228.0459 H   0  0  0  0  0  0  0  0  0  0  0  0
  141.5592   67.6918  228.2417 H   0  0  0  0  0  0  0  0  0  0  0  0
  140.3212   66.2720  226.6437 H   0  0  0  0  0  0  0  0  0  0  0  0
  138.9773   67.2675  224.8189 H   0  0  0  0  0  0  0  0  0  0  0  0
  137.3365   71.1383  225.3738 H   0  0  0  0  0  0  0  0  0  0  0  0
  137.7519   71.5199  222.7778 H   0  0  0  0  0  0  0  0  0  0  0  0
  136.6291   70.1606  222.5570 H   0  0  0  0  0  0  0  0  0  0  0  0
  136.1165   72.8822  223.8913 H   0  0  0  0  0  0  0  0  0  0  0  0
  135.1353   72.0976  222.6597 H   0  0  0  0  0  0  0  0  0  0  0  0
  135.2552   73.7420  225.9029 H   0  0  0  0  0  0  0  0  0  0  0  0
  132.3910   73.6470  226.5710 H   0  0  0  0  0  0  0  0  0  0  0  0
  133.4710   73.0280  227.6800 H   0  0  0  0  0  0  0  0  0  0  0  0
  133.4641   73.1631  223.7370 H   0  0  0  0  0  0  0  0  0  0  0  0
  132.4614   74.1895  224.7620 H   0  0  0  0  0  0  0  0  0  0  0  0
  133.0378   76.6055  225.0008 H   0  0  0  0  0  0  0  0  0  0  0  0
  134.5156   78.4607  224.1867 H   0  0  0  0  0  0  0  0  0  0  0  0
  136.5556   77.9542  222.8901 H   0  0  0  0  0  0  0  0  0  0  0  0
  138.4761   76.4100  220.6009 H   0  0  0  0  0  0  0  0  0  0  0  0
  138.1384   77.4895  221.9733 H   0  0  0  0  0  0  0  0  0  0  0  0
  140.5467   76.6803  221.8552 H   0  0  0  0  0  0  0  0  0  0  0  0
  139.7027   76.2583  223.3975 H   0  0  0  0  0  0  0  0  0  0  0  0
  139.1312   74.4855  220.3265 H   0  0  0  0  0  0  0  0  0  0  0  0
  139.4255   73.0021  221.3647 H   0  0  0  0  0  0  0  0  0  0  0  0
  136.9991   73.7574  221.0789 H   0  0  0  0  0  0  0  0  0  0  0  0
  137.5643   73.4526  222.7295 H   0  0  0  0  0  0  0  0  0  0  0  0
  135.7113   73.7844  223.1635 H   0  0  0  0  0  0  0  0  0  0  0  0
  134.2983   69.3347  225.2251 H   0  0  0  0  0  0  0  0  0  0  0  0
  134.8381   69.4190  223.5189 H   0  0  0  0  0  0  0  0  0  0  0  0
  136.4911   69.1162  226.0530 H   0  0  0  0  0  0  0  0  0  0  0  0
  136.7226   68.3245  224.4940 H   0  0  0  0  0  0  0  0  0  0  0  0
  1  2  1  0
  2  3  1  0
  3  4  2  0
  3  5  1  0
  5  6  1  0
  6  7  2  0
  7  8  1  0
  8  9  2  0
  9 10  1  0
 10 11  2  0
  5 12  1  0
 12 13  1  0
 13 14  1  0
 14 15  1  0
 15 16  1  0
 16 17  2  0
 16 18  1  0
 18 19  1  0
 18 20  1  0
 20 21  1  0
 21 22  2  0
 22 23  1  0
 23 24  2  0
 24 25  1  0
 25 26  1  0
 26 27  1  0
 27 28  1  0
 28 29  1  0
 29 30  1  0
 30 31  1  0
 25 32  2  0
 15 33  1  0
 33 34  1  0
 11  6  1  0
 34 12  1  0
 32 21  1  0
 31 26  1  0
  1 35  1  0
  1 36  1  0
  1 37  1  0
  2 38  1  0
  2 39  1  0
  7 40  1  0
  8 41  1  0
  9 42  1  0
 10 43  1  0
 11 44  1  0
 12 45  1  0
 13 46  1  0
 13 47  1  0
 14 48  1  0
 14 49  1  0
 18 50  1  1
 19 51  1  0
 19 52  1  0
 20 53  1  0
 20 54  1  0
 22 55  1  0
 23 56  1  0
 24 57  1  0
 27 58  1  0
 27 59  1  0
 28 60  1  0
 28 61  1  0
 30 62  1  0
 30 63  1  0
 31 64  1  0
 31 65  1  0
 32 66  1  0
 33 67  1  0
 33 68  1  0
 34 69  1  0
 34 70  1  0
M  END
>  <smiles>  (10) 
CCC(=O)N(c1ccccc1)C1CCN(C(=O)[C@H](N)Cc2cccc(N3CCOCC3)c2)CC1

>  <score_type>  (10) 
oracle

>  <origin>  (10) 
autodockgpu

>  <m_score__min__energy>  (10) 
-8.8800000000000008

>  <m_primary>  (10) 
energy

>  <rmsd>  (10) 
10.620836765338417

>  <m_score__min__rmsd>  (10) 
10.620836765338417

>  <meeko>  (10) 
{"free_energy": -6.89, "intermolecular_energy": -9.57, "internal_energy": -3.0, "cluster_size": 2, "cluster_id": 10, "rank_in_cluster": 2}

>  <energy>  (10) 
-8.21

>  <cluster_rmsd>  (10) 
0.73

>  <cluster>  (10) 
1

$$$$

     RDKit          3D

 70 73  0  0  0  0  0  0  0  0999 V2000
  140.7110   71.7610  221.7930 C   0  0  0  0  0  0  0  0  0  0  0  0
  140.1140   71.7050  223.1980 C   0  0  0  0  0  0  0  0  0  0  0  0
  139.3020   70.4490  223.2660 C   0  0  0  0  0  0  0  0  0  0  0  0
  139.2350   69.7810  222.1960 O   0  0  0  0  0  0  0  0  0  0  0  0
  138.6520   70.0540  224.4720 N   0  0  0  0  0  0  0  0  0  0  0  0
  139.4130   69.3290  225.4350 C   0  0  0  0  0  0  0  0  0  0  0  0
  140.0330   70.0820  226.4130 C   0  0  0  0  0  0  0  0  0  0  0  0
  140.8090   69.5310  227.4160 C   0  0  0  0  0  0  0  0  0  0  0  0
  140.9410   68.1500  227.3980 C   0  0  0  0  0  0  0  0  0  0  0  0
  140.3190   67.3850  226.4170 C   0  0  0  0  0  0  0  0  0  0  0  0
  139.5530   67.9620  225.4320 C   0  0  0  0  0  0  0  0  0  0  0  0
  137.2650   70.4050  224.6490 C   0  0  0  0  0  0  0  0  0  0  0  0
  136.8000   71.0500  223.3790 C   0  0  0  0  0  0  0  0  0  0  0  0
  135.5840   71.9140  223.7400 C   0  0  0  0  0  0  0  0  0  0  0  0
  134.8660   71.1280  224.7380 N   0  0  0  0  0  0  0  0  0  0  0  0
  134.1290   71.6980  225.8020 C   0  0  0  0  0  0  0  0  0  0  0  0
  133.5440   70.9040  226.6010 O   0  0  0  0  0  0  0  0  0  0  0  0
  133.9910   73.1310  226.0540 C   0  0  2  0  0  0  0  0  0  0  0  0
  133.1390   73.3720  227.2190 N   0  0  0  0  0  0  0  0  0  0  0  0
  133.2090   73.7440  224.8820 C   0  0  0  0  0  0  0  0  0  0  0  0
  133.9500   74.9890  224.5350 C   0  0  0  0  0  0  0  0  0  0  0  0
  133.5410   76.2380  224.9700 C   0  0  0  0  0  0  0  0  0  0  0  0
  134.3020   77.3340  224.5810 C   0  0  0  0  0  0  0  0  0  0  0  0
  135.4320   77.1620  223.7830 C   0  0  0  0  0  0  0  0  0  0  0  0
  135.8440   75.9350  223.3480 C   0  0  0  0  0  0  0  0  0  0  0  0
  136.9690   75.7230  222.5420 N   0  0  0  0  0  0  0  0  0  0  0  0
  137.9230   76.7420  222.1580 C   0  0  0  0  0  0  0  0  0  0  0  0
  139.2810   76.3000  222.6810 C   0  0  0  0  0  0  0  0  0  0  0  0
  139.5650   75.0160  222.2930 O   0  0  0  0  0  0  0  0  0  0  0  0
  138.6460   74.4200  221.4650 C   0  0  0  0  0  0  0  0  0  0  0  0
  137.2410   74.3750  222.0190 C   0  0  0  0  0  0  0  0  0  0  0  0
  135.0690   74.8450  223.7470 C   0  0  0  0  0  0  0  0  0  0  0  0
  134.9700   69.6700  224.5640 C   0  0  0  0  0  0  0  0  0  0  0  0
  136.3840   69.2230  224.9590 C   0  0  0  0  0  0  0  0  0  0  0  0
  141.8040   71.8635  221.8628 H   0  0  0  0  0  0  0  0  0  0  0  0
  140.4633   70.8357  221.2522 H   0  0  0  0  0  0  0  0  0  0  0  0
  140.2956   72.6241  221.2522 H   0  0  0  0  0  0  0  0  0  0  0  0
  140.9158   71.6802  223.9507 H   0  0  0  0  0  0  0  0  0  0  0  0
  139.4942   72.5905  223.4020 H   0  0  0  0  0  0  0  0  0  0  0  0
  139.9030   71.1741  226.3929 H   0  0  0  0  0  0  0  0  0  0  0  0
  141.2937   70.1517  228.1839 H   0  0  0  0  0  0  0  0  0  0  0  0
  141.5462   67.6531  228.1705 H   0  0  0  0  0  0  0  0  0  0  0  0
  140.4430   66.2921  226.4296 H   0  0  0  0  0  0  0  0  0  0  0  0
  139.0653   67.3460  224.6622 H   0  0  0  0  0  0  0  0  0  0  0  0
  137.1893   71.0808  225.5136 H   0  0  0  0  0  0  0  0  0  0  0  0
  137.5993   71.6779  222.9585 H   0  0  0  0  0  0  0  0  0  0  0  0
  136.5368   70.2933  222.6253 H   0  0  0  0  0  0  0  0  0  0  0  0
  135.9029   72.8793  224.1601 H   0  0  0  0  0  0  0  0  0  0  0  0
  134.9617   72.1502  222.8642 H   0  0  0  0  0  0  0  0  0  0  0  0
  134.9975   73.5519  226.1944 H   0  0  0  0  0  0  0  0  0  0  0  0
  132.1590   73.2560  226.9150 H   0  0  0  0  0  0  0  0  0  0  0  0
  133.3040   72.6370  227.9570 H   0  0  0  0  0  0  0  0  0  0  0  0
  133.1906   73.0535  224.0260 H   0  0  0  0  0  0  0  0  0  0  0  0
  132.1603   73.9465  225.1452 H   0  0  0  0  0  0  0  0  0  0  0  0
  132.6473   76.3585  225.5999 H   0  0  0  0  0  0  0  0  0  0  0  0
  134.0106   78.3440  224.9050 H   0  0  0  0  0  0  0  0  0  0  0  0
  136.0142   78.0489  223.4926 H   0  0  0  0  0  0  0  0  0  0  0  0
  137.9530   76.8377  221.0626 H   0  0  0  0  0  0  0  0  0  0  0  0
  137.6414   77.7202  222.5749 H   0  0  0  0  0  0  0  0  0  0  0  0
  140.0551   76.9743  222.2858 H   0  0  0  0  0  0  0  0  0  0  0  0
  139.2610   76.3366  223.7802 H   0  0  0  0  0  0  0  0  0  0  0  0
  138.6241   74.9783  220.5174 H   0  0  0  0  0  0  0  0  0  0  0  0
  138.9673   73.3753  221.3410 H   0  0  0  0  0  0  0  0  0  0  0  0
  136.5244   74.1215  221.2239 H   0  0  0  0  0  0  0  0  0  0  0  0
  137.1411   73.6103  222.8034 H   0  0  0  0  0  0  0  0  0  0  0  0
  135.3626   73.8365  223.4205 H   0  0  0  0  0  0  0  0  0  0  0  0
  134.2310   69.1677  225.2056 H   0  0  0  0  0  0  0  0  0  0  0  0
  134.7742   69.4045  223.5146 H   0  0  0  0  0  0  0  0  0  0  0  0
  136.4274   68.9785  226.0306 H   0  0  0  0  0  0  0  0  0  0  0  0
  136.6988   68.3187  224.4176 H   0  0  0  0  0  0  0  0  0  0  0  0
  1  2  1  0
  2  3  1  0
  3  4  2  0
  3  5  1  0
  5  6  1  0
  6  7  2  0
  7  8  1  0
  8  9  2  0
  9 10  1  0
 10 11  2  0
  5 12  1  0
 12 13  1  0
 13 14  1  0
 14 15  1  0
 15 16  1  0
 16 17  2  0
 16 18  1  0
 18 19  1  0
 18 20  1  0
 20 21  1  0
 21 22  2  0
 22 23  1  0
 23 24  2  0
 24 25  1  0
 25 26  1  0
 26 27  1  0
 27 28  1  0
 28 29  1  0
 29 30  1  0
 30 31  1  0
 25 32  2  0
 15 33  1  0
 33 34  1  0
 11  6  1  0
 34 12  1  0
 32 21  1  0
 31 26  1  0
  1 35  1  0
  1 36  1  0
  1 37  1  0
  2 38  1  0
  2 39  1  0
  7 40  1  0
  8 41  1  0
  9 42  1  0
 10 43  1  0
 11 44  1  0
 12 45  1  0
 13 46  1  0
 13 47  1  0
 14 48  1  0
 14 49  1  0
 18 50  1  1
 19 51  1  0
 19 52  1  0
 20 53  1  0
 20 54  1  0
 22 55  1  0
 23 56  1  0
 24 57  1  0
 27 58  1  0
 27 59  1  0
 28 60  1  0
 28 61  1  0
 30 62  1  0
 30 63  1  0
 31 64  1  0
 31 65  1  0
 32 66  1  0
 33 67  1  0
 33 68  1  0
 34 69  1  0
 34 70  1  0
M  END
>  <smiles>  (11) 
CCC(=O)N(c1ccccc1)C1CCN(C(=O)[C@H](N)Cc2cccc(N3CCOCC3)c2)CC1

>  <score_type>  (11) 
oracle

>  <origin>  (11) 
autodockgpu

>  <m_score__min__energy>  (11) 
-8.8800000000000008

>  <m_primary>  (11) 
energy

>  <rmsd>  (11) 
10.908507495523322

>  <m_score__min__rmsd>  (11) 
10.908507495523322

>  <meeko>  (11) 
{"free_energy": -6.96, "intermolecular_energy": -9.65, "internal_energy": -3.13, "cluster_size": 2, "cluster_id": 10, "rank_in_cluster": 1}

>  <energy>  (11) 
-8.21

>  <cluster_rmsd>  (11) 
0.71

>  <cluster>  (11) 
1

$$$$

     RDKit          3D

 70 73  0  0  0  0  0  0  0  0999 V2000
  142.2080   81.5140  223.9110 C   0  0  0  0  0  0  0  0  0  0  0  0
  142.5600   80.1720  223.2730 C   0  0  0  0  0  0  0  0  0  0  0  0
  141.5350   79.1910  223.7540 C   0  0  0  0  0  0  0  0  0  0  0  0
  141.8320   78.5600  224.8080 O   0  0  0  0  0  0  0  0  0  0  0  0
  140.3120   78.9950  223.0480 N   0  0  0  0  0  0  0  0  0  0  0  0
  139.3380   80.0360  223.0970 C   0  0  0  0  0  0  0  0  0  0  0  0
  138.6230   80.1450  224.2740 C   0  0  0  0  0  0  0  0  0  0  0  0
  137.6430   81.0980  224.4780 C   0  0  0  0  0  0  0  0  0  0  0  0
  137.4020   81.9650  223.4230 C   0  0  0  0  0  0  0  0  0  0  0  0
  138.1200   81.8610  222.2350 C   0  0  0  0  0  0  0  0  0  0  0  0
  139.0890   80.9030  222.0610 C   0  0  0  0  0  0  0  0  0  0  0  0
  140.1260   77.7590  222.3290 C   0  0  0  0  0  0  0  0  0  0  0  0
  138.6910   77.3590  222.4900 C   0  0  0  0  0  0  0  0  0  0  0  0
  138.6240   75.8430  222.2540 C   0  0  0  0  0  0  0  0  0  0  0  0
  139.5740   75.6050  221.1720 N   0  0  0  0  0  0  0  0  0  0  0  0
  140.3370   74.4210  221.0460 C   0  0  0  0  0  0  0  0  0  0  0  0
  141.1250   74.3340  220.0550 O   0  0  0  0  0  0  0  0  0  0  0  0
  140.2900   73.2910  221.9720 C   0  0  2  0  0  0  0  0  0  0  0  0
  141.1440   72.1990  221.5000 N   0  0  0  0  0  0  0  0  0  0  0  0
  138.8710   72.7040  221.9300 C   0  0  0  0  0  0  0  0  0  0  0  0
  138.9680   71.4120  222.6690 C   0  0  0  0  0  0  0  0  0  0  0  0
  138.4620   70.2300  222.1580 C   0  0  0  0  0  0  0  0  0  0  0  0
  138.6000   69.0850  222.9340 C   0  0  0  0  0  0  0  0  0  0  0  0
  139.2280   69.1450  224.1770 C   0  0  0  0  0  0  0  0  0  0  0  0
  139.7300   70.3070  224.6900 C   0  0  0  0  0  0  0  0  0  0  0  0
  140.3630   70.4080  225.9360 N   0  0  0  0  0  0  0  0  0  0  0  0
  141.4710   71.2890  226.2400 C   0  0  0  0  0  0  0  0  0  0  0  0
  141.0130   72.2090  227.3610 C   0  0  0  0  0  0  0  0  0  0  0  0
  140.4940   71.4920  228.4070 O   0  0  0  0  0  0  0  0  0  0  0  0
  140.5600   70.1250  228.2920 C   0  0  0  0  0  0  0  0  0  0  0  0
  139.8980   69.5700  227.0520 C   0  0  0  0  0  0  0  0  0  0  0  0
  139.5840   71.4470  223.8990 C   0  0  0  0  0  0  0  0  0  0  0  0
  139.6920   76.7070  220.2030 C   0  0  0  0  0  0  0  0  0  0  0  0
  140.4510   77.8660  220.8630 C   0  0  0  0  0  0  0  0  0  0  0  0
  142.2334   81.4171  225.0064 H   0  0  0  0  0  0  0  0  0  0  0  0
  142.9373   82.2737  223.5931 H   0  0  0  0  0  0  0  0  0  0  0  0
  141.1997   81.8179  223.5931 H   0  0  0  0  0  0  0  0  0  0  0  0
  142.5248   80.2516  222.1764 H   0  0  0  0  0  0  0  0  0  0  0  0
  143.5760   79.8540  223.5499 H   0  0  0  0  0  0  0  0  0  0  0  0
  138.8443   79.4392  225.0882 H   0  0  0  0  0  0  0  0  0  0  0  0
  137.0856   81.1649  225.4240 H   0  0  0  0  0  0  0  0  0  0  0  0
  136.6334   82.7451  223.5262 H   0  0  0  0  0  0  0  0  0  0  0  0
  137.9062   82.5630  221.4156 H   0  0  0  0  0  0  0  0  0  0  0  0
  139.6503   80.8321  221.1177 H   0  0  0  0  0  0  0  0  0  0  0  0
  140.8183   77.0119  222.7444 H   0  0  0  0  0  0  0  0  0  0  0  0
  138.3422   77.6000  223.5050 H   0  0  0  0  0  0  0  0  0  0  0  0
  138.0486   77.8981  221.7782 H   0  0  0  0  0  0  0  0  0  0  0  0
  138.9197   75.2940  223.1602 H   0  0  0  0  0  0  0  0  0  0  0  0
  137.6087   75.5005  222.0052 H   0  0  0  0  0  0  0  0  0  0  0  0
  140.6013   73.6491  222.9644 H   0  0  0  0  0  0  0  0  0  0  0  0
  141.0940   72.1910  220.4680 H   0  0  0  0  0  0  0  0  0  0  0  0
  142.1530   72.3890  221.7410 H   0  0  0  0  0  0  0  0  0  0  0  0
  138.1578   73.3800  222.4243 H   0  0  0  0  0  0  0  0  0  0  0  0
  138.5104   72.5658  220.9000 H   0  0  0  0  0  0  0  0  0  0  0  0
  137.9693   70.1976  221.1751 H   0  0  0  0  0  0  0  0  0  0  0  0
  138.2109   68.1247  222.5646 H   0  0  0  0  0  0  0  0  0  0  0  0
  139.3229   68.2215  224.7671 H   0  0  0  0  0  0  0  0  0  0  0  0
  142.3423   70.7017  226.5655 H   0  0  0  0  0  0  0  0  0  0  0  0
  141.7667   71.8683  225.3529 H   0  0  0  0  0  0  0  0  0  0  0  0
  141.8725   72.7950  227.7186 H   0  0  0  0  0  0  0  0  0  0  0  0
  140.2283   72.8730  226.9693 H   0  0  0  0  0  0  0  0  0  0  0  0
  141.6201   69.8319  228.2765 H   0  0  0  0  0  0  0  0  0  0  0  0
  140.0130   69.7109  229.1519 H   0  0  0  0  0  0  0  0  0  0  0  0
  140.1972   68.5232  226.8947 H   0  0  0  0  0  0  0  0  0  0  0  0
  138.8015   69.5857  227.1387 H   0  0  0  0  0  0  0  0  0  0  0  0
  139.9743   72.4058  224.2710 H   0  0  0  0  0  0  0  0  0  0  0  0
  140.2430   76.3618  219.3157 H   0  0  0  0  0  0  0  0  0  0  0  0
  138.6909   77.0429  219.8949 H   0  0  0  0  0  0  0  0  0  0  0  0
  141.5337   77.7628  220.6984 H   0  0  0  0  0  0  0  0  0  0  0  0
  140.1608   78.8413  220.4453 H   0  0  0  0  0  0  0  0  0  0  0  0
  1  2  1  0
  2  3  1  0
  3  4  2  0
  3  5  1  0
  5  6  1  0
  6  7  2  0
  7  8  1  0
  8  9  2  0
  9 10  1  0
 10 11  2  0
  5 12  1  0
 12 13  1  0
 13 14  1  0
 14 15  1  0
 15 16  1  0
 16 17  2  0
 16 18  1  0
 18 19  1  0
 18 20  1  0
 20 21  1  0
 21 22  2  0
 22 23  1  0
 23 24  2  0
 24 25  1  0
 25 26  1  0
 26 27  1  0
 27 28  1  0
 28 29  1  0
 29 30  1  0
 30 31  1  0
 25 32  2  0
 15 33  1  0
 33 34  1  0
 11  6  1  0
 34 12  1  0
 32 21  1  0
 31 26  1  0
  1 35  1  0
  1 36  1  0
  1 37  1  0
  2 38  1  0
  2 39  1  0
  7 40  1  0
  8 41  1  0
  9 42  1  0
 10 43  1  0
 11 44  1  0
 12 45  1  0
 13 46  1  0
 13 47  1  0
 14 48  1  0
 14 49  1  0
 18 50  1  1
 19 51  1  0
 19 52  1  0
 20 53  1  0
 20 54  1  0
 22 55  1  0
 23 56  1  0
 24 57  1  0
 27 58  1  0
 27 59  1  0
 28 60  1  0
 28 61  1  0
 30 62  1  0
 30 63  1  0
 31 64  1  0
 31 65  1  0
 32 66  1  0
 33 67  1  0
 33 68  1  0
 34 69  1  0
 34 70  1  0
M  END
>  <smiles>  (12) 
CCC(=O)N(c1ccccc1)C1CCN(C(=O)[C@H](N)Cc2cccc(N3CCOCC3)c2)CC1

>  <score_type>  (12) 
oracle

>  <origin>  (12) 
autodockgpu

>  <m_score__min__energy>  (12) 
-8.8800000000000008

>  <m_primary>  (12) 
energy

>  <rmsd>  (12) 
5.303968523835103

>  <m_score__min__rmsd>  (12) 
5.303968523835103

>  <meeko>  (12) 
{"free_energy": -7.35, "intermolecular_energy": -10.04, "internal_energy": -2.64, "cluster_size": 3, "cluster_id": 4, "rank_in_cluster": 3}

>  <energy>  (12) 
-8.18

>  <cluster_rmsd>  (12) 
0.62

>  <cluster>  (12) 
1

$$$$

     RDKit          3D

 70 73  0  0  0  0  0  0  0  0999 V2000
  135.6570   69.1950  224.9340 C   0  0  0  0  0  0  0  0  0  0  0  0
  136.4780   70.3520  224.3690 C   0  0  0  0  0  0  0  0  0  0  0  0
  137.8830   69.8530  224.2390 C   0  0  0  0  0  0  0  0  0  0  0  0
  138.0090   68.6110  224.0400 O   0  0  0  0  0  0  0  0  0  0  0  0
  138.9950   70.7400  224.3390 N   0  0  0  0  0  0  0  0  0  0  0  0
  139.7250   70.7620  225.5640 C   0  0  0  0  0  0  0  0  0  0  0  0
  139.4960   69.7090  226.4270 C   0  0  0  0  0  0  0  0  0  0  0  0
  140.1220   69.5850  227.6540 C   0  0  0  0  0  0  0  0  0  0  0  0
  141.0150   70.5920  227.9890 C   0  0  0  0  0  0  0  0  0  0  0  0
  141.2510   71.6550  227.1230 C   0  0  0  0  0  0  0  0  0  0  0  0
  140.6140   71.7510  225.9100 C   0  0  0  0  0  0  0  0  0  0  0  0
  139.3170   71.5660  223.2010 C   0  0  0  0  0  0  0  0  0  0  0  0
  140.3230   70.8210  222.3780 C   0  0  0  0  0  0  0  0  0  0  0  0
  141.0760   71.8680  221.5440 C   0  0  0  0  0  0  0  0  0  0  0  0
  140.0490   72.8340  221.1670 N   0  0  0  0  0  0  0  0  0  0  0  0
  140.2980   74.2160  221.0000 C   0  0  0  0  0  0  0  0  0  0  0  0
  139.3190   74.9510  220.6630 O   0  0  0  0  0  0  0  0  0  0  0  0
  141.5950   74.8640  221.1870 C   0  0  2  0  0  0  0  0  0  0  0  0
  141.4230   76.2620  221.5830 N   0  0  0  0  0  0  0  0  0  0  0  0
  142.2850   74.9430  219.8170 C   0  0  0  0  0  0  0  0  0  0  0  0
  143.5830   74.2320  219.9990 C   0  0  0  0  0  0  0  0  0  0  0  0
  144.7160   74.8720  220.4700 C   0  0  0  0  0  0  0  0  0  0  0  0
  145.8750   74.1150  220.5940 C   0  0  0  0  0  0  0  0  0  0  0  0
  145.8760   72.7630  220.2530 C   0  0  0  0  0  0  0  0  0  0  0  0
  144.7640   72.1230  219.7860 C   0  0  0  0  0  0  0  0  0  0  0  0
  144.7280   70.7690  219.4280 N   0  0  0  0  0  0  0  0  0  0  0  0
  145.6440   70.1250  218.5100 C   0  0  0  0  0  0  0  0  0  0  0  0
  146.3410   69.0150  219.2830 C   0  0  0  0  0  0  0  0  0  0  0  0
  145.4300   68.2060  219.9120 O   0  0  0  0  0  0  0  0  0  0  0  0
  144.1080   68.4830  219.6670 C   0  0  0  0  0  0  0  0  0  0  0  0
  143.6930   69.8960  220.0020 C   0  0  0  0  0  0  0  0  0  0  0  0
  143.6080   72.8970  219.6670 C   0  0  0  0  0  0  0  0  0  0  0  0
  138.7060   72.2620  220.9750 C   0  0  0  0  0  0  0  0  0  0  0  0
  138.1220   71.8990  222.3470 C   0  0  0  0  0  0  0  0  0  0  0  0
  135.6819   69.2301  226.0332 H   0  0  0  0  0  0  0  0  0  0  0  0
  134.6164   69.2805  224.5879 H   0  0  0  0  0  0  0  0  0  0  0  0
  136.0813   68.2410  224.5879 H   0  0  0  0  0  0  0  0  0  0  0  0
  136.0879   70.6495  223.3845 H   0  0  0  0  0  0  0  0  0  0  0  0
  136.4281   71.2329  225.0259 H   0  0  0  0  0  0  0  0  0  0  0  0
  138.7805   68.9304  226.1238 H   0  0  0  0  0  0  0  0  0  0  0  0
  139.9231   68.7367  228.3255 H   0  0  0  0  0  0  0  0  0  0  0  0
  141.5439   70.5496  228.9526 H   0  0  0  0  0  0  0  0  0  0  0  0
  141.9655   72.4380  227.4171 H   0  0  0  0  0  0  0  0  0  0  0  0
  140.8101   72.5964  225.2341 H   0  0  0  0  0  0  0  0  0  0  0  0
  139.7072   72.5255  223.5713 H   0  0  0  0  0  0  0  0  0  0  0  0
  141.0241   70.2827  223.0328 H   0  0  0  0  0  0  0  0  0  0  0  0
  139.8323   70.0791  221.7309 H   0  0  0  0  0  0  0  0  0  0  0  0
  141.8636   72.3497  222.1420 H   0  0  0  0  0  0  0  0  0  0  0  0
  141.5797   71.4273  220.6710 H   0  0  0  0  0  0  0  0  0  0  0  0
  142.1558   74.2951  221.9432 H   0  0  0  0  0  0  0  0  0  0  0  0
  142.2340   76.7890  221.2200 H   0  0  0  0  0  0  0  0  0  0  0  0
  140.5740   76.6770  221.1150 H   0  0  0  0  0  0  0  0  0  0  0  0
  141.6759   74.4457  219.0478 H   0  0  0  0  0  0  0  0  0  0  0  0
  142.4253   75.9818  219.4836 H   0  0  0  0  0  0  0  0  0  0  0  0
  144.6999   75.9392  220.7361 H   0  0  0  0  0  0  0  0  0  0  0  0
  146.7979   74.5857  220.9637 H   0  0  0  0  0  0  0  0  0  0  0  0
  146.8084   72.1901  220.3645 H   0  0  0  0  0  0  0  0  0  0  0  0
  145.0907   69.7024  217.6584 H   0  0  0  0  0  0  0  0  0  0  0  0
  146.3743   70.8458  218.1136 H   0  0  0  0  0  0  0  0  0  0  0  0
  146.9371   68.4098  218.5842 H   0  0  0  0  0  0  0  0  0  0  0  0
  146.9880   69.4727  220.0458 H   0  0  0  0  0  0  0  0  0  0  0  0
  143.9132   68.3117  218.5980 H   0  0  0  0  0  0  0  0  0  0  0  0
  143.5225   67.8208  220.3217 H   0  0  0  0  0  0  0  0  0  0  0  0
  142.7126   70.1220  219.5574 H   0  0  0  0  0  0  0  0  0  0  0  0
  143.5997   70.0419  221.0883 H   0  0  0  0  0  0  0  0  0  0  0  0
  142.6870   72.4239  219.2956 H   0  0  0  0  0  0  0  0  0  0  0  0
  138.0571   72.9999  220.4806 H   0  0  0  0  0  0  0  0  0  0  0  0
  138.7697   71.3618  220.3460 H   0  0  0  0  0  0  0  0  0  0  0  0
  137.5693   72.7508  222.7700 H   0  0  0  0  0  0  0  0  0  0  0  0
  137.4105   71.0623  222.2860 H   0  0  0  0  0  0  0  0  0  0  0  0
  1  2  1  0
  2  3  1  0
  3  4  2  0
  3  5  1  0
  5  6  1  0
  6  7  2  0
  7  8  1  0
  8  9  2  0
  9 10  1  0
 10 11  2  0
  5 12  1  0
 12 13  1  0
 13 14  1  0
 14 15  1  0
 15 16  1  0
 16 17  2  0
 16 18  1  0
 18 19  1  0
 18 20  1  0
 20 21  1  0
 21 22  2  0
 22 23  1  0
 23 24  2  0
 24 25  1  0
 25 26  1  0
 26 27  1  0
 27 28  1  0
 28 29  1  0
 29 30  1  0
 30 31  1  0
 25 32  2  0
 15 33  1  0
 33 34  1  0
 11  6  1  0
 34 12  1  0
 32 21  1  0
 31 26  1  0
  1 35  1  0
  1 36  1  0
  1 37  1  0
  2 38  1  0
  2 39  1  0
  7 40  1  0
  8 41  1  0
  9 42  1  0
 10 43  1  0
 11 44  1  0
 12 45  1  0
 13 46  1  0
 13 47  1  0
 14 48  1  0
 14 49  1  0
 18 50  1  1
 19 51  1  0
 19 52  1  0
 20 53  1  0
 20 54  1  0
 22 55  1  0
 23 56  1  0
 24 57  1  0
 27 58  1  0
 27 59  1  0
 28 60  1  0
 28 61  1  0
 30 62  1  0
 30 63  1  0
 31 64  1  0
 31 65  1  0
 32 66  1  0
 33 67  1  0
 33 68  1  0
 34 69  1  0
 34 70  1  0
M  END
>  <smiles>  (13) 
CCC(=O)N(c1ccccc1)C1CCN(C(=O)[C@H](N)Cc2cccc(N3CCOCC3)c2)CC1

>  <score_type>  (13) 
oracle

>  <origin>  (13) 
autodockgpu

>  <m_score__min__energy>  (13) 
-8.8800000000000008

>  <m_primary>  (13) 
energy

>  <rmsd>  (13) 
6.95479538334633

>  <m_score__min__rmsd>  (13) 
6.95479538334633

>  <meeko>  (13) 
{"free_energy": -7.99, "intermolecular_energy": -10.68, "internal_energy": -2.7, "cluster_size": 20, "cluster_id": 1, "rank_in_cluster": 16}

>  <energy>  (13) 
-8.11

>  <cluster_rmsd>  (13) 
0.59

>  <cluster>  (13) 
1

$$$$

     RDKit          3D

 70 73  0  0  0  0  0  0  0  0999 V2000
  142.5860   81.6360  217.8510 C   0  0  0  0  0  0  0  0  0  0  0  0
  142.1980   80.1600  217.9020 C   0  0  0  0  0  0  0  0  0  0  0  0
  141.1680   80.0270  218.9810 C   0  0  0  0  0  0  0  0  0  0  0  0
  140.1110   80.7000  218.8160 O   0  0  0  0  0  0  0  0  0  0  0  0
  141.3890   79.1910  220.1140 N   0  0  0  0  0  0  0  0  0  0  0  0
  141.6170   79.8190  221.3740 C   0  0  0  0  0  0  0  0  0  0  0  0
  141.8830   78.9750  222.4350 C   0  0  0  0  0  0  0  0  0  0  0  0
  142.1230   79.4270  223.7200 C   0  0  0  0  0  0  0  0  0  0  0  0
  142.0840   80.8010  223.9030 C   0  0  0  0  0  0  0  0  0  0  0  0
  141.8170   81.6560  222.8390 C   0  0  0  0  0  0  0  0  0  0  0  0
  141.5820   81.1780  221.5720 C   0  0  0  0  0  0  0  0  0  0  0  0
  141.3720   77.7620  219.9250 C   0  0  0  0  0  0  0  0  0  0  0  0
  140.1500   77.4310  219.1230 C   0  0  0  0  0  0  0  0  0  0  0  0
  139.8180   75.9590  219.4080 C   0  0  0  0  0  0  0  0  0  0  0  0
  141.1200   75.3060  219.4920 N   0  0  0  0  0  0  0  0  0  0  0  0
  141.3900   74.2030  220.3350 C   0  0  0  0  0  0  0  0  0  0  0  0
  142.5640   73.7200  220.3110 O   0  0  0  0  0  0  0  0  0  0  0  0
  140.4220   73.5780  221.2340 C   0  0  2  0  0  0  0  0  0  0  0  0
  140.0250   74.5060  222.2950 N   0  0  0  0  0  0  0  0  0  0  0  0
  141.1350   72.4390  221.9780 C   0  0  0  0  0  0  0  0  0  0  0  0
  140.0710   71.7880  222.7950 C   0  0  0  0  0  0  0  0  0  0  0  0
  138.7530   71.7270  222.3760 C   0  0  0  0  0  0  0  0  0  0  0  0
  137.8410   71.1040  223.2190 C   0  0  0  0  0  0  0  0  0  0  0  0
  138.2570   70.5650  224.4370 C   0  0  0  0  0  0  0  0  0  0  0  0
  139.5550   70.6210  224.8580 C   0  0  0  0  0  0  0  0  0  0  0  0
  140.0090   70.0960  226.0750 N   0  0  0  0  0  0  0  0  0  0  0  0
  140.8120   70.8130  227.0440 C   0  0  0  0  0  0  0  0  0  0  0  0
  140.0190   70.8480  228.3410 C   0  0  0  0  0  0  0  0  0  0  0  0
  139.6010   69.5910  228.6980 O   0  0  0  0  0  0  0  0  0  0  0  0
  140.0330   68.5630  227.8970 C   0  0  0  0  0  0  0  0  0  0  0  0
  139.6690   68.7120  226.4380 C   0  0  0  0  0  0  0  0  0  0  0  0
  140.4580   71.2500  224.0000 C   0  0  0  0  0  0  0  0  0  0  0  0
  142.1580   75.8880  218.6260 C   0  0  0  0  0  0  0  0  0  0  0  0
  142.5920   77.2390  219.2130 C   0  0  0  0  0  0  0  0  0  0  0  0
  142.6880   82.0239  218.8753 H   0  0  0  0  0  0  0  0  0  0  0  0
  143.5434   81.7453  217.3205 H   0  0  0  0  0  0  0  0  0  0  0  0
  141.8061   82.2020  217.3205 H   0  0  0  0  0  0  0  0  0  0  0  0
  141.7786   79.8439  216.9355 H   0  0  0  0  0  0  0  0  0  0  0  0
  143.0731   79.5260  218.1077 H   0  0  0  0  0  0  0  0  0  0  0  0
  141.9050   77.8911  222.2488 H   0  0  0  0  0  0  0  0  0  0  0  0
  142.3329   78.7358  224.5496 H   0  0  0  0  0  0  0  0  0  0  0  0
  142.2667   81.2205  224.9033 H   0  0  0  0  0  0  0  0  0  0  0  0
  141.7933   82.7414  223.0159 H   0  0  0  0  0  0  0  0  0  0  0  0
  141.3716   81.8650  220.7391 H   0  0  0  0  0  0  0  0  0  0  0  0
  141.3648   77.2838  220.9156 H   0  0  0  0  0  0  0  0  0  0  0  0
  139.3113   78.0743  219.4276 H   0  0  0  0  0  0  0  0  0  0  0  0
  140.3256   77.5955  218.0496 H   0  0  0  0  0  0  0  0  0  0  0  0
  139.2702   75.8596  220.3567 H   0  0  0  0  0  0  0  0  0  0  0  0
  139.1744   75.5156  218.6339 H   0  0  0  0  0  0  0  0  0  0  0  0
  139.5582   73.2551  220.6344 H   0  0  0  0  0  0  0  0  0  0  0  0
  139.6250   73.9440  223.0640 H   0  0  0  0  0  0  0  0  0  0  0  0
  140.8720   74.9900  222.6980 H   0  0  0  0  0  0  0  0  0  0  0  0
  141.5679   71.7223  221.2646 H   0  0  0  0  0  0  0  0  0  0  0  0
  141.9661   72.8063  222.5980 H   0  0  0  0  0  0  0  0  0  0  0  0
  138.4397   72.1554  221.4125 H   0  0  0  0  0  0  0  0  0  0  0  0
  136.7835   71.0352  222.9241 H   0  0  0  0  0  0  0  0  0  0  0  0
  137.5117   70.0768  225.0821 H   0  0  0  0  0  0  0  0  0  0  0  0
  141.7687   70.2932  227.2003 H   0  0  0  0  0  0  0  0  0  0  0  0
  141.0342   71.8314  226.6926 H   0  0  0  0  0  0  0  0  0  0  0  0
  140.6553   71.2556  229.1403 H   0  0  0  0  0  0  0  0  0  0  0  0
  139.1325   71.4819  228.1917 H   0  0  0  0  0  0  0  0  0  0  0  0
  141.1288   68.5044  227.9738 H   0  0  0  0  0  0  0  0  0  0  0  0
  139.5283   67.6534  228.2547 H   0  0  0  0  0  0  0  0  0  0  0  0
  140.2461   68.0034  225.8258 H   0  0  0  0  0  0  0  0  0  0  0  0
  138.6036   68.5000  226.2647 H   0  0  0  0  0  0  0  0  0  0  0  0
  141.5148   71.3178  224.2975 H   0  0  0  0  0  0  0  0  0  0  0  0
  143.0231   75.2102  218.5792 H   0  0  0  0  0  0  0  0  0  0  0  0
  141.7600   76.0322  217.6107 H   0  0  0  0  0  0  0  0  0  0  0  0
  143.4245   77.1046  219.9194 H   0  0  0  0  0  0  0  0  0  0  0  0
  142.9477   77.9326  218.4369 H   0  0  0  0  0  0  0  0  0  0  0  0
  1  2  1  0
  2  3  1  0
  3  4  2  0
  3  5  1  0
  5  6  1  0
  6  7  2  0
  7  8  1  0
  8  9  2  0
  9 10  1  0
 10 11  2  0
  5 12  1  0
 12 13  1  0
 13 14  1  0
 14 15  1  0
 15 16  1  0
 16 17  2  0
 16 18  1  0
 18 19  1  0
 18 20  1  0
 20 21  1  0
 21 22  2  0
 22 23  1  0
 23 24  2  0
 24 25  1  0
 25 26  1  0
 26 27  1  0
 27 28  1  0
 28 29  1  0
 29 30  1  0
 30 31  1  0
 25 32  2  0
 15 33  1  0
 33 34  1  0
 11  6  1  0
 34 12  1  0
 32 21  1  0
 31 26  1  0
  1 35  1  0
  1 36  1  0
  1 37  1  0
  2 38  1  0
  2 39  1  0
  7 40  1  0
  8 41  1  0
  9 42  1  0
 10 43  1  0
 11 44  1  0
 12 45  1  0
 13 46  1  0
 13 47  1  0
 14 48  1  0
 14 49  1  0
 18 50  1  6
 19 51  1  0
 19 52  1  0
 20 53  1  0
 20 54  1  0
 22 55  1  0
 23 56  1  0
 24 57  1  0
 27 58  1  0
 27 59  1  0
 28 60  1  0
 28 61  1  0
 30 62  1  0
 30 63  1  0
 31 64  1  0
 31 65  1  0
 32 66  1  0
 33 67  1  0
 33 68  1  0
 34 69  1  0
 34 70  1  0
M  END
>  <smiles>  (14) 
CCC(=O)N(c1ccccc1)C1CCN(C(=O)[C@H](N)Cc2cccc(N3CCOCC3)c2)CC1

>  <score_type>  (14) 
oracle

>  <origin>  (14) 
autodockgpu

>  <m_score__min__energy>  (14) 
-8.8800000000000008

>  <m_primary>  (14) 
energy

>  <rmsd>  (14) 
5.219804443006242

>  <m_score__min__rmsd>  (14) 
5.219804443006242

>  <meeko>  (14) 
{"free_energy": -8.22, "intermolecular_energy": -10.9, "internal_energy": -1.84, "cluster_size": 6, "cluster_id": 3, "rank_in_cluster": 2}

>  <energy>  (14) 
-8.06

>  <cluster_rmsd>  (14) 
0.74

>  <cluster>  (14) 
1

$$$$

     RDKit          3D

 70 73  0  0  0  0  0  0  0  0999 V2000
  140.6820   71.9600  221.5570 C   0  0  0  0  0  0  0  0  0  0  0  0
  140.0000   70.8240  222.3170 C   0  0  0  0  0  0  0  0  0  0  0  0
  139.9990   71.2190  223.7610 C   0  0  0  0  0  0  0  0  0  0  0  0
  140.6930   72.2330  224.0530 O   0  0  0  0  0  0  0  0  0  0  0  0
  139.2570   70.4800  224.7290 N   0  0  0  0  0  0  0  0  0  0  0  0
  139.9100   70.1290  225.9470 C   0  0  0  0  0  0  0  0  0  0  0  0
  139.9700   68.7800  226.2380 C   0  0  0  0  0  0  0  0  0  0  0  0
  140.5660   68.2780  227.3800 C   0  0  0  0  0  0  0  0  0  0  0  0
  141.1160   69.2130  228.2450 C   0  0  0  0  0  0  0  0  0  0  0  0
  141.0590   70.5730  227.9580 C   0  0  0  0  0  0  0  0  0  0  0  0
  140.4600   71.0420  226.8130 C   0  0  0  0  0  0  0  0  0  0  0  0
  137.8930   70.1270  224.4220 C   0  0  0  0  0  0  0  0  0  0  0  0
  137.2270   71.3510  223.8710 C   0  0  0  0  0  0  0  0  0  0  0  0
  135.7180   71.1710  224.0900 C   0  0  0  0  0  0  0  0  0  0  0  0
  135.4840   69.7530  223.8390 N   0  0  0  0  0  0  0  0  0  0  0  0
  134.4960   68.9920  224.5060 C   0  0  0  0  0  0  0  0  0  0  0  0
  134.3890   67.7660  224.1920 O   0  0  0  0  0  0  0  0  0  0  0  0
  133.5910   69.5070  225.5310 C   0  0  2  0  0  0  0  0  0  0  0  0
  132.8050   68.4220  226.1200 N   0  0  0  0  0  0  0  0  0  0  0  0
  132.5460   70.3940  224.8370 C   0  0  0  0  0  0  0  0  0  0  0  0
  132.3420   71.5440  225.7630 C   0  0  0  0  0  0  0  0  0  0  0  0
  131.4940   71.4710  226.8540 C   0  0  0  0  0  0  0  0  0  0  0  0
  131.3720   72.6050  227.6480 C   0  0  0  0  0  0  0  0  0  0  0  0
  132.0860   73.7630  227.3420 C   0  0  0  0  0  0  0  0  0  0  0  0
  132.9240   73.8450  226.2670 C   0  0  0  0  0  0  0  0  0  0  0  0
  133.6530   74.9910  225.9240 N   0  0  0  0  0  0  0  0  0  0  0  0
  135.0370   75.0030  225.5000 C   0  0  0  0  0  0  0  0  0  0  0  0
  135.0710   75.6110  224.1070 C   0  0  0  0  0  0  0  0  0  0  0  0
  134.4090   76.8120  224.0770 O   0  0  0  0  0  0  0  0  0  0  0  0
  133.9320   77.2670  225.2810 C   0  0  0  0  0  0  0  0  0  0  0  0
  133.0010   76.3080  225.9870 C   0  0  0  0  0  0  0  0  0  0  0  0
  133.0360   72.6980  225.4800 C   0  0  0  0  0  0  0  0  0  0  0  0
  136.3690   69.1530  222.8270 C   0  0  0  0  0  0  0  0  0  0  0  0
  137.7750   69.0050  223.4260 C   0  0  0  0  0  0  0  0  0  0  0  0
  141.1113   72.6751  222.2742 H   0  0  0  0  0  0  0  0  0  0  0  0
  141.4830   71.5492  220.9248 H   0  0  0  0  0  0  0  0  0  0  0  0
  139.9429   72.4738  220.9248 H   0  0  0  0  0  0  0  0  0  0  0  0
  138.9685   70.6924  221.9583 H   0  0  0  0  0  0  0  0  0  0  0  0
  140.5280   69.8709  222.1657 H   0  0  0  0  0  0  0  0  0  0  0  0
  139.5218   68.0707  225.5266 H   0  0  0  0  0  0  0  0  0  0  0  0
  140.6021   67.1990  227.5908 H   0  0  0  0  0  0  0  0  0  0  0  0
  141.6040   68.8741  229.1708 H   0  0  0  0  0  0  0  0  0  0  0  0
  141.5037   71.2900  228.6638 H   0  0  0  0  0  0  0  0  0  0  0  0
  140.4222   72.1198  226.5962 H   0  0  0  0  0  0  0  0  0  0  0  0
  137.4145   69.7695  225.3457 H   0  0  0  0  0  0  0  0  0  0  0  0
  137.5825   72.2468  224.4012 H   0  0  0  0  0  0  0  0  0  0  0  0
  137.4585   71.4798  222.8034 H   0  0  0  0  0  0  0  0  0  0  0  0
  135.4396   71.4354  225.1208 H   0  0  0  0  0  0  0  0  0  0  0  0
  135.1179   71.8186  223.4339 H   0  0  0  0  0  0  0  0  0  0  0  0
  134.1944   70.0283  226.2888 H   0  0  0  0  0  0  0  0  0  0  0  0
  132.5370   67.7820  225.3540 H   0  0  0  0  0  0  0  0  0  0  0  0
  133.3980   67.8520  226.7810 H   0  0  0  0  0  0  0  0  0  0  0  0
  132.9202   70.7430  223.8633 H   0  0  0  0  0  0  0  0  0  0  0  0
  131.6098   69.8519  224.6380 H   0  0  0  0  0  0  0  0  0  0  0  0
  130.9376   70.5504  227.0841 H   0  0  0  0  0  0  0  0  0  0  0  0
  130.7073   72.5890  228.5243 H   0  0  0  0  0  0  0  0  0  0  0  0
  131.9698   74.6435  227.9910 H   0  0  0  0  0  0  0  0  0  0  0  0
  135.6386   75.6106  226.1920 H   0  0  0  0  0  0  0  0  0  0  0  0
  135.4541   73.9851  225.4939 H   0  0  0  0  0  0  0  0  0  0  0  0
  136.1180   75.7702  223.8098 H   0  0  0  0  0  0  0  0  0  0  0  0
  134.5730   74.9196  223.4113 H   0  0  0  0  0  0  0  0  0  0  0  0
  134.7910   77.4606  225.9403 H   0  0  0  0  0  0  0  0  0  0  0  0
  133.3451   78.1717  225.0642 H   0  0  0  0  0  0  0  0  0  0  0  0
  132.8584   76.6144  227.0338 H   0  0  0  0  0  0  0  0  0  0  0  0
  132.0076   76.2892  225.5149 H   0  0  0  0  0  0  0  0  0  0  0  0
  133.7013   72.7170  224.6042 H   0  0  0  0  0  0  0  0  0  0  0  0
  135.9838   68.1638  222.5385 H   0  0  0  0  0  0  0  0  0  0  0  0
  136.4079   69.7961  221.9354 H   0  0  0  0  0  0  0  0  0  0  0  0
  137.8818   68.0311  223.9260 H   0  0  0  0  0  0  0  0  0  0  0  0
  138.5594   69.0511  222.6562 H   0  0  0  0  0  0  0  0  0  0  0  0
  1  2  1  0
  2  3  1  0
  3  4  2  0
  3  5  1  0
  5  6  1  0
  6  7  2  0
  7  8  1  0
  8  9  2  0
  9 10  1  0
 10 11  2  0
  5 12  1  0
 12 13  1  0
 13 14  1  0
 14 15  1  0
 15 16  1  0
 16 17  2  0
 16 18  1  0
 18 19  1  0
 18 20  1  0
 20 21  1  0
 21 22  2  0
 22 23  1  0
 23 24  2  0
 24 25  1  0
 25 26  1  0
 26 27  1  0
 27 28  1  0
 28 29  1  0
 29 30  1  0
 30 31  1  0
 25 32  2  0
 15 33  1  0
 33 34  1  0
 11  6  1  0
 34 12  1  0
 32 21  1  0
 31 26  1  0
  1 35  1  0
  1 36  1  0
  1 37  1  0
  2 38  1  0
  2 39  1  0
  7 40  1  0
  8 41  1  0
  9 42  1  0
 10 43  1  0
 11 44  1  0
 12 45  1  0
 13 46  1  0
 13 47  1  0
 14 48  1  0
 14 49  1  0
 18 50  1  1
 19 51  1  0
 19 52  1  0
 20 53  1  0
 20 54  1  0
 22 55  1  0
 23 56  1  0
 24 57  1  0
 27 58  1  0
 27 59  1  0
 28 60  1  0
 28 61  1  0
 30 62  1  0
 30 63  1  0
 31 64  1  0
 31 65  1  0
 32 66  1  0
 33 67  1  0
 33 68  1  0
 34 69  1  0
 34 70  1  0
M  END
>  <smiles>  (15) 
CCC(=O)N(c1ccccc1)C1CCN(C(=O)[C@H](N)Cc2cccc(N3CCOCC3)c2)CC1

>  <score_type>  (15) 
oracle

>  <origin>  (15) 
autodockgpu

>  <m_score__min__energy>  (15) 
-8.8800000000000008

>  <m_primary>  (15) 
energy

>  <rmsd>  (15) 
12.04793127651347

>  <m_score__min__rmsd>  (15) 
12.04793127651347

>  <meeko>  (15) 
{"free_energy": -7.61, "intermolecular_energy": -10.29, "internal_energy": -2.72, "cluster_size": 1, "cluster_id": 6, "rank_in_cluster": 1}

>  <energy>  (15) 
-8.02

>  <cluster_rmsd>  (15) 
0.6

>  <cluster>  (15) 
1

$$$$

     RDKit          3D

 70 73  0  0  0  0  0  0  0  0999 V2000
  138.4190   67.8480  222.6610 C   0  0  0  0  0  0  0  0  0  0  0  0
  138.9240   68.1380  224.0740 C   0  0  0  0  0  0  0  0  0  0  0  0
  138.3770   69.4790  224.4540 C   0  0  0  0  0  0  0  0  0  0  0  0
  137.1270   69.5300  224.6370 O   0  0  0  0  0  0  0  0  0  0  0  0
  139.2300   70.6130  224.5930 N   0  0  0  0  0  0  0  0  0  0  0  0
  139.8680   70.8200  225.8510 C   0  0  0  0  0  0  0  0  0  0  0  0
  140.7110   71.9110  225.9340 C   0  0  0  0  0  0  0  0  0  0  0  0
  141.4050   72.2460  227.0810 C   0  0  0  0  0  0  0  0  0  0  0  0
  141.2130   71.4170  228.1760 C   0  0  0  0  0  0  0  0  0  0  0  0
  140.3660   70.3170  228.1000 C   0  0  0  0  0  0  0  0  0  0  0  0
  139.6880   70.0080  226.9450 C   0  0  0  0  0  0  0  0  0  0  0  0
  139.3980   71.4860  223.4580 C   0  0  0  0  0  0  0  0  0  0  0  0
  140.2430   70.7600  222.4550 C   0  0  0  0  0  0  0  0  0  0  0  0
  140.8890   71.8300  221.5630 C   0  0  0  0  0  0  0  0  0  0  0  0
  139.8460   72.8360  221.3940 N   0  0  0  0  0  0  0  0  0  0  0  0
  140.1080   74.2190  221.2530 C   0  0  0  0  0  0  0  0  0  0  0  0
  139.1120   74.9920  221.1060 O   0  0  0  0  0  0  0  0  0  0  0  0
  141.4370   74.8270  221.2660 C   0  0  2  0  0  0  0  0  0  0  0  0
  141.3480   76.2610  221.5470 N   0  0  0  0  0  0  0  0  0  0  0  0
  142.0030   74.7570  219.8400 C   0  0  0  0  0  0  0  0  0  0  0  0
  143.3400   74.1150  219.9880 C   0  0  0  0  0  0  0  0  0  0  0  0
  144.4480   74.8130  220.4370 C   0  0  0  0  0  0  0  0  0  0  0  0
  145.6490   74.1180  220.5300 C   0  0  0  0  0  0  0  0  0  0  0  0
  145.7140   72.7700  220.1810 C   0  0  0  0  0  0  0  0  0  0  0  0
  144.6270   72.0740  219.7360 C   0  0  0  0  0  0  0  0  0  0  0  0
  144.6550   70.7220  219.3710 N   0  0  0  0  0  0  0  0  0  0  0  0
  145.6520   70.1090  218.5190 C   0  0  0  0  0  0  0  0  0  0  0  0
  146.3230   69.0140  219.3360 C   0  0  0  0  0  0  0  0  0  0  0  0
  145.3930   68.1760  219.8950 O   0  0  0  0  0  0  0  0  0  0  0  0
  144.0850   68.4170  219.5570 C   0  0  0  0  0  0  0  0  0  0  0  0
  143.6070   69.8160  219.8680 C   0  0  0  0  0  0  0  0  0  0  0  0
  143.4300   72.7850  219.6480 C   0  0  0  0  0  0  0  0  0  0  0  0
  138.4740   72.3050  221.3870 C   0  0  0  0  0  0  0  0  0  0  0  0
  138.0970   71.8880  222.8150 C   0  0  0  0  0  0  0  0  0  0  0  0
  137.4664   67.3009  222.7172 H   0  0  0  0  0  0  0  0  0  0  0  0
  138.2663   68.7960  222.1244 H   0  0  0  0  0  0  0  0  0  0  0  0
  139.1609   67.2383  222.1244 H   0  0  0  0  0  0  0  0  0  0  0  0
  138.5627   67.3685  224.7721 H   0  0  0  0  0  0  0  0  0  0  0  0
  140.0233   68.1312  224.1128 H   0  0  0  0  0  0  0  0  0  0  0  0
  140.8360   72.5443  225.0433 H   0  0  0  0  0  0  0  0  0  0  0  0
  142.0715   73.1201  227.1231 H   0  0  0  0  0  0  0  0  0  0  0  0
  141.7383   71.6328  229.1181 H   0  0  0  0  0  0  0  0  0  0  0  0
  140.2353   69.6783  228.9860 H   0  0  0  0  0  0  0  0  0  0  0  0
  139.0201   69.1353  226.8977 H   0  0  0  0  0  0  0  0  0  0  0  0
  139.8693   72.4165  223.8072 H   0  0  0  0  0  0  0  0  0  0  0  0
  141.0203   70.1744  222.9676 H   0  0  0  0  0  0  0  0  0  0  0  0
  139.6367   70.0622  221.8589 H   0  0  0  0  0  0  0  0  0  0  0  0
  141.7732   72.2639  222.0529 H   0  0  0  0  0  0  0  0  0  0  0  0
  141.2388   71.4219  220.6033 H   0  0  0  0  0  0  0  0  0  0  0  0
  142.0447   74.3038  222.0190 H   0  0  0  0  0  0  0  0  0  0  0  0
  140.4370   76.4310  222.0020 H   0  0  0  0  0  0  0  0  0  0  0  0
  142.0820   76.5460  222.2490 H   0  0  0  0  0  0  0  0  0  0  0  0
  141.3515   74.1495  219.1946 H   0  0  0  0  0  0  0  0  0  0  0  0
  142.0706   75.7504  219.3725 H   0  0  0  0  0  0  0  0  0  0  0  0
  144.3810   75.8765  220.7097 H   0  0  0  0  0  0  0  0  0  0  0  0
  146.5538   74.6355  220.8814 H   0  0  0  0  0  0  0  0  0  0  0  0
  146.6779   72.2471  220.2674 H   0  0  0  0  0  0  0  0  0  0  0  0
  145.1732   69.6761  217.6283 H   0  0  0  0  0  0  0  0  0  0  0  0
  146.3883   70.8521  218.1789 H   0  0  0  0  0  0  0  0  0  0  0  0
  146.9845   68.4298  218.6793 H   0  0  0  0  0  0  0  0  0  0  0  0
  146.9002   69.4853  220.1452 H   0  0  0  0  0  0  0  0  0  0  0  0
  143.9723   68.2474  218.4760 H   0  0  0  0  0  0  0  0  0  0  0  0
  143.4731   67.7341  220.1647 H   0  0  0  0  0  0  0  0  0  0  0  0
  142.6540   70.0169  219.3567 H   0  0  0  0  0  0  0  0  0  0  0  0
  143.4338   69.9526  220.9456 H   0  0  0  0  0  0  0  0  0  0  0  0
  142.5275   72.2646  219.2948 H   0  0  0  0  0  0  0  0  0  0  0  0
  137.7792   73.0809  221.0330 H   0  0  0  0  0  0  0  0  0  0  0  0
  138.4135   71.4356  220.7158 H   0  0  0  0  0  0  0  0  0  0  0  0
  137.6417   72.7303  223.3566 H   0  0  0  0  0  0  0  0  0  0  0  0
  137.3598   71.0716  222.8268 H   0  0  0  0  0  0  0  0  0  0  0  0
  1  2  1  0
  2  3  1  0
  3  4  2  0
  3  5  1  0
  5  6  1  0
  6  7  2  0
  7  8  1  0
  8  9  2  0
  9 10  1  0
 10 11  2  0
  5 12  1  0
 12 13  1  0
 13 14  1  0
 14 15  1  0
 15 16  1  0
 16 17  2  0
 16 18  1  0
 18 19  1  0
 18 20  1  0
 20 21  1  0
 21 22  2  0
 22 23  1  0
 23 24  2  0
 24 25  1  0
 25 26  1  0
 26 27  1  0
 27 28  1  0
 28 29  1  0
 29 30  1  0
 30 31  1  0
 25 32  2  0
 15 33  1  0
 33 34  1  0
 11  6  1  0
 34 12  1  0
 32 21  1  0
 31 26  1  0
  1 35  1  0
  1 36  1  0
  1 37  1  0
  2 38  1  0
  2 39  1  0
  7 40  1  0
  8 41  1  0
  9 42  1  0
 10 43  1  0
 11 44  1  0
 12 45  1  0
 13 46  1  0
 13 47  1  0
 14 48  1  0
 14 49  1  0
 18 50  1  1
 19 51  1  0
 19 52  1  0
 20 53  1  0
 20 54  1  0
 22 55  1  0
 23 56  1  0
 24 57  1  0
 27 58  1  0
 27 59  1  0
 28 60  1  0
 28 61  1  0
 30 62  1  0
 30 63  1  0
 31 64  1  0
 31 65  1  0
 32 66  1  0
 33 67  1  0
 33 68  1  0
 34 69  1  0
 34 70  1  0
M  END
>  <smiles>  (16) 
CCC(=O)N(c1ccccc1)C1CCN(C(=O)[C@H](N)Cc2cccc(N3CCOCC3)c2)CC1

>  <score_type>  (16) 
oracle

>  <origin>  (16) 
autodockgpu

>  <m_score__min__energy>  (16) 
-8.8800000000000008

>  <m_primary>  (16) 
energy

>  <rmsd>  (16) 
6.962213031301065

>  <m_score__min__rmsd>  (16) 
6.962213031301065

>  <meeko>  (16) 
{"free_energy": -8.31, "intermolecular_energy": -10.99, "internal_energy": -2.85, "cluster_size": 20, "cluster_id": 1, "rank_in_cluster": 7}

>  <energy>  (16) 
-7.99

>  <cluster_rmsd>  (16) 
0.69

>  <cluster>  (16) 
1

$$$$

     RDKit          3D

 70 73  0  0  0  0  0  0  0  0999 V2000
  142.2170   81.6300  223.9060 C   0  0  0  0  0  0  0  0  0  0  0  0
  142.7200   80.4020  223.1500 C   0  0  0  0  0  0  0  0  0  0  0  0
  141.8080   79.2730  223.5170 C   0  0  0  0  0  0  0  0  0  0  0  0
  142.1200   78.6320  224.5600 O   0  0  0  0  0  0  0  0  0  0  0  0
  140.6660   78.9580  222.7240 N   0  0  0  0  0  0  0  0  0  0  0  0
  139.5610   79.8590  222.7540 C   0  0  0  0  0  0  0  0  0  0  0  0
  138.7070   79.7380  223.8320 C   0  0  0  0  0  0  0  0  0  0  0  0
  137.5900   80.5340  224.0050 C   0  0  0  0  0  0  0  0  0  0  0  0
  137.3580   81.4860  223.0230 C   0  0  0  0  0  0  0  0  0  0  0  0
  138.2150   81.6130  221.9350 C   0  0  0  0  0  0  0  0  0  0  0  0
  139.3190   80.8070  221.7890 C   0  0  0  0  0  0  0  0  0  0  0  0
  140.6900   77.7480  221.9390 C   0  0  0  0  0  0  0  0  0  0  0  0
  139.3880   77.6670  221.2020 C   0  0  0  0  0  0  0  0  0  0  0  0
  139.1650   76.1870  220.8570 C   0  0  0  0  0  0  0  0  0  0  0  0
  140.4960   75.6920  220.5180 N   0  0  0  0  0  0  0  0  0  0  0  0
  140.9270   74.3700  220.7710 C   0  0  0  0  0  0  0  0  0  0  0  0
  142.1080   74.0610  220.4230 O   0  0  0  0  0  0  0  0  0  0  0  0
  140.1180   73.3310  221.4070 C   0  0  2  0  0  0  0  0  0  0  0  0
  139.5130   73.8290  222.6430 N   0  0  0  0  0  0  0  0  0  0  0  0
  141.0650   72.2150  221.8740 C   0  0  0  0  0  0  0  0  0  0  0  0
  140.2130   71.3070  222.6950 C   0  0  0  0  0  0  0  0  0  0  0  0
  139.2570   70.4820  222.1300 C   0  0  0  0  0  0  0  0  0  0  0  0
  138.5130   69.6820  222.9890 C   0  0  0  0  0  0  0  0  0  0  0  0
  138.7370   69.7220  224.3650 C   0  0  0  0  0  0  0  0  0  0  0  0
  139.6780   70.5340  224.9310 C   0  0  0  0  0  0  0  0  0  0  0  0
  139.9270   70.6060  226.3080 N   0  0  0  0  0  0  0  0  0  0  0  0
  139.4640   69.6490  227.2900 C   0  0  0  0  0  0  0  0  0  0  0  0
  140.6990   69.0750  227.9680 C   0  0  0  0  0  0  0  0  0  0  0  0
  141.5210   70.0740  228.4230 O   0  0  0  0  0  0  0  0  0  0  0  0
  141.0560   71.3560  228.2660 C   0  0  0  0  0  0  0  0  0  0  0  0
  140.7160   71.7280  226.8420 C   0  0  0  0  0  0  0  0  0  0  0  0
  140.4160   71.3310  224.0550 C   0  0  0  0  0  0  0  0  0  0  0  0
  141.3800   76.6860  219.8870 C   0  0  0  0  0  0  0  0  0  0  0  0
  141.8250   77.6980  220.9520 C   0  0  0  0  0  0  0  0  0  0  0  0
  142.2908   81.4498  224.9886 H   0  0  0  0  0  0  0  0  0  0  0  0
  142.8301   82.5028  223.6370 H   0  0  0  0  0  0  0  0  0  0  0  0
  141.1678   81.8219  223.6370 H   0  0  0  0  0  0  0  0  0  0  0  0
  142.6838   80.5824  222.0655 H   0  0  0  0  0  0  0  0  0  0  0  0
  143.7629   80.1724  223.4138 H   0  0  0  0  0  0  0  0  0  0  0  0
  138.9259   78.9713  224.5898 H   0  0  0  0  0  0  0  0  0  0  0  0
  136.9230   80.4190  224.8721 H   0  0  0  0  0  0  0  0  0  0  0  0
  136.4845   82.1494  223.1060 H   0  0  0  0  0  0  0  0  0  0  0  0
  138.0042   82.3773  221.1725 H   0  0  0  0  0  0  0  0  0  0  0  0
  139.9897   80.9177  220.9242 H   0  0  0  0  0  0  0  0  0  0  0  0
  140.8386   76.8982  222.6215 H   0  0  0  0  0  0  0  0  0  0  0  0
  138.5694   78.0352  221.8378 H   0  0  0  0  0  0  0  0  0  0  0  0
  139.4100   78.2854  220.2926 H   0  0  0  0  0  0  0  0  0  0  0  0
  138.7550   75.6429  221.7206 H   0  0  0  0  0  0  0  0  0  0  0  0
  138.4440   76.0501  220.0376 H   0  0  0  0  0  0  0  0  0  0  0  0
  139.3543   73.0034  220.6863 H   0  0  0  0  0  0  0  0  0  0  0  0
  138.5370   73.4930  222.6680 H   0  0  0  0  0  0  0  0  0  0  0  0
  139.9880   73.4040  223.4840 H   0  0  0  0  0  0  0  0  0  0  0  0
  141.4843   71.6769  221.0110 H   0  0  0  0  0  0  0  0  0  0  0  0
  141.9195   72.6086  222.4440 H   0  0  0  0  0  0  0  0  0  0  0  0
  139.0921   70.4601  221.0427 H   0  0  0  0  0  0  0  0  0  0  0  0
  137.7418   69.0123  222.5806 H   0  0  0  0  0  0  0  0  0  0  0  0
  138.1332   69.0754  225.0188 H   0  0  0  0  0  0  0  0  0  0  0  0
  138.8236   70.1486  228.0318 H   0  0  0  0  0  0  0  0  0  0  0  0
  138.8718   68.8535  226.8142 H   0  0  0  0  0  0  0  0  0  0  0  0
  140.3852   68.4524  228.8188 H   0  0  0  0  0  0  0  0  0  0  0  0
  141.2537   68.4734  227.2329 H   0  0  0  0  0  0  0  0  0  0  0  0
  140.1484   71.4697  228.8771 H   0  0  0  0  0  0  0  0  0  0  0  0
  141.8710   72.0254  228.5786 H   0  0  0  0  0  0  0  0  0  0  0  0
  140.1253   72.6556  226.8197 H   0  0  0  0  0  0  0  0  0  0  0  0
  141.6222   71.9045  226.2439 H   0  0  0  0  0  0  0  0  0  0  0  0
  141.1858   72.0008  224.4659 H   0  0  0  0  0  0  0  0  0  0  0  0
  142.2617   76.1816  219.4648 H   0  0  0  0  0  0  0  0  0  0  0  0
  140.8430   77.2048  219.0792 H   0  0  0  0  0  0  0  0  0  0  0  0
  142.7499   77.3612  221.4430 H   0  0  0  0  0  0  0  0  0  0  0  0
  142.0404   78.6860  220.5191 H   0  0  0  0  0  0  0  0  0  0  0  0
  1  2  1  0
  2  3  1  0
  3  4  2  0
  3  5  1  0
  5  6  1  0
  6  7  2  0
  7  8  1  0
  8  9  2  0
  9 10  1  0
 10 11  2  0
  5 12  1  0
 12 13  1  0
 13 14  1  0
 14 15  1  0
 15 16  1  0
 16 17  2  0
 16 18  1  0
 18 19  1  0
 18 20  1  0
 20 21  1  0
 21 22  2  0
 22 23  1  0
 23 24  2  0
 24 25  1  0
 25 26  1  0
 26 27  1  0
 27 28  1  0
 28 29  1  0
 29 30  1  0
 30 31  1  0
 25 32  2  0
 15 33  1  0
 33 34  1  0
 11  6  1  0
 34 12  1  0
 32 21  1  0
 31 26  1  0
  1 35  1  0
  1 36  1  0
  1 37  1  0
  2 38  1  0
  2 39  1  0
  7 40  1  0
  8 41  1  0
  9 42  1  0
 10 43  1  0
 11 44  1  0
 12 45  1  0
 13 46  1  0
 13 47  1  0
 14 48  1  0
 14 49  1  0
 18 50  1  6
 19 51  1  0
 19 52  1  0
 20 53  1  0
 20 54  1  0
 22 55  1  0
 23 56  1  0
 24 57  1  0
 27 58  1  0
 27 59  1  0
 28 60  1  0
 28 61  1  0
 30 62  1  0
 30 63  1  0
 31 64  1  0
 31 65  1  0
 32 66  1  0
 33 67  1  0
 33 68  1  0
 34 69  1  0
 34 70  1  0
M  END
>  <smiles>  (17) 
CCC(=O)N(c1ccccc1)C1CCN(C(=O)[C@H](N)Cc2cccc(N3CCOCC3)c2)CC1

>  <score_type>  (17) 
oracle

>  <origin>  (17) 
autodockgpu

>  <m_score__min__energy>  (17) 
-8.8800000000000008

>  <m_primary>  (17) 
energy

>  <rmsd>  (17) 
5.157377333165091

>  <m_score__min__rmsd>  (17) 
5.157377333165091

>  <meeko>  (17) 
{"free_energy": -8.32, "intermolecular_energy": -11.0, "internal_energy": -1.77, "cluster_size": 3, "cluster_id": 4, "rank_in_cluster": 1}

>  <energy>  (17) 
-7.91

>  <cluster_rmsd>  (17) 
0.63

>  <cluster>  (17) 
1

$$$$

     RDKit          3D

 70 73  0  0  0  0  0  0  0  0999 V2000
  138.1390   81.7990  221.7010 C   0  0  0  0  0  0  0  0  0  0  0  0
  137.2800   80.7340  222.3800 C   0  0  0  0  0  0  0  0  0  0  0  0
  138.1610   80.0490  223.3780 C   0  0  0  0  0  0  0  0  0  0  0  0
  137.8330   80.1930  224.5890 O   0  0  0  0  0  0  0  0  0  0  0  0
  139.2950   79.2900  222.9640 N   0  0  0  0  0  0  0  0  0  0  0  0
  140.5900   79.8390  223.2000 C   0  0  0  0  0  0  0  0  0  0  0  0
  141.6620   79.0360  222.8620 C   0  0  0  0  0  0  0  0  0  0  0  0
  142.9790   79.4210  223.0310 C   0  0  0  0  0  0  0  0  0  0  0  0
  143.1830   80.6830  223.5690 C   0  0  0  0  0  0  0  0  0  0  0  0
  142.1080   81.4970  223.9120 C   0  0  0  0  0  0  0  0  0  0  0  0
  140.8090   81.0870  223.7320 C   0  0  0  0  0  0  0  0  0  0  0  0
  139.0710   78.0140  222.3300 C   0  0  0  0  0  0  0  0  0  0  0  0
  137.7740   77.4760  222.8530 C   0  0  0  0  0  0  0  0  0  0  0  0
  137.8160   75.9530  222.6600 C   0  0  0  0  0  0  0  0  0  0  0  0
  138.4860   75.7710  221.3770 N   0  0  0  0  0  0  0  0  0  0  0  0
  139.3170   74.6670  221.0780 C   0  0  0  0  0  0  0  0  0  0  0  0
  139.8380   74.6220  219.9210 O   0  0  0  0  0  0  0  0  0  0  0  0
  139.6260   73.5750  221.9990 C   0  0  2  0  0  0  0  0  0  0  0  0
  141.0710   73.3480  222.0670 N   0  0  0  0  0  0  0  0  0  0  0  0
  139.0700   72.2760  221.3970 C   0  0  0  0  0  0  0  0  0  0  0  0
  138.6320   71.4660  222.5690 C   0  0  0  0  0  0  0  0  0  0  0  0
  137.3950   70.8480  222.6180 C   0  0  0  0  0  0  0  0  0  0  0  0
  137.0860   70.1230  223.7630 C   0  0  0  0  0  0  0  0  0  0  0  0
  138.0010   70.0320  224.8110 C   0  0  0  0  0  0  0  0  0  0  0  0
  139.2240   70.6380  224.7720 C   0  0  0  0  0  0  0  0  0  0  0  0
  140.1660   70.5750  225.8060 N   0  0  0  0  0  0  0  0  0  0  0  0
  141.2650   71.4990  225.9910 C   0  0  0  0  0  0  0  0  0  0  0  0
  141.0810   72.1400  227.3580 C   0  0  0  0  0  0  0  0  0  0  0  0
  140.9090   71.1880  228.3300 O   0  0  0  0  0  0  0  0  0  0  0  0
  141.0160   69.8820  227.9200 C   0  0  0  0  0  0  0  0  0  0  0  0
  140.0730   69.4980  226.8040 C   0  0  0  0  0  0  0  0  0  0  0  0
  139.5190   71.3620  223.6160 C   0  0  0  0  0  0  0  0  0  0  0  0
  138.2380   76.8400  220.3960 C   0  0  0  0  0  0  0  0  0  0  0  0
  139.0070   78.0960  220.8280 C   0  0  0  0  0  0  0  0  0  0  0  0
  138.6346   82.4135  222.4670 H   0  0  0  0  0  0  0  0  0  0  0  0
  138.8996   81.3114  221.0735 H   0  0  0  0  0  0  0  0  0  0  0  0
  137.5014   82.4391  221.0735 H   0  0  0  0  0  0  0  0  0  0  0  0
  136.4242   81.2030  222.8875 H   0  0  0  0  0  0  0  0  0  0  0  0
  136.8797   80.0189  221.6462 H   0  0  0  0  0  0  0  0  0  0  0  0
  141.4578   78.0419  222.4377 H   0  0  0  0  0  0  0  0  0  0  0  0
  143.8170   78.7642  222.7547 H   0  0  0  0  0  0  0  0  0  0  0  0
  144.2095   81.0456  223.7268 H   0  0  0  0  0  0  0  0  0  0  0  0
  142.3027   82.4925  224.3374 H   0  0  0  0  0  0  0  0  0  0  0  0
  139.9673   81.7399  224.0062 H   0  0  0  0  0  0  0  0  0  0  0  0
  139.9220   77.3582  222.5663 H   0  0  0  0  0  0  0  0  0  0  0  0
  137.6656   77.7197  223.9202 H   0  0  0  0  0  0  0  0  0  0  0  0
  136.9194   77.9182  222.3200 H   0  0  0  0  0  0  0  0  0  0  0  0
  138.3863   75.4732  223.4690 H   0  0  0  0  0  0  0  0  0  0  0  0
  136.8143   75.4990  222.6793 H   0  0  0  0  0  0  0  0  0  0  0  0
  139.2087   73.8311  222.9840 H   0  0  0  0  0  0  0  0  0  0  0  0
  141.2280   72.3300  221.9990 H   0  0  0  0  0  0  0  0  0  0  0  0
  141.5520   73.7730  221.2310 H   0  0  0  0  0  0  0  0  0  0  0  0
  138.2183   72.4901  220.7346 H   0  0  0  0  0  0  0  0  0  0  0  0
  139.8183   71.7494  220.7865 H   0  0  0  0  0  0  0  0  0  0  0  0
  136.6834   70.9274  221.7829 H   0  0  0  0  0  0  0  0  0  0  0  0
  136.1124   69.6173  223.8428 H   0  0  0  0  0  0  0  0  0  0  0  0
  137.7273   69.4498  225.7033 H   0  0  0  0  0  0  0  0  0  0  0  0
  142.2228   70.9595  225.9525 H   0  0  0  0  0  0  0  0  0  0  0  0
  141.2751   72.2612  225.1979 H   0  0  0  0  0  0  0  0  0  0  0  0
  141.9715   72.7401  227.5963 H   0  0  0  0  0  0  0  0  0  0  0  0
  140.1836   72.7754  227.3283 H   0  0  0  0  0  0  0  0  0  0  0  0
  142.0462   69.7139  227.5728 H   0  0  0  0  0  0  0  0  0  0  0  0
  140.7476   69.2587  228.7857 H   0  0  0  0  0  0  0  0  0  0  0  0
  140.3767   68.5384  226.3602 H   0  0  0  0  0  0  0  0  0  0  0  0
  139.0431   69.3763  227.1707 H   0  0  0  0  0  0  0  0  0  0  0  0
  140.4934   71.8666  223.5391 H   0  0  0  0  0  0  0  0  0  0  0  0
  138.5842   76.5179  219.4028 H   0  0  0  0  0  0  0  0  0  0  0  0
  137.1613   77.0595  220.3467 H   0  0  0  0  0  0  0  0  0  0  0  0
  140.0191   78.0974  220.3971 H   0  0  0  0  0  0  0  0  0  0  0  0
  138.5180   79.0194  220.4843 H   0  0  0  0  0  0  0  0  0  0  0  0
  1  2  1  0
  2  3  1  0
  3  4  2  0
  3  5  1  0
  5  6  1  0
  6  7  2  0
  7  8  1  0
  8  9  2  0
  9 10  1  0
 10 11  2  0
  5 12  1  0
 12 13  1  0
 13 14  1  0
 14 15  1  0
 15 16  1  0
 16 17  2  0
 16 18  1  0
 18 19  1  0
 18 20  1  0
 20 21  1  0
 21 22  2  0
 22 23  1  0
 23 24  2  0
 24 25  1  0
 25 26  1  0
 26 27  1  0
 27 28  1  0
 28 29  1  0
 29 30  1  0
 30 31  1  0
 25 32  2  0
 15 33  1  0
 33 34  1  0
 11  6  1  0
 34 12  1  0
 32 21  1  0
 31 26  1  0
  1 35  1  0
  1 36  1  0
  1 37  1  0
  2 38  1  0
  2 39  1  0
  7 40  1  0
  8 41  1  0
  9 42  1  0
 10 43  1  0
 11 44  1  0
 12 45  1  0
 13 46  1  0
 13 47  1  0
 14 48  1  0
 14 49  1  0
 18 50  1  1
 19 51  1  0
 19 52  1  0
 20 53  1  0
 20 54  1  0
 22 55  1  0
 23 56  1  0
 24 57  1  0
 27 58  1  0
 27 59  1  0
 28 60  1  0
 28 61  1  0
 30 62  1  0
 30 63  1  0
 31 64  1  0
 31 65  1  0
 32 66  1  0
 33 67  1  0
 33 68  1  0
 34 69  1  0
 34 70  1  0
M  END
>  <smiles>  (18) 
CCC(=O)N(c1ccccc1)C1CCN(C(=O)[C@H](N)Cc2cccc(N3CCOCC3)c2)CC1

>  <score_type>  (18) 
oracle

>  <origin>  (18) 
autodockgpu

>  <m_score__min__energy>  (18) 
-8.8800000000000008

>  <m_primary>  (18) 
energy

>  <rmsd>  (18) 
5.3922189281791315

>  <m_score__min__rmsd>  (18) 
5.3922189281791315

>  <meeko>  (18) 
{"free_energy": -7.35, "intermolecular_energy": -10.03, "internal_energy": -2.41, "cluster_size": 3, "cluster_id": 5, "rank_in_cluster": 3}

>  <energy>  (18) 
-7.62

>  <cluster_rmsd>  (18) 
0.87

>  <cluster>  (18) 
1

$$$$

     RDKit          3D

 70 73  0  0  0  0  0  0  0  0999 V2000
  137.7540   80.9500  224.5820 C   0  0  0  0  0  0  0  0  0  0  0  0
  137.1070   81.0610  223.2040 C   0  0  0  0  0  0  0  0  0  0  0  0
  138.2150   80.9570  222.2030 C   0  0  0  0  0  0  0  0  0  0  0  0
  138.2040   81.8210  221.2800 O   0  0  0  0  0  0  0  0  0  0  0  0
  139.2080   79.9400  222.3030 N   0  0  0  0  0  0  0  0  0  0  0  0
  140.4840   80.2990  222.8290 C   0  0  0  0  0  0  0  0  0  0  0  0
  141.3000   79.2530  223.2160 C   0  0  0  0  0  0  0  0  0  0  0  0
  142.5630   79.4350  223.7460 C   0  0  0  0  0  0  0  0  0  0  0  0
  142.9890   80.7490  223.8770 C   0  0  0  0  0  0  0  0  0  0  0  0
  142.1730   81.8060  223.4900 C   0  0  0  0  0  0  0  0  0  0  0  0
  140.9210   81.5950  222.9640 C   0  0  0  0  0  0  0  0  0  0  0  0
  138.8700   78.6070  221.8660 C   0  0  0  0  0  0  0  0  0  0  0  0
  138.1170   77.9480  222.9810 C   0  0  0  0  0  0  0  0  0  0  0  0
  138.2660   76.4330  222.7810 C   0  0  0  0  0  0  0  0  0  0  0  0
  138.1970   76.2520  221.3350 N   0  0  0  0  0  0  0  0  0  0  0  0
  138.9000   75.2430  220.6380 C   0  0  0  0  0  0  0  0  0  0  0  0
  138.7510   75.1870  219.3780 O   0  0  0  0  0  0  0  0  0  0  0  0
  139.7890   74.2600  221.2560 C   0  0  2  0  0  0  0  0  0  0  0  0
  139.1060   73.5570  222.3440 N   0  0  0  0  0  0  0  0  0  0  0  0
  140.9240   75.0220  221.9550 C   0  0  0  0  0  0  0  0  0  0  0  0
  141.7490   75.5820  220.8470 C   0  0  0  0  0  0  0  0  0  0  0  0
  142.7740   74.8660  220.2540 C   0  0  0  0  0  0  0  0  0  0  0  0
  143.4850   75.4880  219.2350 C   0  0  0  0  0  0  0  0  0  0  0  0
  143.1630   76.7850  218.8370 C   0  0  0  0  0  0  0  0  0  0  0  0
  142.1540   77.5000  219.4160 C   0  0  0  0  0  0  0  0  0  0  0  0
  141.8040   78.8050  219.0480 N   0  0  0  0  0  0  0  0  0  0  0  0
  141.2860   79.1960  217.7540 C   0  0  0  0  0  0  0  0  0  0  0  0
  139.9170   79.8160  217.9910 C   0  0  0  0  0  0  0  0  0  0  0  0
  139.9790   80.7940  218.9500 O   0  0  0  0  0  0  0  0  0  0  0  0
  141.2300   81.0830  219.4360 C   0  0  0  0  0  0  0  0  0  0  0  0
  141.9620   79.8980  220.0200 C   0  0  0  0  0  0  0  0  0  0  0  0
  141.4500   76.8610  220.4380 C   0  0  0  0  0  0  0  0  0  0  0  0
  137.3340   77.2160  220.6340 C   0  0  0  0  0  0  0  0  0  0  0  0
  138.0310   78.5830  220.6160 C   0  0  0  0  0  0  0  0  0  0  0  0
  136.9866   81.0816  225.3590 H   0  0  0  0  0  0  0  0  0  0  0  0
  138.2190   79.9590  224.6900 H   0  0  0  0  0  0  0  0  0  0  0  0
  138.5227   81.7294  224.6900 H   0  0  0  0  0  0  0  0  0  0  0  0
  136.3844   80.2447  223.0569 H   0  0  0  0  0  0  0  0  0  0  0  0
  136.5623   82.0106  223.0963 H   0  0  0  0  0  0  0  0  0  0  0  0
  140.9259   78.2255  223.0963 H   0  0  0  0  0  0  0  0  0  0  0  0
  143.1949   78.5864  224.0470 H   0  0  0  0  0  0  0  0  0  0  0  0
  143.9859   80.9572  224.2927 H   0  0  0  0  0  0  0  0  0  0  0  0
  142.5386   82.8368  223.6077 H   0  0  0  0  0  0  0  0  0  0  0  0
  140.2862   82.4401  222.6594 H   0  0  0  0  0  0  0  0  0  0  0  0
  139.8029   78.0782  221.6209 H   0  0  0  0  0  0  0  0  0  0  0  0
  138.5404   78.2454  223.9517 H   0  0  0  0  0  0  0  0  0  0  0  0
  137.0580   78.2454  222.9724 H   0  0  0  0  0  0  0  0  0  0  0  0
  139.2322   76.0814  223.1721 H   0  0  0  0  0  0  0  0  0  0  0  0
  137.4923   75.8606  223.3137 H   0  0  0  0  0  0  0  0  0  0  0  0
  140.1272   73.5652  220.4732 H   0  0  0  0  0  0  0  0  0  0  0  0
  139.7780   73.4680  223.1240 H   0  0  0  0  0  0  0  0  0  0  0  0
  138.3060   74.1360  222.7140 H   0  0  0  0  0  0  0  0  0  0  0  0
  140.5190   75.8297  222.5823 H   0  0  0  0  0  0  0  0  0  0  0  0
  141.5108   74.3719  222.6206 H   0  0  0  0  0  0  0  0  0  0  0  0
  143.0168   73.8429  220.5771 H   0  0  0  0  0  0  0  0  0  0  0  0
  144.3081   74.9532  218.7385 H   0  0  0  0  0  0  0  0  0  0  0  0
  143.7435   77.2496  218.0263 H   0  0  0  0  0  0  0  0  0  0  0  0
  141.9571   79.9305  217.2848 H   0  0  0  0  0  0  0  0  0  0  0  0
  141.2126   78.3280  217.0823 H   0  0  0  0  0  0  0  0  0  0  0  0
  139.5543   80.2569  217.0507 H   0  0  0  0  0  0  0  0  0  0  0  0
  139.2314   79.0287  218.3377 H   0  0  0  0  0  0  0  0  0  0  0  0
  141.8344   81.4881  218.6110 H   0  0  0  0  0  0  0  0  0  0  0  0
  141.0893   81.8008  220.2575 H   0  0  0  0  0  0  0  0  0  0  0  0
  143.0270   80.1364  220.1574 H   0  0  0  0  0  0  0  0  0  0  0  0
  141.5600   79.6218  221.0060 H   0  0  0  0  0  0  0  0  0  0  0  0
  140.6280   77.3985  220.9333 H   0  0  0  0  0  0  0  0  0  0  0  0
  137.1615   76.8755  219.6023 H   0  0  0  0  0  0  0  0  0  0  0  0
  136.3669   77.2968  221.1518 H   0  0  0  0  0  0  0  0  0  0  0  0
  138.6649   78.6824  219.7225 H   0  0  0  0  0  0  0  0  0  0  0  0
  137.3113   79.4142  220.5845 H   0  0  0  0  0  0  0  0  0  0  0  0
  1  2  1  0
  2  3  1  0
  3  4  2  0
  3  5  1  0
  5  6  1  0
  6  7  2  0
  7  8  1  0
  8  9  2  0
  9 10  1  0
 10 11  2  0
  5 12  1  0
 12 13  1  0
 13 14  1  0
 14 15  1  0
 15 16  1  0
 16 17  2  0
 16 18  1  0
 18 19  1  0
 18 20  1  0
 20 21  1  0
 21 22  2  0
 22 23  1  0
 23 24  2  0
 24 25  1  0
 25 26  1  0
 26 27  1  0
 27 28  1  0
 28 29  1  0
 29 30  1  0
 30 31  1  0
 25 32  2  0
 15 33  1  0
 33 34  1  0
 11  6  1  0
 34 12  1  0
 32 21  1  0
 31 26  1  0
  1 35  1  0
  1 36  1  0
  1 37  1  0
  2 38  1  0
  2 39  1  0
  7 40  1  0
  8 41  1  0
  9 42  1  0
 10 43  1  0
 11 44  1  0
 12 45  1  0
 13 46  1  0
 13 47  1  0
 14 48  1  0
 14 49  1  0
 18 50  1  6
 19 51  1  0
 19 52  1  0
 20 53  1  0
 20 54  1  0
 22 55  1  0
 23 56  1  0
 24 57  1  0
 27 58  1  0
 27 59  1  0
 28 60  1  0
 28 61  1  0
 30 62  1  0
 30 63  1  0
 31 64  1  0
 31 65  1  0
 32 66  1  0
 33 67  1  0
 33 68  1  0
 34 69  1  0
 34 70  1  0
M  END
>  <smiles>  (19) 
CCC(=O)N(c1ccccc1)C1CCN(C(=O)[C@H](N)Cc2cccc(N3CCOCC3)c2)CC1

>  <score_type>  (19) 
oracle

>  <origin>  (19) 
autodockgpu

>  <m_score__min__energy>  (19) 
-8.8800000000000008

>  <m_primary>  (19) 
energy

>  <rmsd>  (19) 
4.384343591843284

>  <m_score__min__rmsd>  (19) 
4.384343591843284

>  <meeko>  (19) 
{"free_energy": -5.88, "intermolecular_energy": -8.56, "internal_energy": -3.88, "cluster_size": 2, "cluster_id": 13, "rank_in_cluster": 2}

>  <energy>  (19) 
-7.45

>  <cluster_rmsd>  (19) 
2.0

>  <cluster>  (19) 
1

$$$$

     RDKit          3D

 70 73  0  0  0  0  0  0  0  0999 V2000
  137.8240   67.7910  222.3770 C   0  0  0  0  0  0  0  0  0  0  0  0
  137.8270   69.1930  222.9830 C   0  0  0  0  0  0  0  0  0  0  0  0
  139.1640   69.7900  222.6710 C   0  0  0  0  0  0  0  0  0  0  0  0
  139.8370   69.1930  221.7840 O   0  0  0  0  0  0  0  0  0  0  0  0
  139.6290   70.9560  223.3470 N   0  0  0  0  0  0  0  0  0  0  0  0
  140.1460   70.8030  224.6670 C   0  0  0  0  0  0  0  0  0  0  0  0
  140.3270   69.5040  225.1030 C   0  0  0  0  0  0  0  0  0  0  0  0
  140.8160   69.1880  226.3560 C   0  0  0  0  0  0  0  0  0  0  0  0
  141.1280   70.2590  227.1800 C   0  0  0  0  0  0  0  0  0  0  0  0
  140.9490   71.5690  226.7480 C   0  0  0  0  0  0  0  0  0  0  0  0
  140.4600   71.8530  225.4950 C   0  0  0  0  0  0  0  0  0  0  0  0
  139.5480   72.2230  222.6620 C   0  0  0  0  0  0  0  0  0  0  0  0
  140.2350   72.0620  221.3410 C   0  0  0  0  0  0  0  0  0  0  0  0
  140.6590   73.4660  220.8870 C   0  0  0  0  0  0  0  0  0  0  0  0
  139.5530   74.3260  221.2980 N   0  0  0  0  0  0  0  0  0  0  0  0
  139.7170   75.6700  221.7040 C   0  0  0  0  0  0  0  0  0  0  0  0
  138.6730   76.3140  222.0330 O   0  0  0  0  0  0  0  0  0  0  0  0
  140.9950   76.3750  221.7770 C   0  0  2  0  0  0  0  0  0  0  0  0
  141.0290   77.2680  222.9370 N   0  0  0  0  0  0  0  0  0  0  0  0
  141.0820   77.3230  220.5710 C   0  0  0  0  0  0  0  0  0  0  0  0
  141.9920   76.6380  219.6100 C   0  0  0  0  0  0  0  0  0  0  0  0
  142.0920   77.0260  218.2850 C   0  0  0  0  0  0  0  0  0  0  0  0
  142.9660   76.3130  217.4730 C   0  0  0  0  0  0  0  0  0  0  0  0
  143.7070   75.2510  217.9920 C   0  0  0  0  0  0  0  0  0  0  0  0
  143.6140   74.8610  219.2970 C   0  0  0  0  0  0  0  0  0  0  0  0
  144.3360   73.7970  219.8530 N   0  0  0  0  0  0  0  0  0  0  0  0
  143.9800   72.3980  219.7390 C   0  0  0  0  0  0  0  0  0  0  0  0
  145.1410   71.6980  219.0490 C   0  0  0  0  0  0  0  0  0  0  0  0
  146.3290   71.9810  219.6740 O   0  0  0  0  0  0  0  0  0  0  0  0
  146.2440   72.7440  220.8120 C   0  0  0  0  0  0  0  0  0  0  0  0
  145.5580   74.0760  220.6220 C   0  0  0  0  0  0  0  0  0  0  0  0
  142.7320   75.5870  220.0990 C   0  0  0  0  0  0  0  0  0  0  0  0
  138.2300   73.6830  221.2680 C   0  0  0  0  0  0  0  0  0  0  0  0
  138.1350   72.6900  222.4350 C   0  0  0  0  0  0  0  0  0  0  0  0
  137.8224   67.0430  223.1835 H   0  0  0  0  0  0  0  0  0  0  0  0
  136.9256   67.6621  221.7555 H   0  0  0  0  0  0  0  0  0  0  0  0
  138.7219   67.6583  221.7555 H   0  0  0  0  0  0  0  0  0  0  0  0
  137.0262   69.8011  222.5370 H   0  0  0  0  0  0  0  0  0  0  0  0
  137.6518   69.1568  224.0684 H   0  0  0  0  0  0  0  0  0  0  0  0
  140.0692   68.6818  224.4192 H   0  0  0  0  0  0  0  0  0  0  0  0
  140.9502   68.1459  226.6816 H   0  0  0  0  0  0  0  0  0  0  0  0
  141.5225   70.0699  228.1892 H   0  0  0  0  0  0  0  0  0  0  0  0
  141.2048   72.3974  227.4250 H   0  0  0  0  0  0  0  0  0  0  0  0
  140.3238   72.8932  225.1643 H   0  0  0  0  0  0  0  0  0  0  0  0
  140.0269   72.9865  223.2926 H   0  0  0  0  0  0  0  0  0  0  0  0
  141.1189   71.4164  221.4501 H   0  0  0  0  0  0  0  0  0  0  0  0
  139.5667   71.5938  220.6033 H   0  0  0  0  0  0  0  0  0  0  0  0
  141.5936   73.7699  221.3811 H   0  0  0  0  0  0  0  0  0  0  0  0
  140.8529   73.5179  219.8055 H   0  0  0  0  0  0  0  0  0  0  0  0
  141.7972   75.6235  221.8201 H   0  0  0  0  0  0  0  0  0  0  0  0
  140.1380   77.1480  223.4460 H   0  0  0  0  0  0  0  0  0  0  0  0
  141.7880   76.9740  223.6080 H   0  0  0  0  0  0  0  0  0  0  0  0
  140.0882   77.4724  220.1237 H   0  0  0  0  0  0  0  0  0  0  0  0
  141.4521   78.3196  220.8534 H   0  0  0  0  0  0  0  0  0  0  0  0
  141.5023   77.8664  217.8899 H   0  0  0  0  0  0  0  0  0  0  0  0
  143.0743   76.5880  216.4135 H   0  0  0  0  0  0  0  0  0  0  0  0
  144.3920   74.7074  217.3246 H   0  0  0  0  0  0  0  0  0  0  0  0
  143.8188   71.9667  220.7380 H   0  0  0  0  0  0  0  0  0  0  0  0
  143.0502   72.2753  219.1641 H   0  0  0  0  0  0  0  0  0  0  0  0
  144.9717   70.6114  219.0739 H   0  0  0  0  0  0  0  0  0  0  0  0
  145.1981   72.0561  218.0105 H   0  0  0  0  0  0  0  0  0  0  0  0
  145.6838   72.1734  221.5674 H   0  0  0  0  0  0  0  0  0  0  0  0
  147.2770   72.9646  221.1191 H   0  0  0  0  0  0  0  0  0  0  0  0
  145.3036   74.5173  221.5969 H   0  0  0  0  0  0  0  0  0  0  0  0
  146.2081   74.7928  220.0990 H   0  0  0  0  0  0  0  0  0  0  0  0
  142.6252   75.3091  221.1579 H   0  0  0  0  0  0  0  0  0  0  0  0
  137.4453   74.4473  221.3683 H   0  0  0  0  0  0  0  0  0  0  0  0
  138.0944   73.1522  220.3141 H   0  0  0  0  0  0  0  0  0  0  0  0
  137.7422   73.1864  223.3346 H   0  0  0  0  0  0  0  0  0  0  0  0
  137.4534   71.8554  222.2142 H   0  0  0  0  0  0  0  0  0  0  0  0
  1  2  1  0
  2  3  1  0
  3  4  2  0
  3  5  1  0
  5  6  1  0
  6  7  2  0
  7  8  1  0
  8  9  2  0
  9 10  1  0
 10 11  2  0
  5 12  1  0
 12 13  1  0
 13 14  1  0
 14 15  1  0
 15 16  1  0
 16 17  2  0
 16 18  1  0
 18 19  1  0
 18 20  1  0
 20 21  1  0
 21 22  2  0
 22 23  1  0
 23 24  2  0
 24 25  1  0
 25 26  1  0
 26 27  1  0
 27 28  1  0
 28 29  1  0
 29 30  1  0
 30 31  1  0
 25 32  2  0
 15 33  1  0
 33 34  1  0
 11  6  1  0
 34 12  1  0
 32 21  1  0
 31 26  1  0
  1 35  1  0
  1 36  1  0
  1 37  1  0
  2 38  1  0
  2 39  1  0
  7 40  1  0
  8 41  1  0
  9 42  1  0
 10 43  1  0
 11 44  1  0
 12 45  1  0
 13 46  1  0
 13 47  1  0
 14 48  1  0
 14 49  1  0
 18 50  1  1
 19 51  1  0
 19 52  1  0
 20 53  1  0
 20 54  1  0
 22 55  1  0
 23 56  1  0
 24 57  1  0
 27 58  1  0
 27 59  1  0
 28 60  1  0
 28 61  1  0
 30 62  1  0
 30 63  1  0
 31 64  1  0
 31 65  1  0
 32 66  1  0
 33 67  1  0
 33 68  1  0
 34 69  1  0
 34 70  1  0
M  END
>  <smiles>  (20) 
CCC(=O)N(c1ccccc1)C1CCN(C(=O)[C@H](N)Cc2cccc(N3CCOCC3)c2)CC1

>  <score_type>  (20) 
oracle

>  <origin>  (20) 
autodockgpu

>  <m_score__min__energy>  (20) 
-8.8800000000000008

>  <m_primary>  (20) 
energy

>  <rmsd>  (20) 
6.002011402146203

>  <m_score__min__rmsd>  (20) 
6.002011402146203

>  <meeko>  (20) 
{"free_energy": -6.92, "intermolecular_energy": -9.61, "internal_energy": -2.82, "cluster_size": 7, "cluster_id": 2, "rank_in_cluster": 7}

>  <energy>  (20) 
-7.33

>  <cluster_rmsd>  (20) 
0.86

>  <cluster>  (20) 
1

$$$$

     RDKit          3D

 70 73  0  0  0  0  0  0  0  0999 V2000
  136.3130   69.2890  224.7680 C   0  0  0  0  0  0  0  0  0  0  0  0
  137.3110   68.8720  223.6900 C   0  0  0  0  0  0  0  0  0  0  0  0
  138.6670   68.9220  224.3230 C   0  0  0  0  0  0  0  0  0  0  0  0
  139.1920   67.8020  224.5840 O   0  0  0  0  0  0  0  0  0  0  0  0
  139.3050   70.1650  224.6070 N   0  0  0  0  0  0  0  0  0  0  0  0
  139.8650   70.3480  225.9060 C   0  0  0  0  0  0  0  0  0  0  0  0
  140.6260   71.4870  226.0850 C   0  0  0  0  0  0  0  0  0  0  0  0
  141.2390   71.8070  227.2830 C   0  0  0  0  0  0  0  0  0  0  0  0
  141.0510   70.9110  228.3250 C   0  0  0  0  0  0  0  0  0  0  0  0
  140.2860   69.7620  228.1510 C   0  0  0  0  0  0  0  0  0  0  0  0
  139.6890   69.4700  226.9480 C   0  0  0  0  0  0  0  0  0  0  0  0
  139.3470   71.1660  223.5700 C   0  0  0  0  0  0  0  0  0  0  0  0
  139.9520   70.5290  222.3570 C   0  0  0  0  0  0  0  0  0  0  0  0
  140.5200   71.6660  221.4950 C   0  0  0  0  0  0  0  0  0  0  0  0
  139.5440   72.7430  221.6320 N   0  0  0  0  0  0  0  0  0  0  0  0
  139.8840   74.1150  221.6090 C   0  0  0  0  0  0  0  0  0  0  0  0
  138.9410   74.9560  221.7320 O   0  0  0  0  0  0  0  0  0  0  0  0
  141.2400   74.6410  221.4580 C   0  0  2  0  0  0  0  0  0  0  0  0
  141.2530   76.0950  221.6280 N   0  0  0  0  0  0  0  0  0  0  0  0
  141.6690   74.4300  219.9990 C   0  0  0  0  0  0  0  0  0  0  0  0
  143.0570   73.8910  220.0810 C   0  0  0  0  0  0  0  0  0  0  0  0
  144.1280   74.6700  220.4830 C   0  0  0  0  0  0  0  0  0  0  0  0
  145.3810   74.0690  220.5160 C   0  0  0  0  0  0  0  0  0  0  0  0
  145.5330   72.7310  220.1550 C   0  0  0  0  0  0  0  0  0  0  0  0
  144.4820   71.9550  219.7570 C   0  0  0  0  0  0  0  0  0  0  0  0
  144.5960   70.6100  219.3820 N   0  0  0  0  0  0  0  0  0  0  0  0
  145.6190   70.0710  218.5110 C   0  0  0  0  0  0  0  0  0  0  0  0
  146.3760   69.0200  219.3100 C   0  0  0  0  0  0  0  0  0  0  0  0
  145.5140   68.1180  219.8770 O   0  0  0  0  0  0  0  0  0  0  0  0
  144.1870   68.2710  219.5620 C   0  0  0  0  0  0  0  0  0  0  0  0
  143.6200   69.6330  219.8890 C   0  0  0  0  0  0  0  0  0  0  0  0
  143.2320   72.5730  219.7290 C   0  0  0  0  0  0  0  0  0  0  0  0
  138.1530   72.2950  221.8050 C   0  0  0  0  0  0  0  0  0  0  0  0
  137.9910   71.7190  223.2190 C   0  0  0  0  0  0  0  0  0  0  0  0
  136.7489   69.1069  225.7614 H   0  0  0  0  0  0  0  0  0  0  0  0
  136.0819   70.3590  224.6596 H   0  0  0  0  0  0  0  0  0  0  0  0
  135.3894   68.7015  224.6596 H   0  0  0  0  0  0  0  0  0  0  0  0
  137.0911   67.8516  223.3430 H   0  0  0  0  0  0  0  0  0  0  0  0
  137.2550   69.5389  222.8170 H   0  0  0  0  0  0  0  0  0  0  0  0
  140.7505   72.1725  225.2338 H   0  0  0  0  0  0  0  0  0  0  0  0
  141.8411   72.7198  227.4025 H   0  0  0  0  0  0  0  0  0  0  0  0
  141.5133   71.1117  229.3028 H   0  0  0  0  0  0  0  0  0  0  0  0
  140.1559   69.0706  228.9966 H   0  0  0  0  0  0  0  0  0  0  0  0
  139.0866   68.5581  226.8228 H   0  0  0  0  0  0  0  0  0  0  0  0
  139.9411   72.0163  223.9360 H   0  0  0  0  0  0  0  0  0  0  0  0
  140.7567   69.8398  222.6528 H   0  0  0  0  0  0  0  0  0  0  0  0
  139.2015   69.9488  221.8001 H   0  0  0  0  0  0  0  0  0  0  0  0
  141.5052   71.9829  221.8676 H   0  0  0  0  0  0  0  0  0  0  0  0
  140.6704   71.3652  220.4477 H   0  0  0  0  0  0  0  0  0  0  0  0
  141.8848   74.1405  222.1954 H   0  0  0  0  0  0  0  0  0  0  0  0
  140.4950   76.3370  222.2870 H   0  0  0  0  0  0  0  0  0  0  0  0
  142.1490   76.4050  222.0900 H   0  0  0  0  0  0  0  0  0  0  0  0
  141.0033   73.7103  219.5001 H   0  0  0  0  0  0  0  0  0  0  0  0
  141.6201   75.3605  219.4144 H   0  0  0  0  0  0  0  0  0  0  0  0
  143.9929   75.7245  220.7656 H   0  0  0  0  0  0  0  0  0  0  0  0
  146.2588   74.6532  220.8292 H   0  0  0  0  0  0  0  0  0  0  0  0
  146.5372   72.2835  220.1921 H   0  0  0  0  0  0  0  0  0  0  0  0
  145.1568   69.6114  217.6249 H   0  0  0  0  0  0  0  0  0  0  0  0
  146.2975   70.8646  218.1648 H   0  0  0  0  0  0  0  0  0  0  0  0
  147.0653   68.4860  218.6394 H   0  0  0  0  0  0  0  0  0  0  0  0
  146.9328   69.5247  220.1132 H   0  0  0  0  0  0  0  0  0  0  0  0
  144.0679   68.0992  218.4820 H   0  0  0  0  0  0  0  0  0  0  0  0
  143.6333   67.5452  220.1758 H   0  0  0  0  0  0  0  0  0  0  0  0
  142.6477   69.7714  219.3935 H   0  0  0  0  0  0  0  0  0  0  0  0
  143.4546   69.7520  220.9700 H   0  0  0  0  0  0  0  0  0  0  0  0
  142.3562   71.9863  219.4147 H   0  0  0  0  0  0  0  0  0  0  0  0
  137.4708   73.1477  221.6727 H   0  0  0  0  0  0  0  0  0  0  0  0
  137.9128   71.5244  221.0577 H   0  0  0  0  0  0  0  0  0  0  0  0
  137.6998   72.5085  223.9274 H   0  0  0  0  0  0  0  0  0  0  0  0
  137.2057   70.9502  223.2654 H   0  0  0  0  0  0  0  0  0  0  0  0
  1  2  1  0
  2  3  1  0
  3  4  2  0
  3  5  1  0
  5  6  1  0
  6  7  2  0
  7  8  1  0
  8  9  2  0
  9 10  1  0
 10 11  2  0
  5 12  1  0
 12 13  1  0
 13 14  1  0
 14 15  1  0
 15 16  1  0
 16 17  2  0
 16 18  1  0
 18 19  1  0
 18 20  1  0
 20 21  1  0
 21 22  2  0
 22 23  1  0
 23 24  2  0
 24 25  1  0
 25 26  1  0
 26 27  1  0
 27 28  1  0
 28 29  1  0
 29 30  1  0
 30 31  1  0
 25 32  2  0
 15 33  1  0
 33 34  1  0
 11  6  1  0
 34 12  1  0
 32 21  1  0
 31 26  1  0
  1 35  1  0
  1 36  1  0
  1 37  1  0
  2 38  1  0
  2 39  1  0
  7 40  1  0
  8 41  1  0
  9 42  1  0
 10 43  1  0
 11 44  1  0
 12 45  1  0
 13 46  1  0
 13 47  1  0
 14 48  1  0
 14 49  1  0
 18 50  1  1
 19 51  1  0
 19 52  1  0
 20 53  1  0
 20 54  1  0
 22 55  1  0
 23 56  1  0
 24 57  1  0
 27 58  1  0
 27 59  1  0
 28 60  1  0
 28 61  1  0
 30 62  1  0
 30 63  1  0
 31 64  1  0
 31 65  1  0
 32 66  1  0
 33 67  1  0
 33 68  1  0
 34 69  1  0
 34 70  1  0
M  END
>  <smiles>  (21) 
CCC(=O)N(c1ccccc1)C1CCN(C(=O)[C@H](N)Cc2cccc(N3CCOCC3)c2)CC1

>  <score_type>  (21) 
oracle

>  <origin>  (21) 
autodockgpu

>  <m_score__min__energy>  (21) 
-8.8800000000000008

>  <m_primary>  (21) 
energy

>  <rmsd>  (21) 
7.092659903099098

>  <m_score__min__rmsd>  (21) 
7.092659903099098

>  <meeko>  (21) 
{"free_energy": -8.88, "intermolecular_energy": -11.57, "internal_energy": -2.59, "cluster_size": 20, "cluster_id": 1, "rank_in_cluster": 1}

>  <energy>  (21) 
-8.46

>  <cluster_rmsd>  (21) 
0.0

>  <cluster>  (21) 
2

$$$$

     RDKit          3D

 70 73  0  0  0  0  0  0  0  0999 V2000
  138.1200   67.7710  222.3520 C   0  0  0  0  0  0  0  0  0  0  0  0
  138.8800   68.0050  223.6560 C   0  0  0  0  0  0  0  0  0  0  0  0
  138.1730   69.1150  224.3680 C   0  0  0  0  0  0  0  0  0  0  0  0
  136.9890   68.8670  224.7330 O   0  0  0  0  0  0  0  0  0  0  0  0
  138.8130   70.3660  224.6070 N   0  0  0  0  0  0  0  0  0  0  0  0
  139.6230   70.4910  225.7740 C   0  0  0  0  0  0  0  0  0  0  0  0
  139.4800   69.4980  226.7230 C   0  0  0  0  0  0  0  0  0  0  0  0
  140.1900   69.4760  227.9090 C   0  0  0  0  0  0  0  0  0  0  0  0
  141.0780   70.5230  228.1100 C   0  0  0  0  0  0  0  0  0  0  0  0
  141.2280   71.5260  227.1580 C   0  0  0  0  0  0  0  0  0  0  0  0
  140.5080   71.5210  225.9880 C   0  0  0  0  0  0  0  0  0  0  0  0
  138.6060   71.4340  223.6600 C   0  0  0  0  0  0  0  0  0  0  0  0
  139.2300   71.0110  222.3650 C   0  0  0  0  0  0  0  0  0  0  0  0
  139.5270   72.2940  221.5760 C   0  0  0  0  0  0  0  0  0  0  0  0
  138.3870   73.1620  221.8570 N   0  0  0  0  0  0  0  0  0  0  0  0
  138.4770   74.5710  221.9350 C   0  0  0  0  0  0  0  0  0  0  0  0
  137.4100   75.2130  222.1810 O   0  0  0  0  0  0  0  0  0  0  0  0
  139.7040   75.3450  221.7580 C   0  0  2  0  0  0  0  0  0  0  0  0
  139.7570   76.4570  222.7080 N   0  0  0  0  0  0  0  0  0  0  0  0
  139.6380   76.0280  220.3830 C   0  0  0  0  0  0  0  0  0  0  0  0
  141.0600   76.1910  219.9660 C   0  0  0  0  0  0  0  0  0  0  0  0
  141.5240   77.3460  219.3610 C   0  0  0  0  0  0  0  0  0  0  0  0
  142.8670   77.3880  219.0060 C   0  0  0  0  0  0  0  0  0  0  0  0
  143.7000   76.2990  219.2580 C   0  0  0  0  0  0  0  0  0  0  0  0
  143.2510   75.1550  219.8540 C   0  0  0  0  0  0  0  0  0  0  0  0
  144.0550   74.0390  220.1180 N   0  0  0  0  0  0  0  0  0  0  0  0
  143.7370   72.6760  219.7480 C   0  0  0  0  0  0  0  0  0  0  0  0
  144.8540   72.1890  218.8380 C   0  0  0  0  0  0  0  0  0  0  0  0
  146.0830   72.4010  219.4090 O   0  0  0  0  0  0  0  0  0  0  0  0
  146.0750   72.9120  220.6830 C   0  0  0  0  0  0  0  0  0  0  0  0
  145.3310   74.2190  220.8280 C   0  0  0  0  0  0  0  0  0  0  0  0
  141.9000   75.1280  220.2040 C   0  0  0  0  0  0  0  0  0  0  0  0
  137.1130   72.4560  222.0660 C   0  0  0  0  0  0  0  0  0  0  0  0
  137.1530   71.7560  223.4310 C   0  0  0  0  0  0  0  0  0  0  0  0
  137.0913   67.4543  222.5789 H   0  0  0  0  0  0  0  0  0  0  0  0
  138.0964   68.7035  221.7690 H   0  0  0  0  0  0  0  0  0  0  0  0
  138.6249   66.9867  221.7690 H   0  0  0  0  0  0  0  0  0  0  0  0
  138.8700   67.0926  224.2704 H   0  0  0  0  0  0  0  0  0  0  0  0
  139.9314   68.2636  223.4621 H   0  0  0  0  0  0  0  0  0  0  0  0
  138.7662   68.6847  226.5256 H   0  0  0  0  0  0  0  0  0  0  0  0
  140.0585   68.6744  228.6508 H   0  0  0  0  0  0  0  0  0  0  0  0
  141.6717   70.5604  229.0352 H   0  0  0  0  0  0  0  0  0  0  0  0
  141.9402   72.3428  227.3465 H   0  0  0  0  0  0  0  0  0  0  0  0
  140.6362   72.3196  225.2425 H   0  0  0  0  0  0  0  0  0  0  0  0
  139.0636   72.3480  224.0665 H   0  0  0  0  0  0  0  0  0  0  0  0
  140.1624   70.4596  222.5562 H   0  0  0  0  0  0  0  0  0  0  0  0
  138.5579   70.3474  221.8011 H   0  0  0  0  0  0  0  0  0  0  0  0
  140.4633   72.7562  221.9218 H   0  0  0  0  0  0  0  0  0  0  0  0
  139.6566   72.1054  220.5001 H   0  0  0  0  0  0  0  0  0  0  0  0
  140.5585   74.6638  221.8837 H   0  0  0  0  0  0  0  0  0  0  0  0
  138.8820   76.4370  223.2560 H   0  0  0  0  0  0  0  0  0  0  0  0
  140.5390   76.3130  223.4020 H   0  0  0  0  0  0  0  0  0  0  0  0
  139.0938   75.3982  219.6639 H   0  0  0  0  0  0  0  0  0  0  0  0
  139.1060   76.9899  220.4240 H   0  0  0  0  0  0  0  0  0  0  0  0
  140.8555   78.1981  219.1685 H   0  0  0  0  0  0  0  0  0  0  0  0
  143.2758   78.2875  218.5225 H   0  0  0  0  0  0  0  0  0  0  0  0
  144.7585   76.3634  218.9659 H   0  0  0  0  0  0  0  0  0  0  0  0
  143.6797   72.0444  220.6467 H   0  0  0  0  0  0  0  0  0  0  0  0
  142.7644   72.6253  219.2366 H   0  0  0  0  0  0  0  0  0  0  0  0
  144.7241   71.1123  218.6541 H   0  0  0  0  0  0  0  0  0  0  0  0
  144.8056   72.7508  217.8935 H   0  0  0  0  0  0  0  0  0  0  0  0
  145.6036   72.1726  221.3470 H   0  0  0  0  0  0  0  0  0  0  0  0
  147.1234   73.1176  220.9447 H   0  0  0  0  0  0  0  0  0  0  0  0
  145.1497   74.4400  221.8902 H   0  0  0  0  0  0  0  0  0  0  0  0
  145.9077   75.0594  220.4144 H   0  0  0  0  0  0  0  0  0  0  0  0
  141.4935   74.2267  220.6861 H   0  0  0  0  0  0  0  0  0  0  0  0
  136.2829   73.1774  222.0448 H   0  0  0  0  0  0  0  0  0  0  0  0
  136.9629   71.7126  221.2693 H   0  0  0  0  0  0  0  0  0  0  0  0
  136.7759   72.4239  224.2195 H   0  0  0  0  0  0  0  0  0  0  0  0
  136.5213   70.8557  223.4529 H   0  0  0  0  0  0  0  0  0  0  0  0
  1  2  1  0
  2  3  1  0
  3  4  2  0
  3  5  1  0
  5  6  1  0
  6  7  2  0
  7  8  1  0
  8  9  2  0
  9 10  1  0
 10 11  2  0
  5 12  1  0
 12 13  1  0
 13 14  1  0
 14 15  1  0
 15 16  1  0
 16 17  2  0
 16 18  1  0
 18 19  1  0
 18 20  1  0
 20 21  1  0
 21 22  2  0
 22 23  1  0
 23 24  2  0
 24 25  1  0
 25 26  1  0
 26 27  1  0
 27 28  1  0
 28 29  1  0
 29 30  1  0
 30 31  1  0
 25 32  2  0
 15 33  1  0
 33 34  1  0
 11  6  1  0
 34 12  1  0
 32 21  1  0
 31 26  1  0
  1 35  1  0
  1 36  1  0
  1 37  1  0
  2 38  1  0
  2 39  1  0
  7 40  1  0
  8 41  1  0
  9 42  1  0
 10 43  1  0
 11 44  1  0
 12 45  1  0
 13 46  1  0
 13 47  1  0
 14 48  1  0
 14 49  1  0
 18 50  1  6
 19 51  1  0
 19 52  1  0
 20 53  1  0
 20 54  1  0
 22 55  1  0
 23 56  1  0
 24 57  1  0
 27 58  1  0
 27 59  1  0
 28 60  1  0
 28 61  1  0
 30 62  1  0
 30 63  1  0
 31 64  1  0
 31 65  1  0
 32 66  1  0
 33 67  1  0
 33 68  1  0
 34 69  1  0
 34 70  1  0
M  END
>  <smiles>  (22) 
CCC(=O)N(c1ccccc1)C1CCN(C(=O)[C@H](N)Cc2cccc(N3CCOCC3)c2)CC1

>  <score_type>  (22) 
oracle

>  <origin>  (22) 
autodockgpu

>  <m_score__min__energy>  (22) 
-8.8800000000000008

>  <m_primary>  (22) 
energy

>  <rmsd>  (22) 
6.857814147864773

>  <m_score__min__rmsd>  (22) 
6.857814147864773

>  <meeko>  (22) 
{"free_energy": -7.42, "intermolecular_energy": -10.1, "internal_energy": -2.62, "cluster_size": 7, "cluster_id": 2, "rank_in_cluster": 5}

>  <energy>  (22) 
-8.22

>  <cluster_rmsd>  (22) 
1.67

>  <cluster>  (22) 
2

$$$$

     RDKit          3D

 70 73  0  0  0  0  0  0  0  0999 V2000
  135.2400   69.9530  225.0160 C   0  0  0  0  0  0  0  0  0  0  0  0
  136.1880   70.8550  224.2280 C   0  0  0  0  0  0  0  0  0  0  0  0
  137.4530   70.0790  224.0360 C   0  0  0  0  0  0  0  0  0  0  0  0
  137.3090   68.8470  223.7930 O   0  0  0  0  0  0  0  0  0  0  0  0
  138.7280   70.7100  224.1280 N   0  0  0  0  0  0  0  0  0  0  0  0
  139.4790   70.5280  225.3270 C   0  0  0  0  0  0  0  0  0  0  0  0
  140.3430   71.5520  225.6650 C   0  0  0  0  0  0  0  0  0  0  0  0
  141.1410   71.5270  226.7930 C   0  0  0  0  0  0  0  0  0  0  0  0
  141.0340   70.4000  227.5940 C   0  0  0  0  0  0  0  0  0  0  0  0
  140.1660   69.3660  227.2610 C   0  0  0  0  0  0  0  0  0  0  0  0
  139.3830   69.4190  226.1320 C   0  0  0  0  0  0  0  0  0  0  0  0
  139.1870   71.4950  223.0090 C   0  0  0  0  0  0  0  0  0  0  0  0
  140.3170   70.7480  222.3710 C   0  0  0  0  0  0  0  0  0  0  0  0
  141.1530   71.7810  221.6020 C   0  0  0  0  0  0  0  0  0  0  0  0
  140.1660   72.6970  221.0400 N   0  0  0  0  0  0  0  0  0  0  0  0
  140.4010   74.0770  220.8440 C   0  0  0  0  0  0  0  0  0  0  0  0
  139.4620   74.7660  220.3400 O   0  0  0  0  0  0  0  0  0  0  0  0
  141.6420   74.7730  221.1800 C   0  0  2  0  0  0  0  0  0  0  0  0
  141.3610   76.1130  221.6960 N   0  0  0  0  0  0  0  0  0  0  0  0
  142.4100   75.0270  219.8740 C   0  0  0  0  0  0  0  0  0  0  0  0
  143.6940   74.2860  220.0320 C   0  0  0  0  0  0  0  0  0  0  0  0
  144.8480   74.8990  220.4870 C   0  0  0  0  0  0  0  0  0  0  0  0
  145.9920   74.1150  220.5900 C   0  0  0  0  0  0  0  0  0  0  0  0
  145.9570   72.7650  220.2450 C   0  0  0  0  0  0  0  0  0  0  0  0
  144.8230   72.1520  219.7950 C   0  0  0  0  0  0  0  0  0  0  0  0
  144.7510   70.8000  219.4330 N   0  0  0  0  0  0  0  0  0  0  0  0
  145.6350   70.1400  218.4960 C   0  0  0  0  0  0  0  0  0  0  0  0
  146.3230   69.0130  219.2510 C   0  0  0  0  0  0  0  0  0  0  0  0
  145.4080   68.2210  219.8950 O   0  0  0  0  0  0  0  0  0  0  0  0
  144.0870   68.5270  219.6780 C   0  0  0  0  0  0  0  0  0  0  0  0
  143.7090   69.9480  220.0260 C   0  0  0  0  0  0  0  0  0  0  0  0
  143.6840   72.9520  219.6970 C   0  0  0  0  0  0  0  0  0  0  0  0
  138.8790   72.0750  220.6890 C   0  0  0  0  0  0  0  0  0  0  0  0
  138.1170   71.7530  221.9820 C   0  0  0  0  0  0  0  0  0  0  0  0
  135.4000   70.1053  226.0936 H   0  0  0  0  0  0  0  0  0  0  0  0
  134.1995   70.2028  224.7609 H   0  0  0  0  0  0  0  0  0  0  0  0
  135.4377   68.9014  224.7609 H   0  0  0  0  0  0  0  0  0  0  0  0
  135.7471   71.1099  223.2530 H   0  0  0  0  0  0  0  0  0  0  0  0
  136.3771   71.7970  224.7635 H   0  0  0  0  0  0  0  0  0  0  0  0
  140.3983   72.4296  225.0042 H   0  0  0  0  0  0  0  0  0  0  0  0
  141.8224   72.3541  227.0414 H   0  0  0  0  0  0  0  0  0  0  0  0
  141.6445   70.3230  228.5058 H   0  0  0  0  0  0  0  0  0  0  0  0
  140.1043   68.4847  227.9164 H   0  0  0  0  0  0  0  0  0  0  0  0
  138.6983   68.5957  225.8802 H   0  0  0  0  0  0  0  0  0  0  0  0
  139.4974   72.4811  223.3848 H   0  0  0  0  0  0  0  0  0  0  0  0
  140.9322   70.2611  223.1420 H   0  0  0  0  0  0  0  0  0  0  0  0
  139.9414   69.9637  221.6974 H   0  0  0  0  0  0  0  0  0  0  0  0
  141.8361   72.3127  222.2808 H   0  0  0  0  0  0  0  0  0  0  0  0
  141.7854   71.3190  220.8296 H   0  0  0  0  0  0  0  0  0  0  0  0
  142.1880   74.1623  221.9141 H   0  0  0  0  0  0  0  0  0  0  0  0
  142.1480   76.7230  221.4200 H   0  0  0  0  0  0  0  0  0  0  0  0
  140.5040   76.5160  221.2320 H   0  0  0  0  0  0  0  0  0  0  0  0
  141.8451   74.6424  219.0120 H   0  0  0  0  0  0  0  0  0  0  0  0
  142.5714   76.0996  219.6911 H   0  0  0  0  0  0  0  0  0  0  0  0
  144.8601   75.9653  220.7568 H   0  0  0  0  0  0  0  0  0  0  0  0
  146.9311   74.5634  220.9463 H   0  0  0  0  0  0  0  0  0  0  0  0
  146.8780   72.1709  220.3388 H   0  0  0  0  0  0  0  0  0  0  0  0
  145.0564   69.7324  217.6539 H   0  0  0  0  0  0  0  0  0  0  0  0
  146.3728   70.8467  218.0883 H   0  0  0  0  0  0  0  0  0  0  0  0
  146.8923   68.3980  218.5384 H   0  0  0  0  0  0  0  0  0  0  0  0
  146.9942   69.4542  220.0026 H   0  0  0  0  0  0  0  0  0  0  0  0
  143.8668   68.3637  218.6127 H   0  0  0  0  0  0  0  0  0  0  0  0
  143.5010   67.8751  220.3425 H   0  0  0  0  0  0  0  0  0  0  0  0
  142.7248   70.1966  219.6024 H   0  0  0  0  0  0  0  0  0  0  0  0
  143.6408   70.0924  221.1143 H   0  0  0  0  0  0  0  0  0  0  0  0
  142.7466   72.5007  219.3399 H   0  0  0  0  0  0  0  0  0  0  0  0
  138.2878   72.7699  220.0746 H   0  0  0  0  0  0  0  0  0  0  0  0
  139.0535   71.1513  220.1178 H   0  0  0  0  0  0  0  0  0  0  0  0
  137.4889   72.6044  222.2831 H   0  0  0  0  0  0  0  0  0  0  0  0
  137.4428   70.8922  221.8616 H   0  0  0  0  0  0  0  0  0  0  0  0
  1  2  1  0
  2  3  1  0
  3  4  2  0
  3  5  1  0
  5  6  1  0
  6  7  2  0
  7  8  1  0
  8  9  2  0
  9 10  1  0
 10 11  2  0
  5 12  1  0
 12 13  1  0
 13 14  1  0
 14 15  1  0
 15 16  1  0
 16 17  2  0
 16 18  1  0
 18 19  1  0
 18 20  1  0
 20 21  1  0
 21 22  2  0
 22 23  1  0
 23 24  2  0
 24 25  1  0
 25 26  1  0
 26 27  1  0
 27 28  1  0
 28 29  1  0
 29 30  1  0
 30 31  1  0
 25 32  2  0
 15 33  1  0
 33 34  1  0
 11  6  1  0
 34 12  1  0
 32 21  1  0
 31 26  1  0
  1 35  1  0
  1 36  1  0
  1 37  1  0
  2 38  1  0
  2 39  1  0
  7 40  1  0
  8 41  1  0
  9 42  1  0
 10 43  1  0
 11 44  1  0
 12 45  1  0
 13 46  1  0
 13 47  1  0
 14 48  1  0
 14 49  1  0
 18 50  1  1
 19 51  1  0
 19 52  1  0
 20 53  1  0
 20 54  1  0
 22 55  1  0
 23 56  1  0
 24 57  1  0
 27 58  1  0
 27 59  1  0
 28 60  1  0
 28 61  1  0
 30 62  1  0
 30 63  1  0
 31 64  1  0
 31 65  1  0
 32 66  1  0
 33 67  1  0
 33 68  1  0
 34 69  1  0
 34 70  1  0
M  END
>  <smiles>  (23) 
CCC(=O)N(c1ccccc1)C1CCN(C(=O)[C@H](N)Cc2cccc(N3CCOCC3)c2)CC1

>  <score_type>  (23) 
oracle

>  <origin>  (23) 
autodockgpu

>  <m_score__min__energy>  (23) 
-8.8800000000000008

>  <m_primary>  (23) 
energy

>  <rmsd>  (23) 
7.038094338473056

>  <m_score__min__rmsd>  (23) 
7.038094338473056

>  <meeko>  (23) 
{"free_energy": -7.62, "intermolecular_energy": -10.31, "internal_energy": -2.75, "cluster_size": 20, "cluster_id": 1, "rank_in_cluster": 18}

>  <energy>  (23) 
-7.58

>  <cluster_rmsd>  (23) 
0.72

>  <cluster>  (23) 
2

$$$$

     RDKit          3D

 70 73  0  0  0  0  0  0  0  0999 V2000
  139.8680   83.0580  220.9880 C   0  0  0  0  0  0  0  0  0  0  0  0
  138.9960   81.8990  220.5090 C   0  0  0  0  0  0  0  0  0  0  0  0
  138.7560   81.0260  221.7020 C   0  0  0  0  0  0  0  0  0  0  0  0
  137.7300   81.3030  222.3860 O   0  0  0  0  0  0  0  0  0  0  0  0
  139.6430   79.9590  222.0270 N   0  0  0  0  0  0  0  0  0  0  0  0
  140.8680   80.2830  222.6810 C   0  0  0  0  0  0  0  0  0  0  0  0
  141.9660   79.5230  222.3280 C   0  0  0  0  0  0  0  0  0  0  0  0
  143.2230   79.7100  222.8720 C   0  0  0  0  0  0  0  0  0  0  0  0
  143.3380   80.7220  223.8140 C   0  0  0  0  0  0  0  0  0  0  0  0
  142.2370   81.4920  224.1730 C   0  0  0  0  0  0  0  0  0  0  0  0
  140.9980   81.2830  223.6150 C   0  0  0  0  0  0  0  0  0  0  0  0
  139.2550   78.6150  221.6770 C   0  0  0  0  0  0  0  0  0  0  0  0
  138.6150   78.0040  222.8860 C   0  0  0  0  0  0  0  0  0  0  0  0
  138.7340   76.4810  222.7290 C   0  0  0  0  0  0  0  0  0  0  0  0
  138.5190   76.2480  221.3040 N   0  0  0  0  0  0  0  0  0  0  0  0
  139.1430   75.2070  220.5780 C   0  0  0  0  0  0  0  0  0  0  0  0
  138.8670   75.1070  219.3430 O   0  0  0  0  0  0  0  0  0  0  0  0
  140.0830   74.2390  221.1400 C   0  0  2  0  0  0  0  0  0  0  0  0
  139.5120   73.5860  222.3190 N   0  0  0  0  0  0  0  0  0  0  0  0
  141.2900   75.0160  221.6880 C   0  0  0  0  0  0  0  0  0  0  0  0
  142.0380   75.4660  220.4790 C   0  0  0  0  0  0  0  0  0  0  0  0
  143.0090   74.6850  219.8780 C   0  0  0  0  0  0  0  0  0  0  0  0
  143.6500   75.2060  218.7600 C   0  0  0  0  0  0  0  0  0  0  0  0
  143.3120   76.4690  218.2760 C   0  0  0  0  0  0  0  0  0  0  0  0
  142.3560   77.2480  218.8630 C   0  0  0  0  0  0  0  0  0  0  0  0
  141.9940   78.5230  218.4090 N   0  0  0  0  0  0  0  0  0  0  0  0
  141.1560   79.4570  219.1310 C   0  0  0  0  0  0  0  0  0  0  0  0
  141.9840   80.7140  219.3560 C   0  0  0  0  0  0  0  0  0  0  0  0
  142.5320   81.1600  218.1810 O   0  0  0  0  0  0  0  0  0  0  0  0
  142.1760   80.4690  217.0500 C   0  0  0  0  0  0  0  0  0  0  0  0
  142.4770   78.9900  217.1010 C   0  0  0  0  0  0  0  0  0  0  0  0
  141.7220   76.7100  219.9840 C   0  0  0  0  0  0  0  0  0  0  0  0
  137.5940   77.1940  220.6580 C   0  0  0  0  0  0  0  0  0  0  0  0
  138.2940   78.5530  220.5190 C   0  0  0  0  0  0  0  0  0  0  0  0
  139.8818   83.0763  222.0878 H   0  0  0  0  0  0  0  0  0  0  0  0
  140.8928   82.9262  220.6106 H   0  0  0  0  0  0  0  0  0  0  0  0
  139.4574   84.0061  220.6106 H   0  0  0  0  0  0  0  0  0  0  0  0
  138.0407   82.2787  220.1176 H   0  0  0  0  0  0  0  0  0  0  0  0
  139.4874   81.3397  219.6993 H   0  0  0  0  0  0  0  0  0  0  0  0
  141.8337   78.7301  221.5772 H   0  0  0  0  0  0  0  0  0  0  0  0
  144.0829   79.0917  222.5749 H   0  0  0  0  0  0  0  0  0  0  0  0
  144.3133   80.9180  224.2833 H   0  0  0  0  0  0  0  0  0  0  0  0
  142.3605   82.2880  224.9220 H   0  0  0  0  0  0  0  0  0  0  0  0
  140.1349   81.8988  223.9078 H   0  0  0  0  0  0  0  0  0  0  0  0
  140.1554   78.0687  221.3594 H   0  0  0  0  0  0  0  0  0  0  0  0
  139.1362   78.3326  223.7973 H   0  0  0  0  0  0  0  0  0  0  0  0
  137.5622   78.3108  222.9729 H   0  0  0  0  0  0  0  0  0  0  0  0
  139.7323   76.1345  223.0343 H   0  0  0  0  0  0  0  0  0  0  0  0
  138.0143   75.9360  223.3575 H   0  0  0  0  0  0  0  0  0  0  0  0
  140.3330   73.5102  220.3549 H   0  0  0  0  0  0  0  0  0  0  0  0
  139.5770   74.2540  223.1040 H   0  0  0  0  0  0  0  0  0  0  0  0
  138.4830   73.4030  222.1780 H   0  0  0  0  0  0  0  0  0  0  0  0
  140.9568   75.8805  222.2810 H   0  0  0  0  0  0  0  0  0  0  0  0
  141.9117   74.3993  222.3537 H   0  0  0  0  0  0  0  0  0  0  0  0
  143.2642   73.6894  220.2700 H   0  0  0  0  0  0  0  0  0  0  0  0
  144.4294   74.6177  218.2536 H   0  0  0  0  0  0  0  0  0  0  0  0
  143.8351   76.8527  217.3877 H   0  0  0  0  0  0  0  0  0  0  0  0
  140.2596   79.6957  218.5397 H   0  0  0  0  0  0  0  0  0  0  0  0
  140.8241   79.0285  220.0882 H   0  0  0  0  0  0  0  0  0  0  0  0
  141.3375   81.5005  219.7724 H   0  0  0  0  0  0  0  0  0  0  0  0
  142.7999   80.4751  220.0540 H   0  0  0  0  0  0  0  0  0  0  0  0
  141.0940   80.5946  216.8965 H   0  0  0  0  0  0  0  0  0  0  0  0
  142.7772   80.8832  216.2272 H   0  0  0  0  0  0  0  0  0  0  0  0
  141.9516   78.4648  216.2898 H   0  0  0  0  0  0  0  0  0  0  0  0
  143.5518   78.7930  216.9746 H   0  0  0  0  0  0  0  0  0  0  0  0
  140.9433   77.3007  220.4887 H   0  0  0  0  0  0  0  0  0  0  0  0
  137.3159   76.8178  219.6625 H   0  0  0  0  0  0  0  0  0  0  0  0
  136.6845   77.3025  221.2671 H   0  0  0  0  0  0  0  0  0  0  0  0
  138.8354   78.6134  219.5633 H   0  0  0  0  0  0  0  0  0  0  0  0
  137.5796   79.3894  220.5289 H   0  0  0  0  0  0  0  0  0  0  0  0
  1  2  1  0
  2  3  1  0
  3  4  2  0
  3  5  1  0
  5  6  1  0
  6  7  2  0
  7  8  1  0
  8  9  2  0
  9 10  1  0
 10 11  2  0
  5 12  1  0
 12 13  1  0
 13 14  1  0
 14 15  1  0
 15 16  1  0
 16 17  2  0
 16 18  1  0
 18 19  1  0
 18 20  1  0
 20 21  1  0
 21 22  2  0
 22 23  1  0
 23 24  2  0
 24 25  1  0
 25 26  1  0
 26 27  1  0
 27 28  1  0
 28 29  1  0
 29 30  1  0
 30 31  1  0
 25 32  2  0
 15 33  1  0
 33 34  1  0
 11  6  1  0
 34 12  1  0
 32 21  1  0
 31 26  1  0
  1 35  1  0
  1 36  1  0
  1 37  1  0
  2 38  1  0
  2 39  1  0
  7 40  1  0
  8 41  1  0
  9 42  1  0
 10 43  1  0
 11 44  1  0
 12 45  1  0
 13 46  1  0
 13 47  1  0
 14 48  1  0
 14 49  1  0
 18 50  1  6
 19 51  1  0
 19 52  1  0
 20 53  1  0
 20 54  1  0
 22 55  1  0
 23 56  1  0
 24 57  1  0
 27 58  1  0
 27 59  1  0
 28 60  1  0
 28 61  1  0
 30 62  1  0
 30 63  1  0
 31 64  1  0
 31 65  1  0
 32 66  1  0
 33 67  1  0
 33 68  1  0
 34 69  1  0
 34 70  1  0
M  END
>  <smiles>  (24) 
CCC(=O)N(c1ccccc1)C1CCN(C(=O)[C@H](N)Cc2cccc(N3CCOCC3)c2)CC1

>  <score_type>  (24) 
oracle

>  <origin>  (24) 
autodockgpu

>  <m_score__min__energy>  (24) 
-8.8800000000000008

>  <m_primary>  (24) 
energy

>  <rmsd>  (24) 
4.21945822609376

>  <m_score__min__rmsd>  (24) 
4.21945822609376

>  <meeko>  (24) 
{"free_energy": -6.23, "intermolecular_energy": -8.92, "internal_energy": -3.51, "cluster_size": 2, "cluster_id": 13, "rank_in_cluster": 1}

>  <energy>  (24) 
-7.44

>  <cluster_rmsd>  (24) 
0.72

>  <cluster>  (24) 
2

$$$$

     RDKit          3D

 70 73  0  0  0  0  0  0  0  0999 V2000
  142.5690   81.2860  223.8550 C   0  0  0  0  0  0  0  0  0  0  0  0
  142.6860   79.9420  223.1390 C   0  0  0  0  0  0  0  0  0  0  0  0
  141.5990   79.0710  223.6870 C   0  0  0  0  0  0  0  0  0  0  0  0
  141.8270   78.5530  224.8170 O   0  0  0  0  0  0  0  0  0  0  0  0
  140.3910   78.8510  222.9610 N   0  0  0  0  0  0  0  0  0  0  0  0
  139.4040   79.8800  222.9800 C   0  0  0  0  0  0  0  0  0  0  0  0
  138.7590   80.0830  224.1840 C   0  0  0  0  0  0  0  0  0  0  0  0
  137.7760   81.0390  224.3650 C   0  0  0  0  0  0  0  0  0  0  0  0
  137.4570   81.8060  223.2550 C   0  0  0  0  0  0  0  0  0  0  0  0
  138.1030   81.6070  222.0390 C   0  0  0  0  0  0  0  0  0  0  0  0
  139.0760   80.6490  221.8890 C   0  0  0  0  0  0  0  0  0  0  0  0
  140.2350   77.6050  222.2530 C   0  0  0  0  0  0  0  0  0  0  0  0
  138.7940   77.2070  222.3610 C   0  0  0  0  0  0  0  0  0  0  0  0
  138.7370   75.6880  222.1450 C   0  0  0  0  0  0  0  0  0  0  0  0
  139.7300   75.4340  221.1070 N   0  0  0  0  0  0  0  0  0  0  0  0
  140.4970   74.2480  221.0300 C   0  0  0  0  0  0  0  0  0  0  0  0
  141.3250   74.1470  220.0730 O   0  0  0  0  0  0  0  0  0  0  0  0
  140.4120   73.1320  221.9700 C   0  0  2  0  0  0  0  0  0  0  0  0
  141.2390   72.0110  221.5180 N   0  0  0  0  0  0  0  0  0  0  0  0
  138.9780   72.5830  221.9240 C   0  0  0  0  0  0  0  0  0  0  0  0
  139.0120   71.3480  222.7570 C   0  0  0  0  0  0  0  0  0  0  0  0
  138.3830   70.1780  222.3700 C   0  0  0  0  0  0  0  0  0  0  0  0
  138.4720   69.0880  223.2270 C   0  0  0  0  0  0  0  0  0  0  0  0
  139.1740   69.1880  224.4280 C   0  0  0  0  0  0  0  0  0  0  0  0
  139.7980   70.3380  224.8190 C   0  0  0  0  0  0  0  0  0  0  0  0
  140.5070   70.4780  226.0190 N   0  0  0  0  0  0  0  0  0  0  0  0
  141.4250   71.5560  226.3230 C   0  0  0  0  0  0  0  0  0  0  0  0
  140.8870   72.2620  227.5590 C   0  0  0  0  0  0  0  0  0  0  0  0
  140.6330   71.3670  228.5660 O   0  0  0  0  0  0  0  0  0  0  0  0
  140.9790   70.0630  228.3150 C   0  0  0  0  0  0  0  0  0  0  0  0
  140.3390   69.4730  227.0800 C   0  0  0  0  0  0  0  0  0  0  0  0
  139.6990   71.4230  223.9470 C   0  0  0  0  0  0  0  0  0  0  0  0
  139.8880   76.5210  220.1270 C   0  0  0  0  0  0  0  0  0  0  0  0
  140.6200   77.6900  220.8000 C   0  0  0  0  0  0  0  0  0  0  0  0
  142.5831   81.1243  224.9430 H   0  0  0  0  0  0  0  0  0  0  0  0
  143.4146   81.9287  223.5689 H   0  0  0  0  0  0  0  0  0  0  0  0
  141.6251   81.7729  223.5689 H   0  0  0  0  0  0  0  0  0  0  0  0
  142.5549   80.0764  222.0552 H   0  0  0  0  0  0  0  0  0  0  0  0
  143.6761   79.4907  223.3005 H   0  0  0  0  0  0  0  0  0  0  0  0
  139.0408   79.4536  225.0410 H   0  0  0  0  0  0  0  0  0  0  0  0
  137.2759   81.1826  225.3342 H   0  0  0  0  0  0  0  0  0  0  0  0
  136.6824   82.5827  223.3369 H   0  0  0  0  0  0  0  0  0  0  0  0
  137.8279   82.2320  221.1766 H   0  0  0  0  0  0  0  0  0  0  0  0
  139.5790   80.5013  220.9220 H   0  0  0  0  0  0  0  0  0  0  0  0
  140.9100   76.8647  222.7071 H   0  0  0  0  0  0  0  0  0  0  0  0
  138.4039   77.4629  223.3571 H   0  0  0  0  0  0  0  0  0  0  0  0
  138.1813   77.7353  221.6157 H   0  0  0  0  0  0  0  0  0  0  0  0
  138.9953   75.1528  223.0707 H   0  0  0  0  0  0  0  0  0  0  0  0
  137.7327   75.3415  221.8597 H   0  0  0  0  0  0  0  0  0  0  0  0
  140.7253   73.4944  222.9602 H   0  0  0  0  0  0  0  0  0  0  0  0
  141.2200   72.0090  220.4860 H   0  0  0  0  0  0  0  0  0  0  0  0
  142.2460   72.1620  221.7910 H   0  0  0  0  0  0  0  0  0  0  0  0
  138.2706   73.3133  222.3438 H   0  0  0  0  0  0  0  0  0  0  0  0
  138.6461   72.3790  220.8953 H   0  0  0  0  0  0  0  0  0  0  0  0
  137.8331   70.1132  221.4195 H   0  0  0  0  0  0  0  0  0  0  0  0
  137.9853   68.1394  222.9563 H   0  0  0  0  0  0  0  0  0  0  0  0
  139.2270   68.3074  225.0850 H   0  0  0  0  0  0  0  0  0  0  0  0
  142.4282   71.1525  226.5249 H   0  0  0  0  0  0  0  0  0  0  0  0
  141.5063   72.2534  225.4762 H   0  0  0  0  0  0  0  0  0  0  0  0
  141.6308   72.9936  227.9075 H   0  0  0  0  0  0  0  0  0  0  0  0
  139.9459   72.7653  227.2926 H   0  0  0  0  0  0  0  0  0  0  0  0
  142.0711   70.0145  228.1929 H   0  0  0  0  0  0  0  0  0  0  0  0
  140.6157   69.4724  229.1689 H   0  0  0  0  0  0  0  0  0  0  0  0
  140.8401   68.5344  226.8007 H   0  0  0  0  0  0  0  0  0  0  0  0
  139.2778   69.2375  227.2486 H   0  0  0  0  0  0  0  0  0  0  0  0
  140.1867   72.3704  224.2202 H   0  0  0  0  0  0  0  0  0  0  0  0
  140.4746   76.1625  219.2683 H   0  0  0  0  0  0  0  0  0  0  0  0
  138.9005   76.8520  219.7730 H   0  0  0  0  0  0  0  0  0  0  0  0
  141.7085   77.5844  220.6815 H   0  0  0  0  0  0  0  0  0  0  0  0
  140.3478   78.6589  220.3561 H   0  0  0  0  0  0  0  0  0  0  0  0
  1  2  1  0
  2  3  1  0
  3  4  2  0
  3  5  1  0
  5  6  1  0
  6  7  2  0
  7  8  1  0
  8  9  2  0
  9 10  1  0
 10 11  2  0
  5 12  1  0
 12 13  1  0
 13 14  1  0
 14 15  1  0
 15 16  1  0
 16 17  2  0
 16 18  1  0
 18 19  1  0
 18 20  1  0
 20 21  1  0
 21 22  2  0
 22 23  1  0
 23 24  2  0
 24 25  1  0
 25 26  1  0
 26 27  1  0
 27 28  1  0
 28 29  1  0
 29 30  1  0
 30 31  1  0
 25 32  2  0
 15 33  1  0
 33 34  1  0
 11  6  1  0
 34 12  1  0
 32 21  1  0
 31 26  1  0
  1 35  1  0
  1 36  1  0
  1 37  1  0
  2 38  1  0
  2 39  1  0
  7 40  1  0
  8 41  1  0
  9 42  1  0
 10 43  1  0
 11 44  1  0
 12 45  1  0
 13 46  1  0
 13 47  1  0
 14 48  1  0
 14 49  1  0
 18 50  1  1
 19 51  1  0
 19 52  1  0
 20 53  1  0
 20 54  1  0
 22 55  1  0
 23 56  1  0
 24 57  1  0
 27 58  1  0
 27 59  1  0
 28 60  1  0
 28 61  1  0
 30 62  1  0
 30 63  1  0
 31 64  1  0
 31 65  1  0
 32 66  1  0
 33 67  1  0
 33 68  1  0
 34 69  1  0
 34 70  1  0
M  END
>  <smiles>  (25) 
CCC(=O)N(c1ccccc1)C1CCN(C(=O)[C@H](N)Cc2cccc(N3CCOCC3)c2)CC1

>  <score_type>  (25) 
oracle

>  <origin>  (25) 
autodockgpu

>  <m_score__min__energy>  (25) 
-8.8800000000000008

>  <m_primary>  (25) 
energy

>  <rmsd>  (25) 
5.3991216878291075

>  <m_score__min__rmsd>  (25) 
5.3991216878291075

>  <meeko>  (25) 
{"free_energy": -7.43, "intermolecular_energy": -10.11, "internal_energy": -2.61, "cluster_size": 3, "cluster_id": 4, "rank_in_cluster": 2}

>  <energy>  (25) 
-7.42

>  <cluster_rmsd>  (25) 
0.83

>  <cluster>  (25) 
2

$$$$

     RDKit          3D

 70 73  0  0  0  0  0  0  0  0999 V2000
  136.3190   68.9160  223.1990 C   0  0  0  0  0  0  0  0  0  0  0  0
  136.8840   69.3250  224.5580 C   0  0  0  0  0  0  0  0  0  0  0  0
  138.3750   69.2430  224.4410 C   0  0  0  0  0  0  0  0  0  0  0  0
  138.8420   68.1000  224.1730 O   0  0  0  0  0  0  0  0  0  0  0  0
  139.1950   70.3940  224.6270 N   0  0  0  0  0  0  0  0  0  0  0  0
  139.8700   70.5400  225.8740 C   0  0  0  0  0  0  0  0  0  0  0  0
  139.7810   69.4690  226.7430 C   0  0  0  0  0  0  0  0  0  0  0  0
  140.3770   69.4560  227.9900 C   0  0  0  0  0  0  0  0  0  0  0  0
  141.0870   70.5940  228.3420 C   0  0  0  0  0  0  0  0  0  0  0  0
  141.1810   71.6750  227.4720 C   0  0  0  0  0  0  0  0  0  0  0  0
  140.5780   71.6600  226.2370 C   0  0  0  0  0  0  0  0  0  0  0  0
  139.2940   71.3460  223.5480 C   0  0  0  0  0  0  0  0  0  0  0  0
  139.9700   70.6550  222.4030 C   0  0  0  0  0  0  0  0  0  0  0  0
  140.5840   71.7530  221.5230 C   0  0  0  0  0  0  0  0  0  0  0  0
  139.6000   72.8300  221.5510 N   0  0  0  0  0  0  0  0  0  0  0  0
  139.9390   74.2010  221.4840 C   0  0  0  0  0  0  0  0  0  0  0  0
  138.9880   75.0420  221.5120 O   0  0  0  0  0  0  0  0  0  0  0  0
  141.3000   74.7260  221.3860 C   0  0  2  0  0  0  0  0  0  0  0  0
  141.3130   76.1750  221.5960 N   0  0  0  0  0  0  0  0  0  0  0  0
  141.7710   74.5520  219.9340 C   0  0  0  0  0  0  0  0  0  0  0  0
  143.1390   73.9700  220.0420 C   0  0  0  0  0  0  0  0  0  0  0  0
  144.2290   74.7180  220.4540 C   0  0  0  0  0  0  0  0  0  0  0  0
  145.4610   74.0770  220.5110 C   0  0  0  0  0  0  0  0  0  0  0  0
  145.5750   72.7320  220.1620 C   0  0  0  0  0  0  0  0  0  0  0  0
  144.5060   71.9870  219.7540 C   0  0  0  0  0  0  0  0  0  0  0  0
  144.5830   70.6360  219.3910 N   0  0  0  0  0  0  0  0  0  0  0  0
  145.5750   70.0660  218.5050 C   0  0  0  0  0  0  0  0  0  0  0  0
  146.3250   69.0060  219.2980 C   0  0  0  0  0  0  0  0  0  0  0  0
  145.4560   68.1290  219.8930 O   0  0  0  0  0  0  0  0  0  0  0  0
  144.1260   68.3080  219.6040 C   0  0  0  0  0  0  0  0  0  0  0  0
  143.5960   69.6860  219.9280 C   0  0  0  0  0  0  0  0  0  0  0  0
  143.2770   72.6440  219.7030 C   0  0  0  0  0  0  0  0  0  0  0  0
  138.2020   72.3840  221.6650 C   0  0  0  0  0  0  0  0  0  0  0  0
  137.9600   71.8750  223.0930 C   0  0  0  0  0  0  0  0  0  0  0  0
  135.4360   68.2768  223.3464 H   0  0  0  0  0  0  0  0  0  0  0  0
  136.0304   69.8159  222.6360 H   0  0  0  0  0  0  0  0  0  0  0  0
  137.0837   68.3608  222.6360 H   0  0  0  0  0  0  0  0  0  0  0  0
  136.5780   70.3528  224.8030 H   0  0  0  0  0  0  0  0  0  0  0  0
  136.5111   68.6682  225.3577 H   0  0  0  0  0  0  0  0  0  0  0  0
  139.2084   68.5845  226.4271 H   0  0  0  0  0  0  0  0  0  0  0  0
  140.2929   68.5917  228.6652 H   0  0  0  0  0  0  0  0  0  0  0  0
  141.5827   70.6424  229.3228 H   0  0  0  0  0  0  0  0  0  0  0  0
  141.7518   72.5635  227.7798 H   0  0  0  0  0  0  0  0  0  0  0  0
  140.6601   72.5213  225.5577 H   0  0  0  0  0  0  0  0  0  0  0  0
  139.8631   72.2159  223.9076 H   0  0  0  0  0  0  0  0  0  0  0  0
  140.7578   69.9846  222.7770 H   0  0  0  0  0  0  0  0  0  0  0  0
  139.2546   70.0452  221.8318 H   0  0  0  0  0  0  0  0  0  0  0  0
  141.5449   72.0923  221.9371 H   0  0  0  0  0  0  0  0  0  0  0  0
  140.7956   71.4036  220.5016 H   0  0  0  0  0  0  0  0  0  0  0  0
  141.9216   74.2035  222.1280 H   0  0  0  0  0  0  0  0  0  0  0  0
  140.4290   76.4270  222.0670 H   0  0  0  0  0  0  0  0  0  0  0  0
  142.0840   76.4450  222.2620 H   0  0  0  0  0  0  0  0  0  0  0  0
  141.1020   73.8697  219.3892 H   0  0  0  0  0  0  0  0  0  0  0  0
  141.7678   75.5027  219.3808 H   0  0  0  0  0  0  0  0  0  0  0  0
  144.1239   75.7787  220.7257 H   0  0  0  0  0  0  0  0  0  0  0  0
  146.3524   74.6349  220.8338 H   0  0  0  0  0  0  0  0  0  0  0  0
  146.5636   72.2529  220.2175 H   0  0  0  0  0  0  0  0  0  0  0  0
  145.0843   69.6085  217.6333 H   0  0  0  0  0  0  0  0  0  0  0  0
  146.2637   70.8409  218.1373 H   0  0  0  0  0  0  0  0  0  0  0  0
  146.9873   68.4501  218.6181 H   0  0  0  0  0  0  0  0  0  0  0  0
  146.9100   69.5060  220.0840 H   0  0  0  0  0  0  0  0  0  0  0  0
  143.9804   68.1276  218.5287 H   0  0  0  0  0  0  0  0  0  0  0  0
  143.5696   67.6011  220.2370 H   0  0  0  0  0  0  0  0  0  0  0  0
  142.6171   69.8411  219.4508 H   0  0  0  0  0  0  0  0  0  0  0  0
  143.4554   69.8196  221.0108 H   0  0  0  0  0  0  0  0  0  0  0  0
  142.3876   72.0827  219.3807 H   0  0  0  0  0  0  0  0  0  0  0  0
  137.5268   73.2262  221.4533 H   0  0  0  0  0  0  0  0  0  0  0  0
  138.0068   71.5777  220.9427 H   0  0  0  0  0  0  0  0  0  0  0  0
  137.6266   72.6958  223.7450 H   0  0  0  0  0  0  0  0  0  0  0  0
  137.1751   71.1052  223.1304 H   0  0  0  0  0  0  0  0  0  0  0  0
  1  2  1  0
  2  3  1  0
  3  4  2  0
  3  5  1  0
  5  6  1  0
  6  7  2  0
  7  8  1  0
  8  9  2  0
  9 10  1  0
 10 11  2  0
  5 12  1  0
 12 13  1  0
 13 14  1  0
 14 15  1  0
 15 16  1  0
 16 17  2  0
 16 18  1  0
 18 19  1  0
 18 20  1  0
 20 21  1  0
 21 22  2  0
 22 23  1  0
 23 24  2  0
 24 25  1  0
 25 26  1  0
 26 27  1  0
 27 28  1  0
 28 29  1  0
 29 30  1  0
 30 31  1  0
 25 32  2  0
 15 33  1  0
 33 34  1  0
 11  6  1  0
 34 12  1  0
 32 21  1  0
 31 26  1  0
  1 35  1  0
  1 36  1  0
  1 37  1  0
  2 38  1  0
  2 39  1  0
  7 40  1  0
  8 41  1  0
  9 42  1  0
 10 43  1  0
 11 44  1  0
 12 45  1  0
 13 46  1  0
 13 47  1  0
 14 48  1  0
 14 49  1  0
 18 50  1  1
 19 51  1  0
 19 52  1  0
 20 53  1  0
 20 54  1  0
 22 55  1  0
 23 56  1  0
 24 57  1  0
 27 58  1  0
 27 59  1  0
 28 60  1  0
 28 61  1  0
 30 62  1  0
 30 63  1  0
 31 64  1  0
 31 65  1  0
 32 66  1  0
 33 67  1  0
 33 68  1  0
 34 69  1  0
 34 70  1  0
M  END
>  <smiles>  (26) 
CCC(=O)N(c1ccccc1)C1CCN(C(=O)[C@H](N)Cc2cccc(N3CCOCC3)c2)CC1

>  <score_type>  (26) 
oracle

>  <origin>  (26) 
autodockgpu

>  <m_score__min__energy>  (26) 
-8.8800000000000008

>  <m_primary>  (26) 
energy

>  <rmsd>  (26) 
7.012520768908722

>  <m_score__min__rmsd>  (26) 
7.012520768908722

>  <meeko>  (26) 
{"free_energy": -8.52, "intermolecular_energy": -11.21, "internal_energy": -2.71, "cluster_size": 20, "cluster_id": 1, "rank_in_cluster": 5}

>  <energy>  (26) 
-6.94

>  <cluster_rmsd>  (26) 
0.96

>  <cluster>  (26) 
2

$$$$

     RDKit          3D

 70 73  0  0  0  0  0  0  0  0999 V2000
  142.1250   80.6910  216.8930 C   0  0  0  0  0  0  0  0  0  0  0  0
  142.6160   80.5860  218.3360 C   0  0  0  0  0  0  0  0  0  0  0  0
  141.4270   80.2090  219.1630 C   0  0  0  0  0  0  0  0  0  0  0  0
  140.3340   80.7490  218.8310 O   0  0  0  0  0  0  0  0  0  0  0  0
  141.5440   79.2980  220.2530 N   0  0  0  0  0  0  0  0  0  0  0  0
  141.7780   79.8360  221.5530 C   0  0  0  0  0  0  0  0  0  0  0  0
  141.6050   81.2000  221.6860 C   0  0  0  0  0  0  0  0  0  0  0  0
  141.7960   81.8750  222.8780 C   0  0  0  0  0  0  0  0  0  0  0  0
  142.1770   81.1020  223.9640 C   0  0  0  0  0  0  0  0  0  0  0  0
  142.3520   79.7280  223.8370 C   0  0  0  0  0  0  0  0  0  0  0  0
  142.1550   79.0840  222.6390 C   0  0  0  0  0  0  0  0  0  0  0  0
  141.4230   77.8860  219.9830 C   0  0  0  0  0  0  0  0  0  0  0  0
  140.0880   77.6670  219.3390 C   0  0  0  0  0  0  0  0  0  0  0  0
  139.7160   76.1960  219.5790 C   0  0  0  0  0  0  0  0  0  0  0  0
  140.9800   75.4790  219.4430 N   0  0  0  0  0  0  0  0  0  0  0  0
  141.3000   74.3110  220.1740 C   0  0  0  0  0  0  0  0  0  0  0  0
  142.4310   73.7770  219.9590 O   0  0  0  0  0  0  0  0  0  0  0  0
  140.4290   73.6730  221.1590 C   0  0  2  0  0  0  0  0  0  0  0  0
  140.2520   74.5350  222.3290 N   0  0  0  0  0  0  0  0  0  0  0  0
  141.1610   72.4400  221.7090 C   0  0  0  0  0  0  0  0  0  0  0  0
  140.1510   71.7360  222.5480 C   0  0  0  0  0  0  0  0  0  0  0  0
  138.9040   71.3830  222.0620 C   0  0  0  0  0  0  0  0  0  0  0  0
  138.0350   70.7360  222.9340 C   0  0  0  0  0  0  0  0  0  0  0  0
  138.4240   70.4600  224.2440 C   0  0  0  0  0  0  0  0  0  0  0  0
  139.6520   70.8050  224.7330 C   0  0  0  0  0  0  0  0  0  0  0  0
  140.0750   70.5510  226.0440 N   0  0  0  0  0  0  0  0  0  0  0  0
  141.0340   71.3480  226.7790 C   0  0  0  0  0  0  0  0  0  0  0  0
  140.3250   71.8600  228.0240 C   0  0  0  0  0  0  0  0  0  0  0  0
  139.7260   70.8340  228.7070 O   0  0  0  0  0  0  0  0  0  0  0  0
  139.9410   69.5730  228.2110 C   0  0  0  0  0  0  0  0  0  0  0  0
  139.5310   69.3910  226.7680 C   0  0  0  0  0  0  0  0  0  0  0  0
  140.5110   71.4540  223.8460 C   0  0  0  0  0  0  0  0  0  0  0  0
  141.9220   76.0690  218.4790 C   0  0  0  0  0  0  0  0  0  0  0  0
  142.5050   77.3560  219.0800 C   0  0  0  0  0  0  0  0  0  0  0  0
  141.0493   80.9210  216.8875 H   0  0  0  0  0  0  0  0  0  0  0  0
  142.6739   81.4921  216.3763 H   0  0  0  0  0  0  0  0  0  0  0  0
  142.2983   79.7355  216.3763 H   0  0  0  0  0  0  0  0  0  0  0  0
  143.3954   79.8140  218.4170 H   0  0  0  0  0  0  0  0  0  0  0  0
  143.0531   81.5359  218.6776 H   0  0  0  0  0  0  0  0  0  0  0  0
  141.3005   81.7775  220.8007 H   0  0  0  0  0  0  0  0  0  0  0  0
  141.6538   82.9627  222.9597 H   0  0  0  0  0  0  0  0  0  0  0  0
  142.3432   81.5820  224.9397 H   0  0  0  0  0  0  0  0  0  0  0  0
  142.6556   79.1423  224.7172 H   0  0  0  0  0  0  0  0  0  0  0  0
  142.2953   77.9964  222.5522 H   0  0  0  0  0  0  0  0  0  0  0  0
  141.5230   77.3432  220.9345 H   0  0  0  0  0  0  0  0  0  0  0  0
  139.3350   78.3272  219.7941 H   0  0  0  0  0  0  0  0  0  0  0  0
  140.1264   77.8942  218.2634 H   0  0  0  0  0  0  0  0  0  0  0  0
  139.2966   76.0593  220.5867 H   0  0  0  0  0  0  0  0  0  0  0  0
  138.9501   75.8356  218.8765 H   0  0  0  0  0  0  0  0  0  0  0  0
  139.4689   73.4485  220.6714 H   0  0  0  0  0  0  0  0  0  0  0  0
  139.9950   75.4750  221.9860 H   0  0  0  0  0  0  0  0  0  0  0  0
  139.4370   74.2050  222.9120 H   0  0  0  0  0  0  0  0  0  0  0  0
  141.4999   71.7926  220.8868 H   0  0  0  0  0  0  0  0  0  0  0  0
  142.0580   72.7137  222.2838 H   0  0  0  0  0  0  0  0  0  0  0  0
  138.6114   71.6058  221.0253 H   0  0  0  0  0  0  0  0  0  0  0  0
  137.0338   70.4400  222.5877 H   0  0  0  0  0  0  0  0  0  0  0  0
  137.7152   69.9449  224.9091 H   0  0  0  0  0  0  0  0  0  0  0  0
  141.8990   70.7309  227.0636 H   0  0  0  0  0  0  0  0  0  0  0  0
  141.4028   72.1833  226.1656 H   0  0  0  0  0  0  0  0  0  0  0  0
  141.0599   72.3483  228.6809 H   0  0  0  0  0  0  0  0  0  0  0  0
  139.5481   72.5748  227.7149 H   0  0  0  0  0  0  0  0  0  0  0  0
  141.0147   69.3491  228.2943 H   0  0  0  0  0  0  0  0  0  0  0  0
  139.3133   68.8915  228.8038 H   0  0  0  0  0  0  0  0  0  0  0  0
  139.9515   68.4575  226.3657 H   0  0  0  0  0  0  0  0  0  0  0  0
  138.4378   69.3268  226.6641 H   0  0  0  0  0  0  0  0  0  0  0  0
  141.5107   71.7506  224.1961 H   0  0  0  0  0  0  0  0  0  0  0  0
  142.7343   75.3565  218.2726 H   0  0  0  0  0  0  0  0  0  0  0  0
  141.3991   76.2993  217.5391 H   0  0  0  0  0  0  0  0  0  0  0  0
  143.4163   77.1363  219.6555 H   0  0  0  0  0  0  0  0  0  0  0  0
  142.7908   78.0826  218.3052 H   0  0  0  0  0  0  0  0  0  0  0  0
  1  2  1  0
  2  3  1  0
  3  4  2  0
  3  5  1  0
  5  6  1  0
  6  7  2  0
  7  8  1  0
  8  9  2  0
  9 10  1  0
 10 11  2  0
  5 12  1  0
 12 13  1  0
 13 14  1  0
 14 15  1  0
 15 16  1  0
 16 17  2  0
 16 18  1  0
 18 19  1  0
 18 20  1  0
 20 21  1  0
 21 22  2  0
 22 23  1  0
 23 24  2  0
 24 25  1  0
 25 26  1  0
 26 27  1  0
 27 28  1  0
 28 29  1  0
 29 30  1  0
 30 31  1  0
 25 32  2  0
 15 33  1  0
 33 34  1  0
 11  6  1  0
 34 12  1  0
 32 21  1  0
 31 26  1  0
  1 35  1  0
  1 36  1  0
  1 37  1  0
  2 38  1  0
  2 39  1  0
  7 40  1  0
  8 41  1  0
  9 42  1  0
 10 43  1  0
 11 44  1  0
 12 45  1  0
 13 46  1  0
 13 47  1  0
 14 48  1  0
 14 49  1  0
 18 50  1  6
 19 51  1  0
 19 52  1  0
 20 53  1  0
 20 54  1  0
 22 55  1  0
 23 56  1  0
 24 57  1  0
 27 58  1  0
 27 59  1  0
 28 60  1  0
 28 61  1  0
 30 62  1  0
 30 63  1  0
 31 64  1  0
 31 65  1  0
 32 66  1  0
 33 67  1  0
 33 68  1  0
 34 69  1  0
 34 70  1  0
M  END
>  <smiles>  (27) 
CCC(=O)N(c1ccccc1)C1CCN(C(=O)[C@H](N)Cc2cccc(N3CCOCC3)c2)CC1

>  <score_type>  (27) 
oracle

>  <origin>  (27) 
autodockgpu

>  <m_score__min__energy>  (27) 
-8.8800000000000008

>  <m_primary>  (27) 
energy

>  <rmsd>  (27) 
5.096911447092323

>  <m_score__min__rmsd>  (27) 
5.096911447092323

>  <meeko>  (27) 
{"free_energy": -8.22, "intermolecular_energy": -10.9, "internal_energy": -1.88, "cluster_size": 6, "cluster_id": 3, "rank_in_cluster": 3}

>  <energy>  (27) 
-6.92

>  <cluster_rmsd>  (27) 
1.61

>  <cluster>  (27) 
2

$$$$

     RDKit          3D

 70 73  0  0  0  0  0  0  0  0999 V2000
  138.4340   67.8560  222.5700 C   0  0  0  0  0  0  0  0  0  0  0  0
  138.9950   68.1510  223.9590 C   0  0  0  0  0  0  0  0  0  0  0  0
  138.4350   69.4760  224.3730 C   0  0  0  0  0  0  0  0  0  0  0  0
  137.1870   69.5060  224.5740 O   0  0  0  0  0  0  0  0  0  0  0  0
  139.2730   70.6190  224.5210 N   0  0  0  0  0  0  0  0  0  0  0  0
  139.9260   70.8120  225.7750 C   0  0  0  0  0  0  0  0  0  0  0  0
  139.6790   69.8570  226.7420 C   0  0  0  0  0  0  0  0  0  0  0  0
  140.2330   69.9010  228.0080 C   0  0  0  0  0  0  0  0  0  0  0  0
  141.0690   70.9750  228.2730 C   0  0  0  0  0  0  0  0  0  0  0  0
  141.3220   71.9400  227.3030 C   0  0  0  0  0  0  0  0  0  0  0  0
  140.7570   71.8700  226.0520 C   0  0  0  0  0  0  0  0  0  0  0  0
  139.4140   71.5160  223.4010 C   0  0  0  0  0  0  0  0  0  0  0  0
  140.2180   70.8050  222.3560 C   0  0  0  0  0  0  0  0  0  0  0  0
  140.8460   71.8880  221.4670 C   0  0  0  0  0  0  0  0  0  0  0  0
  139.8090   72.9080  221.3540 N   0  0  0  0  0  0  0  0  0  0  0  0
  140.0800   74.2900  221.2350 C   0  0  0  0  0  0  0  0  0  0  0  0
  139.0880   75.0770  221.1380 O   0  0  0  0  0  0  0  0  0  0  0  0
  141.4150   74.8850  221.2180 C   0  0  2  0  0  0  0  0  0  0  0  0
  141.3390   76.3350  221.4040 N   0  0  0  0  0  0  0  0  0  0  0  0
  141.9900   74.7170  219.8030 C   0  0  0  0  0  0  0  0  0  0  0  0
  143.3170   74.0700  220.0020 C   0  0  0  0  0  0  0  0  0  0  0  0
  144.4120   74.7630  220.4890 C   0  0  0  0  0  0  0  0  0  0  0  0
  145.6040   74.0630  220.6280 C   0  0  0  0  0  0  0  0  0  0  0  0
  145.6760   72.7130  220.2850 C   0  0  0  0  0  0  0  0  0  0  0  0
  144.6020   72.0210  219.8040 C   0  0  0  0  0  0  0  0  0  0  0  0
  144.6370   70.6670  219.4440 N   0  0  0  0  0  0  0  0  0  0  0  0
  145.5930   70.0710  218.5350 C   0  0  0  0  0  0  0  0  0  0  0  0
  146.3370   68.9960  219.3130 C   0  0  0  0  0  0  0  0  0  0  0  0
  145.4620   68.1420  219.9330 O   0  0  0  0  0  0  0  0  0  0  0  0
  144.1300   68.3520  219.6770 C   0  0  0  0  0  0  0  0  0  0  0  0
  143.6420   69.7430  220.0090 C   0  0  0  0  0  0  0  0  0  0  0  0
  143.4130   72.7380  219.6700 C   0  0  0  0  0  0  0  0  0  0  0  0
  138.4310   72.3910  221.3800 C   0  0  0  0  0  0  0  0  0  0  0  0
  138.0960   71.9450  222.8100 C   0  0  0  0  0  0  0  0  0  0  0  0
  137.4642   67.3460  222.6670 H   0  0  0  0  0  0  0  0  0  0  0  0
  138.2988   68.7997  222.0212 H   0  0  0  0  0  0  0  0  0  0  0  0
  139.1348   67.2098  222.0212 H   0  0  0  0  0  0  0  0  0  0  0  0
  138.6843   67.3693  224.6678 H   0  0  0  0  0  0  0  0  0  0  0  0
  140.0947   68.1711  223.9470 H   0  0  0  0  0  0  0  0  0  0  0  0
  139.0090   69.0209  226.4927 H   0  0  0  0  0  0  0  0  0  0  0  0
  140.0226   69.1281  228.7619 H   0  0  0  0  0  0  0  0  0  0  0  0
  141.5386   71.0654  229.2636 H   0  0  0  0  0  0  0  0  0  0  0  0
  141.9907   72.7797  227.5433 H   0  0  0  0  0  0  0  0  0  0  0  0
  140.9645   72.6396  225.2940 H   0  0  0  0  0  0  0  0  0  0  0  0
  139.9065   72.4338  223.7548 H   0  0  0  0  0  0  0  0  0  0  0  0
  141.0054   70.2006  222.8301 H   0  0  0  0  0  0  0  0  0  0  0  0
  139.5853   70.1267  221.7647 H   0  0  0  0  0  0  0  0  0  0  0  0
  141.7502   72.3020  221.9371 H   0  0  0  0  0  0  0  0  0  0  0  0
  141.1599   71.4977  220.4876 H   0  0  0  0  0  0  0  0  0  0  0  0
  142.0120   74.4061  222.0081 H   0  0  0  0  0  0  0  0  0  0  0  0
  140.4460   76.5400  221.8800 H   0  0  0  0  0  0  0  0  0  0  0  0
  142.0990   76.6640  222.0570 H   0  0  0  0  0  0  0  0  0  0  0  0
  141.3354   74.0774  219.1928 H   0  0  0  0  0  0  0  0  0  0  0  0
  142.0732   75.6775  219.2734 H   0  0  0  0  0  0  0  0  0  0  0  0
  144.3410   75.8278  220.7559 H   0  0  0  0  0  0  0  0  0  0  0  0
  146.4976   74.5773  221.0114 H   0  0  0  0  0  0  0  0  0  0  0  0
  146.6340   72.1862  220.4066 H   0  0  0  0  0  0  0  0  0  0  0  0
  145.0700   69.6228  217.6774 H   0  0  0  0  0  0  0  0  0  0  0  0
  146.2904   70.8282  218.1472 H   0  0  0  0  0  0  0  0  0  0  0  0
  146.9685   68.4221  218.6189 H   0  0  0  0  0  0  0  0  0  0  0  0
  146.9535   69.4842  220.0821 H   0  0  0  0  0  0  0  0  0  0  0  0
  143.9529   68.1717  218.6064 H   0  0  0  0  0  0  0  0  0  0  0  0
  143.5729   67.6607  220.3264 H   0  0  0  0  0  0  0  0  0  0  0  0
  142.6553   69.9202  219.5562 H   0  0  0  0  0  0  0  0  0  0  0  0
  143.5324   69.8833  221.0945 H   0  0  0  0  0  0  0  0  0  0  0  0
  142.5214   72.2209  219.2857 H   0  0  0  0  0  0  0  0  0  0  0  0
  137.7336   73.1818  221.0666 H   0  0  0  0  0  0  0  0  0  0  0  0
  138.3392   71.5379  220.6916 H   0  0  0  0  0  0  0  0  0  0  0  0
  137.6671   72.7789  223.3850 H   0  0  0  0  0  0  0  0  0  0  0  0
  137.3512   71.1357  222.8276 H   0  0  0  0  0  0  0  0  0  0  0  0
  1  2  1  0
  2  3  1  0
  3  4  2  0
  3  5  1  0
  5  6  1  0
  6  7  2  0
  7  8  1  0
  8  9  2  0
  9 10  1  0
 10 11  2  0
  5 12  1  0
 12 13  1  0
 13 14  1  0
 14 15  1  0
 15 16  1  0
 16 17  2  0
 16 18  1  0
 18 19  1  0
 18 20  1  0
 20 21  1  0
 21 22  2  0
 22 23  1  0
 23 24  2  0
 24 25  1  0
 25 26  1  0
 26 27  1  0
 27 28  1  0
 28 29  1  0
 29 30  1  0
 30 31  1  0
 25 32  2  0
 15 33  1  0
 33 34  1  0
 11  6  1  0
 34 12  1  0
 32 21  1  0
 31 26  1  0
  1 35  1  0
  1 36  1  0
  1 37  1  0
  2 38  1  0
  2 39  1  0
  7 40  1  0
  8 41  1  0
  9 42  1  0
 10 43  1  0
 11 44  1  0
 12 45  1  0
 13 46  1  0
 13 47  1  0
 14 48  1  0
 14 49  1  0
 18 50  1  1
 19 51  1  0
 19 52  1  0
 20 53  1  0
 20 54  1  0
 22 55  1  0
 23 56  1  0
 24 57  1  0
 27 58  1  0
 27 59  1  0
 28 60  1  0
 28 61  1  0
 30 62  1  0
 30 63  1  0
 31 64  1  0
 31 65  1  0
 32 66  1  0
 33 67  1  0
 33 68  1  0
 34 69  1  0
 34 70  1  0
M  END
>  <smiles>  (28) 
CCC(=O)N(c1ccccc1)C1CCN(C(=O)[C@H](N)Cc2cccc(N3CCOCC3)c2)CC1

>  <score_type>  (28) 
oracle

>  <origin>  (28) 
autodockgpu

>  <m_score__min__energy>  (28) 
-8.8800000000000008

>  <m_primary>  (28) 
energy

>  <rmsd>  (28) 
6.920975854956981

>  <m_score__min__rmsd>  (28) 
6.920975854956981

>  <meeko>  (28) 
{"free_energy": -8.29, "intermolecular_energy": -10.98, "internal_energy": -2.82, "cluster_size": 20, "cluster_id": 1, "rank_in_cluster": 9}

>  <energy>  (28) 
-8.39

>  <cluster_rmsd>  (28) 
0.0

>  <cluster>  (28) 
3

$$$$

     RDKit          3D

 70 73  0  0  0  0  0  0  0  0999 V2000
  138.8400   66.5730  222.6570 C   0  0  0  0  0  0  0  0  0  0  0  0
  138.4870   68.0510  222.8170 C   0  0  0  0  0  0  0  0  0  0  0  0
  139.0010   68.4690  224.1590 C   0  0  0  0  0  0  0  0  0  0  0  0
  139.1990   67.5340  224.9860 O   0  0  0  0  0  0  0  0  0  0  0  0
  139.2420   69.8410  224.4640 N   0  0  0  0  0  0  0  0  0  0  0  0
  139.7520   70.1590  225.7560 C   0  0  0  0  0  0  0  0  0  0  0  0
  139.2080   69.4580  226.8150 C   0  0  0  0  0  0  0  0  0  0  0  0
  139.5930   69.6520  228.1290 C   0  0  0  0  0  0  0  0  0  0  0  0
  140.5760   70.6060  228.3440 C   0  0  0  0  0  0  0  0  0  0  0  0
  141.1290   71.3140  227.2830 C   0  0  0  0  0  0  0  0  0  0  0  0
  140.7270   71.1000  225.9860 C   0  0  0  0  0  0  0  0  0  0  0  0
  138.9550   70.8280  223.4520 C   0  0  0  0  0  0  0  0  0  0  0  0
  139.9250   70.6140  222.3300 C   0  0  0  0  0  0  0  0  0  0  0  0
  140.0210   71.9430  221.5680 C   0  0  0  0  0  0  0  0  0  0  0  0
  138.6570   72.4620  221.5750 N   0  0  0  0  0  0  0  0  0  0  0  0
  138.3430   73.8400  221.6130 C   0  0  0  0  0  0  0  0  0  0  0  0
  137.1150   74.1630  221.6090 O   0  0  0  0  0  0  0  0  0  0  0  0
  139.3240   74.9230  221.6600 C   0  0  2  0  0  0  0  0  0  0  0  0
  138.8800   75.9870  222.5620 N   0  0  0  0  0  0  0  0  0  0  0  0
  139.3560   75.5920  220.2770 C   0  0  0  0  0  0  0  0  0  0  0  0
  140.7890   75.9340  220.0490 C   0  0  0  0  0  0  0  0  0  0  0  0
  141.2050   77.2240  219.7710 C   0  0  0  0  0  0  0  0  0  0  0  0
  142.5640   77.4300  219.5670 C   0  0  0  0  0  0  0  0  0  0  0  0
  143.4600   76.3640  219.6460 C   0  0  0  0  0  0  0  0  0  0  0  0
  143.0600   75.0880  219.9190 C   0  0  0  0  0  0  0  0  0  0  0  0
  143.9280   73.9920  220.0010 N   0  0  0  0  0  0  0  0  0  0  0  0
  143.7550   72.7370  219.3000 C   0  0  0  0  0  0  0  0  0  0  0  0
  144.9800   72.5470  218.4180 C   0  0  0  0  0  0  0  0  0  0  0  0
  146.1350   72.6930  219.1410 O   0  0  0  0  0  0  0  0  0  0  0  0
  145.9810   72.8890  220.4910 C   0  0  0  0  0  0  0  0  0  0  0  0
  145.1230   74.0770  220.8550 C   0  0  0  0  0  0  0  0  0  0  0  0
  141.6920   74.8980  220.1210 C   0  0  0  0  0  0  0  0  0  0  0  0
  137.6060   71.4320  221.5460 C   0  0  0  0  0  0  0  0  0  0  0  0
  137.5490   70.7440  222.9180 C   0  0  0  0  0  0  0  0  0  0  0  0
  138.9499   66.1127  223.6500 H   0  0  0  0  0  0  0  0  0  0  0  0
  138.0385   66.0625  222.1029 H   0  0  0  0  0  0  0  0  0  0  0  0
  139.7857   66.4798  222.1029 H   0  0  0  0  0  0  0  0  0  0  0  0
  138.9672   68.6441  222.0248 H   0  0  0  0  0  0  0  0  0  0  0  0
  137.4014   68.2108  222.7400 H   0  0  0  0  0  0  0  0  0  0  0  0
  138.4308   68.7091  226.6026 H   0  0  0  0  0  0  0  0  0  0  0  0
  139.1450   69.0821  228.9563 H   0  0  0  0  0  0  0  0  0  0  0  0
  140.9232   70.8055  229.3685 H   0  0  0  0  0  0  0  0  0  0  0  0
  141.9075   72.0640  227.4864 H   0  0  0  0  0  0  0  0  0  0  0  0
  141.1733   71.6662  225.1552 H   0  0  0  0  0  0  0  0  0  0  0  0
  139.0534   71.8252  223.9057 H   0  0  0  0  0  0  0  0  0  0  0  0
  140.9109   70.3345  222.7298 H   0  0  0  0  0  0  0  0  0  0  0  0
  139.5899   69.8023  221.6676 H   0  0  0  0  0  0  0  0  0  0  0  0
  140.7045   72.6368  222.0792 H   0  0  0  0  0  0  0  0  0  0  0  0
  140.4171   71.8159  220.5497 H   0  0  0  0  0  0  0  0  0  0  0  0
  140.2868   74.4974  221.9791 H   0  0  0  0  0  0  0  0  0  0  0  0
  137.8600   76.0930  222.4360 H   0  0  0  0  0  0  0  0  0  0  0  0
  139.0210   75.7010  223.5680 H   0  0  0  0  0  0  0  0  0  0  0  0
  138.9959   74.8982  219.5031 H   0  0  0  0  0  0  0  0  0  0  0  0
  138.7064   76.4785  220.2309 H   0  0  0  0  0  0  0  0  0  0  0  0
  140.4869   78.0553  219.7136 H   0  0  0  0  0  0  0  0  0  0  0  0
  142.9356   78.4405  219.3417 H   0  0  0  0  0  0  0  0  0  0  0  0
  144.5301   76.5592  219.4820 H   0  0  0  0  0  0  0  0  0  0  0  0
  143.6765   71.9096  220.0206 H   0  0  0  0  0  0  0  0  0  0  0  0
  142.8352   72.7481  218.6968 H   0  0  0  0  0  0  0  0  0  0  0  0
  144.9549   71.5380  217.9806 H   0  0  0  0  0  0  0  0  0  0  0  0
  144.9635   73.3113  217.6271 H   0  0  0  0  0  0  0  0  0  0  0  0
  145.5192   71.9871  220.9191 H   0  0  0  0  0  0  0  0  0  0  0  0
  146.9839   73.0905  220.8954 H   0  0  0  0  0  0  0  0  0  0  0  0
  144.8381   74.0316  221.9165 H   0  0  0  0  0  0  0  0  0  0  0  0
  145.6609   75.0242  220.7016 H   0  0  0  0  0  0  0  0  0  0  0  0
  141.3233   73.8862  220.3453 H   0  0  0  0  0  0  0  0  0  0  0  0
  136.6352   71.9005  221.3268 H   0  0  0  0  0  0  0  0  0  0  0  0
  137.8309   70.6905  220.7652 H   0  0  0  0  0  0  0  0  0  0  0  0
  136.8495   71.2687  223.5854 H   0  0  0  0  0  0  0  0  0  0  0  0
  137.1946   69.7052  222.8461 H   0  0  0  0  0  0  0  0  0  0  0  0
  1  2  1  0
  2  3  1  0
  3  4  2  0
  3  5  1  0
  5  6  1  0
  6  7  2  0
  7  8  1  0
  8  9  2  0
  9 10  1  0
 10 11  2  0
  5 12  1  0
 12 13  1  0
 13 14  1  0
 14 15  1  0
 15 16  1  0
 16 17  2  0
 16 18  1  0
 18 19  1  0
 18 20  1  0
 20 21  1  0
 21 22  2  0
 22 23  1  0
 23 24  2  0
 24 25  1  0
 25 26  1  0
 26 27  1  0
 27 28  1  0
 28 29  1  0
 29 30  1  0
 30 31  1  0
 25 32  2  0
 15 33  1  0
 33 34  1  0
 11  6  1  0
 34 12  1  0
 32 21  1  0
 31 26  1  0
  1 35  1  0
  1 36  1  0
  1 37  1  0
  2 38  1  0
  2 39  1  0
  7 40  1  0
  8 41  1  0
  9 42  1  0
 10 43  1  0
 11 44  1  0
 12 45  1  0
 13 46  1  0
 13 47  1  0
 14 48  1  0
 14 49  1  0
 18 50  1  1
 19 51  1  0
 19 52  1  0
 20 53  1  0
 20 54  1  0
 22 55  1  0
 23 56  1  0
 24 57  1  0
 27 58  1  0
 27 59  1  0
 28 60  1  0
 28 61  1  0
 30 62  1  0
 30 63  1  0
 31 64  1  0
 31 65  1  0
 32 66  1  0
 33 67  1  0
 33 68  1  0
 34 69  1  0
 34 70  1  0
M  END
>  <smiles>  (29) 
CCC(=O)N(c1ccccc1)C1CCN(C(=O)[C@H](N)Cc2cccc(N3CCOCC3)c2)CC1

>  <score_type>  (29) 
oracle

>  <origin>  (29) 
autodockgpu

>  <m_score__min__energy>  (29) 
-8.8800000000000008

>  <m_primary>  (29) 
energy

>  <rmsd>  (29) 
7.213918254170302

>  <m_score__min__rmsd>  (29) 
7.213918254170302

>  <meeko>  (29) 
{"free_energy": -8.46, "intermolecular_energy": -11.15, "internal_energy": -1.99, "cluster_size": 7, "cluster_id": 2, "rank_in_cluster": 1}

>  <energy>  (29) 
-8.22

>  <cluster_rmsd>  (29) 
0.63

>  <cluster>  (29) 
3

$$$$

     RDKit          3D

 70 73  0  0  0  0  0  0  0  0999 V2000
  137.4210   68.1670  222.4420 C   0  0  0  0  0  0  0  0  0  0  0  0
  137.3030   68.8790  223.7880 C   0  0  0  0  0  0  0  0  0  0  0  0
  138.6810   68.9160  224.3720 C   0  0  0  0  0  0  0  0  0  0  0  0
  139.2030   67.7920  224.6200 O   0  0  0  0  0  0  0  0  0  0  0  0
  139.3430   70.1530  224.6260 N   0  0  0  0  0  0  0  0  0  0  0  0
  139.9000   70.3600  225.9220 C   0  0  0  0  0  0  0  0  0  0  0  0
  140.6250   71.5240  226.0940 C   0  0  0  0  0  0  0  0  0  0  0  0
  141.2290   71.8690  227.2880 C   0  0  0  0  0  0  0  0  0  0  0  0
  141.0720   70.9730  228.3350 C   0  0  0  0  0  0  0  0  0  0  0  0
  140.3430   69.8000  228.1690 C   0  0  0  0  0  0  0  0  0  0  0  0
  139.7530   69.4830  226.9690 C   0  0  0  0  0  0  0  0  0  0  0  0
  139.4100   71.1250  223.5620 C   0  0  0  0  0  0  0  0  0  0  0  0
  139.9930   70.4380  222.3650 C   0  0  0  0  0  0  0  0  0  0  0  0
  140.5910   71.5350  221.4720 C   0  0  0  0  0  0  0  0  0  0  0  0
  139.6470   72.6430  221.5810 N   0  0  0  0  0  0  0  0  0  0  0  0
  140.0270   74.0030  221.5210 C   0  0  0  0  0  0  0  0  0  0  0  0
  139.1080   74.8740  221.6230 O   0  0  0  0  0  0  0  0  0  0  0  0
  141.3970   74.4850  221.3530 C   0  0  2  0  0  0  0  0  0  0  0  0
  141.4400   75.9480  221.3970 N   0  0  0  0  0  0  0  0  0  0  0  0
  141.8480   74.1390  219.9260 C   0  0  0  0  0  0  0  0  0  0  0  0
  143.2460   73.6420  220.0750 C   0  0  0  0  0  0  0  0  0  0  0  0
  144.2830   74.4660  220.4750 C   0  0  0  0  0  0  0  0  0  0  0  0
  145.5490   73.9000  220.5740 C   0  0  0  0  0  0  0  0  0  0  0  0
  145.7460   72.5520  220.2780 C   0  0  0  0  0  0  0  0  0  0  0  0
  144.7290   71.7320  219.8820 C   0  0  0  0  0  0  0  0  0  0  0  0
  144.8890   70.3750  219.5710 N   0  0  0  0  0  0  0  0  0  0  0  0
  143.8710   69.3580  219.7290 C   0  0  0  0  0  0  0  0  0  0  0  0
  143.6230   68.7600  218.3520 C   0  0  0  0  0  0  0  0  0  0  0  0
  144.7990   68.3670  217.7670 O   0  0  0  0  0  0  0  0  0  0  0  0
  145.9290   68.5000  218.5350 C   0  0  0  0  0  0  0  0  0  0  0  0
  146.1780   69.9010  219.0430 C   0  0  0  0  0  0  0  0  0  0  0  0
  143.4650   72.3150  219.7880 C   0  0  0  0  0  0  0  0  0  0  0  0
  138.2440   72.2400  221.7700 C   0  0  0  0  0  0  0  0  0  0  0  0
  138.0700   71.7070  223.1990 C   0  0  0  0  0  0  0  0  0  0  0  0
  137.5988   67.0944  222.6089 H   0  0  0  0  0  0  0  0  0  0  0  0
  136.4886   68.3000  221.8738 H   0  0  0  0  0  0  0  0  0  0  0  0
  138.2607   68.5938  221.8738 H   0  0  0  0  0  0  0  0  0  0  0  0
  136.9234   69.9015  223.6450 H   0  0  0  0  0  0  0  0  0  0  0  0
  136.6024   68.3551  224.4549 H   0  0  0  0  0  0  0  0  0  0  0  0
  140.7261   72.2089  225.2392 H   0  0  0  0  0  0  0  0  0  0  0  0
  141.8018   72.8012  227.4016 H   0  0  0  0  0  0  0  0  0  0  0  0
  141.5304   71.1931  229.3104 H   0  0  0  0  0  0  0  0  0  0  0  0
  140.2362   69.1096  229.0187 H   0  0  0  0  0  0  0  0  0  0  0  0
  139.1787   68.5524  226.8501 H   0  0  0  0  0  0  0  0  0  0  0  0
  140.0288   71.9677  223.9040 H   0  0  0  0  0  0  0  0  0  0  0  0
  140.7783   69.7340  222.6775 H   0  0  0  0  0  0  0  0  0  0  0  0
  139.2247   69.8648  221.8255 H   0  0  0  0  0  0  0  0  0  0  0  0
  141.5857   71.8334  221.8346 H   0  0  0  0  0  0  0  0  0  0  0  0
  140.7300   71.2018  220.4329 H   0  0  0  0  0  0  0  0  0  0  0  0
  142.0165   74.0369  222.1439 H   0  0  0  0  0  0  0  0  0  0  0  0
  140.5350   76.2730  221.7730 H   0  0  0  0  0  0  0  0  0  0  0  0
  142.1730   76.2760  222.0810 H   0  0  0  0  0  0  0  0  0  0  0  0
  141.2037   73.3585  219.4951 H   0  0  0  0  0  0  0  0  0  0  0  0
  141.7864   75.0053  219.2509 H   0  0  0  0  0  0  0  0  0  0  0  0
  144.1124   75.5279  220.7058 H   0  0  0  0  0  0  0  0  0  0  0  0
  146.4014   74.5203  220.8882 H   0  0  0  0  0  0  0  0  0  0  0  0
  146.7593   72.1333  220.3669 H   0  0  0  0  0  0  0  0  0  0  0  0
  144.2200   68.5785  220.4222 H   0  0  0  0  0  0  0  0  0  0  0  0
  142.9470   69.7881  220.1427 H   0  0  0  0  0  0  0  0  0  0  0  0
  142.9622   67.8864  218.4531 H   0  0  0  0  0  0  0  0  0  0  0  0
  143.1550   69.5264  217.7167 H   0  0  0  0  0  0  0  0  0  0  0  0
  145.8355   67.8310  219.4031 H   0  0  0  0  0  0  0  0  0  0  0  0
  146.7805   68.2455  217.8868 H   0  0  0  0  0  0  0  0  0  0  0  0
  146.9366   69.8897  219.8395 H   0  0  0  0  0  0  0  0  0  0  0  0
  146.5533   70.5586  218.2450 H   0  0  0  0  0  0  0  0  0  0  0  0
  142.6146   71.6921  219.4736 H   0  0  0  0  0  0  0  0  0  0  0  0
  137.5862   73.1082  221.6167 H   0  0  0  0  0  0  0  0  0  0  0  0
  137.9794   71.4567  221.0444 H   0  0  0  0  0  0  0  0  0  0  0  0
  137.8036   72.5232  223.8866 H   0  0  0  0  0  0  0  0  0  0  0  0
  137.2632   70.9624  223.2675 H   0  0  0  0  0  0  0  0  0  0  0  0
  1  2  1  0
  2  3  1  0
  3  4  2  0
  3  5  1  0
  5  6  1  0
  6  7  2  0
  7  8  1  0
  8  9  2  0
  9 10  1  0
 10 11  2  0
  5 12  1  0
 12 13  1  0
 13 14  1  0
 14 15  1  0
 15 16  1  0
 16 17  2  0
 16 18  1  0
 18 19  1  0
 18 20  1  0
 20 21  1  0
 21 22  2  0
 22 23  1  0
 23 24  2  0
 24 25  1  0
 25 26  1  0
 26 27  1  0
 27 28  1  0
 28 29  1  0
 29 30  1  0
 30 31  1  0
 25 32  2  0
 15 33  1  0
 33 34  1  0
 11  6  1  0
 34 12  1  0
 32 21  1  0
 31 26  1  0
  1 35  1  0
  1 36  1  0
  1 37  1  0
  2 38  1  0
  2 39  1  0
  7 40  1  0
  8 41  1  0
  9 42  1  0
 10 43  1  0
 11 44  1  0
 12 45  1  0
 13 46  1  0
 13 47  1  0
 14 48  1  0
 14 49  1  0
 18 50  1  1
 19 51  1  0
 19 52  1  0
 20 53  1  0
 20 54  1  0
 22 55  1  0
 23 56  1  0
 24 57  1  0
 27 58  1  0
 27 59  1  0
 28 60  1  0
 28 61  1  0
 30 62  1  0
 30 63  1  0
 31 64  1  0
 31 65  1  0
 32 66  1  0
 33 67  1  0
 33 68  1  0
 34 69  1  0
 34 70  1  0
M  END
>  <smiles>  (30) 
CCC(=O)N(c1ccccc1)C1CCN(C(=O)[C@H](N)Cc2cccc(N3CCOCC3)c2)CC1

>  <score_type>  (30) 
oracle

>  <origin>  (30) 
autodockgpu

>  <m_score__min__energy>  (30) 
-8.8800000000000008

>  <m_primary>  (30) 
energy

>  <rmsd>  (30) 
7.171627640588573

>  <m_score__min__rmsd>  (30) 
7.171627640588573

>  <meeko>  (30) 
{"free_energy": -8.11, "intermolecular_energy": -10.79, "internal_energy": -2.61, "cluster_size": 20, "cluster_id": 1, "rank_in_cluster": 13}

>  <energy>  (30) 
-8.22

>  <cluster_rmsd>  (30) 
0.9

>  <cluster>  (30) 
3

$$$$

     RDKit          3D

 70 73  0  0  0  0  0  0  0  0999 V2000
  141.4400   82.1790  219.0370 C   0  0  0  0  0  0  0  0  0  0  0  0
  140.7400   80.8210  219.0440 C   0  0  0  0  0  0  0  0  0  0  0  0
  141.8130   79.7890  219.1960 C   0  0  0  0  0  0  0  0  0  0  0  0
  142.7040   79.7880  218.3000 O   0  0  0  0  0  0  0  0  0  0  0  0
  141.8080   78.8730  220.2890 N   0  0  0  0  0  0  0  0  0  0  0  0
  141.9410   79.4040  221.6060 C   0  0  0  0  0  0  0  0  0  0  0  0
  141.4670   78.6100  222.6320 C   0  0  0  0  0  0  0  0  0  0  0  0
  141.5200   78.9820  223.9630 C   0  0  0  0  0  0  0  0  0  0  0  0
  142.0850   80.2190  224.2310 C   0  0  0  0  0  0  0  0  0  0  0  0
  142.5660   81.0230  223.2020 C   0  0  0  0  0  0  0  0  0  0  0  0
  142.5000   80.6270  221.8880 C   0  0  0  0  0  0  0  0  0  0  0  0
  141.6720   77.4660  220.0040 C   0  0  0  0  0  0  0  0  0  0  0  0
  140.4050   77.2880  219.2240 C   0  0  0  0  0  0  0  0  0  0  0  0
  139.9650   75.8300  219.4200 C   0  0  0  0  0  0  0  0  0  0  0  0
  141.2130   75.0740  219.4140 N   0  0  0  0  0  0  0  0  0  0  0  0
  141.4190   73.8970  220.1710 C   0  0  0  0  0  0  0  0  0  0  0  0
  142.5500   73.3280  220.0730 O   0  0  0  0  0  0  0  0  0  0  0  0
  140.4310   73.2870  221.0590 C   0  0  2  0  0  0  0  0  0  0  0  0
  140.3130   74.0490  222.3030 N   0  0  0  0  0  0  0  0  0  0  0  0
  140.9760   71.9220  221.5050 C   0  0  0  0  0  0  0  0  0  0  0  0
  139.9710   71.4060  222.4770 C   0  0  0  0  0  0  0  0  0  0  0  0
  138.6530   71.1740  222.1240 C   0  0  0  0  0  0  0  0  0  0  0  0
  137.7980   70.7000  223.1120 C   0  0  0  0  0  0  0  0  0  0  0  0
  138.2690   70.4720  224.4040 C   0  0  0  0  0  0  0  0  0  0  0  0
  139.5670   70.6990  224.7630 C   0  0  0  0  0  0  0  0  0  0  0  0
  140.0750   70.4870  226.0510 N   0  0  0  0  0  0  0  0  0  0  0  0
  141.0700   71.3140  226.7010 C   0  0  0  0  0  0  0  0  0  0  0  0
  140.4350   71.8580  227.9720 C   0  0  0  0  0  0  0  0  0  0  0  0
  139.8900   70.8470  228.7220 O   0  0  0  0  0  0  0  0  0  0  0  0
  140.0860   69.5730  228.2500 C   0  0  0  0  0  0  0  0  0  0  0  0
  139.5880   69.3460  226.8420 C   0  0  0  0  0  0  0  0  0  0  0  0
  140.4120   71.1740  223.7600 C   0  0  0  0  0  0  0  0  0  0  0  0
  142.2680   75.6340  218.5540 C   0  0  0  0  0  0  0  0  0  0  0  0
  142.8250   76.9020  219.2160 C   0  0  0  0  0  0  0  0  0  0  0  0
  141.6102   82.5091  220.0724 H   0  0  0  0  0  0  0  0  0  0  0  0
  142.4052   82.0913  218.5168 H   0  0  0  0  0  0  0  0  0  0  0  0
  140.8086   82.9143  218.5168 H   0  0  0  0  0  0  0  0  0  0  0  0
  140.0343   80.7619  219.8857 H   0  0  0  0  0  0  0  0  0  0  0  0
  140.1670   80.6648  218.1181 H   0  0  0  0  0  0  0  0  0  0  0  0
  141.0261   77.6347  222.3782 H   0  0  0  0  0  0  0  0  0  0  0  0
  141.1356   78.3330  224.7636 H   0  0  0  0  0  0  0  0  0  0  0  0
  142.1541   80.5699  225.2712 H   0  0  0  0  0  0  0  0  0  0  0  0
  143.0098   81.9993  223.4466 H   0  0  0  0  0  0  0  0  0  0  0  0
  142.8842   81.2715  221.0837 H   0  0  0  0  0  0  0  0  0  0  0  0
  141.6558   76.9212  220.9595 H   0  0  0  0  0  0  0  0  0  0  0  0
  139.6295   77.9715  219.6001 H   0  0  0  0  0  0  0  0  0  0  0  0
  140.5621   77.5133  218.1588 H   0  0  0  0  0  0  0  0  0  0  0  0
  139.4392   75.7069  220.3783 H   0  0  0  0  0  0  0  0  0  0  0  0
  139.2654   75.4933  218.6408 H   0  0  0  0  0  0  0  0  0  0  0  0
  139.4726   73.2373  220.5215 H   0  0  0  0  0  0  0  0  0  0  0  0
  140.3620   75.0510  222.0580 H   0  0  0  0  0  0  0  0  0  0  0  0
  139.3630   73.9020  222.7370 H   0  0  0  0  0  0  0  0  0  0  0  0
  141.0671   71.2421  220.6451 H   0  0  0  0  0  0  0  0  0  0  0  0
  141.9788   72.0021  221.9499 H   0  0  0  0  0  0  0  0  0  0  0  0
  138.2956   71.3578  221.1000 H   0  0  0  0  0  0  0  0  0  0  0  0
  136.7425   70.5034  222.8727 H   0  0  0  0  0  0  0  0  0  0  0  0
  137.5684   70.0948  225.1635 H   0  0  0  0  0  0  0  0  0  0  0  0
  141.9571   70.7129  226.9493 H   0  0  0  0  0  0  0  0  0  0  0  0
  141.3914   72.1333  226.0411 H   0  0  0  0  0  0  0  0  0  0  0  0
  141.2044   72.3722  228.5667 H   0  0  0  0  0  0  0  0  0  0  0  0
  139.6332   72.5568  227.6913 H   0  0  0  0  0  0  0  0  0  0  0  0
  141.1650   69.3601  228.2719 H   0  0  0  0  0  0  0  0  0  0  0  0
  139.5038   68.9039  228.9007 H   0  0  0  0  0  0  0  0  0  0  0  0
  139.9902   68.4038  226.4415 H   0  0  0  0  0  0  0  0  0  0  0  0
  138.4910   69.2720  226.8095 H   0  0  0  0  0  0  0  0  0  0  0  0
  141.4669   71.3699  224.0027 H   0  0  0  0  0  0  0  0  0  0  0  0
  143.0748   74.8965  218.4308 H   0  0  0  0  0  0  0  0  0  0  0  0
  141.8529   75.8801  217.5655 H   0  0  0  0  0  0  0  0  0  0  0  0
  143.6645   76.6540  219.8821 H   0  0  0  0  0  0  0  0  0  0  0  0
  143.2119   77.6192  218.4771 H   0  0  0  0  0  0  0  0  0  0  0  0
  1  2  1  0
  2  3  1  0
  3  4  2  0
  3  5  1  0
  5  6  1  0
  6  7  2  0
  7  8  1  0
  8  9  2  0
  9 10  1  0
 10 11  2  0
  5 12  1  0
 12 13  1  0
 13 14  1  0
 14 15  1  0
 15 16  1  0
 16 17  2  0
 16 18  1  0
 18 19  1  0
 18 20  1  0
 20 21  1  0
 21 22  2  0
 22 23  1  0
 23 24  2  0
 24 25  1  0
 25 26  1  0
 26 27  1  0
 27 28  1  0
 28 29  1  0
 29 30  1  0
 30 31  1  0
 25 32  2  0
 15 33  1  0
 33 34  1  0
 11  6  1  0
 34 12  1  0
 32 21  1  0
 31 26  1  0
  1 35  1  0
  1 36  1  0
  1 37  1  0
  2 38  1  0
  2 39  1  0
  7 40  1  0
  8 41  1  0
  9 42  1  0
 10 43  1  0
 11 44  1  0
 12 45  1  0
 13 46  1  0
 13 47  1  0
 14 48  1  0
 14 49  1  0
 18 50  1  6
 19 51  1  0
 19 52  1  0
 20 53  1  0
 20 54  1  0
 22 55  1  0
 23 56  1  0
 24 57  1  0
 27 58  1  0
 27 59  1  0
 28 60  1  0
 28 61  1  0
 30 62  1  0
 30 63  1  0
 31 64  1  0
 31 65  1  0
 32 66  1  0
 33 67  1  0
 33 68  1  0
 34 69  1  0
 34 70  1  0
M  END
>  <smiles>  (31) 
CCC(=O)N(c1ccccc1)C1CCN(C(=O)[C@H](N)Cc2cccc(N3CCOCC3)c2)CC1

>  <score_type>  (31) 
oracle

>  <origin>  (31) 
autodockgpu

>  <m_score__min__energy>  (31) 
-8.8800000000000008

>  <m_primary>  (31) 
energy

>  <rmsd>  (31) 
5.38765652223791

>  <m_score__min__rmsd>  (31) 
5.38765652223791

>  <meeko>  (31) 
{"free_energy": -8.12, "intermolecular_energy": -10.8, "internal_energy": -1.92, "cluster_size": 6, "cluster_id": 3, "rank_in_cluster": 6}

>  <energy>  (31) 
-8.2

>  <cluster_rmsd>  (31) 
0.84

>  <cluster>  (31) 
3

$$$$

     RDKit          3D

 70 73  0  0  0  0  0  0  0  0999 V2000
  136.4990   70.3500  224.6030 C   0  0  0  0  0  0  0  0  0  0  0  0
  137.2250   69.0060  224.5990 C   0  0  0  0  0  0  0  0  0  0  0  0
  138.5480   69.2380  223.9360 C   0  0  0  0  0  0  0  0  0  0  0  0
  138.9240   68.3390  223.1310 O   0  0  0  0  0  0  0  0  0  0  0  0
  139.3180   70.4060  224.2130 N   0  0  0  0  0  0  0  0  0  0  0  0
  139.8850   70.5400  225.5140 C   0  0  0  0  0  0  0  0  0  0  0  0
  140.6220   71.6860  225.7410 C   0  0  0  0  0  0  0  0  0  0  0  0
  141.2380   71.9630  226.9480 C   0  0  0  0  0  0  0  0  0  0  0  0
  141.0790   71.0150  227.9480 C   0  0  0  0  0  0  0  0  0  0  0  0
  140.3380   69.8590  227.7260 C   0  0  0  0  0  0  0  0  0  0  0  0
  139.7360   69.6110  226.5160 C   0  0  0  0  0  0  0  0  0  0  0  0
  139.4780   71.3840  223.1660 C   0  0  0  0  0  0  0  0  0  0  0  0
  140.3050   70.7550  222.0870 C   0  0  0  0  0  0  0  0  0  0  0  0
  140.9490   71.9020  221.2950 C   0  0  0  0  0  0  0  0  0  0  0  0
  139.9110   72.9260  221.2370 N   0  0  0  0  0  0  0  0  0  0  0  0
  140.1810   74.3140  221.2280 C   0  0  0  0  0  0  0  0  0  0  0  0
  139.1890   75.1040  221.1700 O   0  0  0  0  0  0  0  0  0  0  0  0
  141.5140   74.9100  221.2830 C   0  0  2  0  0  0  0  0  0  0  0  0
  141.4320   76.3360  221.6030 N   0  0  0  0  0  0  0  0  0  0  0  0
  142.1060   74.8770  219.8660 C   0  0  0  0  0  0  0  0  0  0  0  0
  143.4290   74.2060  220.0170 C   0  0  0  0  0  0  0  0  0  0  0  0
  144.5490   74.8780  220.4720 C   0  0  0  0  0  0  0  0  0  0  0  0
  145.7340   74.1580  220.5680 C   0  0  0  0  0  0  0  0  0  0  0  0
  145.7720   72.8090  220.2160 C   0  0  0  0  0  0  0  0  0  0  0  0
  144.6720   72.1380  219.7650 C   0  0  0  0  0  0  0  0  0  0  0  0
  144.6730   70.7860  219.3960 N   0  0  0  0  0  0  0  0  0  0  0  0
  145.5950   70.1770  218.4610 C   0  0  0  0  0  0  0  0  0  0  0  0
  146.3360   69.0840  219.2160 C   0  0  0  0  0  0  0  0  0  0  0  0
  145.4600   68.2420  219.8500 O   0  0  0  0  0  0  0  0  0  0  0  0
  144.1260   68.4800  219.6260 C   0  0  0  0  0  0  0  0  0  0  0  0
  143.6730   69.8770  219.9780 C   0  0  0  0  0  0  0  0  0  0  0  0
  143.4910   72.8750  219.6740 C   0  0  0  0  0  0  0  0  0  0  0  0
  138.5350   72.4070  221.1960 C   0  0  0  0  0  0  0  0  0  0  0  0
  138.1720   71.8550  222.5820 C   0  0  0  0  0  0  0  0  0  0  0  0
  136.3260   70.6702  225.6410 H   0  0  0  0  0  0  0  0  0  0  0  0
  137.1143   71.1007  224.0854 H   0  0  0  0  0  0  0  0  0  0  0  0
  135.5339   70.2469  224.0854 H   0  0  0  0  0  0  0  0  0  0  0  0
  137.3736   68.6515  225.6297 H   0  0  0  0  0  0  0  0  0  0  0  0
  136.6419   68.2410  224.0654 H   0  0  0  0  0  0  0  0  0  0  0  0
  140.7239   72.4135  224.9222 H   0  0  0  0  0  0  0  0  0  0  0  0
  141.8207   72.8825  227.1059 H   0  0  0  0  0  0  0  0  0  0  0  0
  141.5455   71.1797  228.9305 H   0  0  0  0  0  0  0  0  0  0  0  0
  140.2313   69.1255  228.5388 H   0  0  0  0  0  0  0  0  0  0  0  0
  139.1507   68.6939  226.3536 H   0  0  0  0  0  0  0  0  0  0  0  0
  139.9602   72.2732  223.5982 H   0  0  0  0  0  0  0  0  0  0  0  0
  141.0838   70.1171  222.5303 H   0  0  0  0  0  0  0  0  0  0  0  0
  139.6858   70.1233  221.4332 H   0  0  0  0  0  0  0  0  0  0  0  0
  141.8419   72.2809  221.8139 H   0  0  0  0  0  0  0  0  0  0  0  0
  141.2852   71.5867  220.2962 H   0  0  0  0  0  0  0  0  0  0  0  0
  142.1026   74.3598  222.0319 H   0  0  0  0  0  0  0  0  0  0  0  0
  142.2660   76.7920  221.2000 H   0  0  0  0  0  0  0  0  0  0  0  0
  140.6010   76.7750  221.1240 H   0  0  0  0  0  0  0  0  0  0  0  0
  141.4564   74.3032  219.1887 H   0  0  0  0  0  0  0  0  0  0  0  0
  142.2000   75.8840  219.4335 H   0  0  0  0  0  0  0  0  0  0  0  0
  144.5036   75.9420  220.7475 H   0  0  0  0  0  0  0  0  0  0  0  0
  146.6481   74.6556  220.9240 H   0  0  0  0  0  0  0  0  0  0  0  0
  146.7241   72.2653  220.3051 H   0  0  0  0  0  0  0  0  0  0  0  0
  145.0430   69.7436  217.6140 H   0  0  0  0  0  0  0  0  0  0  0  0
  146.2972   70.9226  218.0598 H   0  0  0  0  0  0  0  0  0  0  0  0
  146.9417   68.5032  218.5048 H   0  0  0  0  0  0  0  0  0  0  0  0
  146.9777   69.5564  219.9743 H   0  0  0  0  0  0  0  0  0  0  0  0
  143.9210   68.3107  218.5586 H   0  0  0  0  0  0  0  0  0  0  0  0
  143.5706   67.7952  220.2837 H   0  0  0  0  0  0  0  0  0  0  0  0
  142.6798   70.0762  219.5491 H   0  0  0  0  0  0  0  0  0  0  0  0
  143.5910   70.0118  221.0666 H   0  0  0  0  0  0  0  0  0  0  0  0
  142.5788   72.3753  219.3160 H   0  0  0  0  0  0  0  0  0  0  0  0
  137.8419   73.2181  220.9281 H   0  0  0  0  0  0  0  0  0  0  0  0
  138.4597   71.6075  220.4442 H   0  0  0  0  0  0  0  0  0  0  0  0
  137.7297   72.6433  223.2088 H   0  0  0  0  0  0  0  0  0  0  0  0
  137.4288   71.0461  222.5238 H   0  0  0  0  0  0  0  0  0  0  0  0
  1  2  1  0
  2  3  1  0
  3  4  2  0
  3  5  1  0
  5  6  1  0
  6  7  2  0
  7  8  1  0
  8  9  2  0
  9 10  1  0
 10 11  2  0
  5 12  1  0
 12 13  1  0
 13 14  1  0
 14 15  1  0
 15 16  1  0
 16 17  2  0
 16 18  1  0
 18 19  1  0
 18 20  1  0
 20 21  1  0
 21 22  2  0
 22 23  1  0
 23 24  2  0
 24 25  1  0
 25 26  1  0
 26 27  1  0
 27 28  1  0
 28 29  1  0
 29 30  1  0
 30 31  1  0
 25 32  2  0
 15 33  1  0
 33 34  1  0
 11  6  1  0
 34 12  1  0
 32 21  1  0
 31 26  1  0
  1 35  1  0
  1 36  1  0
  1 37  1  0
  2 38  1  0
  2 39  1  0
  7 40  1  0
  8 41  1  0
  9 42  1  0
 10 43  1  0
 11 44  1  0
 12 45  1  0
 13 46  1  0
 13 47  1  0
 14 48  1  0
 14 49  1  0
 18 50  1  1
 19 51  1  0
 19 52  1  0
 20 53  1  0
 20 54  1  0
 22 55  1  0
 23 56  1  0
 24 57  1  0
 27 58  1  0
 27 59  1  0
 28 60  1  0
 28 61  1  0
 30 62  1  0
 30 63  1  0
 31 64  1  0
 31 65  1  0
 32 66  1  0
 33 67  1  0
 33 68  1  0
 34 69  1  0
 34 70  1  0
M  END
>  <smiles>  (32) 
CCC(=O)N(c1ccccc1)C1CCN(C(=O)[C@H](N)Cc2cccc(N3CCOCC3)c2)CC1

>  <score_type>  (32) 
oracle

>  <origin>  (32) 
autodockgpu

>  <m_score__min__energy>  (32) 
-8.8800000000000008

>  <m_primary>  (32) 
energy

>  <rmsd>  (32) 
6.936089571785538

>  <m_score__min__rmsd>  (32) 
6.936089571785538

>  <meeko>  (32) 
{"free_energy": -8.02, "intermolecular_energy": -10.71, "internal_energy": -2.71, "cluster_size": 20, "cluster_id": 1, "rank_in_cluster": 15}

>  <energy>  (32) 
-8.16

>  <cluster_rmsd>  (32) 
1.89

>  <cluster>  (32) 
3

$$$$

     RDKit          3D

 70 73  0  0  0  0  0  0  0  0999 V2000
  137.3350   68.1890  222.4530 C   0  0  0  0  0  0  0  0  0  0  0  0
  137.2390   68.8980  223.8020 C   0  0  0  0  0  0  0  0  0  0  0  0
  138.6260   68.9330  224.3650 C   0  0  0  0  0  0  0  0  0  0  0  0
  139.1580   67.8080  224.5850 O   0  0  0  0  0  0  0  0  0  0  0  0
  139.2850   70.1700  224.6290 N   0  0  0  0  0  0  0  0  0  0  0  0
  139.8410   70.3670  225.9270 C   0  0  0  0  0  0  0  0  0  0  0  0
  140.5980   71.5100  226.0970 C   0  0  0  0  0  0  0  0  0  0  0  0
  141.2070   71.8440  227.2920 C   0  0  0  0  0  0  0  0  0  0  0  0
  141.0200   70.9580  228.3430 C   0  0  0  0  0  0  0  0  0  0  0  0
  140.2580   69.8060  228.1790 C   0  0  0  0  0  0  0  0  0  0  0  0
  139.6640   69.5000  226.9780 C   0  0  0  0  0  0  0  0  0  0  0  0
  139.3500   71.1500  223.5730 C   0  0  0  0  0  0  0  0  0  0  0  0
  140.0090   70.4980  222.3960 C   0  0  0  0  0  0  0  0  0  0  0  0
  140.5910   71.6260  221.5320 C   0  0  0  0  0  0  0  0  0  0  0  0
  139.5960   72.6900  221.6110 N   0  0  0  0  0  0  0  0  0  0  0  0
  139.9170   74.0660  221.5720 C   0  0  0  0  0  0  0  0  0  0  0  0
  138.9580   74.8950  221.6430 O   0  0  0  0  0  0  0  0  0  0  0  0
  141.2700   74.6100  221.4590 C   0  0  2  0  0  0  0  0  0  0  0  0
  141.2690   76.0550  221.6950 N   0  0  0  0  0  0  0  0  0  0  0  0
  141.7160   74.4680  219.9960 C   0  0  0  0  0  0  0  0  0  0  0  0
  143.0980   73.9120  220.0680 C   0  0  0  0  0  0  0  0  0  0  0  0
  144.1840   74.6810  220.4480 C   0  0  0  0  0  0  0  0  0  0  0  0
  145.4290   74.0640  220.4740 C   0  0  0  0  0  0  0  0  0  0  0  0
  145.5590   72.7190  220.1270 C   0  0  0  0  0  0  0  0  0  0  0  0
  144.4930   71.9530  219.7500 C   0  0  0  0  0  0  0  0  0  0  0  0
  144.5850   70.6020  219.3900 N   0  0  0  0  0  0  0  0  0  0  0  0
  145.5890   70.0400  218.5120 C   0  0  0  0  0  0  0  0  0  0  0  0
  146.3420   68.9880  219.3140 C   0  0  0  0  0  0  0  0  0  0  0  0
  145.4750   68.1040  219.9030 O   0  0  0  0  0  0  0  0  0  0  0  0
  144.1470   68.2710  219.6020 C   0  0  0  0  0  0  0  0  0  0  0  0
  143.6020   69.6440  219.9200 C   0  0  0  0  0  0  0  0  0  0  0  0
  143.2500   72.5870  219.7300 C   0  0  0  0  0  0  0  0  0  0  0  0
  138.2060   72.2250  221.7430 C   0  0  0  0  0  0  0  0  0  0  0  0
  138.0010   71.6760  223.1610 C   0  0  0  0  0  0  0  0  0  0  0  0
  137.4810   67.1108  222.6150 H   0  0  0  0  0  0  0  0  0  0  0  0
  136.4066   68.3522  221.8861 H   0  0  0  0  0  0  0  0  0  0  0  0
  138.1866   68.5932  221.8861 H   0  0  0  0  0  0  0  0  0  0  0  0
  136.8580   69.9210  223.6671 H   0  0  0  0  0  0  0  0  0  0  0  0
  136.5488   68.3728  224.4786 H   0  0  0  0  0  0  0  0  0  0  0  0
  140.7222   72.1875  225.2393 H   0  0  0  0  0  0  0  0  0  0  0  0
  141.8057   72.7600  227.4033 H   0  0  0  0  0  0  0  0  0  0  0  0
  141.4806   71.1694  229.3193 H   0  0  0  0  0  0  0  0  0  0  0  0
  140.1276   69.1231  229.0314 H   0  0  0  0  0  0  0  0  0  0  0  0
  139.0633   68.5859  226.8614 H   0  0  0  0  0  0  0  0  0  0  0  0
  139.9176   72.0165  223.9432 H   0  0  0  0  0  0  0  0  0  0  0  0
  140.8126   69.8278  222.7352 H   0  0  0  0  0  0  0  0  0  0  0  0
  139.2883   69.8948  221.8243 H   0  0  0  0  0  0  0  0  0  0  0  0
  141.5573   71.9654  221.9334 H   0  0  0  0  0  0  0  0  0  0  0  0
  140.7835   71.3064  220.4972 H   0  0  0  0  0  0  0  0  0  0  0  0
  141.9116   74.0823  222.1800 H   0  0  0  0  0  0  0  0  0  0  0  0
  140.4740   76.2660  222.3190 H   0  0  0  0  0  0  0  0  0  0  0  0
  142.1370   76.3440  222.2210 H   0  0  0  0  0  0  0  0  0  0  0  0
  141.0502   73.7807  219.4535 H   0  0  0  0  0  0  0  0  0  0  0  0
  141.6831   75.4271  219.4583 H   0  0  0  0  0  0  0  0  0  0  0  0
  144.0662   75.7405  220.7192 H   0  0  0  0  0  0  0  0  0  0  0  0
  146.3180   74.6401  220.7702 H   0  0  0  0  0  0  0  0  0  0  0  0
  146.5574   72.2583  220.1582 H   0  0  0  0  0  0  0  0  0  0  0  0
  145.1094   69.5766  217.6372 H   0  0  0  0  0  0  0  0  0  0  0  0
  146.2733   70.8203  218.1475 H   0  0  0  0  0  0  0  0  0  0  0  0
  147.0154   68.4368  218.6411 H   0  0  0  0  0  0  0  0  0  0  0  0
  146.9157   69.4946  220.1041 H   0  0  0  0  0  0  0  0  0  0  0  0
  144.0128   68.0886  218.5256 H   0  0  0  0  0  0  0  0  0  0  0  0
  143.5911   67.5597  220.2305 H   0  0  0  0  0  0  0  0  0  0  0  0
  142.6258   69.7898  219.4345 H   0  0  0  0  0  0  0  0  0  0  0  0
  143.4511   69.7776  221.0014 H   0  0  0  0  0  0  0  0  0  0  0  0
  142.3625   72.0083  219.4343 H   0  0  0  0  0  0  0  0  0  0  0  0
  137.5171   73.0646  221.5684 H   0  0  0  0  0  0  0  0  0  0  0  0
  138.0040   71.4358  221.0038 H   0  0  0  0  0  0  0  0  0  0  0  0
  137.6733   72.4755  223.8417 H   0  0  0  0  0  0  0  0  0  0  0  0
  137.2254   70.8967  223.1946 H   0  0  0  0  0  0  0  0  0  0  0  0
  1  2  1  0
  2  3  1  0
  3  4  2  0
  3  5  1  0
  5  6  1  0
  6  7  2  0
  7  8  1  0
  8  9  2  0
  9 10  1  0
 10 11  2  0
  5 12  1  0
 12 13  1  0
 13 14  1  0
 14 15  1  0
 15 16  1  0
 16 17  2  0
 16 18  1  0
 18 19  1  0
 18 20  1  0
 20 21  1  0
 21 22  2  0
 22 23  1  0
 23 24  2  0
 24 25  1  0
 25 26  1  0
 26 27  1  0
 27 28  1  0
 28 29  1  0
 29 30  1  0
 30 31  1  0
 25 32  2  0
 15 33  1  0
 33 34  1  0
 11  6  1  0
 34 12  1  0
 32 21  1  0
 31 26  1  0
  1 35  1  0
  1 36  1  0
  1 37  1  0
  2 38  1  0
  2 39  1  0
  7 40  1  0
  8 41  1  0
  9 42  1  0
 10 43  1  0
 11 44  1  0
 12 45  1  0
 13 46  1  0
 13 47  1  0
 14 48  1  0
 14 49  1  0
 18 50  1  1
 19 51  1  0
 19 52  1  0
 20 53  1  0
 20 54  1  0
 22 55  1  0
 23 56  1  0
 24 57  1  0
 27 58  1  0
 27 59  1  0
 28 60  1  0
 28 61  1  0
 30 62  1  0
 30 63  1  0
 31 64  1  0
 31 65  1  0
 32 66  1  0
 33 67  1  0
 33 68  1  0
 34 69  1  0
 34 70  1  0
M  END
>  <smiles>  (33) 
CCC(=O)N(c1ccccc1)C1CCN(C(=O)[C@H](N)Cc2cccc(N3CCOCC3)c2)CC1

>  <score_type>  (33) 
oracle

>  <origin>  (33) 
autodockgpu

>  <m_score__min__energy>  (33) 
-8.8800000000000008

>  <m_primary>  (33) 
energy

>  <rmsd>  (33) 
7.117254718008138

>  <m_score__min__rmsd>  (33) 
7.117254718008138

>  <meeko>  (33) 
{"free_energy": -8.79, "intermolecular_energy": -11.48, "internal_energy": -2.6, "cluster_size": 20, "cluster_id": 1, "rank_in_cluster": 2}

>  <energy>  (33) 
-8.12

>  <cluster_rmsd>  (33) 
1.04

>  <cluster>  (33) 
3

$$$$

     RDKit          3D

 70 73  0  0  0  0  0  0  0  0999 V2000
  141.0670   67.4470  226.4850 C   0  0  0  0  0  0  0  0  0  0  0  0
  139.5520   67.6430  226.4690 C   0  0  0  0  0  0  0  0  0  0  0  0
  139.2250   68.3310  225.1810 C   0  0  0  0  0  0  0  0  0  0  0  0
  138.8670   67.5780  224.2310 O   0  0  0  0  0  0  0  0  0  0  0  0
  139.3200   69.7480  225.0550 N   0  0  0  0  0  0  0  0  0  0  0  0
  139.9580   70.4710  226.1050 C   0  0  0  0  0  0  0  0  0  0  0  0
  140.9850   71.3140  225.7270 C   0  0  0  0  0  0  0  0  0  0  0  0
  141.7050   72.0810  226.6240 C   0  0  0  0  0  0  0  0  0  0  0  0
  141.3410   71.9650  227.9580 C   0  0  0  0  0  0  0  0  0  0  0  0
  140.3070   71.1190  228.3460 C   0  0  0  0  0  0  0  0  0  0  0  0
  139.6090   70.3690  227.4300 C   0  0  0  0  0  0  0  0  0  0  0  0
  138.7650   70.3710  223.8780 C   0  0  0  0  0  0  0  0  0  0  0  0
  139.5480   69.8780  222.7000 C   0  0  0  0  0  0  0  0  0  0  0  0
  139.3750   70.9210  221.5860 C   0  0  0  0  0  0  0  0  0  0  0  0
  137.9850   71.3490  221.7060 N   0  0  0  0  0  0  0  0  0  0  0  0
  137.5410   72.6580  221.4080 C   0  0  0  0  0  0  0  0  0  0  0  0
  136.3040   72.9040  221.5480 O   0  0  0  0  0  0  0  0  0  0  0  0
  138.3980   73.7520  220.9540 C   0  0  2  0  0  0  0  0  0  0  0  0
  139.1410   73.3640  219.7540 N   0  0  0  0  0  0  0  0  0  0  0  0
  139.4870   73.9710  222.0150 C   0  0  0  0  0  0  0  0  0  0  0  0
  140.6090   74.6270  221.2840 C   0  0  0  0  0  0  0  0  0  0  0  0
  140.5240   75.9260  220.8140 C   0  0  0  0  0  0  0  0  0  0  0  0
  141.6270   76.4360  220.1390 C   0  0  0  0  0  0  0  0  0  0  0  0
  142.7670   75.6550  219.9530 C   0  0  0  0  0  0  0  0  0  0  0  0
  142.8590   74.3720  220.4130 C   0  0  0  0  0  0  0  0  0  0  0  0
  143.9840   73.5550  220.2420 N   0  0  0  0  0  0  0  0  0  0  0  0
  144.0180   72.3360  219.4610 C   0  0  0  0  0  0  0  0  0  0  0  0
  145.0620   72.5340  218.3730 C   0  0  0  0  0  0  0  0  0  0  0  0
  146.2530   72.9570  218.9040 O   0  0  0  0  0  0  0  0  0  0  0  0
  146.3080   73.0370  220.2730 C   0  0  0  0  0  0  0  0  0  0  0  0
  145.2520   73.9250  220.8890 C   0  0  0  0  0  0  0  0  0  0  0  0
  141.7440   73.8750  221.0890 C   0  0  0  0  0  0  0  0  0  0  0  0
  137.0580   70.3070  222.1760 C   0  0  0  0  0  0  0  0  0  0  0  0
  137.3060   70.0620  223.6710 C   0  0  0  0  0  0  0  0  0  0  0  0
  141.4198   67.4014  227.5259 H   0  0  0  0  0  0  0  0  0  0  0  0
  141.3208   66.5085  225.9703 H   0  0  0  0  0  0  0  0  0  0  0  0
  141.5512   68.2900  225.9703 H   0  0  0  0  0  0  0  0  0  0  0  0
  139.0425   66.6694  226.5195 H   0  0  0  0  0  0  0  0  0  0  0  0
  139.2191   68.2374  227.3326 H   0  0  0  0  0  0  0  0  0  0  0  0
  141.2427   71.3782  224.6595 H   0  0  0  0  0  0  0  0  0  0  0  0
  142.5195   72.7450  226.2989 H   0  0  0  0  0  0  0  0  0  0  0  0
  141.8776   72.5502  228.7194 H   0  0  0  0  0  0  0  0  0  0  0  0
  140.0418   71.0487  229.4112 H   0  0  0  0  0  0  0  0  0  0  0  0
  138.7925   69.7046  227.7492 H   0  0  0  0  0  0  0  0  0  0  0  0
  138.8346   71.4620  224.0001 H   0  0  0  0  0  0  0  0  0  0  0  0
  140.6109   69.7801  222.9657 H   0  0  0  0  0  0  0  0  0  0  0  0
  139.1921   68.8894  222.3746 H   0  0  0  0  0  0  0  0  0  0  0  0
  140.0585   71.7695  221.7370 H   0  0  0  0  0  0  0  0  0  0  0  0
  139.6053   70.5146  220.5901 H   0  0  0  0  0  0  0  0  0  0  0  0
  137.7620   74.6306  220.7709 H   0  0  0  0  0  0  0  0  0  0  0  0
  139.1760   72.3320  219.7320 H   0  0  0  0  0  0  0  0  0  0  0  0
  138.6180   73.6560  218.8850 H   0  0  0  0  0  0  0  0  0  0  0  0
  139.1169   74.6221  222.8207 H   0  0  0  0  0  0  0  0  0  0  0  0
  139.7974   73.0288  222.4902 H   0  0  0  0  0  0  0  0  0  0  0  0
  139.6187   76.5314  220.9686 H   0  0  0  0  0  0  0  0  0  0  0  0
  141.6003   77.4640  219.7485 H   0  0  0  0  0  0  0  0  0  0  0  0
  143.6239   76.0879  219.4161 H   0  0  0  0  0  0  0  0  0  0  0  0
  144.2956   71.4852  220.1006 H   0  0  0  0  0  0  0  0  0  0  0  0
  143.0314   72.1220  219.0241 H   0  0  0  0  0  0  0  0  0  0  0  0
  145.2207   71.5798  217.8493 H   0  0  0  0  0  0  0  0  0  0  0  0
  144.6980   73.3020  217.6746 H   0  0  0  0  0  0  0  0  0  0  0  0
  146.1864   72.0232  220.6821 H   0  0  0  0  0  0  0  0  0  0  0  0
  147.2806   73.4862  220.5225 H   0  0  0  0  0  0  0  0  0  0  0  0
  145.1924   73.7522  221.9737 H   0  0  0  0  0  0  0  0  0  0  0  0
  145.4844   74.9899  220.7410 H   0  0  0  0  0  0  0  0  0  0  0  0
  141.7738   72.8470  221.4792 H   0  0  0  0  0  0  0  0  0  0  0  0
  136.0205   70.6388  222.0229 H   0  0  0  0  0  0  0  0  0  0  0  0
  137.2240   69.3771  221.6123 H   0  0  0  0  0  0  0  0  0  0  0  0
  136.6790   70.7284  224.2815 H   0  0  0  0  0  0  0  0  0  0  0  0
  137.0544   69.0335  223.9692 H   0  0  0  0  0  0  0  0  0  0  0  0
  1  2  1  0
  2  3  1  0
  3  4  2  0
  3  5  1  0
  5  6  1  0
  6  7  2  0
  7  8  1  0
  8  9  2  0
  9 10  1  0
 10 11  2  0
  5 12  1  0
 12 13  1  0
 13 14  1  0
 14 15  1  0
 15 16  1  0
 16 17  2  0
 16 18  1  0
 18 19  1  0
 18 20  1  0
 20 21  1  0
 21 22  2  0
 22 23  1  0
 23 24  2  0
 24 25  1  0
 25 26  1  0
 26 27  1  0
 27 28  1  0
 28 29  1  0
 29 30  1  0
 30 31  1  0
 25 32  2  0
 15 33  1  0
 33 34  1  0
 11  6  1  0
 34 12  1  0
 32 21  1  0
 31 26  1  0
  1 35  1  0
  1 36  1  0
  1 37  1  0
  2 38  1  0
  2 39  1  0
  7 40  1  0
  8 41  1  0
  9 42  1  0
 10 43  1  0
 11 44  1  0
 12 45  1  0
 13 46  1  0
 13 47  1  0
 14 48  1  0
 14 49  1  0
 18 50  1  6
 19 51  1  0
 19 52  1  0
 20 53  1  0
 20 54  1  0
 22 55  1  0
 23 56  1  0
 24 57  1  0
 27 58  1  0
 27 59  1  0
 28 60  1  0
 28 61  1  0
 30 62  1  0
 30 63  1  0
 31 64  1  0
 31 65  1  0
 32 66  1  0
 33 67  1  0
 33 68  1  0
 34 69  1  0
 34 70  1  0
M  END
>  <smiles>  (34) 
CCC(=O)N(c1ccccc1)C1CCN(C(=O)[C@H](N)Cc2cccc(N3CCOCC3)c2)CC1

>  <score_type>  (34) 
oracle

>  <origin>  (34) 
autodockgpu

>  <m_score__min__energy>  (34) 
-8.8800000000000008

>  <m_primary>  (34) 
energy

>  <rmsd>  (34) 
8.07752569163794

>  <m_score__min__rmsd>  (34) 
8.07752569163794

>  <meeko>  (34) 
{"free_energy": -8.22, "intermolecular_energy": -10.9, "internal_energy": -1.8, "cluster_size": 7, "cluster_id": 2, "rank_in_cluster": 2}

>  <energy>  (34) 
-8.32

>  <cluster_rmsd>  (34) 
0.0

>  <cluster>  (34) 
4

$$$$

     RDKit          3D

 70 73  0  0  0  0  0  0  0  0999 V2000
  135.6690   71.1460  222.7940 C   0  0  0  0  0  0  0  0  0  0  0  0
  135.9840   71.1530  224.2880 C   0  0  0  0  0  0  0  0  0  0  0  0
  136.8530   69.9610  224.5460 C   0  0  0  0  0  0  0  0  0  0  0  0
  136.2480   68.8980  224.8600 O   0  0  0  0  0  0  0  0  0  0  0  0
  138.2720   70.0460  224.4390 N   0  0  0  0  0  0  0  0  0  0  0  0
  139.0570   69.4740  225.4840 C   0  0  0  0  0  0  0  0  0  0  0  0
  139.2650   68.1100  225.4130 C   0  0  0  0  0  0  0  0  0  0  0  0
  139.9990   67.4070  226.3490 C   0  0  0  0  0  0  0  0  0  0  0  0
  140.5340   68.1490  227.3910 C   0  0  0  0  0  0  0  0  0  0  0  0
  140.3290   69.5230  227.4690 C   0  0  0  0  0  0  0  0  0  0  0  0
  139.5940   70.1960  226.5230 C   0  0  0  0  0  0  0  0  0  0  0  0
  138.8350   70.7040  223.2860 C   0  0  0  0  0  0  0  0  0  0  0  0
  140.0330   71.4750  223.7500 C   0  0  0  0  0  0  0  0  0  0  0  0
  140.2710   72.5870  222.7190 C   0  0  0  0  0  0  0  0  0  0  0  0
  139.9680   71.9600  221.4370 N   0  0  0  0  0  0  0  0  0  0  0  0
  139.4120   72.6540  220.3380 C   0  0  0  0  0  0  0  0  0  0  0  0
  139.2020   71.9950  219.2730 O   0  0  0  0  0  0  0  0  0  0  0  0
  139.0590   74.0720  220.3330 C   0  0  2  0  0  0  0  0  0  0  0  0
  138.6900   74.5100  218.9850 N   0  0  0  0  0  0  0  0  0  0  0  0
  140.3270   74.8770  220.6560 C   0  0  0  0  0  0  0  0  0  0  0  0
  139.8550   76.0190  221.4890 C   0  0  0  0  0  0  0  0  0  0  0  0
  138.5850   76.0580  222.0380 C   0  0  0  0  0  0  0  0  0  0  0  0
  138.2470   77.1750  222.7920 C   0  0  0  0  0  0  0  0  0  0  0  0
  139.1650   78.2070  222.9790 C   0  0  0  0  0  0  0  0  0  0  0  0
  140.4200   78.1790  222.4410 C   0  0  0  0  0  0  0  0  0  0  0  0
  141.3680   79.1980  222.6020 N   0  0  0  0  0  0  0  0  0  0  0  0
  141.7260   80.1700  221.5910 C   0  0  0  0  0  0  0  0  0  0  0  0
  141.4170   81.5440  222.1660 C   0  0  0  0  0  0  0  0  0  0  0  0
  141.9910   81.7020  223.4010 O   0  0  0  0  0  0  0  0  0  0  0  0
  142.7790   80.6660  223.8370 C   0  0  0  0  0  0  0  0  0  0  0  0
  142.0810   79.3270  223.8820 C   0  0  0  0  0  0  0  0  0  0  0  0
  140.7450   77.0500  221.6870 C   0  0  0  0  0  0  0  0  0  0  0  0
  140.2810   70.5240  221.3650 C   0  0  0  0  0  0  0  0  0  0  0  0
  139.2490   69.7500  222.1960 C   0  0  0  0  0  0  0  0  0  0  0  0
  134.5788   71.1218  222.6492 H   0  0  0  0  0  0  0  0  0  0  0  0
  136.0807   72.0535  222.3282 H   0  0  0  0  0  0  0  0  0  0  0  0
  136.1206   70.2577  222.3282 H   0  0  0  0  0  0  0  0  0  0  0  0
  136.5159   72.0767  224.5597 H   0  0  0  0  0  0  0  0  0  0  0  0
  135.0633   71.1109  224.8884 H   0  0  0  0  0  0  0  0  0  0  0  0
  138.8248   67.5568  224.5703 H   0  0  0  0  0  0  0  0  0  0  0  0
  140.1503   66.3202  226.2719 H   0  0  0  0  0  0  0  0  0  0  0  0
  141.1287   67.6444  228.1667 H   0  0  0  0  0  0  0  0  0  0  0  0
  140.7659   70.0841  228.3083 H   0  0  0  0  0  0  0  0  0  0  0  0
  139.4396   71.2827  226.5952 H   0  0  0  0  0  0  0  0  0  0  0  0
  138.0620   71.3539  222.8500 H   0  0  0  0  0  0  0  0  0  0  0  0
  139.8415   71.9121  224.7411 H   0  0  0  0  0  0  0  0  0  0  0  0
  140.9137   70.8217  223.8365 H   0  0  0  0  0  0  0  0  0  0  0  0
  139.6012   73.4397  222.9038 H   0  0  0  0  0  0  0  0  0  0  0  0
  141.2951   72.9864  222.7601 H   0  0  0  0  0  0  0  0  0  0  0  0
  138.2356   74.2209  221.0470 H   0  0  0  0  0  0  0  0  0  0  0  0
  139.5660   74.6710  218.4620 H   0  0  0  0  0  0  0  0  0  0  0  0
  138.1820   73.7410  218.4730 H   0  0  0  0  0  0  0  0  0  0  0  0
  141.0448   74.2600  221.2164 H   0  0  0  0  0  0  0  0  0  0  0  0
  140.8458   75.2146  219.7467 H   0  0  0  0  0  0  0  0  0  0  0  0
  137.8706   75.2360  221.8833 H   0  0  0  0  0  0  0  0  0  0  0  0
  137.2470   77.2454  223.2449 H   0  0  0  0  0  0  0  0  0  0  0  0
  138.8674   79.0770  223.5828 H   0  0  0  0  0  0  0  0  0  0  0  0
  142.7974   80.0917  221.3543 H   0  0  0  0  0  0  0  0  0  0  0  0
  141.1618   79.9969  220.6627 H   0  0  0  0  0  0  0  0  0  0  0  0
  141.8093   82.3146  221.4861 H   0  0  0  0  0  0  0  0  0  0  0  0
  140.3265   81.6415  222.2722 H   0  0  0  0  0  0  0  0  0  0  0  0
  143.6419   80.5816  223.1600 H   0  0  0  0  0  0  0  0  0  0  0  0
  143.0672   80.9046  224.8714 H   0  0  0  0  0  0  0  0  0  0  0  0
  142.8161   78.5164  223.9933 H   0  0  0  0  0  0  0  0  0  0  0  0
  141.3908   79.2611  224.7360 H   0  0  0  0  0  0  0  0  0  0  0  0
  141.7460   76.9821  221.2360 H   0  0  0  0  0  0  0  0  0  0  0  0
  140.2392   70.1886  220.3182 H   0  0  0  0  0  0  0  0  0  0  0  0
  141.2913   70.3417  221.7602 H   0  0  0  0  0  0  0  0  0  0  0  0
  138.3838   69.4712  221.5765 H   0  0  0  0  0  0  0  0  0  0  0  0
  139.6608   68.8133  222.5998 H   0  0  0  0  0  0  0  0  0  0  0  0
  1  2  1  0
  2  3  1  0
  3  4  2  0
  3  5  1  0
  5  6  1  0
  6  7  2  0
  7  8  1  0
  8  9  2  0
  9 10  1  0
 10 11  2  0
  5 12  1  0
 12 13  1  0
 13 14  1  0
 14 15  1  0
 15 16  1  0
 16 17  2  0
 16 18  1  0
 18 19  1  0
 18 20  1  0
 20 21  1  0
 21 22  2  0
 22 23  1  0
 23 24  2  0
 24 25  1  0
 25 26  1  0
 26 27  1  0
 27 28  1  0
 28 29  1  0
 29 30  1  0
 30 31  1  0
 25 32  2  0
 15 33  1  0
 33 34  1  0
 11  6  1  0
 34 12  1  0
 32 21  1  0
 31 26  1  0
  1 35  1  0
  1 36  1  0
  1 37  1  0
  2 38  1  0
  2 39  1  0
  7 40  1  0
  8 41  1  0
  9 42  1  0
 10 43  1  0
 11 44  1  0
 12 45  1  0
 13 46  1  0
 13 47  1  0
 14 48  1  0
 14 49  1  0
 18 50  1  1
 19 51  1  0
 19 52  1  0
 20 53  1  0
 20 54  1  0
 22 55  1  0
 23 56  1  0
 24 57  1  0
 27 58  1  0
 27 59  1  0
 28 60  1  0
 28 61  1  0
 30 62  1  0
 30 63  1  0
 31 64  1  0
 31 65  1  0
 32 66  1  0
 33 67  1  0
 33 68  1  0
 34 69  1  0
 34 70  1  0
M  END
>  <smiles>  (35) 
CCC(=O)N(c1ccccc1)C1CCN(C(=O)[C@H](N)Cc2cccc(N3CCOCC3)c2)CC1

>  <score_type>  (35) 
oracle

>  <origin>  (35) 
autodockgpu

>  <m_score__min__energy>  (35) 
-8.8800000000000008

>  <m_primary>  (35) 
energy

>  <rmsd>  (35) 
7.447467005052575

>  <m_score__min__rmsd>  (35) 
7.447467005052575

>  <meeko>  (35) 
{"free_energy": -6.89, "intermolecular_energy": -9.57, "internal_energy": -2.67, "cluster_size": 1, "cluster_id": 12, "rank_in_cluster": 1}

>  <energy>  (35) 
-7.43

>  <cluster_rmsd>  (35) 
1.21

>  <cluster>  (35) 
4

$$$$

     RDKit          3D

 70 73  0  0  0  0  0  0  0  0999 V2000
  136.4540   68.9300  223.4410 C   0  0  0  0  0  0  0  0  0  0  0  0
  136.9990   69.3710  224.7980 C   0  0  0  0  0  0  0  0  0  0  0  0
  138.4910   69.2970  224.7030 C   0  0  0  0  0  0  0  0  0  0  0  0
  138.9730   68.1440  224.5220 O   0  0  0  0  0  0  0  0  0  0  0  0
  139.2970   70.4680  224.8140 N   0  0  0  0  0  0  0  0  0  0  0  0
  139.9530   70.7130  226.0570 C   0  0  0  0  0  0  0  0  0  0  0  0
  140.7200   71.8600  226.1250 C   0  0  0  0  0  0  0  0  0  0  0  0
  141.4200   72.2370  227.2550 C   0  0  0  0  0  0  0  0  0  0  0  0
  141.3170   71.3900  228.3490 C   0  0  0  0  0  0  0  0  0  0  0  0
  140.5470   70.2340  228.2880 C   0  0  0  0  0  0  0  0  0  0  0  0
  139.8610   69.8850  227.1490 C   0  0  0  0  0  0  0  0  0  0  0  0
  139.4020   71.3390  223.6700 C   0  0  0  0  0  0  0  0  0  0  0  0
  140.0800   70.5660  222.5800 C   0  0  0  0  0  0  0  0  0  0  0  0
  140.6990   71.5970  221.6250 C   0  0  0  0  0  0  0  0  0  0  0  0
  139.7180   72.6750  221.5730 N   0  0  0  0  0  0  0  0  0  0  0  0
  140.0590   74.0370  221.4070 C   0  0  0  0  0  0  0  0  0  0  0  0
  139.1100   74.8800  221.3720 O   0  0  0  0  0  0  0  0  0  0  0  0
  141.4210   74.5510  221.2770 C   0  0  2  0  0  0  0  0  0  0  0  0
  141.4320   76.0130  221.3450 N   0  0  0  0  0  0  0  0  0  0  0  0
  141.9110   74.2370  219.8550 C   0  0  0  0  0  0  0  0  0  0  0  0
  143.2980   73.7200  220.0320 C   0  0  0  0  0  0  0  0  0  0  0  0
  144.3390   74.5280  220.4550 C   0  0  0  0  0  0  0  0  0  0  0  0
  145.5940   73.9440  220.5790 C   0  0  0  0  0  0  0  0  0  0  0  0
  145.7780   72.5940  220.2840 C   0  0  0  0  0  0  0  0  0  0  0  0
  144.7570   71.7890  219.8650 C   0  0  0  0  0  0  0  0  0  0  0  0
  144.9040   70.4310  219.5540 N   0  0  0  0  0  0  0  0  0  0  0  0
  143.8760   69.4240  219.7080 C   0  0  0  0  0  0  0  0  0  0  0  0
  143.6250   68.8280  218.3310 C   0  0  0  0  0  0  0  0  0  0  0  0
  144.7990   68.4240  217.7480 O   0  0  0  0  0  0  0  0  0  0  0  0
  145.9280   68.5460  218.5190 C   0  0  0  0  0  0  0  0  0  0  0  0
  146.1890   69.9440  219.0280 C   0  0  0  0  0  0  0  0  0  0  0  0
  143.5040   72.3900  219.7460 C   0  0  0  0  0  0  0  0  0  0  0  0
  138.3180   72.2410  221.7140 C   0  0  0  0  0  0  0  0  0  0  0  0
  138.0700   71.8370  223.1740 C   0  0  0  0  0  0  0  0  0  0  0  0
  135.6069   68.2445  223.5913 H   0  0  0  0  0  0  0  0  0  0  0  0
  136.1163   69.8121  222.8772 H   0  0  0  0  0  0  0  0  0  0  0  0
  137.2463   68.4157  222.8772 H   0  0  0  0  0  0  0  0  0  0  0  0
  136.6831   70.4016  225.0174 H   0  0  0  0  0  0  0  0  0  0  0  0
  136.6201   68.7280  225.6061 H   0  0  0  0  0  0  0  0  0  0  0  0
  140.7762   72.5049  225.2357 H   0  0  0  0  0  0  0  0  0  0  0  0
  142.0241   73.1557  227.2855 H   0  0  0  0  0  0  0  0  0  0  0  0
  141.8522   71.6366  229.2779 H   0  0  0  0  0  0  0  0  0  0  0  0
  140.4852   69.5829  229.1725 H   0  0  0  0  0  0  0  0  0  0  0  0
  139.2549   68.9677  227.1131 H   0  0  0  0  0  0  0  0  0  0  0  0
  139.9725   72.2312  223.9675 H   0  0  0  0  0  0  0  0  0  0  0  0
  140.8653   69.9229  223.0038 H   0  0  0  0  0  0  0  0  0  0  0  0
  139.3651   69.9178  222.0520 H   0  0  0  0  0  0  0  0  0  0  0  0
  141.6597   71.9630  222.0163 H   0  0  0  0  0  0  0  0  0  0  0  0
  140.9123   71.1748  220.6319 H   0  0  0  0  0  0  0  0  0  0  0  0
  142.0323   74.1039  222.0747 H   0  0  0  0  0  0  0  0  0  0  0  0
  140.5420   76.3100  221.7770 H   0  0  0  0  0  0  0  0  0  0  0  0
  142.1950   76.3480  221.9920 H   0  0  0  0  0  0  0  0  0  0  0  0
  141.2714   73.4756  219.3847 H   0  0  0  0  0  0  0  0  0  0  0  0
  141.8792   75.1213  219.2016 H   0  0  0  0  0  0  0  0  0  0  0  0
  144.1791   75.5919  220.6843 H   0  0  0  0  0  0  0  0  0  0  0  0
  146.4483   74.5514  220.9123 H   0  0  0  0  0  0  0  0  0  0  0  0
  146.7832   72.1607  220.3927 H   0  0  0  0  0  0  0  0  0  0  0  0
  144.2155   68.6410  220.4020 H   0  0  0  0  0  0  0  0  0  0  0  0
  142.9551   69.8637  220.1185 H   0  0  0  0  0  0  0  0  0  0  0  0
  142.9561   67.9605  218.4311 H   0  0  0  0  0  0  0  0  0  0  0  0
  143.1650   69.5984  217.6946 H   0  0  0  0  0  0  0  0  0  0  0  0
  145.8257   67.8776  219.3867 H   0  0  0  0  0  0  0  0  0  0  0  0
  146.7787   68.2836  217.8729 H   0  0  0  0  0  0  0  0  0  0  0  0
  146.9460   69.9251  219.8259 H   0  0  0  0  0  0  0  0  0  0  0  0
  146.5716   70.5980  218.2306 H   0  0  0  0  0  0  0  0  0  0  0  0
  142.6516   71.7800  219.4122 H   0  0  0  0  0  0  0  0  0  0  0  0
  137.6454   73.0671  221.4396 H   0  0  0  0  0  0  0  0  0  0  0  0
  138.1235   71.3850  221.0511 H   0  0  0  0  0  0  0  0  0  0  0  0
  137.7367   72.7035  223.7640 H   0  0  0  0  0  0  0  0  0  0  0  0
  137.2829   71.0740  223.2645 H   0  0  0  0  0  0  0  0  0  0  0  0
  1  2  1  0
  2  3  1  0
  3  4  2  0
  3  5  1  0
  5  6  1  0
  6  7  2  0
  7  8  1  0
  8  9  2  0
  9 10  1  0
 10 11  2  0
  5 12  1  0
 12 13  1  0
 13 14  1  0
 14 15  1  0
 15 16  1  0
 16 17  2  0
 16 18  1  0
 18 19  1  0
 18 20  1  0
 20 21  1  0
 21 22  2  0
 22 23  1  0
 23 24  2  0
 24 25  1  0
 25 26  1  0
 26 27  1  0
 27 28  1  0
 28 29  1  0
 29 30  1  0
 30 31  1  0
 25 32  2  0
 15 33  1  0
 33 34  1  0
 11  6  1  0
 34 12  1  0
 32 21  1  0
 31 26  1  0
  1 35  1  0
  1 36  1  0
  1 37  1  0
  2 38  1  0
  2 39  1  0
  7 40  1  0
  8 41  1  0
  9 42  1  0
 10 43  1  0
 11 44  1  0
 12 45  1  0
 13 46  1  0
 13 47  1  0
 14 48  1  0
 14 49  1  0
 18 50  1  1
 19 51  1  0
 19 52  1  0
 20 53  1  0
 20 54  1  0
 22 55  1  0
 23 56  1  0
 24 57  1  0
 27 58  1  0
 27 59  1  0
 28 60  1  0
 28 61  1  0
 30 62  1  0
 30 63  1  0
 31 64  1  0
 31 65  1  0
 32 66  1  0
 33 67  1  0
 33 68  1  0
 34 69  1  0
 34 70  1  0
M  END
>  <smiles>  (36) 
CCC(=O)N(c1ccccc1)C1CCN(C(=O)[C@H](N)Cc2cccc(N3CCOCC3)c2)CC1

>  <score_type>  (36) 
oracle

>  <origin>  (36) 
autodockgpu

>  <m_score__min__energy>  (36) 
-8.8800000000000008

>  <m_primary>  (36) 
energy

>  <rmsd>  (36) 
7.108218730485814

>  <m_score__min__rmsd>  (36) 
7.108218730485814

>  <meeko>  (36) 
{"free_energy": -7.91, "intermolecular_energy": -10.59, "internal_energy": -2.72, "cluster_size": 20, "cluster_id": 1, "rank_in_cluster": 17}

>  <energy>  (36) 
-7.35

>  <cluster_rmsd>  (36) 
1.21

>  <cluster>  (36) 
4

$$$$

     RDKit          3D

 70 73  0  0  0  0  0  0  0  0999 V2000
  138.4040   67.9350  222.5290 C   0  0  0  0  0  0  0  0  0  0  0  0
  138.9180   68.1440  223.9520 C   0  0  0  0  0  0  0  0  0  0  0  0
  138.4040   69.4770  224.3990 C   0  0  0  0  0  0  0  0  0  0  0  0
  137.1620   69.5390  224.6240 O   0  0  0  0  0  0  0  0  0  0  0  0
  139.2780   70.5930  224.5510 N   0  0  0  0  0  0  0  0  0  0  0  0
  139.9340   70.7630  225.8060 C   0  0  0  0  0  0  0  0  0  0  0  0
  140.7290   71.8860  225.9300 C   0  0  0  0  0  0  0  0  0  0  0  0
  141.4330   72.1920  227.0800 C   0  0  0  0  0  0  0  0  0  0  0  0
  141.3020   71.2990  228.1330 C   0  0  0  0  0  0  0  0  0  0  0  0
  140.5020   70.1670  228.0160 C   0  0  0  0  0  0  0  0  0  0  0  0
  139.8140   69.8890  226.8590 C   0  0  0  0  0  0  0  0  0  0  0  0
  139.4490   71.4870  223.4320 C   0  0  0  0  0  0  0  0  0  0  0  0
  140.2950   70.7780  222.4180 C   0  0  0  0  0  0  0  0  0  0  0  0
  140.9440   71.8630  221.5470 C   0  0  0  0  0  0  0  0  0  0  0  0
  139.9030   72.8740  221.3940 N   0  0  0  0  0  0  0  0  0  0  0  0
  140.1660   74.2580  221.2790 C   0  0  0  0  0  0  0  0  0  0  0  0
  139.1710   75.0350  221.1440 O   0  0  0  0  0  0  0  0  0  0  0  0
  141.4960   74.8640  221.3050 C   0  0  2  0  0  0  0  0  0  0  0  0
  141.4080   76.2940  221.6050 N   0  0  0  0  0  0  0  0  0  0  0  0
  142.0670   74.8130  219.8790 C   0  0  0  0  0  0  0  0  0  0  0  0
  143.3970   74.1550  220.0210 C   0  0  0  0  0  0  0  0  0  0  0  0
  144.5130   74.8370  220.4750 C   0  0  0  0  0  0  0  0  0  0  0  0
  145.7050   74.1280  220.5610 C   0  0  0  0  0  0  0  0  0  0  0  0
  145.7560   72.7820  220.2010 C   0  0  0  0  0  0  0  0  0  0  0  0
  144.6610   72.1020  219.7510 C   0  0  0  0  0  0  0  0  0  0  0  0
  144.6740   70.7520  219.3750 N   0  0  0  0  0  0  0  0  0  0  0  0
  145.5190   70.1810  218.3480 C   0  0  0  0  0  0  0  0  0  0  0  0
  146.3720   69.1140  219.0160 C   0  0  0  0  0  0  0  0  0  0  0  0
  145.5940   68.2380  219.7300 O   0  0  0  0  0  0  0  0  0  0  0  0
  144.2380   68.4270  219.6420 C   0  0  0  0  0  0  0  0  0  0  0  0
  143.7710   69.8050  220.0480 C   0  0  0  0  0  0  0  0  0  0  0  0
  143.4710   72.8270  219.6700 C   0  0  0  0  0  0  0  0  0  0  0  0
  138.5290   72.3450  221.3750 C   0  0  0  0  0  0  0  0  0  0  0  0
  138.1500   71.9020  222.7950 C   0  0  0  0  0  0  0  0  0  0  0  0
  137.3855   67.5209  222.5642 H   0  0  0  0  0  0  0  0  0  0  0  0
  138.3898   68.8988  221.9990 H   0  0  0  0  0  0  0  0  0  0  0  0
  139.0665   67.2348  221.9990 H   0  0  0  0  0  0  0  0  0  0  0  0
  138.5400   67.3500  224.6129 H   0  0  0  0  0  0  0  0  0  0  0  0
  140.0169   68.1098  223.9867 H   0  0  0  0  0  0  0  0  0  0  0  0
  140.8057   72.5701  225.0720 H   0  0  0  0  0  0  0  0  0  0  0  0
  142.0609   73.0920  227.1554 H   0  0  0  0  0  0  0  0  0  0  0  0
  141.8385   71.4886  229.0744 H   0  0  0  0  0  0  0  0  0  0  0  0
  140.4180   69.4782  228.8695 H   0  0  0  0  0  0  0  0  0  0  0  0
  139.1842   68.9908  226.7784 H   0  0  0  0  0  0  0  0  0  0  0  0
  139.9207   72.4108  223.7983 H   0  0  0  0  0  0  0  0  0  0  0  0
  141.0705   70.1822  222.9215 H   0  0  0  0  0  0  0  0  0  0  0  0
  139.6891   70.0917  221.8082 H   0  0  0  0  0  0  0  0  0  0  0  0
  141.8279   72.2865  222.0465 H   0  0  0  0  0  0  0  0  0  0  0  0
  141.2947   71.4717  220.5806 H   0  0  0  0  0  0  0  0  0  0  0  0
  142.1003   74.3297  222.0529 H   0  0  0  0  0  0  0  0  0  0  0  0
  142.2250   76.7520  221.1700 H   0  0  0  0  0  0  0  0  0  0  0  0
  140.5590   76.7170  221.1450 H   0  0  0  0  0  0  0  0  0  0  0  0
  141.4119   74.2234  219.2208 H   0  0  0  0  0  0  0  0  0  0  0  0
  142.1463   75.8136  219.4289 H   0  0  0  0  0  0  0  0  0  0  0  0
  144.4582   75.8989  220.7567 H   0  0  0  0  0  0  0  0  0  0  0  0
  146.6156   74.6327  220.9159 H   0  0  0  0  0  0  0  0  0  0  0  0
  146.7142   72.2480  220.2826 H   0  0  0  0  0  0  0  0  0  0  0  0
  144.9008   69.7303  217.5577 H   0  0  0  0  0  0  0  0  0  0  0  0
  146.1495   70.9538  217.8841 H   0  0  0  0  0  0  0  0  0  0  0  0
  146.9230   68.5580  218.2431 H   0  0  0  0  0  0  0  0  0  0  0  0
  147.0706   69.6066  219.7084 H   0  0  0  0  0  0  0  0  0  0  0  0
  143.9338   68.2543  218.5991 H   0  0  0  0  0  0  0  0  0  0  0  0
  143.7767   67.7196  220.3468 H   0  0  0  0  0  0  0  0  0  0  0  0
  142.7332   69.9686  219.7221 H   0  0  0  0  0  0  0  0  0  0  0  0
  143.7930   69.9331  221.1403 H   0  0  0  0  0  0  0  0  0  0  0  0
  142.5623   72.3197  219.3137 H   0  0  0  0  0  0  0  0  0  0  0  0
  137.8359   73.1284  221.0347 H   0  0  0  0  0  0  0  0  0  0  0  0
  138.4676   71.4886  220.6874 H   0  0  0  0  0  0  0  0  0  0  0  0
  137.6949   72.7346  223.3515 H   0  0  0  0  0  0  0  0  0  0  0  0
  137.4121   71.0862  222.7907 H   0  0  0  0  0  0  0  0  0  0  0  0
  1  2  1  0
  2  3  1  0
  3  4  2  0
  3  5  1  0
  5  6  1  0
  6  7  2  0
  7  8  1  0
  8  9  2  0
  9 10  1  0
 10 11  2  0
  5 12  1  0
 12 13  1  0
 13 14  1  0
 14 15  1  0
 15 16  1  0
 16 17  2  0
 16 18  1  0
 18 19  1  0
 18 20  1  0
 20 21  1  0
 21 22  2  0
 22 23  1  0
 23 24  2  0
 24 25  1  0
 25 26  1  0
 26 27  1  0
 27 28  1  0
 28 29  1  0
 29 30  1  0
 30 31  1  0
 25 32  2  0
 15 33  1  0
 33 34  1  0
 11  6  1  0
 34 12  1  0
 32 21  1  0
 31 26  1  0
  1 35  1  0
  1 36  1  0
  1 37  1  0
  2 38  1  0
  2 39  1  0
  7 40  1  0
  8 41  1  0
  9 42  1  0
 10 43  1  0
 11 44  1  0
 12 45  1  0
 13 46  1  0
 13 47  1  0
 14 48  1  0
 14 49  1  0
 18 50  1  1
 19 51  1  0
 19 52  1  0
 20 53  1  0
 20 54  1  0
 22 55  1  0
 23 56  1  0
 24 57  1  0
 27 58  1  0
 27 59  1  0
 28 60  1  0
 28 61  1  0
 30 62  1  0
 30 63  1  0
 31 64  1  0
 31 65  1  0
 32 66  1  0
 33 67  1  0
 33 68  1  0
 34 69  1  0
 34 70  1  0
M  END
>  <smiles>  (37) 
CCC(=O)N(c1ccccc1)C1CCN(C(=O)[C@H](N)Cc2cccc(N3CCOCC3)c2)CC1

>  <score_type>  (37) 
oracle

>  <origin>  (37) 
autodockgpu

>  <m_score__min__energy>  (37) 
-8.8800000000000008

>  <m_primary>  (37) 
energy

>  <rmsd>  (37) 
6.95220955253129

>  <m_score__min__rmsd>  (37) 
6.95220955253129

>  <meeko>  (37) 
{"free_energy": -8.21, "intermolecular_energy": -10.9, "internal_energy": -2.85, "cluster_size": 20, "cluster_id": 1, "rank_in_cluster": 10}

>  <energy>  (37) 
-8.05

>  <cluster_rmsd>  (37) 
0.0

>  <cluster>  (37) 
5

$$$$

     RDKit          3D

 70 73  0  0  0  0  0  0  0  0999 V2000
  141.9140   79.5290  217.0160 C   0  0  0  0  0  0  0  0  0  0  0  0
  142.5770   79.7880  218.3680 C   0  0  0  0  0  0  0  0  0  0  0  0
  141.5050   79.6430  219.4030 C   0  0  0  0  0  0  0  0  0  0  0  0
  140.4840   80.3700  219.2420 O   0  0  0  0  0  0  0  0  0  0  0  0
  141.6500   78.7360  220.4940 N   0  0  0  0  0  0  0  0  0  0  0  0
  141.8250   79.2840  221.7990 C   0  0  0  0  0  0  0  0  0  0  0  0
  142.2370   80.6010  221.8560 C   0  0  0  0  0  0  0  0  0  0  0  0
  142.4550   81.2750  223.0430 C   0  0  0  0  0  0  0  0  0  0  0  0
  142.2360   80.5530  224.2060 C   0  0  0  0  0  0  0  0  0  0  0  0
  141.8200   79.2260  224.1560 C   0  0  0  0  0  0  0  0  0  0  0  0
  141.6110   78.5820  222.9610 C   0  0  0  0  0  0  0  0  0  0  0  0
  141.6130   77.3210  220.2180 C   0  0  0  0  0  0  0  0  0  0  0  0
  140.5450   77.0920  219.1940 C   0  0  0  0  0  0  0  0  0  0  0  0
  140.1110   75.6250  219.3260 C   0  0  0  0  0  0  0  0  0  0  0  0
  141.3510   74.9060  219.6000 N   0  0  0  0  0  0  0  0  0  0  0  0
  141.4230   73.7500  220.4100 C   0  0  0  0  0  0  0  0  0  0  0  0
  142.5620   73.2130  220.5670 O   0  0  0  0  0  0  0  0  0  0  0  0
  140.2850   73.1250  221.0830 C   0  0  2  0  0  0  0  0  0  0  0  0
  140.0820   73.7120  222.4090 N   0  0  0  0  0  0  0  0  0  0  0  0
  140.6520   71.6620  221.3720 C   0  0  0  0  0  0  0  0  0  0  0  0
  139.7280   71.2420  222.4640 C   0  0  0  0  0  0  0  0  0  0  0  0
  138.3610   71.1360  222.2740 C   0  0  0  0  0  0  0  0  0  0  0  0
  137.5910   70.7440  223.3620 C   0  0  0  0  0  0  0  0  0  0  0  0
  138.1910   70.4710  224.5920 C   0  0  0  0  0  0  0  0  0  0  0  0
  139.5380   70.5740  224.7890 C   0  0  0  0  0  0  0  0  0  0  0  0
  140.1760   70.3140  226.0090 N   0  0  0  0  0  0  0  0  0  0  0  0
  140.9940   71.2590  226.7400 C   0  0  0  0  0  0  0  0  0  0  0  0
  140.3450   71.4480  228.1030 C   0  0  0  0  0  0  0  0  0  0  0  0
  140.1100   70.2400  228.7080 O   0  0  0  0  0  0  0  0  0  0  0  0
  140.5650   69.1310  228.0390 C   0  0  0  0  0  0  0  0  0  0  0  0
  140.0320   68.9890  226.6320 C   0  0  0  0  0  0  0  0  0  0  0  0
  140.2970   70.9680  223.6860 C   0  0  0  0  0  0  0  0  0  0  0  0
  142.5500   75.4830  218.9700 C   0  0  0  0  0  0  0  0  0  0  0  0
  142.9210   76.7780  219.7050 C   0  0  0  0  0  0  0  0  0  0  0  0
  140.9001   79.1329  217.1747 H   0  0  0  0  0  0  0  0  0  0  0  0
  141.8555   80.4704  216.4500 H   0  0  0  0  0  0  0  0  0  0  0  0
  142.5091   78.7972  216.4500 H   0  0  0  0  0  0  0  0  0  0  0  0
  143.3776   79.0548  218.5451 H   0  0  0  0  0  0  0  0  0  0  0  0
  143.0302   80.7897  218.4029 H   0  0  0  0  0  0  0  0  0  0  0  0
  142.3996   81.1398  220.9109 H   0  0  0  0  0  0  0  0  0  0  0  0
  142.7836   82.3246  223.0636 H   0  0  0  0  0  0  0  0  0  0  0  0
  142.3932   81.0357  225.1818 H   0  0  0  0  0  0  0  0  0  0  0  0
  141.6546   78.6796  225.0963 H   0  0  0  0  0  0  0  0  0  0  0  0
  141.2813   77.5329  222.9347 H   0  0  0  0  0  0  0  0  0  0  0  0
  141.4086   76.7919  221.1605 H   0  0  0  0  0  0  0  0  0  0  0  0
  139.6903   77.7582  219.3828 H   0  0  0  0  0  0  0  0  0  0  0  0
  140.9176   77.3037  218.1809 H   0  0  0  0  0  0  0  0  0  0  0  0
  139.3981   75.5025  220.1547 H   0  0  0  0  0  0  0  0  0  0  0  0
  139.6006   75.2547  218.4247 H   0  0  0  0  0  0  0  0  0  0  0  0
  139.3986   73.2505  220.4438 H   0  0  0  0  0  0  0  0  0  0  0  0
  140.2420   74.7290  222.3260 H   0  0  0  0  0  0  0  0  0  0  0  0
  139.0790   73.5990  222.7140 H   0  0  0  0  0  0  0  0  0  0  0  0
  140.5003   71.0411  220.4768 H   0  0  0  0  0  0  0  0  0  0  0  0
  141.7082   71.5492  221.6577 H   0  0  0  0  0  0  0  0  0  0  0  0
  137.9017   71.3539  221.2985 H   0  0  0  0  0  0  0  0  0  0  0  0
  136.5006   70.6482  223.2531 H   0  0  0  0  0  0  0  0  0  0  0  0
  137.5549   70.1613  225.4343 H   0  0  0  0  0  0  0  0  0  0  0  0
  142.0136   70.8635  226.8587 H   0  0  0  0  0  0  0  0  0  0  0  0
  141.0637   72.2161  226.2023 H   0  0  0  0  0  0  0  0  0  0  0  0
  141.0140   72.0451  228.7401 H   0  0  0  0  0  0  0  0  0  0  0  0
  139.3830   71.9631  227.9643 H   0  0  0  0  0  0  0  0  0  0  0  0
  141.6624   69.1864  227.9873 H   0  0  0  0  0  0  0  0  0  0  0  0
  140.2061   68.2560  228.6007 H   0  0  0  0  0  0  0  0  0  0  0  0
  140.6148   68.2398  226.0762 H   0  0  0  0  0  0  0  0  0  0  0  0
  138.9842   68.6540  226.6296 H   0  0  0  0  0  0  0  0  0  0  0  0
  141.3872   71.0626  223.7977 H   0  0  0  0  0  0  0  0  0  0  0  0
  143.3833   74.7681  219.0374 H   0  0  0  0  0  0  0  0  0  0  0  0
  142.3477   75.6996  217.9107 H   0  0  0  0  0  0  0  0  0  0  0  0
  143.6062   76.5668  220.5392 H   0  0  0  0  0  0  0  0  0  0  0  0
  143.4372   77.4936  219.0481 H   0  0  0  0  0  0  0  0  0  0  0  0
  1  2  1  0
  2  3  1  0
  3  4  2  0
  3  5  1  0
  5  6  1  0
  6  7  2  0
  7  8  1  0
  8  9  2  0
  9 10  1  0
 10 11  2  0
  5 12  1  0
 12 13  1  0
 13 14  1  0
 14 15  1  0
 15 16  1  0
 16 17  2  0
 16 18  1  0
 18 19  1  0
 18 20  1  0
 20 21  1  0
 21 22  2  0
 22 23  1  0
 23 24  2  0
 24 25  1  0
 25 26  1  0
 26 27  1  0
 27 28  1  0
 28 29  1  0
 29 30  1  0
 30 31  1  0
 25 32  2  0
 15 33  1  0
 33 34  1  0
 11  6  1  0
 34 12  1  0
 32 21  1  0
 31 26  1  0
  1 35  1  0
  1 36  1  0
  1 37  1  0
  2 38  1  0
  2 39  1  0
  7 40  1  0
  8 41  1  0
  9 42  1  0
 10 43  1  0
 11 44  1  0
 12 45  1  0
 13 46  1  0
 13 47  1  0
 14 48  1  0
 14 49  1  0
 18 50  1  6
 19 51  1  0
 19 52  1  0
 20 53  1  0
 20 54  1  0
 22 55  1  0
 23 56  1  0
 24 57  1  0
 27 58  1  0
 27 59  1  0
 28 60  1  0
 28 61  1  0
 30 62  1  0
 30 63  1  0
 31 64  1  0
 31 65  1  0
 32 66  1  0
 33 67  1  0
 33 68  1  0
 34 69  1  0
 34 70  1  0
M  END
>  <smiles>  (38) 
CCC(=O)N(c1ccccc1)C1CCN(C(=O)[C@H](N)Cc2cccc(N3CCOCC3)c2)CC1

>  <score_type>  (38) 
oracle

>  <origin>  (38) 
autodockgpu

>  <m_score__min__energy>  (38) 
-8.8800000000000008

>  <m_primary>  (38) 
energy

>  <rmsd>  (38) 
5.485138381587754

>  <m_score__min__rmsd>  (38) 
5.485138381587754

>  <meeko>  (38) 
{"free_energy": -8.2, "intermolecular_energy": -10.89, "internal_energy": -1.87, "cluster_size": 6, "cluster_id": 3, "rank_in_cluster": 4}

>  <energy>  (38) 
-8.02

>  <cluster_rmsd>  (38) 
0.21

>  <cluster>  (38) 
5

$$$$

     RDKit          3D

 70 73  0  0  0  0  0  0  0  0999 V2000
  137.8170   80.3930  223.7410 C   0  0  0  0  0  0  0  0  0  0  0  0
  137.3330   79.0950  223.0980 C   0  0  0  0  0  0  0  0  0  0  0  0
  138.2390   78.8330  221.9340 C   0  0  0  0  0  0  0  0  0  0  0  0
  137.7800   79.1490  220.8000 O   0  0  0  0  0  0  0  0  0  0  0  0
  139.5310   78.2600  222.1180 N   0  0  0  0  0  0  0  0  0  0  0  0
  140.5940   79.1230  222.5200 C   0  0  0  0  0  0  0  0  0  0  0  0
  141.0910   79.9690  221.5480 C   0  0  0  0  0  0  0  0  0  0  0  0
  142.1220   80.8610  221.7760 C   0  0  0  0  0  0  0  0  0  0  0  0
  142.6490   80.8730  223.0590 C   0  0  0  0  0  0  0  0  0  0  0  0
  142.1520   80.0240  224.0430 C   0  0  0  0  0  0  0  0  0  0  0  0
  141.1260   79.1460  223.7860 C   0  0  0  0  0  0  0  0  0  0  0  0
  139.6930   76.8460  221.8870 C   0  0  0  0  0  0  0  0  0  0  0  0
  139.4850   76.6050  220.4230 C   0  0  0  0  0  0  0  0  0  0  0  0
  139.0840   75.1310  220.2690 C   0  0  0  0  0  0  0  0  0  0  0  0
  139.9030   74.4300  221.2520 N   0  0  0  0  0  0  0  0  0  0  0  0
  139.4790   73.2710  221.9410 C   0  0  0  0  0  0  0  0  0  0  0  0
  140.2890   72.7510  222.7690 O   0  0  0  0  0  0  0  0  0  0  0  0
  138.1780   72.6260  221.7760 C   0  0  2  0  0  0  0  0  0  0  0  0
  137.4190   72.6600  223.0280 N   0  0  0  0  0  0  0  0  0  0  0  0
  138.4200   71.1300  221.5230 C   0  0  0  0  0  0  0  0  0  0  0  0
  138.1320   70.4690  222.8280 C   0  0  0  0  0  0  0  0  0  0  0  0
  136.9340   69.8250  223.0810 C   0  0  0  0  0  0  0  0  0  0  0  0
  136.7670   69.2490  224.3350 C   0  0  0  0  0  0  0  0  0  0  0  0
  137.7820   69.3260  225.2890 C   0  0  0  0  0  0  0  0  0  0  0  0
  138.9680   69.9600  225.0490 C   0  0  0  0  0  0  0  0  0  0  0  0
  140.0070   70.0630  225.9820 N   0  0  0  0  0  0  0  0  0  0  0  0
  141.1010   71.0080  225.9110 C   0  0  0  0  0  0  0  0  0  0  0  0
  141.0390   71.8570  227.1720 C   0  0  0  0  0  0  0  0  0  0  0  0
  140.9780   71.0700  228.2930 O   0  0  0  0  0  0  0  0  0  0  0  0
  141.0690   69.7160  228.0850 C   0  0  0  0  0  0  0  0  0  0  0  0
  140.0300   69.1570  227.1420 C   0  0  0  0  0  0  0  0  0  0  0  0
  139.1190   70.5330  223.7850 C   0  0  0  0  0  0  0  0  0  0  0  0
  141.2270   75.0290  221.4900 C   0  0  0  0  0  0  0  0  0  0  0  0
  141.0480   76.3260  222.2900 C   0  0  0  0  0  0  0  0  0  0  0  0
  137.7806   80.2955  224.8361 H   0  0  0  0  0  0  0  0  0  0  0  0
  138.8510   80.5954  223.4250 H   0  0  0  0  0  0  0  0  0  0  0  0
  137.1679   81.2230  223.4250 H   0  0  0  0  0  0  0  0  0  0  0  0
  137.3934   78.2676  223.8203 H   0  0  0  0  0  0  0  0  0  0  0  0
  136.2847   79.1779  222.7752 H   0  0  0  0  0  0  0  0  0  0  0  0
  140.6446   79.9311  220.5434 H   0  0  0  0  0  0  0  0  0  0  0  0
  142.5029   81.5237  220.9849 H   0  0  0  0  0  0  0  0  0  0  0  0
  143.4707   81.5628  223.3018 H   0  0  0  0  0  0  0  0  0  0  0  0
  142.5908   80.0562  225.0512 H   0  0  0  0  0  0  0  0  0  0  0  0
  140.7416   78.4801  224.5727 H   0  0  0  0  0  0  0  0  0  0  0  0
  138.9603   76.3097  222.5079 H   0  0  0  0  0  0  0  0  0  0  0  0
  138.6852   77.2569  220.0417 H   0  0  0  0  0  0  0  0  0  0  0  0
  140.3989   76.8272  219.8525 H   0  0  0  0  0  0  0  0  0  0  0  0
  138.0140   74.9937  220.4842 H   0  0  0  0  0  0  0  0  0  0  0  0
  139.2423   74.7570  219.2467 H   0  0  0  0  0  0  0  0  0  0  0  0
  137.6429   73.1406  220.9643 H   0  0  0  0  0  0  0  0  0  0  0  0
  138.0980   72.5760  223.8020 H   0  0  0  0  0  0  0  0  0  0  0  0
  136.9510   73.5970  223.1510 H   0  0  0  0  0  0  0  0  0  0  0  0
  137.7428   70.7551  220.7414 H   0  0  0  0  0  0  0  0  0  0  0  0
  139.4437   70.9292  221.1740 H   0  0  0  0  0  0  0  0  0  0  0  0
  136.1432   69.7708  222.3183 H   0  0  0  0  0  0  0  0  0  0  0  0
  135.8283   68.7290  224.5768 H   0  0  0  0  0  0  0  0  0  0  0  0
  137.6212   68.8585  226.2717 H   0  0  0  0  0  0  0  0  0  0  0  0
  142.0604   70.4721  225.8634 H   0  0  0  0  0  0  0  0  0  0  0  0
  141.0195   71.6355  225.0112 H   0  0  0  0  0  0  0  0  0  0  0  0
  141.9380   72.4886  227.2247 H   0  0  0  0  0  0  0  0  0  0  0  0
  140.1324   72.4786  227.1311 H   0  0  0  0  0  0  0  0  0  0  0  0
  142.0637   69.4982  227.6688 H   0  0  0  0  0  0  0  0  0  0  0  0
  140.8971   69.2370  229.0602 H   0  0  0  0  0  0  0  0  0  0  0  0
  140.3068   68.1399  226.8274 H   0  0  0  0  0  0  0  0  0  0  0  0
  139.0426   69.0918  227.6225 H   0  0  0  0  0  0  0  0  0  0  0  0
  140.0583   71.0531  223.5459 H   0  0  0  0  0  0  0  0  0  0  0  0
  141.8531   74.3268  222.0600 H   0  0  0  0  0  0  0  0  0  0  0  0
  141.7158   75.2477  220.5291 H   0  0  0  0  0  0  0  0  0  0  0  0
  141.0785   76.1216  223.3704 H   0  0  0  0  0  0  0  0  0  0  0  0
  141.8481   77.0526  222.0852 H   0  0  0  0  0  0  0  0  0  0  0  0
  1  2  1  0
  2  3  1  0
  3  4  2  0
  3  5  1  0
  5  6  1  0
  6  7  2  0
  7  8  1  0
  8  9  2  0
  9 10  1  0
 10 11  2  0
  5 12  1  0
 12 13  1  0
 13 14  1  0
 14 15  1  0
 15 16  1  0
 16 17  2  0
 16 18  1  0
 18 19  1  0
 18 20  1  0
 20 21  1  0
 21 22  2  0
 22 23  1  0
 23 24  2  0
 24 25  1  0
 25 26  1  0
 26 27  1  0
 27 28  1  0
 28 29  1  0
 29 30  1  0
 30 31  1  0
 25 32  2  0
 15 33  1  0
 33 34  1  0
 11  6  1  0
 34 12  1  0
 32 21  1  0
 31 26  1  0
  1 35  1  0
  1 36  1  0
  1 37  1  0
  2 38  1  0
  2 39  1  0
  7 40  1  0
  8 41  1  0
  9 42  1  0
 10 43  1  0
 11 44  1  0
 12 45  1  0
 13 46  1  0
 13 47  1  0
 14 48  1  0
 14 49  1  0
 18 50  1  6
 19 51  1  0
 19 52  1  0
 20 53  1  0
 20 54  1  0
 22 55  1  0
 23 56  1  0
 24 57  1  0
 27 58  1  0
 27 59  1  0
 28 60  1  0
 28 61  1  0
 30 62  1  0
 30 63  1  0
 31 64  1  0
 31 65  1  0
 32 66  1  0
 33 67  1  0
 33 68  1  0
 34 69  1  0
 34 70  1  0
M  END
>  <smiles>  (39) 
CCC(=O)N(c1ccccc1)C1CCN(C(=O)[C@H](N)Cc2cccc(N3CCOCC3)c2)CC1

>  <score_type>  (39) 
oracle

>  <origin>  (39) 
autodockgpu

>  <m_score__min__energy>  (39) 
-8.8800000000000008

>  <m_primary>  (39) 
energy

>  <rmsd>  (39) 
6.1416304849976

>  <m_score__min__rmsd>  (39) 
6.1416304849976

>  <meeko>  (39) 
{"free_energy": -8.02, "intermolecular_energy": -10.71, "internal_energy": -2.06, "cluster_size": 3, "cluster_id": 5, "rank_in_cluster": 2}

>  <energy>  (39) 
-7.35

>  <cluster_rmsd>  (39) 
1.78

>  <cluster>  (39) 
5

$$$$

     RDKit          3D

 70 73  0  0  0  0  0  0  0  0999 V2000
  138.6840   67.7810  222.8870 C   0  0  0  0  0  0  0  0  0  0  0  0
  139.2040   67.9560  224.3130 C   0  0  0  0  0  0  0  0  0  0  0  0
  138.4780   69.1330  224.8890 C   0  0  0  0  0  0  0  0  0  0  0  0
  137.3130   68.9010  225.3200 O   0  0  0  0  0  0  0  0  0  0  0  0
  139.0830   70.4230  224.9350 N   0  0  0  0  0  0  0  0  0  0  0  0
  139.8790   70.7480  226.0730 C   0  0  0  0  0  0  0  0  0  0  0  0
  139.8280   69.8560  227.1260 C   0  0  0  0  0  0  0  0  0  0  0  0
  140.5380   70.0290  228.2990 C   0  0  0  0  0  0  0  0  0  0  0  0
  141.3260   71.1680  228.3760 C   0  0  0  0  0  0  0  0  0  0  0  0
  141.3820   72.0700  227.3190 C   0  0  0  0  0  0  0  0  0  0  0  0
  140.6650   71.8710  226.1630 C   0  0  0  0  0  0  0  0  0  0  0  0
  138.8550   71.3270  223.8340 C   0  0  0  0  0  0  0  0  0  0  0  0
  140.0550   71.2550  222.9410 C   0  0  0  0  0  0  0  0  0  0  0  0
  140.0910   72.5660  222.1410 C   0  0  0  0  0  0  0  0  0  0  0  0
  138.6890   72.8480  221.8490 N   0  0  0  0  0  0  0  0  0  0  0  0
  138.1580   74.1550  221.7490 C   0  0  0  0  0  0  0  0  0  0  0  0
  136.9220   74.2670  221.4840 O   0  0  0  0  0  0  0  0  0  0  0  0
  138.9230   75.3870  221.9300 C   0  0  2  0  0  0  0  0  0  0  0  0
  138.2390   76.2900  222.8580 N   0  0  0  0  0  0  0  0  0  0  0  0
  138.9190   76.1470  220.5950 C   0  0  0  0  0  0  0  0  0  0  0  0
  140.3570   76.3850  220.2840 C   0  0  0  0  0  0  0  0  0  0  0  0
  140.8500   77.6450  219.9900 C   0  0  0  0  0  0  0  0  0  0  0  0
  142.2060   77.7520  219.7070 C   0  0  0  0  0  0  0  0  0  0  0  0
  143.0240   76.6230  219.7260 C   0  0  0  0  0  0  0  0  0  0  0  0
  142.5470   75.3770  220.0140 C   0  0  0  0  0  0  0  0  0  0  0  0
  143.3360   74.2190  220.0370 N   0  0  0  0  0  0  0  0  0  0  0  0
  144.6430   74.0890  219.4280 C   0  0  0  0  0  0  0  0  0  0  0  0
  145.6200   73.7390  220.5400 C   0  0  0  0  0  0  0  0  0  0  0  0
  145.1720   72.6680  221.2700 O   0  0  0  0  0  0  0  0  0  0  0  0
  144.0150   72.0780  220.8270 C   0  0  0  0  0  0  0  0  0  0  0  0
  142.8360   73.0160  220.7200 C   0  0  0  0  0  0  0  0  0  0  0  0
  141.1840   75.2850  220.2950 C   0  0  0  0  0  0  0  0  0  0  0  0
  137.8450   71.6560  221.6690 C   0  0  0  0  0  0  0  0  0  0  0  0
  137.6200   70.9980  223.0370 C   0  0  0  0  0  0  0  0  0  0  0  0
  137.6419   67.4303  222.9172 H   0  0  0  0  0  0  0  0  0  0  0  0
  138.7314   68.7446  222.3586 H   0  0  0  0  0  0  0  0  0  0  0  0
  139.3044   67.0421  222.3586 H   0  0  0  0  0  0  0  0  0  0  0  0
  138.9962   67.0536  224.9067 H   0  0  0  0  0  0  0  0  0  0  0  0
  140.2922   68.1162  224.3228 H   0  0  0  0  0  0  0  0  0  0  0  0
  139.1914   68.9645  227.0263 H   0  0  0  0  0  0  0  0  0  0  0  0
  140.4814   69.3045  229.1248 H   0  0  0  0  0  0  0  0  0  0  0  0
  141.9144   71.3603  229.2853 H   0  0  0  0  0  0  0  0  0  0  0  0
  142.0155   72.9646  227.4101 H   0  0  0  0  0  0  0  0  0  0  0  0
  140.7192   72.5910  225.3332 H   0  0  0  0  0  0  0  0  0  0  0  0
  138.6975   72.3358  224.2432 H   0  0  0  0  0  0  0  0  0  0  0  0
  140.9699   71.1534  223.5432 H   0  0  0  0  0  0  0  0  0  0  0  0
  139.9971   70.3847  222.2708 H   0  0  0  0  0  0  0  0  0  0  0  0
  140.5351   73.3755  222.7390 H   0  0  0  0  0  0  0  0  0  0  0  0
  140.7025   72.4862  221.2301 H   0  0  0  0  0  0  0  0  0  0  0  0
  139.9256   75.1161  222.2926 H   0  0  0  0  0  0  0  0  0  0  0  0
  137.2230   76.1580  222.7250 H   0  0  0  0  0  0  0  0  0  0  0  0
  138.4400   76.0160  223.8560 H   0  0  0  0  0  0  0  0  0  0  0  0
  138.4477   75.5417  219.8066 H   0  0  0  0  0  0  0  0  0  0  0  0
  138.3478   77.0852  220.6547 H   0  0  0  0  0  0  0  0  0  0  0  0
  140.1933   78.5274  219.9809 H   0  0  0  0  0  0  0  0  0  0  0  0
  142.6375   78.7348  219.4661 H   0  0  0  0  0  0  0  0  0  0  0  0
  144.0941   76.7409  219.5004 H   0  0  0  0  0  0  0  0  0  0  0  0
  144.6295   73.2901  218.6719 H   0  0  0  0  0  0  0  0  0  0  0  0
  144.9370   75.0233  218.9273 H   0  0  0  0  0  0  0  0  0  0  0  0
  146.5951   73.4891  220.0964 H   0  0  0  0  0  0  0  0  0  0  0  0
  145.7120   74.6059  221.2108 H   0  0  0  0  0  0  0  0  0  0  0  0
  144.2062   71.6512  219.8314 H   0  0  0  0  0  0  0  0  0  0  0  0
  143.7442   71.3185  221.5752 H   0  0  0  0  0  0  0  0  0  0  0  0
  142.0296   72.5510  220.1339 H   0  0  0  0  0  0  0  0  0  0  0  0
  142.4219   73.2574  221.7101 H   0  0  0  0  0  0  0  0  0  0  0  0
  140.7557   74.3003  220.5334 H   0  0  0  0  0  0  0  0  0  0  0  0
  136.8773   71.9501  221.2366 H   0  0  0  0  0  0  0  0  0  0  0  0
  138.3404   70.9464  220.9900 H   0  0  0  0  0  0  0  0  0  0  0  0
  136.7243   71.4122  223.5229 H   0  0  0  0  0  0  0  0  0  0  0  0
  137.4587   69.9132  222.9528 H   0  0  0  0  0  0  0  0  0  0  0  0
  1  2  1  0
  2  3  1  0
  3  4  2  0
  3  5  1  0
  5  6  1  0
  6  7  2  0
  7  8  1  0
  8  9  2  0
  9 10  1  0
 10 11  2  0
  5 12  1  0
 12 13  1  0
 13 14  1  0
 14 15  1  0
 15 16  1  0
 16 17  2  0
 16 18  1  0
 18 19  1  0
 18 20  1  0
 20 21  1  0
 21 22  2  0
 22 23  1  0
 23 24  2  0
 24 25  1  0
 25 26  1  0
 26 27  1  0
 27 28  1  0
 28 29  1  0
 29 30  1  0
 30 31  1  0
 25 32  2  0
 15 33  1  0
 33 34  1  0
 11  6  1  0
 34 12  1  0
 32 21  1  0
 31 26  1  0
  1 35  1  0
  1 36  1  0
  1 37  1  0
  2 38  1  0
  2 39  1  0
  7 40  1  0
  8 41  1  0
  9 42  1  0
 10 43  1  0
 11 44  1  0
 12 45  1  0
 13 46  1  0
 13 47  1  0
 14 48  1  0
 14 49  1  0
 18 50  1  1
 19 51  1  0
 19 52  1  0
 20 53  1  0
 20 54  1  0
 22 55  1  0
 23 56  1  0
 24 57  1  0
 27 58  1  0
 27 59  1  0
 28 60  1  0
 28 61  1  0
 30 62  1  0
 30 63  1  0
 31 64  1  0
 31 65  1  0
 32 66  1  0
 33 67  1  0
 33 68  1  0
 34 69  1  0
 34 70  1  0
M  END
>  <smiles>  (40) 
CCC(=O)N(c1ccccc1)C1CCN(C(=O)[C@H](N)Cc2cccc(N3CCOCC3)c2)CC1

>  <score_type>  (40) 
oracle

>  <origin>  (40) 
autodockgpu

>  <m_score__min__energy>  (40) 
-8.8800000000000008

>  <m_primary>  (40) 
energy

>  <rmsd>  (40) 
7.054436584236884

>  <m_score__min__rmsd>  (40) 
7.054436584236884

>  <meeko>  (40) 
{"free_energy": -6.94, "intermolecular_energy": -9.62, "internal_energy": -2.74, "cluster_size": 7, "cluster_id": 2, "rank_in_cluster": 6}

>  <energy>  (40) 
-7.61

>  <cluster_rmsd>  (40) 
0.0

>  <cluster>  (40) 
6

$$$$

     RDKit          3D

 70 73  0  0  0  0  0  0  0  0999 V2000
  146.4050   73.3800  221.7280 C   0  0  0  0  0  0  0  0  0  0  0  0
  145.2190   73.7830  220.8530 C   0  0  0  0  0  0  0  0  0  0  0  0
  145.2760   72.9160  219.6340 C   0  0  0  0  0  0  0  0  0  0  0  0
  146.3110   73.0390  218.9200 O   0  0  0  0  0  0  0  0  0  0  0  0
  144.2150   72.0170  219.3170 N   0  0  0  0  0  0  0  0  0  0  0  0
  144.5590   70.7260  218.8190 C   0  0  0  0  0  0  0  0  0  0  0  0
  144.4540   69.6810  219.7150 C   0  0  0  0  0  0  0  0  0  0  0  0
  144.7540   68.3710  219.3890 C   0  0  0  0  0  0  0  0  0  0  0  0
  145.1750   68.1450  218.0870 C   0  0  0  0  0  0  0  0  0  0  0  0
  145.2820   69.1940  217.1790 C   0  0  0  0  0  0  0  0  0  0  0  0
  144.9770   70.4860  217.5320 C   0  0  0  0  0  0  0  0  0  0  0  0
  142.8580   72.4630  219.5140 C   0  0  0  0  0  0  0  0  0  0  0  0
  142.5460   73.4440  218.4260 C   0  0  0  0  0  0  0  0  0  0  0  0
  141.3930   74.3200  218.9360 C   0  0  0  0  0  0  0  0  0  0  0  0
  140.5370   73.3970  219.6730 N   0  0  0  0  0  0  0  0  0  0  0  0
  139.7840   73.7660  220.8110 C   0  0  0  0  0  0  0  0  0  0  0  0
  139.0720   72.8700  221.3600 O   0  0  0  0  0  0  0  0  0  0  0  0
  139.7630   75.1010  221.4060 C   0  0  2  0  0  0  0  0  0  0  0  0
  138.9520   75.1130  222.6250 N   0  0  0  0  0  0  0  0  0  0  0  0
  139.0120   76.0360  220.4460 C   0  0  0  0  0  0  0  0  0  0  0  0
  138.6390   77.2180  221.2730 C   0  0  0  0  0  0  0  0  0  0  0  0
  137.3250   77.6170  221.4410 C   0  0  0  0  0  0  0  0  0  0  0  0
  137.0900   78.7390  222.2270 C   0  0  0  0  0  0  0  0  0  0  0  0
  138.1520   79.4230  222.8180 C   0  0  0  0  0  0  0  0  0  0  0  0
  139.4530   79.0370  222.6580 C   0  0  0  0  0  0  0  0  0  0  0  0
  140.5450   79.7010  223.2300 N   0  0  0  0  0  0  0  0  0  0  0  0
  141.6880   79.0540  223.8390 C   0  0  0  0  0  0  0  0  0  0  0  0
  142.9190   79.5040  223.0650 C   0  0  0  0  0  0  0  0  0  0  0  0
  142.9660   80.8700  222.9660 O   0  0  0  0  0  0  0  0  0  0  0  0
  141.9820   81.5570  223.6320 C   0  0  0  0  0  0  0  0  0  0  0  0
  140.5750   81.1720  223.2370 C   0  0  0  0  0  0  0  0  0  0  0  0
  139.6710   77.9090  221.8660 C   0  0  0  0  0  0  0  0  0  0  0  0
  140.5160   72.0230  219.1450 C   0  0  0  0  0  0  0  0  0  0  0  0
  141.8510   71.3430  219.4800 C   0  0  0  0  0  0  0  0  0  0  0  0
  146.1273   73.4744  222.7882 H   0  0  0  0  0  0  0  0  0  0  0  0
  146.6818   72.3374  221.5129 H   0  0  0  0  0  0  0  0  0  0  0  0
  147.2597   74.0381  221.5129 H   0  0  0  0  0  0  0  0  0  0  0  0
  144.2750   73.6178  221.3929 H   0  0  0  0  0  0  0  0  0  0  0  0
  145.2661   74.8489  220.5855 H   0  0  0  0  0  0  0  0  0  0  0  0
  144.1152   69.9011  220.7381 H   0  0  0  0  0  0  0  0  0  0  0  0
  144.6638   67.5547  220.1207 H   0  0  0  0  0  0  0  0  0  0  0  0
  145.4277   67.1231  217.7679 H   0  0  0  0  0  0  0  0  0  0  0  0
  145.6191   68.9834  216.1533 H   0  0  0  0  0  0  0  0  0  0  0  0
  145.0649   71.3062  216.8043 H   0  0  0  0  0  0  0  0  0  0  0  0
  142.7852   72.9127  220.5152 H   0  0  0  0  0  0  0  0  0  0  0  0
  143.4280   74.0656  218.2122 H   0  0  0  0  0  0  0  0  0  0  0  0
  142.2673   72.9267  217.4961 H   0  0  0  0  0  0  0  0  0  0  0  0
  141.7701   75.1140  219.5973 H   0  0  0  0  0  0  0  0  0  0  0  0
  140.8584   74.8277  218.1197 H   0  0  0  0  0  0  0  0  0  0  0  0
  140.8021   75.4005  221.6075 H   0  0  0  0  0  0  0  0  0  0  0  0
  138.5310   74.1750  222.7250 H   0  0  0  0  0  0  0  0  0  0  0  0
  139.5620   75.2500  223.4740 H   0  0  0  0  0  0  0  0  0  0  0  0
  139.6626   76.3374  219.6118 H   0  0  0  0  0  0  0  0  0  0  0  0
  138.1322   75.5498  219.9991 H   0  0  0  0  0  0  0  0  0  0  0  0
  136.4971   77.0668  220.9701 H   0  0  0  0  0  0  0  0  0  0  0  0
  136.0593   79.0898  222.3840 H   0  0  0  0  0  0  0  0  0  0  0  0
  137.9341   80.3064  223.4361 H   0  0  0  0  0  0  0  0  0  0  0  0
  141.7744   79.3542  224.8937 H   0  0  0  0  0  0  0  0  0  0  0  0
  141.5827   77.9595  223.8070 H   0  0  0  0  0  0  0  0  0  0  0  0
  143.8207   79.1501  223.5863 H   0  0  0  0  0  0  0  0  0  0  0  0
  142.8686   79.0812  222.0508 H   0  0  0  0  0  0  0  0  0  0  0  0
  142.1004   81.3694  224.7094 H   0  0  0  0  0  0  0  0  0  0  0  0
  142.1039   82.6172  223.3654 H   0  0  0  0  0  0  0  0  0  0  0  0
  139.8518   81.5657  223.9663 H   0  0  0  0  0  0  0  0  0  0  0  0
  140.3045   81.5856  222.2543 H   0  0  0  0  0  0  0  0  0  0  0  0
  140.7026   77.5603  221.7104 H   0  0  0  0  0  0  0  0  0  0  0  0
  139.6897   71.4624  219.6064 H   0  0  0  0  0  0  0  0  0  0  0  0
  140.3709   72.0441  218.0548 H   0  0  0  0  0  0  0  0  0  0  0  0
  141.7957   70.8423  220.4579 H   0  0  0  0  0  0  0  0  0  0  0  0
  142.1173   70.5686  218.7456 H   0  0  0  0  0  0  0  0  0  0  0  0
  1  2  1  0
  2  3  1  0
  3  4  2  0
  3  5  1  0
  5  6  1  0
  6  7  2  0
  7  8  1  0
  8  9  2  0
  9 10  1  0
 10 11  2  0
  5 12  1  0
 12 13  1  0
 13 14  1  0
 14 15  1  0
 15 16  1  0
 16 17  2  0
 16 18  1  0
 18 19  1  0
 18 20  1  0
 20 21  1  0
 21 22  2  0
 22 23  1  0
 23 24  2  0
 24 25  1  0
 25 26  1  0
 26 27  1  0
 27 28  1  0
 28 29  1  0
 29 30  1  0
 30 31  1  0
 25 32  2  0
 15 33  1  0
 33 34  1  0
 11  6  1  0
 34 12  1  0
 32 21  1  0
 31 26  1  0
  1 35  1  0
  1 36  1  0
  1 37  1  0
  2 38  1  0
  2 39  1  0
  7 40  1  0
  8 41  1  0
  9 42  1  0
 10 43  1  0
 11 44  1  0
 12 45  1  0
 13 46  1  0
 13 47  1  0
 14 48  1  0
 14 49  1  0
 18 50  1  1
 19 51  1  0
 19 52  1  0
 20 53  1  0
 20 54  1  0
 22 55  1  0
 23 56  1  0
 24 57  1  0
 27 58  1  0
 27 59  1  0
 28 60  1  0
 28 61  1  0
 30 62  1  0
 30 63  1  0
 31 64  1  0
 31 65  1  0
 32 66  1  0
 33 67  1  0
 33 68  1  0
 34 69  1  0
 34 70  1  0
M  END
>  <smiles>  (41) 
CCC(=O)N(c1ccccc1)C1CCN(C(=O)[C@H](N)Cc2cccc(N3CCOCC3)c2)CC1

>  <score_type>  (41) 
oracle

>  <origin>  (41) 
autodockgpu

>  <m_score__min__energy>  (41) 
-8.8800000000000008

>  <m_primary>  (41) 
energy

>  <rmsd>  (41) 
6.3459128595005145

>  <m_score__min__rmsd>  (41) 
6.3459128595005145

>  <meeko>  (41) 
{"free_energy": -6.9, "intermolecular_energy": -9.59, "internal_energy": -2.51, "cluster_size": 1, "cluster_id": 11, "rank_in_cluster": 1}

>  <energy>  (41) 
-7.44

>  <cluster_rmsd>  (41) 
0.0

>  <cluster>  (41) 
7

$$$$

     RDKit          3D

 70 73  0  0  0  0  0  0  0  0999 V2000
  136.2450   69.0350  223.4220 C   0  0  0  0  0  0  0  0  0  0  0  0
  136.8930   69.6520  224.6590 C   0  0  0  0  0  0  0  0  0  0  0  0
  138.3720   69.4930  224.4890 C   0  0  0  0  0  0  0  0  0  0  0  0
  138.7730   68.3230  224.2310 O   0  0  0  0  0  0  0  0  0  0  0  0
  139.2540   70.6060  224.6160 N   0  0  0  0  0  0  0  0  0  0  0  0
  139.9200   70.7930  225.8630 C   0  0  0  0  0  0  0  0  0  0  0  0
  139.7300   69.8030  226.8080 C   0  0  0  0  0  0  0  0  0  0  0  0
  140.3040   69.8370  228.0660 C   0  0  0  0  0  0  0  0  0  0  0  0
  141.1010   70.9370  228.3450 C   0  0  0  0  0  0  0  0  0  0  0  0
  141.2970   71.9370  227.3980 C   0  0  0  0  0  0  0  0  0  0  0  0
  140.7130   71.8760  226.1560 C   0  0  0  0  0  0  0  0  0  0  0  0
  139.4220   71.4810  223.4820 C   0  0  0  0  0  0  0  0  0  0  0  0
  140.2830   70.7640  222.4870 C   0  0  0  0  0  0  0  0  0  0  0  0
  140.9250   71.8400  221.6000 C   0  0  0  0  0  0  0  0  0  0  0  0
  139.8710   72.8350  221.4210 N   0  0  0  0  0  0  0  0  0  0  0  0
  140.1180   74.2200  221.2810 C   0  0  0  0  0  0  0  0  0  0  0  0
  139.1150   74.9820  221.1250 O   0  0  0  0  0  0  0  0  0  0  0  0
  141.4400   74.8430  221.3050 C   0  0  2  0  0  0  0  0  0  0  0  0
  141.3340   76.2740  221.5970 N   0  0  0  0  0  0  0  0  0  0  0  0
  142.0130   74.7920  219.8800 C   0  0  0  0  0  0  0  0  0  0  0  0
  143.3470   74.1430  220.0250 C   0  0  0  0  0  0  0  0  0  0  0  0
  144.4630   74.8370  220.4570 C   0  0  0  0  0  0  0  0  0  0  0  0
  145.6590   74.1350  220.5490 C   0  0  0  0  0  0  0  0  0  0  0  0
  145.7120   72.7820  220.2150 C   0  0  0  0  0  0  0  0  0  0  0  0
  144.6170   72.0890  219.7870 C   0  0  0  0  0  0  0  0  0  0  0  0
  144.6320   70.7320  219.4370 N   0  0  0  0  0  0  0  0  0  0  0  0
  145.5760   70.1160  218.5290 C   0  0  0  0  0  0  0  0  0  0  0  0
  146.3090   69.0380  219.3130 C   0  0  0  0  0  0  0  0  0  0  0  0
  145.4250   68.2000  219.9420 O   0  0  0  0  0  0  0  0  0  0  0  0
  144.0950   68.4260  219.6890 C   0  0  0  0  0  0  0  0  0  0  0  0
  143.6270   69.8260  220.0120 C   0  0  0  0  0  0  0  0  0  0  0  0
  143.4240   72.8080  219.7000 C   0  0  0  0  0  0  0  0  0  0  0  0
  138.5050   72.2880  221.4030 C   0  0  0  0  0  0  0  0  0  0  0  0
  138.1210   71.8680  222.8280 C   0  0  0  0  0  0  0  0  0  0  0  0
  135.4808   68.3074  223.7327 H   0  0  0  0  0  0  0  0  0  0  0  0
  135.7743   69.8270  222.8210 H   0  0  0  0  0  0  0  0  0  0  0  0
  137.0130   68.5261  222.8210 H   0  0  0  0  0  0  0  0  0  0  0  0
  136.6316   70.7179  224.7332 H   0  0  0  0  0  0  0  0  0  0  0  0
  136.5433   69.1596  225.5784 H   0  0  0  0  0  0  0  0  0  0  0  0
  139.0913   68.9463  226.5472 H   0  0  0  0  0  0  0  0  0  0  0  0
  140.1378   69.0374  228.8029 H   0  0  0  0  0  0  0  0  0  0  0  0
  141.5851   71.0200  229.3292 H   0  0  0  0  0  0  0  0  0  0  0  0
  141.9348   72.7971  227.6497 H   0  0  0  0  0  0  0  0  0  0  0  0
  140.8760   72.6731  225.4157 H   0  0  0  0  0  0  0  0  0  0  0  0
  139.8801   72.4170  223.8342 H   0  0  0  0  0  0  0  0  0  0  0  0
  141.0622   70.1870  223.0066 H   0  0  0  0  0  0  0  0  0  0  0  0
  139.6892   70.0595  221.8861 H   0  0  0  0  0  0  0  0  0  0  0  0
  141.7999   72.2841  222.0973 H   0  0  0  0  0  0  0  0  0  0  0  0
  141.2881   71.4352  220.6438 H   0  0  0  0  0  0  0  0  0  0  0  0
  142.0498   74.3202  222.0565 H   0  0  0  0  0  0  0  0  0  0  0  0
  140.4160   76.4310  222.0450 H   0  0  0  0  0  0  0  0  0  0  0  0
  142.0570   76.5610  222.3080 H   0  0  0  0  0  0  0  0  0  0  0  0
  141.3625   74.1965  219.2226 H   0  0  0  0  0  0  0  0  0  0  0  0
  142.0864   75.7920  219.4276 H   0  0  0  0  0  0  0  0  0  0  0  0
  144.4060   75.9041  220.7178 H   0  0  0  0  0  0  0  0  0  0  0  0
  146.5700   74.6501  220.8876 H   0  0  0  0  0  0  0  0  0  0  0  0
  146.6729   72.2533  220.2998 H   0  0  0  0  0  0  0  0  0  0  0  0
  145.0434   69.6675  217.6774 H   0  0  0  0  0  0  0  0  0  0  0  0
  146.2815   70.8606  218.1318 H   0  0  0  0  0  0  0  0  0  0  0  0
  146.9312   68.4508  218.6216 H   0  0  0  0  0  0  0  0  0  0  0  0
  146.9341   69.5243  220.0764 H   0  0  0  0  0  0  0  0  0  0  0  0
  143.9117   68.2400  218.6205 H   0  0  0  0  0  0  0  0  0  0  0  0
  143.5309   67.7472  220.3456 H   0  0  0  0  0  0  0  0  0  0  0  0
  142.6413   70.0130  219.5611 H   0  0  0  0  0  0  0  0  0  0  0  0
  143.5231   69.9759  221.0968 H   0  0  0  0  0  0  0  0  0  0  0  0
  142.5148   72.2903  219.3603 H   0  0  0  0  0  0  0  0  0  0  0  0
  137.8043   73.0555  221.0424 H   0  0  0  0  0  0  0  0  0  0  0  0
  138.4601   71.4174  220.7322 H   0  0  0  0  0  0  0  0  0  0  0  0
  137.6519   72.7055  223.3652 H   0  0  0  0  0  0  0  0  0  0  0  0
  137.3929   71.0435  222.8347 H   0  0  0  0  0  0  0  0  0  0  0  0
  1  2  1  0
  2  3  1  0
  3  4  2  0
  3  5  1  0
  5  6  1  0
  6  7  2  0
  7  8  1  0
  8  9  2  0
  9 10  1  0
 10 11  2  0
  5 12  1  0
 12 13  1  0
 13 14  1  0
 14 15  1  0
 15 16  1  0
 16 17  2  0
 16 18  1  0
 18 19  1  0
 18 20  1  0
 20 21  1  0
 21 22  2  0
 22 23  1  0
 23 24  2  0
 24 25  1  0
 25 26  1  0
 26 27  1  0
 27 28  1  0
 28 29  1  0
 29 30  1  0
 30 31  1  0
 25 32  2  0
 15 33  1  0
 33 34  1  0
 11  6  1  0
 34 12  1  0
 32 21  1  0
 31 26  1  0
  1 35  1  0
  1 36  1  0
  1 37  1  0
  2 38  1  0
  2 39  1  0
  7 40  1  0
  8 41  1  0
  9 42  1  0
 10 43  1  0
 11 44  1  0
 12 45  1  0
 13 46  1  0
 13 47  1  0
 14 48  1  0
 14 49  1  0
 18 50  1  1
 19 51  1  0
 19 52  1  0
 20 53  1  0
 20 54  1  0
 22 55  1  0
 23 56  1  0
 24 57  1  0
 27 58  1  0
 27 59  1  0
 28 60  1  0
 28 61  1  0
 30 62  1  0
 30 63  1  0
 31 64  1  0
 31 65  1  0
 32 66  1  0
 33 67  1  0
 33 68  1  0
 34 69  1  0
 34 70  1  0
M  END
>  <smiles>  (42) 
CCC(=O)N(c1ccccc1)C1CCN(C(=O)[C@H](N)Cc2cccc(N3CCOCC3)c2)CC1

>  <score_type>  (42) 
oracle

>  <origin>  (42) 
autodockgpu

>  <m_score__min__energy>  (42) 
-8.8800000000000008

>  <m_primary>  (42) 
energy

>  <rmsd>  (42) 
6.9682674810989615

>  <m_score__min__rmsd>  (42) 
6.9682674810989615

>  <meeko>  (42) 
{"free_energy": -8.47, "intermolecular_energy": -11.15, "internal_energy": -2.75, "cluster_size": 20, "cluster_id": 1, "rank_in_cluster": 6}

>  <energy>  (42) 
-7.26

>  <cluster_rmsd>  (42) 
0.62

>  <cluster>  (42) 
7

$$$$

     RDKit          3D

 70 73  0  0  0  0  0  0  0  0999 V2000
  137.9860   67.7410  222.2730 C   0  0  0  0  0  0  0  0  0  0  0  0
  138.8140   67.8730  223.5500 C   0  0  0  0  0  0  0  0  0  0  0  0
  138.2950   69.0780  224.2710 C   0  0  0  0  0  0  0  0  0  0  0  0
  137.0870   69.0220  224.6350 O   0  0  0  0  0  0  0  0  0  0  0  0
  139.1290   70.2080  224.5170 N   0  0  0  0  0  0  0  0  0  0  0  0
  139.7640   70.3050  225.7900 C   0  0  0  0  0  0  0  0  0  0  0  0
  140.4290   71.4880  226.0500 C   0  0  0  0  0  0  0  0  0  0  0  0
  141.0960   71.7370  227.2350 C   0  0  0  0  0  0  0  0  0  0  0  0
  141.0690   70.7210  228.1780 C   0  0  0  0  0  0  0  0  0  0  0  0
  140.4010   69.5270  227.9230 C   0  0  0  0  0  0  0  0  0  0  0  0
  139.7460   69.3080  226.7350 C   0  0  0  0  0  0  0  0  0  0  0  0
  139.2830   71.1880  223.4700 C   0  0  0  0  0  0  0  0  0  0  0  0
  140.0300   70.5330  222.3490 C   0  0  0  0  0  0  0  0  0  0  0  0
  140.6840   71.6580  221.5350 C   0  0  0  0  0  0  0  0  0  0  0  0
  139.6900   72.7260  221.5340 N   0  0  0  0  0  0  0  0  0  0  0  0
  140.0190   74.1010  221.5210 C   0  0  0  0  0  0  0  0  0  0  0  0
  139.0610   74.9340  221.5150 O   0  0  0  0  0  0  0  0  0  0  0  0
  141.3790   74.6390  221.5160 C   0  0  2  0  0  0  0  0  0  0  0  0
  141.3790   76.0490  221.9090 N   0  0  0  0  0  0  0  0  0  0  0  0
  141.8770   74.6530  220.0630 C   0  0  0  0  0  0  0  0  0  0  0  0
  143.2460   74.0660  220.1200 C   0  0  0  0  0  0  0  0  0  0  0  0
  144.3540   74.8120  220.4800 C   0  0  0  0  0  0  0  0  0  0  0  0
  145.5850   74.1670  220.4930 C   0  0  0  0  0  0  0  0  0  0  0  0
  145.6790   72.8170  220.1540 C   0  0  0  0  0  0  0  0  0  0  0  0
  144.5910   72.0730  219.7970 C   0  0  0  0  0  0  0  0  0  0  0  0
  144.6470   70.7180  219.4450 N   0  0  0  0  0  0  0  0  0  0  0  0
  145.6100   70.1320  218.5370 C   0  0  0  0  0  0  0  0  0  0  0  0
  146.3730   69.0740  219.3200 C   0  0  0  0  0  0  0  0  0  0  0  0
  145.5140   68.2090  219.9470 O   0  0  0  0  0  0  0  0  0  0  0  0
  144.1780   68.3970  219.6930 C   0  0  0  0  0  0  0  0  0  0  0  0
  143.6680   69.7810  220.0180 C   0  0  0  0  0  0  0  0  0  0  0  0
  143.3630   72.7360  219.7890 C   0  0  0  0  0  0  0  0  0  0  0  0
  138.2920   72.2670  221.5550 C   0  0  0  0  0  0  0  0  0  0  0  0
  137.9720   71.7190  222.9520 C   0  0  0  0  0  0  0  0  0  0  0  0
  136.9311   67.5728  222.5357 H   0  0  0  0  0  0  0  0  0  0  0  0
  138.0739   68.6645  221.6819 H   0  0  0  0  0  0  0  0  0  0  0  0
  138.3567   66.8906  221.6819 H   0  0  0  0  0  0  0  0  0  0  0  0
  138.6944   66.9756  224.1748 H   0  0  0  0  0  0  0  0  0  0  0  0
  139.8847   67.9775  223.3206 H   0  0  0  0  0  0  0  0  0  0  0  0
  140.4276   72.2699  225.2762 H   0  0  0  0  0  0  0  0  0  0  0  0
  141.6185   72.6873  227.4193 H   0  0  0  0  0  0  0  0  0  0  0  0
  141.5825   70.8605  229.1407 H   0  0  0  0  0  0  0  0  0  0  0  0
  140.3972   68.7395  228.6910 H   0  0  0  0  0  0  0  0  0  0  0  0
  139.2214   68.3599  226.5458 H   0  0  0  0  0  0  0  0  0  0  0  0
  139.8237   72.0518  223.8841 H   0  0  0  0  0  0  0  0  0  0  0  0
  140.8008   69.8588  222.7506 H   0  0  0  0  0  0  0  0  0  0  0  0
  139.3541   69.9334  221.7216 H   0  0  0  0  0  0  0  0  0  0  0  0
  141.6162   71.9936  222.0128 H   0  0  0  0  0  0  0  0  0  0  0  0
  140.9579   71.3374  220.5190 H   0  0  0  0  0  0  0  0  0  0  0  0
  141.9906   74.0285  222.1967 H   0  0  0  0  0  0  0  0  0  0  0  0
  142.1840   76.4990  221.4430 H   0  0  0  0  0  0  0  0  0  0  0  0
  140.5200   76.5360  221.5390 H   0  0  0  0  0  0  0  0  0  0  0  0
  141.2213   74.0439  219.4235 H   0  0  0  0  0  0  0  0  0  0  0  0
  141.8790   75.6668  219.6362 H   0  0  0  0  0  0  0  0  0  0  0  0
  144.2641   75.8756  220.7459 H   0  0  0  0  0  0  0  0  0  0  0  0
  146.4911   74.7246  220.7724 H   0  0  0  0  0  0  0  0  0  0  0  0
  146.6669   72.3336  220.1751 H   0  0  0  0  0  0  0  0  0  0  0  0
  145.0920   69.6701  217.6836 H   0  0  0  0  0  0  0  0  0  0  0  0
  146.2940   70.8978  218.1424 H   0  0  0  0  0  0  0  0  0  0  0  0
  147.0127   68.5066  218.6280 H   0  0  0  0  0  0  0  0  0  0  0  0
  146.9824   69.5772  220.0851 H   0  0  0  0  0  0  0  0  0  0  0  0
  144.0015   68.2080  218.6238 H   0  0  0  0  0  0  0  0  0  0  0  0
  143.6337   67.7009  220.3481 H   0  0  0  0  0  0  0  0  0  0  0  0
  142.6775   69.9393  219.5664 H   0  0  0  0  0  0  0  0  0  0  0  0
  143.5583   69.9259  221.1029 H   0  0  0  0  0  0  0  0  0  0  0  0
  142.4585   72.1763  219.5087 H   0  0  0  0  0  0  0  0  0  0  0  0
  137.6229   73.1096  221.3262 H   0  0  0  0  0  0  0  0  0  0  0  0
  138.1464   71.4785  220.8020 H   0  0  0  0  0  0  0  0  0  0  0  0
  137.5939   72.5198  223.6045 H   0  0  0  0  0  0  0  0  0  0  0  0
  137.1931   70.9428  222.9238 H   0  0  0  0  0  0  0  0  0  0  0  0
  1  2  1  0
  2  3  1  0
  3  4  2  0
  3  5  1  0
  5  6  1  0
  6  7  2  0
  7  8  1  0
  8  9  2  0
  9 10  1  0
 10 11  2  0
  5 12  1  0
 12 13  1  0
 13 14  1  0
 14 15  1  0
 15 16  1  0
 16 17  2  0
 16 18  1  0
 18 19  1  0
 18 20  1  0
 20 21  1  0
 21 22  2  0
 22 23  1  0
 23 24  2  0
 24 25  1  0
 25 26  1  0
 26 27  1  0
 27 28  1  0
 28 29  1  0
 29 30  1  0
 30 31  1  0
 25 32  2  0
 15 33  1  0
 33 34  1  0
 11  6  1  0
 34 12  1  0
 32 21  1  0
 31 26  1  0
  1 35  1  0
  1 36  1  0
  1 37  1  0
  2 38  1  0
  2 39  1  0
  7 40  1  0
  8 41  1  0
  9 42  1  0
 10 43  1  0
 11 44  1  0
 12 45  1  0
 13 46  1  0
 13 47  1  0
 14 48  1  0
 14 49  1  0
 18 50  1  1
 19 51  1  0
 19 52  1  0
 20 53  1  0
 20 54  1  0
 22 55  1  0
 23 56  1  0
 24 57  1  0
 27 58  1  0
 27 59  1  0
 28 60  1  0
 28 61  1  0
 30 62  1  0
 30 63  1  0
 31 64  1  0
 31 65  1  0
 32 66  1  0
 33 67  1  0
 33 68  1  0
 34 69  1  0
 34 70  1  0
M  END
>  <smiles>  (43) 
CCC(=O)N(c1ccccc1)C1CCN(C(=O)[C@H](N)Cc2cccc(N3CCOCC3)c2)CC1

>  <score_type>  (43) 
oracle

>  <origin>  (43) 
autodockgpu

>  <m_score__min__energy>  (43) 
-8.8800000000000008

>  <m_primary>  (43) 
energy

>  <rmsd>  (43) 
7.103423110627545

>  <m_score__min__rmsd>  (43) 
7.103423110627545

>  <meeko>  (43) 
{"free_energy": -8.18, "intermolecular_energy": -10.87, "internal_energy": -2.78, "cluster_size": 20, "cluster_id": 1, "rank_in_cluster": 12}

>  <energy>  (43) 
-7.14

>  <cluster_rmsd>  (43) 
0.0

>  <cluster>  (43) 
8

$$$$

     RDKit          3D

 70 73  0  0  0  0  0  0  0  0999 V2000
  140.2290   79.4770  223.8290 C   0  0  0  0  0  0  0  0  0  0  0  0
  141.5750   78.7700  223.6870 C   0  0  0  0  0  0  0  0  0  0  0  0
  142.2900   79.4390  222.5540 C   0  0  0  0  0  0  0  0  0  0  0  0
  143.3220   80.0960  222.8680 O   0  0  0  0  0  0  0  0  0  0  0  0
  141.8150   79.3300  221.2140 N   0  0  0  0  0  0  0  0  0  0  0  0
  141.6370   80.5320  220.4670 C   0  0  0  0  0  0  0  0  0  0  0  0
  140.9570   81.5500  221.1070 C   0  0  0  0  0  0  0  0  0  0  0  0
  140.7010   82.7740  220.5190 C   0  0  0  0  0  0  0  0  0  0  0  0
  141.1680   82.9420  219.2240 C   0  0  0  0  0  0  0  0  0  0  0  0
  141.8540   81.9210  218.5750 C   0  0  0  0  0  0  0  0  0  0  0  0
  142.0950   80.7130  219.1850 C   0  0  0  0  0  0  0  0  0  0  0  0
  141.5410   78.0150  220.6890 C   0  0  0  0  0  0  0  0  0  0  0  0
  140.1600   78.0440  220.1080 C   0  0  0  0  0  0  0  0  0  0  0  0
  139.6560   76.5940  220.0890 C   0  0  0  0  0  0  0  0  0  0  0  0
  140.8340   75.8080  219.7340 N   0  0  0  0  0  0  0  0  0  0  0  0
  141.0710   74.4970  220.2060 C   0  0  0  0  0  0  0  0  0  0  0  0
  142.1320   73.9170  219.8170 O   0  0  0  0  0  0  0  0  0  0  0  0
  140.1910   73.7580  221.1090 C   0  0  2  0  0  0  0  0  0  0  0  0
  139.9550   74.5170  222.3380 N   0  0  0  0  0  0  0  0  0  0  0  0
  140.9440   72.5040  221.5810 C   0  0  0  0  0  0  0  0  0  0  0  0
  140.0100   71.8300  222.5280 C   0  0  0  0  0  0  0  0  0  0  0  0
  138.6910   71.5690  222.2040 C   0  0  0  0  0  0  0  0  0  0  0  0
  137.9060   70.9430  223.1640 C   0  0  0  0  0  0  0  0  0  0  0  0
  138.4460   70.5960  224.4030 C   0  0  0  0  0  0  0  0  0  0  0  0
  139.7460   70.8500  224.7320 C   0  0  0  0  0  0  0  0  0  0  0  0
  140.3220   70.5230  225.9660 N   0  0  0  0  0  0  0  0  0  0  0  0
  141.0470   71.4420  226.8180 C   0  0  0  0  0  0  0  0  0  0  0  0
  140.3100   71.4910  228.1480 C   0  0  0  0  0  0  0  0  0  0  0  0
  140.1010   70.2300  228.6430 O   0  0  0  0  0  0  0  0  0  0  0  0
  140.6490   69.2000  227.9200 C   0  0  0  0  0  0  0  0  0  0  0  0
  140.2090   69.1470  226.4750 C   0  0  0  0  0  0  0  0  0  0  0  0
  140.5210   71.4800  223.7570 C   0  0  0  0  0  0  0  0  0  0  0  0
  141.7810   76.4900  218.8370 C   0  0  0  0  0  0  0  0  0  0  0  0
  142.5180   77.5780  219.6300 C   0  0  0  0  0  0  0  0  0  0  0  0
  139.9912   79.6019  224.8957 H   0  0  0  0  0  0  0  0  0  0  0  0
  140.2808   80.4643  223.3468 H   0  0  0  0  0  0  0  0  0  0  0  0
  139.4455   78.8741  223.3468 H   0  0  0  0  0  0  0  0  0  0  0  0
  142.1566   78.8702  224.6153 H   0  0  0  0  0  0  0  0  0  0  0  0
  141.4411   77.6955  223.4934 H   0  0  0  0  0  0  0  0  0  0  0  0
  140.6023   81.3780  222.1339 H   0  0  0  0  0  0  0  0  0  0  0  0
  140.1573   83.5704  221.0483 H   0  0  0  0  0  0  0  0  0  0  0  0
  140.9936   83.8952  218.7034 H   0  0  0  0  0  0  0  0  0  0  0  0
  142.2126   82.0842  217.5480 H   0  0  0  0  0  0  0  0  0  0  0  0
  142.6395   79.9136  218.6610 H   0  0  0  0  0  0  0  0  0  0  0  0
  141.6345   77.2902  221.5112 H   0  0  0  0  0  0  0  0  0  0  0  0
  139.5002   78.6661  220.7307 H   0  0  0  0  0  0  0  0  0  0  0  0
  140.1670   78.4726  219.0950 H   0  0  0  0  0  0  0  0  0  0  0  0
  139.2754   76.3006  221.0785 H   0  0  0  0  0  0  0  0  0  0  0  0
  138.8243   76.4470  219.3842 H   0  0  0  0  0  0  0  0  0  0  0  0
  139.2522   73.5479  220.5755 H   0  0  0  0  0  0  0  0  0  0  0  0
  139.7900   75.5000  222.0680 H   0  0  0  0  0  0  0  0  0  0  0  0
  139.0680   74.1930  222.8080 H   0  0  0  0  0  0  0  0  0  0  0  0
  141.1730   71.8465  220.7294 H   0  0  0  0  0  0  0  0  0  0  0  0
  141.9059   72.7517  222.0536 H   0  0  0  0  0  0  0  0  0  0  0  0
  138.2789   71.8468  221.2227 H   0  0  0  0  0  0  0  0  0  0  0  0
  136.8513   70.7193  222.9459 H   0  0  0  0  0  0  0  0  0  0  0  0
  137.8000   70.0993  225.1419 H   0  0  0  0  0  0  0  0  0  0  0  0
  142.0763   71.0848  226.9694 H   0  0  0  0  0  0  0  0  0  0  0  0
  141.1003   72.4415  226.3617 H   0  0  0  0  0  0  0  0  0  0  0  0
  140.9091   72.0656  228.8698 H   0  0  0  0  0  0  0  0  0  0  0  0
  139.3328   71.9702  227.9885 H   0  0  0  0  0  0  0  0  0  0  0  0
  141.7434   69.3083  227.9424 H   0  0  0  0  0  0  0  0  0  0  0  0
  140.3001   68.2678  228.3884 H   0  0  0  0  0  0  0  0  0  0  0  0
  140.8615   68.4724  225.9013 H   0  0  0  0  0  0  0  0  0  0  0  0
  139.1816   68.7655  226.3804 H   0  0  0  0  0  0  0  0  0  0  0  0
  141.5750   71.7042  223.9782 H   0  0  0  0  0  0  0  0  0  0  0  0
  142.5071   75.7630  218.4443 H   0  0  0  0  0  0  0  0  0  0  0  0
  141.2374   76.9445  217.9956 H   0  0  0  0  0  0  0  0  0  0  0  0
  143.4305   77.1706  220.0898 H   0  0  0  0  0  0  0  0  0  0  0  0
  142.8354   78.4139  218.9893 H   0  0  0  0  0  0  0  0  0  0  0  0
  1  2  1  0
  2  3  1  0
  3  4  2  0
  3  5  1  0
  5  6  1  0
  6  7  2  0
  7  8  1  0
  8  9  2  0
  9 10  1  0
 10 11  2  0
  5 12  1  0
 12 13  1  0
 13 14  1  0
 14 15  1  0
 15 16  1  0
 16 17  2  0
 16 18  1  0
 18 19  1  0
 18 20  1  0
 20 21  1  0
 21 22  2  0
 22 23  1  0
 23 24  2  0
 24 25  1  0
 25 26  1  0
 26 27  1  0
 27 28  1  0
 28 29  1  0
 29 30  1  0
 30 31  1  0
 25 32  2  0
 15 33  1  0
 33 34  1  0
 11  6  1  0
 34 12  1  0
 32 21  1  0
 31 26  1  0
  1 35  1  0
  1 36  1  0
  1 37  1  0
  2 38  1  0
  2 39  1  0
  7 40  1  0
  8 41  1  0
  9 42  1  0
 10 43  1  0
 11 44  1  0
 12 45  1  0
 13 46  1  0
 13 47  1  0
 14 48  1  0
 14 49  1  0
 18 50  1  6
 19 51  1  0
 19 52  1  0
 20 53  1  0
 20 54  1  0
 22 55  1  0
 23 56  1  0
 24 57  1  0
 27 58  1  0
 27 59  1  0
 28 60  1  0
 28 61  1  0
 30 62  1  0
 30 63  1  0
 31 64  1  0
 31 65  1  0
 32 66  1  0
 33 67  1  0
 33 68  1  0
 34 69  1  0
 34 70  1  0
M  END
>  <smiles>  (44) 
CCC(=O)N(c1ccccc1)C1CCN(C(=O)[C@H](N)Cc2cccc(N3CCOCC3)c2)CC1

>  <score_type>  (44) 
oracle

>  <origin>  (44) 
autodockgpu

>  <m_score__min__energy>  (44) 
-8.8800000000000008

>  <m_primary>  (44) 
energy

>  <rmsd>  (44) 
4.90858790162802

>  <m_score__min__rmsd>  (44) 
4.90858790162802

>  <meeko>  (44) 
{"free_energy": -8.16, "intermolecular_energy": -10.85, "internal_energy": -1.93, "cluster_size": 6, "cluster_id": 3, "rank_in_cluster": 5}

>  <energy>  (44) 
-6.99

>  <cluster_rmsd>  (44) 
0.0

>  <cluster>  (44) 
9

$$$$

     RDKit          3D

 70 73  0  0  0  0  0  0  0  0999 V2000
  136.3550   69.4080  224.9500 C   0  0  0  0  0  0  0  0  0  0  0  0
  137.2120   68.8960  223.7940 C   0  0  0  0  0  0  0  0  0  0  0  0
  138.6300   68.9160  224.2740 C   0  0  0  0  0  0  0  0  0  0  0  0
  139.1870   67.7880  224.3860 O   0  0  0  0  0  0  0  0  0  0  0  0
  139.2880   70.1430  224.5830 N   0  0  0  0  0  0  0  0  0  0  0  0
  139.8340   70.2980  225.8910 C   0  0  0  0  0  0  0  0  0  0  0  0
  140.4650   71.5000  226.1490 C   0  0  0  0  0  0  0  0  0  0  0  0
  141.0470   71.8030  227.3650 C   0  0  0  0  0  0  0  0  0  0  0  0
  140.9680   70.8240  228.3430 C   0  0  0  0  0  0  0  0  0  0  0  0
  140.3330   69.6120  228.0910 C   0  0  0  0  0  0  0  0  0  0  0  0
  139.7630   69.3380  226.8710 C   0  0  0  0  0  0  0  0  0  0  0  0
  139.3640   71.1560  223.5600 C   0  0  0  0  0  0  0  0  0  0  0  0
  139.9780   70.5240  222.3480 C   0  0  0  0  0  0  0  0  0  0  0  0
  140.5790   71.6620  221.5110 C   0  0  0  0  0  0  0  0  0  0  0  0
  139.6200   72.7530  221.6450 N   0  0  0  0  0  0  0  0  0  0  0  0
  139.9840   74.1200  221.6460 C   0  0  0  0  0  0  0  0  0  0  0  0
  139.0530   74.9740  221.7640 O   0  0  0  0  0  0  0  0  0  0  0  0
  141.3500   74.6240  221.5230 C   0  0  2  0  0  0  0  0  0  0  0  0
  141.3940   76.0660  221.7690 N   0  0  0  0  0  0  0  0  0  0  0  0
  141.7770   74.4810  220.0540 C   0  0  0  0  0  0  0  0  0  0  0  0
  143.1580   73.9210  220.1090 C   0  0  0  0  0  0  0  0  0  0  0  0
  144.2490   74.6830  220.4890 C   0  0  0  0  0  0  0  0  0  0  0  0
  145.4930   74.0630  220.4970 C   0  0  0  0  0  0  0  0  0  0  0  0
  145.6170   72.7220  220.1340 C   0  0  0  0  0  0  0  0  0  0  0  0
  144.5470   71.9630  219.7570 C   0  0  0  0  0  0  0  0  0  0  0  0
  144.6320   70.6160  219.3810 N   0  0  0  0  0  0  0  0  0  0  0  0
  145.6540   70.0540  218.5220 C   0  0  0  0  0  0  0  0  0  0  0  0
  146.3730   68.9830  219.3280 C   0  0  0  0  0  0  0  0  0  0  0  0
  145.4810   68.1010  219.8820 O   0  0  0  0  0  0  0  0  0  0  0  0
  144.1630   68.2880  219.5490 C   0  0  0  0  0  0  0  0  0  0  0  0
  143.6250   69.6620  219.8710 C   0  0  0  0  0  0  0  0  0  0  0  0
  143.3050   72.6000  219.7540 C   0  0  0  0  0  0  0  0  0  0  0  0
  138.2190   72.3270  221.7900 C   0  0  0  0  0  0  0  0  0  0  0  0
  138.0240   71.7370  223.1940 C   0  0  0  0  0  0  0  0  0  0  0  0
  136.8231   69.1284  225.9053 H   0  0  0  0  0  0  0  0  0  0  0  0
  136.2730   70.5032  224.8886 H   0  0  0  0  0  0  0  0  0  0  0  0
  135.3517   68.9612  224.8886 H   0  0  0  0  0  0  0  0  0  0  0  0
  136.9159   67.8709  223.5265 H   0  0  0  0  0  0  0  0  0  0  0  0
  137.0866   69.5222  222.8984 H   0  0  0  0  0  0  0  0  0  0  0  0
  140.5059   72.2521  225.3474 H   0  0  0  0  0  0  0  0  0  0  0  0
  141.5450   72.7669  227.5467 H   0  0  0  0  0  0  0  0  0  0  0  0
  141.4134   71.0078  229.3318 H   0  0  0  0  0  0  0  0  0  0  0  0
  140.2861   68.8548  228.8876 H   0  0  0  0  0  0  0  0  0  0  0  0
  139.2634   68.3760  226.6842 H   0  0  0  0  0  0  0  0  0  0  0  0
  139.9665   71.9910  223.9470 H   0  0  0  0  0  0  0  0  0  0  0  0
  140.7659   69.8172  222.6475 H   0  0  0  0  0  0  0  0  0  0  0  0
  139.2270   69.9640  221.7715 H   0  0  0  0  0  0  0  0  0  0  0  0
  141.5628   71.9575  221.9044 H   0  0  0  0  0  0  0  0  0  0  0  0
  140.7418   71.3719  220.4625 H   0  0  0  0  0  0  0  0  0  0  0  0
  141.9827   74.0716  222.2333 H   0  0  0  0  0  0  0  0  0  0  0  0
  142.1930   76.4470  221.2370 H   0  0  0  0  0  0  0  0  0  0  0  0
  140.5340   76.5350  221.3780 H   0  0  0  0  0  0  0  0  0  0  0  0
  141.1024   73.7958  219.5198 H   0  0  0  0  0  0  0  0  0  0  0  0
  141.7400   75.4401  219.5166 H   0  0  0  0  0  0  0  0  0  0  0  0
  144.1359   75.7394  220.7739 H   0  0  0  0  0  0  0  0  0  0  0  0
  146.3859   74.6339  220.7916 H   0  0  0  0  0  0  0  0  0  0  0  0
  146.6145   72.2587  220.1522 H   0  0  0  0  0  0  0  0  0  0  0  0
  145.1931   69.6084  217.6282 H   0  0  0  0  0  0  0  0  0  0  0  0
  146.3567   70.8314  218.1875 H   0  0  0  0  0  0  0  0  0  0  0  0
  147.0575   68.4333  218.6652 H   0  0  0  0  0  0  0  0  0  0  0  0
  146.9313   69.4721  220.1399 H   0  0  0  0  0  0  0  0  0  0  0  0
  144.0549   68.1215  218.4671 H   0  0  0  0  0  0  0  0  0  0  0  0
  143.5831   67.5752  220.1537 H   0  0  0  0  0  0  0  0  0  0  0  0
  142.6638   69.8253  219.3616 H   0  0  0  0  0  0  0  0  0  0  0  0
  143.4466   69.7826  220.9497 H   0  0  0  0  0  0  0  0  0  0  0  0
  142.4141   72.0267  219.4579 H   0  0  0  0  0  0  0  0  0  0  0  0
  137.5537   73.1929  221.6572 H   0  0  0  0  0  0  0  0  0  0  0  0
  137.9780   71.5696  221.0295 H   0  0  0  0  0  0  0  0  0  0  0  0
  137.7352   72.5230  223.9073 H   0  0  0  0  0  0  0  0  0  0  0  0
  137.2247   70.9816  223.2183 H   0  0  0  0  0  0  0  0  0  0  0  0
  1  2  1  0
  2  3  1  0
  3  4  2  0
  3  5  1  0
  5  6  1  0
  6  7  2  0
  7  8  1  0
  8  9  2  0
  9 10  1  0
 10 11  2  0
  5 12  1  0
 12 13  1  0
 13 14  1  0
 14 15  1  0
 15 16  1  0
 16 17  2  0
 16 18  1  0
 18 19  1  0
 18 20  1  0
 20 21  1  0
 21 22  2  0
 22 23  1  0
 23 24  2  0
 24 25  1  0
 25 26  1  0
 26 27  1  0
 27 28  1  0
 28 29  1  0
 29 30  1  0
 30 31  1  0
 25 32  2  0
 15 33  1  0
 33 34  1  0
 11  6  1  0
 34 12  1  0
 32 21  1  0
 31 26  1  0
  1 35  1  0
  1 36  1  0
  1 37  1  0
  2 38  1  0
  2 39  1  0
  7 40  1  0
  8 41  1  0
  9 42  1  0
 10 43  1  0
 11 44  1  0
 12 45  1  0
 13 46  1  0
 13 47  1  0
 14 48  1  0
 14 49  1  0
 18 50  1  1
 19 51  1  0
 19 52  1  0
 20 53  1  0
 20 54  1  0
 22 55  1  0
 23 56  1  0
 24 57  1  0
 27 58  1  0
 27 59  1  0
 28 60  1  0
 28 61  1  0
 30 62  1  0
 30 63  1  0
 31 64  1  0
 31 65  1  0
 32 66  1  0
 33 67  1  0
 33 68  1  0
 34 69  1  0
 34 70  1  0
M  END
>  <smiles>  (45) 
CCC(=O)N(c1ccccc1)C1CCN(C(=O)[C@H](N)Cc2cccc(N3CCOCC3)c2)CC1

>  <score_type>  (45) 
oracle

>  <origin>  (45) 
autodockgpu

>  <m_score__min__energy>  (45) 
-8.8800000000000008

>  <m_primary>  (45) 
energy

>  <rmsd>  (45) 
7.103505356201605

>  <m_score__min__rmsd>  (45) 
7.103505356201605

>  <meeko>  (45) 
{"free_energy": -8.71, "intermolecular_energy": -11.39, "internal_energy": -2.65, "cluster_size": 20, "cluster_id": 1, "rank_in_cluster": 4}

>  <energy>  (45) 
-6.96

>  <cluster_rmsd>  (45) 
0.0

>  <cluster>  (45) 
10

$$$$

     RDKit          3D

 70 73  0  0  0  0  0  0  0  0999 V2000
  138.7000   67.5610  223.0130 C   0  0  0  0  0  0  0  0  0  0  0  0
  139.2190   67.8110  224.4280 C   0  0  0  0  0  0  0  0  0  0  0  0
  138.4320   68.9610  224.9730 C   0  0  0  0  0  0  0  0  0  0  0  0
  137.2570   68.6920  225.3510 O   0  0  0  0  0  0  0  0  0  0  0  0
  138.9930   70.2700  225.0500 N   0  0  0  0  0  0  0  0  0  0  0  0
  139.7930   70.5890  226.1860 C   0  0  0  0  0  0  0  0  0  0  0  0
  140.5070   71.7700  226.1150 C   0  0  0  0  0  0  0  0  0  0  0  0
  141.3300   72.2190  227.1310 C   0  0  0  0  0  0  0  0  0  0  0  0
  141.4110   71.4110  228.2550 C   0  0  0  0  0  0  0  0  0  0  0  0
  140.6940   70.2220  228.3340 C   0  0  0  0  0  0  0  0  0  0  0  0
  139.8830   69.8010  227.3080 C   0  0  0  0  0  0  0  0  0  0  0  0
  138.7190   71.1960  223.9790 C   0  0  0  0  0  0  0  0  0  0  0  0
  139.5170   70.7560  222.7910 C   0  0  0  0  0  0  0  0  0  0  0  0
  139.6930   71.9890  221.8930 C   0  0  0  0  0  0  0  0  0  0  0  0
  138.4160   72.6890  221.9880 N   0  0  0  0  0  0  0  0  0  0  0  0
  138.2870   74.0950  221.9200 C   0  0  0  0  0  0  0  0  0  0  0  0
  137.1180   74.5820  222.0100 O   0  0  0  0  0  0  0  0  0  0  0  0
  139.3970   75.0320  221.7560 C   0  0  2  0  0  0  0  0  0  0  0  0
  139.0820   76.3210  222.3750 N   0  0  0  0  0  0  0  0  0  0  0  0
  139.5250   75.3560  220.2590 C   0  0  0  0  0  0  0  0  0  0  0  0
  140.9590   75.7150  220.0660 C   0  0  0  0  0  0  0  0  0  0  0  0
  141.3580   76.9880  219.6970 C   0  0  0  0  0  0  0  0  0  0  0  0
  142.7200   77.2120  219.5360 C   0  0  0  0  0  0  0  0  0  0  0  0
  143.6350   76.1800  219.7440 C   0  0  0  0  0  0  0  0  0  0  0  0
  143.2510   74.9210  220.1070 C   0  0  0  0  0  0  0  0  0  0  0  0
  144.1400   73.8590  220.3190 N   0  0  0  0  0  0  0  0  0  0  0  0
  143.8490   72.4650  220.0610 C   0  0  0  0  0  0  0  0  0  0  0  0
  144.8650   71.9810  219.0370 C   0  0  0  0  0  0  0  0  0  0  0  0
  146.1440   72.2790  219.4340 O   0  0  0  0  0  0  0  0  0  0  0  0
  146.2710   72.8580  220.6720 C   0  0  0  0  0  0  0  0  0  0  0  0
  145.4850   74.1360  220.8480 C   0  0  0  0  0  0  0  0  0  0  0  0
  141.8800   74.7130  220.2640 C   0  0  0  0  0  0  0  0  0  0  0  0
  137.2470   71.8140  222.1720 C   0  0  0  0  0  0  0  0  0  0  0  0
  137.2620   71.2620  223.6040 C   0  0  0  0  0  0  0  0  0  0  0  0
  137.7101   67.0841  223.0645 H   0  0  0  0  0  0  0  0  0  0  0  0
  138.6184   68.5186  222.4779 H   0  0  0  0  0  0  0  0  0  0  0  0
  139.3979   66.9003  222.4779 H   0  0  0  0  0  0  0  0  0  0  0  0
  139.0675   66.9176  225.0516 H   0  0  0  0  0  0  0  0  0  0  0  0
  140.2962   68.0335  224.4227 H   0  0  0  0  0  0  0  0  0  0  0  0
  140.4161   72.3826  225.2059 H   0  0  0  0  0  0  0  0  0  0  0  0
  141.8887   73.1633  227.0523 H   0  0  0  0  0  0  0  0  0  0  0  0
  142.0515   71.7148  229.0961 H   0  0  0  0  0  0  0  0  0  0  0  0
  140.7782   69.6036  229.2398 H   0  0  0  0  0  0  0  0  0  0  0  0
  139.3209   68.8585  227.3828 H   0  0  0  0  0  0  0  0  0  0  0  0
  138.9956   72.2052  224.3181 H   0  0  0  0  0  0  0  0  0  0  0  0
  140.4989   70.3789  223.1130 H   0  0  0  0  0  0  0  0  0  0  0  0
  139.0066   69.9446  222.2515 H   0  0  0  0  0  0  0  0  0  0  0  0
  140.5135   72.6237  222.2589 H   0  0  0  0  0  0  0  0  0  0  0  0
  139.9499   71.7216  220.8574 H   0  0  0  0  0  0  0  0  0  0  0  0
  140.2958   74.5780  222.1988 H   0  0  0  0  0  0  0  0  0  0  0  0
  138.0980   76.5390  222.1520 H   0  0  0  0  0  0  0  0  0  0  0  0
  139.1330   76.2480  223.4260 H   0  0  0  0  0  0  0  0  0  0  0  0
  139.2599   74.4797  219.6492 H   0  0  0  0  0  0  0  0  0  0  0  0
  138.8496   76.1680  219.9516 H   0  0  0  0  0  0  0  0  0  0  0  0
  140.6246   77.7921  219.5372 H   0  0  0  0  0  0  0  0  0  0  0  0
  143.0788   78.2096  219.2426 H   0  0  0  0  0  0  0  0  0  0  0  0
  144.7068   76.3884  219.6105 H   0  0  0  0  0  0  0  0  0  0  0  0
  143.9408   71.8818  220.9891 H   0  0  0  0  0  0  0  0  0  0  0  0
  142.8228   72.3411  219.6849 H   0  0  0  0  0  0  0  0  0  0  0  0
  144.7688   70.8912  218.9222 H   0  0  0  0  0  0  0  0  0  0  0  0
  144.6678   72.4883  218.0811 H   0  0  0  0  0  0  0  0  0  0  0  0
  145.9261   72.1356  221.4264 H   0  0  0  0  0  0  0  0  0  0  0  0
  147.3321   73.1244  220.7860 H   0  0  0  0  0  0  0  0  0  0  0  0
  145.4290   74.4071  221.9126 H   0  0  0  0  0  0  0  0  0  0  0  0
  145.9600   74.9776  220.3226 H   0  0  0  0  0  0  0  0  0  0  0  0
  141.5240   73.7140  220.5560 H   0  0  0  0  0  0  0  0  0  0  0  0
  136.3245   72.3902  222.0077 H   0  0  0  0  0  0  0  0  0  0  0  0
  137.2848   70.9838  221.4513 H   0  0  0  0  0  0  0  0  0  0  0  0
  136.7176   71.9342  224.2835 H   0  0  0  0  0  0  0  0  0  0  0  0
  136.7716   70.2799  223.6742 H   0  0  0  0  0  0  0  0  0  0  0  0
  1  2  1  0
  2  3  1  0
  3  4  2  0
  3  5  1  0
  5  6  1  0
  6  7  2  0
  7  8  1  0
  8  9  2  0
  9 10  1  0
 10 11  2  0
  5 12  1  0
 12 13  1  0
 13 14  1  0
 14 15  1  0
 15 16  1  0
 16 17  2  0
 16 18  1  0
 18 19  1  0
 18 20  1  0
 20 21  1  0
 21 22  2  0
 22 23  1  0
 23 24  2  0
 24 25  1  0
 25 26  1  0
 26 27  1  0
 27 28  1  0
 28 29  1  0
 29 30  1  0
 30 31  1  0
 25 32  2  0
 15 33  1  0
 33 34  1  0
 11  6  1  0
 34 12  1  0
 32 21  1  0
 31 26  1  0
  1 35  1  0
  1 36  1  0
  1 37  1  0
  2 38  1  0
  2 39  1  0
  7 40  1  0
  8 41  1  0
  9 42  1  0
 10 43  1  0
 11 44  1  0
 12 45  1  0
 13 46  1  0
 13 47  1  0
 14 48  1  0
 14 49  1  0
 18 50  1  1
 19 51  1  0
 19 52  1  0
 20 53  1  0
 20 54  1  0
 22 55  1  0
 23 56  1  0
 24 57  1  0
 27 58  1  0
 27 59  1  0
 28 60  1  0
 28 61  1  0
 30 62  1  0
 30 63  1  0
 31 64  1  0
 31 65  1  0
 32 66  1  0
 33 67  1  0
 33 68  1  0
 34 69  1  0
 34 70  1  0
M  END
>  <smiles>  (46) 
CCC(=O)N(c1ccccc1)C1CCN(C(=O)[C@H](N)Cc2cccc(N3CCOCC3)c2)CC1

>  <score_type>  (46) 
oracle

>  <origin>  (46) 
autodockgpu

>  <m_score__min__energy>  (46) 
-8.8800000000000008

>  <m_primary>  (46) 
energy

>  <rmsd>  (46) 
7.124409964363242

>  <m_score__min__rmsd>  (46) 
7.124409964363242

>  <meeko>  (46) 
{"free_energy": -7.58, "intermolecular_energy": -10.26, "internal_energy": -2.72, "cluster_size": 7, "cluster_id": 2, "rank_in_cluster": 3}

>  <energy>  (46) 
-6.89

>  <cluster_rmsd>  (46) 
0.74

>  <cluster>  (46) 
10

$$$$

     RDKit          3D

 70 73  0  0  0  0  0  0  0  0999 V2000
  146.3650   73.0600  221.9680 C   0  0  0  0  0  0  0  0  0  0  0  0
  145.9460   74.0670  220.8990 C   0  0  0  0  0  0  0  0  0  0  0  0
  145.6570   73.2770  219.6600 C   0  0  0  0  0  0  0  0  0  0  0  0
  146.5020   73.3910  218.7270 O   0  0  0  0  0  0  0  0  0  0  0  0
  144.4950   72.4570  219.5600 N   0  0  0  0  0  0  0  0  0  0  0  0
  144.6800   71.0530  219.3910 C   0  0  0  0  0  0  0  0  0  0  0  0
  145.6160   70.6720  218.4490 C   0  0  0  0  0  0  0  0  0  0  0  0
  145.9100   69.3510  218.1650 C   0  0  0  0  0  0  0  0  0  0  0  0
  145.2050   68.3990  218.8860 C   0  0  0  0  0  0  0  0  0  0  0  0
  144.2620   68.7760  219.8360 C   0  0  0  0  0  0  0  0  0  0  0  0
  143.9910   70.0970  220.0970 C   0  0  0  0  0  0  0  0  0  0  0  0
  143.2020   73.0900  219.6340 C   0  0  0  0  0  0  0  0  0  0  0  0
  143.3200   74.4290  218.9730 C   0  0  0  0  0  0  0  0  0  0  0  0
  142.1910   75.3030  219.5370 C   0  0  0  0  0  0  0  0  0  0  0  0
  141.0600   74.3910  219.6660 N   0  0  0  0  0  0  0  0  0  0  0  0
  140.0790   74.4990  220.6790 C   0  0  0  0  0  0  0  0  0  0  0  0
  139.1390   73.6450  220.6790 O   0  0  0  0  0  0  0  0  0  0  0  0
  140.0640   75.5170  221.7280 C   0  0  2  0  0  0  0  0  0  0  0  0
  138.9830   75.2630  222.6810 N   0  0  0  0  0  0  0  0  0  0  0  0
  139.6880   76.8580  221.0800 C   0  0  0  0  0  0  0  0  0  0  0  0
  140.1460   77.8940  222.0480 C   0  0  0  0  0  0  0  0  0  0  0  0
  141.4190   77.8860  222.5910 C   0  0  0  0  0  0  0  0  0  0  0  0
  141.7400   78.8960  223.4900 C   0  0  0  0  0  0  0  0  0  0  0  0
  140.8010   79.8730  223.8210 C   0  0  0  0  0  0  0  0  0  0  0  0
  139.5420   79.8890  223.2910 C   0  0  0  0  0  0  0  0  0  0  0  0
  138.5710   80.8490  223.6030 N   0  0  0  0  0  0  0  0  0  0  0  0
  138.0880   81.8710  222.6980 C   0  0  0  0  0  0  0  0  0  0  0  0
  136.5900   81.6560  222.5420 C   0  0  0  0  0  0  0  0  0  0  0  0
  135.9740   81.5770  223.7650 O   0  0  0  0  0  0  0  0  0  0  0  0
  136.7770   81.7850  224.8590 C   0  0  0  0  0  0  0  0  0  0  0  0
  137.9680   80.8590  224.9450 C   0  0  0  0  0  0  0  0  0  0  0  0
  139.2360   78.8680  222.3900 C   0  0  0  0  0  0  0  0  0  0  0  0
  141.0110   73.3230  218.6540 C   0  0  0  0  0  0  0  0  0  0  0  0
  142.1100   72.2980  218.9630 C   0  0  0  0  0  0  0  0  0  0  0  0
  146.1867   73.4885  222.9653 H   0  0  0  0  0  0  0  0  0  0  0  0
  145.7758   72.1381  221.8543 H   0  0  0  0  0  0  0  0  0  0  0  0
  147.4343   72.8281  221.8543 H   0  0  0  0  0  0  0  0  0  0  0  0
  145.0459   74.6109  221.2214 H   0  0  0  0  0  0  0  0  0  0  0  0
  146.7371   74.8103  220.7211 H   0  0  0  0  0  0  0  0  0  0  0  0
  146.1536   71.4578  217.8980 H   0  0  0  0  0  0  0  0  0  0  0  0
  146.6600   69.0713  217.4105 H   0  0  0  0  0  0  0  0  0  0  0  0
  145.3943   67.3308  218.7039 H   0  0  0  0  0  0  0  0  0  0  0  0
  143.7197   67.9971  220.3921 H   0  0  0  0  0  0  0  0  0  0  0  0
  143.2424   70.3817  220.8510 H   0  0  0  0  0  0  0  0  0  0  0  0
  142.9184   73.1701  220.6938 H   0  0  0  0  0  0  0  0  0  0  0  0
  144.2974   74.8792  219.2012 H   0  0  0  0  0  0  0  0  0  0  0  0
  143.2401   74.3379  217.8797 H   0  0  0  0  0  0  0  0  0  0  0  0
  142.4712   75.7174  220.5167 H   0  0  0  0  0  0  0  0  0  0  0  0
  141.9646   76.1650  218.8923 H   0  0  0  0  0  0  0  0  0  0  0  0
  141.0472   75.5139  222.2212 H   0  0  0  0  0  0  0  0  0  0  0  0
  138.8510   74.2400  222.7350 H   0  0  0  0  0  0  0  0  0  0  0  0
  139.2640   75.5720  223.6500 H   0  0  0  0  0  0  0  0  0  0  0  0
  140.2001   76.9779  220.1139 H   0  0  0  0  0  0  0  0  0  0  0  0
  138.6097   76.9308  220.8753 H   0  0  0  0  0  0  0  0  0  0  0  0
  142.1495   77.1091  222.3211 H   0  0  0  0  0  0  0  0  0  0  0  0
  142.7416   78.9252  223.9438 H   0  0  0  0  0  0  0  0  0  0  0  0
  141.0848   80.6598  224.5354 H   0  0  0  0  0  0  0  0  0  0  0  0
  138.2847   82.8693  223.1161 H   0  0  0  0  0  0  0  0  0  0  0  0
  138.5971   81.8059  221.7251 H   0  0  0  0  0  0  0  0  0  0  0  0
  136.1627   82.4981  221.9779 H   0  0  0  0  0  0  0  0  0  0  0  0
  136.4261   80.7097  222.0057 H   0  0  0  0  0  0  0  0  0  0  0  0
  137.1480   82.8199  224.8215 H   0  0  0  0  0  0  0  0  0  0  0  0
  136.1579   81.5829  225.7455 H   0  0  0  0  0  0  0  0  0  0  0  0
  138.6901   81.2328  225.6858 H   0  0  0  0  0  0  0  0  0  0  0  0
  137.6707   79.8482  225.2609 H   0  0  0  0  0  0  0  0  0  0  0  0
  138.2335   78.8409  221.9380 H   0  0  0  0  0  0  0  0  0  0  0  0
  140.0277   72.8308  218.6833 H   0  0  0  0  0  0  0  0  0  0  0  0
  141.1689   73.7497  217.6525 H   0  0  0  0  0  0  0  0  0  0  0  0
  141.7306   71.5149  219.6359 H   0  0  0  0  0  0  0  0  0  0  0  0
  142.4665   71.7874  218.0562 H   0  0  0  0  0  0  0  0  0  0  0  0
  1  2  1  0
  2  3  1  0
  3  4  2  0
  3  5  1  0
  5  6  1  0
  6  7  2  0
  7  8  1  0
  8  9  2  0
  9 10  1  0
 10 11  2  0
  5 12  1  0
 12 13  1  0
 13 14  1  0
 14 15  1  0
 15 16  1  0
 16 17  2  0
 16 18  1  0
 18 19  1  0
 18 20  1  0
 20 21  1  0
 21 22  2  0
 22 23  1  0
 23 24  2  0
 24 25  1  0
 25 26  1  0
 26 27  1  0
 27 28  1  0
 28 29  1  0
 29 30  1  0
 30 31  1  0
 25 32  2  0
 15 33  1  0
 33 34  1  0
 11  6  1  0
 34 12  1  0
 32 21  1  0
 31 26  1  0
  1 35  1  0
  1 36  1  0
  1 37  1  0
  2 38  1  0
  2 39  1  0
  7 40  1  0
  8 41  1  0
  9 42  1  0
 10 43  1  0
 11 44  1  0
 12 45  1  0
 13 46  1  0
 13 47  1  0
 14 48  1  0
 14 49  1  0
 18 50  1  1
 19 51  1  0
 19 52  1  0
 20 53  1  0
 20 54  1  0
 22 55  1  0
 23 56  1  0
 24 57  1  0
 27 58  1  0
 27 59  1  0
 28 60  1  0
 28 61  1  0
 30 62  1  0
 30 63  1  0
 31 64  1  0
 31 65  1  0
 32 66  1  0
 33 67  1  0
 33 68  1  0
 34 69  1  0
 34 70  1  0
M  END
>  <smiles>  (47) 
CCC(=O)N(c1ccccc1)C1CCN(C(=O)[C@H](N)Cc2cccc(N3CCOCC3)c2)CC1

>  <score_type>  (47) 
oracle

>  <origin>  (47) 
autodockgpu

>  <m_score__min__energy>  (47) 
-8.8800000000000008

>  <m_primary>  (47) 
energy

>  <rmsd>  (47) 
6.051655109732609

>  <m_score__min__rmsd>  (47) 
6.051655109732609

>  <meeko>  (47) 
{"free_energy": -7.44, "intermolecular_energy": -10.13, "internal_energy": -2.47, "cluster_size": 2, "cluster_id": 7, "rank_in_cluster": 1}

>  <energy>  (47) 
-6.9

>  <cluster_rmsd>  (47) 
0.0

>  <cluster>  (47) 
11

$$$$

     RDKit          3D

 70 73  0  0  0  0  0  0  0  0999 V2000
  138.4280   67.8400  222.6280 C   0  0  0  0  0  0  0  0  0  0  0  0
  138.9950   68.1430  224.0140 C   0  0  0  0  0  0  0  0  0  0  0  0
  138.4340   69.4700  224.4220 C   0  0  0  0  0  0  0  0  0  0  0  0
  137.1880   69.4980  224.6310 O   0  0  0  0  0  0  0  0  0  0  0  0
  139.2710   70.6160  224.5580 N   0  0  0  0  0  0  0  0  0  0  0  0
  139.9340   70.8160  225.8050 C   0  0  0  0  0  0  0  0  0  0  0  0
  139.6840   69.8750  226.7850 C   0  0  0  0  0  0  0  0  0  0  0  0
  140.2460   69.9280  228.0460 C   0  0  0  0  0  0  0  0  0  0  0  0
  141.0960   70.9960  228.2930 C   0  0  0  0  0  0  0  0  0  0  0  0
  141.3530   71.9470  227.3110 C   0  0  0  0  0  0  0  0  0  0  0  0
  140.7790   71.8680  226.0650 C   0  0  0  0  0  0  0  0  0  0  0  0
  139.3990   71.5080  223.4320 C   0  0  0  0  0  0  0  0  0  0  0  0
  140.1890   70.7910  222.3800 C   0  0  0  0  0  0  0  0  0  0  0  0
  140.8080   71.8690  221.4790 C   0  0  0  0  0  0  0  0  0  0  0  0
  139.7720   72.8910  221.3750 N   0  0  0  0  0  0  0  0  0  0  0  0
  140.0450   74.2720  221.2470 C   0  0  0  0  0  0  0  0  0  0  0  0
  139.0530   75.0600  221.1590 O   0  0  0  0  0  0  0  0  0  0  0  0
  141.3810   74.8640  221.2110 C   0  0  2  0  0  0  0  0  0  0  0  0
  141.3100   76.3140  221.3950 N   0  0  0  0  0  0  0  0  0  0  0  0
  141.9360   74.6920  219.7890 C   0  0  0  0  0  0  0  0  0  0  0  0
  143.2730   74.0600  219.9720 C   0  0  0  0  0  0  0  0  0  0  0  0
  144.3630   74.7640  220.4540 C   0  0  0  0  0  0  0  0  0  0  0  0
  145.5660   74.0790  220.5780 C   0  0  0  0  0  0  0  0  0  0  0  0
  145.6510   72.7320  220.2270 C   0  0  0  0  0  0  0  0  0  0  0  0
  144.5820   72.0290  219.7510 C   0  0  0  0  0  0  0  0  0  0  0  0
  144.6310   70.6780  219.3830 N   0  0  0  0  0  0  0  0  0  0  0  0
  145.6290   70.0850  218.5180 C   0  0  0  0  0  0  0  0  0  0  0  0
  146.3300   69.0020  219.3240 C   0  0  0  0  0  0  0  0  0  0  0  0
  145.4230   68.1460  219.8930 O   0  0  0  0  0  0  0  0  0  0  0  0
  144.1060   68.3630  219.5720 C   0  0  0  0  0  0  0  0  0  0  0  0
  143.6060   69.7530  219.8910 C   0  0  0  0  0  0  0  0  0  0  0  0
  143.3820   72.7310  219.6320 C   0  0  0  0  0  0  0  0  0  0  0  0
  138.3940   72.3760  221.4200 C   0  0  0  0  0  0  0  0  0  0  0  0
  138.0760   71.9370  222.8560 C   0  0  0  0  0  0  0  0  0  0  0  0
  137.4622   67.3239  222.7318 H   0  0  0  0  0  0  0  0  0  0  0  0
  138.2835   68.7811  222.0772 H   0  0  0  0  0  0  0  0  0  0  0  0
  139.1301   67.1969  222.0772 H   0  0  0  0  0  0  0  0  0  0  0  0
  138.6883   67.3649  224.7285 H   0  0  0  0  0  0  0  0  0  0  0  0
  140.0947   68.1639  223.9981 H   0  0  0  0  0  0  0  0  0  0  0  0
  139.0042   69.0428  226.5498 H   0  0  0  0  0  0  0  0  0  0  0  0
  140.0316   69.1667  228.8105 H   0  0  0  0  0  0  0  0  0  0  0  0
  141.5735   71.0922  229.2793 H   0  0  0  0  0  0  0  0  0  0  0  0
  142.0320   72.7823  227.5373 H   0  0  0  0  0  0  0  0  0  0  0  0
  140.9902   72.6262  225.2966 H   0  0  0  0  0  0  0  0  0  0  0  0
  139.8971   72.4265  223.7759 H   0  0  0  0  0  0  0  0  0  0  0  0
  140.9810   70.1871  222.8469 H   0  0  0  0  0  0  0  0  0  0  0  0
  139.5479   70.1114  221.7993 H   0  0  0  0  0  0  0  0  0  0  0  0
  141.7190   72.2828  221.9361 H   0  0  0  0  0  0  0  0  0  0  0  0
  141.1086   71.4741  220.4973 H   0  0  0  0  0  0  0  0  0  0  0  0
  141.9879   74.3856  221.9937 H   0  0  0  0  0  0  0  0  0  0  0  0
  140.4400   76.5190  221.9130 H   0  0  0  0  0  0  0  0  0  0  0  0
  142.1000   76.6480  222.0100 H   0  0  0  0  0  0  0  0  0  0  0  0
  141.2788   74.0414  219.1933 H   0  0  0  0  0  0  0  0  0  0  0  0
  142.0012   75.6496  219.2517 H   0  0  0  0  0  0  0  0  0  0  0  0
  144.2802   75.8259  220.7286 H   0  0  0  0  0  0  0  0  0  0  0  0
  146.4567   74.6027  220.9554 H   0  0  0  0  0  0  0  0  0  0  0  0
  146.6163   72.2163  220.3379 H   0  0  0  0  0  0  0  0  0  0  0  0
  145.1476   69.6447  217.6323 H   0  0  0  0  0  0  0  0  0  0  0  0
  146.3471   70.8424  218.1707 H   0  0  0  0  0  0  0  0  0  0  0  0
  146.9939   68.4313  218.6580 H   0  0  0  0  0  0  0  0  0  0  0  0
  146.9084   69.4827  220.1268 H   0  0  0  0  0  0  0  0  0  0  0  0
  143.9825   68.1924  218.4923 H   0  0  0  0  0  0  0  0  0  0  0  0
  143.5147   67.6682  220.1866 H   0  0  0  0  0  0  0  0  0  0  0  0
  142.6434   69.9371  219.3915 H   0  0  0  0  0  0  0  0  0  0  0  0
  143.4430   69.8851  220.9708 H   0  0  0  0  0  0  0  0  0  0  0  0
  142.4934   72.2045  219.2537 H   0  0  0  0  0  0  0  0  0  0  0  0
  137.6938   73.1663  221.1115 H   0  0  0  0  0  0  0  0  0  0  0  0
  138.2927   71.5200  220.7367 H   0  0  0  0  0  0  0  0  0  0  0  0
  137.6561   72.7744  223.4327 H   0  0  0  0  0  0  0  0  0  0  0  0
  137.3298   71.1294  222.8864 H   0  0  0  0  0  0  0  0  0  0  0  0
  1  2  1  0
  2  3  1  0
  3  4  2  0
  3  5  1  0
  5  6  1  0
  6  7  2  0
  7  8  1  0
  8  9  2  0
  9 10  1  0
 10 11  2  0
  5 12  1  0
 12 13  1  0
 13 14  1  0
 14 15  1  0
 15 16  1  0
 16 17  2  0
 16 18  1  0
 18 19  1  0
 18 20  1  0
 20 21  1  0
 21 22  2  0
 22 23  1  0
 23 24  2  0
 24 25  1  0
 25 26  1  0
 26 27  1  0
 27 28  1  0
 28 29  1  0
 29 30  1  0
 30 31  1  0
 25 32  2  0
 15 33  1  0
 33 34  1  0
 11  6  1  0
 34 12  1  0
 32 21  1  0
 31 26  1  0
  1 35  1  0
  1 36  1  0
  1 37  1  0
  2 38  1  0
  2 39  1  0
  7 40  1  0
  8 41  1  0
  9 42  1  0
 10 43  1  0
 11 44  1  0
 12 45  1  0
 13 46  1  0
 13 47  1  0
 14 48  1  0
 14 49  1  0
 18 50  1  1
 19 51  1  0
 19 52  1  0
 20 53  1  0
 20 54  1  0
 22 55  1  0
 23 56  1  0
 24 57  1  0
 27 58  1  0
 27 59  1  0
 28 60  1  0
 28 61  1  0
 30 62  1  0
 30 63  1  0
 31 64  1  0
 31 65  1  0
 32 66  1  0
 33 67  1  0
 33 68  1  0
 34 69  1  0
 34 70  1  0
M  END
>  <smiles>  (48) 
CCC(=O)N(c1ccccc1)C1CCN(C(=O)[C@H](N)Cc2cccc(N3CCOCC3)c2)CC1

>  <score_type>  (48) 
oracle

>  <origin>  (48) 
autodockgpu

>  <m_score__min__energy>  (48) 
-8.8800000000000008

>  <m_primary>  (48) 
energy

>  <rmsd>  (48) 
6.925433345991388

>  <m_score__min__rmsd>  (48) 
6.925433345991388

>  <meeko>  (48) 
{"free_energy": -8.31, "intermolecular_energy": -10.99, "internal_energy": -2.81, "cluster_size": 20, "cluster_id": 1, "rank_in_cluster": 8}

>  <energy>  (48) 
-6.89

>  <cluster_rmsd>  (48) 
0.0

>  <cluster>  (48) 
12

$$$$

     RDKit          3D

 70 73  0  0  0  0  0  0  0  0999 V2000
  137.7520   80.9160  224.5630 C   0  0  0  0  0  0  0  0  0  0  0  0
  137.0910   80.0040  223.5310 C   0  0  0  0  0  0  0  0  0  0  0  0
  137.9720   80.0210  222.3210 C   0  0  0  0  0  0  0  0  0  0  0  0
  137.5320   80.6700  221.3310 O   0  0  0  0  0  0  0  0  0  0  0  0
  139.2240   79.3370  222.3090 N   0  0  0  0  0  0  0  0  0  0  0  0
  140.3700   80.0330  222.7940 C   0  0  0  0  0  0  0  0  0  0  0  0
  141.2170   79.3130  223.6140 C   0  0  0  0  0  0  0  0  0  0  0  0
  142.3680   79.8440  224.1670 C   0  0  0  0  0  0  0  0  0  0  0  0
  142.6430   81.1670  223.8540 C   0  0  0  0  0  0  0  0  0  0  0  0
  141.7950   81.8970  223.0290 C   0  0  0  0  0  0  0  0  0  0  0  0
  140.6570   81.3430  222.4940 C   0  0  0  0  0  0  0  0  0  0  0  0
  139.2620   77.9860  221.8070 C   0  0  0  0  0  0  0  0  0  0  0  0
  138.4200   77.1460  222.7190 C   0  0  0  0  0  0  0  0  0  0  0  0
  138.9050   75.6980  222.5590 C   0  0  0  0  0  0  0  0  0  0  0  0
  139.2020   75.5720  221.1360 N   0  0  0  0  0  0  0  0  0  0  0  0
  140.2290   74.7480  220.6210 C   0  0  0  0  0  0  0  0  0  0  0  0
  140.3830   74.7210  219.3610 O   0  0  0  0  0  0  0  0  0  0  0  0
  141.1300   73.9260  221.4280 C   0  0  2  0  0  0  0  0  0  0  0  0
  142.5210   74.1250  221.0170 N   0  0  0  0  0  0  0  0  0  0  0  0
  140.8480   72.4520  221.0980 C   0  0  0  0  0  0  0  0  0  0  0  0
  139.9200   71.9890  222.1680 C   0  0  0  0  0  0  0  0  0  0  0  0
  138.5490   71.9400  221.9870 C   0  0  0  0  0  0  0  0  0  0  0  0
  137.7760   71.4990  223.0550 C   0  0  0  0  0  0  0  0  0  0  0  0
  138.3780   71.1240  224.2560 C   0  0  0  0  0  0  0  0  0  0  0  0
  139.7300   71.1690  224.4440 C   0  0  0  0  0  0  0  0  0  0  0  0
  140.3690   70.8060  225.6360 N   0  0  0  0  0  0  0  0  0  0  0  0
  141.3220   71.6260  226.3550 C   0  0  0  0  0  0  0  0  0  0  0  0
  140.7470   71.8640  227.7430 C   0  0  0  0  0  0  0  0  0  0  0  0
  140.3840   70.6810  228.3350 O   0  0  0  0  0  0  0  0  0  0  0  0
  140.6750   69.5400  227.6300 C   0  0  0  0  0  0  0  0  0  0  0  0
  140.0830   69.4960  226.2410 C   0  0  0  0  0  0  0  0  0  0  0  0
  140.4910   71.6140  223.3630 C   0  0  0  0  0  0  0  0  0  0  0  0
  138.3480   76.3830  220.2540 C   0  0  0  0  0  0  0  0  0  0  0  0
  138.7490   77.8580  220.3970 C   0  0  0  0  0  0  0  0  0  0  0  0
  137.4995   80.5676  225.5754 H   0  0  0  0  0  0  0  0  0  0  0  0
  138.8435   80.8915  224.4284 H   0  0  0  0  0  0  0  0  0  0  0  0
  137.3890   81.9456  224.4284 H   0  0  0  0  0  0  0  0  0  0  0  0
  137.0081   78.9808  223.9261 H   0  0  0  0  0  0  0  0  0  0  0  0
  136.0754   80.3496  223.2879 H   0  0  0  0  0  0  0  0  0  0  0  0
  140.9636   78.2663  223.8380 H   0  0  0  0  0  0  0  0  0  0  0  0
  143.0276   79.2512  224.8178 H   0  0  0  0  0  0  0  0  0  0  0  0
  143.5446   81.6452  224.2643 H   0  0  0  0  0  0  0  0  0  0  0  0
  142.0411   82.9441  222.7988 H   0  0  0  0  0  0  0  0  0  0  0  0
  139.9939   81.9320  221.8434 H   0  0  0  0  0  0  0  0  0  0  0  0
  140.3113   77.6566  221.7840 H   0  0  0  0  0  0  0  0  0  0  0  0
  138.5459   77.4749  223.7611 H   0  0  0  0  0  0  0  0  0  0  0  0
  137.3531   77.2359  222.4667 H   0  0  0  0  0  0  0  0  0  0  0  0
  139.8073   75.5204  223.1625 H   0  0  0  0  0  0  0  0  0  0  0  0
  138.1586   74.9650  222.8989 H   0  0  0  0  0  0  0  0  0  0  0  0
  140.9781   74.1897  222.4851 H   0  0  0  0  0  0  0  0  0  0  0  0
  142.5100   74.4480  220.0360 H   0  0  0  0  0  0  0  0  0  0  0  0
  142.9630   74.9040  221.5750 H   0  0  0  0  0  0  0  0  0  0  0  0
  140.3746   72.3607  220.1093 H   0  0  0  0  0  0  0  0  0  0  0  0
  141.7696   71.8526  221.0620 H   0  0  0  0  0  0  0  0  0  0  0  0
  138.0881   72.2388  221.0339 H   0  0  0  0  0  0  0  0  0  0  0  0
  136.6821   71.4454  222.9522 H   0  0  0  0  0  0  0  0  0  0  0  0
  137.7398   70.7790  225.0829 H   0  0  0  0  0  0  0  0  0  0  0  0
  142.2876   71.1045  226.4306 H   0  0  0  0  0  0  0  0  0  0  0  0
  141.4926   72.5788  225.8324 H   0  0  0  0  0  0  0  0  0  0  0  0
  141.5056   72.3601  228.3663 H   0  0  0  0  0  0  0  0  0  0  0  0
  139.8523   72.4967  227.6475 H   0  0  0  0  0  0  0  0  0  0  0  0
  141.7685   69.4605  227.5405 H   0  0  0  0  0  0  0  0  0  0  0  0
  140.2282   68.7040  228.1880 H   0  0  0  0  0  0  0  0  0  0  0  0
  140.5499   68.6929  225.6519 H   0  0  0  0  0  0  0  0  0  0  0  0
  139.0022   69.2933  226.2702 H   0  0  0  0  0  0  0  0  0  0  0  0
  141.5846   71.6670  223.4691 H   0  0  0  0  0  0  0  0  0  0  0  0
  138.4841   76.0623  219.2106 H   0  0  0  0  0  0  0  0  0  0  0  0
  137.2921   76.2538  220.5340 H   0  0  0  0  0  0  0  0  0  0  0  0
  139.5365   78.1167  219.6738 H   0  0  0  0  0  0  0  0  0  0  0  0
  137.9061   78.5369  220.2001 H   0  0  0  0  0  0  0  0  0  0  0  0
  1  2  1  0
  2  3  1  0
  3  4  2  0
  3  5  1  0
  5  6  1  0
  6  7  2  0
  7  8  1  0
  8  9  2  0
  9 10  1  0
 10 11  2  0
  5 12  1  0
 12 13  1  0
 13 14  1  0
 14 15  1  0
 15 16  1  0
 16 17  2  0
 16 18  1  0
 18 19  1  0
 18 20  1  0
 20 21  1  0
 21 22  2  0
 22 23  1  0
 23 24  2  0
 24 25  1  0
 25 26  1  0
 26 27  1  0
 27 28  1  0
 28 29  1  0
 29 30  1  0
 30 31  1  0
 25 32  2  0
 15 33  1  0
 33 34  1  0
 11  6  1  0
 34 12  1  0
 32 21  1  0
 31 26  1  0
  1 35  1  0
  1 36  1  0
  1 37  1  0
  2 38  1  0
  2 39  1  0
  7 40  1  0
  8 41  1  0
  9 42  1  0
 10 43  1  0
 11 44  1  0
 12 45  1  0
 13 46  1  0
 13 47  1  0
 14 48  1  0
 14 49  1  0
 18 50  1  1
 19 51  1  0
 19 52  1  0
 20 53  1  0
 20 54  1  0
 22 55  1  0
 23 56  1  0
 24 57  1  0
 27 58  1  0
 27 59  1  0
 28 60  1  0
 28 61  1  0
 30 62  1  0
 30 63  1  0
 31 64  1  0
 31 65  1  0
 32 66  1  0
 33 67  1  0
 33 68  1  0
 34 69  1  0
 34 70  1  0
M  END
>  <smiles>  (49) 
CCC(=O)N(c1ccccc1)C1CCN(C(=O)[C@H](N)Cc2cccc(N3CCOCC3)c2)CC1

>  <score_type>  (49) 
oracle

>  <origin>  (49) 
autodockgpu

>  <m_score__min__energy>  (49) 
-8.8800000000000008

>  <m_primary>  (49) 
energy

>  <rmsd>  (49) 
5.006946308522758

>  <m_score__min__rmsd>  (49) 
5.006946308522758

>  <meeko>  (49) 
{"free_energy": -7.14, "intermolecular_energy": -9.83, "internal_energy": -2.71, "cluster_size": 1, "cluster_id": 8, "rank_in_cluster": 1}

>  <energy>  (49) 
-6.23

>  <cluster_rmsd>  (49) 
0.0

>  <cluster>  (49) 
13

$$$$

     RDKit          3D

 70 73  0  0  0  0  0  0  0  0999 V2000
  142.5700   81.5380  217.8120 C   0  0  0  0  0  0  0  0  0  0  0  0
  142.5790   80.0520  218.1630 C   0  0  0  0  0  0  0  0  0  0  0  0
  141.4520   79.8350  219.1250 C   0  0  0  0  0  0  0  0  0  0  0  0
  140.3710   80.4260  218.8460 O   0  0  0  0  0  0  0  0  0  0  0  0
  141.6130   79.0130  220.2790 N   0  0  0  0  0  0  0  0  0  0  0  0
  141.8040   79.6560  221.5370 C   0  0  0  0  0  0  0  0  0  0  0  0
  141.6480   81.0280  221.5490 C   0  0  0  0  0  0  0  0  0  0  0  0
  141.8020   81.7970  222.6880 C   0  0  0  0  0  0  0  0  0  0  0  0
  142.1270   81.1130  223.8490 C   0  0  0  0  0  0  0  0  0  0  0  0
  142.2850   79.7310  223.8440 C   0  0  0  0  0  0  0  0  0  0  0  0
  142.1260   78.9920  222.6970 C   0  0  0  0  0  0  0  0  0  0  0  0
  141.5770   77.5810  220.1100 C   0  0  0  0  0  0  0  0  0  0  0  0
  140.4160   77.2650  219.2160 C   0  0  0  0  0  0  0  0  0  0  0  0
  140.0260   75.8060  219.4950 C   0  0  0  0  0  0  0  0  0  0  0  0
  141.3010   75.1250  219.6940 N   0  0  0  0  0  0  0  0  0  0  0  0
  141.4750   74.0310  220.5730 C   0  0  0  0  0  0  0  0  0  0  0  0
  142.6350   73.5200  220.6520 O   0  0  0  0  0  0  0  0  0  0  0  0
  140.4220   73.4430  221.3990 C   0  0  2  0  0  0  0  0  0  0  0  0
  139.8720   74.4380  222.3220 N   0  0  0  0  0  0  0  0  0  0  0  0
  141.0720   72.3970  222.3190 C   0  0  0  0  0  0  0  0  0  0  0  0
  139.9290   71.6760  222.9480 C   0  0  0  0  0  0  0  0  0  0  0  0
  138.6520   71.7080  222.4140 C   0  0  0  0  0  0  0  0  0  0  0  0
  137.6590   71.0060  223.0870 C   0  0  0  0  0  0  0  0  0  0  0  0
  137.9560   70.3020  224.2530 C   0  0  0  0  0  0  0  0  0  0  0  0
  139.2120   70.2650  224.7870 C   0  0  0  0  0  0  0  0  0  0  0  0
  139.5480   69.5740  225.9590 N   0  0  0  0  0  0  0  0  0  0  0  0
  139.2690   68.1760  226.2110 C   0  0  0  0  0  0  0  0  0  0  0  0
  140.6070   67.4920  226.4480 C   0  0  0  0  0  0  0  0  0  0  0  0
  141.3380   68.1540  227.4000 O   0  0  0  0  0  0  0  0  0  0  0  0
  140.7170   69.2200  228.0030 C   0  0  0  0  0  0  0  0  0  0  0  0
  140.2370   70.2860  227.0460 C   0  0  0  0  0  0  0  0  0  0  0  0
  140.1980   70.9750  224.1010 C   0  0  0  0  0  0  0  0  0  0  0  0
  142.4200   75.6680  218.9070 C   0  0  0  0  0  0  0  0  0  0  0  0
  142.8370   77.0180  219.5070 C   0  0  0  0  0  0  0  0  0  0  0  0
  142.5664   82.1332  218.7370 H   0  0  0  0  0  0  0  0  0  0  0  0
  143.4667   81.7811  217.2230 H   0  0  0  0  0  0  0  0  0  0  0  0
  141.6704   81.7702  217.2230 H   0  0  0  0  0  0  0  0  0  0  0  0
  142.4271   79.4467  217.2571 H   0  0  0  0  0  0  0  0  0  0  0  0
  143.5414   79.7535  218.6042 H   0  0  0  0  0  0  0  0  0  0  0  0
  141.3887   81.5336  220.6071 H   0  0  0  0  0  0  0  0  0  0  0  0
  141.6739   82.8894  222.6735 H   0  0  0  0  0  0  0  0  0  0  0  0
  142.2618   81.6709  224.7874 H   0  0  0  0  0  0  0  0  0  0  0  0
  142.5436   79.2172  224.7816 H   0  0  0  0  0  0  0  0  0  0  0  0
  142.2528   77.8994  222.7064 H   0  0  0  0  0  0  0  0  0  0  0  0
  141.4786   77.1198  221.1038 H   0  0  0  0  0  0  0  0  0  0  0  0
  139.5714   77.9326  219.4417 H   0  0  0  0  0  0  0  0  0  0  0  0
  140.6820   77.4073  218.1582 H   0  0  0  0  0  0  0  0  0  0  0  0
  139.4012   75.7352  220.3975 H   0  0  0  0  0  0  0  0  0  0  0  0
  139.4362   75.3646  218.6781 H   0  0  0  0  0  0  0  0  0  0  0  0
  139.6482   73.0385  220.7299 H   0  0  0  0  0  0  0  0  0  0  0  0
  139.5290   73.9320  223.1540 H   0  0  0  0  0  0  0  0  0  0  0  0
  140.6320   75.0830  222.6660 H   0  0  0  0  0  0  0  0  0  0  0  0
  141.6942   71.7021  221.7359 H   0  0  0  0  0  0  0  0  0  0  0  0
  141.7332   72.8579  223.0676 H   0  0  0  0  0  0  0  0  0  0  0  0
  138.4318   72.2674  221.4928 H   0  0  0  0  0  0  0  0  0  0  0  0
  136.6306   71.0059  222.6965 H   0  0  0  0  0  0  0  0  0  0  0  0
  137.1481   69.7558  224.7619 H   0  0  0  0  0  0  0  0  0  0  0  0
  138.6290   68.0726  227.0997 H   0  0  0  0  0  0  0  0  0  0  0  0
  138.7405   67.7212  225.3602 H   0  0  0  0  0  0  0  0  0  0  0  0
  140.4283   66.4604  226.7854 H   0  0  0  0  0  0  0  0  0  0  0  0
  141.1741   67.4979  225.5055 H   0  0  0  0  0  0  0  0  0  0  0  0
  139.8475   68.8413  228.5604 H   0  0  0  0  0  0  0  0  0  0  0  0
  141.4681   69.6952  228.6511 H   0  0  0  0  0  0  0  0  0  0  0  0
  139.5429   70.9715  227.5542 H   0  0  0  0  0  0  0  0  0  0  0  0
  141.0726   70.8915  226.6651 H   0  0  0  0  0  0  0  0  0  0  0  0
  141.2249   70.9743  224.4952 H   0  0  0  0  0  0  0  0  0  0  0  0
  143.2694   74.9699  218.9414 H   0  0  0  0  0  0  0  0  0  0  0  0
  142.1099   75.8038  217.8604 H   0  0  0  0  0  0  0  0  0  0  0  0
  143.6063   76.8765  220.2804 H   0  0  0  0  0  0  0  0  0  0  0  0
  143.2704   77.6902  218.7518 H   0  0  0  0  0  0  0  0  0  0  0  0
  1  2  1  0
  2  3  1  0
  3  4  2  0
  3  5  1  0
  5  6  1  0
  6  7  2  0
  7  8  1  0
  8  9  2  0
  9 10  1  0
 10 11  2  0
  5 12  1  0
 12 13  1  0
 13 14  1  0
 14 15  1  0
 15 16  1  0
 16 17  2  0
 16 18  1  0
 18 19  1  0
 18 20  1  0
 20 21  1  0
 21 22  2  0
 22 23  1  0
 23 24  2  0
 24 25  1  0
 25 26  1  0
 26 27  1  0
 27 28  1  0
 28 29  1  0
 29 30  1  0
 30 31  1  0
 25 32  2  0
 15 33  1  0
 33 34  1  0
 11  6  1  0
 34 12  1  0
 32 21  1  0
 31 26  1  0
  1 35  1  0
  1 36  1  0
  1 37  1  0
  2 38  1  0
  2 39  1  0
  7 40  1  0
  8 41  1  0
  9 42  1  0
 10 43  1  0
 11 44  1  0
 12 45  1  0
 13 46  1  0
 13 47  1  0
 14 48  1  0
 14 49  1  0
 18 50  1  6
 19 51  1  0
 19 52  1  0
 20 53  1  0
 20 54  1  0
 22 55  1  0
 23 56  1  0
 24 57  1  0
 27 58  1  0
 27 59  1  0
 28 60  1  0
 28 61  1  0
 30 62  1  0
 30 63  1  0
 31 64  1  0
 31 65  1  0
 32 66  1  0
 33 67  1  0
 33 68  1  0
 34 69  1  0
 34 70  1  0
M  END
>  <smiles>  (50) 
CCC(=O)N(c1ccccc1)C1CCN(C(=O)[C@H](N)Cc2cccc(N3CCOCC3)c2)CC1

>  <score_type>  (50) 
oracle

>  <origin>  (50) 
autodockgpu

>  <m_score__min__energy>  (50) 
-8.8800000000000008

>  <m_primary>  (50) 
energy

>  <rmsd>  (50) 
5.367117715393335

>  <m_score__min__rmsd>  (50) 
5.367117715393335

>  <meeko>  (50) 
{"free_energy": -8.39, "intermolecular_energy": -11.07, "internal_energy": -1.82, "cluster_size": 6, "cluster_id": 3, "rank_in_cluster": 1}

>  <energy>  (50) 
-5.88

>  <cluster_rmsd>  (50) 
1.06

>  <cluster>  (50) 
13

$$$$
