
     RDKit          3D

 55 59  0  0  0  0  0  0  0  0999 V2000
  139.3200   74.8170  222.0440 O   0  0  0  0  0  0  0  0  0  0  0  0
  140.5000   75.1230  221.7370 C   0  0  0  0  0  0  0  0  0  0  0  0
  140.8440   76.5300  221.8440 N   0  0  0  0  0  0  0  0  0  0  0  0
  139.8310   77.4130  222.2780 C   0  0  0  0  0  0  0  0  0  0  0  0
  139.8650   78.8200  221.8950 C   0  0  0  0  0  0  0  0  0  0  0  0
  138.9380   79.1500  221.0470 O   0  0  0  0  0  0  0  0  0  0  0  0
  140.7130   79.8570  222.2840 N   0  0  0  0  0  0  0  0  0  0  0  0
  140.8670   80.5690  223.5660 C   0  0  0  0  0  0  0  0  0  0  0  0
  142.3540   80.4290  223.7670 C   0  0  0  0  0  0  0  0  0  0  0  0
  142.9500   80.4530  222.3880 C   0  0  0  0  0  0  0  0  0  0  0  0
  141.7400   80.4970  221.4650 C   0  0  1  0  0  0  0  0  0  0  0  0
  142.0730   79.7700  220.2230 C   0  0  0  0  0  0  0  0  0  0  0  0
  142.4640   80.2200  218.9840 C   0  0  0  0  0  0  0  0  0  0  0  0
  142.6530   79.1580  218.1710 N   0  0  0  0  0  0  0  0  0  0  0  0
  142.3880   78.0420  218.8820 C   0  0  0  0  0  0  0  0  0  0  0  0
  142.4850   76.6940  218.3310 C   0  0  0  0  0  0  0  0  0  0  0  0
  143.6890   76.3010  217.7800 C   0  0  0  0  0  0  0  0  0  0  0  0
  143.7560   75.0190  217.2650 C   0  0  0  0  0  0  0  0  0  0  0  0
  142.6590   74.1540  217.2980 C   0  0  0  0  0  0  0  0  0  0  0  0
  141.4520   74.5770  217.8620 C   0  0  0  0  0  0  0  0  0  0  0  0
  141.3930   75.8570  218.3730 C   0  0  0  0  0  0  0  0  0  0  0  0
  142.0390   78.4260  220.1190 N   0  0  0  0  0  0  0  0  0  0  0  0
  141.5000   74.1690  221.2950 C   0  0  0  0  0  0  0  0  0  0  0  0
  141.1320   72.8630  221.1220 C   0  0  0  0  0  0  0  0  0  0  0  0
  142.0750   71.9520  220.7030 C   0  0  0  0  0  0  0  0  0  0  0  0
  143.3690   72.3540  220.4640 C   0  0  0  0  0  0  0  0  0  0  0  0
  144.3420   71.4730  220.0420 C   0  0  0  0  0  0  0  0  0  0  0  0
  145.6280   71.9630  219.8230 C   0  0  0  0  0  0  0  0  0  0  0  0
  146.6300   71.1400  219.4070 F   0  0  0  0  0  0  0  0  0  0  0  0
  145.9300   73.2960  220.0180 C   0  0  0  0  0  0  0  0  0  0  0  0
  144.9610   74.1700  220.4360 C   0  0  0  0  0  0  0  0  0  0  0  0
  143.6760   73.6820  220.6560 C   0  0  0  0  0  0  0  0  0  0  0  0
  142.7650   74.5830  221.0650 N   0  0  0  0  0  0  0  0  0  0  0  0
  141.8140   76.8260  221.5970 H   0  0  0  0  0  0  0  0  0  0  0  0
  138.8783   77.0076  221.9065 H   0  0  0  0  0  0  0  0  0  0  0  0
  139.9815   77.4480  223.3671 H   0  0  0  0  0  0  0  0  0  0  0  0
  140.5634   81.6233  223.4863 H   0  0  0  0  0  0  0  0  0  0  0  0
  140.2498   80.1795  224.3890 H   0  0  0  0  0  0  0  0  0  0  0  0
  142.7411   81.2653  224.3676 H   0  0  0  0  0  0  0  0  0  0  0  0
  142.6076   79.5036  224.3049 H   0  0  0  0  0  0  0  0  0  0  0  0
  143.5800   81.3441  222.2497 H   0  0  0  0  0  0  0  0  0  0  0  0
  143.6005   79.5877  222.1926 H   0  0  0  0  0  0  0  0  0  0  0  0
  141.4112   81.4909  221.1272 H   0  0  0  0  0  0  0  0  0  0  0  0
  142.6007   81.2741  218.7007 H   0  0  0  0  0  0  0  0  0  0  0  0
  142.9530   79.2670  217.1790 H   0  0  0  0  0  0  0  0  0  0  0  0
  144.5560   76.9774  217.7520 H   0  0  0  0  0  0  0  0  0  0  0  0
  144.6985   74.6709  216.8173 H   0  0  0  0  0  0  0  0  0  0  0  0
  142.7453   73.1401  216.8801 H   0  0  0  0  0  0  0  0  0  0  0  0
  140.5774   73.9107  217.8972 H   0  0  0  0  0  0  0  0  0  0  0  0
  140.4554   76.2157  218.8227 H   0  0  0  0  0  0  0  0  0  0  0  0
  140.0968   72.5451  221.3150 H   0  0  0  0  0  0  0  0  0  0  0  0
  141.7930   70.8986  220.5587 H   0  0  0  0  0  0  0  0  0  0  0  0
  144.1090   70.4099  219.8822 H   0  0  0  0  0  0  0  0  0  0  0  0
  146.9528   73.6580  219.8370 H   0  0  0  0  0  0  0  0  0  0  0  0
  145.1933   75.2335  220.5942 H   0  0  0  0  0  0  0  0  0  0  0  0
  1  2  2  0
  2  3  1  0
  3  4  1  0
  4  5  1  0
  5  6  2  0
  5  7  1  0
  7  8  1  0
  8  9  1  0
  9 10  1  0
 10 11  1  0
 11 12  1  0
 12 13  2  0
 13 14  1  0
 14 15  1  0
 15 16  1  0
 16 17  2  0
 17 18  1  0
 18 19  2  0
 19 20  1  0
 20 21  2  0
 15 22  2  0
  2 23  1  0
 23 24  2  0
 24 25  1  0
 25 26  2  0
 26 27  1  0
 27 28  2  0
 28 29  1  0
 28 30  1  0
 30 31  2  0
 31 32  1  0
 32 33  2  0
 11  7  1  0
 22 12  1  0
 33 23  1  0
 21 16  1  0
 32 26  1  0
  3 34  1  0
  4 35  1  0
  4 36  1  0
  8 37  1  0
  8 38  1  0
  9 39  1  0
  9 40  1  0
 10 41  1  0
 10 42  1  0
 11 43  1  6
 13 44  1  0
 14 45  1  0
 17 46  1  0
 18 47  1  0
 19 48  1  0
 20 49  1  0
 21 50  1  0
 24 51  1  0
 25 52  1  0
 27 53  1  0
 30 54  1  0
 31 55  1  0
M  END
>  <smiles>  (1) 
O=C(NCC(=O)N1CCC[C@H]1c1c[nH]c(-c2ccccc2)n1)c1ccc2cc(F)ccc2n1

>  <score_type>  (1) 
oracle

>  <origin>  (1) 
autodockgpu

>  <m_score__min__energy>  (1) 
-9.4700000000000006

>  <m_primary>  (1) 
energy

>  <rmsd>  (1) 
6.991867947949811

>  <m_score__min__rmsd>  (1) 
6.991867947949811

>  <meeko>  (1) 
{"free_energy": -7.18, "intermolecular_energy": -8.97, "internal_energy": -4.0, "cluster_size": 20, "cluster_id": 7, "rank_in_cluster": 13}

>  <energy>  (1) 
-9.47

>  <cluster_rmsd>  (1) 
0.0

>  <cluster>  (1) 
1

$$$$

     RDKit          3D

 55 59  0  0  0  0  0  0  0  0999 V2000
  138.7440   75.2540  221.8270 O   0  0  0  0  0  0  0  0  0  0  0  0
  139.8790   75.7940  221.8420 C   0  0  0  0  0  0  0  0  0  0  0  0
  140.9660   75.0150  221.2770 N   0  0  0  0  0  0  0  0  0  0  0  0
  140.6510   73.7360  220.7690 C   0  0  0  0  0  0  0  0  0  0  0  0
  141.7100   72.8360  220.3260 C   0  0  0  0  0  0  0  0  0  0  0  0
  141.2720   71.7920  219.6900 O   0  0  0  0  0  0  0  0  0  0  0  0
  143.0960   72.9100  220.4670 N   0  0  0  0  0  0  0  0  0  0  0  0
  144.0920   71.9110  220.8960 C   0  0  0  0  0  0  0  0  0  0  0  0
  145.0660   72.0020  219.7490 C   0  0  0  0  0  0  0  0  0  0  0  0
  145.0300   73.4360  219.3030 C   0  0  0  0  0  0  0  0  0  0  0  0
  143.9420   74.0620  220.1650 C   0  0  1  0  0  0  0  0  0  0  0  0
  143.2770   75.1220  219.3810 C   0  0  0  0  0  0  0  0  0  0  0  0
  142.6540   75.0920  218.1560 C   0  0  0  0  0  0  0  0  0  0  0  0
  142.1970   76.3300  217.8650 N   0  0  0  0  0  0  0  0  0  0  0  0
  142.5240   77.1420  218.8920 C   0  0  0  0  0  0  0  0  0  0  0  0
  142.1930   78.5620  218.9320 C   0  0  0  0  0  0  0  0  0  0  0  0
  141.1830   78.9730  219.7790 C   0  0  0  0  0  0  0  0  0  0  0  0
  140.8870   80.3240  219.7990 C   0  0  0  0  0  0  0  0  0  0  0  0
  141.5770   81.2400  219.0000 C   0  0  0  0  0  0  0  0  0  0  0  0
  142.5960   80.7980  218.1510 C   0  0  0  0  0  0  0  0  0  0  0  0
  142.8840   79.4480  218.1370 C   0  0  0  0  0  0  0  0  0  0  0  0
  143.1750   76.4000  219.8000 N   0  0  0  0  0  0  0  0  0  0  0  0
  140.1440   77.1160  222.3790 C   0  0  0  0  0  0  0  0  0  0  0  0
  139.0900   77.8720  222.8160 C   0  0  0  0  0  0  0  0  0  0  0  0
  139.3340   79.1260  223.3280 C   0  0  0  0  0  0  0  0  0  0  0  0
  140.6200   79.6100  223.3950 C   0  0  0  0  0  0  0  0  0  0  0  0
  140.9050   80.8600  223.9010 C   0  0  0  0  0  0  0  0  0  0  0  0
  142.2350   81.2730  223.9340 C   0  0  0  0  0  0  0  0  0  0  0  0
  142.5770   82.4980  224.4220 F   0  0  0  0  0  0  0  0  0  0  0  0
  143.2500   80.4570  223.4760 C   0  0  0  0  0  0  0  0  0  0  0  0
  142.9650   79.2140  222.9740 C   0  0  0  0  0  0  0  0  0  0  0  0
  141.6370   78.8010  222.9400 C   0  0  0  0  0  0  0  0  0  0  0  0
  141.4130   77.5730  222.4380 N   0  0  0  0  0  0  0  0  0  0  0  0
  141.9250   75.4280  221.2710 H   0  0  0  0  0  0  0  0  0  0  0  0
  140.0997   73.2087  221.5615 H   0  0  0  0  0  0  0  0  0  0  0  0
  140.1133   73.9645  219.8370 H   0  0  0  0  0  0  0  0  0  0  0  0
  144.5607   72.1866  221.8522 H   0  0  0  0  0  0  0  0  0  0  0  0
  143.6882   70.9048  221.0818 H   0  0  0  0  0  0  0  0  0  0  0  0
  146.0781   71.7284  220.0818 H   0  0  0  0  0  0  0  0  0  0  0  0
  144.7997   71.3145  218.9327 H   0  0  0  0  0  0  0  0  0  0  0  0
  145.9992   73.9251  219.4802 H   0  0  0  0  0  0  0  0  0  0  0  0
  144.8297   73.5399  218.2264 H   0  0  0  0  0  0  0  0  0  0  0  0
  144.2688   74.5619  221.0887 H   0  0  0  0  0  0  0  0  0  0  0  0
  142.5451   74.2039  217.5161 H   0  0  0  0  0  0  0  0  0  0  0  0
  141.6900   76.5380  216.9780 H   0  0  0  0  0  0  0  0  0  0  0  0
  140.6372   78.2568  220.4108 H   0  0  0  0  0  0  0  0  0  0  0  0
  140.0873   80.6871  220.4613 H   0  0  0  0  0  0  0  0  0  0  0  0
  141.3183   82.3084  219.0392 H   0  0  0  0  0  0  0  0  0  0  0  0
  143.1505   81.5033  217.5146 H   0  0  0  0  0  0  0  0  0  0  0  0
  143.6809   79.0732  217.4779 H   0  0  0  0  0  0  0  0  0  0  0  0
  138.0627   77.4829  222.7588 H   0  0  0  0  0  0  0  0  0  0  0  0
  138.4970   79.7440  223.6852 H   0  0  0  0  0  0  0  0  0  0  0  0
  140.1021   81.5153  224.2697 H   0  0  0  0  0  0  0  0  0  0  0  0
  144.2924   80.8061  223.5142 H   0  0  0  0  0  0  0  0  0  0  0  0
  143.7678   78.5580  222.6064 H   0  0  0  0  0  0  0  0  0  0  0  0
  1  2  2  0
  2  3  1  0
  3  4  1  0
  4  5  1  0
  5  6  2  0
  5  7  1  0
  7  8  1  0
  8  9  1  0
  9 10  1  0
 10 11  1  0
 11 12  1  0
 12 13  2  0
 13 14  1  0
 14 15  1  0
 15 16  1  0
 16 17  2  0
 17 18  1  0
 18 19  2  0
 19 20  1  0
 20 21  2  0
 15 22  2  0
  2 23  1  0
 23 24  2  0
 24 25  1  0
 25 26  2  0
 26 27  1  0
 27 28  2  0
 28 29  1  0
 28 30  1  0
 30 31  2  0
 31 32  1  0
 32 33  2  0
 11  7  1  0
 22 12  1  0
 33 23  1  0
 21 16  1  0
 32 26  1  0
  3 34  1  0
  4 35  1  0
  4 36  1  0
  8 37  1  0
  8 38  1  0
  9 39  1  0
  9 40  1  0
 10 41  1  0
 10 42  1  0
 11 43  1  1
 13 44  1  0
 14 45  1  0
 17 46  1  0
 18 47  1  0
 19 48  1  0
 20 49  1  0
 21 50  1  0
 24 51  1  0
 25 52  1  0
 27 53  1  0
 30 54  1  0
 31 55  1  0
M  END
>  <smiles>  (2) 
O=C(NCC(=O)N1CCC[C@H]1c1c[nH]c(-c2ccccc2)n1)c1ccc2cc(F)ccc2n1

>  <score_type>  (2) 
oracle

>  <origin>  (2) 
autodockgpu

>  <m_score__min__energy>  (2) 
-9.4700000000000006

>  <m_primary>  (2) 
energy

>  <rmsd>  (2) 
7.243900069562895

>  <m_score__min__rmsd>  (2) 
7.243900069562895

>  <meeko>  (2) 
{"free_energy": -7.0, "intermolecular_energy": -8.79, "internal_energy": -3.67, "cluster_size": 5, "cluster_id": 8, "rank_in_cluster": 2}

>  <energy>  (2) 
-9.08

>  <cluster_rmsd>  (2) 
1.09

>  <cluster>  (2) 
1

$$$$

     RDKit          3D

 55 59  0  0  0  0  0  0  0  0999 V2000
  141.6080   77.5050  217.3070 O   0  0  0  0  0  0  0  0  0  0  0  0
  142.2930   77.1820  218.3100 C   0  0  0  0  0  0  0  0  0  0  0  0
  142.2740   78.1130  219.4240 N   0  0  0  0  0  0  0  0  0  0  0  0
  141.4970   79.2820  219.2770 C   0  0  0  0  0  0  0  0  0  0  0  0
  141.0890   80.0500  220.4490 C   0  0  0  0  0  0  0  0  0  0  0  0
  140.0930   80.8510  220.2250 O   0  0  0  0  0  0  0  0  0  0  0  0
  141.5830   80.0640  221.7540 N   0  0  0  0  0  0  0  0  0  0  0  0
  142.1010   81.1600  222.5940 C   0  0  0  0  0  0  0  0  0  0  0  0
  141.2610   80.9630  223.8300 C   0  0  0  0  0  0  0  0  0  0  0  0
  141.0310   79.4820  223.9280 C   0  0  0  0  0  0  0  0  0  0  0  0
  141.6720   78.9250  222.6650 C   0  0  1  0  0  0  0  0  0  0  0  0
  140.9060   77.7370  222.2360 C   0  0  0  0  0  0  0  0  0  0  0  0
  139.5820   77.4030  222.3940 C   0  0  0  0  0  0  0  0  0  0  0  0
  139.3610   76.2000  221.8210 N   0  0  0  0  0  0  0  0  0  0  0  0
  140.5300   75.7700  221.3020 C   0  0  0  0  0  0  0  0  0  0  0  0
  140.6800   74.5000  220.6000 C   0  0  0  0  0  0  0  0  0  0  0  0
  141.4070   73.4980  221.2120 C   0  0  0  0  0  0  0  0  0  0  0  0
  141.5350   72.3030  220.5260 C   0  0  0  0  0  0  0  0  0  0  0  0
  140.9550   72.1110  219.2700 C   0  0  0  0  0  0  0  0  0  0  0  0
  140.2220   73.1410  218.6720 C   0  0  0  0  0  0  0  0  0  0  0  0
  140.1000   74.3290  219.3630 C   0  0  0  0  0  0  0  0  0  0  0  0
  141.4540   76.7070  221.5600 N   0  0  0  0  0  0  0  0  0  0  0  0
  143.0740   75.9630  218.4040 C   0  0  0  0  0  0  0  0  0  0  0  0
  143.1530   75.1460  217.3090 C   0  0  0  0  0  0  0  0  0  0  0  0
  143.8930   73.9880  217.3910 C   0  0  0  0  0  0  0  0  0  0  0  0
  144.5420   73.6600  218.5580 C   0  0  0  0  0  0  0  0  0  0  0  0
  145.2930   72.5110  218.6790 C   0  0  0  0  0  0  0  0  0  0  0  0
  145.9190   72.2550  219.8980 C   0  0  0  0  0  0  0  0  0  0  0  0
  146.6730   71.1350  220.0770 F   0  0  0  0  0  0  0  0  0  0  0  0
  145.7980   73.1240  220.9630 C   0  0  0  0  0  0  0  0  0  0  0  0
  145.0510   74.2670  220.8400 C   0  0  0  0  0  0  0  0  0  0  0  0
  144.4250   74.5240  219.6240 C   0  0  0  0  0  0  0  0  0  0  0  0
  143.7060   75.6590  219.5590 N   0  0  0  0  0  0  0  0  0  0  0  0
  142.8310   77.8820  220.2770 H   0  0  0  0  0  0  0  0  0  0  0  0
  142.0736   79.9658  218.6367 H   0  0  0  0  0  0  0  0  0  0  0  0
  140.5427   78.8985  218.8868 H   0  0  0  0  0  0  0  0  0  0  0  0
  143.1736   81.0397  222.8061 H   0  0  0  0  0  0  0  0  0  0  0  0
  142.0332   82.1609  222.1428 H   0  0  0  0  0  0  0  0  0  0  0  0
  141.7947   81.3287  224.7196 H   0  0  0  0  0  0  0  0  0  0  0  0
  140.3141   81.5198  223.7725 H   0  0  0  0  0  0  0  0  0  0  0  0
  141.5143   79.0699  224.8261 H   0  0  0  0  0  0  0  0  0  0  0  0
  139.9649   79.2239  224.0107 H   0  0  0  0  0  0  0  0  0  0  0  0
  142.7098   78.5711  222.7521 H   0  0  0  0  0  0  0  0  0  0  0  0
  138.8249   78.0163  222.9045 H   0  0  0  0  0  0  0  0  0  0  0  0
  138.4200   75.7510  221.8230 H   0  0  0  0  0  0  0  0  0  0  0  0
  141.8644   73.6434  222.2017 H   0  0  0  0  0  0  0  0  0  0  0  0
  142.1087   71.4826  220.9819 H   0  0  0  0  0  0  0  0  0  0  0  0
  141.0749   71.1487  218.7507 H   0  0  0  0  0  0  0  0  0  0  0  0
  139.7581   73.0084  217.6835 H   0  0  0  0  0  0  0  0  0  0  0  0
  139.5281   75.1559  218.9168 H   0  0  0  0  0  0  0  0  0  0  0  0
  142.6327   75.4108  216.3767 H   0  0  0  0  0  0  0  0  0  0  0  0
  143.9654   73.3219  216.5186 H   0  0  0  0  0  0  0  0  0  0  0  0
  145.3960   71.8133  217.8349 H   0  0  0  0  0  0  0  0  0  0  0  0
  146.3027   72.8989  221.9141 H   0  0  0  0  0  0  0  0  0  0  0  0
  144.9487   74.9654  221.6837 H   0  0  0  0  0  0  0  0  0  0  0  0
  1  2  2  0
  2  3  1  0
  3  4  1  0
  4  5  1  0
  5  6  2  0
  5  7  1  0
  7  8  1  0
  8  9  1  0
  9 10  1  0
 10 11  1  0
 11 12  1  0
 12 13  2  0
 13 14  1  0
 14 15  1  0
 15 16  1  0
 16 17  2  0
 17 18  1  0
 18 19  2  0
 19 20  1  0
 20 21  2  0
 15 22  2  0
  2 23  1  0
 23 24  2  0
 24 25  1  0
 25 26  2  0
 26 27  1  0
 27 28  2  0
 28 29  1  0
 28 30  1  0
 30 31  2  0
 31 32  1  0
 32 33  2  0
 11  7  1  0
 22 12  1  0
 33 23  1  0
 21 16  1  0
 32 26  1  0
  3 34  1  0
  4 35  1  0
  4 36  1  0
  8 37  1  0
  8 38  1  0
  9 39  1  0
  9 40  1  0
 10 41  1  0
 10 42  1  0
 11 43  1  1
 13 44  1  0
 14 45  1  0
 17 46  1  0
 18 47  1  0
 19 48  1  0
 20 49  1  0
 21 50  1  0
 24 51  1  0
 25 52  1  0
 27 53  1  0
 30 54  1  0
 31 55  1  0
M  END
>  <smiles>  (3) 
O=C(NCC(=O)N1CCC[C@H]1c1c[nH]c(-c2ccccc2)n1)c1ccc2cc(F)ccc2n1

>  <score_type>  (3) 
oracle

>  <origin>  (3) 
autodockgpu

>  <m_score__min__energy>  (3) 
-9.4700000000000006

>  <m_primary>  (3) 
energy

>  <rmsd>  (3) 
8.13431176240887

>  <m_score__min__rmsd>  (3) 
8.13431176240887

>  <meeko>  (3) 
{"free_energy": -6.36, "intermolecular_energy": -8.15, "internal_energy": -4.15, "cluster_size": 4, "cluster_id": 12, "rank_in_cluster": 3}

>  <energy>  (3) 
-8.93

>  <cluster_rmsd>  (3) 
0.59

>  <cluster>  (3) 
1

$$$$

     RDKit          3D

 55 59  0  0  0  0  0  0  0  0999 V2000
  139.2700   70.7980  221.3830 O   0  0  0  0  0  0  0  0  0  0  0  0
  139.8550   71.1310  222.4460 C   0  0  0  0  0  0  0  0  0  0  0  0
  140.5890   72.3830  222.4060 N   0  0  0  0  0  0  0  0  0  0  0  0
  140.5770   73.1020  221.1920 C   0  0  0  0  0  0  0  0  0  0  0  0
  140.9520   74.5120  221.1650 C   0  0  0  0  0  0  0  0  0  0  0  0
  140.7710   75.1190  222.2980 O   0  0  0  0  0  0  0  0  0  0  0  0
  141.4670   75.3050  220.1390 N   0  0  0  0  0  0  0  0  0  0  0  0
  141.0730   76.6340  219.6350 C   0  0  0  0  0  0  0  0  0  0  0  0
  142.4040   77.3390  219.6840 C   0  0  0  0  0  0  0  0  0  0  0  0
  143.4300   76.2820  219.3880 C   0  0  0  0  0  0  0  0  0  0  0  0
  142.6180   74.9980  219.2940 C   0  0  1  0  0  0  0  0  0  0  0  0
  143.4530   73.8800  219.7800 C   0  0  0  0  0  0  0  0  0  0  0  0
  144.3460   73.7980  220.8210 C   0  0  0  0  0  0  0  0  0  0  0  0
  144.8620   72.5500  220.8610 N   0  0  0  0  0  0  0  0  0  0  0  0
  144.3060   71.8420  219.8560 C   0  0  0  0  0  0  0  0  0  0  0  0
  144.6230   70.4440  219.5840 C   0  0  0  0  0  0  0  0  0  0  0  0
  145.9070   70.1330  219.1820 C   0  0  0  0  0  0  0  0  0  0  0  0
  146.1830   68.8010  218.9310 C   0  0  0  0  0  0  0  0  0  0  0  0
  145.2100   67.8080  219.0770 C   0  0  0  0  0  0  0  0  0  0  0  0
  143.9180   68.1500  219.4860 C   0  0  0  0  0  0  0  0  0  0  0  0
  143.6510   69.4810  219.7340 C   0  0  0  0  0  0  0  0  0  0  0  0
  143.4570   72.6570  219.2110 N   0  0  0  0  0  0  0  0  0  0  0  0
  139.8310   70.3480  223.6670 C   0  0  0  0  0  0  0  0  0  0  0  0
  139.2050   69.1310  223.6570 C   0  0  0  0  0  0  0  0  0  0  0  0
  139.1790   68.3830  224.8120 C   0  0  0  0  0  0  0  0  0  0  0  0
  139.7750   68.8560  225.9580 C   0  0  0  0  0  0  0  0  0  0  0  0
  139.7710   68.1370  227.1350 C   0  0  0  0  0  0  0  0  0  0  0  0
  140.3990   68.6880  228.2490 C   0  0  0  0  0  0  0  0  0  0  0  0
  140.4260   68.0240  229.4380 F   0  0  0  0  0  0  0  0  0  0  0  0
  141.0130   69.9230  228.1880 C   0  0  0  0  0  0  0  0  0  0  0  0
  141.0160   70.6360  227.0180 C   0  0  0  0  0  0  0  0  0  0  0  0
  140.3900   70.0870  225.9040 C   0  0  0  0  0  0  0  0  0  0  0  0
  140.4230   70.8280  224.7820 N   0  0  0  0  0  0  0  0  0  0  0  0
  141.0890   72.6950  223.2680 H   0  0  0  0  0  0  0  0  0  0  0  0
  141.2633   72.5798  220.5091 H   0  0  0  0  0  0  0  0  0  0  0  0
  139.5097   73.1237  220.9267 H   0  0  0  0  0  0  0  0  0  0  0  0
  140.6770   76.5808  218.6101 H   0  0  0  0  0  0  0  0  0  0  0  0
  140.2684   77.1244  220.2025 H   0  0  0  0  0  0  0  0  0  0  0  0
  142.4446   78.1365  218.9275 H   0  0  0  0  0  0  0  0  0  0  0  0
  142.5781   77.8142  220.6607 H   0  0  0  0  0  0  0  0  0  0  0  0
  143.9435   76.4905  218.4378 H   0  0  0  0  0  0  0  0  0  0  0  0
  144.2179   76.2300  220.1539 H   0  0  0  0  0  0  0  0  0  0  0  0
  142.2959   74.6897  218.2884 H   0  0  0  0  0  0  0  0  0  0  0  0
  144.5999   74.6165  221.5107 H   0  0  0  0  0  0  0  0  0  0  0  0
  145.5640   72.2640  221.5760 H   0  0  0  0  0  0  0  0  0  0  0  0
  146.6766   70.9104  219.0665 H   0  0  0  0  0  0  0  0  0  0  0  0
  147.1950   68.5156  218.6079 H   0  0  0  0  0  0  0  0  0  0  0  0
  145.4612   66.7573  218.8700 H   0  0  0  0  0  0  0  0  0  0  0  0
  143.1390   67.3828  219.6063 H   0  0  0  0  0  0  0  0  0  0  0  0
  142.6425   69.7779  220.0576 H   0  0  0  0  0  0  0  0  0  0  0  0
  138.7294   68.7560  222.7388 H   0  0  0  0  0  0  0  0  0  0  0  0
  138.6796   67.4029  224.8187 H   0  0  0  0  0  0  0  0  0  0  0  0
  139.2837   67.1525  227.1923 H   0  0  0  0  0  0  0  0  0  0  0  0
  141.5019   70.3363  229.0825 H   0  0  0  0  0  0  0  0  0  0  0  0
  141.5027   71.6208  226.9610 H   0  0  0  0  0  0  0  0  0  0  0  0
  1  2  2  0
  2  3  1  0
  3  4  1  0
  4  5  1  0
  5  6  2  0
  5  7  1  0
  7  8  1  0
  8  9  1  0
  9 10  1  0
 10 11  1  0
 11 12  1  0
 12 13  2  0
 13 14  1  0
 14 15  1  0
 15 16  1  0
 16 17  2  0
 17 18  1  0
 18 19  2  0
 19 20  1  0
 20 21  2  0
 15 22  2  0
  2 23  1  0
 23 24  2  0
 24 25  1  0
 25 26  2  0
 26 27  1  0
 27 28  2  0
 28 29  1  0
 28 30  1  0
 30 31  2  0
 31 32  1  0
 32 33  2  0
 11  7  1  0
 22 12  1  0
 33 23  1  0
 21 16  1  0
 32 26  1  0
  3 34  1  0
  4 35  1  0
  4 36  1  0
  8 37  1  0
  8 38  1  0
  9 39  1  0
  9 40  1  0
 10 41  1  0
 10 42  1  0
 11 43  1  6
 13 44  1  0
 14 45  1  0
 17 46  1  0
 18 47  1  0
 19 48  1  0
 20 49  1  0
 21 50  1  0
 24 51  1  0
 25 52  1  0
 27 53  1  0
 30 54  1  0
 31 55  1  0
M  END
>  <smiles>  (4) 
O=C(NCC(=O)N1CCC[C@H]1c1c[nH]c(-c2ccccc2)n1)c1ccc2cc(F)ccc2n1

>  <score_type>  (4) 
oracle

>  <origin>  (4) 
autodockgpu

>  <m_score__min__energy>  (4) 
-9.4700000000000006

>  <m_primary>  (4) 
energy

>  <rmsd>  (4) 
6.668667122189774

>  <m_score__min__rmsd>  (4) 
6.668667122189774

>  <meeko>  (4) 
{"free_energy": -8.71, "intermolecular_energy": -10.5, "internal_energy": -2.01, "cluster_size": 2, "cluster_id": 3, "rank_in_cluster": 2}

>  <energy>  (4) 
-8.83

>  <cluster_rmsd>  (4) 
0.77

>  <cluster>  (4) 
1

$$$$

     RDKit          3D

 55 59  0  0  0  0  0  0  0  0999 V2000
  136.1180   76.5720  221.8050 O   0  0  0  0  0  0  0  0  0  0  0  0
  137.2950   76.4880  222.2400 C   0  0  0  0  0  0  0  0  0  0  0  0
  137.8240   75.1450  222.3990 N   0  0  0  0  0  0  0  0  0  0  0  0
  136.9750   74.0700  222.0540 C   0  0  0  0  0  0  0  0  0  0  0  0
  137.4980   72.7100  221.9860 C   0  0  0  0  0  0  0  0  0  0  0  0
  137.4500   72.1940  220.7960 O   0  0  0  0  0  0  0  0  0  0  0  0
  138.0350   71.8830  222.9730 N   0  0  0  0  0  0  0  0  0  0  0  0
  137.4100   70.8920  223.8690 C   0  0  0  0  0  0  0  0  0  0  0  0
  138.2930   69.7010  223.6010 C   0  0  0  0  0  0  0  0  0  0  0  0
  139.6580   70.2660  223.3260 C   0  0  0  0  0  0  0  0  0  0  0  0
  139.4420   71.7730  223.3470 C   0  0  1  0  0  0  0  0  0  0  0  0
  140.3810   72.3930  222.3890 C   0  0  0  0  0  0  0  0  0  0  0  0
  141.4270   71.8650  221.6710 C   0  0  0  0  0  0  0  0  0  0  0  0
  141.9860   72.8430  220.9250 N   0  0  0  0  0  0  0  0  0  0  0  0
  141.3040   73.9830  221.1630 C   0  0  0  0  0  0  0  0  0  0  0  0
  141.6230   75.2590  220.5310 C   0  0  0  0  0  0  0  0  0  0  0  0
  140.6170   76.1960  220.4100 C   0  0  0  0  0  0  0  0  0  0  0  0
  140.9440   77.3980  219.8070 C   0  0  0  0  0  0  0  0  0  0  0  0
  142.2350   77.6580  219.3390 C   0  0  0  0  0  0  0  0  0  0  0  0
  143.2360   76.6920  219.4750 C   0  0  0  0  0  0  0  0  0  0  0  0
  142.9010   75.4960  220.0770 C   0  0  0  0  0  0  0  0  0  0  0  0
  140.3380   73.6970  222.0490 N   0  0  0  0  0  0  0  0  0  0  0  0
  138.1210   77.6320  222.5790 C   0  0  0  0  0  0  0  0  0  0  0  0
  137.5210   78.8490  222.7510 C   0  0  0  0  0  0  0  0  0  0  0  0
  138.2980   79.9390  223.0730 C   0  0  0  0  0  0  0  0  0  0  0  0
  139.6590   79.8010  223.2190 C   0  0  0  0  0  0  0  0  0  0  0  0
  140.4720   80.8670  223.5410 C   0  0  0  0  0  0  0  0  0  0  0  0
  141.8400   80.6400  223.6700 C   0  0  0  0  0  0  0  0  0  0  0  0
  142.6920   81.6550  223.9860 F   0  0  0  0  0  0  0  0  0  0  0  0
  142.3800   79.3830  223.4830 C   0  0  0  0  0  0  0  0  0  0  0  0
  141.5700   78.3240  223.1630 C   0  0  0  0  0  0  0  0  0  0  0  0
  140.2030   78.5490  223.0330 C   0  0  0  0  0  0  0  0  0  0  0  0
  139.4550   77.4760  222.7190 N   0  0  0  0  0  0  0  0  0  0  0  0
  138.7970   75.0310  222.7580 H   0  0  0  0  0  0  0  0  0  0  0  0
  136.1622   74.0591  222.7951 H   0  0  0  0  0  0  0  0  0  0  0  0
  136.7103   74.2874  221.0087 H   0  0  0  0  0  0  0  0  0  0  0  0
  137.4579   71.2066  224.9220 H   0  0  0  0  0  0  0  0  0  0  0  0
  136.3375   70.7215  223.6940 H   0  0  0  0  0  0  0  0  0  0  0  0
  138.3211   69.0382  224.4784 H   0  0  0  0  0  0  0  0  0  0  0  0
  137.9226   69.1005  222.7571 H   0  0  0  0  0  0  0  0  0  0  0  0
  140.3717   69.9621  224.1059 H   0  0  0  0  0  0  0  0  0  0  0  0
  140.0799   69.9113  222.3741 H   0  0  0  0  0  0  0  0  0  0  0  0
  139.6355   72.2868  224.3002 H   0  0  0  0  0  0  0  0  0  0  0  0
  141.7560   70.8157  221.6991 H   0  0  0  0  0  0  0  0  0  0  0  0
  142.8000   72.6650  220.3000 H   0  0  0  0  0  0  0  0  0  0  0  0
  139.5994   75.9961  220.7769 H   0  0  0  0  0  0  0  0  0  0  0  0
  140.1676   78.1688  219.6931 H   0  0  0  0  0  0  0  0  0  0  0  0
  142.4634   78.6232  218.8634 H   0  0  0  0  0  0  0  0  0  0  0  0
  144.2580   76.8790  219.1138 H   0  0  0  0  0  0  0  0  0  0  0  0
  143.6693   74.7178  220.1962 H   0  0  0  0  0  0  0  0  0  0  0  0
  136.4325   78.9554  222.6337 H   0  0  0  0  0  0  0  0  0  0  0  0
  137.8288   80.9239  223.2140 H   0  0  0  0  0  0  0  0  0  0  0  0
  140.0506   81.8718  223.6923 H   0  0  0  0  0  0  0  0  0  0  0  0
  143.4640   79.2307  223.5912 H   0  0  0  0  0  0  0  0  0  0  0  0
  141.9914   77.3191  223.0124 H   0  0  0  0  0  0  0  0  0  0  0  0
  1  2  2  0
  2  3  1  0
  3  4  1  0
  4  5  1  0
  5  6  2  0
  5  7  1  0
  7  8  1  0
  8  9  1  0
  9 10  1  0
 10 11  1  0
 11 12  1  0
 12 13  2  0
 13 14  1  0
 14 15  1  0
 15 16  1  0
 16 17  2  0
 17 18  1  0
 18 19  2  0
 19 20  1  0
 20 21  2  0
 15 22  2  0
  2 23  1  0
 23 24  2  0
 24 25  1  0
 25 26  2  0
 26 27  1  0
 27 28  2  0
 28 29  1  0
 28 30  1  0
 30 31  2  0
 31 32  1  0
 32 33  2  0
 11  7  1  0
 22 12  1  0
 33 23  1  0
 21 16  1  0
 32 26  1  0
  3 34  1  0
  4 35  1  0
  4 36  1  0
  8 37  1  0
  8 38  1  0
  9 39  1  0
  9 40  1  0
 10 41  1  0
 10 42  1  0
 11 43  1  1
 13 44  1  0
 14 45  1  0
 17 46  1  0
 18 47  1  0
 19 48  1  0
 20 49  1  0
 21 50  1  0
 24 51  1  0
 25 52  1  0
 27 53  1  0
 30 54  1  0
 31 55  1  0
M  END
>  <smiles>  (5) 
O=C(NCC(=O)N1CCC[C@H]1c1c[nH]c(-c2ccccc2)n1)c1ccc2cc(F)ccc2n1

>  <score_type>  (5) 
oracle

>  <origin>  (5) 
autodockgpu

>  <m_score__min__energy>  (5) 
-9.4700000000000006

>  <m_primary>  (5) 
energy

>  <rmsd>  (5) 
7.986724002367444

>  <m_score__min__rmsd>  (5) 
7.986724002367444

>  <meeko>  (5) 
{"free_energy": -7.18, "intermolecular_energy": -8.97, "internal_energy": -3.45, "cluster_size": 6, "cluster_id": 9, "rank_in_cluster": 2}

>  <energy>  (5) 
-8.82

>  <cluster_rmsd>  (5) 
1.22

>  <cluster>  (5) 
1

$$$$

     RDKit          3D

 55 59  0  0  0  0  0  0  0  0999 V2000
  139.2010   75.0200  222.2960 O   0  0  0  0  0  0  0  0  0  0  0  0
  140.3520   75.3530  221.9150 C   0  0  0  0  0  0  0  0  0  0  0  0
  140.6240   76.7790  221.8720 N   0  0  0  0  0  0  0  0  0  0  0  0
  139.5810   77.6490  222.2570 C   0  0  0  0  0  0  0  0  0  0  0  0
  139.7140   79.0900  222.0700 C   0  0  0  0  0  0  0  0  0  0  0  0
  138.7340   79.6200  221.4030 O   0  0  0  0  0  0  0  0  0  0  0  0
  140.7030   79.9810  222.4850 N   0  0  0  0  0  0  0  0  0  0  0  0
  140.9790   80.6000  223.7940 C   0  0  0  0  0  0  0  0  0  0  0  0
  142.4370   80.2510  223.9480 C   0  0  0  0  0  0  0  0  0  0  0  0
  143.0030   80.2620  222.5570 C   0  0  0  0  0  0  0  0  0  0  0  0
  141.7920   80.5160  221.6700 C   0  0  1  0  0  0  0  0  0  0  0  0
  141.9970   79.8140  220.3860 C   0  0  0  0  0  0  0  0  0  0  0  0
  142.1840   80.2890  219.1100 C   0  0  0  0  0  0  0  0  0  0  0  0
  142.3290   79.2420  218.2680 N   0  0  0  0  0  0  0  0  0  0  0  0
  142.2360   78.1110  218.9980 C   0  0  0  0  0  0  0  0  0  0  0  0
  142.3430   76.7730  218.4260 C   0  0  0  0  0  0  0  0  0  0  0  0
  141.2380   75.9480  218.4830 C   0  0  0  0  0  0  0  0  0  0  0  0
  141.3650   74.6850  217.9340 C   0  0  0  0  0  0  0  0  0  0  0  0
  142.5570   74.2560  217.3440 C   0  0  0  0  0  0  0  0  0  0  0  0
  143.6620   75.1110  217.2980 C   0  0  0  0  0  0  0  0  0  0  0  0
  143.5270   76.3690  217.8480 C   0  0  0  0  0  0  0  0  0  0  0  0
  142.0360   78.4700  220.2750 N   0  0  0  0  0  0  0  0  0  0  0  0
  141.3850   74.4110  221.5290 C   0  0  0  0  0  0  0  0  0  0  0  0
  141.0890   73.0750  221.5200 C   0  0  0  0  0  0  0  0  0  0  0  0
  142.0640   72.1760  221.1550 C   0  0  0  0  0  0  0  0  0  0  0  0
  143.3190   72.6180  220.8060 C   0  0  0  0  0  0  0  0  0  0  0  0
  144.3230   71.7490  220.4340 C   0  0  0  0  0  0  0  0  0  0  0  0
  145.5660   72.2800  220.0940 C   0  0  0  0  0  0  0  0  0  0  0  0
  146.5950   71.4710  219.7200 F   0  0  0  0  0  0  0  0  0  0  0  0
  145.7960   73.6410  220.1250 C   0  0  0  0  0  0  0  0  0  0  0  0
  144.7960   74.5030  220.4940 C   0  0  0  0  0  0  0  0  0  0  0  0
  143.5550   73.9740  220.8340 C   0  0  0  0  0  0  0  0  0  0  0  0
  142.6110   74.8640  221.1890 N   0  0  0  0  0  0  0  0  0  0  0  0
  141.5670   77.0970  221.5600 H   0  0  0  0  0  0  0  0  0  0  0  0
  138.6878   77.3390  221.6948 H   0  0  0  0  0  0  0  0  0  0  0  0
  139.5594   77.5416  223.3515 H   0  0  0  0  0  0  0  0  0  0  0  0
  140.8201   81.6882  223.7723 H   0  0  0  0  0  0  0  0  0  0  0  0
  140.3317   80.2560  224.6142 H   0  0  0  0  0  0  0  0  0  0  0  0
  142.9463   80.9969  224.5759 H   0  0  0  0  0  0  0  0  0  0  0  0
  142.5728   79.2743  224.4354 H   0  0  0  0  0  0  0  0  0  0  0  0
  143.7464   81.0648  222.4435 H   0  0  0  0  0  0  0  0  0  0  0  0
  143.5249   79.3272  222.3043 H   0  0  0  0  0  0  0  0  0  0  0  0
  141.5959   81.5612  221.3887 H   0  0  0  0  0  0  0  0  0  0  0  0
  142.2113   81.3500  218.8208 H   0  0  0  0  0  0  0  0  0  0  0  0
  142.4820   79.3720  217.2460 H   0  0  0  0  0  0  0  0  0  0  0  0
  140.2969   76.2807  218.9452 H   0  0  0  0  0  0  0  0  0  0  0  0
  140.5049   73.9999  217.9625 H   0  0  0  0  0  0  0  0  0  0  0  0
  142.6258   73.2452  216.9156 H   0  0  0  0  0  0  0  0  0  0  0  0
  144.6086   74.7911  216.8381 H   0  0  0  0  0  0  0  0  0  0  0  0
  144.3804   77.0626  217.8247 H   0  0  0  0  0  0  0  0  0  0  0  0
  140.0848   72.7247  221.8009 H   0  0  0  0  0  0  0  0  0  0  0  0
  141.8392   71.0993  221.1421 H   0  0  0  0  0  0  0  0  0  0  0  0
  144.1472   70.6635  220.4063 H   0  0  0  0  0  0  0  0  0  0  0  0
  146.7860   74.0354  219.8524 H   0  0  0  0  0  0  0  0  0  0  0  0
  144.9709   75.5887  220.5207 H   0  0  0  0  0  0  0  0  0  0  0  0
  1  2  2  0
  2  3  1  0
  3  4  1  0
  4  5  1  0
  5  6  2  0
  5  7  1  0
  7  8  1  0
  8  9  1  0
  9 10  1  0
 10 11  1  0
 11 12  1  0
 12 13  2  0
 13 14  1  0
 14 15  1  0
 15 16  1  0
 16 17  2  0
 17 18  1  0
 18 19  2  0
 19 20  1  0
 20 21  2  0
 15 22  2  0
  2 23  1  0
 23 24  2  0
 24 25  1  0
 25 26  2  0
 26 27  1  0
 27 28  2  0
 28 29  1  0
 28 30  1  0
 30 31  2  0
 31 32  1  0
 32 33  2  0
 11  7  1  0
 22 12  1  0
 33 23  1  0
 21 16  1  0
 32 26  1  0
  3 34  1  0
  4 35  1  0
  4 36  1  0
  8 37  1  0
  8 38  1  0
  9 39  1  0
  9 40  1  0
 10 41  1  0
 10 42  1  0
 11 43  1  6
 13 44  1  0
 14 45  1  0
 17 46  1  0
 18 47  1  0
 19 48  1  0
 20 49  1  0
 21 50  1  0
 24 51  1  0
 25 52  1  0
 27 53  1  0
 30 54  1  0
 31 55  1  0
M  END
>  <smiles>  (6) 
O=C(NCC(=O)N1CCC[C@H]1c1c[nH]c(-c2ccccc2)n1)c1ccc2cc(F)ccc2n1

>  <score_type>  (6) 
oracle

>  <origin>  (6) 
autodockgpu

>  <m_score__min__energy>  (6) 
-9.4700000000000006

>  <m_primary>  (6) 
energy

>  <rmsd>  (6) 
6.9030049047342805

>  <m_score__min__rmsd>  (6) 
6.9030049047342805

>  <meeko>  (6) 
{"free_energy": -6.77, "intermolecular_energy": -8.55, "internal_energy": -4.11, "cluster_size": 20, "cluster_id": 7, "rank_in_cluster": 18}

>  <energy>  (6) 
-8.82

>  <cluster_rmsd>  (6) 
1.22

>  <cluster>  (6) 
1

$$$$

     RDKit          3D

 55 59  0  0  0  0  0  0  0  0999 V2000
  139.3230   74.8380  222.0730 O   0  0  0  0  0  0  0  0  0  0  0  0
  140.4960   75.1410  221.7380 C   0  0  0  0  0  0  0  0  0  0  0  0
  140.8410   76.5500  221.8200 N   0  0  0  0  0  0  0  0  0  0  0  0
  139.8360   77.4370  222.2640 C   0  0  0  0  0  0  0  0  0  0  0  0
  139.8670   78.8420  221.8720 C   0  0  0  0  0  0  0  0  0  0  0  0
  138.9470   79.1620  221.0140 O   0  0  0  0  0  0  0  0  0  0  0  0
  140.7060   79.8860  222.2630 N   0  0  0  0  0  0  0  0  0  0  0  0
  140.8530   80.5980  223.5460 C   0  0  0  0  0  0  0  0  0  0  0  0
  142.3410   80.4700  223.7480 C   0  0  0  0  0  0  0  0  0  0  0  0
  142.9390   80.4990  222.3700 C   0  0  0  0  0  0  0  0  0  0  0  0
  141.7290   80.5340  221.4460 C   0  0  1  0  0  0  0  0  0  0  0  0
  142.0700   79.8110  220.2040 C   0  0  0  0  0  0  0  0  0  0  0  0
  142.4600   80.2640  218.9660 C   0  0  0  0  0  0  0  0  0  0  0  0
  142.6580   79.2040  218.1520 N   0  0  0  0  0  0  0  0  0  0  0  0
  142.3980   78.0860  218.8620 C   0  0  0  0  0  0  0  0  0  0  0  0
  142.5060   76.7390  218.3100 C   0  0  0  0  0  0  0  0  0  0  0  0
  141.4070   75.9090  218.3980 C   0  0  0  0  0  0  0  0  0  0  0  0
  141.5340   74.6370  217.8680 C   0  0  0  0  0  0  0  0  0  0  0  0
  142.7200   74.2060  217.2670 C   0  0  0  0  0  0  0  0  0  0  0  0
  143.8180   75.0670  217.1910 C   0  0  0  0  0  0  0  0  0  0  0  0
  143.6830   76.3330  217.7230 C   0  0  0  0  0  0  0  0  0  0  0  0
  142.0450   78.4660  220.0990 N   0  0  0  0  0  0  0  0  0  0  0  0
  141.4880   74.1830  221.2880 C   0  0  0  0  0  0  0  0  0  0  0  0
  141.1100   72.8800  221.1090 C   0  0  0  0  0  0  0  0  0  0  0  0
  142.0460   71.9650  220.6820 C   0  0  0  0  0  0  0  0  0  0  0  0
  143.3410   72.3590  220.4400 C   0  0  0  0  0  0  0  0  0  0  0  0
  144.3070   71.4740  220.0100 C   0  0  0  0  0  0  0  0  0  0  0  0
  145.5950   71.9560  219.7880 C   0  0  0  0  0  0  0  0  0  0  0  0
  146.5900   71.1280  219.3650 F   0  0  0  0  0  0  0  0  0  0  0  0
  145.9070   73.2860  219.9890 C   0  0  0  0  0  0  0  0  0  0  0  0
  144.9460   74.1650  220.4150 C   0  0  0  0  0  0  0  0  0  0  0  0
  143.6590   73.6850  220.6380 C   0  0  0  0  0  0  0  0  0  0  0  0
  142.7550   74.5890  221.0550 N   0  0  0  0  0  0  0  0  0  0  0  0
  141.8050   76.8440  221.5500 H   0  0  0  0  0  0  0  0  0  0  0  0
  138.8772   77.0311  221.9091 H   0  0  0  0  0  0  0  0  0  0  0  0
  140.0023   77.4779  223.3506 H   0  0  0  0  0  0  0  0  0  0  0  0
  140.5408   81.6498  223.4672 H   0  0  0  0  0  0  0  0  0  0  0  0
  140.2384   80.2026  224.3681 H   0  0  0  0  0  0  0  0  0  0  0  0
  142.7206   81.3093  224.3492 H   0  0  0  0  0  0  0  0  0  0  0  0
  142.6011   79.5462  224.2856 H   0  0  0  0  0  0  0  0  0  0  0  0
  143.5623   81.3949  222.2327 H   0  0  0  0  0  0  0  0  0  0  0  0
  143.5968   79.6392  222.1750 H   0  0  0  0  0  0  0  0  0  0  0  0
  141.3919   81.5253  221.1089 H   0  0  0  0  0  0  0  0  0  0  0  0
  142.5899   81.3192  218.6837 H   0  0  0  0  0  0  0  0  0  0  0  0
  142.9590   79.3160  217.1610 H   0  0  0  0  0  0  0  0  0  0  0  0
  140.4710   76.2439  218.8688 H   0  0  0  0  0  0  0  0  0  0  0  0
  140.6790   73.9469  217.9211 H   0  0  0  0  0  0  0  0  0  0  0  0
  142.7891   73.1889  216.8538 H   0  0  0  0  0  0  0  0  0  0  0  0
  144.7598   74.7458  216.7221 H   0  0  0  0  0  0  0  0  0  0  0  0
  144.5320   77.0309  217.6772 H   0  0  0  0  0  0  0  0  0  0  0  0
  140.0732   72.5681  221.3035 H   0  0  0  0  0  0  0  0  0  0  0  0
  141.7566   70.9141  220.5338 H   0  0  0  0  0  0  0  0  0  0  0  0
  144.0664   70.4132  219.8462 H   0  0  0  0  0  0  0  0  0  0  0  0
  146.9318   73.6416  219.8063 H   0  0  0  0  0  0  0  0  0  0  0  0
  145.1864   75.2261  220.5770 H   0  0  0  0  0  0  0  0  0  0  0  0
  1  2  2  0
  2  3  1  0
  3  4  1  0
  4  5  1  0
  5  6  2  0
  5  7  1  0
  7  8  1  0
  8  9  1  0
  9 10  1  0
 10 11  1  0
 11 12  1  0
 12 13  2  0
 13 14  1  0
 14 15  1  0
 15 16  1  0
 16 17  2  0
 17 18  1  0
 18 19  2  0
 19 20  1  0
 20 21  2  0
 15 22  2  0
  2 23  1  0
 23 24  2  0
 24 25  1  0
 25 26  2  0
 26 27  1  0
 27 28  2  0
 28 29  1  0
 28 30  1  0
 30 31  2  0
 31 32  1  0
 32 33  2  0
 11  7  1  0
 22 12  1  0
 33 23  1  0
 21 16  1  0
 32 26  1  0
  3 34  1  0
  4 35  1  0
  4 36  1  0
  8 37  1  0
  8 38  1  0
  9 39  1  0
  9 40  1  0
 10 41  1  0
 10 42  1  0
 11 43  1  6
 13 44  1  0
 14 45  1  0
 17 46  1  0
 18 47  1  0
 19 48  1  0
 20 49  1  0
 21 50  1  0
 24 51  1  0
 25 52  1  0
 27 53  1  0
 30 54  1  0
 31 55  1  0
M  END
>  <smiles>  (7) 
O=C(NCC(=O)N1CCC[C@H]1c1c[nH]c(-c2ccccc2)n1)c1ccc2cc(F)ccc2n1

>  <score_type>  (7) 
oracle

>  <origin>  (7) 
autodockgpu

>  <m_score__min__energy>  (7) 
-9.4700000000000006

>  <m_primary>  (7) 
energy

>  <rmsd>  (7) 
6.924648529307824

>  <m_score__min__rmsd>  (7) 
6.924648529307824

>  <meeko>  (7) 
{"free_energy": -7.21, "intermolecular_energy": -9.0, "internal_energy": -3.97, "cluster_size": 20, "cluster_id": 7, "rank_in_cluster": 9}

>  <energy>  (7) 
-9.27

>  <cluster_rmsd>  (7) 
0.0

>  <cluster>  (7) 
2

$$$$

     RDKit          3D

 55 59  0  0  0  0  0  0  0  0999 V2000
  138.9340   71.0230  221.7300 O   0  0  0  0  0  0  0  0  0  0  0  0
  139.7660   71.1600  222.6630 C   0  0  0  0  0  0  0  0  0  0  0  0
  140.7420   72.2230  222.4980 N   0  0  0  0  0  0  0  0  0  0  0  0
  140.6650   72.9950  221.3180 C   0  0  0  0  0  0  0  0  0  0  0  0
  139.6580   74.0420  221.1850 C   0  0  0  0  0  0  0  0  0  0  0  0
  139.4070   74.6650  222.2960 O   0  0  0  0  0  0  0  0  0  0  0  0
  138.9320   74.4810  220.0780 N   0  0  0  0  0  0  0  0  0  0  0  0
  137.6290   74.0610  219.5300 C   0  0  0  0  0  0  0  0  0  0  0  0
  136.9410   75.3980  219.4330 C   0  0  0  0  0  0  0  0  0  0  0  0
  138.0270   76.3880  219.1190 C   0  0  0  0  0  0  0  0  0  0  0  0
  139.3040   75.5590  219.1640 C   0  0  1  0  0  0  0  0  0  0  0  0
  140.4030   76.4190  219.6460 C   0  0  0  0  0  0  0  0  0  0  0  0
  141.6900   76.5880  219.1940 C   0  0  0  0  0  0  0  0  0  0  0  0
  142.3150   77.4970  219.9760 N   0  0  0  0  0  0  0  0  0  0  0  0
  141.4370   77.9040  220.9160 C   0  0  0  0  0  0  0  0  0  0  0  0
  141.7570   78.8880  221.9440 C   0  0  0  0  0  0  0  0  0  0  0  0
  141.6490   78.5080  223.2670 C   0  0  0  0  0  0  0  0  0  0  0  0
  141.9590   79.4590  224.2230 C   0  0  0  0  0  0  0  0  0  0  0  0
  142.3650   80.7490  223.8720 C   0  0  0  0  0  0  0  0  0  0  0  0
  142.4670   81.1090  222.5250 C   0  0  0  0  0  0  0  0  0  0  0  0
  142.1560   80.1540  221.5780 C   0  0  0  0  0  0  0  0  0  0  0  0
  140.2870   77.2460  220.7050 N   0  0  0  0  0  0  0  0  0  0  0  0
  139.7960   70.3330  223.8550 C   0  0  0  0  0  0  0  0  0  0  0  0
  139.1950   69.1050  223.8190 C   0  0  0  0  0  0  0  0  0  0  0  0
  139.2190   68.3150  224.9460 C   0  0  0  0  0  0  0  0  0  0  0  0
  139.8410   68.7590  226.0900 C   0  0  0  0  0  0  0  0  0  0  0  0
  139.8880   67.9980  227.2390 C   0  0  0  0  0  0  0  0  0  0  0  0
  140.5390   68.5220  228.3540 C   0  0  0  0  0  0  0  0  0  0  0  0
  140.6160   67.8170  229.5160 F   0  0  0  0  0  0  0  0  0  0  0  0
  141.1260   69.7710  228.3200 C   0  0  0  0  0  0  0  0  0  0  0  0
  141.0780   70.5260  227.1760 C   0  0  0  0  0  0  0  0  0  0  0  0
  140.4290   70.0040  226.0620 C   0  0  0  0  0  0  0  0  0  0  0  0
  140.4120   70.7860  224.9680 N   0  0  0  0  0  0  0  0  0  0  0  0
  141.4510   72.3690  223.2490 H   0  0  0  0  0  0  0  0  0  0  0  0
  141.6440   73.4812  221.1945 H   0  0  0  0  0  0  0  0  0  0  0  0
  140.3599   72.2592  220.5593 H   0  0  0  0  0  0  0  0  0  0  0  0
  137.7354   73.5845  218.5443 H   0  0  0  0  0  0  0  0  0  0  0  0
  137.0957   73.3086  220.1296 H   0  0  0  0  0  0  0  0  0  0  0  0
  136.1887   75.3856  218.6306 H   0  0  0  0  0  0  0  0  0  0  0  0
  136.4134   75.6534  220.3638 H   0  0  0  0  0  0  0  0  0  0  0  0
  137.8801   76.8263  218.1209 H   0  0  0  0  0  0  0  0  0  0  0  0
  138.0457   77.2337  219.8221 H   0  0  0  0  0  0  0  0  0  0  0  0
  139.6657   75.1552  218.2069 H   0  0  0  0  0  0  0  0  0  0  0  0
  142.1390   76.0679  218.3350 H   0  0  0  0  0  0  0  0  0  0  0  0
  143.3040   77.7790  219.8130 H   0  0  0  0  0  0  0  0  0  0  0  0
  141.3304   77.4935  223.5487 H   0  0  0  0  0  0  0  0  0  0  0  0
  141.8838   79.1924  225.2876 H   0  0  0  0  0  0  0  0  0  0  0  0
  142.6046   81.4821  224.6563 H   0  0  0  0  0  0  0  0  0  0  0  0
  142.7846   82.1199  222.2295 H   0  0  0  0  0  0  0  0  0  0  0  0
  142.2283   80.4093  220.5105 H   0  0  0  0  0  0  0  0  0  0  0  0
  138.6993   68.7535  222.9021 H   0  0  0  0  0  0  0  0  0  0  0  0
  138.7392   67.3253  224.9319 H   0  0  0  0  0  0  0  0  0  0  0  0
  139.4230   67.0018  227.2745 H   0  0  0  0  0  0  0  0  0  0  0  0
  141.6341   70.1622  229.2138 H   0  0  0  0  0  0  0  0  0  0  0  0
  141.5426   71.5225  227.1402 H   0  0  0  0  0  0  0  0  0  0  0  0
  1  2  2  0
  2  3  1  0
  3  4  1  0
  4  5  1  0
  5  6  2  0
  5  7  1  0
  7  8  1  0
  8  9  1  0
  9 10  1  0
 10 11  1  0
 11 12  1  0
 12 13  2  0
 13 14  1  0
 14 15  1  0
 15 16  1  0
 16 17  2  0
 17 18  1  0
 18 19  2  0
 19 20  1  0
 20 21  2  0
 15 22  2  0
  2 23  1  0
 23 24  2  0
 24 25  1  0
 25 26  2  0
 26 27  1  0
 27 28  2  0
 28 29  1  0
 28 30  1  0
 30 31  2  0
 31 32  1  0
 32 33  2  0
 11  7  1  0
 22 12  1  0
 33 23  1  0
 21 16  1  0
 32 26  1  0
  3 34  1  0
  4 35  1  0
  4 36  1  0
  8 37  1  0
  8 38  1  0
  9 39  1  0
  9 40  1  0
 10 41  1  0
 10 42  1  0
 11 43  1  6
 13 44  1  0
 14 45  1  0
 17 46  1  0
 18 47  1  0
 19 48  1  0
 20 49  1  0
 21 50  1  0
 24 51  1  0
 25 52  1  0
 27 53  1  0
 30 54  1  0
 31 55  1  0
M  END
>  <smiles>  (8) 
O=C(NCC(=O)N1CCC[C@H]1c1c[nH]c(-c2ccccc2)n1)c1ccc2cc(F)ccc2n1

>  <score_type>  (8) 
oracle

>  <origin>  (8) 
autodockgpu

>  <m_score__min__energy>  (8) 
-9.4700000000000006

>  <m_primary>  (8) 
energy

>  <rmsd>  (8) 
2.524878271359979

>  <m_score__min__rmsd>  (8) 
2.524878271359979

>  <meeko>  (8) 
{"free_energy": -8.52, "intermolecular_energy": -10.31, "internal_energy": -1.79, "cluster_size": 2, "cluster_id": 2, "rank_in_cluster": 2}

>  <energy>  (8) 
-8.52

>  <cluster_rmsd>  (8) 
1.92

>  <cluster>  (8) 
2

$$$$

     RDKit          3D

 55 59  0  0  0  0  0  0  0  0999 V2000
  139.7780   74.5600  222.3370 O   0  0  0  0  0  0  0  0  0  0  0  0
  139.9620   75.6010  221.6560 C   0  0  0  0  0  0  0  0  0  0  0  0
  139.9850   75.4260  220.2150 N   0  0  0  0  0  0  0  0  0  0  0  0
  139.8000   74.1180  219.7180 C   0  0  0  0  0  0  0  0  0  0  0  0
  140.9400   73.3400  219.2430 C   0  0  0  0  0  0  0  0  0  0  0  0
  140.7400   72.7750  218.0910 O   0  0  0  0  0  0  0  0  0  0  0  0
  142.1920   73.1080  219.8110 N   0  0  0  0  0  0  0  0  0  0  0  0
  142.8310   71.8740  220.3070 C   0  0  0  0  0  0  0  0  0  0  0  0
  144.1360   71.9340  219.5560 C   0  0  0  0  0  0  0  0  0  0  0  0
  144.4600   73.3950  219.4280 C   0  0  0  0  0  0  0  0  0  0  0  0
  143.2480   74.0940  220.0270 C   0  0  1  0  0  0  0  0  0  0  0  0
  143.0470   75.3730  219.3150 C   0  0  0  0  0  0  0  0  0  0  0  0
  143.4410   75.7900  218.0660 C   0  0  0  0  0  0  0  0  0  0  0  0
  143.0110   77.0550  217.8690 N   0  0  0  0  0  0  0  0  0  0  0  0
  142.3490   77.4430  218.9800 C   0  0  0  0  0  0  0  0  0  0  0  0
  141.7390   78.7590  219.1340 C   0  0  0  0  0  0  0  0  0  0  0  0
  142.4720   79.8660  218.7540 C   0  0  0  0  0  0  0  0  0  0  0  0
  141.8710   81.1030  218.9110 C   0  0  0  0  0  0  0  0  0  0  0  0
  140.5800   81.2330  219.4290 C   0  0  0  0  0  0  0  0  0  0  0  0
  139.8590   80.0960  219.8060 C   0  0  0  0  0  0  0  0  0  0  0  0
  140.4650   78.8670  219.6470 C   0  0  0  0  0  0  0  0  0  0  0  0
  142.3780   76.4180  219.8440 N   0  0  0  0  0  0  0  0  0  0  0  0
  140.1470   76.9230  222.2240 C   0  0  0  0  0  0  0  0  0  0  0  0
  139.0490   77.6070  222.6710 C   0  0  0  0  0  0  0  0  0  0  0  0
  139.2170   78.8620  223.2110 C   0  0  0  0  0  0  0  0  0  0  0  0
  140.4730   79.4160  223.3000 C   0  0  0  0  0  0  0  0  0  0  0  0
  140.6830   80.6690  223.8350 C   0  0  0  0  0  0  0  0  0  0  0  0
  141.9870   81.1570  223.8870 C   0  0  0  0  0  0  0  0  0  0  0  0
  142.2550   82.3880  224.4040 F   0  0  0  0  0  0  0  0  0  0  0  0
  143.0500   80.4110  223.4180 C   0  0  0  0  0  0  0  0  0  0  0  0
  142.8390   79.1650  222.8870 C   0  0  0  0  0  0  0  0  0  0  0  0
  141.5380   78.6770  222.8340 C   0  0  0  0  0  0  0  0  0  0  0  0
  141.3880   77.4510  222.3030 N   0  0  0  0  0  0  0  0  0  0  0  0
  140.1370   76.2660  219.6130 H   0  0  0  0  0  0  0  0  0  0  0  0
  139.3357   73.5356  220.5275 H   0  0  0  0  0  0  0  0  0  0  0  0
  139.2119   74.2809  218.8028 H   0  0  0  0  0  0  0  0  0  0  0  0
  142.9850   71.9034  221.3958 H   0  0  0  0  0  0  0  0  0  0  0  0
  142.2477   70.9549  220.1490 H   0  0  0  0  0  0  0  0  0  0  0  0
  144.9261   71.4129  220.1165 H   0  0  0  0  0  0  0  0  0  0  0  0
  144.0636   71.4450  218.5733 H   0  0  0  0  0  0  0  0  0  0  0  0
  145.3724   73.6440  219.9898 H   0  0  0  0  0  0  0  0  0  0  0  0
  144.6520   73.6968  218.3878 H   0  0  0  0  0  0  0  0  0  0  0  0
  143.3130   74.3728  221.0891 H   0  0  0  0  0  0  0  0  0  0  0  0
  144.0140   75.1903  217.3435 H   0  0  0  0  0  0  0  0  0  0  0  0
  143.2000   77.5720  216.9850 H   0  0  0  0  0  0  0  0  0  0  0  0
  143.4884   79.7690  218.3447 H   0  0  0  0  0  0  0  0  0  0  0  0
  142.4247   82.0079  218.6201 H   0  0  0  0  0  0  0  0  0  0  0  0
  140.1304   82.2307  219.5403 H   0  0  0  0  0  0  0  0  0  0  0  0
  138.8416   80.1788  220.2160 H   0  0  0  0  0  0  0  0  0  0  0  0
  139.9205   77.9557  219.9354 H   0  0  0  0  0  0  0  0  0  0  0  0
  138.0464   77.1601  222.5997 H   0  0  0  0  0  0  0  0  0  0  0  0
  138.3434   79.4241  223.5728 H   0  0  0  0  0  0  0  0  0  0  0  0
  139.8415   81.2690  224.2117 H   0  0  0  0  0  0  0  0  0  0  0  0
  144.0705   80.8183  223.4707 H   0  0  0  0  0  0  0  0  0  0  0  0
  143.6804   78.5644  222.5111 H   0  0  0  0  0  0  0  0  0  0  0  0
  1  2  2  0
  2  3  1  0
  3  4  1  0
  4  5  1  0
  5  6  2  0
  5  7  1  0
  7  8  1  0
  8  9  1  0
  9 10  1  0
 10 11  1  0
 11 12  1  0
 12 13  2  0
 13 14  1  0
 14 15  1  0
 15 16  1  0
 16 17  2  0
 17 18  1  0
 18 19  2  0
 19 20  1  0
 20 21  2  0
 15 22  2  0
  2 23  1  0
 23 24  2  0
 24 25  1  0
 25 26  2  0
 26 27  1  0
 27 28  2  0
 28 29  1  0
 28 30  1  0
 30 31  2  0
 31 32  1  0
 32 33  2  0
 11  7  1  0
 22 12  1  0
 33 23  1  0
 21 16  1  0
 32 26  1  0
  3 34  1  0
  4 35  1  0
  4 36  1  0
  8 37  1  0
  8 38  1  0
  9 39  1  0
  9 40  1  0
 10 41  1  0
 10 42  1  0
 11 43  1  1
 13 44  1  0
 14 45  1  0
 17 46  1  0
 18 47  1  0
 19 48  1  0
 20 49  1  0
 21 50  1  0
 24 51  1  0
 25 52  1  0
 27 53  1  0
 30 54  1  0
 31 55  1  0
M  END
>  <smiles>  (9) 
O=C(NCC(=O)N1CCC[C@H]1c1c[nH]c(-c2ccccc2)n1)c1ccc2cc(F)ccc2n1

>  <score_type>  (9) 
oracle

>  <origin>  (9) 
autodockgpu

>  <m_score__min__energy>  (9) 
-9.4700000000000006

>  <m_primary>  (9) 
energy

>  <rmsd>  (9) 
7.055264855696321

>  <m_score__min__rmsd>  (9) 
7.055264855696321

>  <meeko>  (9) 
{"free_energy": -6.65, "intermolecular_energy": -8.44, "internal_energy": -3.74, "cluster_size": 5, "cluster_id": 8, "rank_in_cluster": 4}

>  <energy>  (9) 
-8.99

>  <cluster_rmsd>  (9) 
0.0

>  <cluster>  (9) 
3

$$$$

     RDKit          3D

 55 59  0  0  0  0  0  0  0  0999 V2000
  136.0410   75.7480  222.2540 O   0  0  0  0  0  0  0  0  0  0  0  0
  137.2920   75.8390  222.1750 C   0  0  0  0  0  0  0  0  0  0  0  0
  137.9910   74.6590  221.6980 N   0  0  0  0  0  0  0  0  0  0  0  0
  137.2080   73.5300  221.3730 C   0  0  0  0  0  0  0  0  0  0  0  0
  137.6560   72.1900  221.7370 C   0  0  0  0  0  0  0  0  0  0  0  0
  137.5310   71.3230  220.7790 O   0  0  0  0  0  0  0  0  0  0  0  0
  138.1920   71.6930  222.9250 N   0  0  0  0  0  0  0  0  0  0  0  0
  137.6100   70.8500  223.9860 C   0  0  0  0  0  0  0  0  0  0  0  0
  138.6570   69.7700  224.0670 C   0  0  0  0  0  0  0  0  0  0  0  0
  139.9610   70.4490  223.7580 C   0  0  0  0  0  0  0  0  0  0  0  0
  139.5590   71.8750  223.4080 C   0  0  1  0  0  0  0  0  0  0  0  0
  140.5020   72.3910  222.3950 C   0  0  0  0  0  0  0  0  0  0  0  0
  141.4570   71.7580  221.6360 C   0  0  0  0  0  0  0  0  0  0  0  0
  142.0680   72.6710  220.8480 N   0  0  0  0  0  0  0  0  0  0  0  0
  141.5090   73.8730  221.1000 C   0  0  0  0  0  0  0  0  0  0  0  0
  141.9150   75.1050  220.4330 C   0  0  0  0  0  0  0  0  0  0  0  0
  143.2310   75.2270  220.0320 C   0  0  0  0  0  0  0  0  0  0  0  0
  143.5910   76.4040  219.4010 C   0  0  0  0  0  0  0  0  0  0  0  0
  142.6680   77.4290  219.1750 C   0  0  0  0  0  0  0  0  0  0  0  0
  141.3410   77.2800  219.5890 C   0  0  0  0  0  0  0  0  0  0  0  0
  140.9910   76.1030  220.2180 C   0  0  0  0  0  0  0  0  0  0  0  0
  140.5660   73.6900  222.0360 N   0  0  0  0  0  0  0  0  0  0  0  0
  138.0450   77.0290  222.5250 C   0  0  0  0  0  0  0  0  0  0  0  0
  137.3660   78.1960  222.7480 C   0  0  0  0  0  0  0  0  0  0  0  0
  138.0730   79.3290  223.0810 C   0  0  0  0  0  0  0  0  0  0  0  0
  139.4440   79.2840  223.1870 C   0  0  0  0  0  0  0  0  0  0  0  0
  140.1880   80.3960  223.5190 C   0  0  0  0  0  0  0  0  0  0  0  0
  141.5720   80.2640  223.6050 C   0  0  0  0  0  0  0  0  0  0  0  0
  142.3590   81.3280  223.9280 F   0  0  0  0  0  0  0  0  0  0  0  0
  142.1930   79.0540  223.3670 C   0  0  0  0  0  0  0  0  0  0  0  0
  141.4510   77.9500  223.0380 C   0  0  0  0  0  0  0  0  0  0  0  0
  140.0690   78.0800  222.9510 C   0  0  0  0  0  0  0  0  0  0  0  0
  139.3900   76.9650  222.6250 N   0  0  0  0  0  0  0  0  0  0  0  0
  139.0310   74.6930  221.6190 H   0  0  0  0  0  0  0  0  0  0  0  0
  136.2290   73.6764  221.8527 H   0  0  0  0  0  0  0  0  0  0  0  0
  137.2420   73.5128  220.2737 H   0  0  0  0  0  0  0  0  0  0  0  0
  137.5139   71.3972  224.9354 H   0  0  0  0  0  0  0  0  0  0  0  0
  136.5897   70.4915  223.7850 H   0  0  0  0  0  0  0  0  0  0  0  0
  138.6810   69.3332  225.0763 H   0  0  0  0  0  0  0  0  0  0  0  0
  138.4495   68.9480  223.3661 H   0  0  0  0  0  0  0  0  0  0  0  0
  140.6269   70.4340  224.6334 H   0  0  0  0  0  0  0  0  0  0  0  0
  140.5147   69.9537  222.9468 H   0  0  0  0  0  0  0  0  0  0  0  0
  139.5933   72.6128  224.2231 H   0  0  0  0  0  0  0  0  0  0  0  0
  141.6870   70.6827  221.6650 H   0  0  0  0  0  0  0  0  0  0  0  0
  142.8300   72.4090  220.1870 H   0  0  0  0  0  0  0  0  0  0  0  0
  143.9611   74.4230  220.2069 H   0  0  0  0  0  0  0  0  0  0  0  0
  144.6310   76.5369  219.0683 H   0  0  0  0  0  0  0  0  0  0  0  0
  142.9859   78.3536  218.6710 H   0  0  0  0  0  0  0  0  0  0  0  0
  140.6002   78.0751  219.4188 H   0  0  0  0  0  0  0  0  0  0  0  0
  139.9536   75.9590  220.5543 H   0  0  0  0  0  0  0  0  0  0  0  0
  136.2698   78.2281  222.6623 H   0  0  0  0  0  0  0  0  0  0  0  0
  137.5400   80.2739  223.2630 H   0  0  0  0  0  0  0  0  0  0  0  0
  139.7009   81.3634  223.7112 H   0  0  0  0  0  0  0  0  0  0  0  0
  143.2877   78.9760  223.4418 H   0  0  0  0  0  0  0  0  0  0  0  0
  141.9377   76.9822  222.8469 H   0  0  0  0  0  0  0  0  0  0  0  0
  1  2  2  0
  2  3  1  0
  3  4  1  0
  4  5  1  0
  5  6  2  0
  5  7  1  0
  7  8  1  0
  8  9  1  0
  9 10  1  0
 10 11  1  0
 11 12  1  0
 12 13  2  0
 13 14  1  0
 14 15  1  0
 15 16  1  0
 16 17  2  0
 17 18  1  0
 18 19  2  0
 19 20  1  0
 20 21  2  0
 15 22  2  0
  2 23  1  0
 23 24  2  0
 24 25  1  0
 25 26  2  0
 26 27  1  0
 27 28  2  0
 28 29  1  0
 28 30  1  0
 30 31  2  0
 31 32  1  0
 32 33  2  0
 11  7  1  0
 22 12  1  0
 33 23  1  0
 21 16  1  0
 32 26  1  0
  3 34  1  0
  4 35  1  0
  4 36  1  0
  8 37  1  0
  8 38  1  0
  9 39  1  0
  9 40  1  0
 10 41  1  0
 10 42  1  0
 11 43  1  1
 13 44  1  0
 14 45  1  0
 17 46  1  0
 18 47  1  0
 19 48  1  0
 20 49  1  0
 21 50  1  0
 24 51  1  0
 25 52  1  0
 27 53  1  0
 30 54  1  0
 31 55  1  0
M  END
>  <smiles>  (10) 
O=C(NCC(=O)N1CCC[C@H]1c1c[nH]c(-c2ccccc2)n1)c1ccc2cc(F)ccc2n1

>  <score_type>  (10) 
oracle

>  <origin>  (10) 
autodockgpu

>  <m_score__min__energy>  (10) 
-9.4700000000000006

>  <m_primary>  (10) 
energy

>  <rmsd>  (10) 
7.879779716751588

>  <m_score__min__rmsd>  (10) 
7.879779716751588

>  <meeko>  (10) 
{"free_energy": -6.67, "intermolecular_energy": -8.46, "internal_energy": -3.57, "cluster_size": 6, "cluster_id": 9, "rank_in_cluster": 5}

>  <energy>  (10) 
-8.71

>  <cluster_rmsd>  (10) 
0.82

>  <cluster>  (10) 
3

$$$$

     RDKit          3D

 55 59  0  0  0  0  0  0  0  0999 V2000
  141.3410   72.5440  221.6290 O   0  0  0  0  0  0  0  0  0  0  0  0
  140.4170   72.5620  222.4800 C   0  0  0  0  0  0  0  0  0  0  0  0
  139.4480   73.6350  222.3490 N   0  0  0  0  0  0  0  0  0  0  0  0
  139.6330   74.5490  221.2890 C   0  0  0  0  0  0  0  0  0  0  0  0
  138.9830   75.8550  221.3170 C   0  0  0  0  0  0  0  0  0  0  0  0
  137.6940   75.7980  221.1760 O   0  0  0  0  0  0  0  0  0  0  0  0
  139.5090   77.1380  221.4720 N   0  0  0  0  0  0  0  0  0  0  0  0
  139.1570   78.2380  222.3880 C   0  0  0  0  0  0  0  0  0  0  0  0
  140.5150   78.5430  222.9670 C   0  0  0  0  0  0  0  0  0  0  0  0
  141.4940   78.2700  221.8610 C   0  0  0  0  0  0  0  0  0  0  0  0
  140.6320   77.7140  220.7360 C   0  0  1  0  0  0  0  0  0  0  0  0
  141.4330   76.7340  219.9750 C   0  0  0  0  0  0  0  0  0  0  0  0
  141.4480   76.4140  218.6380 C   0  0  0  0  0  0  0  0  0  0  0  0
  142.3650   75.4440  218.4280 N   0  0  0  0  0  0  0  0  0  0  0  0
  142.9300   75.1470  219.6170 C   0  0  0  0  0  0  0  0  0  0  0  0
  143.9700   74.1380  219.7850 C   0  0  0  0  0  0  0  0  0  0  0  0
  143.8110   72.9250  219.1440 C   0  0  0  0  0  0  0  0  0  0  0  0
  144.8110   71.9850  219.3180 C   0  0  0  0  0  0  0  0  0  0  0  0
  145.9360   72.2450  220.1050 C   0  0  0  0  0  0  0  0  0  0  0  0
  146.0730   73.4810  220.7420 C   0  0  0  0  0  0  0  0  0  0  0  0
  145.0710   74.4130  220.5640 C   0  0  0  0  0  0  0  0  0  0  0  0
  142.3580   75.9330  220.5420 N   0  0  0  0  0  0  0  0  0  0  0  0
  140.2780   71.5930  223.5510 C   0  0  0  0  0  0  0  0  0  0  0  0
  139.6850   70.3900  223.2780 C   0  0  0  0  0  0  0  0  0  0  0  0
  139.5500   69.4660  224.2890 C   0  0  0  0  0  0  0  0  0  0  0  0
  140.0060   69.7520  225.5550 C   0  0  0  0  0  0  0  0  0  0  0  0
  139.8900   68.8530  226.5940 C   0  0  0  0  0  0  0  0  0  0  0  0
  140.3780   69.2230  227.8460 C   0  0  0  0  0  0  0  0  0  0  0  0
  140.2910   68.3770  228.9100 F   0  0  0  0  0  0  0  0  0  0  0  0
  140.9660   70.4550  228.0510 C   0  0  0  0  0  0  0  0  0  0  0  0
  141.0800   71.3470  227.0170 C   0  0  0  0  0  0  0  0  0  0  0  0
  140.5930   70.9800  225.7660 C   0  0  0  0  0  0  0  0  0  0  0  0
  140.7320   71.8920  224.7880 N   0  0  0  0  0  0  0  0  0  0  0  0
  138.6640   73.6870  223.0370 H   0  0  0  0  0  0  0  0  0  0  0  0
  140.7147   74.7365  221.2193 H   0  0  0  0  0  0  0  0  0  0  0  0
  139.1446   74.0471  220.4407 H   0  0  0  0  0  0  0  0  0  0  0  0
  138.7405   79.1011  221.8481 H   0  0  0  0  0  0  0  0  0  0  0  0
  138.3822   77.9929  223.1294 H   0  0  0  0  0  0  0  0  0  0  0  0
  140.5719   79.5962  223.2794 H   0  0  0  0  0  0  0  0  0  0  0  0
  140.7251   77.9325  223.8576 H   0  0  0  0  0  0  0  0  0  0  0  0
  141.9974   79.1962  221.5468 H   0  0  0  0  0  0  0  0  0  0  0  0
  142.2933   77.5777  222.1640 H   0  0  0  0  0  0  0  0  0  0  0  0
  140.2794   78.4325  219.9814 H   0  0  0  0  0  0  0  0  0  0  0  0
  140.8156   76.8735  217.8641 H   0  0  0  0  0  0  0  0  0  0  0  0
  142.5440   75.0470  217.4820 H   0  0  0  0  0  0  0  0  0  0  0  0
  142.9280   72.7155  218.5224 H   0  0  0  0  0  0  0  0  0  0  0  0
  144.7180   71.0068  218.8236 H   0  0  0  0  0  0  0  0  0  0  0  0
  146.7140   71.4764  220.2231 H   0  0  0  0  0  0  0  0  0  0  0  0
  146.9514   73.7040  221.3654 H   0  0  0  0  0  0  0  0  0  0  0  0
  145.1537   75.3944  221.0540 H   0  0  0  0  0  0  0  0  0  0  0  0
  139.3213   70.1648  222.2646 H   0  0  0  0  0  0  0  0  0  0  0  0
  139.0756   68.4950  224.0839 H   0  0  0  0  0  0  0  0  0  0  0  0
  139.4241   67.8687  226.4387 H   0  0  0  0  0  0  0  0  0  0  0  0
  141.3447   70.7219  229.0487 H   0  0  0  0  0  0  0  0  0  0  0  0
  141.5461   72.3312  227.1723 H   0  0  0  0  0  0  0  0  0  0  0  0
  1  2  2  0
  2  3  1  0
  3  4  1  0
  4  5  1  0
  5  6  2  0
  5  7  1  0
  7  8  1  0
  8  9  1  0
  9 10  1  0
 10 11  1  0
 11 12  1  0
 12 13  2  0
 13 14  1  0
 14 15  1  0
 15 16  1  0
 16 17  2  0
 17 18  1  0
 18 19  2  0
 19 20  1  0
 20 21  2  0
 15 22  2  0
  2 23  1  0
 23 24  2  0
 24 25  1  0
 25 26  2  0
 26 27  1  0
 27 28  2  0
 28 29  1  0
 28 30  1  0
 30 31  2  0
 31 32  1  0
 32 33  2  0
 11  7  1  0
 22 12  1  0
 33 23  1  0
 21 16  1  0
 32 26  1  0
  3 34  1  0
  4 35  1  0
  4 36  1  0
  8 37  1  0
  8 38  1  0
  9 39  1  0
  9 40  1  0
 10 41  1  0
 10 42  1  0
 11 43  1  6
 13 44  1  0
 14 45  1  0
 17 46  1  0
 18 47  1  0
 19 48  1  0
 20 49  1  0
 21 50  1  0
 24 51  1  0
 25 52  1  0
 27 53  1  0
 30 54  1  0
 31 55  1  0
M  END
>  <smiles>  (11) 
O=C(NCC(=O)N1CCC[C@H]1c1c[nH]c(-c2ccccc2)n1)c1ccc2cc(F)ccc2n1

>  <score_type>  (11) 
oracle

>  <origin>  (11) 
autodockgpu

>  <m_score__min__energy>  (11) 
-9.4700000000000006

>  <m_primary>  (11) 
energy

>  <rmsd>  (11) 
5.311631912311871

>  <m_score__min__rmsd>  (11) 
5.311631912311871

>  <meeko>  (11) 
{"free_energy": -8.83, "intermolecular_energy": -10.62, "internal_energy": -1.81, "cluster_size": 6, "cluster_id": 1, "rank_in_cluster": 4}

>  <energy>  (11) 
-8.7

>  <cluster_rmsd>  (11) 
0.0

>  <cluster>  (11) 
4

$$$$

     RDKit          3D

 55 59  0  0  0  0  0  0  0  0999 V2000
  139.3110   74.8330  222.2650 O   0  0  0  0  0  0  0  0  0  0  0  0
  140.4680   75.1170  221.8640 C   0  0  0  0  0  0  0  0  0  0  0  0
  140.8290   76.5230  221.8960 N   0  0  0  0  0  0  0  0  0  0  0  0
  139.8570   77.4310  222.3700 C   0  0  0  0  0  0  0  0  0  0  0  0
  139.8780   78.8260  221.9430 C   0  0  0  0  0  0  0  0  0  0  0  0
  138.9540   79.1190  221.0790 O   0  0  0  0  0  0  0  0  0  0  0  0
  140.7120   79.8840  222.3050 N   0  0  0  0  0  0  0  0  0  0  0  0
  140.8710   80.6170  223.5740 C   0  0  0  0  0  0  0  0  0  0  0  0
  142.3630   80.5070  223.7570 C   0  0  0  0  0  0  0  0  0  0  0  0
  142.9400   80.5200  222.3700 C   0  0  0  0  0  0  0  0  0  0  0  0
  141.7170   80.5290  221.4630 C   0  0  1  0  0  0  0  0  0  0  0  0
  142.0470   79.7890  220.2270 C   0  0  0  0  0  0  0  0  0  0  0  0
  142.4420   80.2250  218.9850 C   0  0  0  0  0  0  0  0  0  0  0  0
  142.6250   79.1540  218.1810 N   0  0  0  0  0  0  0  0  0  0  0  0
  142.3510   78.0470  218.9020 C   0  0  0  0  0  0  0  0  0  0  0  0
  142.4400   76.6940  218.3630 C   0  0  0  0  0  0  0  0  0  0  0  0
  143.6330   76.2970  217.7910 C   0  0  0  0  0  0  0  0  0  0  0  0
  143.6920   75.0100  217.2870 C   0  0  0  0  0  0  0  0  0  0  0  0
  142.5980   74.1440  217.3520 C   0  0  0  0  0  0  0  0  0  0  0  0
  141.4020   74.5700  217.9370 C   0  0  0  0  0  0  0  0  0  0  0  0
  141.3510   75.8550  218.4370 C   0  0  0  0  0  0  0  0  0  0  0  0
  142.0030   78.4440  220.1350 N   0  0  0  0  0  0  0  0  0  0  0  0
  141.4270   74.1380  221.3860 C   0  0  0  0  0  0  0  0  0  0  0  0
  141.0160   72.8450  221.2140 C   0  0  0  0  0  0  0  0  0  0  0  0
  141.9200   71.9110  220.7610 C   0  0  0  0  0  0  0  0  0  0  0  0
  143.2170   72.2770  220.4860 C   0  0  0  0  0  0  0  0  0  0  0  0
  144.1520   71.3730  220.0300 C   0  0  0  0  0  0  0  0  0  0  0  0
  145.4440   71.8280  219.7750 C   0  0  0  0  0  0  0  0  0  0  0  0
  146.4090   70.9800  219.3240 F   0  0  0  0  0  0  0  0  0  0  0  0
  145.7900   73.1500  219.9700 C   0  0  0  0  0  0  0  0  0  0  0  0
  144.8590   74.0480  220.4230 C   0  0  0  0  0  0  0  0  0  0  0  0
  143.5680   73.5950  220.6780 C   0  0  0  0  0  0  0  0  0  0  0  0
  142.6950   74.5180  221.1210 N   0  0  0  0  0  0  0  0  0  0  0  0
  141.7810   76.8010  221.5700 H   0  0  0  0  0  0  0  0  0  0  0  0
  138.8773   77.0260  222.0765 H   0  0  0  0  0  0  0  0  0  0  0  0
  140.0825   77.4971  223.4446 H   0  0  0  0  0  0  0  0  0  0  0  0
  140.5473   81.6644  223.4834 H   0  0  0  0  0  0  0  0  0  0  0  0
  140.2724   80.2281  224.4109 H   0  0  0  0  0  0  0  0  0  0  0  0
  142.7427   81.3595  224.3392 H   0  0  0  0  0  0  0  0  0  0  0  0
  142.6405   79.5949  224.3057 H   0  0  0  0  0  0  0  0  0  0  0  0
  143.5525   81.4195  222.2096 H   0  0  0  0  0  0  0  0  0  0  0  0
  143.6028   79.6632  222.1789 H   0  0  0  0  0  0  0  0  0  0  0  0
  141.3659   81.5117  221.1151 H   0  0  0  0  0  0  0  0  0  0  0  0
  142.5859   81.2756  218.6925 H   0  0  0  0  0  0  0  0  0  0  0  0
  142.9270   79.2530  217.1890 H   0  0  0  0  0  0  0  0  0  0  0  0
  144.4981   76.9744  217.7385 H   0  0  0  0  0  0  0  0  0  0  0  0
  144.6255   74.6593  216.8226 H   0  0  0  0  0  0  0  0  0  0  0  0
  142.6776   73.1261  216.9426 H   0  0  0  0  0  0  0  0  0  0  0  0
  140.5298   73.9024  217.9968 H   0  0  0  0  0  0  0  0  0  0  0  0
  140.4226   76.2159  218.9036 H   0  0  0  0  0  0  0  0  0  0  0  0
  139.9779   72.5555  221.4345 H   0  0  0  0  0  0  0  0  0  0  0  0
  141.6037   70.8672  220.6183 H   0  0  0  0  0  0  0  0  0  0  0  0
  143.8847   70.3178  219.8712 H   0  0  0  0  0  0  0  0  0  0  0  0
  146.8170   73.4841  219.7610 H   0  0  0  0  0  0  0  0  0  0  0  0
  145.1262   75.1032  220.5815 H   0  0  0  0  0  0  0  0  0  0  0  0
  1  2  2  0
  2  3  1  0
  3  4  1  0
  4  5  1  0
  5  6  2  0
  5  7  1  0
  7  8  1  0
  8  9  1  0
  9 10  1  0
 10 11  1  0
 11 12  1  0
 12 13  2  0
 13 14  1  0
 14 15  1  0
 15 16  1  0
 16 17  2  0
 17 18  1  0
 18 19  2  0
 19 20  1  0
 20 21  2  0
 15 22  2  0
  2 23  1  0
 23 24  2  0
 24 25  1  0
 25 26  2  0
 26 27  1  0
 27 28  2  0
 28 29  1  0
 28 30  1  0
 30 31  2  0
 31 32  1  0
 32 33  2  0
 11  7  1  0
 22 12  1  0
 33 23  1  0
 21 16  1  0
 32 26  1  0
  3 34  1  0
  4 35  1  0
  4 36  1  0
  8 37  1  0
  8 38  1  0
  9 39  1  0
  9 40  1  0
 10 41  1  0
 10 42  1  0
 11 43  1  6
 13 44  1  0
 14 45  1  0
 17 46  1  0
 18 47  1  0
 19 48  1  0
 20 49  1  0
 21 50  1  0
 24 51  1  0
 25 52  1  0
 27 53  1  0
 30 54  1  0
 31 55  1  0
M  END
>  <smiles>  (12) 
O=C(NCC(=O)N1CCC[C@H]1c1c[nH]c(-c2ccccc2)n1)c1ccc2cc(F)ccc2n1

>  <score_type>  (12) 
oracle

>  <origin>  (12) 
autodockgpu

>  <m_score__min__energy>  (12) 
-9.4700000000000006

>  <m_primary>  (12) 
energy

>  <rmsd>  (12) 
6.96060558521458

>  <m_score__min__rmsd>  (12) 
6.96060558521458

>  <meeko>  (12) 
{"free_energy": -7.21, "intermolecular_energy": -9.0, "internal_energy": -3.96, "cluster_size": 20, "cluster_id": 7, "rank_in_cluster": 11}

>  <energy>  (12) 
-8.62

>  <cluster_rmsd>  (12) 
0.0

>  <cluster>  (12) 
5

$$$$

     RDKit          3D

 55 59  0  0  0  0  0  0  0  0999 V2000
  139.3580   74.8440  222.1500 O   0  0  0  0  0  0  0  0  0  0  0  0
  140.5250   75.1450  221.7920 C   0  0  0  0  0  0  0  0  0  0  0  0
  140.8710   76.5540  221.8610 N   0  0  0  0  0  0  0  0  0  0  0  0
  139.8750   77.4440  222.3180 C   0  0  0  0  0  0  0  0  0  0  0  0
  139.8980   78.8470  221.9170 C   0  0  0  0  0  0  0  0  0  0  0  0
  138.9730   79.1580  221.0610 O   0  0  0  0  0  0  0  0  0  0  0  0
  140.7360   79.8960  222.2970 N   0  0  0  0  0  0  0  0  0  0  0  0
  140.8890   80.6140  223.5760 C   0  0  0  0  0  0  0  0  0  0  0  0
  142.3790   80.4940  223.7680 C   0  0  0  0  0  0  0  0  0  0  0  0
  142.9660   80.5200  222.3860 C   0  0  0  0  0  0  0  0  0  0  0  0
  141.7500   80.5450  221.4700 C   0  0  1  0  0  0  0  0  0  0  0  0
  142.0850   79.8190  220.2290 C   0  0  0  0  0  0  0  0  0  0  0  0
  142.4680   80.2680  218.9870 C   0  0  0  0  0  0  0  0  0  0  0  0
  142.6630   79.2050  218.1760 N   0  0  0  0  0  0  0  0  0  0  0  0
  142.4090   78.0890  218.8910 C   0  0  0  0  0  0  0  0  0  0  0  0
  142.5160   76.7410  218.3440 C   0  0  0  0  0  0  0  0  0  0  0  0
  141.4100   75.9170  218.4170 C   0  0  0  0  0  0  0  0  0  0  0  0
  141.5370   74.6440  217.8910 C   0  0  0  0  0  0  0  0  0  0  0  0
  142.7280   74.2040  217.3090 C   0  0  0  0  0  0  0  0  0  0  0  0
  143.8330   75.0580  217.2460 C   0  0  0  0  0  0  0  0  0  0  0  0
  143.6990   76.3260  217.7730 C   0  0  0  0  0  0  0  0  0  0  0  0
  142.0610   78.4740  220.1280 N   0  0  0  0  0  0  0  0  0  0  0  0
  141.5070   74.1840  221.3290 C   0  0  0  0  0  0  0  0  0  0  0  0
  141.1220   72.8830  221.1500 C   0  0  0  0  0  0  0  0  0  0  0  0
  142.0490   71.9650  220.7110 C   0  0  0  0  0  0  0  0  0  0  0  0
  143.3440   72.3540  220.4570 C   0  0  0  0  0  0  0  0  0  0  0  0
  144.3010   71.4660  220.0160 C   0  0  0  0  0  0  0  0  0  0  0  0
  145.5890   71.9430  219.7830 C   0  0  0  0  0  0  0  0  0  0  0  0
  146.5770   71.1120  219.3470 F   0  0  0  0  0  0  0  0  0  0  0  0
  145.9100   73.2710  219.9850 C   0  0  0  0  0  0  0  0  0  0  0  0
  144.9560   74.1530  220.4230 C   0  0  0  0  0  0  0  0  0  0  0  0
  143.6700   73.6780  220.6570 C   0  0  0  0  0  0  0  0  0  0  0  0
  142.7740   74.5850  221.0850 N   0  0  0  0  0  0  0  0  0  0  0  0
  141.8300   76.8460  221.5710 H   0  0  0  0  0  0  0  0  0  0  0  0
  138.9097   77.0360  221.9838 H   0  0  0  0  0  0  0  0  0  0  0  0
  140.0625   77.4920  223.4008 H   0  0  0  0  0  0  0  0  0  0  0  0
  140.5712   81.6640  223.4951 H   0  0  0  0  0  0  0  0  0  0  0  0
  140.2822   80.2190  224.4041 H   0  0  0  0  0  0  0  0  0  0  0  0
  142.7590   81.3377  224.3628 H   0  0  0  0  0  0  0  0  0  0  0  0
  142.6477   79.5740  224.3078 H   0  0  0  0  0  0  0  0  0  0  0  0
  143.5838   81.4184  222.2404 H   0  0  0  0  0  0  0  0  0  0  0  0
  143.6262   79.6622  222.1901 H   0  0  0  0  0  0  0  0  0  0  0  0
  141.4063   81.5332  221.1306 H   0  0  0  0  0  0  0  0  0  0  0  0
  142.5951   81.3223  218.7000 H   0  0  0  0  0  0  0  0  0  0  0  0
  142.9590   79.3140  217.1830 H   0  0  0  0  0  0  0  0  0  0  0  0
  140.4692   76.2582  218.8735 H   0  0  0  0  0  0  0  0  0  0  0  0
  140.6768   73.9597  217.9322 H   0  0  0  0  0  0  0  0  0  0  0  0
  142.7965   73.1851  216.9001 H   0  0  0  0  0  0  0  0  0  0  0  0
  144.7790   74.7295  216.7908 H   0  0  0  0  0  0  0  0  0  0  0  0
  144.5528   77.0186  217.7365 H   0  0  0  0  0  0  0  0  0  0  0  0
  140.0859   72.5751  221.3541 H   0  0  0  0  0  0  0  0  0  0  0  0
  141.7531   70.9160  220.5626 H   0  0  0  0  0  0  0  0  0  0  0  0
  144.0540   70.4067  219.8520 H   0  0  0  0  0  0  0  0  0  0  0  0
  146.9347   73.6224  219.7938 H   0  0  0  0  0  0  0  0  0  0  0  0
  145.2023   75.2127  220.5857 H   0  0  0  0  0  0  0  0  0  0  0  0
  1  2  2  0
  2  3  1  0
  3  4  1  0
  4  5  1  0
  5  6  2  0
  5  7  1  0
  7  8  1  0
  8  9  1  0
  9 10  1  0
 10 11  1  0
 11 12  1  0
 12 13  2  0
 13 14  1  0
 14 15  1  0
 15 16  1  0
 16 17  2  0
 17 18  1  0
 18 19  2  0
 19 20  1  0
 20 21  2  0
 15 22  2  0
  2 23  1  0
 23 24  2  0
 24 25  1  0
 25 26  2  0
 26 27  1  0
 27 28  2  0
 28 29  1  0
 28 30  1  0
 30 31  2  0
 31 32  1  0
 32 33  2  0
 11  7  1  0
 22 12  1  0
 33 23  1  0
 21 16  1  0
 32 26  1  0
  3 34  1  0
  4 35  1  0
  4 36  1  0
  8 37  1  0
  8 38  1  0
  9 39  1  0
  9 40  1  0
 10 41  1  0
 10 42  1  0
 11 43  1  6
 13 44  1  0
 14 45  1  0
 17 46  1  0
 18 47  1  0
 19 48  1  0
 20 49  1  0
 21 50  1  0
 24 51  1  0
 25 52  1  0
 27 53  1  0
 30 54  1  0
 31 55  1  0
M  END
>  <smiles>  (13) 
O=C(NCC(=O)N1CCC[C@H]1c1c[nH]c(-c2ccccc2)n1)c1ccc2cc(F)ccc2n1

>  <score_type>  (13) 
oracle

>  <origin>  (13) 
autodockgpu

>  <m_score__min__energy>  (13) 
-9.4700000000000006

>  <m_primary>  (13) 
energy

>  <rmsd>  (13) 
6.93054188308904

>  <m_score__min__rmsd>  (13) 
6.93054188308904

>  <meeko>  (13) 
{"free_energy": -7.21, "intermolecular_energy": -9.0, "internal_energy": -3.97, "cluster_size": 20, "cluster_id": 7, "rank_in_cluster": 8}

>  <energy>  (13) 
-8.44

>  <cluster_rmsd>  (13) 
0.0

>  <cluster>  (13) 
6

$$$$

     RDKit          3D

 55 59  0  0  0  0  0  0  0  0999 V2000
  136.0560   76.3630  221.9110 O   0  0  0  0  0  0  0  0  0  0  0  0
  137.2550   76.3110  222.2860 C   0  0  0  0  0  0  0  0  0  0  0  0
  137.8320   74.9840  222.4030 N   0  0  0  0  0  0  0  0  0  0  0  0
  137.0010   73.8870  222.0880 C   0  0  0  0  0  0  0  0  0  0  0  0
  137.5250   72.5260  222.1380 C   0  0  0  0  0  0  0  0  0  0  0  0
  137.3490   71.8610  221.0360 O   0  0  0  0  0  0  0  0  0  0  0  0
  138.1760   71.8300  223.1560 N   0  0  0  0  0  0  0  0  0  0  0  0
  137.6780   70.8800  224.1690 C   0  0  0  0  0  0  0  0  0  0  0  0
  138.6340   69.7360  223.9490 C   0  0  0  0  0  0  0  0  0  0  0  0
  139.9340   70.3700  223.5440 C   0  0  0  0  0  0  0  0  0  0  0  0
  139.6070   71.8540  223.4520 C   0  0  1  0  0  0  0  0  0  0  0  0
  140.4410   72.4510  222.3890 C   0  0  0  0  0  0  0  0  0  0  0  0
  141.3120   71.8840  221.4900 C   0  0  0  0  0  0  0  0  0  0  0  0
  141.8390   72.8570  220.7140 N   0  0  0  0  0  0  0  0  0  0  0  0
  141.3110   74.0320  221.1130 C   0  0  0  0  0  0  0  0  0  0  0  0
  141.6470   75.3140  220.5020 C   0  0  0  0  0  0  0  0  0  0  0  0
  142.9530   75.5250  220.1060 C   0  0  0  0  0  0  0  0  0  0  0  0
  143.2460   76.7480  219.5300 C   0  0  0  0  0  0  0  0  0  0  0  0
  142.2680   77.7310  219.3510 C   0  0  0  0  0  0  0  0  0  0  0  0
  140.9530   77.4910  219.7590 C   0  0  0  0  0  0  0  0  0  0  0  0
  140.6690   76.2690  220.3340 C   0  0  0  0  0  0  0  0  0  0  0  0
  140.4690   73.7730  222.1250 N   0  0  0  0  0  0  0  0  0  0  0  0
  138.0620   77.4770  222.5960 C   0  0  0  0  0  0  0  0  0  0  0  0
  137.4410   78.6880  222.7330 C   0  0  0  0  0  0  0  0  0  0  0  0
  138.2000   79.7990  223.0280 C   0  0  0  0  0  0  0  0  0  0  0  0
  139.5630   79.6870  223.1810 C   0  0  0  0  0  0  0  0  0  0  0  0
  140.3570   80.7740  223.4760 C   0  0  0  0  0  0  0  0  0  0  0  0
  141.7290   80.5730  223.6150 C   0  0  0  0  0  0  0  0  0  0  0  0
  142.5630   81.6100  223.9050 F   0  0  0  0  0  0  0  0  0  0  0  0
  142.2890   79.3210  223.4620 C   0  0  0  0  0  0  0  0  0  0  0  0
  141.4970   78.2410  223.1690 C   0  0  0  0  0  0  0  0  0  0  0  0
  140.1270   78.4400  223.0300 C   0  0  0  0  0  0  0  0  0  0  0  0
  139.3980   77.3470  222.7420 N   0  0  0  0  0  0  0  0  0  0  0  0
  138.8250   74.8970  222.7110 H   0  0  0  0  0  0  0  0  0  0  0  0
  136.1513   73.9240  222.7856 H   0  0  0  0  0  0  0  0  0  0  0  0
  136.7908   74.0334  221.0182 H   0  0  0  0  0  0  0  0  0  0  0  0
  137.7588   71.2893  225.1868 H   0  0  0  0  0  0  0  0  0  0  0  0
  136.6137   70.6185  224.0746 H   0  0  0  0  0  0  0  0  0  0  0  0
  138.7609   69.1577  224.8761 H   0  0  0  0  0  0  0  0  0  0  0  0
  138.2649   69.0379  223.1832 H   0  0  0  0  0  0  0  0  0  0  0  0
  140.7109   70.1870  224.3010 H   0  0  0  0  0  0  0  0  0  0  0  0
  140.3274   69.9638  222.6005 H   0  0  0  0  0  0  0  0  0  0  0  0
  139.8139   72.4623  224.3449 H   0  0  0  0  0  0  0  0  0  0  0  0
  141.5430   70.8112  221.4142 H   0  0  0  0  0  0  0  0  0  0  0  0
  142.5280   72.6500  219.9600 H   0  0  0  0  0  0  0  0  0  0  0  0
  143.7261   74.7546  220.2426 H   0  0  0  0  0  0  0  0  0  0  0  0
  144.2764   76.9527  219.2039 H   0  0  0  0  0  0  0  0  0  0  0  0
  142.5336   78.6933  218.8890 H   0  0  0  0  0  0  0  0  0  0  0  0
  140.1696   78.2516  219.6261 H   0  0  0  0  0  0  0  0  0  0  0  0
  139.6421   76.0537  220.6644 H   0  0  0  0  0  0  0  0  0  0  0  0
  136.3513   78.7734  222.6094 H   0  0  0  0  0  0  0  0  0  0  0  0
  137.7147   80.7796  223.1417 H   0  0  0  0  0  0  0  0  0  0  0  0
  139.9187   81.7754  223.5987 H   0  0  0  0  0  0  0  0  0  0  0  0
  143.3751   79.1891  223.5756 H   0  0  0  0  0  0  0  0  0  0  0  0
  141.9349   77.2394  223.0465 H   0  0  0  0  0  0  0  0  0  0  0  0
  1  2  2  0
  2  3  1  0
  3  4  1  0
  4  5  1  0
  5  6  2  0
  5  7  1  0
  7  8  1  0
  8  9  1  0
  9 10  1  0
 10 11  1  0
 11 12  1  0
 12 13  2  0
 13 14  1  0
 14 15  1  0
 15 16  1  0
 16 17  2  0
 17 18  1  0
 18 19  2  0
 19 20  1  0
 20 21  2  0
 15 22  2  0
  2 23  1  0
 23 24  2  0
 24 25  1  0
 25 26  2  0
 26 27  1  0
 27 28  2  0
 28 29  1  0
 28 30  1  0
 30 31  2  0
 31 32  1  0
 32 33  2  0
 11  7  1  0
 22 12  1  0
 33 23  1  0
 21 16  1  0
 32 26  1  0
  3 34  1  0
  4 35  1  0
  4 36  1  0
  8 37  1  0
  8 38  1  0
  9 39  1  0
  9 40  1  0
 10 41  1  0
 10 42  1  0
 11 43  1  1
 13 44  1  0
 14 45  1  0
 17 46  1  0
 18 47  1  0
 19 48  1  0
 20 49  1  0
 21 50  1  0
 24 51  1  0
 25 52  1  0
 27 53  1  0
 30 54  1  0
 31 55  1  0
M  END
>  <smiles>  (14) 
O=C(NCC(=O)N1CCC[C@H]1c1c[nH]c(-c2ccccc2)n1)c1ccc2cc(F)ccc2n1

>  <score_type>  (14) 
oracle

>  <origin>  (14) 
autodockgpu

>  <m_score__min__energy>  (14) 
-9.4700000000000006

>  <m_primary>  (14) 
energy

>  <rmsd>  (14) 
7.992476422089618

>  <m_score__min__rmsd>  (14) 
7.992476422089618

>  <meeko>  (14) 
{"free_energy": -7.12, "intermolecular_energy": -8.91, "internal_energy": -3.56, "cluster_size": 6, "cluster_id": 9, "rank_in_cluster": 4}

>  <energy>  (14) 
-7.77

>  <cluster_rmsd>  (14) 
0.0

>  <cluster>  (14) 
7

$$$$

     RDKit          3D

 55 59  0  0  0  0  0  0  0  0999 V2000
  139.3440   71.0930  221.3940 O   0  0  0  0  0  0  0  0  0  0  0  0
  139.5750   71.5200  222.5540 C   0  0  0  0  0  0  0  0  0  0  0  0
  139.7380   72.9570  222.6850 N   0  0  0  0  0  0  0  0  0  0  0  0
  139.6240   73.7320  221.5100 C   0  0  0  0  0  0  0  0  0  0  0  0
  139.5400   75.1860  221.5890 C   0  0  0  0  0  0  0  0  0  0  0  0
  139.9750   75.6710  222.7120 O   0  0  0  0  0  0  0  0  0  0  0  0
  139.0790   76.1300  220.6710 N   0  0  0  0  0  0  0  0  0  0  0  0
  137.7790   76.8140  220.5370 C   0  0  0  0  0  0  0  0  0  0  0  0
  138.2420   78.2470  220.4760 C   0  0  0  0  0  0  0  0  0  0  0  0
  139.5720   78.2110  219.7780 C   0  0  0  0  0  0  0  0  0  0  0  0
  139.8410   76.7260  219.5760 C   0  0  1  0  0  0  0  0  0  0  0  0
  141.2990   76.5010  219.6520 C   0  0  0  0  0  0  0  0  0  0  0  0
  142.3570   77.3780  219.6280 C   0  0  0  0  0  0  0  0  0  0  0  0
  143.5090   76.6800  219.7270 N   0  0  0  0  0  0  0  0  0  0  0  0
  143.1920   75.3710  219.8130 C   0  0  0  0  0  0  0  0  0  0  0  0
  144.1840   74.3080  219.9340 C   0  0  0  0  0  0  0  0  0  0  0  0
  144.0410   73.1890  219.1380 C   0  0  0  0  0  0  0  0  0  0  0  0
  144.9940   72.1960  219.2700 C   0  0  0  0  0  0  0  0  0  0  0  0
  146.0590   72.3140  220.1670 C   0  0  0  0  0  0  0  0  0  0  0  0
  146.1820   73.4570  220.9610 C   0  0  0  0  0  0  0  0  0  0  0  0
  145.2260   74.4440  220.8230 C   0  0  0  0  0  0  0  0  0  0  0  0
  141.8540   75.2770  219.7670 N   0  0  0  0  0  0  0  0  0  0  0  0
  139.6820   70.6740  223.7270 C   0  0  0  0  0  0  0  0  0  0  0  0
  139.1970   69.3960  223.6630 C   0  0  0  0  0  0  0  0  0  0  0  0
  139.2950   68.5870  224.7720 C   0  0  0  0  0  0  0  0  0  0  0  0
  139.8730   69.0600  225.9270 C   0  0  0  0  0  0  0  0  0  0  0  0
  139.9910   68.2820  227.0590 C   0  0  0  0  0  0  0  0  0  0  0  0
  140.5900   68.8390  228.1860 C   0  0  0  0  0  0  0  0  0  0  0  0
  140.7340   68.1180  229.3330 F   0  0  0  0  0  0  0  0  0  0  0  0
  141.0590   70.1380  228.1810 C   0  0  0  0  0  0  0  0  0  0  0  0
  140.9410   70.9100  227.0550 C   0  0  0  0  0  0  0  0  0  0  0  0
  140.3430   70.3550  225.9280 C   0  0  0  0  0  0  0  0  0  0  0  0
  140.2530   71.1570  224.8520 N   0  0  0  0  0  0  0  0  0  0  0  0
  139.9320   73.3530  223.6310 H   0  0  0  0  0  0  0  0  0  0  0  0
  140.5042   73.5000  220.8925 H   0  0  0  0  0  0  0  0  0  0  0  0
  138.6356   73.4473  221.1201 H   0  0  0  0  0  0  0  0  0  0  0  0
  137.2535   76.5154  219.6180 H   0  0  0  0  0  0  0  0  0  0  0  0
  137.0556   76.5946  221.3361 H   0  0  0  0  0  0  0  0  0  0  0  0
  137.5259   78.8583  219.9071 H   0  0  0  0  0  0  0  0  0  0  0  0
  138.3197   78.6933  221.4784 H   0  0  0  0  0  0  0  0  0  0  0  0
  139.5209   78.7342  218.8118 H   0  0  0  0  0  0  0  0  0  0  0  0
  140.3657   78.7110  220.3525 H   0  0  0  0  0  0  0  0  0  0  0  0
  139.5418   76.2959  218.6088 H   0  0  0  0  0  0  0  0  0  0  0  0
  142.2782   78.4718  219.5421 H   0  0  0  0  0  0  0  0  0  0  0  0
  144.4400   77.1470  219.7290 H   0  0  0  0  0  0  0  0  0  0  0  0
  143.2052   73.0917  218.4295 H   0  0  0  0  0  0  0  0  0  0  0  0
  144.9117   71.2893  218.6527 H   0  0  0  0  0  0  0  0  0  0  0  0
  146.8012   71.5062  220.2480 H   0  0  0  0  0  0  0  0  0  0  0  0
  147.0133   73.5672  221.6729 H   0  0  0  0  0  0  0  0  0  0  0  0
  145.2986   75.3554  221.4346 H   0  0  0  0  0  0  0  0  0  0  0  0
  138.7352   69.0205  222.7379 H   0  0  0  0  0  0  0  0  0  0  0  0
  138.9093   67.5575  224.7346 H   0  0  0  0  0  0  0  0  0  0  0  0
  139.6209   67.2462  227.0717 H   0  0  0  0  0  0  0  0  0  0  0  0
  141.5290   70.5544  229.0842 H   0  0  0  0  0  0  0  0  0  0  0  0
  141.3110   71.9458  227.0424 H   0  0  0  0  0  0  0  0  0  0  0  0
  1  2  2  0
  2  3  1  0
  3  4  1  0
  4  5  1  0
  5  6  2  0
  5  7  1  0
  7  8  1  0
  8  9  1  0
  9 10  1  0
 10 11  1  0
 11 12  1  0
 12 13  2  0
 13 14  1  0
 14 15  1  0
 15 16  1  0
 16 17  2  0
 17 18  1  0
 18 19  2  0
 19 20  1  0
 20 21  2  0
 15 22  2  0
  2 23  1  0
 23 24  2  0
 24 25  1  0
 25 26  2  0
 26 27  1  0
 27 28  2  0
 28 29  1  0
 28 30  1  0
 30 31  2  0
 31 32  1  0
 32 33  2  0
 11  7  1  0
 22 12  1  0
 33 23  1  0
 21 16  1  0
 32 26  1  0
  3 34  1  0
  4 35  1  0
  4 36  1  0
  8 37  1  0
  8 38  1  0
  9 39  1  0
  9 40  1  0
 10 41  1  0
 10 42  1  0
 11 43  1  6
 13 44  1  0
 14 45  1  0
 17 46  1  0
 18 47  1  0
 19 48  1  0
 20 49  1  0
 21 50  1  0
 24 51  1  0
 25 52  1  0
 27 53  1  0
 30 54  1  0
 31 55  1  0
M  END
>  <smiles>  (15) 
O=C(NCC(=O)N1CCC[C@H]1c1c[nH]c(-c2ccccc2)n1)c1ccc2cc(F)ccc2n1

>  <score_type>  (15) 
oracle

>  <origin>  (15) 
autodockgpu

>  <m_score__min__energy>  (15) 
-9.4700000000000006

>  <m_primary>  (15) 
energy

>  <rmsd>  (15) 
4.960062730350137

>  <m_score__min__rmsd>  (15) 
4.960062730350137

>  <meeko>  (15) 
{"free_energy": -8.82, "intermolecular_energy": -10.61, "internal_energy": -1.98, "cluster_size": 6, "cluster_id": 1, "rank_in_cluster": 6}

>  <energy>  (15) 
-7.42

>  <cluster_rmsd>  (15) 
0.82

>  <cluster>  (15) 
7

$$$$

     RDKit          3D

 55 59  0  0  0  0  0  0  0  0999 V2000
  139.9500   73.9970  221.9550 O   0  0  0  0  0  0  0  0  0  0  0  0
  140.1940   75.2300  221.9210 C   0  0  0  0  0  0  0  0  0  0  0  0
  141.5180   75.6070  221.4580 N   0  0  0  0  0  0  0  0  0  0  0  0
  142.3980   74.5650  221.0930 C   0  0  0  0  0  0  0  0  0  0  0  0
  143.3930   74.7710  220.0470 C   0  0  0  0  0  0  0  0  0  0  0  0
  144.6170   74.7410  220.4800 O   0  0  0  0  0  0  0  0  0  0  0  0
  143.2520   74.9890  218.6760 N   0  0  0  0  0  0  0  0  0  0  0  0
  143.5750   74.1450  217.5110 C   0  0  0  0  0  0  0  0  0  0  0  0
  142.2570   74.1870  216.7820 C   0  0  0  0  0  0  0  0  0  0  0  0
  141.6850   75.5480  217.0620 C   0  0  0  0  0  0  0  0  0  0  0  0
  142.6770   76.1690  218.0360 C   0  0  1  0  0  0  0  0  0  0  0  0
  141.9360   77.0620  218.9510 C   0  0  0  0  0  0  0  0  0  0  0  0
  140.5880   77.2630  219.1320 C   0  0  0  0  0  0  0  0  0  0  0  0
  140.4080   78.1910  220.0970 N   0  0  0  0  0  0  0  0  0  0  0  0
  141.6260   78.5790  220.5280 C   0  0  0  0  0  0  0  0  0  0  0  0
  141.8300   79.5770  221.5730 C   0  0  0  0  0  0  0  0  0  0  0  0
  141.3790   80.8620  221.3440 C   0  0  0  0  0  0  0  0  0  0  0  0
  141.5840   81.7900  222.3500 C   0  0  0  0  0  0  0  0  0  0  0  0
  142.2170   81.4480  223.5480 C   0  0  0  0  0  0  0  0  0  0  0  0
  142.6630   80.1400  223.7540 C   0  0  0  0  0  0  0  0  0  0  0  0
  142.4550   79.2210  222.7460 C   0  0  0  0  0  0  0  0  0  0  0  0
  142.5390   77.8900  219.8280 N   0  0  0  0  0  0  0  0  0  0  0  0
  139.2470   76.2580  222.3090 C   0  0  0  0  0  0  0  0  0  0  0  0
  137.9090   75.9840  222.2300 C   0  0  0  0  0  0  0  0  0  0  0  0
  137.0050   76.9550  222.5980 C   0  0  0  0  0  0  0  0  0  0  0  0
  137.4450   78.1820  223.0380 C   0  0  0  0  0  0  0  0  0  0  0  0
  136.5720   79.1790  223.4150 C   0  0  0  0  0  0  0  0  0  0  0  0
  137.1010   80.3930  223.8490 C   0  0  0  0  0  0  0  0  0  0  0  0
  136.2880   81.4150  224.2340 F   0  0  0  0  0  0  0  0  0  0  0  0
  138.4650   80.6010  223.9050 C   0  0  0  0  0  0  0  0  0  0  0  0
  139.3310   79.6070  223.5300 C   0  0  0  0  0  0  0  0  0  0  0  0
  138.8040   78.3950  223.0950 C   0  0  0  0  0  0  0  0  0  0  0  0
  139.6990   77.4560  222.7400 N   0  0  0  0  0  0  0  0  0  0  0  0
  141.7610   76.6210  221.4160 H   0  0  0  0  0  0  0  0  0  0  0  0
  142.9497   74.2849  222.0025 H   0  0  0  0  0  0  0  0  0  0  0  0
  141.7251   73.8153  220.6513 H   0  0  0  0  0  0  0  0  0  0  0  0
  144.3884   74.5754  216.9084 H   0  0  0  0  0  0  0  0  0  0  0  0
  143.9358   73.1354  217.7569 H   0  0  0  0  0  0  0  0  0  0  0  0
  142.4111   74.0499  215.7015 H   0  0  0  0  0  0  0  0  0  0  0  0
  141.5817   73.3848  217.1144 H   0  0  0  0  0  0  0  0  0  0  0  0
  141.6189   76.1422  216.1387 H   0  0  0  0  0  0  0  0  0  0  0  0
  140.6635   75.5035  217.4677 H   0  0  0  0  0  0  0  0  0  0  0  0
  143.4644   76.8033  217.6027 H   0  0  0  0  0  0  0  0  0  0  0  0
  139.7858   76.7510  218.5803 H   0  0  0  0  0  0  0  0  0  0  0  0
  139.4590   78.4990  220.3970 H   0  0  0  0  0  0  0  0  0  0  0  0
  140.8788   81.1359  220.4034 H   0  0  0  0  0  0  0  0  0  0  0  0
  141.2395   82.8242  222.2027 H   0  0  0  0  0  0  0  0  0  0  0  0
  142.3641   82.2086  224.3289 H   0  0  0  0  0  0  0  0  0  0  0  0
  143.1640   79.8520  224.6900 H   0  0  0  0  0  0  0  0  0  0  0  0
  142.7953   78.1840  222.8828 H   0  0  0  0  0  0  0  0  0  0  0  0
  137.5604   75.0020  221.8775 H   0  0  0  0  0  0  0  0  0  0  0  0
  135.9261   76.7488  222.5400 H   0  0  0  0  0  0  0  0  0  0  0  0
  135.4842   79.0206  223.3744 H   0  0  0  0  0  0  0  0  0  0  0  0
  138.8580   81.5681  224.2519 H   0  0  0  0  0  0  0  0  0  0  0  0
  140.4189   79.7640  223.5720 H   0  0  0  0  0  0  0  0  0  0  0  0
  1  2  2  0
  2  3  1  0
  3  4  1  0
  4  5  1  0
  5  6  2  0
  5  7  1  0
  7  8  1  0
  8  9  1  0
  9 10  1  0
 10 11  1  0
 11 12  1  0
 12 13  2  0
 13 14  1  0
 14 15  1  0
 15 16  1  0
 16 17  2  0
 17 18  1  0
 18 19  2  0
 19 20  1  0
 20 21  2  0
 15 22  2  0
  2 23  1  0
 23 24  2  0
 24 25  1  0
 25 26  2  0
 26 27  1  0
 27 28  2  0
 28 29  1  0
 28 30  1  0
 30 31  2  0
 31 32  1  0
 32 33  2  0
 11  7  1  0
 22 12  1  0
 33 23  1  0
 21 16  1  0
 32 26  1  0
  3 34  1  0
  4 35  1  0
  4 36  1  0
  8 37  1  0
  8 38  1  0
  9 39  1  0
  9 40  1  0
 10 41  1  0
 10 42  1  0
 11 43  1  6
 13 44  1  0
 14 45  1  0
 17 46  1  0
 18 47  1  0
 19 48  1  0
 20 49  1  0
 21 50  1  0
 24 51  1  0
 25 52  1  0
 27 53  1  0
 30 54  1  0
 31 55  1  0
M  END
>  <smiles>  (16) 
O=C(NCC(=O)N1CCC[C@H]1c1c[nH]c(-c2ccccc2)n1)c1ccc2cc(F)ccc2n1

>  <score_type>  (16) 
oracle

>  <origin>  (16) 
autodockgpu

>  <m_score__min__energy>  (16) 
-9.4700000000000006

>  <m_primary>  (16) 
energy

>  <rmsd>  (16) 
6.543180975015108

>  <m_score__min__rmsd>  (16) 
6.543180975015108

>  <meeko>  (16) 
{"free_energy": -6.77, "intermolecular_energy": -8.56, "internal_energy": -3.81, "cluster_size": 1, "cluster_id": 11, "rank_in_cluster": 1}

>  <energy>  (16) 
-7.29

>  <cluster_rmsd>  (16) 
0.54

>  <cluster>  (16) 
7

$$$$

     RDKit          3D

 55 59  0  0  0  0  0  0  0  0999 V2000
  138.7440   75.4870  221.4350 O   0  0  0  0  0  0  0  0  0  0  0  0
  139.8990   75.9320  221.6570 C   0  0  0  0  0  0  0  0  0  0  0  0
  141.0010   75.0520  221.3100 N   0  0  0  0  0  0  0  0  0  0  0  0
  140.6760   73.7930  220.7620 C   0  0  0  0  0  0  0  0  0  0  0  0
  141.7290   72.8950  220.2990 C   0  0  0  0  0  0  0  0  0  0  0  0
  141.2820   71.8490  219.6730 O   0  0  0  0  0  0  0  0  0  0  0  0
  143.1170   72.9740  220.4110 N   0  0  0  0  0  0  0  0  0  0  0  0
  144.1240   71.9820  220.8310 C   0  0  0  0  0  0  0  0  0  0  0  0
  145.0750   72.0640  219.6640 C   0  0  0  0  0  0  0  0  0  0  0  0
  145.0270   73.4930  219.2050 C   0  0  0  0  0  0  0  0  0  0  0  0
  143.9540   74.1240  220.0820 C   0  0  1  0  0  0  0  0  0  0  0  0
  143.2710   75.1760  219.3010 C   0  0  0  0  0  0  0  0  0  0  0  0
  142.8390   75.2030  217.9970 C   0  0  0  0  0  0  0  0  0  0  0  0
  142.2670   76.4020  217.7480 N   0  0  0  0  0  0  0  0  0  0  0  0
  142.3320   77.1320  218.8810 C   0  0  0  0  0  0  0  0  0  0  0  0
  141.8100   78.4900  218.9940 C   0  0  0  0  0  0  0  0  0  0  0  0
  142.6240   79.5350  218.6060 C   0  0  0  0  0  0  0  0  0  0  0  0
  142.1070   80.8130  218.7220 C   0  0  0  0  0  0  0  0  0  0  0  0
  140.8180   81.0430  219.2100 C   0  0  0  0  0  0  0  0  0  0  0  0
  140.0140   79.9670  219.5970 C   0  0  0  0  0  0  0  0  0  0  0  0
  140.5370   78.6950  219.4770 C   0  0  0  0  0  0  0  0  0  0  0  0
  142.9400   76.3800  219.8110 N   0  0  0  0  0  0  0  0  0  0  0  0
  140.1720   77.2390  222.2240 C   0  0  0  0  0  0  0  0  0  0  0  0
  139.1280   77.9770  222.7100 C   0  0  0  0  0  0  0  0  0  0  0  0
  139.3800   79.2180  223.2500 C   0  0  0  0  0  0  0  0  0  0  0  0
  140.6650   79.7060  223.2980 C   0  0  0  0  0  0  0  0  0  0  0  0
  140.9580   80.9430  223.8310 C   0  0  0  0  0  0  0  0  0  0  0  0
  142.2880   81.3610  223.8410 C   0  0  0  0  0  0  0  0  0  0  0  0
  142.6370   82.5730  224.3540 F   0  0  0  0  0  0  0  0  0  0  0  0
  143.2940   80.5630  223.3330 C   0  0  0  0  0  0  0  0  0  0  0  0
  143.0000   79.3330  222.8040 C   0  0  0  0  0  0  0  0  0  0  0  0
  141.6730   78.9150  222.7930 C   0  0  0  0  0  0  0  0  0  0  0  0
  141.4410   77.7010  222.2630 N   0  0  0  0  0  0  0  0  0  0  0  0
  141.9760   75.3840  221.4790 H   0  0  0  0  0  0  0  0  0  0  0  0
  140.1137   73.2481  221.5346 H   0  0  0  0  0  0  0  0  0  0  0  0
  140.1471   74.0551  219.8338 H   0  0  0  0  0  0  0  0  0  0  0  0
  144.6105   72.2687  221.7750 H   0  0  0  0  0  0  0  0  0  0  0  0
  143.7269   70.9767  221.0353 H   0  0  0  0  0  0  0  0  0  0  0  0
  146.0941   71.7958  219.9794 H   0  0  0  0  0  0  0  0  0  0  0  0
  144.7941   71.3681  218.8598 H   0  0  0  0  0  0  0  0  0  0  0  0
  145.9981   73.9862  219.3589 H   0  0  0  0  0  0  0  0  0  0  0  0
  144.8062   73.5863  218.1314 H   0  0  0  0  0  0  0  0  0  0  0  0
  144.2975   74.6328  220.9947 H   0  0  0  0  0  0  0  0  0  0  0  0
  142.9420   74.3816  217.2727 H   0  0  0  0  0  0  0  0  0  0  0  0
  141.8680   76.6410  216.8160 H   0  0  0  0  0  0  0  0  0  0  0  0
  143.6395   79.3593  218.2213 H   0  0  0  0  0  0  0  0  0  0  0  0
  142.7270   81.6707  218.4222 H   0  0  0  0  0  0  0  0  0  0  0  0
  140.4358   82.0714  219.2897 H   0  0  0  0  0  0  0  0  0  0  0  0
  138.9973   80.1286  219.9847 H   0  0  0  0  0  0  0  0  0  0  0  0
  139.9257   77.8296  219.7726 H   0  0  0  0  0  0  0  0  0  0  0  0
  138.1013   77.5844  222.6700 H   0  0  0  0  0  0  0  0  0  0  0  0
  138.5499   79.8221  223.6449 H   0  0  0  0  0  0  0  0  0  0  0  0
  140.1624   81.5842  224.2382 H   0  0  0  0  0  0  0  0  0  0  0  0
  144.3357   80.9158  223.3529 H   0  0  0  0  0  0  0  0  0  0  0  0
  143.7953   78.6910  222.3974 H   0  0  0  0  0  0  0  0  0  0  0  0
  1  2  2  0
  2  3  1  0
  3  4  1  0
  4  5  1  0
  5  6  2  0
  5  7  1  0
  7  8  1  0
  8  9  1  0
  9 10  1  0
 10 11  1  0
 11 12  1  0
 12 13  2  0
 13 14  1  0
 14 15  1  0
 15 16  1  0
 16 17  2  0
 17 18  1  0
 18 19  2  0
 19 20  1  0
 20 21  2  0
 15 22  2  0
  2 23  1  0
 23 24  2  0
 24 25  1  0
 25 26  2  0
 26 27  1  0
 27 28  2  0
 28 29  1  0
 28 30  1  0
 30 31  2  0
 31 32  1  0
 32 33  2  0
 11  7  1  0
 22 12  1  0
 33 23  1  0
 21 16  1  0
 32 26  1  0
  3 34  1  0
  4 35  1  0
  4 36  1  0
  8 37  1  0
  8 38  1  0
  9 39  1  0
  9 40  1  0
 10 41  1  0
 10 42  1  0
 11 43  1  1
 13 44  1  0
 14 45  1  0
 17 46  1  0
 18 47  1  0
 19 48  1  0
 20 49  1  0
 21 50  1  0
 24 51  1  0
 25 52  1  0
 27 53  1  0
 30 54  1  0
 31 55  1  0
M  END
>  <smiles>  (17) 
O=C(NCC(=O)N1CCC[C@H]1c1c[nH]c(-c2ccccc2)n1)c1ccc2cc(F)ccc2n1

>  <score_type>  (17) 
oracle

>  <origin>  (17) 
autodockgpu

>  <m_score__min__energy>  (17) 
-9.4700000000000006

>  <m_primary>  (17) 
energy

>  <rmsd>  (17) 
7.349126213693957

>  <m_score__min__rmsd>  (17) 
7.349126213693957

>  <meeko>  (17) 
{"free_energy": -6.69, "intermolecular_energy": -8.48, "internal_energy": -3.93, "cluster_size": 5, "cluster_id": 8, "rank_in_cluster": 3}

>  <energy>  (17) 
-7.24

>  <cluster_rmsd>  (17) 
0.57

>  <cluster>  (17) 
7

$$$$

     RDKit          3D

 55 59  0  0  0  0  0  0  0  0999 V2000
  141.2640   71.7170  221.3640 O   0  0  0  0  0  0  0  0  0  0  0  0
  140.4100   71.9580  222.2540 C   0  0  0  0  0  0  0  0  0  0  0  0
  139.5840   73.1340  222.0460 N   0  0  0  0  0  0  0  0  0  0  0  0
  139.8150   73.8880  220.8750 C   0  0  0  0  0  0  0  0  0  0  0  0
  140.9270   74.8310  220.8110 C   0  0  0  0  0  0  0  0  0  0  0  0
  141.4490   75.0980  221.9700 O   0  0  0  0  0  0  0  0  0  0  0  0
  141.5170   75.4830  219.7280 N   0  0  0  0  0  0  0  0  0  0  0  0
  141.2310   76.7820  219.0910 C   0  0  0  0  0  0  0  0  0  0  0  0
  142.6100   77.3900  219.1040 C   0  0  0  0  0  0  0  0  0  0  0  0
  143.5590   76.2380  218.9350 C   0  0  0  0  0  0  0  0  0  0  0  0
  142.6560   75.0130  218.9430 C   0  0  1  0  0  0  0  0  0  0  0  0
  143.3970   73.8890  219.5520 C   0  0  0  0  0  0  0  0  0  0  0  0
  144.1240   73.8040  220.7150 C   0  0  0  0  0  0  0  0  0  0  0  0
  144.6150   72.5510  220.8360 N   0  0  0  0  0  0  0  0  0  0  0  0
  144.2070   71.8440  219.7620 C   0  0  0  0  0  0  0  0  0  0  0  0
  144.5470   70.4410  219.5450 C   0  0  0  0  0  0  0  0  0  0  0  0
  145.8360   70.1350  219.1580 C   0  0  0  0  0  0  0  0  0  0  0  0
  146.1330   68.7980  218.9600 C   0  0  0  0  0  0  0  0  0  0  0  0
  145.1760   67.7970  219.1420 C   0  0  0  0  0  0  0  0  0  0  0  0
  143.8770   68.1340  219.5350 C   0  0  0  0  0  0  0  0  0  0  0  0
  143.5890   69.4690  219.7310 C   0  0  0  0  0  0  0  0  0  0  0  0
  143.4730   72.6630  218.9950 N   0  0  0  0  0  0  0  0  0  0  0  0
  140.2180   71.1450  223.4400 C   0  0  0  0  0  0  0  0  0  0  0  0
  139.5700   69.9460  223.3180 C   0  0  0  0  0  0  0  0  0  0  0  0
  139.3850   69.1680  224.4380 C   0  0  0  0  0  0  0  0  0  0  0  0
  139.8450   69.5950  225.6620 C   0  0  0  0  0  0  0  0  0  0  0  0
  139.6800   68.8450  226.8080 C   0  0  0  0  0  0  0  0  0  0  0  0
  140.1760   69.3510  228.0070 C   0  0  0  0  0  0  0  0  0  0  0  0
  140.0420   68.6560  229.1700 F   0  0  0  0  0  0  0  0  0  0  0  0
  140.8210   70.5710  228.0580 C   0  0  0  0  0  0  0  0  0  0  0  0
  140.9850   71.3140  226.9180 C   0  0  0  0  0  0  0  0  0  0  0  0
  140.4890   70.8110  225.7200 C   0  0  0  0  0  0  0  0  0  0  0  0
  140.6770   71.5810  224.6330 N   0  0  0  0  0  0  0  0  0  0  0  0
  138.8620   73.3710  222.7620 H   0  0  0  0  0  0  0  0  0  0  0  0
  139.9664   73.1657  220.0593 H   0  0  0  0  0  0  0  0  0  0  0  0
  138.9318   74.5415  220.8221 H   0  0  0  0  0  0  0  0  0  0  0  0
  140.8489   76.6590  218.0669 H   0  0  0  0  0  0  0  0  0  0  0  0
  140.4558   77.3818  219.5903 H   0  0  0  0  0  0  0  0  0  0  0  0
  142.7225   78.1052  218.2759 H   0  0  0  0  0  0  0  0  0  0  0  0
  142.8027   77.9439  220.0347 H   0  0  0  0  0  0  0  0  0  0  0  0
  144.1033   76.3163  217.9823 H   0  0  0  0  0  0  0  0  0  0  0  0
  144.3269   76.2031  219.7218 H   0  0  0  0  0  0  0  0  0  0  0  0
  142.3291   74.6335  217.9637 H   0  0  0  0  0  0  0  0  0  0  0  0
  144.2809   74.6236  221.4317 H   0  0  0  0  0  0  0  0  0  0  0  0
  145.2000   72.2620  221.6490 H   0  0  0  0  0  0  0  0  0  0  0  0
  146.5937   70.9192  219.0134 H   0  0  0  0  0  0  0  0  0  0  0  0
  147.1503   68.5159  218.6509 H   0  0  0  0  0  0  0  0  0  0  0  0
  145.4443   66.7432  218.9761 H   0  0  0  0  0  0  0  0  0  0  0  0
  143.1097   67.3599  219.6831 H   0  0  0  0  0  0  0  0  0  0  0  0
  142.5754   69.7626  220.0416 H   0  0  0  0  0  0  0  0  0  0  0  0
  139.2019   69.6085  222.3379 H   0  0  0  0  0  0  0  0  0  0  0  0
  138.8673   68.2011  224.3541 H   0  0  0  0  0  0  0  0  0  0  0  0
  139.1692   67.8713  226.7756 H   0  0  0  0  0  0  0  0  0  0  0  0
  141.2047   70.9480  229.0175 H   0  0  0  0  0  0  0  0  0  0  0  0
  141.4976   72.2867  226.9499 H   0  0  0  0  0  0  0  0  0  0  0  0
  1  2  2  0
  2  3  1  0
  3  4  1  0
  4  5  1  0
  5  6  2  0
  5  7  1  0
  7  8  1  0
  8  9  1  0
  9 10  1  0
 10 11  1  0
 11 12  1  0
 12 13  2  0
 13 14  1  0
 14 15  1  0
 15 16  1  0
 16 17  2  0
 17 18  1  0
 18 19  2  0
 19 20  1  0
 20 21  2  0
 15 22  2  0
  2 23  1  0
 23 24  2  0
 24 25  1  0
 25 26  2  0
 26 27  1  0
 27 28  2  0
 28 29  1  0
 28 30  1  0
 30 31  2  0
 31 32  1  0
 32 33  2  0
 11  7  1  0
 22 12  1  0
 33 23  1  0
 21 16  1  0
 32 26  1  0
  3 34  1  0
  4 35  1  0
  4 36  1  0
  8 37  1  0
  8 38  1  0
  9 39  1  0
  9 40  1  0
 10 41  1  0
 10 42  1  0
 11 43  1  6
 13 44  1  0
 14 45  1  0
 17 46  1  0
 18 47  1  0
 19 48  1  0
 20 49  1  0
 21 50  1  0
 24 51  1  0
 25 52  1  0
 27 53  1  0
 30 54  1  0
 31 55  1  0
M  END
>  <smiles>  (18) 
O=C(NCC(=O)N1CCC[C@H]1c1c[nH]c(-c2ccccc2)n1)c1ccc2cc(F)ccc2n1

>  <score_type>  (18) 
oracle

>  <origin>  (18) 
autodockgpu

>  <m_score__min__energy>  (18) 
-9.4700000000000006

>  <m_primary>  (18) 
energy

>  <rmsd>  (18) 
6.649837553876458

>  <m_score__min__rmsd>  (18) 
6.649837553876458

>  <meeko>  (18) 
{"free_energy": -8.99, "intermolecular_energy": -10.78, "internal_energy": -1.91, "cluster_size": 2, "cluster_id": 3, "rank_in_cluster": 1}

>  <energy>  (18) 
-7.22

>  <cluster_rmsd>  (18) 
0.55

>  <cluster>  (18) 
7

$$$$

     RDKit          3D

 55 59  0  0  0  0  0  0  0  0999 V2000
  139.0980   75.0380  221.7140 O   0  0  0  0  0  0  0  0  0  0  0  0
  140.3140   75.3450  221.6230 C   0  0  0  0  0  0  0  0  0  0  0  0
  140.6440   76.7340  221.8890 N   0  0  0  0  0  0  0  0  0  0  0  0
  139.5800   77.6000  222.2210 C   0  0  0  0  0  0  0  0  0  0  0  0
  139.7070   79.0390  222.0130 C   0  0  0  0  0  0  0  0  0  0  0  0
  138.7340   79.5510  221.3220 O   0  0  0  0  0  0  0  0  0  0  0  0
  140.6840   79.9440  222.4280 N   0  0  0  0  0  0  0  0  0  0  0  0
  140.9500   80.5670  223.7380 C   0  0  0  0  0  0  0  0  0  0  0  0
  142.4120   80.2370  223.8940 C   0  0  0  0  0  0  0  0  0  0  0  0
  142.9790   80.2550  222.5030 C   0  0  0  0  0  0  0  0  0  0  0  0
  141.7660   80.4920  221.6150 C   0  0  1  0  0  0  0  0  0  0  0  0
  141.9830   79.7930  220.3320 C   0  0  0  0  0  0  0  0  0  0  0  0
  142.1930   80.2700  219.0600 C   0  0  0  0  0  0  0  0  0  0  0  0
  142.3390   79.2250  218.2170 N   0  0  0  0  0  0  0  0  0  0  0  0
  142.2240   78.0920  218.9410 C   0  0  0  0  0  0  0  0  0  0  0  0
  142.3270   76.7550  218.3660 C   0  0  0  0  0  0  0  0  0  0  0  0
  141.1910   75.9720  218.3290 C   0  0  0  0  0  0  0  0  0  0  0  0
  141.3140   74.7090  217.7790 C   0  0  0  0  0  0  0  0  0  0  0  0
  142.5320   74.2390  217.2790 C   0  0  0  0  0  0  0  0  0  0  0  0
  143.6670   75.0530  217.3280 C   0  0  0  0  0  0  0  0  0  0  0  0
  143.5360   76.3110  217.8780 C   0  0  0  0  0  0  0  0  0  0  0  0
  142.0100   78.4490  220.2160 N   0  0  0  0  0  0  0  0  0  0  0  0
  141.3660   74.4080  221.2760 C   0  0  0  0  0  0  0  0  0  0  0  0
  141.0630   73.0760  221.2050 C   0  0  0  0  0  0  0  0  0  0  0  0
  142.0570   72.1810  220.8760 C   0  0  0  0  0  0  0  0  0  0  0  0
  143.3340   72.6250  220.6240 C   0  0  0  0  0  0  0  0  0  0  0  0
  144.3560   71.7610  220.2910 C   0  0  0  0  0  0  0  0  0  0  0  0
  145.6210   72.2940  220.0510 C   0  0  0  0  0  0  0  0  0  0  0  0
  146.6680   71.4900  219.7190 F   0  0  0  0  0  0  0  0  0  0  0  0
  145.8560   73.6510  220.1400 C   0  0  0  0  0  0  0  0  0  0  0  0
  144.8380   74.5080  220.4710 C   0  0  0  0  0  0  0  0  0  0  0  0
  143.5750   73.9780  220.7110 C   0  0  0  0  0  0  0  0  0  0  0  0
  142.6140   74.8630  221.0310 N   0  0  0  0  0  0  0  0  0  0  0  0
  141.6430   77.0300  221.8230 H   0  0  0  0  0  0  0  0  0  0  0  0
  138.7104   77.2716  221.6329 H   0  0  0  0  0  0  0  0  0  0  0  0
  139.5197   77.5114  223.3158 H   0  0  0  0  0  0  0  0  0  0  0  0
  140.7769   81.6531  223.7160 H   0  0  0  0  0  0  0  0  0  0  0  0
  140.3060   80.2148  224.5573 H   0  0  0  0  0  0  0  0  0  0  0  0
  142.9110   80.9897  224.5221 H   0  0  0  0  0  0  0  0  0  0  0  0
  142.5602   79.2625  224.3822 H   0  0  0  0  0  0  0  0  0  0  0  0
  143.7115   81.0678  222.3897 H   0  0  0  0  0  0  0  0  0  0  0  0
  143.5136   79.3272  222.2513 H   0  0  0  0  0  0  0  0  0  0  0  0
  141.5554   81.5342  221.3331 H   0  0  0  0  0  0  0  0  0  0  0  0
  142.2353   81.3315  218.7748 H   0  0  0  0  0  0  0  0  0  0  0  0
  142.5080   79.3570  217.1970 H   0  0  0  0  0  0  0  0  0  0  0  0
  140.2296   76.3366  218.7199 H   0  0  0  0  0  0  0  0  0  0  0  0
  140.4295   74.0566  217.7338 H   0  0  0  0  0  0  0  0  0  0  0  0
  142.5970   73.2293  216.8474 H   0  0  0  0  0  0  0  0  0  0  0  0
  144.6344   74.7014  216.9401 H   0  0  0  0  0  0  0  0  0  0  0  0
  144.4137   76.9722  217.9279 H   0  0  0  0  0  0  0  0  0  0  0  0
  140.0405   72.7247  221.4077 H   0  0  0  0  0  0  0  0  0  0  0  0
  141.8285   71.1068  220.8146 H   0  0  0  0  0  0  0  0  0  0  0  0
  144.1771   70.6782  220.2167 H   0  0  0  0  0  0  0  0  0  0  0  0
  146.8637   74.0466  219.9447 H   0  0  0  0  0  0  0  0  0  0  0  0
  145.0165   75.5909  220.5450 H   0  0  0  0  0  0  0  0  0  0  0  0
  1  2  2  0
  2  3  1  0
  3  4  1  0
  4  5  1  0
  5  6  2  0
  5  7  1  0
  7  8  1  0
  8  9  1  0
  9 10  1  0
 10 11  1  0
 11 12  1  0
 12 13  2  0
 13 14  1  0
 14 15  1  0
 15 16  1  0
 16 17  2  0
 17 18  1  0
 18 19  2  0
 19 20  1  0
 20 21  2  0
 15 22  2  0
  2 23  1  0
 23 24  2  0
 24 25  1  0
 25 26  2  0
 26 27  1  0
 27 28  2  0
 28 29  1  0
 28 30  1  0
 30 31  2  0
 31 32  1  0
 32 33  2  0
 11  7  1  0
 22 12  1  0
 33 23  1  0
 21 16  1  0
 32 26  1  0
  3 34  1  0
  4 35  1  0
  4 36  1  0
  8 37  1  0
  8 38  1  0
  9 39  1  0
  9 40  1  0
 10 41  1  0
 10 42  1  0
 11 43  1  6
 13 44  1  0
 14 45  1  0
 17 46  1  0
 18 47  1  0
 19 48  1  0
 20 49  1  0
 21 50  1  0
 24 51  1  0
 25 52  1  0
 27 53  1  0
 30 54  1  0
 31 55  1  0
M  END
>  <smiles>  (19) 
O=C(NCC(=O)N1CCC[C@H]1c1c[nH]c(-c2ccccc2)n1)c1ccc2cc(F)ccc2n1

>  <score_type>  (19) 
oracle

>  <origin>  (19) 
autodockgpu

>  <m_score__min__energy>  (19) 
-9.4700000000000006

>  <m_primary>  (19) 
energy

>  <rmsd>  (19) 
6.919014745764956

>  <m_score__min__rmsd>  (19) 
6.919014745764956

>  <meeko>  (19) 
{"free_energy": -6.86, "intermolecular_energy": -8.65, "internal_energy": -4.12, "cluster_size": 20, "cluster_id": 7, "rank_in_cluster": 16}

>  <energy>  (19) 
-7.22

>  <cluster_rmsd>  (19) 
0.58

>  <cluster>  (19) 
7

$$$$

     RDKit          3D

 55 59  0  0  0  0  0  0  0  0999 V2000
  139.2060   75.2340  222.3820 O   0  0  0  0  0  0  0  0  0  0  0  0
  140.2250   75.4850  221.6900 C   0  0  0  0  0  0  0  0  0  0  0  0
  140.3490   76.8480  221.2040 N   0  0  0  0  0  0  0  0  0  0  0  0
  139.3230   77.7540  221.5490 C   0  0  0  0  0  0  0  0  0  0  0  0
  139.5550   79.1930  221.4820 C   0  0  0  0  0  0  0  0  0  0  0  0
  138.6930   79.8240  220.7440 O   0  0  0  0  0  0  0  0  0  0  0  0
  140.5330   79.9930  222.0720 N   0  0  0  0  0  0  0  0  0  0  0  0
  140.6640   80.5360  223.4370 C   0  0  0  0  0  0  0  0  0  0  0  0
  142.0610   80.0760  223.7700 C   0  0  0  0  0  0  0  0  0  0  0  0
  142.8140   80.1050  222.4700 C   0  0  0  0  0  0  0  0  0  0  0  0
  141.7570   80.4820  221.4410 C   0  0  1  0  0  0  0  0  0  0  0  0
  142.0930   79.8220  220.1630 C   0  0  0  0  0  0  0  0  0  0  0  0
  142.4730   80.3360  218.9470 C   0  0  0  0  0  0  0  0  0  0  0  0
  142.6720   79.3170  218.0810 N   0  0  0  0  0  0  0  0  0  0  0  0
  142.4210   78.1650  218.7380 C   0  0  0  0  0  0  0  0  0  0  0  0
  142.5320   76.8470  218.1210 C   0  0  0  0  0  0  0  0  0  0  0  0
  141.4500   75.9930  218.2080 C   0  0  0  0  0  0  0  0  0  0  0  0
  141.5790   74.7500  217.6160 C   0  0  0  0  0  0  0  0  0  0  0  0
  142.7500   74.3680  216.9550 C   0  0  0  0  0  0  0  0  0  0  0  0
  143.8300   75.2520  216.8800 C   0  0  0  0  0  0  0  0  0  0  0  0
  143.6930   76.4900  217.4740 C   0  0  0  0  0  0  0  0  0  0  0  0
  142.0730   78.4840  219.9930 N   0  0  0  0  0  0  0  0  0  0  0  0
  141.2490   74.5090  221.3660 C   0  0  0  0  0  0  0  0  0  0  0  0
  140.9420   73.1790  221.4530 C   0  0  0  0  0  0  0  0  0  0  0  0
  141.9080   72.2480  221.1470 C   0  0  0  0  0  0  0  0  0  0  0  0
  143.1640   72.6530  220.7590 C   0  0  0  0  0  0  0  0  0  0  0  0
  144.1580   71.7520  220.4430 C   0  0  0  0  0  0  0  0  0  0  0  0
  145.4030   72.2480  220.0590 C   0  0  0  0  0  0  0  0  0  0  0  0
  146.4230   71.4060  219.7360 F   0  0  0  0  0  0  0  0  0  0  0  0
  145.6440   73.6050  219.9920 C   0  0  0  0  0  0  0  0  0  0  0  0
  144.6540   74.4990  220.3050 C   0  0  0  0  0  0  0  0  0  0  0  0
  143.4110   74.0070  220.6900 C   0  0  0  0  0  0  0  0  0  0  0  0
  142.4760   74.9270  220.9860 N   0  0  0  0  0  0  0  0  0  0  0  0
  141.1810   77.0970  220.6240 H   0  0  0  0  0  0  0  0  0  0  0  0
  138.4752   77.5396  220.8817 H   0  0  0  0  0  0  0  0  0  0  0  0
  139.1849   77.5746  222.6254 H   0  0  0  0  0  0  0  0  0  0  0  0
  140.5817   81.6329  223.4495 H   0  0  0  0  0  0  0  0  0  0  0  0
  139.8875   80.2062  224.1429 H   0  0  0  0  0  0  0  0  0  0  0  0
  142.5261   80.7560  224.4989 H   0  0  0  0  0  0  0  0  0  0  0  0
  142.0636   79.0726  224.2207 H   0  0  0  0  0  0  0  0  0  0  0  0
  143.6166   80.8566  222.4996 H   0  0  0  0  0  0  0  0  0  0  0  0
  143.3036   79.1466  222.2426 H   0  0  0  0  0  0  0  0  0  0  0  0
  141.6698   81.5493  221.1896 H   0  0  0  0  0  0  0  0  0  0  0  0
  142.5956   81.4043  218.7153 H   0  0  0  0  0  0  0  0  0  0  0  0
  142.9660   79.4780  217.0950 H   0  0  0  0  0  0  0  0  0  0  0  0
  140.5257   76.2888  218.7258 H   0  0  0  0  0  0  0  0  0  0  0  0
  140.7378   74.0430  217.6666 H   0  0  0  0  0  0  0  0  0  0  0  0
  142.8215   73.3718  216.4940 H   0  0  0  0  0  0  0  0  0  0  0  0
  144.7596   74.9699  216.3639 H   0  0  0  0  0  0  0  0  0  0  0  0
  144.5276   77.2051  217.4295 H   0  0  0  0  0  0  0  0  0  0  0  0
  139.9367   72.8580  221.7633 H   0  0  0  0  0  0  0  0  0  0  0  0
  141.6747   71.1750  221.2130 H   0  0  0  0  0  0  0  0  0  0  0  0
  143.9736   70.6687  220.4925 H   0  0  0  0  0  0  0  0  0  0  0  0
  146.6353   73.9707  219.6860 H   0  0  0  0  0  0  0  0  0  0  0  0
  144.8381   75.5822  220.2530 H   0  0  0  0  0  0  0  0  0  0  0  0
  1  2  2  0
  2  3  1  0
  3  4  1  0
  4  5  1  0
  5  6  2  0
  5  7  1  0
  7  8  1  0
  8  9  1  0
  9 10  1  0
 10 11  1  0
 11 12  1  0
 12 13  2  0
 13 14  1  0
 14 15  1  0
 15 16  1  0
 16 17  2  0
 17 18  1  0
 18 19  2  0
 19 20  1  0
 20 21  2  0
 15 22  2  0
  2 23  1  0
 23 24  2  0
 24 25  1  0
 25 26  2  0
 26 27  1  0
 27 28  2  0
 28 29  1  0
 28 30  1  0
 30 31  2  0
 31 32  1  0
 32 33  2  0
 11  7  1  0
 22 12  1  0
 33 23  1  0
 21 16  1  0
 32 26  1  0
  3 34  1  0
  4 35  1  0
  4 36  1  0
  8 37  1  0
  8 38  1  0
  9 39  1  0
  9 40  1  0
 10 41  1  0
 10 42  1  0
 11 43  1  6
 13 44  1  0
 14 45  1  0
 17 46  1  0
 18 47  1  0
 19 48  1  0
 20 49  1  0
 21 50  1  0
 24 51  1  0
 25 52  1  0
 27 53  1  0
 30 54  1  0
 31 55  1  0
M  END
>  <smiles>  (20) 
O=C(NCC(=O)N1CCC[C@H]1c1c[nH]c(-c2ccccc2)n1)c1ccc2cc(F)ccc2n1

>  <score_type>  (20) 
oracle

>  <origin>  (20) 
autodockgpu

>  <m_score__min__energy>  (20) 
-9.4700000000000006

>  <m_primary>  (20) 
energy

>  <rmsd>  (20) 
6.880800058547138

>  <m_score__min__rmsd>  (20) 
6.880800058547138

>  <meeko>  (20) 
{"free_energy": -6.75, "intermolecular_energy": -8.54, "internal_energy": -3.98, "cluster_size": 20, "cluster_id": 7, "rank_in_cluster": 19}

>  <energy>  (20) 
-7.22

>  <cluster_rmsd>  (20) 
0.57

>  <cluster>  (20) 
7

$$$$

     RDKit          3D

 55 59  0  0  0  0  0  0  0  0999 V2000
  139.3630   74.7710  222.2430 O   0  0  0  0  0  0  0  0  0  0  0  0
  140.5180   75.0660  221.8450 C   0  0  0  0  0  0  0  0  0  0  0  0
  140.8680   76.4750  221.8860 N   0  0  0  0  0  0  0  0  0  0  0  0
  139.8880   77.3720  222.3640 C   0  0  0  0  0  0  0  0  0  0  0  0
  139.8870   78.7650  221.9300 C   0  0  0  0  0  0  0  0  0  0  0  0
  138.9630   79.0370  221.0600 O   0  0  0  0  0  0  0  0  0  0  0  0
  140.7010   79.8390  222.2920 N   0  0  0  0  0  0  0  0  0  0  0  0
  140.8420   80.5790  223.5590 C   0  0  0  0  0  0  0  0  0  0  0  0
  142.3350   80.4970  223.7460 C   0  0  0  0  0  0  0  0  0  0  0  0
  142.9160   80.5180  222.3610 C   0  0  0  0  0  0  0  0  0  0  0  0
  141.6960   80.5010  221.4510 C   0  0  1  0  0  0  0  0  0  0  0  0
  142.0430   79.7640  220.2180 C   0  0  0  0  0  0  0  0  0  0  0  0
  142.4410   80.2040  218.9780 C   0  0  0  0  0  0  0  0  0  0  0  0
  142.6430   79.1350  218.1770 N   0  0  0  0  0  0  0  0  0  0  0  0
  142.3770   78.0250  218.8960 C   0  0  0  0  0  0  0  0  0  0  0  0
  142.4850   76.6730  218.3590 C   0  0  0  0  0  0  0  0  0  0  0  0
  143.6810   76.2950  217.7810 C   0  0  0  0  0  0  0  0  0  0  0  0
  143.7590   75.0080  217.2790 C   0  0  0  0  0  0  0  0  0  0  0  0
  142.6790   74.1230  217.3510 C   0  0  0  0  0  0  0  0  0  0  0  0
  141.4800   74.5310  217.9420 C   0  0  0  0  0  0  0  0  0  0  0  0
  141.4100   75.8160  218.4400 C   0  0  0  0  0  0  0  0  0  0  0  0
  142.0160   78.4190  220.1260 N   0  0  0  0  0  0  0  0  0  0  0  0
  141.4850   74.0980  221.3630 C   0  0  0  0  0  0  0  0  0  0  0  0
  141.0850   72.8030  221.1810 C   0  0  0  0  0  0  0  0  0  0  0  0
  141.9970   71.8790  220.7230 C   0  0  0  0  0  0  0  0  0  0  0  0
  143.2910   72.2570  220.4540 C   0  0  0  0  0  0  0  0  0  0  0  0
  144.2340   71.3620  219.9940 C   0  0  0  0  0  0  0  0  0  0  0  0
  145.5230   71.8280  219.7460 C   0  0  0  0  0  0  0  0  0  0  0  0
  146.4960   70.9900  219.2920 F   0  0  0  0  0  0  0  0  0  0  0  0
  145.8590   73.1510  219.9520 C   0  0  0  0  0  0  0  0  0  0  0  0
  144.9210   74.0390  220.4090 C   0  0  0  0  0  0  0  0  0  0  0  0
  143.6330   73.5760  220.6570 C   0  0  0  0  0  0  0  0  0  0  0  0
  142.7520   74.4890  221.1040 N   0  0  0  0  0  0  0  0  0  0  0  0
  141.8180   76.7630  221.5640 H   0  0  0  0  0  0  0  0  0  0  0  0
  138.9113   76.9526  222.0808 H   0  0  0  0  0  0  0  0  0  0  0  0
  140.1214   77.4463  223.4364 H   0  0  0  0  0  0  0  0  0  0  0  0
  140.4992   81.6199  223.4640 H   0  0  0  0  0  0  0  0  0  0  0  0
  140.2481   80.1822  224.3956 H   0  0  0  0  0  0  0  0  0  0  0  0
  142.6972   81.3575  224.3277 H   0  0  0  0  0  0  0  0  0  0  0  0
  142.6276   79.5910  224.2970 H   0  0  0  0  0  0  0  0  0  0  0  0
  143.5113   81.4289  222.2002 H   0  0  0  0  0  0  0  0  0  0  0  0
  143.5962   79.6740  222.1738 H   0  0  0  0  0  0  0  0  0  0  0  0
  141.3275   81.4760  221.0996 H   0  0  0  0  0  0  0  0  0  0  0  0
  142.5735   81.2560  218.6853 H   0  0  0  0  0  0  0  0  0  0  0  0
  142.9510   79.2370  217.1860 H   0  0  0  0  0  0  0  0  0  0  0  0
  144.5342   76.9868  217.7223 H   0  0  0  0  0  0  0  0  0  0  0  0
  144.6959   74.6721  216.8107 H   0  0  0  0  0  0  0  0  0  0  0  0
  142.7729   73.1059  216.9426 H   0  0  0  0  0  0  0  0  0  0  0  0
  140.6193   73.8493  218.0081 H   0  0  0  0  0  0  0  0  0  0  0  0
  140.4780   76.1624  218.9106 H   0  0  0  0  0  0  0  0  0  0  0  0
  140.0489   72.5038  221.3976 H   0  0  0  0  0  0  0  0  0  0  0  0
  141.6890   70.8339  220.5717 H   0  0  0  0  0  0  0  0  0  0  0  0
  143.9746   70.3061  219.8271 H   0  0  0  0  0  0  0  0  0  0  0  0
  146.8842   73.4938  219.7484 H   0  0  0  0  0  0  0  0  0  0  0  0
  145.1808   75.0948  220.5761 H   0  0  0  0  0  0  0  0  0  0  0  0
  1  2  2  0
  2  3  1  0
  3  4  1  0
  4  5  1  0
  5  6  2  0
  5  7  1  0
  7  8  1  0
  8  9  1  0
  9 10  1  0
 10 11  1  0
 11 12  1  0
 12 13  2  0
 13 14  1  0
 14 15  1  0
 15 16  1  0
 16 17  2  0
 17 18  1  0
 18 19  2  0
 19 20  1  0
 20 21  2  0
 15 22  2  0
  2 23  1  0
 23 24  2  0
 24 25  1  0
 25 26  2  0
 26 27  1  0
 27 28  2  0
 28 29  1  0
 28 30  1  0
 30 31  2  0
 31 32  1  0
 32 33  2  0
 11  7  1  0
 22 12  1  0
 33 23  1  0
 21 16  1  0
 32 26  1  0
  3 34  1  0
  4 35  1  0
  4 36  1  0
  8 37  1  0
  8 38  1  0
  9 39  1  0
  9 40  1  0
 10 41  1  0
 10 42  1  0
 11 43  1  6
 13 44  1  0
 14 45  1  0
 17 46  1  0
 18 47  1  0
 19 48  1  0
 20 49  1  0
 21 50  1  0
 24 51  1  0
 25 52  1  0
 27 53  1  0
 30 54  1  0
 31 55  1  0
M  END
>  <smiles>  (21) 
O=C(NCC(=O)N1CCC[C@H]1c1c[nH]c(-c2ccccc2)n1)c1ccc2cc(F)ccc2n1

>  <score_type>  (21) 
oracle

>  <origin>  (21) 
autodockgpu

>  <m_score__min__energy>  (21) 
-9.4700000000000006

>  <m_primary>  (21) 
energy

>  <rmsd>  (21) 
6.974472466174249

>  <m_score__min__rmsd>  (21) 
6.974472466174249

>  <meeko>  (21) 
{"free_energy": -7.22, "intermolecular_energy": -9.01, "internal_energy": -3.93, "cluster_size": 20, "cluster_id": 7, "rank_in_cluster": 5}

>  <energy>  (21) 
-7.21

>  <cluster_rmsd>  (21) 
0.57

>  <cluster>  (21) 
7

$$$$

     RDKit          3D

 55 59  0  0  0  0  0  0  0  0999 V2000
  139.5380   74.4930  222.1330 O   0  0  0  0  0  0  0  0  0  0  0  0
  140.6810   74.8000  221.7070 C   0  0  0  0  0  0  0  0  0  0  0  0
  141.0120   76.2130  221.7270 N   0  0  0  0  0  0  0  0  0  0  0  0
  140.0310   77.1020  222.2180 C   0  0  0  0  0  0  0  0  0  0  0  0
  139.9530   78.4680  221.7130 C   0  0  0  0  0  0  0  0  0  0  0  0
  139.1930   78.5920  220.6670 O   0  0  0  0  0  0  0  0  0  0  0  0
  140.5470   79.6480  222.1610 N   0  0  0  0  0  0  0  0  0  0  0  0
  140.5450   80.3070  223.4800 C   0  0  0  0  0  0  0  0  0  0  0  0
  142.0270   80.4960  223.6820 C   0  0  0  0  0  0  0  0  0  0  0  0
  142.5930   80.7270  222.3100 C   0  0  0  0  0  0  0  0  0  0  0  0
  141.3990   80.5450  221.3840 C   0  0  1  0  0  0  0  0  0  0  0  0
  141.8790   79.9790  220.1070 C   0  0  0  0  0  0  0  0  0  0  0  0
  142.2570   80.5820  218.9300 C   0  0  0  0  0  0  0  0  0  0  0  0
  142.6230   79.6280  218.0460 N   0  0  0  0  0  0  0  0  0  0  0  0
  142.4810   78.4300  218.6500 C   0  0  0  0  0  0  0  0  0  0  0  0
  142.7840   77.1600  217.9990 C   0  0  0  0  0  0  0  0  0  0  0  0
  142.4530   75.9930  218.6590 C   0  0  0  0  0  0  0  0  0  0  0  0
  142.7500   74.8020  218.0210 C   0  0  0  0  0  0  0  0  0  0  0  0
  143.3580   74.7730  216.7630 C   0  0  0  0  0  0  0  0  0  0  0  0
  143.6820   75.9690  216.1150 C   0  0  0  0  0  0  0  0  0  0  0  0
  143.3830   77.1530  216.7590 C   0  0  0  0  0  0  0  0  0  0  0  0
  142.0320   78.6560  219.8930 N   0  0  0  0  0  0  0  0  0  0  0  0
  141.6500   73.8390  221.2130 C   0  0  0  0  0  0  0  0  0  0  0  0
  141.2240   72.5780  220.8970 C   0  0  0  0  0  0  0  0  0  0  0  0
  142.1380   71.6620  220.4270 C   0  0  0  0  0  0  0  0  0  0  0  0
  143.4590   72.0140  220.2790 C   0  0  0  0  0  0  0  0  0  0  0  0
  144.4050   71.1260  219.8110 C   0  0  0  0  0  0  0  0  0  0  0  0
  145.7220   71.5650  219.6900 C   0  0  0  0  0  0  0  0  0  0  0  0
  146.6990   70.7320  219.2350 F   0  0  0  0  0  0  0  0  0  0  0  0
  146.0820   72.8540  220.0270 C   0  0  0  0  0  0  0  0  0  0  0  0
  145.1400   73.7350  220.4920 C   0  0  0  0  0  0  0  0  0  0  0  0
  143.8250   73.2990  220.6130 C   0  0  0  0  0  0  0  0  0  0  0  0
  142.9430   74.2040  221.0730 N   0  0  0  0  0  0  0  0  0  0  0  0
  141.9510   76.5100  221.3810 H   0  0  0  0  0  0  0  0  0  0  0  0
  139.0548   76.6358  222.0189 H   0  0  0  0  0  0  0  0  0  0  0  0
  140.3265   77.2422  223.2682 H   0  0  0  0  0  0  0  0  0  0  0  0
  140.0108   81.2682  223.4550 H   0  0  0  0  0  0  0  0  0  0  0  0
  140.0372   79.7447  224.2775 H   0  0  0  0  0  0  0  0  0  0  0  0
  142.2191   81.3651  224.3284 H   0  0  0  0  0  0  0  0  0  0  0  0
  142.4864   79.6246  224.1715 H   0  0  0  0  0  0  0  0  0  0  0  0
  143.0042   81.7435  222.2227 H   0  0  0  0  0  0  0  0  0  0  0  0
  143.4210   80.0428  222.0728 H   0  0  0  0  0  0  0  0  0  0  0  0
  140.8527   81.4559  221.0979 H   0  0  0  0  0  0  0  0  0  0  0  0
  142.2607   81.6653  218.7393 H   0  0  0  0  0  0  0  0  0  0  0  0
  142.9470   79.8620  217.0830 H   0  0  0  0  0  0  0  0  0  0  0  0
  141.9740   76.0097  219.6491 H   0  0  0  0  0  0  0  0  0  0  0  0
  142.5009   73.8524  218.5171 H   0  0  0  0  0  0  0  0  0  0  0  0
  143.5817   73.8091  216.2825 H   0  0  0  0  0  0  0  0  0  0  0  0
  144.1597   75.9666  215.1241 H   0  0  0  0  0  0  0  0  0  0  0  0
  143.6278   78.1087  216.2725 H   0  0  0  0  0  0  0  0  0  0  0  0
  140.1665   72.3000  221.0167 H   0  0  0  0  0  0  0  0  0  0  0  0
  141.8102   70.6442  220.1688 H   0  0  0  0  0  0  0  0  0  0  0  0
  144.1267   70.0969  219.5400 H   0  0  0  0  0  0  0  0  0  0  0  0
  147.1286   73.1758  219.9221 H   0  0  0  0  0  0  0  0  0  0  0  0
  145.4182   74.7640  220.7634 H   0  0  0  0  0  0  0  0  0  0  0  0
  1  2  2  0
  2  3  1  0
  3  4  1  0
  4  5  1  0
  5  6  2  0
  5  7  1  0
  7  8  1  0
  8  9  1  0
  9 10  1  0
 10 11  1  0
 11 12  1  0
 12 13  2  0
 13 14  1  0
 14 15  1  0
 15 16  1  0
 16 17  2  0
 17 18  1  0
 18 19  2  0
 19 20  1  0
 20 21  2  0
 15 22  2  0
  2 23  1  0
 23 24  2  0
 24 25  1  0
 25 26  2  0
 26 27  1  0
 27 28  2  0
 28 29  1  0
 28 30  1  0
 30 31  2  0
 31 32  1  0
 32 33  2  0
 11  7  1  0
 22 12  1  0
 33 23  1  0
 21 16  1  0
 32 26  1  0
  3 34  1  0
  4 35  1  0
  4 36  1  0
  8 37  1  0
  8 38  1  0
  9 39  1  0
  9 40  1  0
 10 41  1  0
 10 42  1  0
 11 43  1  6
 13 44  1  0
 14 45  1  0
 17 46  1  0
 18 47  1  0
 19 48  1  0
 20 49  1  0
 21 50  1  0
 24 51  1  0
 25 52  1  0
 27 53  1  0
 30 54  1  0
 31 55  1  0
M  END
>  <smiles>  (22) 
O=C(NCC(=O)N1CCC[C@H]1c1c[nH]c(-c2ccccc2)n1)c1ccc2cc(F)ccc2n1

>  <score_type>  (22) 
oracle

>  <origin>  (22) 
autodockgpu

>  <m_score__min__energy>  (22) 
-9.4700000000000006

>  <m_primary>  (22) 
energy

>  <rmsd>  (22) 
6.8495628746853425

>  <m_score__min__rmsd>  (22) 
6.8495628746853425

>  <meeko>  (22) 
{"free_energy": -7.77, "intermolecular_energy": -9.56, "internal_energy": -2.87, "cluster_size": 20, "cluster_id": 7, "rank_in_cluster": 1}

>  <energy>  (22) 
-7.21

>  <cluster_rmsd>  (22) 
0.56

>  <cluster>  (22) 
7

$$$$

     RDKit          3D

 55 59  0  0  0  0  0  0  0  0999 V2000
  139.3400   74.8290  222.3110 O   0  0  0  0  0  0  0  0  0  0  0  0
  140.4900   75.1070  221.8860 C   0  0  0  0  0  0  0  0  0  0  0  0
  140.8570   76.5120  221.9060 N   0  0  0  0  0  0  0  0  0  0  0  0
  139.8980   77.4250  222.3950 C   0  0  0  0  0  0  0  0  0  0  0  0
  139.9070   78.8140  221.9510 C   0  0  0  0  0  0  0  0  0  0  0  0
  138.9880   79.0860  221.0750 O   0  0  0  0  0  0  0  0  0  0  0  0
  140.7260   79.8860  222.3070 N   0  0  0  0  0  0  0  0  0  0  0  0
  140.8700   80.6320  223.5710 C   0  0  0  0  0  0  0  0  0  0  0  0
  142.3620   80.5440  223.7600 C   0  0  0  0  0  0  0  0  0  0  0  0
  142.9440   80.5540  222.3750 C   0  0  0  0  0  0  0  0  0  0  0  0
  141.7250   80.5380  221.4640 C   0  0  1  0  0  0  0  0  0  0  0  0
  142.0690   79.7930  220.2350 C   0  0  0  0  0  0  0  0  0  0  0  0
  142.5010   80.2230  219.0030 C   0  0  0  0  0  0  0  0  0  0  0  0
  142.6830   79.1490  218.2030 N   0  0  0  0  0  0  0  0  0  0  0  0
  142.3720   78.0470  218.9160 C   0  0  0  0  0  0  0  0  0  0  0  0
  142.4480   76.6920  218.3780 C   0  0  0  0  0  0  0  0  0  0  0  0
  143.6320   76.2890  217.7930 C   0  0  0  0  0  0  0  0  0  0  0  0
  143.6800   75.0010  217.2900 C   0  0  0  0  0  0  0  0  0  0  0  0
  142.5820   74.1400  217.3690 C   0  0  0  0  0  0  0  0  0  0  0  0
  141.3950   74.5730  217.9670 C   0  0  0  0  0  0  0  0  0  0  0  0
  141.3550   75.8590  218.4650 C   0  0  0  0  0  0  0  0  0  0  0  0
  142.0030   78.4500  220.1410 N   0  0  0  0  0  0  0  0  0  0  0  0
  141.4360   74.1220  221.3930 C   0  0  0  0  0  0  0  0  0  0  0  0
  141.0150   72.8310  221.2290 C   0  0  0  0  0  0  0  0  0  0  0  0
  141.9060   71.8920  220.7610 C   0  0  0  0  0  0  0  0  0  0  0  0
  143.2010   72.2510  220.4660 C   0  0  0  0  0  0  0  0  0  0  0  0
  144.1230   71.3410  219.9950 C   0  0  0  0  0  0  0  0  0  0  0  0
  145.4130   71.7880  219.7200 C   0  0  0  0  0  0  0  0  0  0  0  0
  146.3670   70.9340  219.2530 F   0  0  0  0  0  0  0  0  0  0  0  0
  145.7700   73.1080  219.9090 C   0  0  0  0  0  0  0  0  0  0  0  0
  144.8510   74.0120  220.3760 C   0  0  0  0  0  0  0  0  0  0  0  0
  143.5630   73.5670  220.6520 C   0  0  0  0  0  0  0  0  0  0  0  0
  142.7020   74.4950  221.1080 N   0  0  0  0  0  0  0  0  0  0  0  0
  141.8040   76.7850  221.5600 H   0  0  0  0  0  0  0  0  0  0  0  0
  138.9109   77.0164  222.1329 H   0  0  0  0  0  0  0  0  0  0  0  0
  140.1522   77.5040  223.4623 H   0  0  0  0  0  0  0  0  0  0  0  0
  140.5323   81.6740  223.4705 H   0  0  0  0  0  0  0  0  0  0  0  0
  140.2736   80.2420  224.4090 H   0  0  0  0  0  0  0  0  0  0  0  0
  142.7278   81.4062  224.3368 H   0  0  0  0  0  0  0  0  0  0  0  0
  142.6499   79.6401  224.3168 H   0  0  0  0  0  0  0  0  0  0  0  0
  143.5441   81.4609  222.2095 H   0  0  0  0  0  0  0  0  0  0  0  0
  143.6198   79.7053  222.1933 H   0  0  0  0  0  0  0  0  0  0  0  0
  141.3621   81.5131  221.1071 H   0  0  0  0  0  0  0  0  0  0  0  0
  142.6710   81.2709  218.7150 H   0  0  0  0  0  0  0  0  0  0  0  0
  143.0090   79.2430  217.2180 H   0  0  0  0  0  0  0  0  0  0  0  0
  144.4993   76.9626  217.7296 H   0  0  0  0  0  0  0  0  0  0  0  0
  144.6065   74.6454  216.8155 H   0  0  0  0  0  0  0  0  0  0  0  0
  142.6519   73.1211  216.9604 H   0  0  0  0  0  0  0  0  0  0  0  0
  140.5206   73.9094  218.0382 H   0  0  0  0  0  0  0  0  0  0  0  0
  140.4332   76.2256  218.9402 H   0  0  0  0  0  0  0  0  0  0  0  0
  139.9794   72.5473  221.4677 H   0  0  0  0  0  0  0  0  0  0  0  0
  141.5813   70.8502  220.6223 H   0  0  0  0  0  0  0  0  0  0  0  0
  143.8467   70.2876  219.8401 H   0  0  0  0  0  0  0  0  0  0  0  0
  146.7956   73.4358  219.6841 H   0  0  0  0  0  0  0  0  0  0  0  0
  145.1266   75.0659  220.5289 H   0  0  0  0  0  0  0  0  0  0  0  0
  1  2  2  0
  2  3  1  0
  3  4  1  0
  4  5  1  0
  5  6  2  0
  5  7  1  0
  7  8  1  0
  8  9  1  0
  9 10  1  0
 10 11  1  0
 11 12  1  0
 12 13  2  0
 13 14  1  0
 14 15  1  0
 15 16  1  0
 16 17  2  0
 17 18  1  0
 18 19  2  0
 19 20  1  0
 20 21  2  0
 15 22  2  0
  2 23  1  0
 23 24  2  0
 24 25  1  0
 25 26  2  0
 26 27  1  0
 27 28  2  0
 28 29  1  0
 28 30  1  0
 30 31  2  0
 31 32  1  0
 32 33  2  0
 11  7  1  0
 22 12  1  0
 33 23  1  0
 21 16  1  0
 32 26  1  0
  3 34  1  0
  4 35  1  0
  4 36  1  0
  8 37  1  0
  8 38  1  0
  9 39  1  0
  9 40  1  0
 10 41  1  0
 10 42  1  0
 11 43  1  6
 13 44  1  0
 14 45  1  0
 17 46  1  0
 18 47  1  0
 19 48  1  0
 20 49  1  0
 21 50  1  0
 24 51  1  0
 25 52  1  0
 27 53  1  0
 30 54  1  0
 31 55  1  0
M  END
>  <smiles>  (23) 
O=C(NCC(=O)N1CCC[C@H]1c1c[nH]c(-c2ccccc2)n1)c1ccc2cc(F)ccc2n1

>  <score_type>  (23) 
oracle

>  <origin>  (23) 
autodockgpu

>  <m_score__min__energy>  (23) 
-9.4700000000000006

>  <m_primary>  (23) 
energy

>  <rmsd>  (23) 
6.966572858885722

>  <m_score__min__rmsd>  (23) 
6.966572858885722

>  <meeko>  (23) 
{"free_energy": -7.22, "intermolecular_energy": -9.01, "internal_energy": -3.91, "cluster_size": 20, "cluster_id": 7, "rank_in_cluster": 6}

>  <energy>  (23) 
-7.21

>  <cluster_rmsd>  (23) 
0.58

>  <cluster>  (23) 
7

$$$$

     RDKit          3D

 55 59  0  0  0  0  0  0  0  0999 V2000
  139.2850   74.8220  222.0370 O   0  0  0  0  0  0  0  0  0  0  0  0
  140.4700   75.1130  221.7320 C   0  0  0  0  0  0  0  0  0  0  0  0
  140.8320   76.5150  221.8360 N   0  0  0  0  0  0  0  0  0  0  0  0
  139.8290   77.4120  222.2640 C   0  0  0  0  0  0  0  0  0  0  0  0
  139.8710   78.8140  221.8600 C   0  0  0  0  0  0  0  0  0  0  0  0
  138.9630   79.1300  220.9870 O   0  0  0  0  0  0  0  0  0  0  0  0
  140.7100   79.8570  222.2520 N   0  0  0  0  0  0  0  0  0  0  0  0
  140.8510   80.5730  223.5340 C   0  0  0  0  0  0  0  0  0  0  0  0
  142.3380   80.4430  223.7450 C   0  0  0  0  0  0  0  0  0  0  0  0
  142.9430   80.4660  222.3700 C   0  0  0  0  0  0  0  0  0  0  0  0
  141.7390   80.5000  221.4390 C   0  0  1  0  0  0  0  0  0  0  0  0
  142.0860   79.7720  220.2010 C   0  0  0  0  0  0  0  0  0  0  0  0
  142.5160   80.2190  218.9740 C   0  0  0  0  0  0  0  0  0  0  0  0
  142.7010   79.1560  218.1600 N   0  0  0  0  0  0  0  0  0  0  0  0
  142.3920   78.0440  218.8590 C   0  0  0  0  0  0  0  0  0  0  0  0
  142.4720   76.6970  218.3030 C   0  0  0  0  0  0  0  0  0  0  0  0
  141.3560   75.8890  218.3900 C   0  0  0  0  0  0  0  0  0  0  0  0
  141.4560   74.6160  217.8560 C   0  0  0  0  0  0  0  0  0  0  0  0
  142.6330   74.1620  217.2530 C   0  0  0  0  0  0  0  0  0  0  0  0
  143.7490   75.0010  217.1780 C   0  0  0  0  0  0  0  0  0  0  0  0
  143.6400   76.2680  217.7130 C   0  0  0  0  0  0  0  0  0  0  0  0
  142.0230   78.4300  220.0890 N   0  0  0  0  0  0  0  0  0  0  0  0
  141.4590   74.1440  221.2970 C   0  0  0  0  0  0  0  0  0  0  0  0
  141.0930   72.8300  221.1960 C   0  0  0  0  0  0  0  0  0  0  0  0
  142.0260   71.9060  220.7840 C   0  0  0  0  0  0  0  0  0  0  0  0
  143.3070   72.3020  220.4790 C   0  0  0  0  0  0  0  0  0  0  0  0
  144.2700   71.4080  220.0620 C   0  0  0  0  0  0  0  0  0  0  0  0
  145.5440   71.8940  219.7730 C   0  0  0  0  0  0  0  0  0  0  0  0
  146.5350   71.0570  219.3570 F   0  0  0  0  0  0  0  0  0  0  0  0
  145.8440   73.2350  219.8960 C   0  0  0  0  0  0  0  0  0  0  0  0
  144.8850   74.1230  220.3100 C   0  0  0  0  0  0  0  0  0  0  0  0
  143.6140   73.6400  220.6000 C   0  0  0  0  0  0  0  0  0  0  0  0
  142.7120   74.5530  221.0020 N   0  0  0  0  0  0  0  0  0  0  0  0
  141.8060   76.7980  221.5920 H   0  0  0  0  0  0  0  0  0  0  0  0
  138.8706   77.0086  221.9051 H   0  0  0  0  0  0  0  0  0  0  0  0
  139.9875   77.4618  223.3514 H   0  0  0  0  0  0  0  0  0  0  0  0
  140.5411   81.6251  223.4501 H   0  0  0  0  0  0  0  0  0  0  0  0
  140.2310   80.1812  224.3538 H   0  0  0  0  0  0  0  0  0  0  0  0
  142.7159   81.2838  224.3452 H   0  0  0  0  0  0  0  0  0  0  0  0
  142.5937   79.5209  224.2876 H   0  0  0  0  0  0  0  0  0  0  0  0
  143.5687   81.3603  222.2329 H   0  0  0  0  0  0  0  0  0  0  0  0
  143.5998   79.6039  222.1817 H   0  0  0  0  0  0  0  0  0  0  0  0
  141.4058   81.4908  221.0964 H   0  0  0  0  0  0  0  0  0  0  0  0
  142.6825   81.2711  218.6993 H   0  0  0  0  0  0  0  0  0  0  0  0
  143.0270   79.2640  217.1760 H   0  0  0  0  0  0  0  0  0  0  0  0
  140.4277   76.2416  218.8632 H   0  0  0  0  0  0  0  0  0  0  0  0
  140.5868   73.9438  217.9073 H   0  0  0  0  0  0  0  0  0  0  0  0
  142.6810   73.1446  216.8376 H   0  0  0  0  0  0  0  0  0  0  0  0
  144.6837   74.6618  216.7076 H   0  0  0  0  0  0  0  0  0  0  0  0
  144.5029   76.9487  217.6674 H   0  0  0  0  0  0  0  0  0  0  0  0
  140.0675   72.5162  221.4406 H   0  0  0  0  0  0  0  0  0  0  0  0
  141.7457   70.8458  220.6983 H   0  0  0  0  0  0  0  0  0  0  0  0
  144.0387   70.3375  219.9598 H   0  0  0  0  0  0  0  0  0  0  0  0
  146.8571   73.5933  219.6609 H   0  0  0  0  0  0  0  0  0  0  0  0
  145.1160   75.1938  220.4105 H   0  0  0  0  0  0  0  0  0  0  0  0
  1  2  2  0
  2  3  1  0
  3  4  1  0
  4  5  1  0
  5  6  2  0
  5  7  1  0
  7  8  1  0
  8  9  1  0
  9 10  1  0
 10 11  1  0
 11 12  1  0
 12 13  2  0
 13 14  1  0
 14 15  1  0
 15 16  1  0
 16 17  2  0
 17 18  1  0
 18 19  2  0
 19 20  1  0
 20 21  2  0
 15 22  2  0
  2 23  1  0
 23 24  2  0
 24 25  1  0
 25 26  2  0
 26 27  1  0
 27 28  2  0
 28 29  1  0
 28 30  1  0
 30 31  2  0
 31 32  1  0
 32 33  2  0
 11  7  1  0
 22 12  1  0
 33 23  1  0
 21 16  1  0
 32 26  1  0
  3 34  1  0
  4 35  1  0
  4 36  1  0
  8 37  1  0
  8 38  1  0
  9 39  1  0
  9 40  1  0
 10 41  1  0
 10 42  1  0
 11 43  1  6
 13 44  1  0
 14 45  1  0
 17 46  1  0
 18 47  1  0
 19 48  1  0
 20 49  1  0
 21 50  1  0
 24 51  1  0
 25 52  1  0
 27 53  1  0
 30 54  1  0
 31 55  1  0
M  END
>  <smiles>  (24) 
O=C(NCC(=O)N1CCC[C@H]1c1c[nH]c(-c2ccccc2)n1)c1ccc2cc(F)ccc2n1

>  <score_type>  (24) 
oracle

>  <origin>  (24) 
autodockgpu

>  <m_score__min__energy>  (24) 
-9.4700000000000006

>  <m_primary>  (24) 
energy

>  <rmsd>  (24) 
6.907642502693845

>  <m_score__min__rmsd>  (24) 
6.907642502693845

>  <meeko>  (24) 
{"free_energy": -7.24, "intermolecular_energy": -9.03, "internal_energy": -3.92, "cluster_size": 20, "cluster_id": 7, "rank_in_cluster": 4}

>  <energy>  (24) 
-7.21

>  <cluster_rmsd>  (24) 
0.58

>  <cluster>  (24) 
7

$$$$

     RDKit          3D

 55 59  0  0  0  0  0  0  0  0999 V2000
  140.9630   72.0870  221.6440 O   0  0  0  0  0  0  0  0  0  0  0  0
  140.0570   72.0590  222.5150 C   0  0  0  0  0  0  0  0  0  0  0  0
  138.9710   73.0070  222.3390 N   0  0  0  0  0  0  0  0  0  0  0  0
  139.0340   73.8620  221.2170 C   0  0  0  0  0  0  0  0  0  0  0  0
  139.4060   75.2630  221.3760 C   0  0  0  0  0  0  0  0  0  0  0  0
  140.2270   75.4740  222.3590 O   0  0  0  0  0  0  0  0  0  0  0  0
  139.0340   76.3990  220.6560 N   0  0  0  0  0  0  0  0  0  0  0  0
  137.7950   77.1980  220.6560 C   0  0  0  0  0  0  0  0  0  0  0  0
  138.3700   78.5750  220.8710 C   0  0  0  0  0  0  0  0  0  0  0  0
  139.7030   78.5670  220.1800 C   0  0  0  0  0  0  0  0  0  0  0  0
  139.8580   77.1310  219.6970 C   0  0  1  0  0  0  0  0  0  0  0  0
  141.2920   76.7800  219.7270 C   0  0  0  0  0  0  0  0  0  0  0  0
  142.4210   77.5630  219.6790 C   0  0  0  0  0  0  0  0  0  0  0  0
  143.5110   76.7670  219.7400 N   0  0  0  0  0  0  0  0  0  0  0  0
  143.0840   75.4900  219.8250 C   0  0  0  0  0  0  0  0  0  0  0  0
  143.9840   74.3440  219.9080 C   0  0  0  0  0  0  0  0  0  0  0  0
  143.6700   73.2140  219.1800 C   0  0  0  0  0  0  0  0  0  0  0  0
  144.5380   72.1410  219.2750 C   0  0  0  0  0  0  0  0  0  0  0  0
  145.6860   72.1930  220.0710 C   0  0  0  0  0  0  0  0  0  0  0  0
  145.9810   73.3490  220.7990 C   0  0  0  0  0  0  0  0  0  0  0  0
  145.1100   74.4150  220.6980 C   0  0  0  0  0  0  0  0  0  0  0  0
  141.7430   75.5120  219.8170 N   0  0  0  0  0  0  0  0  0  0  0  0
  140.0460   71.1560  223.6510 C   0  0  0  0  0  0  0  0  0  0  0  0
  139.5400   69.8960  223.4840 C   0  0  0  0  0  0  0  0  0  0  0  0
  139.5270   69.0330  224.5570 C   0  0  0  0  0  0  0  0  0  0  0  0
  140.0170   69.4360  225.7770 C   0  0  0  0  0  0  0  0  0  0  0  0
  140.0230   68.6020  226.8750 C   0  0  0  0  0  0  0  0  0  0  0  0
  140.5390   69.0900  228.0740 C   0  0  0  0  0  0  0  0  0  0  0  0
  140.5690   68.3120  229.1910 F   0  0  0  0  0  0  0  0  0  0  0  0
  141.0350   70.3740  228.1710 C   0  0  0  0  0  0  0  0  0  0  0  0
  141.0290   71.2020  227.0780 C   0  0  0  0  0  0  0  0  0  0  0  0
  140.5140   70.7170  225.8800 C   0  0  0  0  0  0  0  0  0  0  0  0
  140.5330   71.5700  224.8410 N   0  0  0  0  0  0  0  0  0  0  0  0
  138.1990   73.0170  223.0410 H   0  0  0  0  0  0  0  0  0  0  0  0
  139.7634   73.4187  220.5231 H   0  0  0  0  0  0  0  0  0  0  0  0
  137.9854   73.9193  220.8895 H   0  0  0  0  0  0  0  0  0  0  0  0
  137.2616   77.1238  219.6968 H   0  0  0  0  0  0  0  0  0  0  0  0
  137.0448   76.8886  221.3986 H   0  0  0  0  0  0  0  0  0  0  0  0
  137.7130   79.3389  220.4296 H   0  0  0  0  0  0  0  0  0  0  0  0
  138.4668   78.8138  221.9404 H   0  0  0  0  0  0  0  0  0  0  0  0
  139.7082   79.2676  219.3320 H   0  0  0  0  0  0  0  0  0  0  0  0
  140.5243   78.8831  220.8400 H   0  0  0  0  0  0  0  0  0  0  0  0
  139.5410   76.9190  218.6652 H   0  0  0  0  0  0  0  0  0  0  0  0
  142.4347   78.6603  219.6032 H   0  0  0  0  0  0  0  0  0  0  0  0
  144.4790   77.1520  219.7180 H   0  0  0  0  0  0  0  0  0  0  0  0
  142.7684   73.1687  218.5514 H   0  0  0  0  0  0  0  0  0  0  0  0
  144.3192   71.2232  218.7096 H   0  0  0  0  0  0  0  0  0  0  0  0
  146.3576   71.3235  220.1244 H   0  0  0  0  0  0  0  0  0  0  0  0
  146.8786   73.4074  221.4322 H   0  0  0  0  0  0  0  0  0  0  0  0
  145.3190   75.3380  221.2586 H   0  0  0  0  0  0  0  0  0  0  0  0
  139.1491   69.5768  222.5066 H   0  0  0  0  0  0  0  0  0  0  0  0
  139.1229   68.0169  224.4377 H   0  0  0  0  0  0  0  0  0  0  0  0
  139.6302   67.5768  226.8062 H   0  0  0  0  0  0  0  0  0  0  0  0
  141.4369   70.7349  229.1292 H   0  0  0  0  0  0  0  0  0  0  0  0
  141.4226   72.2269  227.1469 H   0  0  0  0  0  0  0  0  0  0  0  0
  1  2  2  0
  2  3  1  0
  3  4  1  0
  4  5  1  0
  5  6  2  0
  5  7  1  0
  7  8  1  0
  8  9  1  0
  9 10  1  0
 10 11  1  0
 11 12  1  0
 12 13  2  0
 13 14  1  0
 14 15  1  0
 15 16  1  0
 16 17  2  0
 17 18  1  0
 18 19  2  0
 19 20  1  0
 20 21  2  0
 15 22  2  0
  2 23  1  0
 23 24  2  0
 24 25  1  0
 25 26  2  0
 26 27  1  0
 27 28  2  0
 28 29  1  0
 28 30  1  0
 30 31  2  0
 31 32  1  0
 32 33  2  0
 11  7  1  0
 22 12  1  0
 33 23  1  0
 21 16  1  0
 32 26  1  0
  3 34  1  0
  4 35  1  0
  4 36  1  0
  8 37  1  0
  8 38  1  0
  9 39  1  0
  9 40  1  0
 10 41  1  0
 10 42  1  0
 11 43  1  6
 13 44  1  0
 14 45  1  0
 17 46  1  0
 18 47  1  0
 19 48  1  0
 20 49  1  0
 21 50  1  0
 24 51  1  0
 25 52  1  0
 27 53  1  0
 30 54  1  0
 31 55  1  0
M  END
>  <smiles>  (25) 
O=C(NCC(=O)N1CCC[C@H]1c1c[nH]c(-c2ccccc2)n1)c1ccc2cc(F)ccc2n1

>  <score_type>  (25) 
oracle

>  <origin>  (25) 
autodockgpu

>  <m_score__min__energy>  (25) 
-9.4700000000000006

>  <m_primary>  (25) 
energy

>  <rmsd>  (25) 
4.9538281622595965

>  <m_score__min__rmsd>  (25) 
4.9538281622595965

>  <meeko>  (25) 
{"free_energy": -9.08, "intermolecular_energy": -10.87, "internal_energy": -1.62, "cluster_size": 6, "cluster_id": 1, "rank_in_cluster": 2}

>  <energy>  (25) 
-7.2

>  <cluster_rmsd>  (25) 
0.57

>  <cluster>  (25) 
7

$$$$

     RDKit          3D

 55 59  0  0  0  0  0  0  0  0999 V2000
  139.3230   74.7970  222.0570 O   0  0  0  0  0  0  0  0  0  0  0  0
  140.5040   75.1040  221.7540 C   0  0  0  0  0  0  0  0  0  0  0  0
  140.8510   76.5090  221.8740 N   0  0  0  0  0  0  0  0  0  0  0  0
  139.8400   77.3900  222.3160 C   0  0  0  0  0  0  0  0  0  0  0  0
  139.7810   78.7570  221.8100 C   0  0  0  0  0  0  0  0  0  0  0  0
  138.9110   78.9230  220.8610 O   0  0  0  0  0  0  0  0  0  0  0  0
  140.4910   79.9020  222.1740 N   0  0  0  0  0  0  0  0  0  0  0  0
  140.5130   80.6860  223.4230 C   0  0  0  0  0  0  0  0  0  0  0  0
  141.9970   80.7270  223.6810 C   0  0  0  0  0  0  0  0  0  0  0  0
  142.6420   80.7530  222.3240 C   0  0  0  0  0  0  0  0  0  0  0  0
  141.4720   80.6150  221.3600 C   0  0  1  0  0  0  0  0  0  0  0  0
  141.9340   79.8730  220.1690 C   0  0  0  0  0  0  0  0  0  0  0  0
  142.4880   80.3050  218.9870 C   0  0  0  0  0  0  0  0  0  0  0  0
  142.7440   79.2330  218.2040 N   0  0  0  0  0  0  0  0  0  0  0  0
  142.3590   78.1300  218.8780 C   0  0  0  0  0  0  0  0  0  0  0  0
  142.4820   76.7770  218.3450 C   0  0  0  0  0  0  0  0  0  0  0  0
  141.3860   75.9410  218.4260 C   0  0  0  0  0  0  0  0  0  0  0  0
  141.5290   74.6640  217.9130 C   0  0  0  0  0  0  0  0  0  0  0  0
  142.7260   74.2330  217.3360 C   0  0  0  0  0  0  0  0  0  0  0  0
  143.8210   75.0990  217.2660 C   0  0  0  0  0  0  0  0  0  0  0  0
  143.6710   76.3710  217.7800 C   0  0  0  0  0  0  0  0  0  0  0  0
  141.8710   78.5300  220.0620 N   0  0  0  0  0  0  0  0  0  0  0  0
  141.5020   74.1510  221.3050 C   0  0  0  0  0  0  0  0  0  0  0  0
  141.1440   72.8380  221.1710 C   0  0  0  0  0  0  0  0  0  0  0  0
  142.0860   71.9280  220.7450 C   0  0  0  0  0  0  0  0  0  0  0  0
  143.3670   72.3390  220.4600 C   0  0  0  0  0  0  0  0  0  0  0  0
  144.3390   71.4600  220.0300 C   0  0  0  0  0  0  0  0  0  0  0  0
  145.6110   71.9590  219.7620 C   0  0  0  0  0  0  0  0  0  0  0  0
  146.6110   71.1380  219.3360 F   0  0  0  0  0  0  0  0  0  0  0  0
  145.9040   73.2990  219.9190 C   0  0  0  0  0  0  0  0  0  0  0  0
  144.9360   74.1720  220.3460 C   0  0  0  0  0  0  0  0  0  0  0  0
  143.6650   73.6750  220.6140 C   0  0  0  0  0  0  0  0  0  0  0  0
  142.7550   74.5740  221.0290 N   0  0  0  0  0  0  0  0  0  0  0  0
  141.8220   76.8050  221.6310 H   0  0  0  0  0  0  0  0  0  0  0  0
  138.8783   76.9185  222.0653 H   0  0  0  0  0  0  0  0  0  0  0  0
  140.0783   77.5285  223.3809 H   0  0  0  0  0  0  0  0  0  0  0  0
  140.0957   81.6936  223.2798 H   0  0  0  0  0  0  0  0  0  0  0  0
  139.9118   80.2669  224.2434 H   0  0  0  0  0  0  0  0  0  0  0  0
  142.2631   81.6300  224.2501 H   0  0  0  0  0  0  0  0  0  0  0  0
  142.3312   79.8631  224.2743 H   0  0  0  0  0  0  0  0  0  0  0  0
  143.1733   81.7023  222.1613 H   0  0  0  0  0  0  0  0  0  0  0  0
  143.3931   79.9596  222.1960 H   0  0  0  0  0  0  0  0  0  0  0  0
  141.0472   81.5481  220.9614 H   0  0  0  0  0  0  0  0  0  0  0  0
  142.6902   81.3531  218.7215 H   0  0  0  0  0  0  0  0  0  0  0  0
  143.1670   79.3300  217.2570 H   0  0  0  0  0  0  0  0  0  0  0  0
  140.4408   76.2755  218.8784 H   0  0  0  0  0  0  0  0  0  0  0  0
  140.6773   73.9695  217.9608 H   0  0  0  0  0  0  0  0  0  0  0  0
  142.8069   73.2113  216.9364 H   0  0  0  0  0  0  0  0  0  0  0  0
  144.7716   74.7770  216.8158 H   0  0  0  0  0  0  0  0  0  0  0  0
  144.5164   77.0736  217.7378 H   0  0  0  0  0  0  0  0  0  0  0  0
  140.1183   72.5133  221.4002 H   0  0  0  0  0  0  0  0  0  0  0  0
  141.8126   70.8685  220.6323 H   0  0  0  0  0  0  0  0  0  0  0  0
  144.1148   70.3907  219.9019 H   0  0  0  0  0  0  0  0  0  0  0  0
  146.9171   73.6678  219.7010 H   0  0  0  0  0  0  0  0  0  0  0  0
  145.1600   75.2414  220.4736 H   0  0  0  0  0  0  0  0  0  0  0  0
  1  2  2  0
  2  3  1  0
  3  4  1  0
  4  5  1  0
  5  6  2  0
  5  7  1  0
  7  8  1  0
  8  9  1  0
  9 10  1  0
 10 11  1  0
 11 12  1  0
 12 13  2  0
 13 14  1  0
 14 15  1  0
 15 16  1  0
 16 17  2  0
 17 18  1  0
 18 19  2  0
 19 20  1  0
 20 21  2  0
 15 22  2  0
  2 23  1  0
 23 24  2  0
 24 25  1  0
 25 26  2  0
 26 27  1  0
 27 28  2  0
 28 29  1  0
 28 30  1  0
 30 31  2  0
 31 32  1  0
 32 33  2  0
 11  7  1  0
 22 12  1  0
 33 23  1  0
 21 16  1  0
 32 26  1  0
  3 34  1  0
  4 35  1  0
  4 36  1  0
  8 37  1  0
  8 38  1  0
  9 39  1  0
  9 40  1  0
 10 41  1  0
 10 42  1  0
 11 43  1  6
 13 44  1  0
 14 45  1  0
 17 46  1  0
 18 47  1  0
 19 48  1  0
 20 49  1  0
 21 50  1  0
 24 51  1  0
 25 52  1  0
 27 53  1  0
 30 54  1  0
 31 55  1  0
M  END
>  <smiles>  (26) 
O=C(NCC(=O)N1CCC[C@H]1c1c[nH]c(-c2ccccc2)n1)c1ccc2cc(F)ccc2n1

>  <score_type>  (26) 
oracle

>  <origin>  (26) 
autodockgpu

>  <m_score__min__energy>  (26) 
-9.4700000000000006

>  <m_primary>  (26) 
energy

>  <rmsd>  (26) 
6.906483144319382

>  <m_score__min__rmsd>  (26) 
6.906483144319382

>  <meeko>  (26) 
{"free_energy": -7.29, "intermolecular_energy": -9.08, "internal_energy": -3.71, "cluster_size": 20, "cluster_id": 7, "rank_in_cluster": 3}

>  <energy>  (26) 
-7.18

>  <cluster_rmsd>  (26) 
0.58

>  <cluster>  (26) 
7

$$$$

     RDKit          3D

 55 59  0  0  0  0  0  0  0  0999 V2000
  141.3090   71.8930  221.4270 O   0  0  0  0  0  0  0  0  0  0  0  0
  140.6020   72.2760  222.3930 C   0  0  0  0  0  0  0  0  0  0  0  0
  140.0780   73.6280  222.3060 N   0  0  0  0  0  0  0  0  0  0  0  0
  140.4090   74.3780  221.1570 C   0  0  0  0  0  0  0  0  0  0  0  0
  139.6460   75.5710  220.8080 C   0  0  0  0  0  0  0  0  0  0  0  0
  138.5990   75.3240  220.0810 O   0  0  0  0  0  0  0  0  0  0  0  0
  139.8490   76.9150  221.1240 N   0  0  0  0  0  0  0  0  0  0  0  0
  139.1170   77.8340  222.0160 C   0  0  0  0  0  0  0  0  0  0  0  0
  140.2590   78.3540  222.8500 C   0  0  0  0  0  0  0  0  0  0  0  0
  141.4470   78.3860  221.9320 C   0  0  0  0  0  0  0  0  0  0  0  0
  140.9290   77.7710  220.6390 C   0  0  1  0  0  0  0  0  0  0  0  0
  142.0390   77.0460  219.9880 C   0  0  0  0  0  0  0  0  0  0  0  0
  142.7590   77.3180  218.8500 C   0  0  0  0  0  0  0  0  0  0  0  0
  143.6800   76.3460  218.6690 N   0  0  0  0  0  0  0  0  0  0  0  0
  143.5510   75.4630  219.6810 C   0  0  0  0  0  0  0  0  0  0  0  0
  144.3830   74.2720  219.8210 C   0  0  0  0  0  0  0  0  0  0  0  0
  144.2320   73.2590  218.8950 C   0  0  0  0  0  0  0  0  0  0  0  0
  145.0320   72.1410  219.0490 C   0  0  0  0  0  0  0  0  0  0  0  0
  145.9550   72.0350  220.0930 C   0  0  0  0  0  0  0  0  0  0  0  0
  146.0880   73.0750  221.0170 C   0  0  0  0  0  0  0  0  0  0  0  0
  145.2860   74.1870  220.8560 C   0  0  0  0  0  0  0  0  0  0  0  0
  142.5570   75.8970  220.4700 N   0  0  0  0  0  0  0  0  0  0  0  0
  140.2950   71.4590  223.5520 C   0  0  0  0  0  0  0  0  0  0  0  0
  139.5960   70.2970  223.3710 C   0  0  0  0  0  0  0  0  0  0  0  0
  139.3020   69.5160  224.4660 C   0  0  0  0  0  0  0  0  0  0  0  0
  139.7070   69.9020  225.7220 C   0  0  0  0  0  0  0  0  0  0  0  0
  139.4320   69.1470  226.8430 C   0  0  0  0  0  0  0  0  0  0  0  0
  139.8800   69.6110  228.0780 C   0  0  0  0  0  0  0  0  0  0  0  0
  139.6380   68.9090  229.2200 F   0  0  0  0  0  0  0  0  0  0  0  0
  140.5810   70.7950  228.1890 C   0  0  0  0  0  0  0  0  0  0  0  0
  140.8540   71.5430  227.0730 C   0  0  0  0  0  0  0  0  0  0  0  0
  140.4080   71.0820  225.8390 C   0  0  0  0  0  0  0  0  0  0  0  0
  140.7020   71.8540  224.7780 N   0  0  0  0  0  0  0  0  0  0  0  0
  139.4870   73.9850  223.0890 H   0  0  0  0  0  0  0  0  0  0  0  0
  141.4547   74.6969  221.2789 H   0  0  0  0  0  0  0  0  0  0  0  0
  140.1773   73.6859  220.3340 H   0  0  0  0  0  0  0  0  0  0  0  0
  138.6216   78.6398  221.4545 H   0  0  0  0  0  0  0  0  0  0  0  0
  138.2990   77.3713  222.5876 H   0  0  0  0  0  0  0  0  0  0  0  0
  140.0339   79.3644  223.2221 H   0  0  0  0  0  0  0  0  0  0  0  0
  140.4417   77.7205  223.7305 H   0  0  0  0  0  0  0  0  0  0  0  0
  141.7850   79.4195  221.7656 H   0  0  0  0  0  0  0  0  0  0  0  0
  142.3132   77.8454  222.3411 H   0  0  0  0  0  0  0  0  0  0  0  0
  140.5635   78.4688  219.8712 H   0  0  0  0  0  0  0  0  0  0  0  0
  142.6098   78.1870  218.1922 H   0  0  0  0  0  0  0  0  0  0  0  0
  144.3390   76.3520  217.8620 H   0  0  0  0  0  0  0  0  0  0  0  0
  143.5074   73.3375  218.0711 H   0  0  0  0  0  0  0  0  0  0  0  0
  144.9392   71.3133  218.3305 H   0  0  0  0  0  0  0  0  0  0  0  0
  146.5770   71.1327  220.1875 H   0  0  0  0  0  0  0  0  0  0  0  0
  146.8084   73.0096  221.8457 H   0  0  0  0  0  0  0  0  0  0  0  0
  145.3703   75.0209  221.5684 H   0  0  0  0  0  0  0  0  0  0  0  0
  139.2734   69.9910  222.3649 H   0  0  0  0  0  0  0  0  0  0  0  0
  138.7406   68.5791  224.3355 H   0  0  0  0  0  0  0  0  0  0  0  0
  138.8733   68.2027  226.7640 H   0  0  0  0  0  0  0  0  0  0  0  0
  140.9218   71.1396  229.1765 H   0  0  0  0  0  0  0  0  0  0  0  0
  141.4134   72.4869  227.1518 H   0  0  0  0  0  0  0  0  0  0  0  0
  1  2  2  0
  2  3  1  0
  3  4  1  0
  4  5  1  0
  5  6  2  0
  5  7  1  0
  7  8  1  0
  8  9  1  0
  9 10  1  0
 10 11  1  0
 11 12  1  0
 12 13  2  0
 13 14  1  0
 14 15  1  0
 15 16  1  0
 16 17  2  0
 17 18  1  0
 18 19  2  0
 19 20  1  0
 20 21  2  0
 15 22  2  0
  2 23  1  0
 23 24  2  0
 24 25  1  0
 25 26  2  0
 26 27  1  0
 27 28  2  0
 28 29  1  0
 28 30  1  0
 30 31  2  0
 31 32  1  0
 32 33  2  0
 11  7  1  0
 22 12  1  0
 33 23  1  0
 21 16  1  0
 32 26  1  0
  3 34  1  0
  4 35  1  0
  4 36  1  0
  8 37  1  0
  8 38  1  0
  9 39  1  0
  9 40  1  0
 10 41  1  0
 10 42  1  0
 11 43  1  6
 13 44  1  0
 14 45  1  0
 17 46  1  0
 18 47  1  0
 19 48  1  0
 20 49  1  0
 21 50  1  0
 24 51  1  0
 25 52  1  0
 27 53  1  0
 30 54  1  0
 31 55  1  0
M  END
>  <smiles>  (27) 
O=C(NCC(=O)N1CCC[C@H]1c1c[nH]c(-c2ccccc2)n1)c1ccc2cc(F)ccc2n1

>  <score_type>  (27) 
oracle

>  <origin>  (27) 
autodockgpu

>  <m_score__min__energy>  (27) 
-9.4700000000000006

>  <m_primary>  (27) 
energy

>  <rmsd>  (27) 
5.3721472700874076

>  <m_score__min__rmsd>  (27) 
5.3721472700874076

>  <meeko>  (27) 
{"free_energy": -9.47, "intermolecular_energy": -11.26, "internal_energy": -1.53, "cluster_size": 6, "cluster_id": 1, "rank_in_cluster": 1}

>  <energy>  (27) 
-7.17

>  <cluster_rmsd>  (27) 
0.58

>  <cluster>  (27) 
7

$$$$

     RDKit          3D

 55 59  0  0  0  0  0  0  0  0999 V2000
  139.9810   73.6490  222.3270 O   0  0  0  0  0  0  0  0  0  0  0  0
  140.4610   72.4890  222.4010 C   0  0  0  0  0  0  0  0  0  0  0  0
  141.2670   72.0580  221.2730 N   0  0  0  0  0  0  0  0  0  0  0  0
  141.4340   72.9720  220.2090 C   0  0  0  0  0  0  0  0  0  0  0  0
  142.7400   73.5650  219.9440 C   0  0  0  0  0  0  0  0  0  0  0  0
  143.4960   73.6490  220.9960 O   0  0  0  0  0  0  0  0  0  0  0  0
  143.3060   74.0470  218.7640 N   0  0  0  0  0  0  0  0  0  0  0  0
  143.9750   73.3580  217.6440 C   0  0  0  0  0  0  0  0  0  0  0  0
  143.1910   73.9190  216.4850 C   0  0  0  0  0  0  0  0  0  0  0  0
  142.8250   75.3200  216.8870 C   0  0  0  0  0  0  0  0  0  0  0  0
  143.3370   75.4370  218.3160 C   0  0  1  0  0  0  0  0  0  0  0  0
  142.4370   76.3410  219.0620 C   0  0  0  0  0  0  0  0  0  0  0  0
  141.1040   76.6340  218.8990 C   0  0  0  0  0  0  0  0  0  0  0  0
  140.7320   77.5290  219.8410 N   0  0  0  0  0  0  0  0  0  0  0  0
  141.8150   77.8040  220.5970 C   0  0  0  0  0  0  0  0  0  0  0  0
  141.7970   78.7350  221.7210 C   0  0  0  0  0  0  0  0  0  0  0  0
  141.4310   78.2530  222.9620 C   0  0  0  0  0  0  0  0  0  0  0  0
  141.4220   79.1550  224.0100 C   0  0  0  0  0  0  0  0  0  0  0  0
  141.7660   80.4970  223.8290 C   0  0  0  0  0  0  0  0  0  0  0  0
  142.1330   80.9600  222.5620 C   0  0  0  0  0  0  0  0  0  0  0  0
  142.1400   80.0540  221.5210 C   0  0  0  0  0  0  0  0  0  0  0  0
  142.8370   77.0800  220.1160 N   0  0  0  0  0  0  0  0  0  0  0  0
  140.2540   71.5930  223.5230 C   0  0  0  0  0  0  0  0  0  0  0  0
  139.5790   70.4210  223.3130 C   0  0  0  0  0  0  0  0  0  0  0  0
  139.3800   69.5650  224.3720 C   0  0  0  0  0  0  0  0  0  0  0  0
  139.8530   69.8880  225.6230 C   0  0  0  0  0  0  0  0  0  0  0  0
  139.6740   69.0580  226.7090 C   0  0  0  0  0  0  0  0  0  0  0  0
  140.1850   69.4600  227.9410 C   0  0  0  0  0  0  0  0  0  0  0  0
  140.0380   68.6820  229.0490 F   0  0  0  0  0  0  0  0  0  0  0  0
  140.8570   70.6580  228.0820 C   0  0  0  0  0  0  0  0  0  0  0  0
  141.0340   71.4820  227.0000 C   0  0  0  0  0  0  0  0  0  0  0  0
  140.5240   71.0820  225.7700 C   0  0  0  0  0  0  0  0  0  0  0  0
  140.7260   71.9270  224.7430 N   0  0  0  0  0  0  0  0  0  0  0  0
  141.6830   71.1010  221.2940 H   0  0  0  0  0  0  0  0  0  0  0  0
  141.1340   72.4458  219.2908 H   0  0  0  0  0  0  0  0  0  0  0  0
  140.8288   73.8345  220.5248 H   0  0  0  0  0  0  0  0  0  0  0  0
  145.0412   73.6214  217.5812 H   0  0  0  0  0  0  0  0  0  0  0  0
  143.9794   72.2601  217.7120 H   0  0  0  0  0  0  0  0  0  0  0  0
  143.8068   73.9292  215.5736 H   0  0  0  0  0  0  0  0  0  0  0  0
  142.3003   73.3126  216.2638 H   0  0  0  0  0  0  0  0  0  0  0  0
  143.3169   76.0557  216.2337 H   0  0  0  0  0  0  0  0  0  0  0  0
  141.7457   75.5161  216.8059 H   0  0  0  0  0  0  0  0  0  0  0  0
  144.3399   75.8693  218.4479 H   0  0  0  0  0  0  0  0  0  0  0  0
  140.4462   76.2088  218.1267 H   0  0  0  0  0  0  0  0  0  0  0  0
  139.7580   77.8930  219.9040 H   0  0  0  0  0  0  0  0  0  0  0  0
  141.1585   77.1977  223.1105 H   0  0  0  0  0  0  0  0  0  0  0  0
  141.1362   78.8065  225.0134 H   0  0  0  0  0  0  0  0  0  0  0  0
  141.7481   81.1894  224.6836 H   0  0  0  0  0  0  0  0  0  0  0  0
  142.4074   82.0128  222.4000 H   0  0  0  0  0  0  0  0  0  0  0  0
  142.4246   80.3912  220.5134 H   0  0  0  0  0  0  0  0  0  0  0  0
  139.2009   70.1669  222.3118 H   0  0  0  0  0  0  0  0  0  0  0  0
  138.8407   68.6188  224.2177 H   0  0  0  0  0  0  0  0  0  0  0  0
  139.1406   68.1016  226.6053 H   0  0  0  0  0  0  0  0  0  0  0  0
  141.2517   70.9525  229.0656 H   0  0  0  0  0  0  0  0  0  0  0  0
  141.5677   72.4383  227.1031 H   0  0  0  0  0  0  0  0  0  0  0  0
  1  2  2  0
  2  3  1  0
  3  4  1  0
  4  5  1  0
  5  6  2  0
  5  7  1  0
  7  8  1  0
  8  9  1  0
  9 10  1  0
 10 11  1  0
 11 12  1  0
 12 13  2  0
 13 14  1  0
 14 15  1  0
 15 16  1  0
 16 17  2  0
 17 18  1  0
 18 19  2  0
 19 20  1  0
 20 21  2  0
 15 22  2  0
  2 23  1  0
 23 24  2  0
 24 25  1  0
 25 26  2  0
 26 27  1  0
 27 28  2  0
 28 29  1  0
 28 30  1  0
 30 31  2  0
 31 32  1  0
 32 33  2  0
 11  7  1  0
 22 12  1  0
 33 23  1  0
 21 16  1  0
 32 26  1  0
  3 34  1  0
  4 35  1  0
  4 36  1  0
  8 37  1  0
  8 38  1  0
  9 39  1  0
  9 40  1  0
 10 41  1  0
 10 42  1  0
 11 43  1  6
 13 44  1  0
 14 45  1  0
 17 46  1  0
 18 47  1  0
 19 48  1  0
 20 49  1  0
 21 50  1  0
 24 51  1  0
 25 52  1  0
 27 53  1  0
 30 54  1  0
 31 55  1  0
M  END
>  <smiles>  (28) 
O=C(NCC(=O)N1CCC[C@H]1c1c[nH]c(-c2ccccc2)n1)c1ccc2cc(F)ccc2n1

>  <score_type>  (28) 
oracle

>  <origin>  (28) 
autodockgpu

>  <m_score__min__energy>  (28) 
-9.4700000000000006

>  <m_primary>  (28) 
energy

>  <rmsd>  (28) 
3.1059037893324186

>  <m_score__min__rmsd>  (28) 
3.1059037893324186

>  <meeko>  (28) 
{"free_energy": -8.7, "intermolecular_energy": -10.49, "internal_energy": -1.47, "cluster_size": 1, "cluster_id": 4, "rank_in_cluster": 1}

>  <energy>  (28) 
-7.04

>  <cluster_rmsd>  (28) 
0.61

>  <cluster>  (28) 
7

$$$$

     RDKit          3D

 55 59  0  0  0  0  0  0  0  0999 V2000
  139.5840   74.5250  222.3250 O   0  0  0  0  0  0  0  0  0  0  0  0
  140.0380   75.5010  221.6750 C   0  0  0  0  0  0  0  0  0  0  0  0
  140.4070   75.2360  220.2950 N   0  0  0  0  0  0  0  0  0  0  0  0
  140.2230   73.9200  219.8180 C   0  0  0  0  0  0  0  0  0  0  0  0
  141.2670   73.2640  219.0390 C   0  0  0  0  0  0  0  0  0  0  0  0
  141.8280   72.2680  219.6550 O   0  0  0  0  0  0  0  0  0  0  0  0
  141.7560   73.5240  217.7580 N   0  0  0  0  0  0  0  0  0  0  0  0
  141.6330   72.7790  216.4920 C   0  0  0  0  0  0  0  0  0  0  0  0
  141.1300   73.8770  215.5890 C   0  0  0  0  0  0  0  0  0  0  0  0
  141.7700   75.1380  216.0950 C   0  0  0  0  0  0  0  0  0  0  0  0
  142.5260   74.6930  217.3400 C   0  0  1  0  0  0  0  0  0  0  0  0
  142.5240   75.8070  218.3100 C   0  0  0  0  0  0  0  0  0  0  0  0
  143.1790   75.9700  219.5070 C   0  0  0  0  0  0  0  0  0  0  0  0
  142.8500   77.1730  220.0270 N   0  0  0  0  0  0  0  0  0  0  0  0
  141.9950   77.7720  219.1720 C   0  0  0  0  0  0  0  0  0  0  0  0
  141.4210   79.0930  219.4020 C   0  0  0  0  0  0  0  0  0  0  0  0
  140.0820   79.1750  219.7300 C   0  0  0  0  0  0  0  0  0  0  0  0
  139.5610   80.4390  219.9430 C   0  0  0  0  0  0  0  0  0  0  0  0
  140.3500   81.5870  219.8330 C   0  0  0  0  0  0  0  0  0  0  0  0
  141.7030   81.4770  219.5000 C   0  0  0  0  0  0  0  0  0  0  0  0
  142.2150   80.2130  219.2890 C   0  0  0  0  0  0  0  0  0  0  0  0
  141.8070   76.9360  218.1400 N   0  0  0  0  0  0  0  0  0  0  0  0
  140.2060   76.8350  222.2200 C   0  0  0  0  0  0  0  0  0  0  0  0
  139.1060   77.4930  222.6990 C   0  0  0  0  0  0  0  0  0  0  0  0
  139.2570   78.7590  223.2190 C   0  0  0  0  0  0  0  0  0  0  0  0
  140.4980   79.3500  223.2540 C   0  0  0  0  0  0  0  0  0  0  0  0
  140.6910   80.6160  223.7670 C   0  0  0  0  0  0  0  0  0  0  0  0
  141.9820   81.1400  223.7650 C   0  0  0  0  0  0  0  0  0  0  0  0
  142.2330   82.3850  224.2570 F   0  0  0  0  0  0  0  0  0  0  0  0
  143.0480   80.4200  223.2650 C   0  0  0  0  0  0  0  0  0  0  0  0
  142.8540   79.1620  222.7560 C   0  0  0  0  0  0  0  0  0  0  0  0
  141.5660   78.6360  222.7570 C   0  0  0  0  0  0  0  0  0  0  0  0
  141.4330   77.3990  222.2470 N   0  0  0  0  0  0  0  0  0  0  0  0
  140.7890   76.0190  219.7220 H   0  0  0  0  0  0  0  0  0  0  0  0
  140.0424   73.2873  220.6995 H   0  0  0  0  0  0  0  0  0  0  0  0
  139.4044   74.0315  219.0917 H   0  0  0  0  0  0  0  0  0  0  0  0
  142.6030   72.3852  216.1543 H   0  0  0  0  0  0  0  0  0  0  0  0
  140.9900   71.8878  216.5398 H   0  0  0  0  0  0  0  0  0  0  0  0
  141.4287   73.6854  214.5478 H   0  0  0  0  0  0  0  0  0  0  0  0
  140.0321   73.9438  215.6005 H   0  0  0  0  0  0  0  0  0  0  0  0
  142.4601   75.5540  215.3462 H   0  0  0  0  0  0  0  0  0  0  0  0
  141.0365   75.9303  216.3054 H   0  0  0  0  0  0  0  0  0  0  0  0
  143.5881   74.4379  217.2101 H   0  0  0  0  0  0  0  0  0  0  0  0
  143.8606   75.2396  219.9673 H   0  0  0  0  0  0  0  0  0  0  0  0
  143.2350   77.5060  220.9370 H   0  0  0  0  0  0  0  0  0  0  0  0
  139.4567   78.2743  219.8181 H   0  0  0  0  0  0  0  0  0  0  0  0
  138.4979   80.5429  220.2058 H   0  0  0  0  0  0  0  0  0  0  0  0
  139.9060   82.5780  220.0086 H   0  0  0  0  0  0  0  0  0  0  0  0
  142.3394   82.3696  219.4090 H   0  0  0  0  0  0  0  0  0  0  0  0
  143.2768   80.0977  219.0257 H   0  0  0  0  0  0  0  0  0  0  0  0
  138.1147   77.0171  222.6691 H   0  0  0  0  0  0  0  0  0  0  0  0
  138.3815   79.2996  223.6079 H   0  0  0  0  0  0  0  0  0  0  0  0
  139.8471   81.1970  224.1674 H   0  0  0  0  0  0  0  0  0  0  0  0
  144.0573   80.8573  223.2750 H   0  0  0  0  0  0  0  0  0  0  0  0
  143.6981   78.5813  222.3556 H   0  0  0  0  0  0  0  0  0  0  0  0
  1  2  2  0
  2  3  1  0
  3  4  1  0
  4  5  1  0
  5  6  2  0
  5  7  1  0
  7  8  1  0
  8  9  1  0
  9 10  1  0
 10 11  1  0
 11 12  1  0
 12 13  2  0
 13 14  1  0
 14 15  1  0
 15 16  1  0
 16 17  2  0
 17 18  1  0
 18 19  2  0
 19 20  1  0
 20 21  2  0
 15 22  2  0
  2 23  1  0
 23 24  2  0
 24 25  1  0
 25 26  2  0
 26 27  1  0
 27 28  2  0
 28 29  1  0
 28 30  1  0
 30 31  2  0
 31 32  1  0
 32 33  2  0
 11  7  1  0
 22 12  1  0
 33 23  1  0
 21 16  1  0
 32 26  1  0
  3 34  1  0
  4 35  1  0
  4 36  1  0
  8 37  1  0
  8 38  1  0
  9 39  1  0
  9 40  1  0
 10 41  1  0
 10 42  1  0
 11 43  1  6
 13 44  1  0
 14 45  1  0
 17 46  1  0
 18 47  1  0
 19 48  1  0
 20 49  1  0
 21 50  1  0
 24 51  1  0
 25 52  1  0
 27 53  1  0
 30 54  1  0
 31 55  1  0
M  END
>  <smiles>  (29) 
O=C(NCC(=O)N1CCC[C@H]1c1c[nH]c(-c2ccccc2)n1)c1ccc2cc(F)ccc2n1

>  <score_type>  (29) 
oracle

>  <origin>  (29) 
autodockgpu

>  <m_score__min__energy>  (29) 
-9.4700000000000006

>  <m_primary>  (29) 
energy

>  <rmsd>  (29) 
6.685055902781526

>  <m_score__min__rmsd>  (29) 
6.685055902781526

>  <meeko>  (29) 
{"free_energy": -5.95, "intermolecular_energy": -7.74, "internal_energy": -4.41, "cluster_size": 5, "cluster_id": 8, "rank_in_cluster": 5}

>  <energy>  (29) 
-6.86

>  <cluster_rmsd>  (29) 
0.76

>  <cluster>  (29) 
7

$$$$

     RDKit          3D

 55 59  0  0  0  0  0  0  0  0999 V2000
  136.2220   76.3840  221.5730 O   0  0  0  0  0  0  0  0  0  0  0  0
  137.3540   76.3250  222.1160 C   0  0  0  0  0  0  0  0  0  0  0  0
  137.8840   74.9930  222.3460 N   0  0  0  0  0  0  0  0  0  0  0  0
  137.0860   73.9000  221.9430 C   0  0  0  0  0  0  0  0  0  0  0  0
  137.6030   72.5380  222.0260 C   0  0  0  0  0  0  0  0  0  0  0  0
  137.4780   71.8670  220.9220 O   0  0  0  0  0  0  0  0  0  0  0  0
  138.2020   71.8470  223.0790 N   0  0  0  0  0  0  0  0  0  0  0  0
  137.6530   70.9050  224.0730 C   0  0  0  0  0  0  0  0  0  0  0  0
  138.6160   69.7580  223.9060 C   0  0  0  0  0  0  0  0  0  0  0  0
  139.9360   70.3860  223.5610 C   0  0  0  0  0  0  0  0  0  0  0  0
  139.6170   71.8700  223.4440 C   0  0  1  0  0  0  0  0  0  0  0  0
  140.5040   72.4590  222.4190 C   0  0  0  0  0  0  0  0  0  0  0  0
  141.4610   71.8930  221.6120 C   0  0  0  0  0  0  0  0  0  0  0  0
  142.0050   72.8550  220.8340 N   0  0  0  0  0  0  0  0  0  0  0  0
  141.4010   74.0220  221.1410 C   0  0  0  0  0  0  0  0  0  0  0  0
  141.7300   75.2910  220.4990 C   0  0  0  0  0  0  0  0  0  0  0  0
  143.0320   75.4970  220.0900 C   0  0  0  0  0  0  0  0  0  0  0  0
  143.3190   76.7070  219.4850 C   0  0  0  0  0  0  0  0  0  0  0  0
  142.3370   77.6830  219.2920 C   0  0  0  0  0  0  0  0  0  0  0  0
  141.0260   77.4500  219.7150 C   0  0  0  0  0  0  0  0  0  0  0  0
  140.7490   76.2400  220.3180 C   0  0  0  0  0  0  0  0  0  0  0  0
  140.4970   73.7690  222.0990 N   0  0  0  0  0  0  0  0  0  0  0  0
  138.1290   77.4860  222.5110 C   0  0  0  0  0  0  0  0  0  0  0  0
  137.4790   78.6710  222.7210 C   0  0  0  0  0  0  0  0  0  0  0  0
  138.2080   79.7770  223.0960 C   0  0  0  0  0  0  0  0  0  0  0  0
  139.5710   79.6880  223.2550 C   0  0  0  0  0  0  0  0  0  0  0  0
  140.3370   80.7720  223.6290 C   0  0  0  0  0  0  0  0  0  0  0  0
  141.7120   80.5940  223.7680 C   0  0  0  0  0  0  0  0  0  0  0  0
  142.5180   81.6290  224.1350 F   0  0  0  0  0  0  0  0  0  0  0  0
  142.3030   79.3680  223.5390 C   0  0  0  0  0  0  0  0  0  0  0  0
  141.5400   78.2920  223.1680 C   0  0  0  0  0  0  0  0  0  0  0  0
  140.1670   78.4670  223.0280 C   0  0  0  0  0  0  0  0  0  0  0  0
  139.4670   77.3790  222.6620 N   0  0  0  0  0  0  0  0  0  0  0  0
  138.8210   74.9000  222.7960 H   0  0  0  0  0  0  0  0  0  0  0  0
  136.1753   73.9300  222.5592 H   0  0  0  0  0  0  0  0  0  0  0  0
  136.9762   74.0585  220.8600 H   0  0  0  0  0  0  0  0  0  0  0  0
  137.6857   71.3206  225.0909 H   0  0  0  0  0  0  0  0  0  0  0  0
  136.5937   70.6453  223.9297 H   0  0  0  0  0  0  0  0  0  0  0  0
  138.6963   69.1847  224.8414 H   0  0  0  0  0  0  0  0  0  0  0  0
  138.2827   69.0568  223.1267 H   0  0  0  0  0  0  0  0  0  0  0  0
  140.6745   70.2061  224.3561 H   0  0  0  0  0  0  0  0  0  0  0  0
  140.3743   69.9728  222.6406 H   0  0  0  0  0  0  0  0  0  0  0  0
  139.7813   72.4836  224.3421 H   0  0  0  0  0  0  0  0  0  0  0  0
  141.7395   70.8289  221.6009 H   0  0  0  0  0  0  0  0  0  0  0  0
  142.7560   72.6480  220.1420 H   0  0  0  0  0  0  0  0  0  0  0  0
  143.8080   74.7317  220.2388 H   0  0  0  0  0  0  0  0  0  0  0  0
  144.3465   76.9066  219.1469 H   0  0  0  0  0  0  0  0  0  0  0  0
  142.5967   78.6354  218.8067 H   0  0  0  0  0  0  0  0  0  0  0  0
  140.2402   78.2064  219.5720 H   0  0  0  0  0  0  0  0  0  0  0  0
  139.7251   76.0297  220.6605 H   0  0  0  0  0  0  0  0  0  0  0  0
  136.3887   78.7394  222.5920 H   0  0  0  0  0  0  0  0  0  0  0  0
  137.6979   80.7361  223.2692 H   0  0  0  0  0  0  0  0  0  0  0  0
  139.8741   81.7528  223.8130 H   0  0  0  0  0  0  0  0  0  0  0  0
  143.3909   79.2542  223.6548 H   0  0  0  0  0  0  0  0  0  0  0  0
  142.0030   77.3112  222.9848 H   0  0  0  0  0  0  0  0  0  0  0  0
  1  2  2  0
  2  3  1  0
  3  4  1  0
  4  5  1  0
  5  6  2  0
  5  7  1  0
  7  8  1  0
  8  9  1  0
  9 10  1  0
 10 11  1  0
 11 12  1  0
 12 13  2  0
 13 14  1  0
 14 15  1  0
 15 16  1  0
 16 17  2  0
 17 18  1  0
 18 19  2  0
 19 20  1  0
 20 21  2  0
 15 22  2  0
  2 23  1  0
 23 24  2  0
 24 25  1  0
 25 26  2  0
 26 27  1  0
 27 28  2  0
 28 29  1  0
 28 30  1  0
 30 31  2  0
 31 32  1  0
 32 33  2  0
 11  7  1  0
 22 12  1  0
 33 23  1  0
 21 16  1  0
 32 26  1  0
  3 34  1  0
  4 35  1  0
  4 36  1  0
  8 37  1  0
  8 38  1  0
  9 39  1  0
  9 40  1  0
 10 41  1  0
 10 42  1  0
 11 43  1  1
 13 44  1  0
 14 45  1  0
 17 46  1  0
 18 47  1  0
 19 48  1  0
 20 49  1  0
 21 50  1  0
 24 51  1  0
 25 52  1  0
 27 53  1  0
 30 54  1  0
 31 55  1  0
M  END
>  <smiles>  (30) 
O=C(NCC(=O)N1CCC[C@H]1c1c[nH]c(-c2ccccc2)n1)c1ccc2cc(F)ccc2n1

>  <score_type>  (30) 
oracle

>  <origin>  (30) 
autodockgpu

>  <m_score__min__energy>  (30) 
-9.4700000000000006

>  <m_primary>  (30) 
energy

>  <rmsd>  (30) 
7.979462829711008

>  <m_score__min__rmsd>  (30) 
7.979462829711008

>  <meeko>  (30) 
{"free_energy": -7.25, "intermolecular_energy": -9.04, "internal_energy": -3.47, "cluster_size": 6, "cluster_id": 9, "rank_in_cluster": 1}

>  <energy>  (30) 
-6.82

>  <cluster_rmsd>  (30) 
0.78

>  <cluster>  (30) 
7

$$$$

     RDKit          3D

 55 59  0  0  0  0  0  0  0  0999 V2000
  135.9960   76.1360  221.7040 O   0  0  0  0  0  0  0  0  0  0  0  0
  137.1680   76.0680  222.1540 C   0  0  0  0  0  0  0  0  0  0  0  0
  137.7030   74.7310  222.3470 N   0  0  0  0  0  0  0  0  0  0  0  0
  136.8650   73.6450  222.0150 C   0  0  0  0  0  0  0  0  0  0  0  0
  137.1910   72.2960  222.4660 C   0  0  0  0  0  0  0  0  0  0  0  0
  136.3490   71.3950  222.0610 O   0  0  0  0  0  0  0  0  0  0  0  0
  138.2440   71.8200  223.2480 N   0  0  0  0  0  0  0  0  0  0  0  0
  138.2820   70.8430  224.3520 C   0  0  0  0  0  0  0  0  0  0  0  0
  139.3710   69.9270  223.8550 C   0  0  0  0  0  0  0  0  0  0  0  0
  140.3240   70.8080  223.0980 C   0  0  0  0  0  0  0  0  0  0  0  0
  139.6550   72.1750  223.1190 C   0  0  1  0  0  0  0  0  0  0  0  0
  139.9970   72.8810  221.8670 C   0  0  0  0  0  0  0  0  0  0  0  0
  139.9250   72.4870  220.5520 C   0  0  0  0  0  0  0  0  0  0  0  0
  140.3550   73.4990  219.7660 N   0  0  0  0  0  0  0  0  0  0  0  0
  140.6970   74.5270  220.5690 C   0  0  0  0  0  0  0  0  0  0  0  0
  141.2090   75.8000  220.0720 C   0  0  0  0  0  0  0  0  0  0  0  0
  142.5650   75.9100  219.8340 C   0  0  0  0  0  0  0  0  0  0  0  0
  143.0260   77.1260  219.3630 C   0  0  0  0  0  0  0  0  0  0  0  0
  142.1620   78.2010  219.1350 C   0  0  0  0  0  0  0  0  0  0  0  0
  140.7940   78.0640  219.3840 C   0  0  0  0  0  0  0  0  0  0  0  0
  140.3420   76.8470  219.8530 C   0  0  0  0  0  0  0  0  0  0  0  0
  140.4760   74.1410  221.8350 N   0  0  0  0  0  0  0  0  0  0  0  0
  137.9840   77.2230  222.4770 C   0  0  0  0  0  0  0  0  0  0  0  0
  137.3720   78.4350  222.6440 C   0  0  0  0  0  0  0  0  0  0  0  0
  138.1390   79.5360  222.9520 C   0  0  0  0  0  0  0  0  0  0  0  0
  139.5020   79.4140  223.0880 C   0  0  0  0  0  0  0  0  0  0  0  0
  140.3060   80.4920  223.3960 C   0  0  0  0  0  0  0  0  0  0  0  0
  141.6780   80.2810  223.5170 C   0  0  0  0  0  0  0  0  0  0  0  0
  142.5200   81.3080  223.8190 F   0  0  0  0  0  0  0  0  0  0  0  0
  142.2300   79.0290  223.3350 C   0  0  0  0  0  0  0  0  0  0  0  0
  141.4290   77.9590  223.0300 C   0  0  0  0  0  0  0  0  0  0  0  0
  140.0590   78.1670  222.9090 C   0  0  0  0  0  0  0  0  0  0  0  0
  139.3210   77.0840  222.6080 N   0  0  0  0  0  0  0  0  0  0  0  0
  138.6730   74.6310  222.7190 H   0  0  0  0  0  0  0  0  0  0  0  0
  135.8688   73.8804  222.4178 H   0  0  0  0  0  0  0  0  0  0  0  0
  136.9712   73.5742  220.9224 H   0  0  0  0  0  0  0  0  0  0  0  0
  138.5519   71.3170  225.3073 H   0  0  0  0  0  0  0  0  0  0  0  0
  137.3229   70.3485  224.5657 H   0  0  0  0  0  0  0  0  0  0  0  0
  139.8830   69.4446  224.7007 H   0  0  0  0  0  0  0  0  0  0  0  0
  138.9692   69.1224  223.2216 H   0  0  0  0  0  0  0  0  0  0  0  0
  141.3037   70.8441  223.5969 H   0  0  0  0  0  0  0  0  0  0  0  0
  140.5165   70.4458  222.0773 H   0  0  0  0  0  0  0  0  0  0  0  0
  139.9610   72.8631  223.9208 H   0  0  0  0  0  0  0  0  0  0  0  0
  139.5742   71.5068  220.1969 H   0  0  0  0  0  0  0  0  0  0  0  0
  140.3850   73.4170  218.7280 H   0  0  0  0  0  0  0  0  0  0  0  0
  143.2489   75.0669  220.0114 H   0  0  0  0  0  0  0  0  0  0  0  0
  144.1004   77.2504  219.1626 H   0  0  0  0  0  0  0  0  0  0  0  0
  142.5594   79.1554  218.7593 H   0  0  0  0  0  0  0  0  0  0  0  0
  140.0994   78.8993  219.2118 H   0  0  0  0  0  0  0  0  0  0  0  0
  139.2694   76.7111  220.0555 H   0  0  0  0  0  0  0  0  0  0  0  0
  136.2816   78.5286  222.5337 H   0  0  0  0  0  0  0  0  0  0  0  0
  137.6600   80.5166  223.0898 H   0  0  0  0  0  0  0  0  0  0  0  0
  139.8746   81.4932  223.5424 H   0  0  0  0  0  0  0  0  0  0  0  0
  143.3165   78.8893  223.4351 H   0  0  0  0  0  0  0  0  0  0  0  0
  141.8604   76.9577  222.8841 H   0  0  0  0  0  0  0  0  0  0  0  0
  1  2  2  0
  2  3  1  0
  3  4  1  0
  4  5  1  0
  5  6  2  0
  5  7  1  0
  7  8  1  0
  8  9  1  0
  9 10  1  0
 10 11  1  0
 11 12  1  0
 12 13  2  0
 13 14  1  0
 14 15  1  0
 15 16  1  0
 16 17  2  0
 17 18  1  0
 18 19  2  0
 19 20  1  0
 20 21  2  0
 15 22  2  0
  2 23  1  0
 23 24  2  0
 24 25  1  0
 25 26  2  0
 26 27  1  0
 27 28  2  0
 28 29  1  0
 28 30  1  0
 30 31  2  0
 31 32  1  0
 32 33  2  0
 11  7  1  0
 22 12  1  0
 33 23  1  0
 21 16  1  0
 32 26  1  0
  3 34  1  0
  4 35  1  0
  4 36  1  0
  8 37  1  0
  8 38  1  0
  9 39  1  0
  9 40  1  0
 10 41  1  0
 10 42  1  0
 11 43  1  1
 13 44  1  0
 14 45  1  0
 17 46  1  0
 18 47  1  0
 19 48  1  0
 20 49  1  0
 21 50  1  0
 24 51  1  0
 25 52  1  0
 27 53  1  0
 30 54  1  0
 31 55  1  0
M  END
>  <smiles>  (31) 
O=C(NCC(=O)N1CCC[C@H]1c1c[nH]c(-c2ccccc2)n1)c1ccc2cc(F)ccc2n1

>  <score_type>  (31) 
oracle

>  <origin>  (31) 
autodockgpu

>  <m_score__min__energy>  (31) 
-9.4700000000000006

>  <m_primary>  (31) 
energy

>  <rmsd>  (31) 
7.747135934107138

>  <m_score__min__rmsd>  (31) 
7.747135934107138

>  <meeko>  (31) 
{"free_energy": -6.38, "intermolecular_energy": -8.17, "internal_energy": -3.7, "cluster_size": 6, "cluster_id": 9, "rank_in_cluster": 6}

>  <energy>  (31) 
-6.77

>  <cluster_rmsd>  (31) 
0.78

>  <cluster>  (31) 
7

$$$$

     RDKit          3D

 55 59  0  0  0  0  0  0  0  0999 V2000
  141.3250   77.3800  217.4350 O   0  0  0  0  0  0  0  0  0  0  0  0
  142.0980   77.1010  218.3860 C   0  0  0  0  0  0  0  0  0  0  0  0
  142.1450   78.0610  219.4750 N   0  0  0  0  0  0  0  0  0  0  0  0
  141.3270   79.2060  219.3640 C   0  0  0  0  0  0  0  0  0  0  0  0
  141.2630   80.1760  220.4520 C   0  0  0  0  0  0  0  0  0  0  0  0
  140.6420   81.2710  220.1360 O   0  0  0  0  0  0  0  0  0  0  0  0
  141.7490   80.1220  221.7590 N   0  0  0  0  0  0  0  0  0  0  0  0
  142.3200   81.1610  222.6360 C   0  0  0  0  0  0  0  0  0  0  0  0
  141.4630   80.9700  223.8610 C   0  0  0  0  0  0  0  0  0  0  0  0
  141.1550   79.5000  223.9110 C   0  0  0  0  0  0  0  0  0  0  0  0
  141.7730   78.9520  222.6320 C   0  0  1  0  0  0  0  0  0  0  0  0
  140.9480   77.8200  222.1630 C   0  0  0  0  0  0  0  0  0  0  0  0
  139.5870   77.6320  222.1470 C   0  0  0  0  0  0  0  0  0  0  0  0
  139.3160   76.4210  221.6130 N   0  0  0  0  0  0  0  0  0  0  0  0
  140.4910   75.8410  221.2910 C   0  0  0  0  0  0  0  0  0  0  0  0
  140.5970   74.5170  220.6860 C   0  0  0  0  0  0  0  0  0  0  0  0
  139.9480   74.2940  219.4880 C   0  0  0  0  0  0  0  0  0  0  0  0
  140.0630   73.0310  218.9350 C   0  0  0  0  0  0  0  0  0  0  0  0
  140.8020   72.0210  219.5570 C   0  0  0  0  0  0  0  0  0  0  0  0
  141.4500   72.2730  220.7690 C   0  0  0  0  0  0  0  0  0  0  0  0
  141.3300   73.5350  221.3140 C   0  0  0  0  0  0  0  0  0  0  0  0
  141.4680   76.6960  221.6280 N   0  0  0  0  0  0  0  0  0  0  0  0
  142.9170   75.9050  218.4450 C   0  0  0  0  0  0  0  0  0  0  0  0
  143.0150   75.1190  217.3290 C   0  0  0  0  0  0  0  0  0  0  0  0
  143.7910   73.9830  217.3770 C   0  0  0  0  0  0  0  0  0  0  0  0
  144.4570   73.6460  218.5330 C   0  0  0  0  0  0  0  0  0  0  0  0
  145.2440   72.5180  218.6210 C   0  0  0  0  0  0  0  0  0  0  0  0
  145.8830   72.2500  219.8300 C   0  0  0  0  0  0  0  0  0  0  0  0
  146.6730   71.1500  219.9760 F   0  0  0  0  0  0  0  0  0  0  0  0
  145.7400   73.0880  220.9180 C   0  0  0  0  0  0  0  0  0  0  0  0
  144.9580   74.2100  220.8270 C   0  0  0  0  0  0  0  0  0  0  0  0
  144.3180   74.4780  219.6220 C   0  0  0  0  0  0  0  0  0  0  0  0
  143.5630   75.5910  219.5890 N   0  0  0  0  0  0  0  0  0  0  0  0
  142.7750   77.8660  220.2840 H   0  0  0  0  0  0  0  0  0  0  0  0
  141.6691   79.7531  218.4731 H   0  0  0  0  0  0  0  0  0  0  0  0
  140.3110   78.7847  219.3467 H   0  0  0  0  0  0  0  0  0  0  0  0
  143.3833   80.9763  222.8489 H   0  0  0  0  0  0  0  0  0  0  0  0
  142.3090   82.1780  222.2171 H   0  0  0  0  0  0  0  0  0  0  0  0
  142.0093   81.2791  224.7643 H   0  0  0  0  0  0  0  0  0  0  0  0
  140.5470   81.5774  223.8166 H   0  0  0  0  0  0  0  0  0  0  0  0
  141.6117   79.0345  224.7969 H   0  0  0  0  0  0  0  0  0  0  0  0
  140.0766   79.2950  223.9825 H   0  0  0  0  0  0  0  0  0  0  0  0
  142.7908   78.5422  222.7102 H   0  0  0  0  0  0  0  0  0  0  0  0
  138.8386   78.3516  222.5105 H   0  0  0  0  0  0  0  0  0  0  0  0
  138.3410   76.0700  221.5040 H   0  0  0  0  0  0  0  0  0  0  0  0
  139.3650   75.0858  218.9948 H   0  0  0  0  0  0  0  0  0  0  0  0
  139.5596   72.8162  217.9808 H   0  0  0  0  0  0  0  0  0  0  0  0
  140.8736   71.0267  219.0920 H   0  0  0  0  0  0  0  0  0  0  0  0
  142.0369   71.4906  221.2724 H   0  0  0  0  0  0  0  0  0  0  0  0
  141.8292   73.7607  222.2679 H   0  0  0  0  0  0  0  0  0  0  0  0
  142.4812   75.3912  216.4065 H   0  0  0  0  0  0  0  0  0  0  0  0
  143.8791   73.3419  216.4875 H   0  0  0  0  0  0  0  0  0  0  0  0
  145.3647   71.8461  217.7585 H   0  0  0  0  0  0  0  0  0  0  0  0
  146.2555   72.8543  221.8612 H   0  0  0  0  0  0  0  0  0  0  0  0
  144.8393   74.8837  221.6884 H   0  0  0  0  0  0  0  0  0  0  0  0
  1  2  2  0
  2  3  1  0
  3  4  1  0
  4  5  1  0
  5  6  2  0
  5  7  1  0
  7  8  1  0
  8  9  1  0
  9 10  1  0
 10 11  1  0
 11 12  1  0
 12 13  2  0
 13 14  1  0
 14 15  1  0
 15 16  1  0
 16 17  2  0
 17 18  1  0
 18 19  2  0
 19 20  1  0
 20 21  2  0
 15 22  2  0
  2 23  1  0
 23 24  2  0
 24 25  1  0
 25 26  2  0
 26 27  1  0
 27 28  2  0
 28 29  1  0
 28 30  1  0
 30 31  2  0
 31 32  1  0
 32 33  2  0
 11  7  1  0
 22 12  1  0
 33 23  1  0
 21 16  1  0
 32 26  1  0
  3 34  1  0
  4 35  1  0
  4 36  1  0
  8 37  1  0
  8 38  1  0
  9 39  1  0
  9 40  1  0
 10 41  1  0
 10 42  1  0
 11 43  1  1
 13 44  1  0
 14 45  1  0
 17 46  1  0
 18 47  1  0
 19 48  1  0
 20 49  1  0
 21 50  1  0
 24 51  1  0
 25 52  1  0
 27 53  1  0
 30 54  1  0
 31 55  1  0
M  END
>  <smiles>  (32) 
O=C(NCC(=O)N1CCC[C@H]1c1c[nH]c(-c2ccccc2)n1)c1ccc2cc(F)ccc2n1

>  <score_type>  (32) 
oracle

>  <origin>  (32) 
autodockgpu

>  <m_score__min__energy>  (32) 
-9.4700000000000006

>  <m_primary>  (32) 
energy

>  <rmsd>  (32) 
8.152388775184225

>  <m_score__min__rmsd>  (32) 
8.152388775184225

>  <meeko>  (32) 
{"free_energy": -6.29, "intermolecular_energy": -8.08, "internal_energy": -4.0, "cluster_size": 4, "cluster_id": 12, "rank_in_cluster": 4}

>  <energy>  (32) 
-6.75

>  <cluster_rmsd>  (32) 
0.79

>  <cluster>  (32) 
7

$$$$

     RDKit          3D

 55 59  0  0  0  0  0  0  0  0999 V2000
  139.3240   74.8490  222.1030 O   0  0  0  0  0  0  0  0  0  0  0  0
  140.4970   75.1530  221.7660 C   0  0  0  0  0  0  0  0  0  0  0  0
  140.8420   76.5610  221.8500 N   0  0  0  0  0  0  0  0  0  0  0  0
  139.8400   77.4480  222.3000 C   0  0  0  0  0  0  0  0  0  0  0  0
  139.8690   78.8540  221.9100 C   0  0  0  0  0  0  0  0  0  0  0  0
  138.9490   79.1750  221.0530 O   0  0  0  0  0  0  0  0  0  0  0  0
  140.7090   79.8970  222.3020 N   0  0  0  0  0  0  0  0  0  0  0  0
  140.8560   80.6070  223.5860 C   0  0  0  0  0  0  0  0  0  0  0  0
  142.3440   80.4790  223.7870 C   0  0  0  0  0  0  0  0  0  0  0  0
  142.9410   80.5110  222.4090 C   0  0  0  0  0  0  0  0  0  0  0  0
  141.7310   80.5470  221.4860 C   0  0  1  0  0  0  0  0  0  0  0  0
  142.0710   79.8260  220.2420 C   0  0  0  0  0  0  0  0  0  0  0  0
  142.4760   80.2800  219.0100 C   0  0  0  0  0  0  0  0  0  0  0  0
  142.6660   79.2220  218.1920 N   0  0  0  0  0  0  0  0  0  0  0  0
  142.3870   78.1040  218.8930 C   0  0  0  0  0  0  0  0  0  0  0  0
  142.4810   76.7590  218.3350 C   0  0  0  0  0  0  0  0  0  0  0  0
  141.3750   75.9370  218.4250 C   0  0  0  0  0  0  0  0  0  0  0  0
  141.4890   74.6670  217.8880 C   0  0  0  0  0  0  0  0  0  0  0  0
  142.6680   74.2280  217.2800 C   0  0  0  0  0  0  0  0  0  0  0  0
  143.7730   75.0810  217.2010 C   0  0  0  0  0  0  0  0  0  0  0  0
  143.6510   76.3460  217.7390 C   0  0  0  0  0  0  0  0  0  0  0  0
  142.0290   78.4820  220.1290 N   0  0  0  0  0  0  0  0  0  0  0  0
  141.4860   74.1950  221.3100 C   0  0  0  0  0  0  0  0  0  0  0  0
  141.1090   72.8920  221.1350 C   0  0  0  0  0  0  0  0  0  0  0  0
  142.0420   71.9770  220.7030 C   0  0  0  0  0  0  0  0  0  0  0  0
  143.3360   72.3720  220.4530 C   0  0  0  0  0  0  0  0  0  0  0  0
  144.3000   71.4870  220.0180 C   0  0  0  0  0  0  0  0  0  0  0  0
  145.5860   71.9700  219.7880 C   0  0  0  0  0  0  0  0  0  0  0  0
  146.5790   71.1430  219.3590 F   0  0  0  0  0  0  0  0  0  0  0  0
  145.8980   73.3000  219.9860 C   0  0  0  0  0  0  0  0  0  0  0  0
  144.9380   74.1780  220.4170 C   0  0  0  0  0  0  0  0  0  0  0  0
  143.6540   73.6980  220.6480 C   0  0  0  0  0  0  0  0  0  0  0  0
  142.7520   74.6020  221.0690 N   0  0  0  0  0  0  0  0  0  0  0  0
  141.8060   76.8550  221.5780 H   0  0  0  0  0  0  0  0  0  0  0  0
  138.8793   77.0430  221.9494 H   0  0  0  0  0  0  0  0  0  0  0  0
  140.0126   77.4877  223.3857 H   0  0  0  0  0  0  0  0  0  0  0  0
  140.5435   81.6589  223.5090 H   0  0  0  0  0  0  0  0  0  0  0  0
  140.2417   80.2103  224.4077 H   0  0  0  0  0  0  0  0  0  0  0  0
  142.7237   81.3172  224.3897 H   0  0  0  0  0  0  0  0  0  0  0  0
  142.6047   79.5542  224.3226 H   0  0  0  0  0  0  0  0  0  0  0  0
  143.5636   81.4076  222.2730 H   0  0  0  0  0  0  0  0  0  0  0  0
  143.5992   79.6519  222.2120 H   0  0  0  0  0  0  0  0  0  0  0  0
  141.3938   81.5390  221.1510 H   0  0  0  0  0  0  0  0  0  0  0  0
  142.6219   81.3348  218.7343 H   0  0  0  0  0  0  0  0  0  0  0  0
  142.9760   79.3350  217.2030 H   0  0  0  0  0  0  0  0  0  0  0  0
  140.4443   76.2770  218.9026 H   0  0  0  0  0  0  0  0  0  0  0  0
  140.6281   73.9843  217.9411 H   0  0  0  0  0  0  0  0  0  0  0  0
  142.7268   73.2116  216.8636 H   0  0  0  0  0  0  0  0  0  0  0  0
  144.7095   74.7543  216.7253 H   0  0  0  0  0  0  0  0  0  0  0  0
  144.5051   77.0375  217.6906 H   0  0  0  0  0  0  0  0  0  0  0  0
  140.0738   72.5794  221.3368 H   0  0  0  0  0  0  0  0  0  0  0  0
  141.7520   70.9260  220.5571 H   0  0  0  0  0  0  0  0  0  0  0  0
  144.0593   70.4259  219.8567 H   0  0  0  0  0  0  0  0  0  0  0  0
  146.9213   73.6566  219.7971 H   0  0  0  0  0  0  0  0  0  0  0  0
  145.1783   75.2395  220.5767 H   0  0  0  0  0  0  0  0  0  0  0  0
  1  2  2  0
  2  3  1  0
  3  4  1  0
  4  5  1  0
  5  6  2  0
  5  7  1  0
  7  8  1  0
  8  9  1  0
  9 10  1  0
 10 11  1  0
 11 12  1  0
 12 13  2  0
 13 14  1  0
 14 15  1  0
 15 16  1  0
 16 17  2  0
 17 18  1  0
 18 19  2  0
 19 20  1  0
 20 21  2  0
 15 22  2  0
  2 23  1  0
 23 24  2  0
 24 25  1  0
 25 26  2  0
 26 27  1  0
 27 28  2  0
 28 29  1  0
 28 30  1  0
 30 31  2  0
 31 32  1  0
 32 33  2  0
 11  7  1  0
 22 12  1  0
 33 23  1  0
 21 16  1  0
 32 26  1  0
  3 34  1  0
  4 35  1  0
  4 36  1  0
  8 37  1  0
  8 38  1  0
  9 39  1  0
  9 40  1  0
 10 41  1  0
 10 42  1  0
 11 43  1  6
 13 44  1  0
 14 45  1  0
 17 46  1  0
 18 47  1  0
 19 48  1  0
 20 49  1  0
 21 50  1  0
 24 51  1  0
 25 52  1  0
 27 53  1  0
 30 54  1  0
 31 55  1  0
M  END
>  <smiles>  (33) 
O=C(NCC(=O)N1CCC[C@H]1c1c[nH]c(-c2ccccc2)n1)c1ccc2cc(F)ccc2n1

>  <score_type>  (33) 
oracle

>  <origin>  (33) 
autodockgpu

>  <m_score__min__energy>  (33) 
-9.4700000000000006

>  <m_primary>  (33) 
energy

>  <rmsd>  (33) 
6.924016438797534

>  <m_score__min__rmsd>  (33) 
6.924016438797534

>  <meeko>  (33) 
{"free_energy": -7.22, "intermolecular_energy": -9.01, "internal_energy": -3.96, "cluster_size": 20, "cluster_id": 7, "rank_in_cluster": 7}

>  <energy>  (33) 
-6.55

>  <cluster_rmsd>  (33) 
0.99

>  <cluster>  (33) 
7

$$$$

     RDKit          3D

 55 59  0  0  0  0  0  0  0  0999 V2000
  141.4650   77.4390  217.3830 O   0  0  0  0  0  0  0  0  0  0  0  0
  142.1890   77.1450  218.3680 C   0  0  0  0  0  0  0  0  0  0  0  0
  142.2020   78.1030  219.4600 N   0  0  0  0  0  0  0  0  0  0  0  0
  141.4100   79.2620  219.3130 C   0  0  0  0  0  0  0  0  0  0  0  0
  141.1540   80.1300  220.4570 C   0  0  0  0  0  0  0  0  0  0  0  0
  140.3040   81.0800  220.2090 O   0  0  0  0  0  0  0  0  0  0  0  0
  141.6600   80.1080  221.7570 N   0  0  0  0  0  0  0  0  0  0  0  0
  142.2160   81.1750  222.6110 C   0  0  0  0  0  0  0  0  0  0  0  0
  141.3820   80.9800  223.8510 C   0  0  0  0  0  0  0  0  0  0  0  0
  141.1110   79.5040  223.9270 C   0  0  0  0  0  0  0  0  0  0  0  0
  141.7260   78.9520  222.6480 C   0  0  1  0  0  0  0  0  0  0  0  0
  140.9230   77.7930  222.2070 C   0  0  0  0  0  0  0  0  0  0  0  0
  139.5750   77.5370  222.2870 C   0  0  0  0  0  0  0  0  0  0  0  0
  139.3230   76.3280  221.7370 N   0  0  0  0  0  0  0  0  0  0  0  0
  140.4970   75.8180  221.3110 C   0  0  0  0  0  0  0  0  0  0  0  0
  140.6200   74.5170  220.6610 C   0  0  0  0  0  0  0  0  0  0  0  0
  139.9630   74.3230  219.4620 C   0  0  0  0  0  0  0  0  0  0  0  0
  140.0950   73.0820  218.8650 C   0  0  0  0  0  0  0  0  0  0  0  0
  140.8590   72.0650  219.4440 C   0  0  0  0  0  0  0  0  0  0  0  0
  141.5150   72.2880  220.6580 C   0  0  0  0  0  0  0  0  0  0  0  0
  141.3780   73.5280  221.2470 C   0  0  0  0  0  0  0  0  0  0  0  0
  141.4550   76.7120  221.6000 N   0  0  0  0  0  0  0  0  0  0  0  0
  142.9830   75.9340  218.4620 C   0  0  0  0  0  0  0  0  0  0  0  0
  143.0110   75.0810  217.3940 C   0  0  0  0  0  0  0  0  0  0  0  0
  143.7630   73.9310  217.4760 C   0  0  0  0  0  0  0  0  0  0  0  0
  144.4750   73.6480  218.6180 C   0  0  0  0  0  0  0  0  0  0  0  0
  145.2400   72.5070  218.7390 C   0  0  0  0  0  0  0  0  0  0  0  0
  145.9310   72.2970  219.9310 C   0  0  0  0  0  0  0  0  0  0  0  0
  146.7020   71.1890  220.1080 F   0  0  0  0  0  0  0  0  0  0  0  0
  145.8580   73.2030  220.9710 C   0  0  0  0  0  0  0  0  0  0  0  0
  145.0980   74.3360  220.8480 C   0  0  0  0  0  0  0  0  0  0  0  0
  144.4070   74.5470  219.6590 C   0  0  0  0  0  0  0  0  0  0  0  0
  143.6760   75.6740  219.5920 N   0  0  0  0  0  0  0  0  0  0  0  0
  142.7910   77.8970  220.2960 H   0  0  0  0  0  0  0  0  0  0  0  0
  141.8986   79.8835  218.5481 H   0  0  0  0  0  0  0  0  0  0  0  0
  140.4145   78.8554  219.0814 H   0  0  0  0  0  0  0  0  0  0  0  0
  143.2867   81.0214  222.8110 H   0  0  0  0  0  0  0  0  0  0  0  0
  142.1721   82.1851  222.1776 H   0  0  0  0  0  0  0  0  0  0  0  0
  141.9336   81.3156  224.7416 H   0  0  0  0  0  0  0  0  0  0  0  0
  140.4504   81.5636  223.8112 H   0  0  0  0  0  0  0  0  0  0  0  0
  141.5903   79.0633  224.8136 H   0  0  0  0  0  0  0  0  0  0  0  0
  140.0390   79.2737  224.0158 H   0  0  0  0  0  0  0  0  0  0  0  0
  142.7548   78.5693  222.7189 H   0  0  0  0  0  0  0  0  0  0  0  0
  138.8225   78.2077  222.7275 H   0  0  0  0  0  0  0  0  0  0  0  0
  138.3610   75.9320  221.6910 H   0  0  0  0  0  0  0  0  0  0  0  0
  139.3610   75.1203  219.0017 H   0  0  0  0  0  0  0  0  0  0  0  0
  139.5851   72.8906  217.9093 H   0  0  0  0  0  0  0  0  0  0  0  0
  140.9441   71.0888  218.9442 H   0  0  0  0  0  0  0  0  0  0  0  0
  142.1211   71.4999  221.1287 H   0  0  0  0  0  0  0  0  0  0  0  0
  141.8838   73.7304  222.2026 H   0  0  0  0  0  0  0  0  0  0  0  0
  142.4406   75.3105  216.4819 H   0  0  0  0  0  0  0  0  0  0  0  0
  143.7946   73.2354  216.6244 H   0  0  0  0  0  0  0  0  0  0  0  0
  145.3033   71.7807  217.9153 H   0  0  0  0  0  0  0  0  0  0  0  0
  146.4125   73.0139  221.9020 H   0  0  0  0  0  0  0  0  0  0  0  0
  145.0354   75.0630  221.6712 H   0  0  0  0  0  0  0  0  0  0  0  0
  1  2  2  0
  2  3  1  0
  3  4  1  0
  4  5  1  0
  5  6  2  0
  5  7  1  0
  7  8  1  0
  8  9  1  0
  9 10  1  0
 10 11  1  0
 11 12  1  0
 12 13  2  0
 13 14  1  0
 14 15  1  0
 15 16  1  0
 16 17  2  0
 17 18  1  0
 18 19  2  0
 19 20  1  0
 20 21  2  0
 15 22  2  0
  2 23  1  0
 23 24  2  0
 24 25  1  0
 25 26  2  0
 26 27  1  0
 27 28  2  0
 28 29  1  0
 28 30  1  0
 30 31  2  0
 31 32  1  0
 32 33  2  0
 11  7  1  0
 22 12  1  0
 33 23  1  0
 21 16  1  0
 32 26  1  0
  3 34  1  0
  4 35  1  0
  4 36  1  0
  8 37  1  0
  8 38  1  0
  9 39  1  0
  9 40  1  0
 10 41  1  0
 10 42  1  0
 11 43  1  1
 13 44  1  0
 14 45  1  0
 17 46  1  0
 18 47  1  0
 19 48  1  0
 20 49  1  0
 21 50  1  0
 24 51  1  0
 25 52  1  0
 27 53  1  0
 30 54  1  0
 31 55  1  0
M  END
>  <smiles>  (34) 
O=C(NCC(=O)N1CCC[C@H]1c1c[nH]c(-c2ccccc2)n1)c1ccc2cc(F)ccc2n1

>  <score_type>  (34) 
oracle

>  <origin>  (34) 
autodockgpu

>  <m_score__min__energy>  (34) 
-9.4700000000000006

>  <m_primary>  (34) 
energy

>  <rmsd>  (34) 
8.143663751872452

>  <m_score__min__rmsd>  (34) 
8.143663751872452

>  <meeko>  (34) 
{"free_energy": -6.36, "intermolecular_energy": -8.15, "internal_energy": -4.11, "cluster_size": 4, "cluster_id": 12, "rank_in_cluster": 2}

>  <energy>  (34) 
-7.31

>  <cluster_rmsd>  (34) 
0.0

>  <cluster>  (34) 
8

$$$$

     RDKit          3D

 55 59  0  0  0  0  0  0  0  0999 V2000
  139.5850   74.5930  222.2140 O   0  0  0  0  0  0  0  0  0  0  0  0
  140.0760   75.5760  221.6020 C   0  0  0  0  0  0  0  0  0  0  0  0
  140.4990   75.3320  220.2350 N   0  0  0  0  0  0  0  0  0  0  0  0
  140.3220   74.0270  219.7250 C   0  0  0  0  0  0  0  0  0  0  0  0
  141.4640   73.1330  219.5710 C   0  0  0  0  0  0  0  0  0  0  0  0
  141.2490   72.1520  218.7470 O   0  0  0  0  0  0  0  0  0  0  0  0
  142.7330   73.1560  220.1510 N   0  0  0  0  0  0  0  0  0  0  0  0
  143.5190   72.1110  220.8320 C   0  0  0  0  0  0  0  0  0  0  0  0
  144.8110   72.2110  220.0620 C   0  0  0  0  0  0  0  0  0  0  0  0
  144.9480   73.6600  219.6920 C   0  0  0  0  0  0  0  0  0  0  0  0
  143.6530   74.2900  220.1870 C   0  0  1  0  0  0  0  0  0  0  0  0
  143.2960   75.3990  219.2790 C   0  0  0  0  0  0  0  0  0  0  0  0
  143.1760   75.4500  217.9110 C   0  0  0  0  0  0  0  0  0  0  0  0
  142.8230   76.7030  217.5480 N   0  0  0  0  0  0  0  0  0  0  0  0
  142.7190   77.4440  218.6710 C   0  0  0  0  0  0  0  0  0  0  0  0
  142.3530   78.8560  218.6730 C   0  0  0  0  0  0  0  0  0  0  0  0
  142.5930   79.5930  217.5300 C   0  0  0  0  0  0  0  0  0  0  0  0
  142.2370   80.9300  217.5560 C   0  0  0  0  0  0  0  0  0  0  0  0
  141.6600   81.5150  218.6860 C   0  0  0  0  0  0  0  0  0  0  0  0
  141.4270   80.7470  219.8300 C   0  0  0  0  0  0  0  0  0  0  0  0
  141.7850   79.4140  219.7960 C   0  0  0  0  0  0  0  0  0  0  0  0
  143.0070   76.6440  219.7090 N   0  0  0  0  0  0  0  0  0  0  0  0
  140.2340   76.8970  222.1800 C   0  0  0  0  0  0  0  0  0  0  0  0
  139.1220   77.5580  222.6260 C   0  0  0  0  0  0  0  0  0  0  0  0
  139.2650   78.8120  223.1760 C   0  0  0  0  0  0  0  0  0  0  0  0
  140.5100   79.3890  223.2740 C   0  0  0  0  0  0  0  0  0  0  0  0
  140.6950   80.6420  223.8180 C   0  0  0  0  0  0  0  0  0  0  0  0
  141.9900   81.1520  223.8790 C   0  0  0  0  0  0  0  0  0  0  0  0
  142.2330   82.3850  224.4060 F   0  0  0  0  0  0  0  0  0  0  0  0
  143.0680   80.4300  223.4100 C   0  0  0  0  0  0  0  0  0  0  0  0
  142.8820   79.1840  222.8690 C   0  0  0  0  0  0  0  0  0  0  0  0
  141.5900   78.6730  222.8070 C   0  0  0  0  0  0  0  0  0  0  0  0
  141.4650   77.4470  222.2680 N   0  0  0  0  0  0  0  0  0  0  0  0
  140.9130   76.1220  219.6930 H   0  0  0  0  0  0  0  0  0  0  0  0
  139.6125   73.5198  220.3953 H   0  0  0  0  0  0  0  0  0  0  0  0
  140.0060   74.2070  218.6869 H   0  0  0  0  0  0  0  0  0  0  0  0
  143.6612   72.3375  221.8990 H   0  0  0  0  0  0  0  0  0  0  0  0
  143.0576   71.1124  220.8348 H   0  0  0  0  0  0  0  0  0  0  0  0
  145.6573   71.8928  220.6885 H   0  0  0  0  0  0  0  0  0  0  0  0
  144.8073   71.5621  219.1738 H   0  0  0  0  0  0  0  0  0  0  0  0
  145.8182   74.1107  220.1917 H   0  0  0  0  0  0  0  0  0  0  0  0
  145.1063   73.8087  218.6137 H   0  0  0  0  0  0  0  0  0  0  0  0
  143.6749   74.7458  221.1879 H   0  0  0  0  0  0  0  0  0  0  0  0
  143.3406   74.6076  217.2230 H   0  0  0  0  0  0  0  0  0  0  0  0
  142.6760   76.9690  216.5510 H   0  0  0  0  0  0  0  0  0  0  0  0
  143.0473   79.1372  216.6379 H   0  0  0  0  0  0  0  0  0  0  0  0
  142.4129   81.5485  216.6635 H   0  0  0  0  0  0  0  0  0  0  0  0
  141.3889   82.5810  218.6752 H   0  0  0  0  0  0  0  0  0  0  0  0
  140.9730   81.1902  220.7286 H   0  0  0  0  0  0  0  0  0  0  0  0
  141.6132   78.7862  220.6827 H   0  0  0  0  0  0  0  0  0  0  0  0
  138.1278   77.0940  222.5462 H   0  0  0  0  0  0  0  0  0  0  0  0
  138.3798   79.3550  223.5387 H   0  0  0  0  0  0  0  0  0  0  0  0
  139.8414   81.2247  224.1946 H   0  0  0  0  0  0  0  0  0  0  0  0
  144.0805   80.8556  223.4703 H   0  0  0  0  0  0  0  0  0  0  0  0
  143.7357   78.6014  222.4924 H   0  0  0  0  0  0  0  0  0  0  0  0
  1  2  2  0
  2  3  1  0
  3  4  1  0
  4  5  1  0
  5  6  2  0
  5  7  1  0
  7  8  1  0
  8  9  1  0
  9 10  1  0
 10 11  1  0
 11 12  1  0
 12 13  2  0
 13 14  1  0
 14 15  1  0
 15 16  1  0
 16 17  2  0
 17 18  1  0
 18 19  2  0
 19 20  1  0
 20 21  2  0
 15 22  2  0
  2 23  1  0
 23 24  2  0
 24 25  1  0
 25 26  2  0
 26 27  1  0
 27 28  2  0
 28 29  1  0
 28 30  1  0
 30 31  2  0
 31 32  1  0
 32 33  2  0
 11  7  1  0
 22 12  1  0
 33 23  1  0
 21 16  1  0
 32 26  1  0
  3 34  1  0
  4 35  1  0
  4 36  1  0
  8 37  1  0
  8 38  1  0
  9 39  1  0
  9 40  1  0
 10 41  1  0
 10 42  1  0
 11 43  1  1
 13 44  1  0
 14 45  1  0
 17 46  1  0
 18 47  1  0
 19 48  1  0
 20 49  1  0
 21 50  1  0
 24 51  1  0
 25 52  1  0
 27 53  1  0
 30 54  1  0
 31 55  1  0
M  END
>  <smiles>  (35) 
O=C(NCC(=O)N1CCC[C@H]1c1c[nH]c(-c2ccccc2)n1)c1ccc2cc(F)ccc2n1

>  <score_type>  (35) 
oracle

>  <origin>  (35) 
autodockgpu

>  <m_score__min__energy>  (35) 
-9.4700000000000006

>  <m_primary>  (35) 
energy

>  <rmsd>  (35) 
7.192256168185943

>  <m_score__min__rmsd>  (35) 
7.192256168185943

>  <meeko>  (35) 
{"free_energy": -7.31, "intermolecular_energy": -9.1, "internal_energy": -3.45, "cluster_size": 5, "cluster_id": 8, "rank_in_cluster": 1}

>  <energy>  (35) 
-7.0

>  <cluster_rmsd>  (35) 
0.7

>  <cluster>  (35) 
8

$$$$

     RDKit          3D

 55 59  0  0  0  0  0  0  0  0999 V2000
  139.3250   74.8310  222.1920 O   0  0  0  0  0  0  0  0  0  0  0  0
  140.4860   75.1360  221.8190 C   0  0  0  0  0  0  0  0  0  0  0  0
  140.8260   76.5470  221.8770 N   0  0  0  0  0  0  0  0  0  0  0  0
  139.8310   77.4340  222.3410 C   0  0  0  0  0  0  0  0  0  0  0  0
  139.8550   78.8400  221.9520 C   0  0  0  0  0  0  0  0  0  0  0  0
  138.9170   79.1640  221.1150 O   0  0  0  0  0  0  0  0  0  0  0  0
  140.7050   79.8810  222.3260 N   0  0  0  0  0  0  0  0  0  0  0  0
  140.8800   80.5930  223.6050 C   0  0  0  0  0  0  0  0  0  0  0  0
  142.3710   80.4610  223.7790 C   0  0  0  0  0  0  0  0  0  0  0  0
  142.9420   80.4870  222.3900 C   0  0  0  0  0  0  0  0  0  0  0  0
  141.7150   80.5250  221.4890 C   0  0  1  0  0  0  0  0  0  0  0  0
  142.0290   79.8010  220.2410 C   0  0  0  0  0  0  0  0  0  0  0  0
  142.3730   80.2530  218.9890 C   0  0  0  0  0  0  0  0  0  0  0  0
  142.5640   79.1910  218.1750 N   0  0  0  0  0  0  0  0  0  0  0  0
  142.3440   78.0730  218.8990 C   0  0  0  0  0  0  0  0  0  0  0  0
  142.4580   76.7250  218.3510 C   0  0  0  0  0  0  0  0  0  0  0  0
  143.6630   76.3470  217.7940 C   0  0  0  0  0  0  0  0  0  0  0  0
  143.7450   75.0640  217.2820 C   0  0  0  0  0  0  0  0  0  0  0  0
  142.6600   74.1850  217.3240 C   0  0  0  0  0  0  0  0  0  0  0  0
  141.4510   74.5930  217.8950 C   0  0  0  0  0  0  0  0  0  0  0  0
  141.3770   75.8730  218.4030 C   0  0  0  0  0  0  0  0  0  0  0  0
  142.0230   78.4550  220.1440 N   0  0  0  0  0  0  0  0  0  0  0  0
  141.4690   74.1770  221.3500 C   0  0  0  0  0  0  0  0  0  0  0  0
  141.0850   72.8770  221.1670 C   0  0  0  0  0  0  0  0  0  0  0  0
  142.0110   71.9620  220.7210 C   0  0  0  0  0  0  0  0  0  0  0  0
  143.3050   72.3540  220.4660 C   0  0  0  0  0  0  0  0  0  0  0  0
  144.2620   71.4680  220.0180 C   0  0  0  0  0  0  0  0  0  0  0  0
  145.5490   71.9480  219.7830 C   0  0  0  0  0  0  0  0  0  0  0  0
  146.5360   71.1200  219.3410 F   0  0  0  0  0  0  0  0  0  0  0  0
  145.8680   73.2750  219.9890 C   0  0  0  0  0  0  0  0  0  0  0  0
  144.9150   74.1540  220.4330 C   0  0  0  0  0  0  0  0  0  0  0  0
  143.6300   73.6770  220.6690 C   0  0  0  0  0  0  0  0  0  0  0  0
  142.7340   74.5810  221.1040 N   0  0  0  0  0  0  0  0  0  0  0  0
  141.7800   76.8420  221.5750 H   0  0  0  0  0  0  0  0  0  0  0  0
  138.8654   77.0296  222.0032 H   0  0  0  0  0  0  0  0  0  0  0  0
  140.0187   77.4729  223.4242 H   0  0  0  0  0  0  0  0  0  0  0  0
  140.5696   81.6457  223.5315 H   0  0  0  0  0  0  0  0  0  0  0  0
  140.2805   80.1994  224.4391 H   0  0  0  0  0  0  0  0  0  0  0  0
  142.7644   81.2998  224.3720 H   0  0  0  0  0  0  0  0  0  0  0  0
  142.6390   79.5372  224.3127 H   0  0  0  0  0  0  0  0  0  0  0  0
  143.5653   81.3809  222.2400 H   0  0  0  0  0  0  0  0  0  0  0  0
  143.5930   79.6248  222.1832 H   0  0  0  0  0  0  0  0  0  0  0  0
  141.3753   81.5173  221.1576 H   0  0  0  0  0  0  0  0  0  0  0  0
  142.4761   81.3085  218.6969 H   0  0  0  0  0  0  0  0  0  0  0  0
  142.8320   79.3020  217.1750 H   0  0  0  0  0  0  0  0  0  0  0  0
  144.5203   77.0353  217.7587 H   0  0  0  0  0  0  0  0  0  0  0  0
  144.6896   74.7273  216.8299 H   0  0  0  0  0  0  0  0  0  0  0  0
  142.7571   73.1715  216.9076 H   0  0  0  0  0  0  0  0  0  0  0  0
  140.5861   73.9146  217.9378 H   0  0  0  0  0  0  0  0  0  0  0  0
  140.4375   76.2199  218.8580 H   0  0  0  0  0  0  0  0  0  0  0  0
  140.0500   72.5671  221.3736 H   0  0  0  0  0  0  0  0  0  0  0  0
  141.7157   70.9135  220.5678 H   0  0  0  0  0  0  0  0  0  0  0  0
  144.0157   70.4091  219.8504 H   0  0  0  0  0  0  0  0  0  0  0  0
  146.8916   73.6285  219.7959 H   0  0  0  0  0  0  0  0  0  0  0  0
  145.1608   75.2132  220.5990 H   0  0  0  0  0  0  0  0  0  0  0  0
  1  2  2  0
  2  3  1  0
  3  4  1  0
  4  5  1  0
  5  6  2  0
  5  7  1  0
  7  8  1  0
  8  9  1  0
  9 10  1  0
 10 11  1  0
 11 12  1  0
 12 13  2  0
 13 14  1  0
 14 15  1  0
 15 16  1  0
 16 17  2  0
 17 18  1  0
 18 19  2  0
 19 20  1  0
 20 21  2  0
 15 22  2  0
  2 23  1  0
 23 24  2  0
 24 25  1  0
 25 26  2  0
 26 27  1  0
 27 28  2  0
 28 29  1  0
 28 30  1  0
 30 31  2  0
 31 32  1  0
 32 33  2  0
 11  7  1  0
 22 12  1  0
 33 23  1  0
 21 16  1  0
 32 26  1  0
  3 34  1  0
  4 35  1  0
  4 36  1  0
  8 37  1  0
  8 38  1  0
  9 39  1  0
  9 40  1  0
 10 41  1  0
 10 42  1  0
 11 43  1  6
 13 44  1  0
 14 45  1  0
 17 46  1  0
 18 47  1  0
 19 48  1  0
 20 49  1  0
 21 50  1  0
 24 51  1  0
 25 52  1  0
 27 53  1  0
 30 54  1  0
 31 55  1  0
M  END
>  <smiles>  (36) 
O=C(NCC(=O)N1CCC[C@H]1c1c[nH]c(-c2ccccc2)n1)c1ccc2cc(F)ccc2n1

>  <score_type>  (36) 
oracle

>  <origin>  (36) 
autodockgpu

>  <m_score__min__energy>  (36) 
-9.4700000000000006

>  <m_primary>  (36) 
energy

>  <rmsd>  (36) 
6.986604585367241

>  <m_score__min__rmsd>  (36) 
6.986604585367241

>  <meeko>  (36) 
{"free_energy": -7.17, "intermolecular_energy": -8.96, "internal_energy": -4.0, "cluster_size": 20, "cluster_id": 7, "rank_in_cluster": 14}

>  <energy>  (36) 
-6.69

>  <cluster_rmsd>  (36) 
0.82

>  <cluster>  (36) 
8

$$$$

     RDKit          3D

 55 59  0  0  0  0  0  0  0  0999 V2000
  139.0640   75.0450  221.6690 O   0  0  0  0  0  0  0  0  0  0  0  0
  140.2790   75.3570  221.5930 C   0  0  0  0  0  0  0  0  0  0  0  0
  140.6010   76.7460  221.8710 N   0  0  0  0  0  0  0  0  0  0  0  0
  139.5300   77.6060  222.1980 C   0  0  0  0  0  0  0  0  0  0  0  0
  139.6630   79.0480  222.0250 C   0  0  0  0  0  0  0  0  0  0  0  0
  138.6870   79.5830  221.3560 O   0  0  0  0  0  0  0  0  0  0  0  0
  140.6480   79.9380  222.4550 N   0  0  0  0  0  0  0  0  0  0  0  0
  140.9210   80.5340  223.7760 C   0  0  0  0  0  0  0  0  0  0  0  0
  142.3810   80.1900  223.9220 C   0  0  0  0  0  0  0  0  0  0  0  0
  142.9460   80.2300  222.5310 C   0  0  0  0  0  0  0  0  0  0  0  0
  141.7330   80.4930  221.6500 C   0  0  1  0  0  0  0  0  0  0  0  0
  141.9410   79.8160  220.3530 C   0  0  0  0  0  0  0  0  0  0  0  0
  142.1330   80.3150  219.0870 C   0  0  0  0  0  0  0  0  0  0  0  0
  142.2790   79.2840  218.2260 N   0  0  0  0  0  0  0  0  0  0  0  0
  142.1810   78.1390  218.9330 C   0  0  0  0  0  0  0  0  0  0  0  0
  142.2890   76.8130  218.3350 C   0  0  0  0  0  0  0  0  0  0  0  0
  141.1540   76.0290  218.2790 C   0  0  0  0  0  0  0  0  0  0  0  0
  141.2820   74.7750  217.7080 C   0  0  0  0  0  0  0  0  0  0  0  0
  142.5030   74.3160  217.2070 C   0  0  0  0  0  0  0  0  0  0  0  0
  143.6370   75.1310  217.2750 C   0  0  0  0  0  0  0  0  0  0  0  0
  143.5010   76.3790  217.8470 C   0  0  0  0  0  0  0  0  0  0  0  0
  141.9780   78.4740  220.2160 N   0  0  0  0  0  0  0  0  0  0  0  0
  141.3390   74.4270  221.2510 C   0  0  0  0  0  0  0  0  0  0  0  0
  141.0450   73.0930  221.1780 C   0  0  0  0  0  0  0  0  0  0  0  0
  142.0460   72.2050  220.8540 C   0  0  0  0  0  0  0  0  0  0  0  0
  143.3210   72.6560  220.6090 C   0  0  0  0  0  0  0  0  0  0  0  0
  144.3500   71.7990  220.2810 C   0  0  0  0  0  0  0  0  0  0  0  0
  145.6130   72.3390  220.0480 C   0  0  0  0  0  0  0  0  0  0  0  0
  146.6680   71.5420  219.7210 F   0  0  0  0  0  0  0  0  0  0  0  0
  145.8390   73.6980  220.1390 C   0  0  0  0  0  0  0  0  0  0  0  0
  144.8150   74.5490  220.4650 C   0  0  0  0  0  0  0  0  0  0  0  0
  143.5540   74.0110  220.6980 C   0  0  0  0  0  0  0  0  0  0  0  0
  142.5860   74.8900  221.0140 N   0  0  0  0  0  0  0  0  0  0  0  0
  141.5990   77.0470  221.8180 H   0  0  0  0  0  0  0  0  0  0  0  0
  138.6737   77.2918  221.5831 H   0  0  0  0  0  0  0  0  0  0  0  0
  139.4445   77.4932  223.2888 H   0  0  0  0  0  0  0  0  0  0  0  0
  140.7560   81.6216  223.7751 H   0  0  0  0  0  0  0  0  0  0  0  0
  140.2761   80.1714  224.5900 H   0  0  0  0  0  0  0  0  0  0  0  0
  142.8869   80.9267  224.5633 H   0  0  0  0  0  0  0  0  0  0  0  0
  142.5223   79.2050  224.3907 H   0  0  0  0  0  0  0  0  0  0  0  0
  143.6845   81.0392  222.4318 H   0  0  0  0  0  0  0  0  0  0  0  0
  143.4734   79.3033  222.2608 H   0  0  0  0  0  0  0  0  0  0  0  0
  141.5308   81.5421  221.3882 H   0  0  0  0  0  0  0  0  0  0  0  0
  142.1630   81.3812  218.8181 H   0  0  0  0  0  0  0  0  0  0  0  0
  142.4350   79.4340  217.2060 H   0  0  0  0  0  0  0  0  0  0  0  0
  140.1901   76.3855  218.6711 H   0  0  0  0  0  0  0  0  0  0  0  0
  140.3989   74.1220  217.6468 H   0  0  0  0  0  0  0  0  0  0  0  0
  142.5720   73.3136  216.7592 H   0  0  0  0  0  0  0  0  0  0  0  0
  144.6066   74.7881  216.8849 H   0  0  0  0  0  0  0  0  0  0  0  0
  144.3777   77.0400  217.9145 H   0  0  0  0  0  0  0  0  0  0  0  0
  140.0238   72.7350  221.3753 H   0  0  0  0  0  0  0  0  0  0  0  0
  141.8243   71.1294  220.7909 H   0  0  0  0  0  0  0  0  0  0  0  0
  144.1780   70.7152  220.2051 H   0  0  0  0  0  0  0  0  0  0  0  0
  146.8453   74.0996  219.9491 H   0  0  0  0  0  0  0  0  0  0  0  0
  144.9868   75.6329  220.5406 H   0  0  0  0  0  0  0  0  0  0  0  0
  1  2  2  0
  2  3  1  0
  3  4  1  0
  4  5  1  0
  5  6  2  0
  5  7  1  0
  7  8  1  0
  8  9  1  0
  9 10  1  0
 10 11  1  0
 11 12  1  0
 12 13  2  0
 13 14  1  0
 14 15  1  0
 15 16  1  0
 16 17  2  0
 17 18  1  0
 18 19  2  0
 19 20  1  0
 20 21  2  0
 15 22  2  0
  2 23  1  0
 23 24  2  0
 24 25  1  0
 25 26  2  0
 26 27  1  0
 27 28  2  0
 28 29  1  0
 28 30  1  0
 30 31  2  0
 31 32  1  0
 32 33  2  0
 11  7  1  0
 22 12  1  0
 33 23  1  0
 21 16  1  0
 32 26  1  0
  3 34  1  0
  4 35  1  0
  4 36  1  0
  8 37  1  0
  8 38  1  0
  9 39  1  0
  9 40  1  0
 10 41  1  0
 10 42  1  0
 11 43  1  6
 13 44  1  0
 14 45  1  0
 17 46  1  0
 18 47  1  0
 19 48  1  0
 20 49  1  0
 21 50  1  0
 24 51  1  0
 25 52  1  0
 27 53  1  0
 30 54  1  0
 31 55  1  0
M  END
>  <smiles>  (37) 
O=C(NCC(=O)N1CCC[C@H]1c1c[nH]c(-c2ccccc2)n1)c1ccc2cc(F)ccc2n1

>  <score_type>  (37) 
oracle

>  <origin>  (37) 
autodockgpu

>  <m_score__min__energy>  (37) 
-9.4700000000000006

>  <m_primary>  (37) 
energy

>  <rmsd>  (37) 
6.91251127338533

>  <m_score__min__rmsd>  (37) 
6.91251127338533

>  <meeko>  (37) 
{"free_energy": -6.82, "intermolecular_energy": -8.61, "internal_energy": -4.12, "cluster_size": 20, "cluster_id": 7, "rank_in_cluster": 17}

>  <energy>  (37) 
-6.65

>  <cluster_rmsd>  (37) 
0.66

>  <cluster>  (37) 
8

$$$$

     RDKit          3D

 55 59  0  0  0  0  0  0  0  0999 V2000
  141.3710   72.3940  221.5980 O   0  0  0  0  0  0  0  0  0  0  0  0
  140.4670   72.5060  222.4640 C   0  0  0  0  0  0  0  0  0  0  0  0
  139.5790   73.6460  222.3190 N   0  0  0  0  0  0  0  0  0  0  0  0
  139.8120   74.5130  221.2290 C   0  0  0  0  0  0  0  0  0  0  0  0
  139.1280   75.7990  221.1500 C   0  0  0  0  0  0  0  0  0  0  0  0
  137.8720   75.7020  220.8360 O   0  0  0  0  0  0  0  0  0  0  0  0
  139.5920   77.0990  221.3540 N   0  0  0  0  0  0  0  0  0  0  0  0
  139.1650   78.1570  222.2890 C   0  0  0  0  0  0  0  0  0  0  0  0
  140.4900   78.5040  222.9160 C   0  0  0  0  0  0  0  0  0  0  0  0
  141.5130   78.3050  221.8330 C   0  0  0  0  0  0  0  0  0  0  0  0
  140.7090   77.7440  220.6680 C   0  0  1  0  0  0  0  0  0  0  0  0
  141.5740   76.8210  219.9050 C   0  0  0  0  0  0  0  0  0  0  0  0
  141.7240   76.6240  218.5530 C   0  0  0  0  0  0  0  0  0  0  0  0
  142.6480   75.6590  218.3500 N   0  0  0  0  0  0  0  0  0  0  0  0
  143.0830   75.2440  219.5580 C   0  0  0  0  0  0  0  0  0  0  0  0
  144.0900   74.2030  219.7360 C   0  0  0  0  0  0  0  0  0  0  0  0
  145.0460   74.3820  220.7160 C   0  0  0  0  0  0  0  0  0  0  0  0
  145.9900   73.3810  220.8660 C   0  0  0  0  0  0  0  0  0  0  0  0
  145.9810   72.2360  220.0640 C   0  0  0  0  0  0  0  0  0  0  0  0
  145.0010   72.0790  219.0800 C   0  0  0  0  0  0  0  0  0  0  0  0
  144.0640   73.0820  218.9370 C   0  0  0  0  0  0  0  0  0  0  0  0
  142.4270   75.9530  220.4880 N   0  0  0  0  0  0  0  0  0  0  0  0
  140.2760   71.5810  223.5660 C   0  0  0  0  0  0  0  0  0  0  0  0
  139.6320   70.3980  223.3270 C   0  0  0  0  0  0  0  0  0  0  0  0
  139.4480   69.5150  224.3670 C   0  0  0  0  0  0  0  0  0  0  0  0
  139.9060   69.8220  225.6270 C   0  0  0  0  0  0  0  0  0  0  0  0
  139.7420   68.9650  226.6940 C   0  0  0  0  0  0  0  0  0  0  0  0
  140.2370   69.3530  227.9370 C   0  0  0  0  0  0  0  0  0  0  0  0
  140.1040   68.5480  229.0280 F   0  0  0  0  0  0  0  0  0  0  0  0
  140.8790   70.5640  228.1070 C   0  0  0  0  0  0  0  0  0  0  0  0
  141.0410   71.4140  227.0440 C   0  0  0  0  0  0  0  0  0  0  0  0
  140.5470   71.0280  225.8030 C   0  0  0  0  0  0  0  0  0  0  0  0
  140.7340   71.9000  224.7960 N   0  0  0  0  0  0  0  0  0  0  0  0
  138.8150   73.7750  223.0180 H   0  0  0  0  0  0  0  0  0  0  0  0
  140.8907   74.7282  221.2217 H   0  0  0  0  0  0  0  0  0  0  0  0
  139.3959   73.9572  220.3758 H   0  0  0  0  0  0  0  0  0  0  0  0
  138.7263   79.0161  221.7603 H   0  0  0  0  0  0  0  0  0  0  0  0
  138.3808   77.8576  222.9999 H   0  0  0  0  0  0  0  0  0  0  0  0
  140.4911   79.5495  223.2580 H   0  0  0  0  0  0  0  0  0  0  0  0
  140.7009   77.8781  223.7956 H   0  0  0  0  0  0  0  0  0  0  0  0
  141.9840   79.2606  221.5592 H   0  0  0  0  0  0  0  0  0  0  0  0
  142.3332   77.6401  222.1414 H   0  0  0  0  0  0  0  0  0  0  0  0
  140.3470   78.4679  219.9230 H   0  0  0  0  0  0  0  0  0  0  0  0
  141.1801   77.1642  217.7641 H   0  0  0  0  0  0  0  0  0  0  0  0
  142.9190   75.3470  217.3930 H   0  0  0  0  0  0  0  0  0  0  0  0
  145.0569   75.2809  221.3499 H   0  0  0  0  0  0  0  0  0  0  0  0
  146.7677   73.4892  221.6364 H   0  0  0  0  0  0  0  0  0  0  0  0
  146.7456   71.4583  220.2075 H   0  0  0  0  0  0  0  0  0  0  0  0
  144.9773   71.1846  218.4400 H   0  0  0  0  0  0  0  0  0  0  0  0
  143.2815   72.9840  218.1701 H   0  0  0  0  0  0  0  0  0  0  0  0
  139.2664   70.1558  222.3182 H   0  0  0  0  0  0  0  0  0  0  0  0
  138.9324   68.5597  224.1895 H   0  0  0  0  0  0  0  0  0  0  0  0
  139.2327   67.9983  226.5671 H   0  0  0  0  0  0  0  0  0  0  0  0
  141.2615   70.8472  229.0987 H   0  0  0  0  0  0  0  0  0  0  0  0
  141.5508   72.3806  227.1700 H   0  0  0  0  0  0  0  0  0  0  0  0
  1  2  2  0
  2  3  1  0
  3  4  1  0
  4  5  1  0
  5  6  2  0
  5  7  1  0
  7  8  1  0
  8  9  1  0
  9 10  1  0
 10 11  1  0
 11 12  1  0
 12 13  2  0
 13 14  1  0
 14 15  1  0
 15 16  1  0
 16 17  2  0
 17 18  1  0
 18 19  2  0
 19 20  1  0
 20 21  2  0
 15 22  2  0
  2 23  1  0
 23 24  2  0
 24 25  1  0
 25 26  2  0
 26 27  1  0
 27 28  2  0
 28 29  1  0
 28 30  1  0
 30 31  2  0
 31 32  1  0
 32 33  2  0
 11  7  1  0
 22 12  1  0
 33 23  1  0
 21 16  1  0
 32 26  1  0
  3 34  1  0
  4 35  1  0
  4 36  1  0
  8 37  1  0
  8 38  1  0
  9 39  1  0
  9 40  1  0
 10 41  1  0
 10 42  1  0
 11 43  1  6
 13 44  1  0
 14 45  1  0
 17 46  1  0
 18 47  1  0
 19 48  1  0
 20 49  1  0
 21 50  1  0
 24 51  1  0
 25 52  1  0
 27 53  1  0
 30 54  1  0
 31 55  1  0
M  END
>  <smiles>  (38) 
O=C(NCC(=O)N1CCC[C@H]1c1c[nH]c(-c2ccccc2)n1)c1ccc2cc(F)ccc2n1

>  <score_type>  (38) 
oracle

>  <origin>  (38) 
autodockgpu

>  <m_score__min__energy>  (38) 
-9.4700000000000006

>  <m_primary>  (38) 
energy

>  <rmsd>  (38) 
5.348315561576487

>  <m_score__min__rmsd>  (38) 
5.348315561576487

>  <meeko>  (38) 
{"free_energy": -8.93, "intermolecular_energy": -10.72, "internal_energy": -1.78, "cluster_size": 6, "cluster_id": 1, "rank_in_cluster": 3}

>  <energy>  (38) 
-5.95

>  <cluster_rmsd>  (38) 
1.61

>  <cluster>  (38) 
8

$$$$

     RDKit          3D

 55 59  0  0  0  0  0  0  0  0999 V2000
  139.3250   74.8550  222.0890 O   0  0  0  0  0  0  0  0  0  0  0  0
  140.4980   75.1590  221.7550 C   0  0  0  0  0  0  0  0  0  0  0  0
  140.8440   76.5670  221.8440 N   0  0  0  0  0  0  0  0  0  0  0  0
  139.8410   77.4530  222.2930 C   0  0  0  0  0  0  0  0  0  0  0  0
  139.8700   78.8590  221.9040 C   0  0  0  0  0  0  0  0  0  0  0  0
  138.9440   79.1820  221.0530 O   0  0  0  0  0  0  0  0  0  0  0  0
  140.7130   79.9010  222.2910 N   0  0  0  0  0  0  0  0  0  0  0  0
  140.8680   80.6120  223.5740 C   0  0  0  0  0  0  0  0  0  0  0  0
  142.3570   80.4820  223.7680 C   0  0  0  0  0  0  0  0  0  0  0  0
  142.9470   80.5110  222.3860 C   0  0  0  0  0  0  0  0  0  0  0  0
  141.7320   80.5480  221.4690 C   0  0  1  0  0  0  0  0  0  0  0  0
  142.0650   79.8260  220.2240 C   0  0  0  0  0  0  0  0  0  0  0  0
  142.4430   80.2800  218.9830 C   0  0  0  0  0  0  0  0  0  0  0  0
  142.6380   79.2190  218.1680 N   0  0  0  0  0  0  0  0  0  0  0  0
  142.3860   78.1010  218.8800 C   0  0  0  0  0  0  0  0  0  0  0  0
  142.4930   76.7550  218.3280 C   0  0  0  0  0  0  0  0  0  0  0  0
  143.6950   76.3740  217.7650 C   0  0  0  0  0  0  0  0  0  0  0  0
  143.7710   75.0930  217.2480 C   0  0  0  0  0  0  0  0  0  0  0  0
  142.6830   74.2170  217.2920 C   0  0  0  0  0  0  0  0  0  0  0  0
  141.4780   74.6270  217.8680 C   0  0  0  0  0  0  0  0  0  0  0  0
  141.4100   75.9060  218.3810 C   0  0  0  0  0  0  0  0  0  0  0  0
  142.0420   78.4810  220.1190 N   0  0  0  0  0  0  0  0  0  0  0  0
  141.4890   74.2020  221.3000 C   0  0  0  0  0  0  0  0  0  0  0  0
  141.1130   72.8980  221.1270 C   0  0  0  0  0  0  0  0  0  0  0  0
  142.0480   71.9840  220.6950 C   0  0  0  0  0  0  0  0  0  0  0  0
  143.3400   72.3810  220.4420 C   0  0  0  0  0  0  0  0  0  0  0  0
  144.3050   71.4970  220.0080 C   0  0  0  0  0  0  0  0  0  0  0  0
  145.5900   71.9810  219.7750 C   0  0  0  0  0  0  0  0  0  0  0  0
  146.5840   71.1550  219.3460 F   0  0  0  0  0  0  0  0  0  0  0  0
  145.9010   73.3120  219.9700 C   0  0  0  0  0  0  0  0  0  0  0  0
  144.9400   74.1900  220.4020 C   0  0  0  0  0  0  0  0  0  0  0  0
  143.6560   73.7070  220.6350 C   0  0  0  0  0  0  0  0  0  0  0  0
  142.7530   74.6110  221.0570 N   0  0  0  0  0  0  0  0  0  0  0  0
  141.8090   76.8610  221.5750 H   0  0  0  0  0  0  0  0  0  0  0  0
  138.8810   77.0477  221.9407 H   0  0  0  0  0  0  0  0  0  0  0  0
  140.0118   77.4920  223.3790 H   0  0  0  0  0  0  0  0  0  0  0  0
  140.5567   81.6643  223.4976 H   0  0  0  0  0  0  0  0  0  0  0  0
  140.2573   80.2167  224.3991 H   0  0  0  0  0  0  0  0  0  0  0  0
  142.7411   81.3205  224.3675 H   0  0  0  0  0  0  0  0  0  0  0  0
  142.6192   79.5579  224.3039 H   0  0  0  0  0  0  0  0  0  0  0  0
  143.5706   81.4062  222.2455 H   0  0  0  0  0  0  0  0  0  0  0  0
  143.6025   79.6504  222.1867 H   0  0  0  0  0  0  0  0  0  0  0  0
  141.3942   81.5400  221.1346 H   0  0  0  0  0  0  0  0  0  0  0  0
  142.5668   81.3355  218.6989 H   0  0  0  0  0  0  0  0  0  0  0  0
  142.9310   79.3320  217.1750 H   0  0  0  0  0  0  0  0  0  0  0  0
  144.5547   77.0593  217.7292 H   0  0  0  0  0  0  0  0  0  0  0  0
  144.7125   74.7551  216.7903 H   0  0  0  0  0  0  0  0  0  0  0  0
  142.7754   73.2042  216.8729 H   0  0  0  0  0  0  0  0  0  0  0  0
  140.6109   73.9515  217.9111 H   0  0  0  0  0  0  0  0  0  0  0  0
  140.4733   76.2540  218.8409 H   0  0  0  0  0  0  0  0  0  0  0  0
  140.0785   72.5841  221.3301 H   0  0  0  0  0  0  0  0  0  0  0  0
  141.7602   70.9320  220.5517 H   0  0  0  0  0  0  0  0  0  0  0  0
  144.0657   70.4351  219.8496 H   0  0  0  0  0  0  0  0  0  0  0  0
  146.9234   73.6696  219.7782 H   0  0  0  0  0  0  0  0  0  0  0  0
  145.1789   75.2520  220.5607 H   0  0  0  0  0  0  0  0  0  0  0  0
  1  2  2  0
  2  3  1  0
  3  4  1  0
  4  5  1  0
  5  6  2  0
  5  7  1  0
  7  8  1  0
  8  9  1  0
  9 10  1  0
 10 11  1  0
 11 12  1  0
 12 13  2  0
 13 14  1  0
 14 15  1  0
 15 16  1  0
 16 17  2  0
 17 18  1  0
 18 19  2  0
 19 20  1  0
 20 21  2  0
 15 22  2  0
  2 23  1  0
 23 24  2  0
 24 25  1  0
 25 26  2  0
 26 27  1  0
 27 28  2  0
 28 29  1  0
 28 30  1  0
 30 31  2  0
 31 32  1  0
 32 33  2  0
 11  7  1  0
 22 12  1  0
 33 23  1  0
 21 16  1  0
 32 26  1  0
  3 34  1  0
  4 35  1  0
  4 36  1  0
  8 37  1  0
  8 38  1  0
  9 39  1  0
  9 40  1  0
 10 41  1  0
 10 42  1  0
 11 43  1  6
 13 44  1  0
 14 45  1  0
 17 46  1  0
 18 47  1  0
 19 48  1  0
 20 49  1  0
 21 50  1  0
 24 51  1  0
 25 52  1  0
 27 53  1  0
 30 54  1  0
 31 55  1  0
M  END
>  <smiles>  (39) 
O=C(NCC(=O)N1CCC[C@H]1c1c[nH]c(-c2ccccc2)n1)c1ccc2cc(F)ccc2n1

>  <score_type>  (39) 
oracle

>  <origin>  (39) 
autodockgpu

>  <m_score__min__energy>  (39) 
-9.4700000000000006

>  <m_primary>  (39) 
energy

>  <rmsd>  (39) 
7.003186912586406

>  <m_score__min__rmsd>  (39) 
7.003186912586406

>  <meeko>  (39) 
{"free_energy": -7.2, "intermolecular_energy": -8.99, "internal_energy": -3.98, "cluster_size": 20, "cluster_id": 7, "rank_in_cluster": 12}

>  <energy>  (39) 
-7.25

>  <cluster_rmsd>  (39) 
0.0

>  <cluster>  (39) 
9

$$$$

     RDKit          3D

 55 59  0  0  0  0  0  0  0  0999 V2000
  139.3670   74.8290  222.3380 O   0  0  0  0  0  0  0  0  0  0  0  0
  140.5080   75.1260  221.9040 C   0  0  0  0  0  0  0  0  0  0  0  0
  140.8730   76.5300  221.9730 N   0  0  0  0  0  0  0  0  0  0  0  0
  139.9210   77.4210  222.5150 C   0  0  0  0  0  0  0  0  0  0  0  0
  139.9110   78.8240  222.1170 C   0  0  0  0  0  0  0  0  0  0  0  0
  138.9400   79.1280  221.3100 O   0  0  0  0  0  0  0  0  0  0  0  0
  140.7580   79.8800  222.4550 N   0  0  0  0  0  0  0  0  0  0  0  0
  140.9620   80.6050  223.7230 C   0  0  0  0  0  0  0  0  0  0  0  0
  142.4600   80.4950  223.8500 C   0  0  0  0  0  0  0  0  0  0  0  0
  142.9860   80.5180  222.4430 C   0  0  0  0  0  0  0  0  0  0  0  0
  141.7310   80.5320  221.5820 C   0  0  1  0  0  0  0  0  0  0  0  0
  142.0150   79.8010  220.3300 C   0  0  0  0  0  0  0  0  0  0  0  0
  142.3050   80.2480  219.0630 C   0  0  0  0  0  0  0  0  0  0  0  0
  142.4900   79.1820  218.2530 N   0  0  0  0  0  0  0  0  0  0  0  0
  142.3190   78.0670  218.9940 C   0  0  0  0  0  0  0  0  0  0  0  0
  142.4410   76.7160  218.4550 C   0  0  0  0  0  0  0  0  0  0  0  0
  141.3060   75.9320  218.3980 C   0  0  0  0  0  0  0  0  0  0  0  0
  141.4470   74.6560  217.8830 C   0  0  0  0  0  0  0  0  0  0  0  0
  142.6820   74.1750  217.4380 C   0  0  0  0  0  0  0  0  0  0  0  0
  143.8160   74.9890  217.5060 C   0  0  0  0  0  0  0  0  0  0  0  0
  143.6660   76.2610  218.0210 C   0  0  0  0  0  0  0  0  0  0  0  0
  142.0340   78.4550  220.2460 N   0  0  0  0  0  0  0  0  0  0  0  0
  141.4470   74.1650  221.3560 C   0  0  0  0  0  0  0  0  0  0  0  0
  140.9870   72.9260  221.0010 C   0  0  0  0  0  0  0  0  0  0  0  0
  141.8720   72.0090  220.4800 C   0  0  0  0  0  0  0  0  0  0  0  0
  143.1980   72.3380  220.3200 C   0  0  0  0  0  0  0  0  0  0  0  0
  144.1150   71.4480  219.8020 C   0  0  0  0  0  0  0  0  0  0  0  0
  145.4390   71.8620  219.6730 C   0  0  0  0  0  0  0  0  0  0  0  0
  146.3880   71.0260  219.1680 F   0  0  0  0  0  0  0  0  0  0  0  0
  145.8340   73.1290  220.0510 C   0  0  0  0  0  0  0  0  0  0  0  0
  144.9200   74.0120  220.5660 C   0  0  0  0  0  0  0  0  0  0  0  0
  143.5980   73.6010  220.6960 C   0  0  0  0  0  0  0  0  0  0  0  0
  142.7450   74.5070  221.2060 N   0  0  0  0  0  0  0  0  0  0  0  0
  141.8120   76.8200  221.6220 H   0  0  0  0  0  0  0  0  0  0  0  0
  138.9301   77.0149  222.2637 H   0  0  0  0  0  0  0  0  0  0  0  0
  140.2013   77.4668  223.5777 H   0  0  0  0  0  0  0  0  0  0  0  0
  140.6343   81.6526  223.6514 H   0  0  0  0  0  0  0  0  0  0  0  0
  140.3945   80.2103  224.5786 H   0  0  0  0  0  0  0  0  0  0  0  0
  142.8603   81.3438  224.4238 H   0  0  0  0  0  0  0  0  0  0  0  0
  142.7579   79.5792  224.3816 H   0  0  0  0  0  0  0  0  0  0  0  0
  143.5916   81.4192  222.2664 H   0  0  0  0  0  0  0  0  0  0  0  0
  143.6421   79.6632  222.2218 H   0  0  0  0  0  0  0  0  0  0  0  0
  141.3674   81.5172  221.2546 H   0  0  0  0  0  0  0  0  0  0  0  0
  142.3751   81.3025  218.7577 H   0  0  0  0  0  0  0  0  0  0  0  0
  142.7200   79.2890  217.2420 H   0  0  0  0  0  0  0  0  0  0  0  0
  140.3321   76.3058  218.7469 H   0  0  0  0  0  0  0  0  0  0  0  0
  140.5642   74.0025  217.8220 H   0  0  0  0  0  0  0  0  0  0  0  0
  142.7612   73.1549  217.0340 H   0  0  0  0  0  0  0  0  0  0  0  0
  144.7959   74.6280  217.1605 H   0  0  0  0  0  0  0  0  0  0  0  0
  144.5416   76.9236  218.0859 H   0  0  0  0  0  0  0  0  0  0  0  0
  139.9258   72.6666  221.1300 H   0  0  0  0  0  0  0  0  0  0  0  0
  141.5171   71.0089  220.1904 H   0  0  0  0  0  0  0  0  0  0  0  0
  143.8088   70.4361  219.4981 H   0  0  0  0  0  0  0  0  0  0  0  0
  146.8856   73.4317  219.9388 H   0  0  0  0  0  0  0  0  0  0  0  0
  145.2261   75.0239  220.8698 H   0  0  0  0  0  0  0  0  0  0  0  0
  1  2  2  0
  2  3  1  0
  3  4  1  0
  4  5  1  0
  5  6  2  0
  5  7  1  0
  7  8  1  0
  8  9  1  0
  9 10  1  0
 10 11  1  0
 11 12  1  0
 12 13  2  0
 13 14  1  0
 14 15  1  0
 15 16  1  0
 16 17  2  0
 17 18  1  0
 18 19  2  0
 19 20  1  0
 20 21  2  0
 15 22  2  0
  2 23  1  0
 23 24  2  0
 24 25  1  0
 25 26  2  0
 26 27  1  0
 27 28  2  0
 28 29  1  0
 28 30  1  0
 30 31  2  0
 31 32  1  0
 32 33  2  0
 11  7  1  0
 22 12  1  0
 33 23  1  0
 21 16  1  0
 32 26  1  0
  3 34  1  0
  4 35  1  0
  4 36  1  0
  8 37  1  0
  8 38  1  0
  9 39  1  0
  9 40  1  0
 10 41  1  0
 10 42  1  0
 11 43  1  6
 13 44  1  0
 14 45  1  0
 17 46  1  0
 18 47  1  0
 19 48  1  0
 20 49  1  0
 21 50  1  0
 24 51  1  0
 25 52  1  0
 27 53  1  0
 30 54  1  0
 31 55  1  0
M  END
>  <smiles>  (40) 
O=C(NCC(=O)N1CCC[C@H]1c1c[nH]c(-c2ccccc2)n1)c1ccc2cc(F)ccc2n1

>  <score_type>  (40) 
oracle

>  <origin>  (40) 
autodockgpu

>  <m_score__min__energy>  (40) 
-9.4700000000000006

>  <m_primary>  (40) 
energy

>  <rmsd>  (40) 
6.92921088047266

>  <m_score__min__rmsd>  (40) 
6.92921088047266

>  <meeko>  (40) 
{"free_energy": -7.04, "intermolecular_energy": -8.83, "internal_energy": -3.99, "cluster_size": 20, "cluster_id": 7, "rank_in_cluster": 15}

>  <energy>  (40) 
-7.18

>  <cluster_rmsd>  (40) 
0.2

>  <cluster>  (40) 
9

$$$$

     RDKit          3D

 55 59  0  0  0  0  0  0  0  0999 V2000
  132.5880   69.8430  226.4620 O   0  0  0  0  0  0  0  0  0  0  0  0
  133.3070   70.8710  226.3790 C   0  0  0  0  0  0  0  0  0  0  0  0
  134.6380   70.6780  225.8310 N   0  0  0  0  0  0  0  0  0  0  0  0
  134.9960   69.3680  225.4470 C   0  0  0  0  0  0  0  0  0  0  0  0
  134.9930   68.9840  224.0400 C   0  0  0  0  0  0  0  0  0  0  0  0
  134.5550   67.7800  223.8310 O   0  0  0  0  0  0  0  0  0  0  0  0
  135.3750   69.6860  222.8960 N   0  0  0  0  0  0  0  0  0  0  0  0
  134.5930   70.4610  221.9150 C   0  0  0  0  0  0  0  0  0  0  0  0
  135.3700   71.7530  221.9230 C   0  0  0  0  0  0  0  0  0  0  0  0
  136.8000   71.3620  222.1660 C   0  0  0  0  0  0  0  0  0  0  0  0
  136.7360   69.8580  222.3930 C   0  0  1  0  0  0  0  0  0  0  0  0
  137.7950   69.4850  223.3520 C   0  0  0  0  0  0  0  0  0  0  0  0
  138.5300   68.3310  223.4920 C   0  0  0  0  0  0  0  0  0  0  0  0
  139.3850   68.4780  224.5270 N   0  0  0  0  0  0  0  0  0  0  0  0
  139.2000   69.7110  225.0430 C   0  0  0  0  0  0  0  0  0  0  0  0
  139.9530   70.2280  226.1810 C   0  0  0  0  0  0  0  0  0  0  0  0
  140.3900   71.5370  226.1330 C   0  0  0  0  0  0  0  0  0  0  0  0
  141.1010   72.0040  227.2240 C   0  0  0  0  0  0  0  0  0  0  0  0
  141.3680   71.1930  228.3300 C   0  0  0  0  0  0  0  0  0  0  0  0
  140.9130   69.8710  228.3540 C   0  0  0  0  0  0  0  0  0  0  0  0
  140.2050   69.4130  227.2620 C   0  0  0  0  0  0  0  0  0  0  0  0
  138.2380   70.3080  224.3240 N   0  0  0  0  0  0  0  0  0  0  0  0
  132.8820   72.1960  226.7910 C   0  0  0  0  0  0  0  0  0  0  0  0
  131.7410   72.3190  227.5350 C   0  0  0  0  0  0  0  0  0  0  0  0
  131.3330   73.5730  227.9300 C   0  0  0  0  0  0  0  0  0  0  0  0
  132.0650   74.6830  227.5790 C   0  0  0  0  0  0  0  0  0  0  0  0
  131.6900   75.9560  227.9550 C   0  0  0  0  0  0  0  0  0  0  0  0
  132.4880   77.0260  227.5580 C   0  0  0  0  0  0  0  0  0  0  0  0
  132.1680   78.3050  227.8990 F   0  0  0  0  0  0  0  0  0  0  0  0
  133.6300   76.8280  226.8070 C   0  0  0  0  0  0  0  0  0  0  0  0
  134.0010   75.5620  226.4340 C   0  0  0  0  0  0  0  0  0  0  0  0
  133.2040   74.4930  226.8300 C   0  0  0  0  0  0  0  0  0  0  0  0
  133.6150   73.2740  226.4370 N   0  0  0  0  0  0  0  0  0  0  0  0
  135.2660   71.5070  225.7460 H   0  0  0  0  0  0  0  0  0  0  0  0
  136.0175   69.1985  225.8182 H   0  0  0  0  0  0  0  0  0  0  0  0
  134.1883   68.7549  225.8734 H   0  0  0  0  0  0  0  0  0  0  0  0
  134.5989   69.9872  220.9223 H   0  0  0  0  0  0  0  0  0  0  0  0
  133.5234   70.5621  222.1510 H   0  0  0  0  0  0  0  0  0  0  0  0
  135.2713   72.2666  220.9553 H   0  0  0  0  0  0  0  0  0  0  0  0
  135.0006   72.4457  222.6935 H   0  0  0  0  0  0  0  0  0  0  0  0
  137.4244   71.5995  221.2921 H   0  0  0  0  0  0  0  0  0  0  0  0
  137.2481   71.8999  223.0144 H   0  0  0  0  0  0  0  0  0  0  0  0
  136.9146   69.2173  221.5169 H   0  0  0  0  0  0  0  0  0  0  0  0
  138.4366   67.4336  222.8628 H   0  0  0  0  0  0  0  0  0  0  0  0
  140.0420   67.7210  224.8130 H   0  0  0  0  0  0  0  0  0  0  0  0
  140.1819   72.1803  225.2653 H   0  0  0  0  0  0  0  0  0  0  0  0
  141.4659   73.0417  227.2207 H   0  0  0  0  0  0  0  0  0  0  0  0
  141.9362   71.5946  229.1820 H   0  0  0  0  0  0  0  0  0  0  0  0
  141.1131   69.2173  229.2157 H   0  0  0  0  0  0  0  0  0  0  0  0
  139.8348   68.3772  227.2547 H   0  0  0  0  0  0  0  0  0  0  0  0
  131.1579   71.4289  227.8137 H   0  0  0  0  0  0  0  0  0  0  0  0
  130.4175   73.6877  228.5289 H   0  0  0  0  0  0  0  0  0  0  0  0
  130.7825   76.1220  228.5540 H   0  0  0  0  0  0  0  0  0  0  0  0
  134.2444   77.6896  226.5069 H   0  0  0  0  0  0  0  0  0  0  0  0
  134.9085   75.3954  225.8351 H   0  0  0  0  0  0  0  0  0  0  0  0
  1  2  2  0
  2  3  1  0
  3  4  1  0
  4  5  1  0
  5  6  2  0
  5  7  1  0
  7  8  1  0
  8  9  1  0
  9 10  1  0
 10 11  1  0
 11 12  1  0
 12 13  2  0
 13 14  1  0
 14 15  1  0
 15 16  1  0
 16 17  2  0
 17 18  1  0
 18 19  2  0
 19 20  1  0
 20 21  2  0
 15 22  2  0
  2 23  1  0
 23 24  2  0
 24 25  1  0
 25 26  2  0
 26 27  1  0
 27 28  2  0
 28 29  1  0
 28 30  1  0
 30 31  2  0
 31 32  1  0
 32 33  2  0
 11  7  1  0
 22 12  1  0
 33 23  1  0
 21 16  1  0
 32 26  1  0
  3 34  1  0
  4 35  1  0
  4 36  1  0
  8 37  1  0
  8 38  1  0
  9 39  1  0
  9 40  1  0
 10 41  1  0
 10 42  1  0
 11 43  1  6
 13 44  1  0
 14 45  1  0
 17 46  1  0
 18 47  1  0
 19 48  1  0
 20 49  1  0
 21 50  1  0
 24 51  1  0
 25 52  1  0
 27 53  1  0
 30 54  1  0
 31 55  1  0
M  END
>  <smiles>  (41) 
O=C(NCC(=O)N1CCC[C@H]1c1c[nH]c(-c2ccccc2)n1)c1ccc2cc(F)ccc2n1

>  <score_type>  (41) 
oracle

>  <origin>  (41) 
autodockgpu

>  <m_score__min__energy>  (41) 
-9.4700000000000006

>  <m_primary>  (41) 
energy

>  <rmsd>  (41) 
9.783055011459966

>  <m_score__min__rmsd>  (41) 
9.783055011459966

>  <meeko>  (41) 
{"free_energy": -8.62, "intermolecular_energy": -10.41, "internal_energy": -1.97, "cluster_size": 1, "cluster_id": 5, "rank_in_cluster": 1}

>  <energy>  (41) 
-7.17

>  <cluster_rmsd>  (41) 
0.12

>  <cluster>  (41) 
9

$$$$

     RDKit          3D

 55 59  0  0  0  0  0  0  0  0999 V2000
  139.1420   77.9090  223.0290 O   0  0  0  0  0  0  0  0  0  0  0  0
  139.8200   76.9310  222.6230 C   0  0  0  0  0  0  0  0  0  0  0  0
  141.2570   77.1290  222.5650 N   0  0  0  0  0  0  0  0  0  0  0  0
  141.7540   78.3890  222.9650 C   0  0  0  0  0  0  0  0  0  0  0  0
  141.8890   79.4710  221.9970 C   0  0  0  0  0  0  0  0  0  0  0  0
  142.9620   80.1840  222.1610 O   0  0  0  0  0  0  0  0  0  0  0  0
  141.0710   79.8610  220.9360 N   0  0  0  0  0  0  0  0  0  0  0  0
  140.1930   81.0320  220.7540 C   0  0  0  0  0  0  0  0  0  0  0  0
  140.6950   81.5320  219.4240 C   0  0  0  0  0  0  0  0  0  0  0  0
  141.1070   80.3050  218.6620 C   0  0  0  0  0  0  0  0  0  0  0  0
  140.9120   79.1710  219.6580 C   0  0  1  0  0  0  0  0  0  0  0  0
  141.9310   78.1350  219.3910 C   0  0  0  0  0  0  0  0  0  0  0  0
  142.9390   78.0690  218.4590 C   0  0  0  0  0  0  0  0  0  0  0  0
  143.6100   76.9070  218.6180 N   0  0  0  0  0  0  0  0  0  0  0  0
  143.0370   76.2380  219.6400 C   0  0  0  0  0  0  0  0  0  0  0  0
  143.4960   74.9330  220.1040 C   0  0  0  0  0  0  0  0  0  0  0  0
  142.5800   73.9010  220.1580 C   0  0  0  0  0  0  0  0  0  0  0  0
  143.0390   72.6730  220.6010 C   0  0  0  0  0  0  0  0  0  0  0  0
  144.3710   72.4790  220.9790 C   0  0  0  0  0  0  0  0  0  0  0  0
  145.2780   73.5400  220.9140 C   0  0  0  0  0  0  0  0  0  0  0  0
  144.8120   74.7610  220.4710 C   0  0  0  0  0  0  0  0  0  0  0  0
  142.0250   76.9900  220.0980 N   0  0  0  0  0  0  0  0  0  0  0  0
  139.2520   75.6570  222.2230 C   0  0  0  0  0  0  0  0  0  0  0  0
  137.9680   75.6280  221.7510 C   0  0  0  0  0  0  0  0  0  0  0  0
  137.4230   74.4230  221.3690 C   0  0  0  0  0  0  0  0  0  0  0  0
  138.1620   73.2670  221.4630 C   0  0  0  0  0  0  0  0  0  0  0  0
  137.6530   72.0410  221.0910 C   0  0  0  0  0  0  0  0  0  0  0  0
  138.4690   70.9190  221.2180 C   0  0  0  0  0  0  0  0  0  0  0  0
  138.0200   69.6820  220.8670 F   0  0  0  0  0  0  0  0  0  0  0  0
  139.7580   71.0210  221.7020 C   0  0  0  0  0  0  0  0  0  0  0  0
  140.2630   72.2410  222.0710 C   0  0  0  0  0  0  0  0  0  0  0  0
  139.4490   73.3620  221.9460 C   0  0  0  0  0  0  0  0  0  0  0  0
  139.9940   74.5320  222.3220 N   0  0  0  0  0  0  0  0  0  0  0  0
  141.8560   76.3420  222.2320 H   0  0  0  0  0  0  0  0  0  0  0  0
  141.0838   78.7556  223.7565 H   0  0  0  0  0  0  0  0  0  0  0  0
  142.7966   78.1691  223.2382 H   0  0  0  0  0  0  0  0  0  0  0  0
  139.1325   80.7437  220.7077 H   0  0  0  0  0  0  0  0  0  0  0  0
  140.2293   81.7692  221.5696 H   0  0  0  0  0  0  0  0  0  0  0  0
  139.8968   82.0668  218.8885 H   0  0  0  0  0  0  0  0  0  0  0  0
  141.5305   82.2376  219.5429 H   0  0  0  0  0  0  0  0  0  0  0  0
  140.4698   80.1620  217.7769 H   0  0  0  0  0  0  0  0  0  0  0  0
  142.1391   80.3662  218.2865 H   0  0  0  0  0  0  0  0  0  0  0  0
  139.9517   78.6360  219.6170 H   0  0  0  0  0  0  0  0  0  0  0  0
  143.1633   78.8381  217.7052 H   0  0  0  0  0  0  0  0  0  0  0  0
  144.4180   76.6480  218.0130 H   0  0  0  0  0  0  0  0  0  0  0  0
  141.5310   74.0487  219.8617 H   0  0  0  0  0  0  0  0  0  0  0  0
  142.3376   71.8275  220.6572 H   0  0  0  0  0  0  0  0  0  0  0  0
  144.7051   71.4907  221.3277 H   0  0  0  0  0  0  0  0  0  0  0  0
  146.3299   73.4062  221.2066 H   0  0  0  0  0  0  0  0  0  0  0  0
  145.5050   75.6131  220.4099 H   0  0  0  0  0  0  0  0  0  0  0  0
  137.3796   76.5545  221.6778 H   0  0  0  0  0  0  0  0  0  0  0  0
  136.3922   74.3846  220.9870 H   0  0  0  0  0  0  0  0  0  0  0  0
  136.6275   71.9509  220.7033 H   0  0  0  0  0  0  0  0  0  0  0  0
  140.3823   70.1198  221.7919 H   0  0  0  0  0  0  0  0  0  0  0  0
  141.2890   72.3313  222.4573 H   0  0  0  0  0  0  0  0  0  0  0  0
  1  2  2  0
  2  3  1  0
  3  4  1  0
  4  5  1  0
  5  6  2  0
  5  7  1  0
  7  8  1  0
  8  9  1  0
  9 10  1  0
 10 11  1  0
 11 12  1  0
 12 13  2  0
 13 14  1  0
 14 15  1  0
 15 16  1  0
 16 17  2  0
 17 18  1  0
 18 19  2  0
 19 20  1  0
 20 21  2  0
 15 22  2  0
  2 23  1  0
 23 24  2  0
 24 25  1  0
 25 26  2  0
 26 27  1  0
 27 28  2  0
 28 29  1  0
 28 30  1  0
 30 31  2  0
 31 32  1  0
 32 33  2  0
 11  7  1  0
 22 12  1  0
 33 23  1  0
 21 16  1  0
 32 26  1  0
  3 34  1  0
  4 35  1  0
  4 36  1  0
  8 37  1  0
  8 38  1  0
  9 39  1  0
  9 40  1  0
 10 41  1  0
 10 42  1  0
 11 43  1  1
 13 44  1  0
 14 45  1  0
 17 46  1  0
 18 47  1  0
 19 48  1  0
 20 49  1  0
 21 50  1  0
 24 51  1  0
 25 52  1  0
 27 53  1  0
 30 54  1  0
 31 55  1  0
M  END
>  <smiles>  (42) 
O=C(NCC(=O)N1CCC[C@H]1c1c[nH]c(-c2ccccc2)n1)c1ccc2cc(F)ccc2n1

>  <score_type>  (42) 
oracle

>  <origin>  (42) 
autodockgpu

>  <m_score__min__energy>  (42) 
-9.4700000000000006

>  <m_primary>  (42) 
energy

>  <rmsd>  (42) 
6.722075743865787

>  <m_score__min__rmsd>  (42) 
6.722075743865787

>  <meeko>  (42) 
{"free_energy": -6.99, "intermolecular_energy": -8.78, "internal_energy": -3.3, "cluster_size": 1, "cluster_id": 10, "rank_in_cluster": 1}

>  <energy>  (42) 
-7.12

>  <cluster_rmsd>  (42) 
0.14

>  <cluster>  (42) 
9

$$$$

     RDKit          3D

 55 59  0  0  0  0  0  0  0  0999 V2000
  136.0990   76.4560  221.7720 O   0  0  0  0  0  0  0  0  0  0  0  0
  137.2740   76.3990  222.2160 C   0  0  0  0  0  0  0  0  0  0  0  0
  137.8250   75.0680  222.4000 N   0  0  0  0  0  0  0  0  0  0  0  0
  136.9980   73.9740  222.0660 C   0  0  0  0  0  0  0  0  0  0  0  0
  137.5320   72.6160  222.0730 C   0  0  0  0  0  0  0  0  0  0  0  0
  137.4230   72.0090  220.9310 O   0  0  0  0  0  0  0  0  0  0  0  0
  138.1340   71.8720  223.0890 N   0  0  0  0  0  0  0  0  0  0  0  0
  137.5810   70.9090  224.0580 C   0  0  0  0  0  0  0  0  0  0  0  0
  138.5100   69.7440  223.8310 C   0  0  0  0  0  0  0  0  0  0  0  0
  139.8390   70.3520  223.4810 C   0  0  0  0  0  0  0  0  0  0  0  0
  139.5560   71.8470  223.4240 C   0  0  1  0  0  0  0  0  0  0  0  0
  140.4370   72.4500  222.4040 C   0  0  0  0  0  0  0  0  0  0  0  0
  141.3990   71.8990  221.5920 C   0  0  0  0  0  0  0  0  0  0  0  0
  141.9340   72.8710  220.8210 N   0  0  0  0  0  0  0  0  0  0  0  0
  141.3200   74.0300  221.1350 C   0  0  0  0  0  0  0  0  0  0  0  0
  141.6370   75.3060  220.5030 C   0  0  0  0  0  0  0  0  0  0  0  0
  140.6180   76.2230  220.3370 C   0  0  0  0  0  0  0  0  0  0  0  0
  140.9440   77.4250  219.7350 C   0  0  0  0  0  0  0  0  0  0  0  0
  142.2450   77.7060  219.3110 C   0  0  0  0  0  0  0  0  0  0  0  0
  143.2590   76.7610  219.4900 C   0  0  0  0  0  0  0  0  0  0  0  0
  142.9260   75.5640  220.0920 C   0  0  0  0  0  0  0  0  0  0  0  0
  140.4190   73.7630  222.0920 N   0  0  0  0  0  0  0  0  0  0  0  0
  138.0770   77.5630  222.5420 C   0  0  0  0  0  0  0  0  0  0  0  0
  137.4570   78.7740  222.6780 C   0  0  0  0  0  0  0  0  0  0  0  0
  138.2130   79.8820  222.9880 C   0  0  0  0  0  0  0  0  0  0  0  0
  139.5730   79.7680  223.1560 C   0  0  0  0  0  0  0  0  0  0  0  0
  140.3650   80.8530  223.4680 C   0  0  0  0  0  0  0  0  0  0  0  0
  141.7340   80.6500  223.6220 C   0  0  0  0  0  0  0  0  0  0  0  0
  142.5660   81.6850  223.9280 F   0  0  0  0  0  0  0  0  0  0  0  0
  142.2950   79.3980  223.4700 C   0  0  0  0  0  0  0  0  0  0  0  0
  141.5060   78.3210  223.1610 C   0  0  0  0  0  0  0  0  0  0  0  0
  140.1380   78.5210  223.0070 C   0  0  0  0  0  0  0  0  0  0  0  0
  139.4120   77.4310  222.7040 N   0  0  0  0  0  0  0  0  0  0  0  0
  138.7980   74.9780  222.7670 H   0  0  0  0  0  0  0  0  0  0  0  0
  136.1569   73.9861  222.7747 H   0  0  0  0  0  0  0  0  0  0  0  0
  136.7734   74.1474  221.0032 H   0  0  0  0  0  0  0  0  0  0  0  0
  137.6441   71.2862  225.0894 H   0  0  0  0  0  0  0  0  0  0  0  0
  136.5129   70.6815  223.9261 H   0  0  0  0  0  0  0  0  0  0  0  0
  138.5940   69.1358  224.7437 H   0  0  0  0  0  0  0  0  0  0  0  0
  138.1434   69.0790  223.0352 H   0  0  0  0  0  0  0  0  0  0  0  0
  140.5885   70.1250  224.2535 H   0  0  0  0  0  0  0  0  0  0  0  0
  140.2478   69.9620  222.5372 H   0  0  0  0  0  0  0  0  0  0  0  0
  139.7538   72.4240  224.3394 H   0  0  0  0  0  0  0  0  0  0  0  0
  141.6871   70.8376  221.5728 H   0  0  0  0  0  0  0  0  0  0  0  0
  142.6860   72.6750  220.1270 H   0  0  0  0  0  0  0  0  0  0  0  0
  139.5918   76.0071  220.6690 H   0  0  0  0  0  0  0  0  0  0  0  0
  140.1577   78.1797  219.5862 H   0  0  0  0  0  0  0  0  0  0  0  0
  142.4716   78.6719  218.8358 H   0  0  0  0  0  0  0  0  0  0  0  0
  144.2890   76.9643  219.1619 H   0  0  0  0  0  0  0  0  0  0  0  0
  143.7045   74.8023  220.2462 H   0  0  0  0  0  0  0  0  0  0  0  0
  136.3690   78.8618  222.5416 H   0  0  0  0  0  0  0  0  0  0  0  0
  137.7272   80.8623  223.1018 H   0  0  0  0  0  0  0  0  0  0  0  0
  139.9262   81.8540  223.5921 H   0  0  0  0  0  0  0  0  0  0  0  0
  143.3794   79.2643  223.5974 H   0  0  0  0  0  0  0  0  0  0  0  0
  141.9449   77.3200  223.0374 H   0  0  0  0  0  0  0  0  0  0  0  0
  1  2  2  0
  2  3  1  0
  3  4  1  0
  4  5  1  0
  5  6  2  0
  5  7  1  0
  7  8  1  0
  8  9  1  0
  9 10  1  0
 10 11  1  0
 11 12  1  0
 12 13  2  0
 13 14  1  0
 14 15  1  0
 15 16  1  0
 16 17  2  0
 17 18  1  0
 18 19  2  0
 19 20  1  0
 20 21  2  0
 15 22  2  0
  2 23  1  0
 23 24  2  0
 24 25  1  0
 25 26  2  0
 26 27  1  0
 27 28  2  0
 28 29  1  0
 28 30  1  0
 30 31  2  0
 31 32  1  0
 32 33  2  0
 11  7  1  0
 22 12  1  0
 33 23  1  0
 21 16  1  0
 32 26  1  0
  3 34  1  0
  4 35  1  0
  4 36  1  0
  8 37  1  0
  8 38  1  0
  9 39  1  0
  9 40  1  0
 10 41  1  0
 10 42  1  0
 11 43  1  1
 13 44  1  0
 14 45  1  0
 17 46  1  0
 18 47  1  0
 19 48  1  0
 20 49  1  0
 21 50  1  0
 24 51  1  0
 25 52  1  0
 27 53  1  0
 30 54  1  0
 31 55  1  0
M  END
>  <smiles>  (43) 
O=C(NCC(=O)N1CCC[C@H]1c1c[nH]c(-c2ccccc2)n1)c1ccc2cc(F)ccc2n1

>  <score_type>  (43) 
oracle

>  <origin>  (43) 
autodockgpu

>  <m_score__min__energy>  (43) 
-9.4700000000000006

>  <m_primary>  (43) 
energy

>  <rmsd>  (43) 
7.978552872544169

>  <m_score__min__rmsd>  (43) 
7.978552872544169

>  <meeko>  (43) 
{"free_energy": -7.17, "intermolecular_energy": -8.96, "internal_energy": -3.52, "cluster_size": 6, "cluster_id": 9, "rank_in_cluster": 3}

>  <energy>  (43) 
-6.67

>  <cluster_rmsd>  (43) 
0.45

>  <cluster>  (43) 
9

$$$$

     RDKit          3D

 55 59  0  0  0  0  0  0  0  0999 V2000
  139.5540   74.6390  222.6910 O   0  0  0  0  0  0  0  0  0  0  0  0
  138.9380   75.6580  222.2870 C   0  0  0  0  0  0  0  0  0  0  0  0
  137.7690   75.4130  221.4610 N   0  0  0  0  0  0  0  0  0  0  0  0
  137.4380   74.0680  221.1900 C   0  0  0  0  0  0  0  0  0  0  0  0
  138.3820   73.2000  220.4950 C   0  0  0  0  0  0  0  0  0  0  0  0
  137.8580   72.0870  220.0820 O   0  0  0  0  0  0  0  0  0  0  0  0
  139.7360   73.3660  220.2010 N   0  0  0  0  0  0  0  0  0  0  0  0
  140.4450   74.3640  219.3790 C   0  0  0  0  0  0  0  0  0  0  0  0
  141.4860   74.8260  220.3670 C   0  0  0  0  0  0  0  0  0  0  0  0
  141.8100   73.6210  221.2030 C   0  0  0  0  0  0  0  0  0  0  0  0
  140.8430   72.5570  220.7040 C   0  0  1  0  0  0  0  0  0  0  0  0
  140.4920   71.6760  221.8370 C   0  0  0  0  0  0  0  0  0  0  0  0
  139.9050   70.4340  221.8750 C   0  0  0  0  0  0  0  0  0  0  0  0
  139.7950   70.0400  223.1630 N   0  0  0  0  0  0  0  0  0  0  0  0
  140.3060   71.0180  223.9390 C   0  0  0  0  0  0  0  0  0  0  0  0
  140.3590   70.9460  225.3950 C   0  0  0  0  0  0  0  0  0  0  0  0
  139.6840   69.9170  226.0220 C   0  0  0  0  0  0  0  0  0  0  0  0
  139.7500   69.8700  227.4030 C   0  0  0  0  0  0  0  0  0  0  0  0
  140.4660   70.8180  228.1380 C   0  0  0  0  0  0  0  0  0  0  0  0
  141.1400   71.8500  227.4790 C   0  0  0  0  0  0  0  0  0  0  0  0
  141.0700   71.8900  226.1010 C   0  0  0  0  0  0  0  0  0  0  0  0
  140.7230   72.0000  223.1260 N   0  0  0  0  0  0  0  0  0  0  0  0
  139.3270   77.0200  222.5990 C   0  0  0  0  0  0  0  0  0  0  0  0
  138.3500   77.9640  222.7570 C   0  0  0  0  0  0  0  0  0  0  0  0
  138.7120   79.2590  223.0530 C   0  0  0  0  0  0  0  0  0  0  0  0
  140.0390   79.5950  223.1870 C   0  0  0  0  0  0  0  0  0  0  0  0
  140.4420   80.8790  223.4830 C   0  0  0  0  0  0  0  0  0  0  0  0
  141.8070   81.1340  223.6010 C   0  0  0  0  0  0  0  0  0  0  0  0
  142.2640   82.3830  223.8920 F   0  0  0  0  0  0  0  0  0  0  0  0
  142.7400   80.1320  223.4290 C   0  0  0  0  0  0  0  0  0  0  0  0
  142.3370   78.8550  223.1350 C   0  0  0  0  0  0  0  0  0  0  0  0
  140.9750   78.5990  223.0160 C   0  0  0  0  0  0  0  0  0  0  0  0
  140.6360   77.3300  222.7270 N   0  0  0  0  0  0  0  0  0  0  0  0
  137.2300   76.2330  221.1050 H   0  0  0  0  0  0  0  0  0  0  0  0
  137.2282   73.5933  222.1599 H   0  0  0  0  0  0  0  0  0  0  0  0
  136.6085   74.1565  220.4730 H   0  0  0  0  0  0  0  0  0  0  0  0
  140.9017   73.9086  218.4879 H   0  0  0  0  0  0  0  0  0  0  0  0
  139.8090   75.1624  218.9691 H   0  0  0  0  0  0  0  0  0  0  0  0
  142.3842   75.1814  219.8408 H   0  0  0  0  0  0  0  0  0  0  0  0
  141.1220   75.6626  220.9815 H   0  0  0  0  0  0  0  0  0  0  0  0
  142.8524   73.3060  221.0477 H   0  0  0  0  0  0  0  0  0  0  0  0
  141.7085   73.8136  222.2812 H   0  0  0  0  0  0  0  0  0  0  0  0
  141.2167   71.8756  219.9255 H   0  0  0  0  0  0  0  0  0  0  0  0
  139.5778   69.8546  220.9991 H   0  0  0  0  0  0  0  0  0  0  0  0
  139.3750   69.1230  223.4270 H   0  0  0  0  0  0  0  0  0  0  0  0
  139.1187   69.1677  225.4484 H   0  0  0  0  0  0  0  0  0  0  0  0
  139.2245   69.0644  227.9368 H   0  0  0  0  0  0  0  0  0  0  0  0
  140.4994   70.7523  229.2355 H   0  0  0  0  0  0  0  0  0  0  0  0
  141.7081   72.6062  228.0406 H   0  0  0  0  0  0  0  0  0  0  0  0
  141.5920   72.6910  225.5570 H   0  0  0  0  0  0  0  0  0  0  0  0
  137.2896   77.6923  222.6491 H   0  0  0  0  0  0  0  0  0  0  0  0
  137.9365   80.0283  223.1829 H   0  0  0  0  0  0  0  0  0  0  0  0
  139.7044   81.6830  223.6227 H   0  0  0  0  0  0  0  0  0  0  0  0
  143.8118   80.3588  223.5282 H   0  0  0  0  0  0  0  0  0  0  0  0
  143.0744   78.0507  222.9963 H   0  0  0  0  0  0  0  0  0  0  0  0
  1  2  2  0
  2  3  1  0
  3  4  1  0
  4  5  1  0
  5  6  2  0
  5  7  1  0
  7  8  1  0
  8  9  1  0
  9 10  1  0
 10 11  1  0
 11 12  1  0
 12 13  2  0
 13 14  1  0
 14 15  1  0
 15 16  1  0
 16 17  2  0
 17 18  1  0
 18 19  2  0
 19 20  1  0
 20 21  2  0
 15 22  2  0
  2 23  1  0
 23 24  2  0
 24 25  1  0
 25 26  2  0
 26 27  1  0
 27 28  2  0
 28 29  1  0
 28 30  1  0
 30 31  2  0
 31 32  1  0
 32 33  2  0
 11  7  1  0
 22 12  1  0
 33 23  1  0
 21 16  1  0
 32 26  1  0
  3 34  1  0
  4 35  1  0
  4 36  1  0
  8 37  1  0
  8 38  1  0
  9 39  1  0
  9 40  1  0
 10 41  1  0
 10 42  1  0
 11 43  1  6
 13 44  1  0
 14 45  1  0
 17 46  1  0
 18 47  1  0
 19 48  1  0
 20 49  1  0
 21 50  1  0
 24 51  1  0
 25 52  1  0
 27 53  1  0
 30 54  1  0
 31 55  1  0
M  END
>  <smiles>  (44) 
O=C(NCC(=O)N1CCC[C@H]1c1c[nH]c(-c2ccccc2)n1)c1ccc2cc(F)ccc2n1

>  <score_type>  (44) 
oracle

>  <origin>  (44) 
autodockgpu

>  <m_score__min__energy>  (44) 
-9.4700000000000006

>  <m_primary>  (44) 
energy

>  <rmsd>  (44) 
8.720753104319112

>  <m_score__min__rmsd>  (44) 
8.720753104319112

>  <meeko>  (44) 
{"free_energy": -8.44, "intermolecular_energy": -10.23, "internal_energy": -2.01, "cluster_size": 1, "cluster_id": 6, "rank_in_cluster": 1}

>  <energy>  (44) 
-6.38

>  <cluster_rmsd>  (44) 
0.9

>  <cluster>  (44) 
9

$$$$

     RDKit          3D

 55 59  0  0  0  0  0  0  0  0999 V2000
  139.4730   75.4920  222.6860 O   0  0  0  0  0  0  0  0  0  0  0  0
  140.1410   75.5230  221.6220 C   0  0  0  0  0  0  0  0  0  0  0  0
  139.8400   76.6110  220.7080 N   0  0  0  0  0  0  0  0  0  0  0  0
  138.8350   77.5230  221.0970 C   0  0  0  0  0  0  0  0  0  0  0  0
  139.1410   78.9430  221.2340 C   0  0  0  0  0  0  0  0  0  0  0  0
  138.3580   79.7120  220.5390 O   0  0  0  0  0  0  0  0  0  0  0  0
  140.1180   79.6040  221.9780 N   0  0  0  0  0  0  0  0  0  0  0  0
  140.1650   80.0090  223.3950 C   0  0  0  0  0  0  0  0  0  0  0  0
  141.4890   79.4080  223.7950 C   0  0  0  0  0  0  0  0  0  0  0  0
  142.3560   79.4930  222.5720 C   0  0  0  0  0  0  0  0  0  0  0  0
  141.4260   80.0460  221.5000 C   0  0  1  0  0  0  0  0  0  0  0  0
  141.8260   79.4790  220.1960 C   0  0  0  0  0  0  0  0  0  0  0  0
  142.1990   80.0810  219.0190 C   0  0  0  0  0  0  0  0  0  0  0  0
  142.4750   79.1250  218.1040 N   0  0  0  0  0  0  0  0  0  0  0  0
  142.2810   77.9260  218.6910 C   0  0  0  0  0  0  0  0  0  0  0  0
  142.4820   76.6530  218.0060 C   0  0  0  0  0  0  0  0  0  0  0  0
  143.7050   76.4190  217.4100 C   0  0  0  0  0  0  0  0  0  0  0  0
  143.8710   75.2060  216.7680 C   0  0  0  0  0  0  0  0  0  0  0  0
  142.8500   74.2530  216.7200 C   0  0  0  0  0  0  0  0  0  0  0  0
  141.6210   74.5140  217.3320 C   0  0  0  0  0  0  0  0  0  0  0  0
  141.4640   75.7270  217.9710 C   0  0  0  0  0  0  0  0  0  0  0  0
  141.8900   78.1530  219.9540 N   0  0  0  0  0  0  0  0  0  0  0  0
  141.1640   74.5540  221.2750 C   0  0  0  0  0  0  0  0  0  0  0  0
  140.8250   73.2300  221.2180 C   0  0  0  0  0  0  0  0  0  0  0  0
  141.7900   72.3050  220.8890 C   0  0  0  0  0  0  0  0  0  0  0  0
  143.0770   72.7110  220.6230 C   0  0  0  0  0  0  0  0  0  0  0  0
  144.0720   71.8160  220.2900 C   0  0  0  0  0  0  0  0  0  0  0  0
  145.3490   72.3120  220.0360 C   0  0  0  0  0  0  0  0  0  0  0  0
  146.3720   71.4760  219.7030 F   0  0  0  0  0  0  0  0  0  0  0  0
  145.6220   73.6630  220.1120 C   0  0  0  0  0  0  0  0  0  0  0  0
  144.6320   74.5500  220.4430 C   0  0  0  0  0  0  0  0  0  0  0  0
  143.3560   74.0580  220.6970 C   0  0  0  0  0  0  0  0  0  0  0  0
  142.4230   74.9720  221.0170 N   0  0  0  0  0  0  0  0  0  0  0  0
  140.3720   76.6710  219.8120 H   0  0  0  0  0  0  0  0  0  0  0  0
  138.0306   77.4438  220.3509 H   0  0  0  0  0  0  0  0  0  0  0  0
  138.6067   77.2168  222.1286 H   0  0  0  0  0  0  0  0  0  0  0  0
  140.1628   81.1033  223.5072 H   0  0  0  0  0  0  0  0  0  0  0  0
  139.3060   79.6818  223.9993 H   0  0  0  0  0  0  0  0  0  0  0  0
  141.9354   79.9785  224.6227 H   0  0  0  0  0  0  0  0  0  0  0  0
  141.3768   78.3707  224.1435 H   0  0  0  0  0  0  0  0  0  0  0  0
  143.2053   80.1714  222.7410 H   0  0  0  0  0  0  0  0  0  0  0  0
  142.7932   78.5226  222.2942 H   0  0  0  0  0  0  0  0  0  0  0  0
  141.4404   81.1351  221.3462 H   0  0  0  0  0  0  0  0  0  0  0  0
  142.2628   81.1658  218.8485 H   0  0  0  0  0  0  0  0  0  0  0  0
  142.7780   79.3590  217.1350 H   0  0  0  0  0  0  0  0  0  0  0  0
  144.5124   77.1653  217.4444 H   0  0  0  0  0  0  0  0  0  0  0  0
  144.8327   74.9850  216.2818 H   0  0  0  0  0  0  0  0  0  0  0  0
  143.0137   73.2973  216.2005 H   0  0  0  0  0  0  0  0  0  0  0  0
  140.8053   73.7765  217.3052 H   0  0  0  0  0  0  0  0  0  0  0  0
  140.5071   75.9584  218.4618 H   0  0  0  0  0  0  0  0  0  0  0  0
  139.7950   72.9087  221.4322 H   0  0  0  0  0  0  0  0  0  0  0  0
  141.5309   71.2371  220.8387 H   0  0  0  0  0  0  0  0  0  0  0  0
  143.8628   70.7380  220.2265 H   0  0  0  0  0  0  0  0  0  0  0  0
  146.6387   74.0288  219.9059 H   0  0  0  0  0  0  0  0  0  0  0  0
  144.8416   75.6280  220.5065 H   0  0  0  0  0  0  0  0  0  0  0  0
  1  2  2  0
  2  3  1  0
  3  4  1  0
  4  5  1  0
  5  6  2  0
  5  7  1  0
  7  8  1  0
  8  9  1  0
  9 10  1  0
 10 11  1  0
 11 12  1  0
 12 13  2  0
 13 14  1  0
 14 15  1  0
 15 16  1  0
 16 17  2  0
 17 18  1  0
 18 19  2  0
 19 20  1  0
 20 21  2  0
 15 22  2  0
  2 23  1  0
 23 24  2  0
 24 25  1  0
 25 26  2  0
 26 27  1  0
 27 28  2  0
 28 29  1  0
 28 30  1  0
 30 31  2  0
 31 32  1  0
 32 33  2  0
 11  7  1  0
 22 12  1  0
 33 23  1  0
 21 16  1  0
 32 26  1  0
  3 34  1  0
  4 35  1  0
  4 36  1  0
  8 37  1  0
  8 38  1  0
  9 39  1  0
  9 40  1  0
 10 41  1  0
 10 42  1  0
 11 43  1  6
 13 44  1  0
 14 45  1  0
 17 46  1  0
 18 47  1  0
 19 48  1  0
 20 49  1  0
 21 50  1  0
 24 51  1  0
 25 52  1  0
 27 53  1  0
 30 54  1  0
 31 55  1  0
M  END
>  <smiles>  (45) 
O=C(NCC(=O)N1CCC[C@H]1c1c[nH]c(-c2ccccc2)n1)c1ccc2cc(F)ccc2n1

>  <score_type>  (45) 
oracle

>  <origin>  (45) 
autodockgpu

>  <m_score__min__energy>  (45) 
-9.4700000000000006

>  <m_primary>  (45) 
energy

>  <rmsd>  (45) 
6.894753195584228

>  <m_score__min__rmsd>  (45) 
6.894753195584228

>  <meeko>  (45) 
{"free_energy": -6.55, "intermolecular_energy": -8.34, "internal_energy": -4.02, "cluster_size": 20, "cluster_id": 7, "rank_in_cluster": 20}

>  <energy>  (45) 
-6.99

>  <cluster_rmsd>  (45) 
0.0

>  <cluster>  (45) 
10

$$$$

     RDKit          3D

 55 59  0  0  0  0  0  0  0  0999 V2000
  139.3150   74.8320  222.2790 O   0  0  0  0  0  0  0  0  0  0  0  0
  140.4740   75.1150  221.8810 C   0  0  0  0  0  0  0  0  0  0  0  0
  140.8350   76.5220  221.9130 N   0  0  0  0  0  0  0  0  0  0  0  0
  139.8610   77.4290  222.3830 C   0  0  0  0  0  0  0  0  0  0  0  0
  139.8820   78.8240  221.9530 C   0  0  0  0  0  0  0  0  0  0  0  0
  138.9630   79.1130  221.0830 O   0  0  0  0  0  0  0  0  0  0  0  0
  140.7130   79.8840  222.3190 N   0  0  0  0  0  0  0  0  0  0  0  0
  140.8630   80.6190  223.5880 C   0  0  0  0  0  0  0  0  0  0  0  0
  142.3540   80.5120  223.7780 C   0  0  0  0  0  0  0  0  0  0  0  0
  142.9380   80.5260  222.3940 C   0  0  0  0  0  0  0  0  0  0  0  0
  141.7200   80.5300  221.4810 C   0  0  1  0  0  0  0  0  0  0  0  0
  142.0570   79.7910  220.2480 C   0  0  0  0  0  0  0  0  0  0  0  0
  142.4620   80.2270  219.0090 C   0  0  0  0  0  0  0  0  0  0  0  0
  142.6500   79.1560  218.2060 N   0  0  0  0  0  0  0  0  0  0  0  0
  142.3680   78.0480  218.9240 C   0  0  0  0  0  0  0  0  0  0  0  0
  142.4590   76.6960  218.3850 C   0  0  0  0  0  0  0  0  0  0  0  0
  141.3470   75.8820  218.4750 C   0  0  0  0  0  0  0  0  0  0  0  0
  141.4580   74.6040  217.9570 C   0  0  0  0  0  0  0  0  0  0  0  0
  142.6410   74.1500  217.3670 C   0  0  0  0  0  0  0  0  0  0  0  0
  143.7520   74.9940  217.2880 C   0  0  0  0  0  0  0  0  0  0  0  0
  143.6330   76.2670  217.8070 C   0  0  0  0  0  0  0  0  0  0  0  0
  142.0120   78.4460  220.1550 N   0  0  0  0  0  0  0  0  0  0  0  0
  141.4340   74.1360  221.4070 C   0  0  0  0  0  0  0  0  0  0  0  0
  141.0260   72.8410  221.2420 C   0  0  0  0  0  0  0  0  0  0  0  0
  141.9310   71.9070  220.7920 C   0  0  0  0  0  0  0  0  0  0  0  0
  143.2270   72.2750  220.5140 C   0  0  0  0  0  0  0  0  0  0  0  0
  144.1630   71.3690  220.0610 C   0  0  0  0  0  0  0  0  0  0  0  0
  145.4540   71.8260  219.8030 C   0  0  0  0  0  0  0  0  0  0  0  0
  146.4210   70.9770  219.3550 F   0  0  0  0  0  0  0  0  0  0  0  0
  145.7980   73.1490  219.9920 C   0  0  0  0  0  0  0  0  0  0  0  0
  144.8650   74.0480  220.4410 C   0  0  0  0  0  0  0  0  0  0  0  0
  143.5760   73.5940  220.7000 C   0  0  0  0  0  0  0  0  0  0  0  0
  142.7020   74.5170  221.1390 N   0  0  0  0  0  0  0  0  0  0  0  0
  141.7870   76.8000  221.5890 H   0  0  0  0  0  0  0  0  0  0  0  0
  138.8825   77.0224  222.0877 H   0  0  0  0  0  0  0  0  0  0  0  0
  140.0831   77.4970  223.4582 H   0  0  0  0  0  0  0  0  0  0  0  0
  140.5375   81.6656  223.4945 H   0  0  0  0  0  0  0  0  0  0  0  0
  140.2607   80.2304  224.4224 H   0  0  0  0  0  0  0  0  0  0  0  0
  142.7292   81.3653  224.3620 H   0  0  0  0  0  0  0  0  0  0  0  0
  142.6305   79.6004  224.3280 H   0  0  0  0  0  0  0  0  0  0  0  0
  143.5481   81.4276  222.2361 H   0  0  0  0  0  0  0  0  0  0  0  0
  143.6048   79.6714  222.2069 H   0  0  0  0  0  0  0  0  0  0  0  0
  141.3681   81.5112  221.1298 H   0  0  0  0  0  0  0  0  0  0  0  0
  142.6093   81.2775  218.7180 H   0  0  0  0  0  0  0  0  0  0  0  0
  142.9590   79.2550  217.2160 H   0  0  0  0  0  0  0  0  0  0  0  0
  140.4137   76.2345  218.9384 H   0  0  0  0  0  0  0  0  0  0  0  0
  140.5924   73.9273  218.0109 H   0  0  0  0  0  0  0  0  0  0  0  0
  142.6975   73.1278  216.9647 H   0  0  0  0  0  0  0  0  0  0  0  0
  144.6912   74.6545  216.8269 H   0  0  0  0  0  0  0  0  0  0  0  0
  144.4922   76.9521  217.7581 H   0  0  0  0  0  0  0  0  0  0  0  0
  139.9890   72.5501  221.4659 H   0  0  0  0  0  0  0  0  0  0  0  0
  141.6168   70.8619  220.6541 H   0  0  0  0  0  0  0  0  0  0  0  0
  143.8973   70.3127  219.9073 H   0  0  0  0  0  0  0  0  0  0  0  0
  146.8245   73.4837  219.7817 H   0  0  0  0  0  0  0  0  0  0  0  0
  145.1300   75.1047  220.5930 H   0  0  0  0  0  0  0  0  0  0  0  0
  1  2  2  0
  2  3  1  0
  3  4  1  0
  4  5  1  0
  5  6  2  0
  5  7  1  0
  7  8  1  0
  8  9  1  0
  9 10  1  0
 10 11  1  0
 11 12  1  0
 12 13  2  0
 13 14  1  0
 14 15  1  0
 15 16  1  0
 16 17  2  0
 17 18  1  0
 18 19  2  0
 19 20  1  0
 20 21  2  0
 15 22  2  0
  2 23  1  0
 23 24  2  0
 24 25  1  0
 25 26  2  0
 26 27  1  0
 27 28  2  0
 28 29  1  0
 28 30  1  0
 30 31  2  0
 31 32  1  0
 32 33  2  0
 11  7  1  0
 22 12  1  0
 33 23  1  0
 21 16  1  0
 32 26  1  0
  3 34  1  0
  4 35  1  0
  4 36  1  0
  8 37  1  0
  8 38  1  0
  9 39  1  0
  9 40  1  0
 10 41  1  0
 10 42  1  0
 11 43  1  6
 13 44  1  0
 14 45  1  0
 17 46  1  0
 18 47  1  0
 19 48  1  0
 20 49  1  0
 21 50  1  0
 24 51  1  0
 25 52  1  0
 27 53  1  0
 30 54  1  0
 31 55  1  0
M  END
>  <smiles>  (46) 
O=C(NCC(=O)N1CCC[C@H]1c1c[nH]c(-c2ccccc2)n1)c1ccc2cc(F)ccc2n1

>  <score_type>  (46) 
oracle

>  <origin>  (46) 
autodockgpu

>  <m_score__min__energy>  (46) 
-9.4700000000000006

>  <m_primary>  (46) 
energy

>  <rmsd>  (46) 
6.885128152931561

>  <m_score__min__rmsd>  (46) 
6.885128152931561

>  <meeko>  (46) 
{"free_energy": -7.21, "intermolecular_energy": -9.0, "internal_energy": -3.94, "cluster_size": 20, "cluster_id": 7, "rank_in_cluster": 10}

>  <energy>  (46) 
-6.77

>  <cluster_rmsd>  (46) 
0.0

>  <cluster>  (46) 
11

$$$$

     RDKit          3D

 55 59  0  0  0  0  0  0  0  0999 V2000
  140.5840   73.1240  222.1620 O   0  0  0  0  0  0  0  0  0  0  0  0
  139.7660   72.1870  222.3480 C   0  0  0  0  0  0  0  0  0  0  0  0
  138.7850   71.9770  221.2990 N   0  0  0  0  0  0  0  0  0  0  0  0
  138.8400   72.8360  220.1790 C   0  0  0  0  0  0  0  0  0  0  0  0
  138.4080   74.2250  220.2920 C   0  0  0  0  0  0  0  0  0  0  0  0
  139.1540   75.0570  219.6310 O   0  0  0  0  0  0  0  0  0  0  0  0
  137.3390   74.8000  220.9800 N   0  0  0  0  0  0  0  0  0  0  0  0
  135.9280   74.3950  221.1150 C   0  0  0  0  0  0  0  0  0  0  0  0
  135.7890   74.4210  222.6150 C   0  0  0  0  0  0  0  0  0  0  0  0
  136.6920   75.5270  223.0830 C   0  0  0  0  0  0  0  0  0  0  0  0
  137.3830   76.0000  221.8120 C   0  0  1  0  0  0  0  0  0  0  0  0
  138.7440   76.4540  222.1610 C   0  0  0  0  0  0  0  0  0  0  0  0
  139.9250   75.7640  222.3010 C   0  0  0  0  0  0  0  0  0  0  0  0
  140.9050   76.6330  222.6330 N   0  0  0  0  0  0  0  0  0  0  0  0
  140.3570   77.8640  222.7050 C   0  0  0  0  0  0  0  0  0  0  0  0
  141.1160   79.0640  223.0420 C   0  0  0  0  0  0  0  0  0  0  0  0
  140.4250   80.1620  223.5130 C   0  0  0  0  0  0  0  0  0  0  0  0
  141.1660   81.2870  223.8250 C   0  0  0  0  0  0  0  0  0  0  0  0
  142.5550   81.3180  223.6730 C   0  0  0  0  0  0  0  0  0  0  0  0
  143.2320   80.1920  223.1950 C   0  0  0  0  0  0  0  0  0  0  0  0
  142.4840   79.0740  222.8860 C   0  0  0  0  0  0  0  0  0  0  0  0
  139.0530   77.7420  222.4180 N   0  0  0  0  0  0  0  0  0  0  0  0
  139.7580   71.3350  223.5220 C   0  0  0  0  0  0  0  0  0  0  0  0
  139.1130   70.1310  223.4570 C   0  0  0  0  0  0  0  0  0  0  0  0
  139.1020   69.3170  224.5680 C   0  0  0  0  0  0  0  0  0  0  0  0
  139.7300   69.7140  225.7250 C   0  0  0  0  0  0  0  0  0  0  0  0
  139.7420   68.9280  226.8570 C   0  0  0  0  0  0  0  0  0  0  0  0
  140.4030   69.4060  227.9870 C   0  0  0  0  0  0  0  0  0  0  0  0
  140.4470   68.6740  229.1350 F   0  0  0  0  0  0  0  0  0  0  0  0
  141.0340   70.6340  227.9830 C   0  0  0  0  0  0  0  0  0  0  0  0
  141.0220   71.4130  226.8560 C   0  0  0  0  0  0  0  0  0  0  0  0
  140.3620   70.9380  225.7270 C   0  0  0  0  0  0  0  0  0  0  0  0
  140.3820   71.7430  224.6490 N   0  0  0  0  0  0  0  0  0  0  0  0
  138.0870   71.2100  221.4150 H   0  0  0  0  0  0  0  0  0  0  0  0
  139.8891   72.8576  219.8490 H   0  0  0  0  0  0  0  0  0  0  0  0
  138.0975   72.3998  219.4946 H   0  0  0  0  0  0  0  0  0  0  0  0
  135.2495   75.1122  220.6299 H   0  0  0  0  0  0  0  0  0  0  0  0
  135.6754   73.4338  220.6435 H   0  0  0  0  0  0  0  0  0  0  0  0
  134.7473   74.6283  222.9010 H   0  0  0  0  0  0  0  0  0  0  0  0
  136.0592   73.4550  223.0666 H   0  0  0  0  0  0  0  0  0  0  0  0
  136.1093   76.3417  223.5377 H   0  0  0  0  0  0  0  0  0  0  0  0
  137.4034   75.1955  223.8537 H   0  0  0  0  0  0  0  0  0  0  0  0
  136.9288   76.8558  221.2912 H   0  0  0  0  0  0  0  0  0  0  0  0
  140.0516   74.6798  222.1648 H   0  0  0  0  0  0  0  0  0  0  0  0
  141.8880   76.3240  222.7900 H   0  0  0  0  0  0  0  0  0  0  0  0
  139.3319   80.1430  223.6349 H   0  0  0  0  0  0  0  0  0  0  0  0
  140.6486   82.1812  224.2028 H   0  0  0  0  0  0  0  0  0  0  0  0
  143.1159   82.2288  223.9296 H   0  0  0  0  0  0  0  0  0  0  0  0
  144.3248   80.1970  223.0693 H   0  0  0  0  0  0  0  0  0  0  0  0
  142.9904   78.1737  222.5079 H   0  0  0  0  0  0  0  0  0  0  0  0
  138.6100   69.8170  222.5305 H   0  0  0  0  0  0  0  0  0  0  0  0
  138.5885   68.3450  224.5295 H   0  0  0  0  0  0  0  0  0  0  0  0
  139.2425   67.9480  226.8683 H   0  0  0  0  0  0  0  0  0  0  0  0
  141.5485   70.9884  228.8884 H   0  0  0  0  0  0  0  0  0  0  0  0
  141.5230   72.3922  226.8440 H   0  0  0  0  0  0  0  0  0  0  0  0
  1  2  2  0
  2  3  1  0
  3  4  1  0
  4  5  1  0
  5  6  2  0
  5  7  1  0
  7  8  1  0
  8  9  1  0
  9 10  1  0
 10 11  1  0
 11 12  1  0
 12 13  2  0
 13 14  1  0
 14 15  1  0
 15 16  1  0
 16 17  2  0
 17 18  1  0
 18 19  2  0
 19 20  1  0
 20 21  2  0
 15 22  2  0
  2 23  1  0
 23 24  2  0
 24 25  1  0
 25 26  2  0
 26 27  1  0
 27 28  2  0
 28 29  1  0
 28 30  1  0
 30 31  2  0
 31 32  1  0
 32 33  2  0
 11  7  1  0
 22 12  1  0
 33 23  1  0
 21 16  1  0
 32 26  1  0
  3 34  1  0
  4 35  1  0
  4 36  1  0
  8 37  1  0
  8 38  1  0
  9 39  1  0
  9 40  1  0
 10 41  1  0
 10 42  1  0
 11 43  1  6
 13 44  1  0
 14 45  1  0
 17 46  1  0
 18 47  1  0
 19 48  1  0
 20 49  1  0
 21 50  1  0
 24 51  1  0
 25 52  1  0
 27 53  1  0
 30 54  1  0
 31 55  1  0
M  END
>  <smiles>  (47) 
O=C(NCC(=O)N1CCC[C@H]1c1c[nH]c(-c2ccccc2)n1)c1ccc2cc(F)ccc2n1

>  <score_type>  (47) 
oracle

>  <origin>  (47) 
autodockgpu

>  <m_score__min__energy>  (47) 
-9.4700000000000006

>  <m_primary>  (47) 
energy

>  <rmsd>  (47) 
3.4546152001282007

>  <m_score__min__rmsd>  (47) 
3.4546152001282007

>  <meeko>  (47) 
{"free_energy": -9.27, "intermolecular_energy": -11.06, "internal_energy": -1.44, "cluster_size": 2, "cluster_id": 2, "rank_in_cluster": 1}

>  <energy>  (47) 
-6.39

>  <cluster_rmsd>  (47) 
0.0

>  <cluster>  (47) 
12

$$$$

     RDKit          3D

 55 59  0  0  0  0  0  0  0  0999 V2000
  139.4760   71.0750  221.3890 O   0  0  0  0  0  0  0  0  0  0  0  0
  139.6100   71.5140  222.5590 C   0  0  0  0  0  0  0  0  0  0  0  0
  139.6750   72.9580  222.6980 N   0  0  0  0  0  0  0  0  0  0  0  0
  139.5810   73.7260  221.5170 C   0  0  0  0  0  0  0  0  0  0  0  0
  139.4860   75.1800  221.5880 C   0  0  0  0  0  0  0  0  0  0  0  0
  139.9070   75.6740  222.7120 O   0  0  0  0  0  0  0  0  0  0  0  0
  139.0260   76.1160  220.6610 N   0  0  0  0  0  0  0  0  0  0  0  0
  137.7250   76.7950  220.5170 C   0  0  0  0  0  0  0  0  0  0  0  0
  138.1840   78.2290  220.4470 C   0  0  0  0  0  0  0  0  0  0  0  0
  139.5170   78.1920  219.7560 C   0  0  0  0  0  0  0  0  0  0  0  0
  139.7910   76.7070  219.5660 C   0  0  1  0  0  0  0  0  0  0  0  0
  141.2500   76.4870  219.6500 C   0  0  0  0  0  0  0  0  0  0  0  0
  142.3040   77.3690  219.6490 C   0  0  0  0  0  0  0  0  0  0  0  0
  143.4580   76.6750  219.7470 N   0  0  0  0  0  0  0  0  0  0  0  0
  143.1460   75.3630  219.8090 C   0  0  0  0  0  0  0  0  0  0  0  0
  144.1430   74.3030  219.9200 C   0  0  0  0  0  0  0  0  0  0  0  0
  143.9760   73.1690  219.1510 C   0  0  0  0  0  0  0  0  0  0  0  0
  144.9340   72.1780  219.2740 C   0  0  0  0  0  0  0  0  0  0  0  0
  146.0250   72.3140  220.1370 C   0  0  0  0  0  0  0  0  0  0  0  0
  146.1710   73.4730  220.9040 C   0  0  0  0  0  0  0  0  0  0  0  0
  145.2110   74.4560  220.7760 C   0  0  0  0  0  0  0  0  0  0  0  0
  141.8100   75.2640  219.7500 N   0  0  0  0  0  0  0  0  0  0  0  0
  139.7020   70.6720  223.7380 C   0  0  0  0  0  0  0  0  0  0  0  0
  139.2060   69.3990  223.6780 C   0  0  0  0  0  0  0  0  0  0  0  0
  139.2890   68.5950  224.7920 C   0  0  0  0  0  0  0  0  0  0  0  0
  139.8630   69.0700  225.9480 C   0  0  0  0  0  0  0  0  0  0  0  0
  139.9670   68.2960  227.0850 C   0  0  0  0  0  0  0  0  0  0  0  0
  140.5630   68.8550  228.2130 C   0  0  0  0  0  0  0  0  0  0  0  0
  140.6920   68.1390  229.3650 F   0  0  0  0  0  0  0  0  0  0  0  0
  141.0430   70.1490  228.2040 C   0  0  0  0  0  0  0  0  0  0  0  0
  140.9400   70.9160  227.0730 C   0  0  0  0  0  0  0  0  0  0  0  0
  140.3450   70.3600  225.9450 C   0  0  0  0  0  0  0  0  0  0  0  0
  140.2700   71.1560  224.8640 N   0  0  0  0  0  0  0  0  0  0  0  0
  139.7870   73.3620  223.6530 H   0  0  0  0  0  0  0  0  0  0  0  0
  140.4756   73.4969  220.9194 H   0  0  0  0  0  0  0  0  0  0  0  0
  138.6034   73.4327  221.1068 H   0  0  0  0  0  0  0  0  0  0  0  0
  137.2038   76.4880  219.5982 H   0  0  0  0  0  0  0  0  0  0  0  0
  136.9993   76.5794  221.3150 H   0  0  0  0  0  0  0  0  0  0  0  0
  137.4688   78.8336  219.8700 H   0  0  0  0  0  0  0  0  0  0  0  0
  138.2556   78.6832  221.4463 H   0  0  0  0  0  0  0  0  0  0  0  0
  139.4691   78.7082  218.7858 H   0  0  0  0  0  0  0  0  0  0  0  0
  140.3064   78.6984  220.3307 H   0  0  0  0  0  0  0  0  0  0  0  0
  139.4972   76.2693  218.6005 H   0  0  0  0  0  0  0  0  0  0  0  0
  142.2208   78.4637  219.5796 H   0  0  0  0  0  0  0  0  0  0  0  0
  144.3870   77.1460  219.7640 H   0  0  0  0  0  0  0  0  0  0  0  0
  143.1191   73.0579  218.4703 H   0  0  0  0  0  0  0  0  0  0  0  0
  144.8343   71.2594  218.6771 H   0  0  0  0  0  0  0  0  0  0  0  0
  146.7695   71.5078  220.2125 H   0  0  0  0  0  0  0  0  0  0  0  0
  147.0236   73.5977  221.5877 H   0  0  0  0  0  0  0  0  0  0  0  0
  145.3004   75.3785  221.3684 H   0  0  0  0  0  0  0  0  0  0  0  0
  138.7469   69.0227  222.7519 H   0  0  0  0  0  0  0  0  0  0  0  0
  138.8948   67.5687  224.7576 H   0  0  0  0  0  0  0  0  0  0  0  0
  139.5887   67.2632  227.1005 H   0  0  0  0  0  0  0  0  0  0  0  0
  141.5101   70.5663  229.1082 H   0  0  0  0  0  0  0  0  0  0  0  0
  141.3194   71.9484  227.0574 H   0  0  0  0  0  0  0  0  0  0  0  0
  1  2  2  0
  2  3  1  0
  3  4  1  0
  4  5  1  0
  5  6  2  0
  5  7  1  0
  7  8  1  0
  8  9  1  0
  9 10  1  0
 10 11  1  0
 11 12  1  0
 12 13  2  0
 13 14  1  0
 14 15  1  0
 15 16  1  0
 16 17  2  0
 17 18  1  0
 18 19  2  0
 19 20  1  0
 20 21  2  0
 15 22  2  0
  2 23  1  0
 23 24  2  0
 24 25  1  0
 25 26  2  0
 26 27  1  0
 27 28  2  0
 28 29  1  0
 28 30  1  0
 30 31  2  0
 31 32  1  0
 32 33  2  0
 11  7  1  0
 22 12  1  0
 33 23  1  0
 21 16  1  0
 32 26  1  0
  3 34  1  0
  4 35  1  0
  4 36  1  0
  8 37  1  0
  8 38  1  0
  9 39  1  0
  9 40  1  0
 10 41  1  0
 10 42  1  0
 11 43  1  6
 13 44  1  0
 14 45  1  0
 17 46  1  0
 18 47  1  0
 19 48  1  0
 20 49  1  0
 21 50  1  0
 24 51  1  0
 25 52  1  0
 27 53  1  0
 30 54  1  0
 31 55  1  0
M  END
>  <smiles>  (48) 
O=C(NCC(=O)N1CCC[C@H]1c1c[nH]c(-c2ccccc2)n1)c1ccc2cc(F)ccc2n1

>  <score_type>  (48) 
oracle

>  <origin>  (48) 
autodockgpu

>  <m_score__min__energy>  (48) 
-9.4700000000000006

>  <m_primary>  (48) 
energy

>  <rmsd>  (48) 
4.951354780006434

>  <m_score__min__rmsd>  (48) 
4.951354780006434

>  <meeko>  (48) 
{"free_energy": -8.82, "intermolecular_energy": -10.61, "internal_energy": -1.95, "cluster_size": 6, "cluster_id": 1, "rank_in_cluster": 5}

>  <energy>  (48) 
-6.36

>  <cluster_rmsd>  (48) 
0.25

>  <cluster>  (48) 
12

$$$$

     RDKit          3D

 55 59  0  0  0  0  0  0  0  0999 V2000
  141.5720   77.4220  217.2650 O   0  0  0  0  0  0  0  0  0  0  0  0
  142.2920   77.1340  218.2550 C   0  0  0  0  0  0  0  0  0  0  0  0
  142.2960   78.0940  219.3440 N   0  0  0  0  0  0  0  0  0  0  0  0
  141.4990   79.2490  219.1920 C   0  0  0  0  0  0  0  0  0  0  0  0
  141.0550   80.0000  220.3620 C   0  0  0  0  0  0  0  0  0  0  0  0
  139.9590   80.6680  220.1650 O   0  0  0  0  0  0  0  0  0  0  0  0
  141.6020   80.1150  221.6400 N   0  0  0  0  0  0  0  0  0  0  0  0
  142.1300   81.2760  222.3790 C   0  0  0  0  0  0  0  0  0  0  0  0
  141.3470   81.1500  223.6610 C   0  0  0  0  0  0  0  0  0  0  0  0
  141.1540   79.6750  223.8710 C   0  0  0  0  0  0  0  0  0  0  0  0
  141.7550   79.0450  222.6220 C   0  0  1  0  0  0  0  0  0  0  0  0
  140.9980   77.8150  222.3110 C   0  0  0  0  0  0  0  0  0  0  0  0
  139.7450   77.3970  222.6900 C   0  0  0  0  0  0  0  0  0  0  0  0
  139.4990   76.1880  222.1400 N   0  0  0  0  0  0  0  0  0  0  0  0
  140.5830   75.8360  221.4170 C   0  0  0  0  0  0  0  0  0  0  0  0
  140.6830   74.5840  220.6740 C   0  0  0  0  0  0  0  0  0  0  0  0
  141.3960   73.5460  221.2400 C   0  0  0  0  0  0  0  0  0  0  0  0
  141.4760   72.3690  220.5170 C   0  0  0  0  0  0  0  0  0  0  0  0
  140.8650   72.2310  219.2680 C   0  0  0  0  0  0  0  0  0  0  0  0
  140.1480   73.2970  218.7170 C   0  0  0  0  0  0  0  0  0  0  0  0
  140.0730   74.4670  219.4450 C   0  0  0  0  0  0  0  0  0  0  0  0
  141.4800   76.8270  221.5280 N   0  0  0  0  0  0  0  0  0  0  0  0
  143.0930   75.9280  218.3550 C   0  0  0  0  0  0  0  0  0  0  0  0
  143.2430   75.1430  217.2440 C   0  0  0  0  0  0  0  0  0  0  0  0
  144.0010   73.9980  217.3320 C   0  0  0  0  0  0  0  0  0  0  0  0
  144.5970   73.6500  218.5220 C   0  0  0  0  0  0  0  0  0  0  0  0
  145.3650   72.5120  218.6510 C   0  0  0  0  0  0  0  0  0  0  0  0
  145.9330   72.2340  219.8920 C   0  0  0  0  0  0  0  0  0  0  0  0
  146.7000   71.1240  220.0790 F   0  0  0  0  0  0  0  0  0  0  0  0
  145.7410   73.0710  220.9720 C   0  0  0  0  0  0  0  0  0  0  0  0
  144.9780   74.2030  220.8420 C   0  0  0  0  0  0  0  0  0  0  0  0
  144.4090   74.4820  219.6040 C   0  0  0  0  0  0  0  0  0  0  0  0
  143.6710   75.6040  219.5320 N   0  0  0  0  0  0  0  0  0  0  0  0
  142.8820   77.8930  220.1840 H   0  0  0  0  0  0  0  0  0  0  0  0
  142.0735   79.9488  218.5673 H   0  0  0  0  0  0  0  0  0  0  0  0
  140.5594   78.8499  218.7821 H   0  0  0  0  0  0  0  0  0  0  0  0
  143.2130   81.1912  222.5523 H   0  0  0  0  0  0  0  0  0  0  0  0
  142.0212   82.2414  221.8632 H   0  0  0  0  0  0  0  0  0  0  0  0
  141.9093   81.5872  224.4993 H   0  0  0  0  0  0  0  0  0  0  0  0
  140.3864   81.6832  223.6062 H   0  0  0  0  0  0  0  0  0  0  0  0
  141.6832   79.3358  224.7737 H   0  0  0  0  0  0  0  0  0  0  0  0
  140.0985   79.4021  224.0176 H   0  0  0  0  0  0  0  0  0  0  0  0
  142.8038   78.7196  222.6869 H   0  0  0  0  0  0  0  0  0  0  0  0
  139.0536   77.9568  223.3371 H   0  0  0  0  0  0  0  0  0  0  0  0
  138.6020   75.6810  222.2970 H   0  0  0  0  0  0  0  0  0  0  0  0
  141.8793   73.6501  222.2227 H   0  0  0  0  0  0  0  0  0  0  0  0
  142.0352   71.5197  220.9365 H   0  0  0  0  0  0  0  0  0  0  0  0
  140.9483   71.2823  218.7176 H   0  0  0  0  0  0  0  0  0  0  0  0
  139.6597   73.2063  217.7355 H   0  0  0  0  0  0  0  0  0  0  0  0
  139.5154   75.3223  219.0358 H   0  0  0  0  0  0  0  0  0  0  0  0
  142.7643   75.4234  216.2941 H   0  0  0  0  0  0  0  0  0  0  0  0
  144.1310   73.3580  216.4468 H   0  0  0  0  0  0  0  0  0  0  0  0
  145.5251   71.8402  217.7948 H   0  0  0  0  0  0  0  0  0  0  0  0
  146.2018   72.8293  221.9411 H   0  0  0  0  0  0  0  0  0  0  0  0
  144.8195   74.8755  221.6979 H   0  0  0  0  0  0  0  0  0  0  0  0
  1  2  2  0
  2  3  1  0
  3  4  1  0
  4  5  1  0
  5  6  2  0
  5  7  1  0
  7  8  1  0
  8  9  1  0
  9 10  1  0
 10 11  1  0
 11 12  1  0
 12 13  2  0
 13 14  1  0
 14 15  1  0
 15 16  1  0
 16 17  2  0
 17 18  1  0
 18 19  2  0
 19 20  1  0
 20 21  2  0
 15 22  2  0
  2 23  1  0
 23 24  2  0
 24 25  1  0
 25 26  2  0
 26 27  1  0
 27 28  2  0
 28 29  1  0
 28 30  1  0
 30 31  2  0
 31 32  1  0
 32 33  2  0
 11  7  1  0
 22 12  1  0
 33 23  1  0
 21 16  1  0
 32 26  1  0
  3 34  1  0
  4 35  1  0
  4 36  1  0
  8 37  1  0
  8 38  1  0
  9 39  1  0
  9 40  1  0
 10 41  1  0
 10 42  1  0
 11 43  1  1
 13 44  1  0
 14 45  1  0
 17 46  1  0
 18 47  1  0
 19 48  1  0
 20 49  1  0
 21 50  1  0
 24 51  1  0
 25 52  1  0
 27 53  1  0
 30 54  1  0
 31 55  1  0
M  END
>  <smiles>  (49) 
O=C(NCC(=O)N1CCC[C@H]1c1c[nH]c(-c2ccccc2)n1)c1ccc2cc(F)ccc2n1

>  <score_type>  (49) 
oracle

>  <origin>  (49) 
autodockgpu

>  <m_score__min__energy>  (49) 
-9.4700000000000006

>  <m_primary>  (49) 
energy

>  <rmsd>  (49) 
8.119319585131933

>  <m_score__min__rmsd>  (49) 
8.119319585131933

>  <meeko>  (49) 
{"free_energy": -6.39, "intermolecular_energy": -8.18, "internal_energy": -4.1, "cluster_size": 4, "cluster_id": 12, "rank_in_cluster": 1}

>  <energy>  (49) 
-6.36

>  <cluster_rmsd>  (49) 
0.17

>  <cluster>  (49) 
12

$$$$

     RDKit          3D

 55 59  0  0  0  0  0  0  0  0999 V2000
  140.3990   74.2380  221.9660 O   0  0  0  0  0  0  0  0  0  0  0  0
  141.4140   74.7870  221.4660 C   0  0  0  0  0  0  0  0  0  0  0  0
  141.4560   76.2370  221.5340 N   0  0  0  0  0  0  0  0  0  0  0  0
  140.3650   76.8880  222.1490 C   0  0  0  0  0  0  0  0  0  0  0  0
  139.9590   78.2200  221.7120 C   0  0  0  0  0  0  0  0  0  0  0  0
  138.9770   78.2120  220.8630 O   0  0  0  0  0  0  0  0  0  0  0  0
  140.4420   79.4840  222.0530 N   0  0  0  0  0  0  0  0  0  0  0  0
  140.3390   80.2710  223.2960 C   0  0  0  0  0  0  0  0  0  0  0  0
  141.7920   80.6010  223.5200 C   0  0  0  0  0  0  0  0  0  0  0  0
  142.3890   80.7370  222.1480 C   0  0  0  0  0  0  0  0  0  0  0  0
  141.2480   80.3650  221.2120 C   0  0  1  0  0  0  0  0  0  0  0  0
  141.8190   79.7150  220.0150 C   0  0  0  0  0  0  0  0  0  0  0  0
  142.4850   80.2320  218.9300 C   0  0  0  0  0  0  0  0  0  0  0  0
  142.8110   79.2230  218.0920 N   0  0  0  0  0  0  0  0  0  0  0  0
  142.3590   78.0740  218.6350 C   0  0  0  0  0  0  0  0  0  0  0  0
  142.5280   76.7670  218.0100 C   0  0  0  0  0  0  0  0  0  0  0  0
  143.7060   76.5140  217.3350 C   0  0  0  0  0  0  0  0  0  0  0  0
  143.8420   75.2680  216.7510 C   0  0  0  0  0  0  0  0  0  0  0  0
  142.8360   74.3020  216.8360 C   0  0  0  0  0  0  0  0  0  0  0  0
  141.6530   74.5830  217.5250 C   0  0  0  0  0  0  0  0  0  0  0  0
  141.5250   75.8280  218.1050 C   0  0  0  0  0  0  0  0  0  0  0  0
  141.7620   78.3850  219.7960 N   0  0  0  0  0  0  0  0  0  0  0  0
  142.5070   74.0630  220.8450 C   0  0  0  0  0  0  0  0  0  0  0  0
  143.6200   74.7570  220.4560 C   0  0  0  0  0  0  0  0  0  0  0  0
  144.6610   74.0770  219.8670 C   0  0  0  0  0  0  0  0  0  0  0  0
  144.5800   72.7170  219.6730 C   0  0  0  0  0  0  0  0  0  0  0  0
  145.6010   72.0000  219.0870 C   0  0  0  0  0  0  0  0  0  0  0  0
  145.4370   70.6250  218.9290 C   0  0  0  0  0  0  0  0  0  0  0  0
  146.4120   69.8650  218.3570 F   0  0  0  0  0  0  0  0  0  0  0  0
  144.2860   69.9870  219.3460 C   0  0  0  0  0  0  0  0  0  0  0  0
  143.2720   70.7030  219.9280 C   0  0  0  0  0  0  0  0  0  0  0  0
  143.4340   72.0750  220.0870 C   0  0  0  0  0  0  0  0  0  0  0  0
  142.4090   72.7280  220.6640 N   0  0  0  0  0  0  0  0  0  0  0  0
  142.2820   76.7310  221.1290 H   0  0  0  0  0  0  0  0  0  0  0  0
  139.4914   76.2326  222.0177 H   0  0  0  0  0  0  0  0  0  0  0  0
  140.7243   77.0612  223.1741 H   0  0  0  0  0  0  0  0  0  0  0  0
  139.7317   81.1774  223.1558 H   0  0  0  0  0  0  0  0  0  0  0  0
  139.8481   79.7523  224.1326 H   0  0  0  0  0  0  0  0  0  0  0  0
  141.8905   81.5442  224.0773 H   0  0  0  0  0  0  0  0  0  0  0  0
  142.3003   79.8249  224.1111 H   0  0  0  0  0  0  0  0  0  0  0  0
  142.7224   81.7695  221.9671 H   0  0  0  0  0  0  0  0  0  0  0  0
  143.2763   80.1023  222.0073 H   0  0  0  0  0  0  0  0  0  0  0  0
  140.6417   81.1937  220.8175 H   0  0  0  0  0  0  0  0  0  0  0  0
  142.7156   81.2955  218.7694 H   0  0  0  0  0  0  0  0  0  0  0  0
  143.3240   79.3890  217.2000 H   0  0  0  0  0  0  0  0  0  0  0  0
  144.5013   77.2706  217.2650 H   0  0  0  0  0  0  0  0  0  0  0  0
  144.7669   75.0309  216.2049 H   0  0  0  0  0  0  0  0  0  0  0  0
  142.9752   73.3199  216.3604 H   0  0  0  0  0  0  0  0  0  0  0  0
  140.8498   73.8354  217.6023 H   0  0  0  0  0  0  0  0  0  0  0  0
  140.6044   76.0755  218.6538 H   0  0  0  0  0  0  0  0  0  0  0  0
  143.6818   75.8441  220.6120 H   0  0  0  0  0  0  0  0  0  0  0  0
  145.5619   74.6228  219.5498 H   0  0  0  0  0  0  0  0  0  0  0  0
  146.5218   72.5003  218.7526 H   0  0  0  0  0  0  0  0  0  0  0  0
  144.1821   68.9003  219.2108 H   0  0  0  0  0  0  0  0  0  0  0  0
  142.3507   70.2033  220.2618 H   0  0  0  0  0  0  0  0  0  0  0  0
  1  2  2  0
  2  3  1  0
  3  4  1  0
  4  5  1  0
  5  6  2  0
  5  7  1  0
  7  8  1  0
  8  9  1  0
  9 10  1  0
 10 11  1  0
 11 12  1  0
 12 13  2  0
 13 14  1  0
 14 15  1  0
 15 16  1  0
 16 17  2  0
 17 18  1  0
 18 19  2  0
 19 20  1  0
 20 21  2  0
 15 22  2  0
  2 23  1  0
 23 24  2  0
 24 25  1  0
 25 26  2  0
 26 27  1  0
 27 28  2  0
 28 29  1  0
 28 30  1  0
 30 31  2  0
 31 32  1  0
 32 33  2  0
 11  7  1  0
 22 12  1  0
 33 23  1  0
 21 16  1  0
 32 26  1  0
  3 34  1  0
  4 35  1  0
  4 36  1  0
  8 37  1  0
  8 38  1  0
  9 39  1  0
  9 40  1  0
 10 41  1  0
 10 42  1  0
 11 43  1  6
 13 44  1  0
 14 45  1  0
 17 46  1  0
 18 47  1  0
 19 48  1  0
 20 49  1  0
 21 50  1  0
 24 51  1  0
 25 52  1  0
 27 53  1  0
 30 54  1  0
 31 55  1  0
M  END
>  <smiles>  (50) 
O=C(NCC(=O)N1CCC[C@H]1c1c[nH]c(-c2ccccc2)n1)c1ccc2cc(F)ccc2n1

>  <score_type>  (50) 
oracle

>  <origin>  (50) 
autodockgpu

>  <m_score__min__energy>  (50) 
-9.4700000000000006

>  <m_primary>  (50) 
energy

>  <rmsd>  (50) 
7.366556630533629

>  <m_score__min__rmsd>  (50) 
7.366556630533629

>  <meeko>  (50) 
{"free_energy": -7.42, "intermolecular_energy": -9.21, "internal_energy": -3.16, "cluster_size": 20, "cluster_id": 7, "rank_in_cluster": 2}

>  <energy>  (50) 
-6.29

>  <cluster_rmsd>  (50) 
0.33

>  <cluster>  (50) 
12

$$$$
