
     RDKit          3D

 55 58  0  0  0  0  0  0  0  0999 V2000
  145.8010   73.7220  217.7740 N   0  0  0  0  0  0  0  0  0  0  0  0
  145.5770   72.8060  219.2220 S   0  0  0  0  0  0  0  0  0  0  0  0
  145.5490   71.3520  218.8880 O   0  0  0  0  0  0  0  0  0  0  0  0
  146.6970   73.0720  220.1790 O   0  0  0  0  0  0  0  0  0  0  0  0
  144.0600   73.2730  219.9320 C   0  0  0  0  0  0  0  0  0  0  0  0
  143.8660   74.5840  220.2650 C   0  0  0  0  0  0  0  0  0  0  0  0
  142.6620   74.9880  220.8340 C   0  0  0  0  0  0  0  0  0  0  0  0
  141.6250   74.1300  221.0910 C   0  0  0  0  0  0  0  0  0  0  0  0
  140.4300   74.3770  221.6280 O   0  0  0  0  0  0  0  0  0  0  0  0
  139.5690   75.4480  221.6530 C   0  0  0  0  0  0  0  0  0  0  0  0
  140.2570   76.7570  221.5140 C   0  0  0  0  0  0  0  0  0  0  0  0
  140.7280   77.2620  222.7050 N   0  0  0  0  0  0  0  0  0  0  0  0
  141.3520   78.4380  222.7940 C   0  0  0  0  0  0  0  0  0  0  0  0
  141.8020   78.8910  224.0200 C   0  0  0  0  0  0  0  0  0  0  0  0
  142.4410   80.1190  224.0520 C   0  0  0  0  0  0  0  0  0  0  0  0
  142.6220   80.8640  222.9040 C   0  0  0  0  0  0  0  0  0  0  0  0
  142.1530   80.3670  221.6990 C   0  0  0  0  0  0  0  0  0  0  0  0
  141.5110   79.1480  221.6250 C   0  0  0  0  0  0  0  0  0  0  0  0
  141.0360   78.6330  220.4310 C   0  0  0  0  0  0  0  0  0  0  0  0
  141.2240   79.3530  219.4180 O   0  0  0  0  0  0  0  0  0  0  0  0
  140.4030   77.4240  220.3600 N   0  0  0  0  0  0  0  0  0  0  0  0
  139.9940   76.9800  219.0710 C   0  0  0  0  0  0  0  0  0  0  0  0
  141.0570   76.5070  218.1330 C   0  0  0  0  0  0  0  0  0  0  0  0
  141.0110   75.0400  217.8430 C   0  0  0  0  0  0  0  0  0  0  0  0
  142.2850   74.5190  217.2120 C   0  0  0  0  0  0  0  0  0  0  0  0
  142.8590   75.6110  216.3320 C   0  0  0  0  0  0  0  0  0  0  0  0
  143.3010   76.7650  217.1710 C   0  0  0  0  0  0  0  0  0  0  0  0
  142.4500   76.9430  218.4200 C   0  0  0  0  0  0  0  0  0  0  0  0
  141.8840   72.7870  220.7240 C   0  0  0  0  0  0  0  0  0  0  0  0
  143.0520   72.3870  220.1710 C   0  0  0  0  0  0  0  0  0  0  0  0
  146.7790   74.0640  217.6680 H   0  0  0  0  0  0  0  0  0  0  0  0
  145.1170   74.5050  217.6900 H   0  0  0  0  0  0  0  0  0  0  0  0
  144.6623   75.3207  220.0831 H   0  0  0  0  0  0  0  0  0  0  0  0
  142.5364   76.0503  221.0905 H   0  0  0  0  0  0  0  0  0  0  0  0
  138.8530   75.3400  220.8249 H   0  0  0  0  0  0  0  0  0  0  0  0
  139.0712   75.4436  222.6339 H   0  0  0  0  0  0  0  0  0  0  0  0
  141.6579   78.2984  224.9355 H   0  0  0  0  0  0  0  0  0  0  0  0
  142.8118   80.5087  225.0115 H   0  0  0  0  0  0  0  0  0  0  0  0
  143.1312   81.8381  222.9455 H   0  0  0  0  0  0  0  0  0  0  0  0
  142.2955   80.9568  220.7815 H   0  0  0  0  0  0  0  0  0  0  0  0
  139.2902   76.1475  219.2176 H   0  0  0  0  0  0  0  0  0  0  0  0
  139.5727   77.8741  218.5881 H   0  0  0  0  0  0  0  0  0  0  0  0
  140.7733   77.0484  217.2184 H   0  0  0  0  0  0  0  0  0  0  0  0
  140.8425   74.5016  218.7873 H   0  0  0  0  0  0  0  0  0  0  0  0
  140.1964   74.8734  217.1228 H   0  0  0  0  0  0  0  0  0  0  0  0
  143.0085   74.2550  217.9974 H   0  0  0  0  0  0  0  0  0  0  0  0
  142.0726   73.6211  216.6132 H   0  0  0  0  0  0  0  0  0  0  0  0
  143.7208   75.2145  215.7751 H   0  0  0  0  0  0  0  0  0  0  0  0
  142.0847   75.9519  215.6289 H   0  0  0  0  0  0  0  0  0  0  0  0
  144.3444   76.5985  217.4769 H   0  0  0  0  0  0  0  0  0  0  0  0
  143.1955   77.6765  216.5644 H   0  0  0  0  0  0  0  0  0  0  0  0
  142.8646   76.3339  219.2368 H   0  0  0  0  0  0  0  0  0  0  0  0
  142.4503   78.0019  218.7179 H   0  0  0  0  0  0  0  0  0  0  0  0
  141.0999   72.0350  220.8964 H   0  0  0  0  0  0  0  0  0  0  0  0
  143.1909   71.3276  219.9095 H   0  0  0  0  0  0  0  0  0  0  0  0
  1  2  1  0
  2  3  2  0
  2  4  2  0
  2  5  1  0
  5  6  2  0
  6  7  1  0
  7  8  2  0
  8  9  1  0
  9 10  1  0
 10 11  1  0
 11 12  2  0
 12 13  1  0
 13 14  2  0
 14 15  1  0
 15 16  2  0
 16 17  1  0
 17 18  2  0
 18 19  1  0
 19 20  2  0
 19 21  1  0
 21 22  1  0
 22 23  1  0
 23 24  1  0
 24 25  1  0
 25 26  1  0
 26 27  1  0
 27 28  1  0
  8 29  1  0
 29 30  2  0
 30  5  1  0
 21 11  1  0
 28 23  1  0
 18 13  1  0
  1 31  1  0
  1 32  1  0
  6 33  1  0
  7 34  1  0
 10 35  1  0
 10 36  1  0
 14 37  1  0
 15 38  1  0
 16 39  1  0
 17 40  1  0
 22 41  1  0
 22 42  1  0
 23 43  1  0
 24 44  1  0
 24 45  1  0
 25 46  1  0
 25 47  1  0
 26 48  1  0
 26 49  1  0
 27 50  1  0
 27 51  1  0
 28 52  1  0
 28 53  1  0
 29 54  1  0
 30 55  1  0
M  END
>  <smiles>  (1) 
NS(=O)(=O)c1ccc(OCc2nc3ccccc3c(=O)n2CC2CCCCC2)cc1

>  <score_type>  (1) 
oracle

>  <origin>  (1) 
autodockgpu

>  <m_score__min__energy>  (1) 
-8.8800000000000008

>  <m_primary>  (1) 
energy

>  <rmsd>  (1) 
3.6786759421832165

>  <m_score__min__rmsd>  (1) 
3.6786759421832165

>  <meeko>  (1) 
{"free_energy": -7.54, "intermolecular_energy": -9.63, "internal_energy": -2.31, "cluster_size": 16, "cluster_id": 6, "rank_in_cluster": 9}

>  <energy>  (1) 
-8.88

>  <cluster_rmsd>  (1) 
0.0

>  <cluster>  (1) 
1

$$$$

     RDKit          3D

 55 58  0  0  0  0  0  0  0  0999 V2000
  139.1720   67.1300  226.2780 N   0  0  0  0  0  0  0  0  0  0  0  0
  140.4340   68.2420  226.6760 S   0  0  0  0  0  0  0  0  0  0  0  0
  140.2860   68.6710  228.0980 O   0  0  0  0  0  0  0  0  0  0  0  0
  141.7700   67.5910  226.4930 O   0  0  0  0  0  0  0  0  0  0  0  0
  140.2920   69.6230  225.6290 C   0  0  0  0  0  0  0  0  0  0  0  0
  139.5720   69.5010  224.4730 C   0  0  0  0  0  0  0  0  0  0  0  0
  139.4410   70.5890  223.6160 C   0  0  0  0  0  0  0  0  0  0  0  0
  140.0040   71.8140  223.8610 C   0  0  0  0  0  0  0  0  0  0  0  0
  139.9610   72.9300  223.1340 O   0  0  0  0  0  0  0  0  0  0  0  0
  139.8330   73.2260  221.7990 C   0  0  0  0  0  0  0  0  0  0  0  0
  141.1150   73.6180  221.1600 C   0  0  0  0  0  0  0  0  0  0  0  0
  142.0250   72.5890  221.0700 N   0  0  0  0  0  0  0  0  0  0  0  0
  143.2440   72.7450  220.5500 C   0  0  0  0  0  0  0  0  0  0  0  0
  144.1120   71.6710  220.4870 C   0  0  0  0  0  0  0  0  0  0  0  0
  145.3640   71.8940  219.9390 C   0  0  0  0  0  0  0  0  0  0  0  0
  145.7340   73.1400  219.4740 C   0  0  0  0  0  0  0  0  0  0  0  0
  144.8280   74.1850  219.5590 C   0  0  0  0  0  0  0  0  0  0  0  0
  143.5700   74.0050  220.0980 C   0  0  0  0  0  0  0  0  0  0  0  0
  142.6500   75.0340  220.1910 C   0  0  0  0  0  0  0  0  0  0  0  0
  143.0390   76.1480  219.7560 O   0  0  0  0  0  0  0  0  0  0  0  0
  141.4050   74.8530  220.7230 N   0  0  0  0  0  0  0  0  0  0  0  0
  140.5310   75.9760  220.7280 C   0  0  0  0  0  0  0  0  0  0  0  0
  140.8370   77.0870  221.6800 C   0  0  0  0  0  0  0  0  0  0  0  0
  139.6730   77.5180  222.5160 C   0  0  0  0  0  0  0  0  0  0  0  0
  139.8860   78.8580  223.1850 C   0  0  0  0  0  0  0  0  0  0  0  0
  141.3570   78.9910  223.5230 C   0  0  0  0  0  0  0  0  0  0  0  0
  142.1650   79.0650  222.2690 C   0  0  0  0  0  0  0  0  0  0  0  0
  141.5520   78.2680  221.1270 C   0  0  0  0  0  0  0  0  0  0  0  0
  140.7360   71.8800  225.0720 C   0  0  0  0  0  0  0  0  0  0  0  0
  140.8680   70.8260  225.9100 C   0  0  0  0  0  0  0  0  0  0  0  0
  138.2300   67.5740  226.3020 H   0  0  0  0  0  0  0  0  0  0  0  0
  139.1990   66.2710  226.8690 H   0  0  0  0  0  0  0  0  0  0  0  0
  139.0961   68.5420  224.2205 H   0  0  0  0  0  0  0  0  0  0  0  0
  138.8552   70.4592  222.6941 H   0  0  0  0  0  0  0  0  0  0  0  0
  139.4411   72.3386  221.2804 H   0  0  0  0  0  0  0  0  0  0  0  0
  139.1521   74.0862  221.7192 H   0  0  0  0  0  0  0  0  0  0  0  0
  143.8195   70.6776  220.8579 H   0  0  0  0  0  0  0  0  0  0  0  0
  146.0789   71.0606  219.8728 H   0  0  0  0  0  0  0  0  0  0  0  0
  146.7330   73.3009  219.0425 H   0  0  0  0  0  0  0  0  0  0  0  0
  145.1175   75.1796  219.1889 H   0  0  0  0  0  0  0  0  0  0  0  0
  140.5358   76.4012  219.7135 H   0  0  0  0  0  0  0  0  0  0  0  0
  139.5641   75.5759  221.0672 H   0  0  0  0  0  0  0  0  0  0  0  0
  141.5686   76.5930  222.3363 H   0  0  0  0  0  0  0  0  0  0  0  0
  138.7848   77.5863  221.8707 H   0  0  0  0  0  0  0  0  0  0  0  0
  139.5470   76.7702  223.3128 H   0  0  0  0  0  0  0  0  0  0  0  0
  139.5864   79.6667  222.5022 H   0  0  0  0  0  0  0  0  0  0  0  0
  139.2787   78.9264  224.0996 H   0  0  0  0  0  0  0  0  0  0  0  0
  141.5140   79.9066  224.1120 H   0  0  0  0  0  0  0  0  0  0  0  0
  141.6742   78.1135  224.1055 H   0  0  0  0  0  0  0  0  0  0  0  0
  142.2416   80.1184  221.9615 H   0  0  0  0  0  0  0  0  0  0  0  0
  143.1525   78.6309  222.4842 H   0  0  0  0  0  0  0  0  0  0  0  0
  140.8422   78.9023  220.5758 H   0  0  0  0  0  0  0  0  0  0  0  0
  142.3464   77.9315  220.4446 H   0  0  0  0  0  0  0  0  0  0  0  0
  141.2186   72.8306  225.3432 H   0  0  0  0  0  0  0  0  0  0  0  0
  141.4511   70.9421  226.8355 H   0  0  0  0  0  0  0  0  0  0  0  0
  1  2  1  0
  2  3  2  0
  2  4  2  0
  2  5  1  0
  5  6  2  0
  6  7  1  0
  7  8  2  0
  8  9  1  0
  9 10  1  0
 10 11  1  0
 11 12  2  0
 12 13  1  0
 13 14  2  0
 14 15  1  0
 15 16  2  0
 16 17  1  0
 17 18  2  0
 18 19  1  0
 19 20  2  0
 19 21  1  0
 21 22  1  0
 22 23  1  0
 23 24  1  0
 24 25  1  0
 25 26  1  0
 26 27  1  0
 27 28  1  0
  8 29  1  0
 29 30  2  0
 30  5  1  0
 21 11  1  0
 28 23  1  0
 18 13  1  0
  1 31  1  0
  1 32  1  0
  6 33  1  0
  7 34  1  0
 10 35  1  0
 10 36  1  0
 14 37  1  0
 15 38  1  0
 16 39  1  0
 17 40  1  0
 22 41  1  0
 22 42  1  0
 23 43  1  0
 24 44  1  0
 24 45  1  0
 25 46  1  0
 25 47  1  0
 26 48  1  0
 26 49  1  0
 27 50  1  0
 27 51  1  0
 28 52  1  0
 28 53  1  0
 29 54  1  0
 30 55  1  0
M  END
>  <smiles>  (2) 
NS(=O)(=O)c1ccc(OCc2nc3ccccc3c(=O)n2CC2CCCCC2)cc1

>  <score_type>  (2) 
oracle

>  <origin>  (2) 
autodockgpu

>  <m_score__min__energy>  (2) 
-8.8800000000000008

>  <m_primary>  (2) 
energy

>  <rmsd>  (2) 
7.854035729897024

>  <m_score__min__rmsd>  (2) 
7.854035729897024

>  <meeko>  (2) 
{"free_energy": -8.88, "intermolecular_energy": -10.97, "internal_energy": -1.24, "cluster_size": 3, "cluster_id": 1, "rank_in_cluster": 1}

>  <energy>  (2) 
-8.63

>  <cluster_rmsd>  (2) 
0.84

>  <cluster>  (2) 
1

$$$$

     RDKit          3D

 55 58  0  0  0  0  0  0  0  0999 V2000
  146.2790   73.5330  218.3510 N   0  0  0  0  0  0  0  0  0  0  0  0
  145.7880   73.0630  219.9400 S   0  0  0  0  0  0  0  0  0  0  0  0
  145.7830   71.5740  220.0370 O   0  0  0  0  0  0  0  0  0  0  0  0
  146.7330   73.6220  220.9580 O   0  0  0  0  0  0  0  0  0  0  0  0
  144.1820   73.6730  220.2150 C   0  0  0  0  0  0  0  0  0  0  0  0
  143.9420   75.0040  220.0170 C   0  0  0  0  0  0  0  0  0  0  0  0
  142.6670   75.5210  220.2290 C   0  0  0  0  0  0  0  0  0  0  0  0
  141.6040   74.7600  220.6370 C   0  0  0  0  0  0  0  0  0  0  0  0
  140.3430   75.1200  220.8770 O   0  0  0  0  0  0  0  0  0  0  0  0
  139.6090   75.4310  221.9960 C   0  0  0  0  0  0  0  0  0  0  0  0
  139.6540   76.8740  222.3440 C   0  0  0  0  0  0  0  0  0  0  0  0
  140.9220   77.3380  222.6130 N   0  0  0  0  0  0  0  0  0  0  0  0
  141.1690   78.6000  222.9690 C   0  0  0  0  0  0  0  0  0  0  0  0
  142.4650   79.0040  223.2260 C   0  0  0  0  0  0  0  0  0  0  0  0
  142.6610   80.3250  223.5940 C   0  0  0  0  0  0  0  0  0  0  0  0
  141.6030   81.2060  223.7010 C   0  0  0  0  0  0  0  0  0  0  0  0
  140.3220   80.7520  223.4330 C   0  0  0  0  0  0  0  0  0  0  0  0
  140.0840   79.4440  223.0640 C   0  0  0  0  0  0  0  0  0  0  0  0
  138.8120   78.9700  222.7900 C   0  0  0  0  0  0  0  0  0  0  0  0
  137.8860   79.8120  222.9060 O   0  0  0  0  0  0  0  0  0  0  0  0
  138.5800   77.6750  222.4230 N   0  0  0  0  0  0  0  0  0  0  0  0
  137.2360   77.3150  222.1280 C   0  0  0  0  0  0  0  0  0  0  0  0
  136.5500   76.3720  223.0640 C   0  0  0  0  0  0  0  0  0  0  0  0
  136.4460   74.9690  222.5550 C   0  0  0  0  0  0  0  0  0  0  0  0
  135.4420   74.1330  223.3200 C   0  0  0  0  0  0  0  0  0  0  0  0
  135.4510   74.5870  224.7650 C   0  0  0  0  0  0  0  0  0  0  0  0
  134.9300   75.9830  224.8660 C   0  0  0  0  0  0  0  0  0  0  0  0
  135.2530   76.8210  223.6380 C   0  0  0  0  0  0  0  0  0  0  0  0
  141.9130   73.3910  220.8250 C   0  0  0  0  0  0  0  0  0  0  0  0
  143.1500   72.8810  220.6210 C   0  0  0  0  0  0  0  0  0  0  0  0
  147.2000   74.0190  218.3470 H   0  0  0  0  0  0  0  0  0  0  0  0
  145.5520   74.1000  217.8630 H   0  0  0  0  0  0  0  0  0  0  0  0
  144.7567   75.6669  219.6900 H   0  0  0  0  0  0  0  0  0  0  0  0
  142.5050   76.5958  220.0602 H   0  0  0  0  0  0  0  0  0  0  0  0
  138.5614   75.1473  221.8167 H   0  0  0  0  0  0  0  0  0  0  0  0
  140.0489   74.8780  222.8390 H   0  0  0  0  0  0  0  0  0  0  0  0
  143.3089   78.3035  223.1416 H   0  0  0  0  0  0  0  0  0  0  0  0
  143.6806   80.6796  223.8054 H   0  0  0  0  0  0  0  0  0  0  0  0
  141.7748   82.2521  223.9945 H   0  0  0  0  0  0  0  0  0  0  0  0
  139.4757   81.4498  223.5162 H   0  0  0  0  0  0  0  0  0  0  0  0
  136.6448   78.2423  222.1034 H   0  0  0  0  0  0  0  0  0  0  0  0
  137.2962   76.7683  221.1754 H   0  0  0  0  0  0  0  0  0  0  0  0
  137.2533   76.3798  223.9098 H   0  0  0  0  0  0  0  0  0  0  0  0
  136.1419   75.0015  221.4984 H   0  0  0  0  0  0  0  0  0  0  0  0
  137.4318   74.4987  222.6853 H   0  0  0  0  0  0  0  0  0  0  0  0
  134.4383   74.2726  222.8921 H   0  0  0  0  0  0  0  0  0  0  0  0
  135.7070   73.0674  223.2550 H   0  0  0  0  0  0  0  0  0  0  0  0
  134.8144   73.9167  225.3612 H   0  0  0  0  0  0  0  0  0  0  0  0
  136.4827   74.5586  225.1456 H   0  0  0  0  0  0  0  0  0  0  0  0
  133.8374   75.9429  224.9871 H   0  0  0  0  0  0  0  0  0  0  0  0
  135.4181   76.4579  225.7298 H   0  0  0  0  0  0  0  0  0  0  0  0
  134.4571   76.6972  222.8889 H   0  0  0  0  0  0  0  0  0  0  0  0
  135.3234   77.8810  223.9232 H   0  0  0  0  0  0  0  0  0  0  0  0
  141.1119   72.7116  221.1514 H   0  0  0  0  0  0  0  0  0  0  0  0
  143.3255   71.8077  220.7859 H   0  0  0  0  0  0  0  0  0  0  0  0
  1  2  1  0
  2  3  2  0
  2  4  2  0
  2  5  1  0
  5  6  2  0
  6  7  1  0
  7  8  2  0
  8  9  1  0
  9 10  1  0
 10 11  1  0
 11 12  2  0
 12 13  1  0
 13 14  2  0
 14 15  1  0
 15 16  2  0
 16 17  1  0
 17 18  2  0
 18 19  1  0
 19 20  2  0
 19 21  1  0
 21 22  1  0
 22 23  1  0
 23 24  1  0
 24 25  1  0
 25 26  1  0
 26 27  1  0
 27 28  1  0
  8 29  1  0
 29 30  2  0
 30  5  1  0
 21 11  1  0
 28 23  1  0
 18 13  1  0
  1 31  1  0
  1 32  1  0
  6 33  1  0
  7 34  1  0
 10 35  1  0
 10 36  1  0
 14 37  1  0
 15 38  1  0
 16 39  1  0
 17 40  1  0
 22 41  1  0
 22 42  1  0
 23 43  1  0
 24 44  1  0
 24 45  1  0
 25 46  1  0
 25 47  1  0
 26 48  1  0
 26 49  1  0
 27 50  1  0
 27 51  1  0
 28 52  1  0
 28 53  1  0
 29 54  1  0
 30 55  1  0
M  END
>  <smiles>  (3) 
NS(=O)(=O)c1ccc(OCc2nc3ccccc3c(=O)n2CC2CCCCC2)cc1

>  <score_type>  (3) 
oracle

>  <origin>  (3) 
autodockgpu

>  <m_score__min__energy>  (3) 
-8.8800000000000008

>  <m_primary>  (3) 
energy

>  <rmsd>  (3) 
5.666566552563078

>  <m_score__min__rmsd>  (3) 
5.666566552563078

>  <meeko>  (3) 
{"free_energy": -8.39, "intermolecular_energy": -10.48, "internal_energy": -1.26, "cluster_size": 4, "cluster_id": 4, "rank_in_cluster": 3}

>  <energy>  (3) 
-8.45

>  <cluster_rmsd>  (3) 
1.27

>  <cluster>  (3) 
1

$$$$

     RDKit          3D

 55 58  0  0  0  0  0  0  0  0999 V2000
  144.9560   73.8370  217.5880 N   0  0  0  0  0  0  0  0  0  0  0  0
  145.2610   72.8990  219.0080 S   0  0  0  0  0  0  0  0  0  0  0  0
  145.5710   71.4930  218.6150 O   0  0  0  0  0  0  0  0  0  0  0  0
  146.4220   73.4700  219.7620 O   0  0  0  0  0  0  0  0  0  0  0  0
  143.8310   72.9300  219.9970 C   0  0  0  0  0  0  0  0  0  0  0  0
  143.1940   74.1230  220.1950 C   0  0  0  0  0  0  0  0  0  0  0  0
  142.0480   74.1780  220.9820 C   0  0  0  0  0  0  0  0  0  0  0  0
  141.4970   73.0810  221.5900 C   0  0  0  0  0  0  0  0  0  0  0  0
  140.4150   72.9910  222.3630 O   0  0  0  0  0  0  0  0  0  0  0  0
  139.3950   72.0840  222.5190 C   0  0  0  0  0  0  0  0  0  0  0  0
  139.5290   71.2560  223.7450 C   0  0  0  0  0  0  0  0  0  0  0  0
  140.1990   71.8880  224.7670 N   0  0  0  0  0  0  0  0  0  0  0  0
  140.4430   71.3030  225.9410 C   0  0  0  0  0  0  0  0  0  0  0  0
  141.1220   71.9910  226.9290 C   0  0  0  0  0  0  0  0  0  0  0  0
  141.3480   71.3320  228.1270 C   0  0  0  0  0  0  0  0  0  0  0  0
  140.9130   70.0380  228.3270 C   0  0  0  0  0  0  0  0  0  0  0  0
  140.2370   69.3900  227.3060 C   0  0  0  0  0  0  0  0  0  0  0  0
  139.9920   70.0110  226.0990 C   0  0  0  0  0  0  0  0  0  0  0  0
  139.3170   69.3830  225.0660 C   0  0  0  0  0  0  0  0  0  0  0  0
  138.9470   68.2040  225.3000 O   0  0  0  0  0  0  0  0  0  0  0  0
  139.0740   70.0010  223.8720 N   0  0  0  0  0  0  0  0  0  0  0  0
  138.3350   69.2680  222.9010 C   0  0  0  0  0  0  0  0  0  0  0  0
  136.9020   68.9670  223.2020 C   0  0  0  0  0  0  0  0  0  0  0  0
  136.0880   68.5940  222.0040 C   0  0  0  0  0  0  0  0  0  0  0  0
  134.5970   68.6610  222.2550 C   0  0  0  0  0  0  0  0  0  0  0  0
  134.3410   68.2700  223.6960 C   0  0  0  0  0  0  0  0  0  0  0  0
  134.9220   69.2940  224.6150 C   0  0  0  0  0  0  0  0  0  0  0  0
  136.1740   69.9490  224.0480 C   0  0  0  0  0  0  0  0  0  0  0  0
  142.1990   71.8750  221.3480 C   0  0  0  0  0  0  0  0  0  0  0  0
  143.3150   71.8130  220.5840 C   0  0  0  0  0  0  0  0  0  0  0  0
  145.1810   74.8440  217.7210 H   0  0  0  0  0  0  0  0  0  0  0  0
  143.9830   73.7120  217.2320 H   0  0  0  0  0  0  0  0  0  0  0  0
  143.5876   75.0399  219.7320 H   0  0  0  0  0  0  0  0  0  0  0  0
  141.5589   75.1531  221.1234 H   0  0  0  0  0  0  0  0  0  0  0  0
  138.4436   72.6337  222.5709 H   0  0  0  0  0  0  0  0  0  0  0  0
  139.4316   71.4005  221.6579 H   0  0  0  0  0  0  0  0  0  0  0  0
  141.4698   73.0225  226.7704 H   0  0  0  0  0  0  0  0  0  0  0  0
  141.8850   71.8510  228.9347 H   0  0  0  0  0  0  0  0  0  0  0  0
  141.1003   69.5281  229.2835 H   0  0  0  0  0  0  0  0  0  0  0  0
  139.8882   68.3584  227.4612 H   0  0  0  0  0  0  0  0  0  0  0  0
  138.3602   69.8446  221.9646 H   0  0  0  0  0  0  0  0  0  0  0  0
  138.8245   68.2836  222.8632 H   0  0  0  0  0  0  0  0  0  0  0  0
  137.0119   68.0735  223.8340 H   0  0  0  0  0  0  0  0  0  0  0  0
  136.3362   69.2835  221.1836 H   0  0  0  0  0  0  0  0  0  0  0  0
  136.3319   67.5510  221.7535 H   0  0  0  0  0  0  0  0  0  0  0  0
  134.2352   69.6844  222.0771 H   0  0  0  0  0  0  0  0  0  0  0  0
  134.0665   67.9772  221.5760 H   0  0  0  0  0  0  0  0  0  0  0  0
  133.2566   68.2005  223.8673 H   0  0  0  0  0  0  0  0  0  0  0  0
  134.8138   67.2969  223.8951 H   0  0  0  0  0  0  0  0  0  0  0  0
  134.1675   70.0739  224.7950 H   0  0  0  0  0  0  0  0  0  0  0  0
  135.2073   68.7817  225.5457 H   0  0  0  0  0  0  0  0  0  0  0  0
  135.8895   70.8194  223.4386 H   0  0  0  0  0  0  0  0  0  0  0  0
  136.8235   70.2780  224.8726 H   0  0  0  0  0  0  0  0  0  0  0  0
  141.8205   70.9469  221.8012 H   0  0  0  0  0  0  0  0  0  0  0  0
  143.8142   70.8443  220.4343 H   0  0  0  0  0  0  0  0  0  0  0  0
  1  2  1  0
  2  3  2  0
  2  4  2  0
  2  5  1  0
  5  6  2  0
  6  7  1  0
  7  8  2  0
  8  9  1  0
  9 10  1  0
 10 11  1  0
 11 12  2  0
 12 13  1  0
 13 14  2  0
 14 15  1  0
 15 16  2  0
 16 17  1  0
 17 18  2  0
 18 19  1  0
 19 20  2  0
 19 21  1  0
 21 22  1  0
 22 23  1  0
 23 24  1  0
 24 25  1  0
 25 26  1  0
 26 27  1  0
 27 28  1  0
  8 29  1  0
 29 30  2  0
 30  5  1  0
 21 11  1  0
 28 23  1  0
 18 13  1  0
  1 31  1  0
  1 32  1  0
  6 33  1  0
  7 34  1  0
 10 35  1  0
 10 36  1  0
 14 37  1  0
 15 38  1  0
 16 39  1  0
 17 40  1  0
 22 41  1  0
 22 42  1  0
 23 43  1  0
 24 44  1  0
 24 45  1  0
 25 46  1  0
 25 47  1  0
 26 48  1  0
 26 49  1  0
 27 50  1  0
 27 51  1  0
 28 52  1  0
 28 53  1  0
 29 54  1  0
 30 55  1  0
M  END
>  <smiles>  (4) 
NS(=O)(=O)c1ccc(OCc2nc3ccccc3c(=O)n2CC2CCCCC2)cc1

>  <score_type>  (4) 
oracle

>  <origin>  (4) 
autodockgpu

>  <m_score__min__energy>  (4) 
-8.8800000000000008

>  <m_primary>  (4) 
energy

>  <rmsd>  (4) 
11.511327297286492

>  <m_score__min__rmsd>  (4) 
11.511327297286492

>  <meeko>  (4) 
{"free_energy": -8.73, "intermolecular_energy": -10.82, "internal_energy": -1.29, "cluster_size": 17, "cluster_id": 2, "rank_in_cluster": 3}

>  <energy>  (4) 
-8.86

>  <cluster_rmsd>  (4) 
0.0

>  <cluster>  (4) 
2

$$$$

     RDKit          3D

 55 58  0  0  0  0  0  0  0  0999 V2000
  146.2730   71.2620  219.7150 N   0  0  0  0  0  0  0  0  0  0  0  0
  145.9400   72.9180  219.3470 S   0  0  0  0  0  0  0  0  0  0  0  0
  147.0010   73.7810  219.9430 O   0  0  0  0  0  0  0  0  0  0  0  0
  145.9130   73.1210  217.8640 O   0  0  0  0  0  0  0  0  0  0  0  0
  144.3960   73.3280  220.0350 C   0  0  0  0  0  0  0  0  0  0  0  0
  143.5270   72.3200  220.3470 C   0  0  0  0  0  0  0  0  0  0  0  0
  142.2850   72.6180  220.8990 C   0  0  0  0  0  0  0  0  0  0  0  0
  141.8620   73.8950  221.1590 C   0  0  0  0  0  0  0  0  0  0  0  0
  140.7100   74.3200  221.6790 O   0  0  0  0  0  0  0  0  0  0  0  0
  139.8540   75.3670  221.4390 C   0  0  0  0  0  0  0  0  0  0  0  0
  140.5380   76.6840  221.3830 C   0  0  0  0  0  0  0  0  0  0  0  0
  140.8420   77.2010  222.6220 N   0  0  0  0  0  0  0  0  0  0  0  0
  141.4350   78.3850  222.7850 C   0  0  0  0  0  0  0  0  0  0  0  0
  141.7140   78.8490  224.0570 C   0  0  0  0  0  0  0  0  0  0  0  0
  142.3290   80.0850  224.1650 C   0  0  0  0  0  0  0  0  0  0  0  0
  142.6510   80.8270  223.0470 C   0  0  0  0  0  0  0  0  0  0  0  0
  142.3510   80.3190  221.7940 C   0  0  0  0  0  0  0  0  0  0  0  0
  141.7390   79.0910  221.6430 C   0  0  0  0  0  0  0  0  0  0  0  0
  141.4310   78.5640  220.4000 C   0  0  0  0  0  0  0  0  0  0  0  0
  141.7430   79.2820  219.4160 O   0  0  0  0  0  0  0  0  0  0  0  0
  140.8270   77.3480  220.2540 N   0  0  0  0  0  0  0  0  0  0  0  0
  140.5980   76.8920  218.9250 C   0  0  0  0  0  0  0  0  0  0  0  0
  141.7620   76.3280  218.1760 C   0  0  0  0  0  0  0  0  0  0  0  0
  142.5380   77.3400  217.3950 C   0  0  0  0  0  0  0  0  0  0  0  0
  143.4580   76.7200  216.3660 C   0  0  0  0  0  0  0  0  0  0  0  0
  143.9620   75.4010  216.9150 C   0  0  0  0  0  0  0  0  0  0  0  0
  142.8310   74.4330  217.0410 C   0  0  0  0  0  0  0  0  0  0  0  0
  141.5070   75.1140  217.3560 C   0  0  0  0  0  0  0  0  0  0  0  0
  142.8040   74.8950  220.8160 C   0  0  0  0  0  0  0  0  0  0  0  0
  144.0140   74.6140  220.2790 C   0  0  0  0  0  0  0  0  0  0  0  0
  145.4110   70.6790  219.7350 H   0  0  0  0  0  0  0  0  0  0  0  0
  146.8210   71.1550  220.5960 H   0  0  0  0  0  0  0  0  0  0  0  0
  143.8096   71.2732  220.1617 H   0  0  0  0  0  0  0  0  0  0  0  0
  141.6076   71.7852  221.1391 H   0  0  0  0  0  0  0  0  0  0  0  0
  139.3514   75.1934  220.4761 H   0  0  0  0  0  0  0  0  0  0  0  0
  139.1425   75.4048  222.2770 H   0  0  0  0  0  0  0  0  0  0  0  0
  141.4573   78.2590  224.9492 H   0  0  0  0  0  0  0  0  0  0  0  0
  142.5657   80.4836  225.1625 H   0  0  0  0  0  0  0  0  0  0  0  0
  143.1388   81.8076  223.1495 H   0  0  0  0  0  0  0  0  0  0  0  0
  142.6059   80.9068  220.8999 H   0  0  0  0  0  0  0  0  0  0  0  0
  139.8276   76.1084  218.9743 H   0  0  0  0  0  0  0  0  0  0  0  0
  140.3170   77.7958  218.3645 H   0  0  0  0  0  0  0  0  0  0  0  0
  142.3902   75.9818  219.0100 H   0  0  0  0  0  0  0  0  0  0  0  0
  141.8280   78.0010  216.8763 H   0  0  0  0  0  0  0  0  0  0  0  0
  143.1688   77.8905  218.1085 H   0  0  0  0  0  0  0  0  0  0  0  0
  142.9069   76.5474  215.4298 H   0  0  0  0  0  0  0  0  0  0  0  0
  144.3031   77.3926  216.1577 H   0  0  0  0  0  0  0  0  0  0  0  0
  144.7199   74.9885  216.2328 H   0  0  0  0  0  0  0  0  0  0  0  0
  144.4049   75.5693  217.9077 H   0  0  0  0  0  0  0  0  0  0  0  0
  142.7284   73.8863  216.0920 H   0  0  0  0  0  0  0  0  0  0  0  0
  143.0639   73.7571  217.8770 H   0  0  0  0  0  0  0  0  0  0  0  0
  141.0095   75.4018  216.4181 H   0  0  0  0  0  0  0  0  0  0  0  0
  140.8599   74.4214  217.9142 H   0  0  0  0  0  0  0  0  0  0  0  0
  142.5403   75.9480  220.9941 H   0  0  0  0  0  0  0  0  0  0  0  0
  144.7014   75.4374  220.0351 H   0  0  0  0  0  0  0  0  0  0  0  0
  1  2  1  0
  2  3  2  0
  2  4  2  0
  2  5  1  0
  5  6  2  0
  6  7  1  0
  7  8  2  0
  8  9  1  0
  9 10  1  0
 10 11  1  0
 11 12  2  0
 12 13  1  0
 13 14  2  0
 14 15  1  0
 15 16  2  0
 16 17  1  0
 17 18  2  0
 18 19  1  0
 19 20  2  0
 19 21  1  0
 21 22  1  0
 22 23  1  0
 23 24  1  0
 24 25  1  0
 25 26  1  0
 26 27  1  0
 27 28  1  0
  8 29  1  0
 29 30  2  0
 30  5  1  0
 21 11  1  0
 28 23  1  0
 18 13  1  0
  1 31  1  0
  1 32  1  0
  6 33  1  0
  7 34  1  0
 10 35  1  0
 10 36  1  0
 14 37  1  0
 15 38  1  0
 16 39  1  0
 17 40  1  0
 22 41  1  0
 22 42  1  0
 23 43  1  0
 24 44  1  0
 24 45  1  0
 25 46  1  0
 25 47  1  0
 26 48  1  0
 26 49  1  0
 27 50  1  0
 27 51  1  0
 28 52  1  0
 28 53  1  0
 29 54  1  0
 30 55  1  0
M  END
>  <smiles>  (5) 
NS(=O)(=O)c1ccc(OCc2nc3ccccc3c(=O)n2CC2CCCCC2)cc1

>  <score_type>  (5) 
oracle

>  <origin>  (5) 
autodockgpu

>  <m_score__min__energy>  (5) 
-8.8800000000000008

>  <m_primary>  (5) 
energy

>  <rmsd>  (5) 
3.7568805225439417

>  <m_score__min__rmsd>  (5) 
3.7568805225439417

>  <meeko>  (5) 
{"free_energy": -7.66, "intermolecular_energy": -9.75, "internal_energy": -2.23, "cluster_size": 16, "cluster_id": 6, "rank_in_cluster": 7}

>  <energy>  (5) 
-8.78

>  <cluster_rmsd>  (5) 
0.58

>  <cluster>  (5) 
2

$$$$

     RDKit          3D

 55 58  0  0  0  0  0  0  0  0999 V2000
  132.7230   73.3620  227.5820 N   0  0  0  0  0  0  0  0  0  0  0  0
  133.4880   73.7930  226.0930 S   0  0  0  0  0  0  0  0  0  0  0  0
  132.4600   74.2960  225.1350 O   0  0  0  0  0  0  0  0  0  0  0  0
  134.5090   74.8620  226.3290 O   0  0  0  0  0  0  0  0  0  0  0  0
  134.2490   72.3710  225.4410 C   0  0  0  0  0  0  0  0  0  0  0  0
  133.9790   71.1600  226.0140 C   0  0  0  0  0  0  0  0  0  0  0  0
  134.5730   70.0050  225.5140 C   0  0  0  0  0  0  0  0  0  0  0  0
  135.4390   70.0010  224.4520 C   0  0  0  0  0  0  0  0  0  0  0  0
  136.0750   68.9810  223.8770 O   0  0  0  0  0  0  0  0  0  0  0  0
  137.3430   68.7620  223.3970 C   0  0  0  0  0  0  0  0  0  0  0  0
  138.3870   69.5240  224.1290 C   0  0  0  0  0  0  0  0  0  0  0  0
  138.5960   69.0780  225.4150 N   0  0  0  0  0  0  0  0  0  0  0  0
  139.4740   69.6470  226.2430 C   0  0  0  0  0  0  0  0  0  0  0  0
  139.6380   69.1520  227.5240 C   0  0  0  0  0  0  0  0  0  0  0  0
  140.5630   69.7840  228.3380 C   0  0  0  0  0  0  0  0  0  0  0  0
  141.2930   70.8670  227.8910 C   0  0  0  0  0  0  0  0  0  0  0  0
  141.0930   71.3250  226.5990 C   0  0  0  0  0  0  0  0  0  0  0  0
  140.1810   70.7240  225.7560 C   0  0  0  0  0  0  0  0  0  0  0  0
  139.9660   71.1650  224.4610 C   0  0  0  0  0  0  0  0  0  0  0  0
  140.6550   72.1550  224.1070 O   0  0  0  0  0  0  0  0  0  0  0  0
  139.0650   70.5660  223.6270 N   0  0  0  0  0  0  0  0  0  0  0  0
  138.9610   71.0830  222.3060 C   0  0  0  0  0  0  0  0  0  0  0  0
  138.6030   72.5260  222.1520 C   0  0  0  0  0  0  0  0  0  0  0  0
  137.2970   72.7650  221.4620 C   0  0  0  0  0  0  0  0  0  0  0  0
  137.1290   74.1910  220.9850 C   0  0  0  0  0  0  0  0  0  0  0  0
  137.8250   75.1060  221.9710 C   0  0  0  0  0  0  0  0  0  0  0  0
  139.3000   74.8690  221.9350 C   0  0  0  0  0  0  0  0  0  0  0  0
  139.6560   73.4260  221.6100 C   0  0  0  0  0  0  0  0  0  0  0  0
  135.6800   71.2840  223.9010 C   0  0  0  0  0  0  0  0  0  0  0  0
  135.1060   72.4110  224.3820 C   0  0  0  0  0  0  0  0  0  0  0  0
  131.7060   73.5830  227.5840 H   0  0  0  0  0  0  0  0  0  0  0  0
  133.2020   73.7800  228.4090 H   0  0  0  0  0  0  0  0  0  0  0  0
  133.2919   71.0982  226.8708 H   0  0  0  0  0  0  0  0  0  0  0  0
  134.3350   69.0455  225.9964 H   0  0  0  0  0  0  0  0  0  0  0  0
  137.5687   67.6889  223.4833 H   0  0  0  0  0  0  0  0  0  0  0  0
  137.3603   69.1059  222.3523 H   0  0  0  0  0  0  0  0  0  0  0  0
  139.0563   68.2899  227.8823 H   0  0  0  0  0  0  0  0  0  0  0  0
  140.7194   69.4152  229.3625 H   0  0  0  0  0  0  0  0  0  0  0  0
  142.0227   71.3590  228.5509 H   0  0  0  0  0  0  0  0  0  0  0  0
  141.6738   72.1864  226.2374 H   0  0  0  0  0  0  0  0  0  0  0  0
  139.9342   70.9317  221.8162 H   0  0  0  0  0  0  0  0  0  0  0  0
  138.1169   70.5374  221.8590 H   0  0  0  0  0  0  0  0  0  0  0  0
  138.4941   72.8189  223.2067 H   0  0  0  0  0  0  0  0  0  0  0  0
  137.2332   72.0951  220.5918 H   0  0  0  0  0  0  0  0  0  0  0  0
  136.4992   72.5680  222.1933 H   0  0  0  0  0  0  0  0  0  0  0  0
  137.5802   74.3057  219.9884 H   0  0  0  0  0  0  0  0  0  0  0  0
  136.0610   74.4459  220.9194 H   0  0  0  0  0  0  0  0  0  0  0  0
  137.6177   76.1531  221.7051 H   0  0  0  0  0  0  0  0  0  0  0  0
  137.4504   74.8970  222.9839 H   0  0  0  0  0  0  0  0  0  0  0  0
  139.7425   75.5217  221.1681 H   0  0  0  0  0  0  0  0  0  0  0  0
  139.6963   75.0910  222.9368 H   0  0  0  0  0  0  0  0  0  0  0  0
  139.7211   73.3003  220.5191 H   0  0  0  0  0  0  0  0  0  0  0  0
  140.6256   73.1743  222.0644 H   0  0  0  0  0  0  0  0  0  0  0  0
  136.3643   71.3676  223.0439 H   0  0  0  0  0  0  0  0  0  0  0  0
  135.3354   73.3775  223.9095 H   0  0  0  0  0  0  0  0  0  0  0  0
  1  2  1  0
  2  3  2  0
  2  4  2  0
  2  5  1  0
  5  6  2  0
  6  7  1  0
  7  8  2  0
  8  9  1  0
  9 10  1  0
 10 11  1  0
 11 12  2  0
 12 13  1  0
 13 14  2  0
 14 15  1  0
 15 16  2  0
 16 17  1  0
 17 18  2  0
 18 19  1  0
 19 20  2  0
 19 21  1  0
 21 22  1  0
 22 23  1  0
 23 24  1  0
 24 25  1  0
 25 26  1  0
 26 27  1  0
 27 28  1  0
  8 29  1  0
 29 30  2  0
 30  5  1  0
 21 11  1  0
 28 23  1  0
 18 13  1  0
  1 31  1  0
  1 32  1  0
  6 33  1  0
  7 34  1  0
 10 35  1  0
 10 36  1  0
 14 37  1  0
 15 38  1  0
 16 39  1  0
 17 40  1  0
 22 41  1  0
 22 42  1  0
 23 43  1  0
 24 44  1  0
 24 45  1  0
 25 46  1  0
 25 47  1  0
 26 48  1  0
 26 49  1  0
 27 50  1  0
 27 51  1  0
 28 52  1  0
 28 53  1  0
 29 54  1  0
 30 55  1  0
M  END
>  <smiles>  (6) 
NS(=O)(=O)c1ccc(OCc2nc3ccccc3c(=O)n2CC2CCCCC2)cc1

>  <score_type>  (6) 
oracle

>  <origin>  (6) 
autodockgpu

>  <m_score__min__energy>  (6) 
-8.8800000000000008

>  <m_primary>  (6) 
energy

>  <rmsd>  (6) 
9.788599911886342

>  <m_score__min__rmsd>  (6) 
9.788599911886342

>  <meeko>  (6) 
{"free_energy": -7.6, "intermolecular_energy": -9.69, "internal_energy": -1.91, "cluster_size": 4, "cluster_id": 5, "rank_in_cluster": 4}

>  <energy>  (6) 
-8.73

>  <cluster_rmsd>  (6) 
1.37

>  <cluster>  (6) 
2

$$$$

     RDKit          3D

 55 58  0  0  0  0  0  0  0  0999 V2000
  141.3580   67.8620  226.4930 N   0  0  0  0  0  0  0  0  0  0  0  0
  139.7710   68.4910  226.2210 S   0  0  0  0  0  0  0  0  0  0  0  0
  138.9250   67.4400  225.5840 O   0  0  0  0  0  0  0  0  0  0  0  0
  139.1510   68.9040  227.5200 O   0  0  0  0  0  0  0  0  0  0  0  0
  139.9040   69.8610  225.1580 C   0  0  0  0  0  0  0  0  0  0  0  0
  138.8750   70.1290  224.3000 C   0  0  0  0  0  0  0  0  0  0  0  0
  138.9530   71.2180  223.4370 C   0  0  0  0  0  0  0  0  0  0  0  0
  140.0270   72.0670  223.3900 C   0  0  0  0  0  0  0  0  0  0  0  0
  140.2330   73.1360  222.6220 O   0  0  0  0  0  0  0  0  0  0  0  0
  139.4370   74.0910  222.0360 C   0  0  0  0  0  0  0  0  0  0  0  0
  140.1410   75.3760  221.7970 C   0  0  0  0  0  0  0  0  0  0  0  0
  139.7330   76.3920  222.6320 N   0  0  0  0  0  0  0  0  0  0  0  0
  140.2270   77.6290  222.5580 C   0  0  0  0  0  0  0  0  0  0  0  0
  139.7760   78.6070  223.4250 C   0  0  0  0  0  0  0  0  0  0  0  0
  140.3250   79.8730  223.3010 C   0  0  0  0  0  0  0  0  0  0  0  0
  141.2850   80.1500  222.3490 C   0  0  0  0  0  0  0  0  0  0  0  0
  141.7040   79.1360  221.5030 C   0  0  0  0  0  0  0  0  0  0  0  0
  141.1830   77.8610  221.5930 C   0  0  0  0  0  0  0  0  0  0  0  0
  141.5880   76.8340  220.7590 C   0  0  0  0  0  0  0  0  0  0  0  0
  142.4620   77.1410  219.9080 O   0  0  0  0  0  0  0  0  0  0  0  0
  141.0730   75.5720  220.8530 N   0  0  0  0  0  0  0  0  0  0  0  0
  141.5970   74.5890  219.9680 C   0  0  0  0  0  0  0  0  0  0  0  0
  142.8530   73.8890  220.3760 C   0  0  0  0  0  0  0  0  0  0  0  0
  144.1060   74.6470  220.0710 C   0  0  0  0  0  0  0  0  0  0  0  0
  145.3510   73.7890  220.1380 C   0  0  0  0  0  0  0  0  0  0  0  0
  145.1500   72.7460  221.2190 C   0  0  0  0  0  0  0  0  0  0  0  0
  144.0640   71.8010  220.8220 C   0  0  0  0  0  0  0  0  0  0  0  0
  142.9890   72.4640  219.9720 C   0  0  0  0  0  0  0  0  0  0  0  0
  141.0600   71.7400  224.3020 C   0  0  0  0  0  0  0  0  0  0  0  0
  140.9920   70.6820  225.1430 C   0  0  0  0  0  0  0  0  0  0  0  0
  142.0850   68.6070  226.4980 H   0  0  0  0  0  0  0  0  0  0  0  0
  141.6030   67.1010  225.8240 H   0  0  0  0  0  0  0  0  0  0  0  0
  137.9843   69.4836  224.2914 H   0  0  0  0  0  0  0  0  0  0  0  0
  138.1087   71.4067  222.7576 H   0  0  0  0  0  0  0  0  0  0  0  0
  139.0801   73.7035  221.0703 H   0  0  0  0  0  0  0  0  0  0  0  0
  138.6097   74.2970  222.7311 H   0  0  0  0  0  0  0  0  0  0  0  0
  139.0106   78.3883  224.1842 H   0  0  0  0  0  0  0  0  0  0  0  0
  139.9886   80.6742  223.9755 H   0  0  0  0  0  0  0  0  0  0  0  0
  141.7110   81.1605  222.2632 H   0  0  0  0  0  0  0  0  0  0  0  0
  142.4690   79.3518  220.7426 H   0  0  0  0  0  0  0  0  0  0  0  0
  140.8213   73.8209  219.8330 H   0  0  0  0  0  0  0  0  0  0  0  0
  141.8709   75.1477  219.0609 H   0  0  0  0  0  0  0  0  0  0  0  0
  142.7235   73.8642  221.4681 H   0  0  0  0  0  0  0  0  0  0  0  0
  144.0237   75.0657  219.0571 H   0  0  0  0  0  0  0  0  0  0  0  0
  144.2079   75.4324  220.8344 H   0  0  0  0  0  0  0  0  0  0  0  0
  145.5149   73.2944  219.1692 H   0  0  0  0  0  0  0  0  0  0  0  0
  146.2288   74.4106  220.3684 H   0  0  0  0  0  0  0  0  0  0  0  0
  146.0856   72.1858  221.3630 H   0  0  0  0  0  0  0  0  0  0  0  0
  144.8672   73.2476  222.1562 H   0  0  0  0  0  0  0  0  0  0  0  0
  144.5087   70.9760  220.2462 H   0  0  0  0  0  0  0  0  0  0  0  0
  143.5834   71.4414  221.7438 H   0  0  0  0  0  0  0  0  0  0  0  0
  143.2732   72.4083  218.9108 H   0  0  0  0  0  0  0  0  0  0  0  0
  142.0301   71.9457  220.1200 H   0  0  0  0  0  0  0  0  0  0  0  0
  141.9581   72.3746  224.3279 H   0  0  0  0  0  0  0  0  0  0  0  0
  141.8298   70.4809  225.8268 H   0  0  0  0  0  0  0  0  0  0  0  0
  1  2  1  0
  2  3  2  0
  2  4  2  0
  2  5  1  0
  5  6  2  0
  6  7  1  0
  7  8  2  0
  8  9  1  0
  9 10  1  0
 10 11  1  0
 11 12  2  0
 12 13  1  0
 13 14  2  0
 14 15  1  0
 15 16  2  0
 16 17  1  0
 17 18  2  0
 18 19  1  0
 19 20  2  0
 19 21  1  0
 21 22  1  0
 22 23  1  0
 23 24  1  0
 24 25  1  0
 25 26  1  0
 26 27  1  0
 27 28  1  0
  8 29  1  0
 29 30  2  0
 30  5  1  0
 21 11  1  0
 28 23  1  0
 18 13  1  0
  1 31  1  0
  1 32  1  0
  6 33  1  0
  7 34  1  0
 10 35  1  0
 10 36  1  0
 14 37  1  0
 15 38  1  0
 16 39  1  0
 17 40  1  0
 22 41  1  0
 22 42  1  0
 23 43  1  0
 24 44  1  0
 24 45  1  0
 25 46  1  0
 25 47  1  0
 26 48  1  0
 26 49  1  0
 27 50  1  0
 27 51  1  0
 28 52  1  0
 28 53  1  0
 29 54  1  0
 30 55  1  0
M  END
>  <smiles>  (7) 
NS(=O)(=O)c1ccc(OCc2nc3ccccc3c(=O)n2CC2CCCCC2)cc1

>  <score_type>  (7) 
oracle

>  <origin>  (7) 
autodockgpu

>  <m_score__min__energy>  (7) 
-8.8800000000000008

>  <m_primary>  (7) 
energy

>  <rmsd>  (7) 
4.612619081326457

>  <m_score__min__rmsd>  (7) 
4.612619081326457

>  <meeko>  (7) 
{"free_energy": -8.15, "intermolecular_energy": -10.24, "internal_energy": -1.39, "cluster_size": 4, "cluster_id": 3, "rank_in_cluster": 4}

>  <energy>  (7) 
-8.69

>  <cluster_rmsd>  (7) 
1.37

>  <cluster>  (7) 
2

$$$$

     RDKit          3D

 55 58  0  0  0  0  0  0  0  0999 V2000
  146.2280   73.6960  220.6100 N   0  0  0  0  0  0  0  0  0  0  0  0
  145.5690   72.4510  219.6080 S   0  0  0  0  0  0  0  0  0  0  0  0
  145.5730   72.9070  218.1870 O   0  0  0  0  0  0  0  0  0  0  0  0
  146.3880   71.2040  219.7290 O   0  0  0  0  0  0  0  0  0  0  0  0
  143.9360   72.1470  220.1210 C   0  0  0  0  0  0  0  0  0  0  0  0
  143.2670   73.1280  220.8000 C   0  0  0  0  0  0  0  0  0  0  0  0
  141.9590   72.9130  221.2240 C   0  0  0  0  0  0  0  0  0  0  0  0
  141.2750   71.7480  220.9980 C   0  0  0  0  0  0  0  0  0  0  0  0
  140.0330   71.4100  221.3440 O   0  0  0  0  0  0  0  0  0  0  0  0
  139.1800   71.7320  222.3720 C   0  0  0  0  0  0  0  0  0  0  0  0
  139.3660   70.8830  223.5770 C   0  0  0  0  0  0  0  0  0  0  0  0
  139.9600   71.5420  224.6290 N   0  0  0  0  0  0  0  0  0  0  0  0
  140.2360   70.9460  225.7910 C   0  0  0  0  0  0  0  0  0  0  0  0
  140.8340   71.6620  226.8110 C   0  0  0  0  0  0  0  0  0  0  0  0
  141.0980   70.9910  227.9930 C   0  0  0  0  0  0  0  0  0  0  0  0
  140.7770   69.6570  228.1490 C   0  0  0  0  0  0  0  0  0  0  0  0
  140.1790   68.9830  227.0970 C   0  0  0  0  0  0  0  0  0  0  0  0
  139.8990   69.6150  225.9030 C   0  0  0  0  0  0  0  0  0  0  0  0
  139.3010   68.9600  224.8400 C   0  0  0  0  0  0  0  0  0  0  0  0
  139.0340   67.7470  225.0340 O   0  0  0  0  0  0  0  0  0  0  0  0
  139.0230   69.5890  223.6600 N   0  0  0  0  0  0  0  0  0  0  0  0
  138.3700   68.8230  222.6540 C   0  0  0  0  0  0  0  0  0  0  0  0
  139.1700   68.4270  221.4550 C   0  0  0  0  0  0  0  0  0  0  0  0
  138.7300   69.0760  220.1810 C   0  0  0  0  0  0  0  0  0  0  0  0
  139.2840   68.3990  218.9470 C   0  0  0  0  0  0  0  0  0  0  0  0
  140.6640   67.8680  219.2760 C   0  0  0  0  0  0  0  0  0  0  0  0
  140.5630   66.7760  220.2900 C   0  0  0  0  0  0  0  0  0  0  0  0
  139.4000   66.9720  221.2520 C   0  0  0  0  0  0  0  0  0  0  0  0
  142.0180   70.7710  220.2910 C   0  0  0  0  0  0  0  0  0  0  0  0
  143.2900   70.9720  219.8760 C   0  0  0  0  0  0  0  0  0  0  0  0
  145.6420   73.8800  221.4510 H   0  0  0  0  0  0  0  0  0  0  0  0
  146.4140   74.5750  220.0810 H   0  0  0  0  0  0  0  0  0  0  0  0
  143.7629   74.0870  221.0110 H   0  0  0  0  0  0  0  0  0  0  0  0
  141.4480   73.7205  221.7688 H   0  0  0  0  0  0  0  0  0  0  0  0
  139.3531   72.7811  222.6538 H   0  0  0  0  0  0  0  0  0  0  0  0
  138.1550   71.5641  222.0099 H   0  0  0  0  0  0  0  0  0  0  0  0
  141.0904   72.7246  226.6883 H   0  0  0  0  0  0  0  0  0  0  0  0
  141.5732   71.5316  228.8248 H   0  0  0  0  0  0  0  0  0  0  0  0
  140.9929   69.1376  229.0943 H   0  0  0  0  0  0  0  0  0  0  0  0
  139.9216   67.9202  227.2162 H   0  0  0  0  0  0  0  0  0  0  0  0
  138.0081   67.8985  223.1277 H   0  0  0  0  0  0  0  0  0  0  0  0
  137.5885   69.4893  222.2598 H   0  0  0  0  0  0  0  0  0  0  0  0
  140.1547   68.8353  221.7265 H   0  0  0  0  0  0  0  0  0  0  0  0
  137.6314   69.0450  220.1337 H   0  0  0  0  0  0  0  0  0  0  0  0
  139.1134   70.1070  220.1891 H   0  0  0  0  0  0  0  0  0  0  0  0
  138.6264   67.5683  218.6514 H   0  0  0  0  0  0  0  0  0  0  0  0
  139.3418   69.1158  218.1147 H   0  0  0  0  0  0  0  0  0  0  0  0
  141.1301   67.4735  218.3611 H   0  0  0  0  0  0  0  0  0  0  0  0
  141.2771   68.6847  219.6848 H   0  0  0  0  0  0  0  0  0  0  0  0
  140.4272   65.8193  219.7643 H   0  0  0  0  0  0  0  0  0  0  0  0
  141.4895   66.7871  220.8829 H   0  0  0  0  0  0  0  0  0  0  0  0
  138.4937   66.5119  220.8314 H   0  0  0  0  0  0  0  0  0  0  0  0
  139.6356   66.4981  222.2163 H   0  0  0  0  0  0  0  0  0  0  0  0
  141.5394   69.8057  220.0694 H   0  0  0  0  0  0  0  0  0  0  0  0
  143.8126   70.1723  219.3307 H   0  0  0  0  0  0  0  0  0  0  0  0
  1  2  1  0
  2  3  2  0
  2  4  2  0
  2  5  1  0
  5  6  2  0
  6  7  1  0
  7  8  2  0
  8  9  1  0
  9 10  1  0
 10 11  1  0
 11 12  2  0
 12 13  1  0
 13 14  2  0
 14 15  1  0
 15 16  2  0
 16 17  1  0
 17 18  2  0
 18 19  1  0
 19 20  2  0
 19 21  1  0
 21 22  1  0
 22 23  1  0
 23 24  1  0
 24 25  1  0
 25 26  1  0
 26 27  1  0
 27 28  1  0
  8 29  1  0
 29 30  2  0
 30  5  1  0
 21 11  1  0
 28 23  1  0
 18 13  1  0
  1 31  1  0
  1 32  1  0
  6 33  1  0
  7 34  1  0
 10 35  1  0
 10 36  1  0
 14 37  1  0
 15 38  1  0
 16 39  1  0
 17 40  1  0
 22 41  1  0
 22 42  1  0
 23 43  1  0
 24 44  1  0
 24 45  1  0
 25 46  1  0
 25 47  1  0
 26 48  1  0
 26 49  1  0
 27 50  1  0
 27 51  1  0
 28 52  1  0
 28 53  1  0
 29 54  1  0
 30 55  1  0
M  END
>  <smiles>  (8) 
NS(=O)(=O)c1ccc(OCc2nc3ccccc3c(=O)n2CC2CCCCC2)cc1

>  <score_type>  (8) 
oracle

>  <origin>  (8) 
autodockgpu

>  <m_score__min__energy>  (8) 
-8.8800000000000008

>  <m_primary>  (8) 
energy

>  <rmsd>  (8) 
10.843452290425326

>  <m_score__min__rmsd>  (8) 
10.843452290425326

>  <meeko>  (8) 
{"free_energy": -8.12, "intermolecular_energy": -10.21, "internal_energy": -1.76, "cluster_size": 17, "cluster_id": 2, "rank_in_cluster": 16}

>  <energy>  (8) 
-8.68

>  <cluster_rmsd>  (8) 
1.37

>  <cluster>  (8) 
2

$$$$

     RDKit          3D

 55 58  0  0  0  0  0  0  0  0999 V2000
  144.9100   73.9380  217.3220 N   0  0  0  0  0  0  0  0  0  0  0  0
  145.2850   72.9060  218.6580 S   0  0  0  0  0  0  0  0  0  0  0  0
  145.5280   71.5210  218.1600 O   0  0  0  0  0  0  0  0  0  0  0  0
  146.5090   73.4010  219.3630 O   0  0  0  0  0  0  0  0  0  0  0  0
  143.9260   72.9080  219.7440 C   0  0  0  0  0  0  0  0  0  0  0  0
  143.2630   74.0830  219.9640 C   0  0  0  0  0  0  0  0  0  0  0  0
  142.1720   74.1160  220.8280 C   0  0  0  0  0  0  0  0  0  0  0  0
  141.7050   73.0140  221.4940 C   0  0  0  0  0  0  0  0  0  0  0  0
  140.6830   72.9020  222.3420 O   0  0  0  0  0  0  0  0  0  0  0  0
  139.5920   72.0750  222.4600 C   0  0  0  0  0  0  0  0  0  0  0  0
  139.6310   71.2230  223.6750 C   0  0  0  0  0  0  0  0  0  0  0  0
  140.2680   71.8130  224.7430 N   0  0  0  0  0  0  0  0  0  0  0  0
  140.4280   71.2000  225.9170 C   0  0  0  0  0  0  0  0  0  0  0  0
  141.0770   71.8460  226.9520 C   0  0  0  0  0  0  0  0  0  0  0  0
  141.2150   71.1590  228.1470 C   0  0  0  0  0  0  0  0  0  0  0  0
  140.7250   69.8780  228.3010 C   0  0  0  0  0  0  0  0  0  0  0  0
  140.0820   69.2730  227.2330 C   0  0  0  0  0  0  0  0  0  0  0  0
  139.9230   69.9220  226.0260 C   0  0  0  0  0  0  0  0  0  0  0  0
  139.2830   69.3370  224.9480 C   0  0  0  0  0  0  0  0  0  0  0  0
  138.8590   68.1690  225.1400 O   0  0  0  0  0  0  0  0  0  0  0  0
  139.1250   69.9830  223.7550 N   0  0  0  0  0  0  0  0  0  0  0  0
  138.4140   69.2940  222.7320 C   0  0  0  0  0  0  0  0  0  0  0  0
  136.9800   68.9620  222.9900 C   0  0  0  0  0  0  0  0  0  0  0  0
  136.2190   68.5400  221.7720 C   0  0  0  0  0  0  0  0  0  0  0  0
  134.7190   68.5730  221.9680 C   0  0  0  0  0  0  0  0  0  0  0  0
  134.4210   68.2080  223.4080 C   0  0  0  0  0  0  0  0  0  0  0  0
  134.9420   69.2680  224.3230 C   0  0  0  0  0  0  0  0  0  0  0  0
  136.1960   69.9430  223.7860 C   0  0  0  0  0  0  0  0  0  0  0  0
  142.4310   71.8270  221.2250 C   0  0  0  0  0  0  0  0  0  0  0  0
  143.4920   71.7880  220.3870 C   0  0  0  0  0  0  0  0  0  0  0  0
  145.1940   74.9250  217.4910 H   0  0  0  0  0  0  0  0  0  0  0  0
  143.9070   73.8770  217.0440 H   0  0  0  0  0  0  0  0  0  0  0  0
  143.5917   75.0028  219.4581 H   0  0  0  0  0  0  0  0  0  0  0  0
  141.6586   75.0763  220.9838 H   0  0  0  0  0  0  0  0  0  0  0  0
  138.6851   72.6964  222.4980 H   0  0  0  0  0  0  0  0  0  0  0  0
  139.5968   71.4024  221.5896 H   0  0  0  0  0  0  0  0  0  0  0  0
  141.4690   72.8667  226.8315 H   0  0  0  0  0  0  0  0  0  0  0  0
  141.7261   71.6449  228.9912 H   0  0  0  0  0  0  0  0  0  0  0  0
  140.8430   69.3457  229.2564 H   0  0  0  0  0  0  0  0  0  0  0  0
  139.6894   68.2521  227.3502 H   0  0  0  0  0  0  0  0  0  0  0  0
  138.4495   69.9196  221.8279 H   0  0  0  0  0  0  0  0  0  0  0  0
  138.9164   68.3188  222.6506 H   0  0  0  0  0  0  0  0  0  0  0  0
  137.0909   68.0871  223.6475 H   0  0  0  0  0  0  0  0  0  0  0  0
  136.4789   69.2170  220.9449 H   0  0  0  0  0  0  0  0  0  0  0  0
  136.4985   67.4984  221.5553 H   0  0  0  0  0  0  0  0  0  0  0  0
  134.3376   69.5822  221.7532 H   0  0  0  0  0  0  0  0  0  0  0  0
  134.2313   67.8601  221.2869 H   0  0  0  0  0  0  0  0  0  0  0  0
  133.3333   68.1136  223.5421 H   0  0  0  0  0  0  0  0  0  0  0  0
  134.9110   67.2526  223.6468 H   0  0  0  0  0  0  0  0  0  0  0  0
  134.1616   70.0314  224.4576 H   0  0  0  0  0  0  0  0  0  0  0  0
  135.2066   68.7845  225.2750 H   0  0  0  0  0  0  0  0  0  0  0  0
  135.9113   70.7914  223.1463 H   0  0  0  0  0  0  0  0  0  0  0  0
  136.8062   70.3078  224.6254 H   0  0  0  0  0  0  0  0  0  0  0  0
  142.1177   70.8959  221.7198 H   0  0  0  0  0  0  0  0  0  0  0  0
  144.0143   70.8341  220.2215 H   0  0  0  0  0  0  0  0  0  0  0  0
  1  2  1  0
  2  3  2  0
  2  4  2  0
  2  5  1  0
  5  6  2  0
  6  7  1  0
  7  8  2  0
  8  9  1  0
  9 10  1  0
 10 11  1  0
 11 12  2  0
 12 13  1  0
 13 14  2  0
 14 15  1  0
 15 16  2  0
 16 17  1  0
 17 18  2  0
 18 19  1  0
 19 20  2  0
 19 21  1  0
 21 22  1  0
 22 23  1  0
 23 24  1  0
 24 25  1  0
 25 26  1  0
 26 27  1  0
 27 28  1  0
  8 29  1  0
 29 30  2  0
 30  5  1  0
 21 11  1  0
 28 23  1  0
 18 13  1  0
  1 31  1  0
  1 32  1  0
  6 33  1  0
  7 34  1  0
 10 35  1  0
 10 36  1  0
 14 37  1  0
 15 38  1  0
 16 39  1  0
 17 40  1  0
 22 41  1  0
 22 42  1  0
 23 43  1  0
 24 44  1  0
 24 45  1  0
 25 46  1  0
 25 47  1  0
 26 48  1  0
 26 49  1  0
 27 50  1  0
 27 51  1  0
 28 52  1  0
 28 53  1  0
 29 54  1  0
 30 55  1  0
M  END
>  <smiles>  (9) 
NS(=O)(=O)c1ccc(OCc2nc3ccccc3c(=O)n2CC2CCCCC2)cc1

>  <score_type>  (9) 
oracle

>  <origin>  (9) 
autodockgpu

>  <m_score__min__energy>  (9) 
-8.8800000000000008

>  <m_primary>  (9) 
energy

>  <rmsd>  (9) 
11.50940492664523

>  <m_score__min__rmsd>  (9) 
11.50940492664523

>  <meeko>  (9) 
{"free_energy": -8.68, "intermolecular_energy": -10.77, "internal_energy": -1.24, "cluster_size": 17, "cluster_id": 2, "rank_in_cluster": 5}

>  <energy>  (9) 
-8.65

>  <cluster_rmsd>  (9) 
0.74

>  <cluster>  (9) 
2

$$$$

     RDKit          3D

 55 58  0  0  0  0  0  0  0  0999 V2000
  145.9490   73.3650  217.8440 N   0  0  0  0  0  0  0  0  0  0  0  0
  145.9140   72.9820  219.5290 S   0  0  0  0  0  0  0  0  0  0  0  0
  146.1750   71.5240  219.7110 O   0  0  0  0  0  0  0  0  0  0  0  0
  146.9610   73.7660  220.2580 O   0  0  0  0  0  0  0  0  0  0  0  0
  144.3360   73.3750  220.1440 C   0  0  0  0  0  0  0  0  0  0  0  0
  144.0040   74.6910  220.3090 C   0  0  0  0  0  0  0  0  0  0  0  0
  142.7480   75.0360  220.7990 C   0  0  0  0  0  0  0  0  0  0  0  0
  141.7910   74.1160  221.1370 C   0  0  0  0  0  0  0  0  0  0  0  0
  140.5610   74.3030  221.6140 O   0  0  0  0  0  0  0  0  0  0  0  0
  139.7080   75.3740  221.7310 C   0  0  0  0  0  0  0  0  0  0  0  0
  140.3890   76.6860  221.5850 C   0  0  0  0  0  0  0  0  0  0  0  0
  140.8020   77.2300  222.7800 N   0  0  0  0  0  0  0  0  0  0  0  0
  141.4110   78.4140  222.8620 C   0  0  0  0  0  0  0  0  0  0  0  0
  141.8020   78.9060  224.0940 C   0  0  0  0  0  0  0  0  0  0  0  0
  142.4280   80.1410  224.1180 C   0  0  0  0  0  0  0  0  0  0  0  0
  142.6530   80.8560  222.9580 C   0  0  0  0  0  0  0  0  0  0  0  0
  142.2420   80.3190  221.7490 C   0  0  0  0  0  0  0  0  0  0  0  0
  141.6150   79.0920  221.6810 C   0  0  0  0  0  0  0  0  0  0  0  0
  141.1980   78.5380  220.4830 C   0  0  0  0  0  0  0  0  0  0  0  0
  141.4250   79.2310  219.4590 O   0  0  0  0  0  0  0  0  0  0  0  0
  140.5800   77.3210  220.4190 N   0  0  0  0  0  0  0  0  0  0  0  0
  140.2330   76.8370  219.1270 C   0  0  0  0  0  0  0  0  0  0  0  0
  141.2950   76.1350  218.3420 C   0  0  0  0  0  0  0  0  0  0  0  0
  142.4310   77.0150  217.9240 C   0  0  0  0  0  0  0  0  0  0  0  0
  143.2870   76.4020  216.8370 C   0  0  0  0  0  0  0  0  0  0  0  0
  143.3170   74.9020  217.0470 C   0  0  0  0  0  0  0  0  0  0  0  0
  141.9570   74.3260  216.8220 C   0  0  0  0  0  0  0  0  0  0  0  0
  140.8420   75.2870  217.2080 C   0  0  0  0  0  0  0  0  0  0  0  0
  142.1920   72.7710  220.9440 C   0  0  0  0  0  0  0  0  0  0  0  0
  143.4120   72.4270  220.4690 C   0  0  0  0  0  0  0  0  0  0  0  0
  146.3550   72.5960  217.2710 H   0  0  0  0  0  0  0  0  0  0  0  0
  146.4290   74.2710  217.6530 H   0  0  0  0  0  0  0  0  0  0  0  0
  144.7299   75.4773  220.0544 H   0  0  0  0  0  0  0  0  0  0  0  0
  142.5113   76.1033  220.9213 H   0  0  0  0  0  0  0  0  0  0  0  0
  138.9362   75.2925  220.9514 H   0  0  0  0  0  0  0  0  0  0  0  0
  139.2794   75.3402  222.7435 H   0  0  0  0  0  0  0  0  0  0  0  0
  141.6227   78.3383  225.0190 H   0  0  0  0  0  0  0  0  0  0  0  0
  142.7529   80.5614  225.0812 H   0  0  0  0  0  0  0  0  0  0  0  0
  143.1507   81.8363  222.9936 H   0  0  0  0  0  0  0  0  0  0  0  0
  142.4196   80.8838  220.8220 H   0  0  0  0  0  0  0  0  0  0  0  0
  139.3973   76.1329  219.2529 H   0  0  0  0  0  0  0  0  0  0  0  0
  140.0049   77.7404  218.5424 H   0  0  0  0  0  0  0  0  0  0  0  0
  141.6675   75.4255  219.0955 H   0  0  0  0  0  0  0  0  0  0  0  0
  142.0196   77.9649  217.5519 H   0  0  0  0  0  0  0  0  0  0  0  0
  143.0738   77.1618  218.8045 H   0  0  0  0  0  0  0  0  0  0  0  0
  142.8571   76.6313  215.8508 H   0  0  0  0  0  0  0  0  0  0  0  0
  144.3068   76.8120  216.8802 H   0  0  0  0  0  0  0  0  0  0  0  0
  144.0259   74.4493  216.3381 H   0  0  0  0  0  0  0  0  0  0  0  0
  143.6327   74.6886  218.0789 H   0  0  0  0  0  0  0  0  0  0  0  0
  141.8527   74.0756  215.7560 H   0  0  0  0  0  0  0  0  0  0  0  0
  141.8636   73.4347  217.4598 H   0  0  0  0  0  0  0  0  0  0  0  0
  140.5934   75.9259  216.3478 H   0  0  0  0  0  0  0  0  0  0  0  0
  139.9508   74.7161  217.5077 H   0  0  0  0  0  0  0  0  0  0  0  0
  141.4798   71.9700  221.1913 H   0  0  0  0  0  0  0  0  0  0  0  0
  143.6623   71.3633  220.3430 H   0  0  0  0  0  0  0  0  0  0  0  0
  1  2  1  0
  2  3  2  0
  2  4  2  0
  2  5  1  0
  5  6  2  0
  6  7  1  0
  7  8  2  0
  8  9  1  0
  9 10  1  0
 10 11  1  0
 11 12  2  0
 12 13  1  0
 13 14  2  0
 14 15  1  0
 15 16  2  0
 16 17  1  0
 17 18  2  0
 18 19  1  0
 19 20  2  0
 19 21  1  0
 21 22  1  0
 22 23  1  0
 23 24  1  0
 24 25  1  0
 25 26  1  0
 26 27  1  0
 27 28  1  0
  8 29  1  0
 29 30  2  0
 30  5  1  0
 21 11  1  0
 28 23  1  0
 18 13  1  0
  1 31  1  0
  1 32  1  0
  6 33  1  0
  7 34  1  0
 10 35  1  0
 10 36  1  0
 14 37  1  0
 15 38  1  0
 16 39  1  0
 17 40  1  0
 22 41  1  0
 22 42  1  0
 23 43  1  0
 24 44  1  0
 24 45  1  0
 25 46  1  0
 25 47  1  0
 26 48  1  0
 26 49  1  0
 27 50  1  0
 27 51  1  0
 28 52  1  0
 28 53  1  0
 29 54  1  0
 30 55  1  0
M  END
>  <smiles>  (10) 
NS(=O)(=O)c1ccc(OCc2nc3ccccc3c(=O)n2CC2CCCCC2)cc1

>  <score_type>  (10) 
oracle

>  <origin>  (10) 
autodockgpu

>  <m_score__min__energy>  (10) 
-8.8800000000000008

>  <m_primary>  (10) 
energy

>  <rmsd>  (10) 
3.5578744030349436

>  <m_score__min__rmsd>  (10) 
3.5578744030349436

>  <meeko>  (10) 
{"free_energy": -7.41, "intermolecular_energy": -9.5, "internal_energy": -2.23, "cluster_size": 16, "cluster_id": 6, "rank_in_cluster": 14}

>  <energy>  (10) 
-8.54

>  <cluster_rmsd>  (10) 
0.68

>  <cluster>  (10) 
2

$$$$

     RDKit          3D

 55 58  0  0  0  0  0  0  0  0999 V2000
  139.1920   67.1340  226.4240 N   0  0  0  0  0  0  0  0  0  0  0  0
  140.0340   68.4770  227.1130 S   0  0  0  0  0  0  0  0  0  0  0  0
  139.2580   69.0060  228.2730 O   0  0  0  0  0  0  0  0  0  0  0  0
  141.3910   68.0510  227.5790 O   0  0  0  0  0  0  0  0  0  0  0  0
  140.1790   69.7100  225.8950 C   0  0  0  0  0  0  0  0  0  0  0  0
  140.8560   70.8590  226.2000 C   0  0  0  0  0  0  0  0  0  0  0  0
  140.9880   71.8630  225.2450 C   0  0  0  0  0  0  0  0  0  0  0  0
  140.4700   71.7740  223.9810 C   0  0  0  0  0  0  0  0  0  0  0  0
  140.5210   72.6500  222.9770 O   0  0  0  0  0  0  0  0  0  0  0  0
  139.6830   73.0150  221.9520 C   0  0  0  0  0  0  0  0  0  0  0  0
  139.2160   74.4210  222.0470 C   0  0  0  0  0  0  0  0  0  0  0  0
  140.2290   75.3240  222.2800 N   0  0  0  0  0  0  0  0  0  0  0  0
  140.0110   76.6330  222.4230 C   0  0  0  0  0  0  0  0  0  0  0  0
  141.0720   77.4890  222.6560 C   0  0  0  0  0  0  0  0  0  0  0  0
  140.7850   78.8360  222.7960 C   0  0  0  0  0  0  0  0  0  0  0  0
  139.4900   79.3090  222.7080 C   0  0  0  0  0  0  0  0  0  0  0  0
  138.4620   78.4110  222.4740 C   0  0  0  0  0  0  0  0  0  0  0  0
  138.7050   77.0600  222.3270 C   0  0  0  0  0  0  0  0  0  0  0  0
  137.6930   76.1460  222.0910 C   0  0  0  0  0  0  0  0  0  0  0  0
  136.5340   76.6290  222.0240 O   0  0  0  0  0  0  0  0  0  0  0  0
  137.9370   74.8100  221.9440 N   0  0  0  0  0  0  0  0  0  0  0  0
  136.8200   73.9730  221.6640 C   0  0  0  0  0  0  0  0  0  0  0  0
  136.5760   72.8160  222.5780 C   0  0  0  0  0  0  0  0  0  0  0  0
  136.7770   71.4770  221.9410 C   0  0  0  0  0  0  0  0  0  0  0  0
  136.1750   70.3420  222.7400 C   0  0  0  0  0  0  0  0  0  0  0  0
  136.2920   70.6850  224.2120 C   0  0  0  0  0  0  0  0  0  0  0  0
  135.4340   71.8650  224.5320 C   0  0  0  0  0  0  0  0  0  0  0  0
  135.3160   72.8380  223.3680 C   0  0  0  0  0  0  0  0  0  0  0  0
  139.7820   70.5630  223.7240 C   0  0  0  0  0  0  0  0  0  0  0  0
  139.6490   69.5820  224.6460 C   0  0  0  0  0  0  0  0  0  0  0  0
  139.3060   66.2640  226.9850 H   0  0  0  0  0  0  0  0  0  0  0  0
  139.4480   66.9750  225.4260 H   0  0  0  0  0  0  0  0  0  0  0  0
  141.2959   70.9894  227.1997 H   0  0  0  0  0  0  0  0  0  0  0  0
  141.5372   72.7755  225.5203 H   0  0  0  0  0  0  0  0  0  0  0  0
  140.2202   72.8892  221.0004 H   0  0  0  0  0  0  0  0  0  0  0  0
  138.7931   72.3714  222.0142 H   0  0  0  0  0  0  0  0  0  0  0  0
  142.1037   77.1141  222.7273 H   0  0  0  0  0  0  0  0  0  0  0  0
  141.6055   79.5448  222.9813 H   0  0  0  0  0  0  0  0  0  0  0  0
  139.2786   80.3825  222.8220 H   0  0  0  0  0  0  0  0  0  0  0  0
  137.4290   78.7824  222.4037 H   0  0  0  0  0  0  0  0  0  0  0  0
  135.9206   74.6059  221.6869 H   0  0  0  0  0  0  0  0  0  0  0  0
  137.0505   73.5160  220.6903 H   0  0  0  0  0  0  0  0  0  0  0  0
  137.3771   72.9704  223.3158 H   0  0  0  0  0  0  0  0  0  0  0  0
  136.3102   71.4898  220.9450 H   0  0  0  0  0  0  0  0  0  0  0  0
  137.8613   71.2999  221.8862 H   0  0  0  0  0  0  0  0  0  0  0  0
  135.1161   70.2170  222.4698 H   0  0  0  0  0  0  0  0  0  0  0  0
  136.7058   69.4028  222.5253 H   0  0  0  0  0  0  0  0  0  0  0  0
  135.9659   69.8238  224.8136 H   0  0  0  0  0  0  0  0  0  0  0  0
  137.3397   70.9272  224.4439 H   0  0  0  0  0  0  0  0  0  0  0  0
  134.4276   71.5073  224.7952 H   0  0  0  0  0  0  0  0  0  0  0  0
  135.9061   72.4023  225.3677 H   0  0  0  0  0  0  0  0  0  0  0  0
  134.4742   72.5412  222.7251 H   0  0  0  0  0  0  0  0  0  0  0  0
  135.1408   73.8533  223.7533 H   0  0  0  0  0  0  0  0  0  0  0  0
  139.3356   70.4134  222.7298 H   0  0  0  0  0  0  0  0  0  0  0  0
  139.1030   68.6641  224.3827 H   0  0  0  0  0  0  0  0  0  0  0  0
  1  2  1  0
  2  3  2  0
  2  4  2  0
  2  5  1  0
  5  6  2  0
  6  7  1  0
  7  8  2  0
  8  9  1  0
  9 10  1  0
 10 11  1  0
 11 12  2  0
 12 13  1  0
 13 14  2  0
 14 15  1  0
 15 16  2  0
 16 17  1  0
 17 18  2  0
 18 19  1  0
 19 20  2  0
 19 21  1  0
 21 22  1  0
 22 23  1  0
 23 24  1  0
 24 25  1  0
 25 26  1  0
 26 27  1  0
 27 28  1  0
  8 29  1  0
 29 30  2  0
 30  5  1  0
 21 11  1  0
 28 23  1  0
 18 13  1  0
  1 31  1  0
  1 32  1  0
  6 33  1  0
  7 34  1  0
 10 35  1  0
 10 36  1  0
 14 37  1  0
 15 38  1  0
 16 39  1  0
 17 40  1  0
 22 41  1  0
 22 42  1  0
 23 43  1  0
 24 44  1  0
 24 45  1  0
 25 46  1  0
 25 47  1  0
 26 48  1  0
 26 49  1  0
 27 50  1  0
 27 51  1  0
 28 52  1  0
 28 53  1  0
 29 54  1  0
 30 55  1  0
M  END
>  <smiles>  (11) 
NS(=O)(=O)c1ccc(OCc2nc3ccccc3c(=O)n2CC2CCCCC2)cc1

>  <score_type>  (11) 
oracle

>  <origin>  (11) 
autodockgpu

>  <m_score__min__energy>  (11) 
-8.8800000000000008

>  <m_primary>  (11) 
energy

>  <rmsd>  (11) 
6.4486549882252175

>  <m_score__min__rmsd>  (11) 
6.4486549882252175

>  <meeko>  (11) 
{"free_energy": -7.67, "intermolecular_energy": -9.75, "internal_energy": -1.74, "cluster_size": 1, "cluster_id": 7, "rank_in_cluster": 1}

>  <energy>  (11) 
-8.44

>  <cluster_rmsd>  (11) 
0.82

>  <cluster>  (11) 
2

$$$$

     RDKit          3D

 55 58  0  0  0  0  0  0  0  0999 V2000
  146.3040   72.7090  221.8790 N   0  0  0  0  0  0  0  0  0  0  0  0
  145.4080   73.3610  220.5520 S   0  0  0  0  0  0  0  0  0  0  0  0
  145.4960   74.8500  220.5790 O   0  0  0  0  0  0  0  0  0  0  0  0
  145.9660   72.8560  219.2570 O   0  0  0  0  0  0  0  0  0  0  0  0
  143.7490   72.8690  220.7210 C   0  0  0  0  0  0  0  0  0  0  0  0
  143.4560   71.5330  220.7180 C   0  0  0  0  0  0  0  0  0  0  0  0
  142.1370   71.1090  220.8520 C   0  0  0  0  0  0  0  0  0  0  0  0
  141.0800   71.9680  220.9910 C   0  0  0  0  0  0  0  0  0  0  0  0
  139.7810   71.7030  221.1260 O   0  0  0  0  0  0  0  0  0  0  0  0
  138.8490   71.8490  222.1250 C   0  0  0  0  0  0  0  0  0  0  0  0
  139.1500   71.0360  223.3310 C   0  0  0  0  0  0  0  0  0  0  0  0
  139.8860   71.7090  224.2810 N   0  0  0  0  0  0  0  0  0  0  0  0
  140.2780   71.1430  225.4240 C   0  0  0  0  0  0  0  0  0  0  0  0
  141.0160   71.8720  226.3380 C   0  0  0  0  0  0  0  0  0  0  0  0
  141.3960   71.2320  227.5060 C   0  0  0  0  0  0  0  0  0  0  0  0
  141.0540   69.9170  227.7500 C   0  0  0  0  0  0  0  0  0  0  0  0
  140.3130   69.2300  226.8020 C   0  0  0  0  0  0  0  0  0  0  0  0
  139.9140   69.8300  225.6260 C   0  0  0  0  0  0  0  0  0  0  0  0
  139.1730   69.1620  224.6660 C   0  0  0  0  0  0  0  0  0  0  0  0
  138.8910   67.9670  224.9370 O   0  0  0  0  0  0  0  0  0  0  0  0
  138.7770   69.7600  223.5040 N   0  0  0  0  0  0  0  0  0  0  0  0
  137.9840   68.9840  222.6120 C   0  0  0  0  0  0  0  0  0  0  0  0
  138.6910   68.0130  221.7220 C   0  0  0  0  0  0  0  0  0  0  0  0
  138.2390   68.0460  220.2960 C   0  0  0  0  0  0  0  0  0  0  0  0
  138.6770   66.8320  219.5060 C   0  0  0  0  0  0  0  0  0  0  0  0
  140.0280   66.3890  220.0290 C   0  0  0  0  0  0  0  0  0  0  0  0
  139.8960   65.8950  221.4330 C   0  0  0  0  0  0  0  0  0  0  0  0
  138.8000   66.6120  222.2080 C   0  0  0  0  0  0  0  0  0  0  0  0
  141.4450   73.3370  220.9880 C   0  0  0  0  0  0  0  0  0  0  0  0
  142.7250   73.7570  220.8580 C   0  0  0  0  0  0  0  0  0  0  0  0
  147.0640   72.0690  221.5690 H   0  0  0  0  0  0  0  0  0  0  0  0
  145.6880   72.2500  222.5850 H   0  0  0  0  0  0  0  0  0  0  0  0
  144.2630   70.7934  220.6097 H   0  0  0  0  0  0  0  0  0  0  0  0
  141.9334   70.0280  220.8459 H   0  0  0  0  0  0  0  0  0  0  0  0
  138.8139   72.9087  222.4179 H   0  0  0  0  0  0  0  0  0  0  0  0
  137.8858   71.4976  221.7266 H   0  0  0  0  0  0  0  0  0  0  0  0
  141.2907   72.9195  226.1451 H   0  0  0  0  0  0  0  0  0  0  0  0
  141.9829   71.7834  228.2553 H   0  0  0  0  0  0  0  0  0  0  0  0
  141.3648   69.4225  228.6821 H   0  0  0  0  0  0  0  0  0  0  0  0
  140.0367   68.1823  226.9916 H   0  0  0  0  0  0  0  0  0  0  0  0
  137.2688   68.4115  223.2209 H   0  0  0  0  0  0  0  0  0  0  0  0
  137.5378   69.7181  221.9250 H   0  0  0  0  0  0  0  0  0  0  0  0
  139.7164   68.4085  221.7671 H   0  0  0  0  0  0  0  0  0  0  0  0
  137.1404   68.0975  220.2781 H   0  0  0  0  0  0  0  0  0  0  0  0
  138.7005   68.9270  219.8261 H   0  0  0  0  0  0  0  0  0  0  0  0
  137.9445   66.0212  219.6327 H   0  0  0  0  0  0  0  0  0  0  0  0
  138.7462   67.0794  218.4364 H   0  0  0  0  0  0  0  0  0  0  0  0
  140.4172   65.5800  219.3934 H   0  0  0  0  0  0  0  0  0  0  0  0
  140.7201   67.2438  220.0108 H   0  0  0  0  0  0  0  0  0  0  0  0
  139.6632   64.8202  221.4073 H   0  0  0  0  0  0  0  0  0  0  0  0
  140.8489   66.0930  221.9456 H   0  0  0  0  0  0  0  0  0  0  0  0
  137.8419   66.0940  222.0540 H   0  0  0  0  0  0  0  0  0  0  0  0
  139.0462   66.6118  223.2801 H   0  0  0  0  0  0  0  0  0  0  0  0
  140.6526   74.0923  221.0962 H   0  0  0  0  0  0  0  0  0  0  0  0
  142.9425   74.8353  220.8631 H   0  0  0  0  0  0  0  0  0  0  0  0
  1  2  1  0
  2  3  2  0
  2  4  2  0
  2  5  1  0
  5  6  2  0
  6  7  1  0
  7  8  2  0
  8  9  1  0
  9 10  1  0
 10 11  1  0
 11 12  2  0
 12 13  1  0
 13 14  2  0
 14 15  1  0
 15 16  2  0
 16 17  1  0
 17 18  2  0
 18 19  1  0
 19 20  2  0
 19 21  1  0
 21 22  1  0
 22 23  1  0
 23 24  1  0
 24 25  1  0
 25 26  1  0
 26 27  1  0
 27 28  1  0
  8 29  1  0
 29 30  2  0
 30  5  1  0
 21 11  1  0
 28 23  1  0
 18 13  1  0
  1 31  1  0
  1 32  1  0
  6 33  1  0
  7 34  1  0
 10 35  1  0
 10 36  1  0
 14 37  1  0
 15 38  1  0
 16 39  1  0
 17 40  1  0
 22 41  1  0
 22 42  1  0
 23 43  1  0
 24 44  1  0
 24 45  1  0
 25 46  1  0
 25 47  1  0
 26 48  1  0
 26 49  1  0
 27 50  1  0
 27 51  1  0
 28 52  1  0
 28 53  1  0
 29 54  1  0
 30 55  1  0
M  END
>  <smiles>  (12) 
NS(=O)(=O)c1ccc(OCc2nc3ccccc3c(=O)n2CC2CCCCC2)cc1

>  <score_type>  (12) 
oracle

>  <origin>  (12) 
autodockgpu

>  <m_score__min__energy>  (12) 
-8.8800000000000008

>  <m_primary>  (12) 
energy

>  <rmsd>  (12) 
11.08525075995539

>  <m_score__min__rmsd>  (12) 
11.08525075995539

>  <meeko>  (12) 
{"free_energy": -8.23, "intermolecular_energy": -10.32, "internal_energy": -1.58, "cluster_size": 17, "cluster_id": 2, "rank_in_cluster": 13}

>  <energy>  (12) 
-8.38

>  <cluster_rmsd>  (12) 
1.1

>  <cluster>  (12) 
2

$$$$

     RDKit          3D

 55 58  0  0  0  0  0  0  0  0999 V2000
  145.4990   73.4090  218.0510 N   0  0  0  0  0  0  0  0  0  0  0  0
  145.6170   72.8850  219.6940 S   0  0  0  0  0  0  0  0  0  0  0  0
  146.2040   71.5130  219.7350 O   0  0  0  0  0  0  0  0  0  0  0  0
  146.4910   73.8200  220.4720 O   0  0  0  0  0  0  0  0  0  0  0  0
  144.0160   72.8580  220.3730 C   0  0  0  0  0  0  0  0  0  0  0  0
  143.4340   71.6490  220.6350 C   0  0  0  0  0  0  0  0  0  0  0  0
  142.1540   71.5960  221.1780 C   0  0  0  0  0  0  0  0  0  0  0  0
  141.4150   72.7100  221.4770 C   0  0  0  0  0  0  0  0  0  0  0  0
  140.1900   72.8040  221.9940 O   0  0  0  0  0  0  0  0  0  0  0  0
  139.1540   71.9330  222.2270 C   0  0  0  0  0  0  0  0  0  0  0  0
  139.3240   71.1380  223.4700 C   0  0  0  0  0  0  0  0  0  0  0  0
  140.0860   71.7680  224.4280 N   0  0  0  0  0  0  0  0  0  0  0  0
  140.3740   71.2080  225.6040 C   0  0  0  0  0  0  0  0  0  0  0  0
  141.1460   71.8920  226.5250 C   0  0  0  0  0  0  0  0  0  0  0  0
  141.4140   71.2610  227.7280 C   0  0  0  0  0  0  0  0  0  0  0  0
  140.9310   69.9960  227.9990 C   0  0  0  0  0  0  0  0  0  0  0  0
  140.1630   69.3510  227.0430 C   0  0  0  0  0  0  0  0  0  0  0  0
  139.8730   69.9460  225.8320 C   0  0  0  0  0  0  0  0  0  0  0  0
  139.1060   69.3200  224.8640 C   0  0  0  0  0  0  0  0  0  0  0  0
  138.6950   68.1690  225.1610 O   0  0  0  0  0  0  0  0  0  0  0  0
  138.8180   69.9110  223.6670 N   0  0  0  0  0  0  0  0  0  0  0  0
  137.9870   69.1870  222.7680 C   0  0  0  0  0  0  0  0  0  0  0  0
  138.6480   68.2210  221.8380 C   0  0  0  0  0  0  0  0  0  0  0  0
  138.7420   66.8250  222.3670 C   0  0  0  0  0  0  0  0  0  0  0  0
  139.7240   65.9640  221.6030 C   0  0  0  0  0  0  0  0  0  0  0  0
  139.7020   66.3960  220.1500 C   0  0  0  0  0  0  0  0  0  0  0  0
  140.2380   67.7840  220.0200 C   0  0  0  0  0  0  0  0  0  0  0  0
  139.9430   68.6450  221.2400 C   0  0  0  0  0  0  0  0  0  0  0  0
  142.0700   73.9310  221.1860 C   0  0  0  0  0  0  0  0  0  0  0  0
  143.3150   73.9910  220.6570 C   0  0  0  0  0  0  0  0  0  0  0  0
  146.0490   72.8090  217.4030 H   0  0  0  0  0  0  0  0  0  0  0  0
  145.7490   74.4150  217.9380 H   0  0  0  0  0  0  0  0  0  0  0  0
  143.9777   70.7181  220.4165 H   0  0  0  0  0  0  0  0  0  0  0  0
  141.7126   70.6084  221.3775 H   0  0  0  0  0  0  0  0  0  0  0  0
  138.2222   72.5121  222.3075 H   0  0  0  0  0  0  0  0  0  0  0  0
  139.1294   71.2234  221.3869 H   0  0  0  0  0  0  0  0  0  0  0  0
  141.5325   72.8992  226.3101 H   0  0  0  0  0  0  0  0  0  0  0  0
  142.0241   71.7780  228.4833 H   0  0  0  0  0  0  0  0  0  0  0  0
  141.1527   69.5077  228.9594 H   0  0  0  0  0  0  0  0  0  0  0  0
  139.7761   68.3431  227.2538 H   0  0  0  0  0  0  0  0  0  0  0  0
  137.2645   68.6193  223.3728 H   0  0  0  0  0  0  0  0  0  0  0  0
  137.5528   69.9544  222.1103 H   0  0  0  0  0  0  0  0  0  0  0  0
  137.9329   68.2242  221.0021 H   0  0  0  0  0  0  0  0  0  0  0  0
  139.0610   66.8702  223.4188 H   0  0  0  0  0  0  0  0  0  0  0  0
  137.7487   66.3655  222.2564 H   0  0  0  0  0  0  0  0  0  0  0  0
  140.7350   66.0965  222.0156 H   0  0  0  0  0  0  0  0  0  0  0  0
  139.4458   64.9032  221.6883 H   0  0  0  0  0  0  0  0  0  0  0  0
  140.3230   65.7089  219.5565 H   0  0  0  0  0  0  0  0  0  0  0  0
  138.6652   66.3742  219.7832 H   0  0  0  0  0  0  0  0  0  0  0  0
  141.3281   67.7288  219.8837 H   0  0  0  0  0  0  0  0  0  0  0  0
  139.7428   68.2515  219.1562 H   0  0  0  0  0  0  0  0  0  0  0  0
  140.7475   68.5221  221.9800 H   0  0  0  0  0  0  0  0  0  0  0  0
  139.8827   69.7016  220.9402 H   0  0  0  0  0  0  0  0  0  0  0  0
  141.5439   74.8732  221.3992 H   0  0  0  0  0  0  0  0  0  0  0  0
  143.7685   74.9722  220.4529 H   0  0  0  0  0  0  0  0  0  0  0  0
  1  2  1  0
  2  3  2  0
  2  4  2  0
  2  5  1  0
  5  6  2  0
  6  7  1  0
  7  8  2  0
  8  9  1  0
  9 10  1  0
 10 11  1  0
 11 12  2  0
 12 13  1  0
 13 14  2  0
 14 15  1  0
 15 16  2  0
 16 17  1  0
 17 18  2  0
 18 19  1  0
 19 20  2  0
 19 21  1  0
 21 22  1  0
 22 23  1  0
 23 24  1  0
 24 25  1  0
 25 26  1  0
 26 27  1  0
 27 28  1  0
  8 29  1  0
 29 30  2  0
 30  5  1  0
 21 11  1  0
 28 23  1  0
 18 13  1  0
  1 31  1  0
  1 32  1  0
  6 33  1  0
  7 34  1  0
 10 35  1  0
 10 36  1  0
 14 37  1  0
 15 38  1  0
 16 39  1  0
 17 40  1  0
 22 41  1  0
 22 42  1  0
 23 43  1  0
 24 44  1  0
 24 45  1  0
 25 46  1  0
 25 47  1  0
 26 48  1  0
 26 49  1  0
 27 50  1  0
 27 51  1  0
 28 52  1  0
 28 53  1  0
 29 54  1  0
 30 55  1  0
M  END
>  <smiles>  (13) 
NS(=O)(=O)c1ccc(OCc2nc3ccccc3c(=O)n2CC2CCCCC2)cc1

>  <score_type>  (13) 
oracle

>  <origin>  (13) 
autodockgpu

>  <m_score__min__energy>  (13) 
-8.8800000000000008

>  <m_primary>  (13) 
energy

>  <rmsd>  (13) 
11.505379682690261

>  <m_score__min__rmsd>  (13) 
11.505379682690261

>  <meeko>  (13) 
{"free_energy": -8.37, "intermolecular_energy": -10.46, "internal_energy": -1.63, "cluster_size": 17, "cluster_id": 2, "rank_in_cluster": 10}

>  <energy>  (13) 
-8.37

>  <cluster_rmsd>  (13) 
0.36

>  <cluster>  (13) 
2

$$$$

     RDKit          3D

 55 58  0  0  0  0  0  0  0  0999 V2000
  146.2990   73.4040  218.3530 N   0  0  0  0  0  0  0  0  0  0  0  0
  145.3010   72.0890  218.8650 S   0  0  0  0  0  0  0  0  0  0  0  0
  144.7920   71.3580  217.6670 O   0  0  0  0  0  0  0  0  0  0  0  0
  146.0900   71.1470  219.7210 O   0  0  0  0  0  0  0  0  0  0  0  0
  143.9630   72.7400  219.7660 C   0  0  0  0  0  0  0  0  0  0  0  0
  142.9350   71.9070  220.1090 C   0  0  0  0  0  0  0  0  0  0  0  0
  141.8510   72.3990  220.8300 C   0  0  0  0  0  0  0  0  0  0  0  0
  141.7430   73.7050  221.2310 C   0  0  0  0  0  0  0  0  0  0  0  0
  140.7710   74.3060  221.9180 O   0  0  0  0  0  0  0  0  0  0  0  0
  139.8840   75.3250  221.6720 C   0  0  0  0  0  0  0  0  0  0  0  0
  140.5350   76.6550  221.5600 C   0  0  0  0  0  0  0  0  0  0  0  0
  140.8790   77.2060  222.7740 N   0  0  0  0  0  0  0  0  0  0  0  0
  141.4520   78.4060  222.8860 C   0  0  0  0  0  0  0  0  0  0  0  0
  141.7740   78.9040  224.1350 C   0  0  0  0  0  0  0  0  0  0  0  0
  142.3650   80.1560  224.1890 C   0  0  0  0  0  0  0  0  0  0  0  0
  142.6220   80.8800  223.0430 C   0  0  0  0  0  0  0  0  0  0  0  0
  142.2800   80.3370  221.8150 C   0  0  0  0  0  0  0  0  0  0  0  0
  141.6900   79.0940  221.7170 C   0  0  0  0  0  0  0  0  0  0  0  0
  141.3420   78.5320  220.5000 C   0  0  0  0  0  0  0  0  0  0  0  0
  141.5950   79.2350  219.4880 O   0  0  0  0  0  0  0  0  0  0  0  0
  140.7600   77.3000  220.4060 N   0  0  0  0  0  0  0  0  0  0  0  0
  140.4840   76.8110  219.0980 C   0  0  0  0  0  0  0  0  0  0  0  0
  141.6130   76.1910  218.3380 C   0  0  0  0  0  0  0  0  0  0  0  0
  142.5530   77.1780  217.7210 C   0  0  0  0  0  0  0  0  0  0  0  0
  143.4480   76.5660  216.6660 C   0  0  0  0  0  0  0  0  0  0  0  0
  143.7540   75.1390  217.0730 C   0  0  0  0  0  0  0  0  0  0  0  0
  142.5070   74.3170  217.0300 C   0  0  0  0  0  0  0  0  0  0  0  0
  141.2600   75.1220  217.3660 C   0  0  0  0  0  0  0  0  0  0  0  0
  142.8380   74.5180  220.8480 C   0  0  0  0  0  0  0  0  0  0  0  0
  143.8950   74.0460  220.1470 C   0  0  0  0  0  0  0  0  0  0  0  0
  146.7340   73.9070  219.1530 H   0  0  0  0  0  0  0  0  0  0  0  0
  145.7920   74.0650  217.7240 H   0  0  0  0  0  0  0  0  0  0  0  0
  142.9645   70.8474  219.8151 H   0  0  0  0  0  0  0  0  0  0  0  0
  141.0394   71.7040  221.0914 H   0  0  0  0  0  0  0  0  0  0  0  0
  139.3601   75.1119  220.7285 H   0  0  0  0  0  0  0  0  0  0  0  0
  139.1941   75.3705  222.5275 H   0  0  0  0  0  0  0  0  0  0  0  0
  141.5690   78.3288  225.0499 H   0  0  0  0  0  0  0  0  0  0  0  0
  142.6351   80.5819  225.1666 H   0  0  0  0  0  0  0  0  0  0  0  0
  143.0912   81.8731  223.1033 H   0  0  0  0  0  0  0  0  0  0  0  0
  142.4834   80.9097  220.8981 H   0  0  0  0  0  0  0  0  0  0  0  0
  139.6934   76.0518  219.1906 H   0  0  0  0  0  0  0  0  0  0  0  0
  140.2137   77.7050  218.5169 H   0  0  0  0  0  0  0  0  0  0  0  0
  142.1434   75.6730  219.1506 H   0  0  0  0  0  0  0  0  0  0  0  0
  141.9620   77.9807  217.2559 H   0  0  0  0  0  0  0  0  0  0  0  0
  143.2034   77.5570  218.5231 H   0  0  0  0  0  0  0  0  0  0  0  0
  142.9352   76.5736  215.6929 H   0  0  0  0  0  0  0  0  0  0  0  0
  144.3800   77.1435  216.5774 H   0  0  0  0  0  0  0  0  0  0  0  0
  144.4949   74.7135  216.3802 H   0  0  0  0  0  0  0  0  0  0  0  0
  144.1550   75.1336  218.0973 H   0  0  0  0  0  0  0  0  0  0  0  0
  142.3949   73.9007  216.0180 H   0  0  0  0  0  0  0  0  0  0  0  0
  142.6051   73.5254  217.7875 H   0  0  0  0  0  0  0  0  0  0  0  0
  140.8581   75.5772  216.4488 H   0  0  0  0  0  0  0  0  0  0  0  0
  140.5007   74.4591  217.8065 H   0  0  0  0  0  0  0  0  0  0  0  0
  142.8287   75.5804  221.1331 H   0  0  0  0  0  0  0  0  0  0  0  0
  144.7144   74.7296  219.8800 H   0  0  0  0  0  0  0  0  0  0  0  0
  1  2  1  0
  2  3  2  0
  2  4  2  0
  2  5  1  0
  5  6  2  0
  6  7  1  0
  7  8  2  0
  8  9  1  0
  9 10  1  0
 10 11  1  0
 11 12  2  0
 12 13  1  0
 13 14  2  0
 14 15  1  0
 15 16  2  0
 16 17  1  0
 17 18  2  0
 18 19  1  0
 19 20  2  0
 19 21  1  0
 21 22  1  0
 22 23  1  0
 23 24  1  0
 24 25  1  0
 25 26  1  0
 26 27  1  0
 27 28  1  0
  8 29  1  0
 29 30  2  0
 30  5  1  0
 21 11  1  0
 28 23  1  0
 18 13  1  0
  1 31  1  0
  1 32  1  0
  6 33  1  0
  7 34  1  0
 10 35  1  0
 10 36  1  0
 14 37  1  0
 15 38  1  0
 16 39  1  0
 17 40  1  0
 22 41  1  0
 22 42  1  0
 23 43  1  0
 24 44  1  0
 24 45  1  0
 25 46  1  0
 25 47  1  0
 26 48  1  0
 26 49  1  0
 27 50  1  0
 27 51  1  0
 28 52  1  0
 28 53  1  0
 29 54  1  0
 30 55  1  0
M  END
>  <smiles>  (14) 
NS(=O)(=O)c1ccc(OCc2nc3ccccc3c(=O)n2CC2CCCCC2)cc1

>  <score_type>  (14) 
oracle

>  <origin>  (14) 
autodockgpu

>  <m_score__min__energy>  (14) 
-8.8800000000000008

>  <m_primary>  (14) 
energy

>  <rmsd>  (14) 
3.672765942683715

>  <m_score__min__rmsd>  (14) 
3.672765942683715

>  <meeko>  (14) 
{"free_energy": -7.62, "intermolecular_energy": -9.71, "internal_energy": -2.32, "cluster_size": 16, "cluster_id": 6, "rank_in_cluster": 8}

>  <energy>  (14) 
-8.34

>  <cluster_rmsd>  (14) 
1.17

>  <cluster>  (14) 
2

$$$$

     RDKit          3D

 55 58  0  0  0  0  0  0  0  0999 V2000
  144.0720   71.5480  220.8750 N   0  0  0  0  0  0  0  0  0  0  0  0
  145.2510   72.5560  220.1100 S   0  0  0  0  0  0  0  0  0  0  0  0
  146.2590   72.9920  221.1200 O   0  0  0  0  0  0  0  0  0  0  0  0
  145.9410   71.8020  219.0160 O   0  0  0  0  0  0  0  0  0  0  0  0
  144.4360   73.9470  219.4580 C   0  0  0  0  0  0  0  0  0  0  0  0
  144.0080   73.9090  218.1600 C   0  0  0  0  0  0  0  0  0  0  0  0
  143.3530   75.0070  217.6100 C   0  0  0  0  0  0  0  0  0  0  0  0
  143.1000   76.1600  218.3050 C   0  0  0  0  0  0  0  0  0  0  0  0
  142.4900   77.2760  217.9080 O   0  0  0  0  0  0  0  0  0  0  0  0
  141.3470   77.9490  218.2650 C   0  0  0  0  0  0  0  0  0  0  0  0
  141.2020   78.1220  219.7330 C   0  0  0  0  0  0  0  0  0  0  0  0
  141.8500   79.2340  220.2240 N   0  0  0  0  0  0  0  0  0  0  0  0
  141.8600   79.5500  221.5200 C   0  0  0  0  0  0  0  0  0  0  0  0
  142.5300   80.6800  221.9500 C   0  0  0  0  0  0  0  0  0  0  0  0
  142.5070   80.9580  223.3070 C   0  0  0  0  0  0  0  0  0  0  0  0
  141.8430   80.1380  224.1970 C   0  0  0  0  0  0  0  0  0  0  0  0
  141.1870   79.0160  223.7170 C   0  0  0  0  0  0  0  0  0  0  0  0
  141.1850   78.7040  222.3720 C   0  0  0  0  0  0  0  0  0  0  0  0
  140.5360   77.5900  221.8710 C   0  0  0  0  0  0  0  0  0  0  0  0
  139.9500   76.8760  222.7240 O   0  0  0  0  0  0  0  0  0  0  0  0
  140.5330   77.2850  220.5390 N   0  0  0  0  0  0  0  0  0  0  0  0
  139.7970   76.1350  220.1380 C   0  0  0  0  0  0  0  0  0  0  0  0
  140.2370   74.8100  220.6700 C   0  0  0  0  0  0  0  0  0  0  0  0
  140.8260   73.8990  219.6400 C   0  0  0  0  0  0  0  0  0  0  0  0
  140.9140   72.4600  220.1000 C   0  0  0  0  0  0  0  0  0  0  0  0
  141.1840   72.4550  221.5910 C   0  0  0  0  0  0  0  0  0  0  0  0
  140.0090   73.0120  222.3260 C   0  0  0  0  0  0  0  0  0  0  0  0
  139.2690   74.0760  221.5290 C   0  0  0  0  0  0  0  0  0  0  0  0
  143.5650   76.1390  219.6440 C   0  0  0  0  0  0  0  0  0  0  0  0
  144.2030   75.0750  220.1850 C   0  0  0  0  0  0  0  0  0  0  0  0
  144.3430   71.2880  221.8460 H   0  0  0  0  0  0  0  0  0  0  0  0
  143.8450   70.7030  220.3070 H   0  0  0  0  0  0  0  0  0  0  0  0
  144.1814   73.0101  217.5501 H   0  0  0  0  0  0  0  0  0  0  0  0
  143.0213   74.9457  216.5630 H   0  0  0  0  0  0  0  0  0  0  0  0
  141.3668   78.9440  217.7963 H   0  0  0  0  0  0  0  0  0  0  0  0
  140.4932   77.3464  217.9218 H   0  0  0  0  0  0  0  0  0  0  0  0
  143.0610   81.3333  221.2420 H   0  0  0  0  0  0  0  0  0  0  0  0
  143.0286   81.8505  223.6830 H   0  0  0  0  0  0  0  0  0  0  0  0
  141.8348   80.3720  225.2718 H   0  0  0  0  0  0  0  0  0  0  0  0
  140.6564   78.3597  224.4225 H   0  0  0  0  0  0  0  0  0  0  0  0
  138.7539   76.2859  220.4531 H   0  0  0  0  0  0  0  0  0  0  0  0
  139.9574   76.0663  219.0519 H   0  0  0  0  0  0  0  0  0  0  0  0
  141.0412   75.1243  221.3515 H   0  0  0  0  0  0  0  0  0  0  0  0
  140.1992   73.9400  218.7370 H   0  0  0  0  0  0  0  0  0  0  0  0
  141.8522   74.2442  219.4455 H   0  0  0  0  0  0  0  0  0  0  0  0
  139.9652   71.9438  219.8917 H   0  0  0  0  0  0  0  0  0  0  0  0
  141.7223   71.9392  219.5658 H   0  0  0  0  0  0  0  0  0  0  0  0
  141.3661   71.4227  221.9245 H   0  0  0  0  0  0  0  0  0  0  0  0
  142.0674   73.0764  221.7996 H   0  0  0  0  0  0  0  0  0  0  0  0
  139.3119   72.1909  222.5491 H   0  0  0  0  0  0  0  0  0  0  0  0
  140.3856   73.4864  223.2442 H   0  0  0  0  0  0  0  0  0  0  0  0
  138.5064   73.5974  220.8970 H   0  0  0  0  0  0  0  0  0  0  0  0
  138.7815   74.7803  222.2191 H   0  0  0  0  0  0  0  0  0  0  0  0
  143.3999   77.0273  220.2714 H   0  0  0  0  0  0  0  0  0  0  0  0
  144.5396   75.1221  221.2312 H   0  0  0  0  0  0  0  0  0  0  0  0
  1  2  1  0
  2  3  2  0
  2  4  2  0
  2  5  1  0
  5  6  2  0
  6  7  1  0
  7  8  2  0
  8  9  1  0
  9 10  1  0
 10 11  1  0
 11 12  2  0
 12 13  1  0
 13 14  2  0
 14 15  1  0
 15 16  2  0
 16 17  1  0
 17 18  2  0
 18 19  1  0
 19 20  2  0
 19 21  1  0
 21 22  1  0
 22 23  1  0
 23 24  1  0
 24 25  1  0
 25 26  1  0
 26 27  1  0
 27 28  1  0
  8 29  1  0
 29 30  2  0
 30  5  1  0
 21 11  1  0
 28 23  1  0
 18 13  1  0
  1 31  1  0
  1 32  1  0
  6 33  1  0
  7 34  1  0
 10 35  1  0
 10 36  1  0
 14 37  1  0
 15 38  1  0
 16 39  1  0
 17 40  1  0
 22 41  1  0
 22 42  1  0
 23 43  1  0
 24 44  1  0
 24 45  1  0
 25 46  1  0
 25 47  1  0
 26 48  1  0
 26 49  1  0
 27 50  1  0
 27 51  1  0
 28 52  1  0
 28 53  1  0
 29 54  1  0
 30 55  1  0
M  END
>  <smiles>  (15) 
NS(=O)(=O)c1ccc(OCc2nc3ccccc3c(=O)n2CC2CCCCC2)cc1

>  <score_type>  (15) 
oracle

>  <origin>  (15) 
autodockgpu

>  <m_score__min__energy>  (15) 
-8.8800000000000008

>  <m_primary>  (15) 
energy

>  <rmsd>  (15) 
4.109369940757135

>  <m_score__min__rmsd>  (15) 
4.109369940757135

>  <meeko>  (15) 
{"free_energy": -7.15, "intermolecular_energy": -9.23, "internal_energy": -2.38, "cluster_size": 1, "cluster_id": 8, "rank_in_cluster": 1}

>  <energy>  (15) 
-8.31

>  <cluster_rmsd>  (15) 
1.26

>  <cluster>  (15) 
2

$$$$

     RDKit          3D

 55 58  0  0  0  0  0  0  0  0999 V2000
  139.1570   67.1740  226.4780 N   0  0  0  0  0  0  0  0  0  0  0  0
  140.0300   68.5340  227.0910 S   0  0  0  0  0  0  0  0  0  0  0  0
  139.2750   69.1350  228.2290 O   0  0  0  0  0  0  0  0  0  0  0  0
  141.3830   68.1050  227.5670 O   0  0  0  0  0  0  0  0  0  0  0  0
  140.1880   69.7010  225.8110 C   0  0  0  0  0  0  0  0  0  0  0  0
  140.7590   70.9110  226.0920 C   0  0  0  0  0  0  0  0  0  0  0  0
  140.8990   71.8640  225.0880 C   0  0  0  0  0  0  0  0  0  0  0  0
  140.4880   71.6650  223.7960 C   0  0  0  0  0  0  0  0  0  0  0  0
  140.5580   72.4820  222.7460 O   0  0  0  0  0  0  0  0  0  0  0  0
  139.6990   73.3540  222.1230 C   0  0  0  0  0  0  0  0  0  0  0  0
  140.3650   74.5900  221.6400 C   0  0  0  0  0  0  0  0  0  0  0  0
  140.0980   75.6990  222.4120 N   0  0  0  0  0  0  0  0  0  0  0  0
  140.5830   76.9090  222.1290 C   0  0  0  0  0  0  0  0  0  0  0  0
  140.2780   77.9830  222.9440 C   0  0  0  0  0  0  0  0  0  0  0  0
  140.8090   79.2160  222.6000 C   0  0  0  0  0  0  0  0  0  0  0  0
  141.6100   79.3680  221.4860 C   0  0  0  0  0  0  0  0  0  0  0  0
  141.8850   78.2610  220.7010 C   0  0  0  0  0  0  0  0  0  0  0  0
  141.3770   77.0150  221.0090 C   0  0  0  0  0  0  0  0  0  0  0  0
  141.6410   75.8960  220.2390 C   0  0  0  0  0  0  0  0  0  0  0  0
  142.3730   76.0910  219.2350 O   0  0  0  0  0  0  0  0  0  0  0  0
  141.1390   74.6640  220.5470 N   0  0  0  0  0  0  0  0  0  0  0  0
  141.5130   73.5800  219.7030 C   0  0  0  0  0  0  0  0  0  0  0  0
  142.9530   73.1790  219.6890 C   0  0  0  0  0  0  0  0  0  0  0  0
  143.1820   71.7250  219.4210 C   0  0  0  0  0  0  0  0  0  0  0  0
  144.5800   71.2690  219.7760 C   0  0  0  0  0  0  0  0  0  0  0  0
  145.5350   72.4130  219.5050 C   0  0  0  0  0  0  0  0  0  0  0  0
  145.2600   73.5420  220.4430 C   0  0  0  0  0  0  0  0  0  0  0  0
  143.7900   73.6420  220.8270 C   0  0  0  0  0  0  0  0  0  0  0  0
  139.9060   70.3940  223.5660 C   0  0  0  0  0  0  0  0  0  0  0  0
  139.7660   69.4620  224.5370 C   0  0  0  0  0  0  0  0  0  0  0  0
  138.1660   67.4050  226.2580 H   0  0  0  0  0  0  0  0  0  0  0  0
  139.2190   66.3460  227.1090 H   0  0  0  0  0  0  0  0  0  0  0  0
  141.1077   71.1311  227.1118 H   0  0  0  0  0  0  0  0  0  0  0  0
  141.3638   72.8273  225.3447 H   0  0  0  0  0  0  0  0  0  0  0  0
  139.2460   72.8420  221.2613 H   0  0  0  0  0  0  0  0  0  0  0  0
  138.9475   73.6581  222.8665 H   0  0  0  0  0  0  0  0  0  0  0  0
  139.6387   77.8636  223.8311 H   0  0  0  0  0  0  0  0  0  0  0  0
  140.5876   80.0918  223.2277 H   0  0  0  0  0  0  0  0  0  0  0  0
  142.0235   80.3536  221.2259 H   0  0  0  0  0  0  0  0  0  0  0  0
  142.5225   78.3771  219.8121 H   0  0  0  0  0  0  0  0  0  0  0  0
  140.9298   72.7018  220.0172 H   0  0  0  0  0  0  0  0  0  0  0  0
  141.3128   73.9385  218.6825 H   0  0  0  0  0  0  0  0  0  0  0  0
  143.3132   73.7504  218.8208 H   0  0  0  0  0  0  0  0  0  0  0  0
  142.4624   71.1421  220.0145 H   0  0  0  0  0  0  0  0  0  0  0  0
  143.0496   71.5658  218.3407 H   0  0  0  0  0  0  0  0  0  0  0  0
  144.6225   70.9927  220.8399 H   0  0  0  0  0  0  0  0  0  0  0  0
  144.8577   70.3918  219.1732 H   0  0  0  0  0  0  0  0  0  0  0  0
  146.5690   72.0655  219.6467 H   0  0  0  0  0  0  0  0  0  0  0  0
  145.3965   72.7613  218.4708 H   0  0  0  0  0  0  0  0  0  0  0  0
  145.8532   73.3924  221.3572 H   0  0  0  0  0  0  0  0  0  0  0  0
  145.5334   74.4753  219.9289 H   0  0  0  0  0  0  0  0  0  0  0  0
  143.5961   73.0106  221.7066 H   0  0  0  0  0  0  0  0  0  0  0  0
  143.5416   74.6865  221.0664 H   0  0  0  0  0  0  0  0  0  0  0  0
  139.5520   70.1540  222.5525 H   0  0  0  0  0  0  0  0  0  0  0  0
  139.3033   68.4941  224.2939 H   0  0  0  0  0  0  0  0  0  0  0  0
  1  2  1  0
  2  3  2  0
  2  4  2  0
  2  5  1  0
  5  6  2  0
  6  7  1  0
  7  8  2  0
  8  9  1  0
  9 10  1  0
 10 11  1  0
 11 12  2  0
 12 13  1  0
 13 14  2  0
 14 15  1  0
 15 16  2  0
 16 17  1  0
 17 18  2  0
 18 19  1  0
 19 20  2  0
 19 21  1  0
 21 22  1  0
 22 23  1  0
 23 24  1  0
 24 25  1  0
 25 26  1  0
 26 27  1  0
 27 28  1  0
  8 29  1  0
 29 30  2  0
 30  5  1  0
 21 11  1  0
 28 23  1  0
 18 13  1  0
  1 31  1  0
  1 32  1  0
  6 33  1  0
  7 34  1  0
 10 35  1  0
 10 36  1  0
 14 37  1  0
 15 38  1  0
 16 39  1  0
 17 40  1  0
 22 41  1  0
 22 42  1  0
 23 43  1  0
 24 44  1  0
 24 45  1  0
 25 46  1  0
 25 47  1  0
 26 48  1  0
 26 49  1  0
 27 50  1  0
 27 51  1  0
 28 52  1  0
 28 53  1  0
 29 54  1  0
 30 55  1  0
M  END
>  <smiles>  (16) 
NS(=O)(=O)c1ccc(OCc2nc3ccccc3c(=O)n2CC2CCCCC2)cc1

>  <score_type>  (16) 
oracle

>  <origin>  (16) 
autodockgpu

>  <m_score__min__energy>  (16) 
-8.8800000000000008

>  <m_primary>  (16) 
energy

>  <rmsd>  (16) 
5.286459675997076

>  <m_score__min__rmsd>  (16) 
5.286459675997076

>  <meeko>  (16) 
{"free_energy": -8.45, "intermolecular_energy": -10.53, "internal_energy": -1.36, "cluster_size": 4, "cluster_id": 3, "rank_in_cluster": 2}

>  <energy>  (16) 
-8.23

>  <cluster_rmsd>  (16) 
1.6

>  <cluster>  (16) 
2

$$$$

     RDKit          3D

 55 58  0  0  0  0  0  0  0  0999 V2000
  145.9590   73.4480  218.2460 N   0  0  0  0  0  0  0  0  0  0  0  0
  145.6820   72.7730  219.8130 S   0  0  0  0  0  0  0  0  0  0  0  0
  145.7560   71.2850  219.7300 O   0  0  0  0  0  0  0  0  0  0  0  0
  146.7160   73.2660  220.7770 O   0  0  0  0  0  0  0  0  0  0  0  0
  144.0960   73.2520  220.3390 C   0  0  0  0  0  0  0  0  0  0  0  0
  143.8100   74.5860  220.4340 C   0  0  0  0  0  0  0  0  0  0  0  0
  142.5490   74.9990  220.8530 C   0  0  0  0  0  0  0  0  0  0  0  0
  141.5420   74.1320  221.1860 C   0  0  0  0  0  0  0  0  0  0  0  0
  140.3010   74.3870  221.5990 O   0  0  0  0  0  0  0  0  0  0  0  0
  139.4780   75.4860  221.6080 C   0  0  0  0  0  0  0  0  0  0  0  0
  140.2150   76.7720  221.5170 C   0  0  0  0  0  0  0  0  0  0  0  0
  140.5990   77.2750  222.7390 N   0  0  0  0  0  0  0  0  0  0  0  0
  141.2500   78.4330  222.8710 C   0  0  0  0  0  0  0  0  0  0  0  0
  141.6090   78.8840  224.1270 C   0  0  0  0  0  0  0  0  0  0  0  0
  142.2820   80.0930  224.2030 C   0  0  0  0  0  0  0  0  0  0  0  0
  142.5820   80.8200  223.0680 C   0  0  0  0  0  0  0  0  0  0  0  0
  142.2010   80.3250  221.8320 C   0  0  0  0  0  0  0  0  0  0  0  0
  141.5290   79.1250  221.7140 C   0  0  0  0  0  0  0  0  0  0  0  0
  141.1400   78.6120  220.4880 C   0  0  0  0  0  0  0  0  0  0  0  0
  141.4350   79.3150  219.4890 O   0  0  0  0  0  0  0  0  0  0  0  0
  140.4780   77.4230  220.3740 N   0  0  0  0  0  0  0  0  0  0  0  0
  140.1660   76.9780  219.0590 C   0  0  0  0  0  0  0  0  0  0  0  0
  141.2100   76.2000  218.3240 C   0  0  0  0  0  0  0  0  0  0  0  0
  142.4510   76.9760  218.0170 C   0  0  0  0  0  0  0  0  0  0  0  0
  143.3220   76.3160  216.9710 C   0  0  0  0  0  0  0  0  0  0  0  0
  143.1940   74.8140  217.1280 C   0  0  0  0  0  0  0  0  0  0  0  0
  141.8060   74.3800  216.7890 C   0  0  0  0  0  0  0  0  0  0  0  0
  140.7610   75.4330  217.1320 C   0  0  0  0  0  0  0  0  0  0  0  0
  141.8970   72.7650  221.0670 C   0  0  0  0  0  0  0  0  0  0  0  0
  143.1220   72.3550  220.6620 C   0  0  0  0  0  0  0  0  0  0  0  0
  146.9240   73.8240  218.1410 H   0  0  0  0  0  0  0  0  0  0  0  0
  145.2460   74.1660  217.9920 H   0  0  0  0  0  0  0  0  0  0  0  0
  144.5768   75.3324  220.1792 H   0  0  0  0  0  0  0  0  0  0  0  0
  142.3502   76.0788  220.9204 H   0  0  0  0  0  0  0  0  0  0  0  0
  138.7917   75.4154  220.7512 H   0  0  0  0  0  0  0  0  0  0  0  0
  138.9426   75.4844  222.5689 H   0  0  0  0  0  0  0  0  0  0  0  0
  141.3697   78.3056  225.0316 H   0  0  0  0  0  0  0  0  0  0  0  0
  142.5832   80.4813  225.1871 H   0  0  0  0  0  0  0  0  0  0  0  0
  143.1160   81.7786  223.1445 H   0  0  0  0  0  0  0  0  0  0  0  0
  142.4389   80.9002  220.9251 H   0  0  0  0  0  0  0  0  0  0  0  0
  139.2715   76.3418  219.1308 H   0  0  0  0  0  0  0  0  0  0  0  0
  140.0434   77.9015  218.4741 H   0  0  0  0  0  0  0  0  0  0  0  0
  141.4586   75.4365  219.0758 H   0  0  0  0  0  0  0  0  0  0  0  0
  142.1595   77.9718  217.6518 H   0  0  0  0  0  0  0  0  0  0  0  0
  143.0395   77.0326  218.9446 H   0  0  0  0  0  0  0  0  0  0  0  0
  142.9889   76.6152  215.9662 H   0  0  0  0  0  0  0  0  0  0  0  0
  144.3702   76.6238  217.0998 H   0  0  0  0  0  0  0  0  0  0  0  0
  143.9061   74.3156  216.4539 H   0  0  0  0  0  0  0  0  0  0  0  0
  143.4125   74.5407  218.1709 H   0  0  0  0  0  0  0  0  0  0  0  0
  141.7557   74.1727  215.7099 H   0  0  0  0  0  0  0  0  0  0  0  0
  141.5829   73.4835  217.3862 H   0  0  0  0  0  0  0  0  0  0  0  0
  140.6357   76.1176  216.2802 H   0  0  0  0  0  0  0  0  0  0  0  0
  139.8007   74.9424  217.3494 H   0  0  0  0  0  0  0  0  0  0  0  0
  141.1434   72.0030  221.3148 H   0  0  0  0  0  0  0  0  0  0  0  0
  143.3352   71.2781  220.5923 H   0  0  0  0  0  0  0  0  0  0  0  0
  1  2  1  0
  2  3  2  0
  2  4  2  0
  2  5  1  0
  5  6  2  0
  6  7  1  0
  7  8  2  0
  8  9  1  0
  9 10  1  0
 10 11  1  0
 11 12  2  0
 12 13  1  0
 13 14  2  0
 14 15  1  0
 15 16  2  0
 16 17  1  0
 17 18  2  0
 18 19  1  0
 19 20  2  0
 19 21  1  0
 21 22  1  0
 22 23  1  0
 23 24  1  0
 24 25  1  0
 25 26  1  0
 26 27  1  0
 27 28  1  0
  8 29  1  0
 29 30  2  0
 30  5  1  0
 21 11  1  0
 28 23  1  0
 18 13  1  0
  1 31  1  0
  1 32  1  0
  6 33  1  0
  7 34  1  0
 10 35  1  0
 10 36  1  0
 14 37  1  0
 15 38  1  0
 16 39  1  0
 17 40  1  0
 22 41  1  0
 22 42  1  0
 23 43  1  0
 24 44  1  0
 24 45  1  0
 25 46  1  0
 25 47  1  0
 26 48  1  0
 26 49  1  0
 27 50  1  0
 27 51  1  0
 28 52  1  0
 28 53  1  0
 29 54  1  0
 30 55  1  0
M  END
>  <smiles>  (17) 
NS(=O)(=O)c1ccc(OCc2nc3ccccc3c(=O)n2CC2CCCCC2)cc1

>  <score_type>  (17) 
oracle

>  <origin>  (17) 
autodockgpu

>  <m_score__min__energy>  (17) 
-8.8800000000000008

>  <m_primary>  (17) 
energy

>  <rmsd>  (17) 
3.5221371167646347

>  <m_score__min__rmsd>  (17) 
3.5221371167646347

>  <meeko>  (17) 
{"free_energy": -7.69, "intermolecular_energy": -9.78, "internal_energy": -2.25, "cluster_size": 16, "cluster_id": 6, "rank_in_cluster": 5}

>  <energy>  (17) 
-8.21

>  <cluster_rmsd>  (17) 
1.12

>  <cluster>  (17) 
2

$$$$

     RDKit          3D

 55 58  0  0  0  0  0  0  0  0999 V2000
  146.2770   71.2260  219.6870 N   0  0  0  0  0  0  0  0  0  0  0  0
  145.6540   72.8230  219.4710 S   0  0  0  0  0  0  0  0  0  0  0  0
  146.5770   73.8050  220.1110 O   0  0  0  0  0  0  0  0  0  0  0  0
  145.5330   73.1370  218.0120 O   0  0  0  0  0  0  0  0  0  0  0  0
  144.0920   72.9060  220.2320 C   0  0  0  0  0  0  0  0  0  0  0  0
  143.4650   74.1180  220.3170 C   0  0  0  0  0  0  0  0  0  0  0  0
  142.2150   74.2140  220.9210 C   0  0  0  0  0  0  0  0  0  0  0  0
  141.5490   73.1420  221.4520 C   0  0  0  0  0  0  0  0  0  0  0  0
  140.3610   73.0910  222.0540 O   0  0  0  0  0  0  0  0  0  0  0  0
  139.3230   72.1930  222.0980 C   0  0  0  0  0  0  0  0  0  0  0  0
  139.3600   71.3110  223.2920 C   0  0  0  0  0  0  0  0  0  0  0  0
  140.0740   71.8380  224.3450 N   0  0  0  0  0  0  0  0  0  0  0  0
  140.2460   71.1880  225.4980 C   0  0  0  0  0  0  0  0  0  0  0  0
  140.9740   71.7720  226.5180 C   0  0  0  0  0  0  0  0  0  0  0  0
  141.1200   71.0500  227.6910 C   0  0  0  0  0  0  0  0  0  0  0  0
  140.5610   69.7960  227.8380 C   0  0  0  0  0  0  0  0  0  0  0  0
  139.8410   69.2550  226.7860 C   0  0  0  0  0  0  0  0  0  0  0  0
  139.6710   69.9410  225.6010 C   0  0  0  0  0  0  0  0  0  0  0  0
  138.9540   69.4190  224.5380 C   0  0  0  0  0  0  0  0  0  0  0  0
  138.4700   68.2730  224.7240 O   0  0  0  0  0  0  0  0  0  0  0  0
  138.7860   70.1010  223.3670 N   0  0  0  0  0  0  0  0  0  0  0  0
  137.9950   69.4790  222.3610 C   0  0  0  0  0  0  0  0  0  0  0  0
  138.6850   68.5570  221.4080 C   0  0  0  0  0  0  0  0  0  0  0  0
  138.7720   67.1400  221.8800 C   0  0  0  0  0  0  0  0  0  0  0  0
  139.7780   66.3160  221.1050 C   0  0  0  0  0  0  0  0  0  0  0  0
  139.7900   66.8080  219.6720 C   0  0  0  0  0  0  0  0  0  0  0  0
  140.3220   68.2030  219.6150 C   0  0  0  0  0  0  0  0  0  0  0  0
  139.9910   69.0100  220.8620 C   0  0  0  0  0  0  0  0  0  0  0  0
  142.2470   71.9140  221.3340 C   0  0  0  0  0  0  0  0  0  0  0  0
  143.4630   71.8120  220.7480 C   0  0  0  0  0  0  0  0  0  0  0  0
  145.5220   70.5130  219.7670 H   0  0  0  0  0  0  0  0  0  0  0  0
  146.9400   71.1640  220.4890 H   0  0  0  0  0  0  0  0  0  0  0  0
  143.9487   75.0173  219.9079 H   0  0  0  0  0  0  0  0  0  0  0  0
  141.7368   75.2032  220.9747 H   0  0  0  0  0  0  0  0  0  0  0  0
  138.3765   72.7535  222.1071 H   0  0  0  0  0  0  0  0  0  0  0  0
  139.4134   71.5467  221.2125 H   0  0  0  0  0  0  0  0  0  0  0  0
  141.4198   72.7710  226.4025 H   0  0  0  0  0  0  0  0  0  0  0  0
  141.6934   71.4848  228.5230 H   0  0  0  0  0  0  0  0  0  0  0  0
  140.6857   69.2354  228.7762 H   0  0  0  0  0  0  0  0  0  0  0  0
  139.3946   68.2559  226.8976 H   0  0  0  0  0  0  0  0  0  0  0  0
  137.2114   68.8990  222.8706 H   0  0  0  0  0  0  0  0  0  0  0  0
  137.6365   70.3095  221.7351 H   0  0  0  0  0  0  0  0  0  0  0  0
  137.9923   68.5942  220.5543 H   0  0  0  0  0  0  0  0  0  0  0  0
  139.0638   67.1417  222.9406 H   0  0  0  0  0  0  0  0  0  0  0  0
  137.7841   66.6817  221.7251 H   0  0  0  0  0  0  0  0  0  0  0  0
  140.7777   66.4357  221.5481 H   0  0  0  0  0  0  0  0  0  0  0  0
  139.5035   65.2513  221.1387 H   0  0  0  0  0  0  0  0  0  0  0  0
  140.4294   66.1493  219.0660 H   0  0  0  0  0  0  0  0  0  0  0  0
  138.7631   66.7968  219.2778 H   0  0  0  0  0  0  0  0  0  0  0  0
  141.4156   68.1582  219.5050 H   0  0  0  0  0  0  0  0  0  0  0  0
  139.8469   68.7047  218.7591 H   0  0  0  0  0  0  0  0  0  0  0  0
  140.7770   68.8592  221.6167 H   0  0  0  0  0  0  0  0  0  0  0  0
  139.9324   70.0779  220.6050 H   0  0  0  0  0  0  0  0  0  0  0  0
  141.7797   71.0032  221.7366 H   0  0  0  0  0  0  0  0  0  0  0  0
  143.9524   70.8288  220.6871 H   0  0  0  0  0  0  0  0  0  0  0  0
  1  2  1  0
  2  3  2  0
  2  4  2  0
  2  5  1  0
  5  6  2  0
  6  7  1  0
  7  8  2  0
  8  9  1  0
  9 10  1  0
 10 11  1  0
 11 12  2  0
 12 13  1  0
 13 14  2  0
 14 15  1  0
 15 16  2  0
 16 17  1  0
 17 18  2  0
 18 19  1  0
 19 20  2  0
 19 21  1  0
 21 22  1  0
 22 23  1  0
 23 24  1  0
 24 25  1  0
 25 26  1  0
 26 27  1  0
 27 28  1  0
  8 29  1  0
 29 30  2  0
 30  5  1  0
 21 11  1  0
 28 23  1  0
 18 13  1  0
  1 31  1  0
  1 32  1  0
  6 33  1  0
  7 34  1  0
 10 35  1  0
 10 36  1  0
 14 37  1  0
 15 38  1  0
 16 39  1  0
 17 40  1  0
 22 41  1  0
 22 42  1  0
 23 43  1  0
 24 44  1  0
 24 45  1  0
 25 46  1  0
 25 47  1  0
 26 48  1  0
 26 49  1  0
 27 50  1  0
 27 51  1  0
 28 52  1  0
 28 53  1  0
 29 54  1  0
 30 55  1  0
M  END
>  <smiles>  (18) 
NS(=O)(=O)c1ccc(OCc2nc3ccccc3c(=O)n2CC2CCCCC2)cc1

>  <score_type>  (18) 
oracle

>  <origin>  (18) 
autodockgpu

>  <m_score__min__energy>  (18) 
-8.8800000000000008

>  <m_primary>  (18) 
energy

>  <rmsd>  (18) 
11.312958329741758

>  <m_score__min__rmsd>  (18) 
11.312958329741758

>  <meeko>  (18) 
{"free_energy": -8.31, "intermolecular_energy": -10.4, "internal_energy": -1.59, "cluster_size": 17, "cluster_id": 2, "rank_in_cluster": 12}

>  <energy>  (18) 
-8.18

>  <cluster_rmsd>  (18) 
1.27

>  <cluster>  (18) 
2

$$$$

     RDKit          3D

 55 58  0  0  0  0  0  0  0  0999 V2000
  141.5600   68.0770  226.4700 N   0  0  0  0  0  0  0  0  0  0  0  0
  139.9010   68.5570  226.4060 S   0  0  0  0  0  0  0  0  0  0  0  0
  139.0490   67.3600  226.1430 O   0  0  0  0  0  0  0  0  0  0  0  0
  139.4930   69.1780  227.7060 O   0  0  0  0  0  0  0  0  0  0  0  0
  139.7150   69.7030  225.1110 C   0  0  0  0  0  0  0  0  0  0  0  0
  138.7200   69.5050  224.1960 C   0  0  0  0  0  0  0  0  0  0  0  0
  138.5470   70.4050  223.1480 C   0  0  0  0  0  0  0  0  0  0  0  0
  139.3340   71.5120  222.9680 C   0  0  0  0  0  0  0  0  0  0  0  0
  139.2820   72.4470  222.0200 O   0  0  0  0  0  0  0  0  0  0  0  0
  139.5660   73.7890  221.9510 C   0  0  0  0  0  0  0  0  0  0  0  0
  140.8930   74.0780  221.3490 C   0  0  0  0  0  0  0  0  0  0  0  0
  141.7120   72.9750  221.2630 N   0  0  0  0  0  0  0  0  0  0  0  0
  142.9520   73.0330  220.7760 C   0  0  0  0  0  0  0  0  0  0  0  0
  143.7260   71.8890  220.7160 C   0  0  0  0  0  0  0  0  0  0  0  0
  145.0060   72.0110  220.2010 C   0  0  0  0  0  0  0  0  0  0  0  0
  145.4930   73.2260  219.7650 C   0  0  0  0  0  0  0  0  0  0  0  0
  144.6790   74.3440  219.8460 C   0  0  0  0  0  0  0  0  0  0  0  0
  143.3980   74.2660  220.3520 C   0  0  0  0  0  0  0  0  0  0  0  0
  142.5670   75.3700  220.4410 C   0  0  0  0  0  0  0  0  0  0  0  0
  143.0610   76.4520  220.0330 O   0  0  0  0  0  0  0  0  0  0  0  0
  141.2980   75.2890  220.9400 N   0  0  0  0  0  0  0  0  0  0  0  0
  140.5250   76.4840  220.9430 C   0  0  0  0  0  0  0  0  0  0  0  0
  140.8990   77.5490  221.9240 C   0  0  0  0  0  0  0  0  0  0  0  0
  139.7510   78.0780  222.7230 C   0  0  0  0  0  0  0  0  0  0  0  0
  140.0640   79.3830  223.4210 C   0  0  0  0  0  0  0  0  0  0  0  0
  141.5280   79.3710  223.8150 C   0  0  0  0  0  0  0  0  0  0  0  0
  142.3860   79.3830  222.5920 C   0  0  0  0  0  0  0  0  0  0  0  0
  141.7430   78.6620  221.4160 C   0  0  0  0  0  0  0  0  0  0  0  0
  140.3460   71.6640  223.9470 C   0  0  0  0  0  0  0  0  0  0  0  0
  140.5210   70.7930  224.9680 C   0  0  0  0  0  0  0  0  0  0  0  0
  142.2100   68.8880  226.4160 H   0  0  0  0  0  0  0  0  0  0  0  0
  141.7930   67.3580  225.7500 H   0  0  0  0  0  0  0  0  0  0  0  0
  138.0549   68.6336  224.2874 H   0  0  0  0  0  0  0  0  0  0  0  0
  137.7370   70.2178  222.4276 H   0  0  0  0  0  0  0  0  0  0  0  0
  138.7920   74.2789  221.3420 H   0  0  0  0  0  0  0  0  0  0  0  0
  139.5854   74.1716  222.9821 H   0  0  0  0  0  0  0  0  0  0  0  0
  143.3402   70.9194  221.0638 H   0  0  0  0  0  0  0  0  0  0  0  0
  145.6480   71.1200  220.1383 H   0  0  0  0  0  0  0  0  0  0  0  0
  146.5123   73.3058  219.3592 H   0  0  0  0  0  0  0  0  0  0  0  0
  145.0624   75.3150  219.4993 H   0  0  0  0  0  0  0  0  0  0  0  0
  140.5954   76.9238  219.9372 H   0  0  0  0  0  0  0  0  0  0  0  0
  139.5180   76.1641  221.2490 H   0  0  0  0  0  0  0  0  0  0  0  0
  141.5548   76.9800  222.5994 H   0  0  0  0  0  0  0  0  0  0  0  0
  138.8985   78.2386  222.0467 H   0  0  0  0  0  0  0  0  0  0  0  0
  139.5248   77.3356  223.5025 H   0  0  0  0  0  0  0  0  0  0  0  0
  139.8684   80.2252  222.7409 H   0  0  0  0  0  0  0  0  0  0  0  0
  139.4315   79.4974  224.3137 H   0  0  0  0  0  0  0  0  0  0  0  0
  141.7488   80.2602  224.4237 H   0  0  0  0  0  0  0  0  0  0  0  0
  141.7385   78.4604  224.3951 H   0  0  0  0  0  0  0  0  0  0  0  0
  142.5737   80.4279  222.3041 H   0  0  0  0  0  0  0  0  0  0  0  0
  143.3192   78.8542  222.8358 H   0  0  0  0  0  0  0  0  0  0  0  0
  141.1180   79.3680  220.8494 H   0  0  0  0  0  0  0  0  0  0  0  0
  142.5267   78.2592  220.7576 H   0  0  0  0  0  0  0  0  0  0  0  0
  141.0207   72.5297  223.8742 H   0  0  0  0  0  0  0  0  0  0  0  0
  141.3277   70.9677  225.6951 H   0  0  0  0  0  0  0  0  0  0  0  0
  1  2  1  0
  2  3  2  0
  2  4  2  0
  2  5  1  0
  5  6  2  0
  6  7  1  0
  7  8  2  0
  8  9  1  0
  9 10  1  0
 10 11  1  0
 11 12  2  0
 12 13  1  0
 13 14  2  0
 14 15  1  0
 15 16  2  0
 16 17  1  0
 17 18  2  0
 18 19  1  0
 19 20  2  0
 19 21  1  0
 21 22  1  0
 22 23  1  0
 23 24  1  0
 24 25  1  0
 25 26  1  0
 26 27  1  0
 27 28  1  0
  8 29  1  0
 29 30  2  0
 30  5  1  0
 21 11  1  0
 28 23  1  0
 18 13  1  0
  1 31  1  0
  1 32  1  0
  6 33  1  0
  7 34  1  0
 10 35  1  0
 10 36  1  0
 14 37  1  0
 15 38  1  0
 16 39  1  0
 17 40  1  0
 22 41  1  0
 22 42  1  0
 23 43  1  0
 24 44  1  0
 24 45  1  0
 25 46  1  0
 25 47  1  0
 26 48  1  0
 26 49  1  0
 27 50  1  0
 27 51  1  0
 28 52  1  0
 28 53  1  0
 29 54  1  0
 30 55  1  0
M  END
>  <smiles>  (19) 
NS(=O)(=O)c1ccc(OCc2nc3ccccc3c(=O)n2CC2CCCCC2)cc1

>  <score_type>  (19) 
oracle

>  <origin>  (19) 
autodockgpu

>  <m_score__min__energy>  (19) 
-8.8800000000000008

>  <m_primary>  (19) 
energy

>  <rmsd>  (19) 
7.796680986905398

>  <m_score__min__rmsd>  (19) 
7.796680986905398

>  <meeko>  (19) 
{"free_energy": -8.45, "intermolecular_energy": -10.53, "internal_energy": -1.25, "cluster_size": 3, "cluster_id": 1, "rank_in_cluster": 3}

>  <energy>  (19) 
-8.12

>  <cluster_rmsd>  (19) 
1.28

>  <cluster>  (19) 
2

$$$$

     RDKit          3D

 55 58  0  0  0  0  0  0  0  0999 V2000
  145.9090   73.7390  217.9760 N   0  0  0  0  0  0  0  0  0  0  0  0
  145.7880   73.1530  219.5980 S   0  0  0  0  0  0  0  0  0  0  0  0
  145.9610   71.6710  219.6020 O   0  0  0  0  0  0  0  0  0  0  0  0
  146.8470   73.7770  220.4520 O   0  0  0  0  0  0  0  0  0  0  0  0
  144.2110   73.5600  220.2070 C   0  0  0  0  0  0  0  0  0  0  0  0
  143.7840   74.8550  220.1120 C   0  0  0  0  0  0  0  0  0  0  0  0
  142.5260   75.2100  220.5910 C   0  0  0  0  0  0  0  0  0  0  0  0
  141.6600   74.3200  221.1690 C   0  0  0  0  0  0  0  0  0  0  0  0
  140.4400   74.5210  221.6660 O   0  0  0  0  0  0  0  0  0  0  0  0
  139.3540   75.2880  221.3190 C   0  0  0  0  0  0  0  0  0  0  0  0
  139.3780   76.6450  221.9210 C   0  0  0  0  0  0  0  0  0  0  0  0
  140.6470   77.1330  222.1320 N   0  0  0  0  0  0  0  0  0  0  0  0
  140.8800   78.3240  222.6870 C   0  0  0  0  0  0  0  0  0  0  0  0
  142.1800   78.7590  222.8710 C   0  0  0  0  0  0  0  0  0  0  0  0
  142.3600   80.0030  223.4540 C   0  0  0  0  0  0  0  0  0  0  0  0
  141.2850   80.7800  223.8360 C   0  0  0  0  0  0  0  0  0  0  0  0
  140.0020   80.3000  223.6300 C   0  0  0  0  0  0  0  0  0  0  0  0
  139.7790   79.0660  223.0530 C   0  0  0  0  0  0  0  0  0  0  0  0
  138.5050   78.5680  222.8370 C   0  0  0  0  0  0  0  0  0  0  0  0
  137.5630   79.3140  223.2070 O   0  0  0  0  0  0  0  0  0  0  0  0
  138.2880   77.3480  222.2640 N   0  0  0  0  0  0  0  0  0  0  0  0
  136.9340   76.9600  222.0560 C   0  0  0  0  0  0  0  0  0  0  0  0
  136.2210   76.2970  223.1900 C   0  0  0  0  0  0  0  0  0  0  0  0
  136.1840   74.8040  223.1010 C   0  0  0  0  0  0  0  0  0  0  0  0
  135.1610   74.1790  224.0260 C   0  0  0  0  0  0  0  0  0  0  0  0
  135.0760   75.0270  225.2790 C   0  0  0  0  0  0  0  0  0  0  0  0
  134.5130   76.3710  224.9500 C   0  0  0  0  0  0  0  0  0  0  0  0
  134.8830   76.8360  223.5490 C   0  0  0  0  0  0  0  0  0  0  0  0
  142.1570   72.9950  221.2380 C   0  0  0  0  0  0  0  0  0  0  0  0
  143.3780   72.6420  220.7750 C   0  0  0  0  0  0  0  0  0  0  0  0
  146.8610   74.0970  217.7540 H   0  0  0  0  0  0  0  0  0  0  0  0
  145.1790   74.4510  217.7560 H   0  0  0  0  0  0  0  0  0  0  0  0
  144.4344   75.6166  219.6571 H   0  0  0  0  0  0  0  0  0  0  0  0
  142.2110   76.2601  220.5006 H   0  0  0  0  0  0  0  0  0  0  0  0
  139.3353   75.3919  220.2241 H   0  0  0  0  0  0  0  0  0  0  0  0
  138.4582   74.7771  221.7018 H   0  0  0  0  0  0  0  0  0  0  0  0
  143.0377   78.1413  222.5663 H   0  0  0  0  0  0  0  0  0  0  0  0
  143.3809   80.3793  223.6158 H   0  0  0  0  0  0  0  0  0  0  0  0
  141.4448   81.7658  224.2972 H   0  0  0  0  0  0  0  0  0  0  0  0
  139.1422   80.9156  223.9328 H   0  0  0  0  0  0  0  0  0  0  0  0
  136.3681   77.8670  221.7970 H   0  0  0  0  0  0  0  0  0  0  0  0
  136.9816   76.1923  221.2696 H   0  0  0  0  0  0  0  0  0  0  0  0
  136.8735   76.5764  224.0304 H   0  0  0  0  0  0  0  0  0  0  0  0
  135.9397   74.5209  222.0665 H   0  0  0  0  0  0  0  0  0  0  0  0
  137.1731   74.4326  223.4070 H   0  0  0  0  0  0  0  0  0  0  0  0
  134.1798   74.1483  223.5298 H   0  0  0  0  0  0  0  0  0  0  0  0
  135.4576   73.1511  224.2819 H   0  0  0  0  0  0  0  0  0  0  0  0
  134.4247   74.5289  226.0123 H   0  0  0  0  0  0  0  0  0  0  0  0
  136.0848   75.1515  225.6995 H   0  0  0  0  0  0  0  0  0  0  0  0
  133.4168   76.3216  225.0263 H   0  0  0  0  0  0  0  0  0  0  0  0
  134.9383   77.0929  225.6627 H   0  0  0  0  0  0  0  0  0  0  0  0
  134.1346   76.4700  222.8307 H   0  0  0  0  0  0  0  0  0  0  0  0
  134.9087   77.9353  223.5203 H   0  0  0  0  0  0  0  0  0  0  0  0
  141.5213   72.2184  221.6884 H   0  0  0  0  0  0  0  0  0  0  0  0
  143.7049   71.5950  220.8582 H   0  0  0  0  0  0  0  0  0  0  0  0
  1  2  1  0
  2  3  2  0
  2  4  2  0
  2  5  1  0
  5  6  2  0
  6  7  1  0
  7  8  2  0
  8  9  1  0
  9 10  1  0
 10 11  1  0
 11 12  2  0
 12 13  1  0
 13 14  2  0
 14 15  1  0
 15 16  2  0
 16 17  1  0
 17 18  2  0
 18 19  1  0
 19 20  2  0
 19 21  1  0
 21 22  1  0
 22 23  1  0
 23 24  1  0
 24 25  1  0
 25 26  1  0
 26 27  1  0
 27 28  1  0
  8 29  1  0
 29 30  2  0
 30  5  1  0
 21 11  1  0
 28 23  1  0
 18 13  1  0
  1 31  1  0
  1 32  1  0
  6 33  1  0
  7 34  1  0
 10 35  1  0
 10 36  1  0
 14 37  1  0
 15 38  1  0
 16 39  1  0
 17 40  1  0
 22 41  1  0
 22 42  1  0
 23 43  1  0
 24 44  1  0
 24 45  1  0
 25 46  1  0
 25 47  1  0
 26 48  1  0
 26 49  1  0
 27 50  1  0
 27 51  1  0
 28 52  1  0
 28 53  1  0
 29 54  1  0
 30 55  1  0
M  END
>  <smiles>  (20) 
NS(=O)(=O)c1ccc(OCc2nc3ccccc3c(=O)n2CC2CCCCC2)cc1

>  <score_type>  (20) 
oracle

>  <origin>  (20) 
autodockgpu

>  <m_score__min__energy>  (20) 
-8.8800000000000008

>  <m_primary>  (20) 
energy

>  <rmsd>  (20) 
6.067021287979333

>  <m_score__min__rmsd>  (20) 
6.067021287979333

>  <meeko>  (20) 
{"free_energy": -8.44, "intermolecular_energy": -10.52, "internal_energy": -1.28, "cluster_size": 4, "cluster_id": 4, "rank_in_cluster": 2}

>  <energy>  (20) 
-8.04

>  <cluster_rmsd>  (20) 
1.01

>  <cluster>  (20) 
2

$$$$

     RDKit          3D

 55 58  0  0  0  0  0  0  0  0999 V2000
  145.9380   73.3800  218.2300 N   0  0  0  0  0  0  0  0  0  0  0  0
  145.5870   72.5660  219.7140 S   0  0  0  0  0  0  0  0  0  0  0  0
  145.5020   71.0970  219.4640 O   0  0  0  0  0  0  0  0  0  0  0  0
  146.6660   72.8350  220.7160 O   0  0  0  0  0  0  0  0  0  0  0  0
  144.0600   73.1490  220.3070 C   0  0  0  0  0  0  0  0  0  0  0  0
  143.1200   72.2400  220.7070 C   0  0  0  0  0  0  0  0  0  0  0  0
  141.8890   72.6770  221.1860 C   0  0  0  0  0  0  0  0  0  0  0  0
  141.5450   73.9990  221.2860 C   0  0  0  0  0  0  0  0  0  0  0  0
  140.4130   74.5530  221.7210 O   0  0  0  0  0  0  0  0  0  0  0  0
  139.6400   75.6250  221.3470 C   0  0  0  0  0  0  0  0  0  0  0  0
  140.3860   76.9090  221.3310 C   0  0  0  0  0  0  0  0  0  0  0  0
  140.6650   77.4010  222.5860 N   0  0  0  0  0  0  0  0  0  0  0  0
  141.3050   78.5550  222.7830 C   0  0  0  0  0  0  0  0  0  0  0  0
  141.5560   78.9950  224.0700 C   0  0  0  0  0  0  0  0  0  0  0  0
  142.2230   80.2000  224.2130 C   0  0  0  0  0  0  0  0  0  0  0  0
  142.6220   80.9360  223.1160 C   0  0  0  0  0  0  0  0  0  0  0  0
  142.3470   80.4520  221.8470 C   0  0  0  0  0  0  0  0  0  0  0  0
  141.6850   79.2560  221.6610 C   0  0  0  0  0  0  0  0  0  0  0  0
  141.4010   78.7540  220.4020 C   0  0  0  0  0  0  0  0  0  0  0  0
  141.7830   79.4650  219.4380 O   0  0  0  0  0  0  0  0  0  0  0  0
  140.7480   77.5680  220.2200 N   0  0  0  0  0  0  0  0  0  0  0  0
  140.5490   77.1360  218.8790 C   0  0  0  0  0  0  0  0  0  0  0  0
  141.7060   76.5000  218.1770 C   0  0  0  0  0  0  0  0  0  0  0  0
  142.5520   77.4570  217.3990 C   0  0  0  0  0  0  0  0  0  0  0  0
  143.4700   76.7710  216.4110 C   0  0  0  0  0  0  0  0  0  0  0  0
  143.8950   75.4430  217.0040 C   0  0  0  0  0  0  0  0  0  0  0  0
  142.7160   74.5320  217.1160 C   0  0  0  0  0  0  0  0  0  0  0  0
  141.4180   75.2810  217.3760 C   0  0  0  0  0  0  0  0  0  0  0  0
  142.5580   74.8920  220.8580 C   0  0  0  0  0  0  0  0  0  0  0  0
  143.7570   74.4750  220.3910 C   0  0  0  0  0  0  0  0  0  0  0  0
  146.2300   72.7240  217.4770 H   0  0  0  0  0  0  0  0  0  0  0  0
  146.6340   74.1470  218.3530 H   0  0  0  0  0  0  0  0  0  0  0  0
  143.3371   71.1631  220.6500 H   0  0  0  0  0  0  0  0  0  0  0  0
  141.1539   71.9216  221.5007 H   0  0  0  0  0  0  0  0  0  0  0  0
  139.2470   75.4368  220.3370 H   0  0  0  0  0  0  0  0  0  0  0  0
  138.8368   75.7237  222.0921 H   0  0  0  0  0  0  0  0  0  0  0  0
  141.2381   78.4104  224.9459 H   0  0  0  0  0  0  0  0  0  0  0  0
  142.4395   80.5787  225.2228 H   0  0  0  0  0  0  0  0  0  0  0  0
  143.1501   81.8920  223.2469 H   0  0  0  0  0  0  0  0  0  0  0  0
  142.6634   81.0341  220.9689 H   0  0  0  0  0  0  0  0  0  0  0  0
  139.7271   76.4050  218.8874 H   0  0  0  0  0  0  0  0  0  0  0  0
  140.3535   78.0596  218.3144 H   0  0  0  0  0  0  0  0  0  0  0  0
  142.2919   76.1423  219.0365 H   0  0  0  0  0  0  0  0  0  0  0  0
  141.8900   78.1395  216.8459 H   0  0  0  0  0  0  0  0  0  0  0  0
  143.1876   77.9928  218.1194 H   0  0  0  0  0  0  0  0  0  0  0  0
  142.9379   76.6025  215.4631 H   0  0  0  0  0  0  0  0  0  0  0  0
  144.3515   77.3982  216.2122 H   0  0  0  0  0  0  0  0  0  0  0  0
  144.6526   74.9800  216.3546 H   0  0  0  0  0  0  0  0  0  0  0  0
  144.3158   75.6134  218.0059 H   0  0  0  0  0  0  0  0  0  0  0  0
  142.6155   73.9694  216.1761 H   0  0  0  0  0  0  0  0  0  0  0  0
  142.8919   73.8648  217.9727 H   0  0  0  0  0  0  0  0  0  0  0  0
  140.9624   75.5703  216.4175 H   0  0  0  0  0  0  0  0  0  0  0  0
  140.7228   74.6324  217.9292 H   0  0  0  0  0  0  0  0  0  0  0  0
  142.3607   75.9730  220.9077 H   0  0  0  0  0  0  0  0  0  0  0  0
  144.5013   75.2200  220.0731 H   0  0  0  0  0  0  0  0  0  0  0  0
  1  2  1  0
  2  3  2  0
  2  4  2  0
  2  5  1  0
  5  6  2  0
  6  7  1  0
  7  8  2  0
  8  9  1  0
  9 10  1  0
 10 11  1  0
 11 12  2  0
 12 13  1  0
 13 14  2  0
 14 15  1  0
 15 16  2  0
 16 17  1  0
 17 18  2  0
 18 19  1  0
 19 20  2  0
 19 21  1  0
 21 22  1  0
 22 23  1  0
 23 24  1  0
 24 25  1  0
 25 26  1  0
 26 27  1  0
 27 28  1  0
  8 29  1  0
 29 30  2  0
 30  5  1  0
 21 11  1  0
 28 23  1  0
 18 13  1  0
  1 31  1  0
  1 32  1  0
  6 33  1  0
  7 34  1  0
 10 35  1  0
 10 36  1  0
 14 37  1  0
 15 38  1  0
 16 39  1  0
 17 40  1  0
 22 41  1  0
 22 42  1  0
 23 43  1  0
 24 44  1  0
 24 45  1  0
 25 46  1  0
 25 47  1  0
 26 48  1  0
 26 49  1  0
 27 50  1  0
 27 51  1  0
 28 52  1  0
 28 53  1  0
 29 54  1  0
 30 55  1  0
M  END
>  <smiles>  (21) 
NS(=O)(=O)c1ccc(OCc2nc3ccccc3c(=O)n2CC2CCCCC2)cc1

>  <score_type>  (21) 
oracle

>  <origin>  (21) 
autodockgpu

>  <m_score__min__energy>  (21) 
-8.8800000000000008

>  <m_primary>  (21) 
energy

>  <rmsd>  (21) 
3.6932986450707825

>  <m_score__min__rmsd>  (21) 
3.6932986450707825

>  <meeko>  (21) 
{"free_energy": -7.49, "intermolecular_energy": -9.58, "internal_energy": -2.19, "cluster_size": 16, "cluster_id": 6, "rank_in_cluster": 12}

>  <energy>  (21) 
-8.65

>  <cluster_rmsd>  (21) 
0.0

>  <cluster>  (21) 
3

$$$$

     RDKit          3D

 55 58  0  0  0  0  0  0  0  0999 V2000
  144.9640   73.8230  217.5220 N   0  0  0  0  0  0  0  0  0  0  0  0
  145.2740   72.8850  218.9400 S   0  0  0  0  0  0  0  0  0  0  0  0
  145.5740   71.4770  218.5460 O   0  0  0  0  0  0  0  0  0  0  0  0
  146.4430   73.4500  219.6860 O   0  0  0  0  0  0  0  0  0  0  0  0
  143.8510   72.9240  219.9390 C   0  0  0  0  0  0  0  0  0  0  0  0
  143.2460   74.1270  220.1750 C   0  0  0  0  0  0  0  0  0  0  0  0
  142.1060   74.1880  220.9710 C   0  0  0  0  0  0  0  0  0  0  0  0
  141.5320   73.0890  221.5520 C   0  0  0  0  0  0  0  0  0  0  0  0
  140.4520   73.0040  222.3290 O   0  0  0  0  0  0  0  0  0  0  0  0
  139.4010   72.1280  222.4540 C   0  0  0  0  0  0  0  0  0  0  0  0
  139.5050   71.2550  223.6510 C   0  0  0  0  0  0  0  0  0  0  0  0
  140.1380   71.8520  224.7170 N   0  0  0  0  0  0  0  0  0  0  0  0
  140.3520   71.2230  225.8740 C   0  0  0  0  0  0  0  0  0  0  0  0
  140.9950   71.8780  226.9090 C   0  0  0  0  0  0  0  0  0  0  0  0
  141.1900   71.1740  228.0860 C   0  0  0  0  0  0  0  0  0  0  0  0
  140.7610   69.8690  228.2230 C   0  0  0  0  0  0  0  0  0  0  0  0
  140.1220   69.2570  227.1570 C   0  0  0  0  0  0  0  0  0  0  0  0
  139.9080   69.9220  225.9670 C   0  0  0  0  0  0  0  0  0  0  0  0
  139.2710   69.3300  224.8910 C   0  0  0  0  0  0  0  0  0  0  0  0
  138.9040   68.1400  225.0680 O   0  0  0  0  0  0  0  0  0  0  0  0
  139.0580   69.9920  223.7150 N   0  0  0  0  0  0  0  0  0  0  0  0
  138.3560   69.2920  222.6940 C   0  0  0  0  0  0  0  0  0  0  0  0
  139.1580   68.4530  221.7520 C   0  0  0  0  0  0  0  0  0  0  0  0
  139.7040   69.2000  220.5770 C   0  0  0  0  0  0  0  0  0  0  0  0
  140.1780   68.2920  219.4630 C   0  0  0  0  0  0  0  0  0  0  0  0
  140.7370   67.0300  220.0870 C   0  0  0  0  0  0  0  0  0  0  0  0
  139.6440   66.2630  220.7570 C   0  0  0  0  0  0  0  0  0  0  0  0
  138.5550   67.1640  221.3210 C   0  0  0  0  0  0  0  0  0  0  0  0
  142.2020   71.8730  221.2710 C   0  0  0  0  0  0  0  0  0  0  0  0
  143.3110   71.8050  220.4990 C   0  0  0  0  0  0  0  0  0  0  0  0
  145.2000   74.8290  217.6510 H   0  0  0  0  0  0  0  0  0  0  0  0
  143.9870   73.7070  217.1750 H   0  0  0  0  0  0  0  0  0  0  0  0
  143.6602   75.0466  219.7359 H   0  0  0  0  0  0  0  0  0  0  0  0
  141.6418   75.1705  221.1423 H   0  0  0  0  0  0  0  0  0  0  0  0
  138.4691   72.7081  222.5245 H   0  0  0  0  0  0  0  0  0  0  0  0
  139.4148   71.4732  221.5702 H   0  0  0  0  0  0  0  0  0  0  0  0
  141.3381   72.9176  226.8015 H   0  0  0  0  0  0  0  0  0  0  0  0
  141.6974   71.6652  228.9293 H   0  0  0  0  0  0  0  0  0  0  0  0
  140.9241   69.3235  229.1642 H   0  0  0  0  0  0  0  0  0  0  0  0
  139.7775   68.2176  227.2615 H   0  0  0  0  0  0  0  0  0  0  0  0
  137.6306   68.6293  223.1886 H   0  0  0  0  0  0  0  0  0  0  0  0
  137.9209   70.0812  222.0633 H   0  0  0  0  0  0  0  0  0  0  0  0
  139.9995   68.1703  222.4015 H   0  0  0  0  0  0  0  0  0  0  0  0
  138.9143   69.8559  220.1817 H   0  0  0  0  0  0  0  0  0  0  0  0
  140.5765   69.7704  220.9282 H   0  0  0  0  0  0  0  0  0  0  0  0
  139.3343   68.0394  218.8039 H   0  0  0  0  0  0  0  0  0  0  0  0
  140.9521   68.7957  218.8655 H   0  0  0  0  0  0  0  0  0  0  0  0
  141.1916   66.4066  219.3030 H   0  0  0  0  0  0  0  0  0  0  0  0
  141.4966   67.3030  220.8343 H   0  0  0  0  0  0  0  0  0  0  0  0
  139.1911   65.5811  220.0223 H   0  0  0  0  0  0  0  0  0  0  0  0
  140.0909   65.7146  221.5993 H   0  0  0  0  0  0  0  0  0  0  0  0
  137.7972   67.3536  220.5465 H   0  0  0  0  0  0  0  0  0  0  0  0
  138.0801   66.6728  222.1831 H   0  0  0  0  0  0  0  0  0  0  0  0
  141.8026   70.9420  221.6998 H   0  0  0  0  0  0  0  0  0  0  0  0
  143.7854   70.8288  220.3201 H   0  0  0  0  0  0  0  0  0  0  0  0
  1  2  1  0
  2  3  2  0
  2  4  2  0
  2  5  1  0
  5  6  2  0
  6  7  1  0
  7  8  2  0
  8  9  1  0
  9 10  1  0
 10 11  1  0
 11 12  2  0
 12 13  1  0
 13 14  2  0
 14 15  1  0
 15 16  2  0
 16 17  1  0
 17 18  2  0
 18 19  1  0
 19 20  2  0
 19 21  1  0
 21 22  1  0
 22 23  1  0
 23 24  1  0
 24 25  1  0
 25 26  1  0
 26 27  1  0
 27 28  1  0
  8 29  1  0
 29 30  2  0
 30  5  1  0
 21 11  1  0
 28 23  1  0
 18 13  1  0
  1 31  1  0
  1 32  1  0
  6 33  1  0
  7 34  1  0
 10 35  1  0
 10 36  1  0
 14 37  1  0
 15 38  1  0
 16 39  1  0
 17 40  1  0
 22 41  1  0
 22 42  1  0
 23 43  1  0
 24 44  1  0
 24 45  1  0
 25 46  1  0
 25 47  1  0
 26 48  1  0
 26 49  1  0
 27 50  1  0
 27 51  1  0
 28 52  1  0
 28 53  1  0
 29 54  1  0
 30 55  1  0
M  END
>  <smiles>  (22) 
NS(=O)(=O)c1ccc(OCc2nc3ccccc3c(=O)n2CC2CCCCC2)cc1

>  <score_type>  (22) 
oracle

>  <origin>  (22) 
autodockgpu

>  <m_score__min__energy>  (22) 
-8.8800000000000008

>  <m_primary>  (22) 
energy

>  <rmsd>  (22) 
10.815759833759895

>  <m_score__min__rmsd>  (22) 
10.815759833759895

>  <meeko>  (22) 
{"free_energy": -8.78, "intermolecular_energy": -10.87, "internal_energy": -1.52, "cluster_size": 17, "cluster_id": 2, "rank_in_cluster": 2}

>  <energy>  (22) 
-8.45

>  <cluster_rmsd>  (22) 
0.46

>  <cluster>  (22) 
3

$$$$

     RDKit          3D

 55 58  0  0  0  0  0  0  0  0999 V2000
  145.4760   73.7360  218.0500 N   0  0  0  0  0  0  0  0  0  0  0  0
  145.6160   72.9710  219.5930 S   0  0  0  0  0  0  0  0  0  0  0  0
  146.0540   71.5560  219.4060 O   0  0  0  0  0  0  0  0  0  0  0  0
  146.6200   73.6920  220.4380 O   0  0  0  0  0  0  0  0  0  0  0  0
  144.0550   73.0040  220.3590 C   0  0  0  0  0  0  0  0  0  0  0  0
  143.4210   74.2060  220.5090 C   0  0  0  0  0  0  0  0  0  0  0  0
  142.1710   74.2640  221.1180 C   0  0  0  0  0  0  0  0  0  0  0  0
  141.5120   73.1610  221.5930 C   0  0  0  0  0  0  0  0  0  0  0  0
  140.3250   73.0710  222.1920 O   0  0  0  0  0  0  0  0  0  0  0  0
  139.3260   72.1310  222.2520 C   0  0  0  0  0  0  0  0  0  0  0  0
  139.3770   71.2980  223.4810 C   0  0  0  0  0  0  0  0  0  0  0  0
  140.1210   71.8570  224.4960 N   0  0  0  0  0  0  0  0  0  0  0  0
  140.3080   71.2530  225.6700 C   0  0  0  0  0  0  0  0  0  0  0  0
  141.0660   71.8670  226.6500 C   0  0  0  0  0  0  0  0  0  0  0  0
  141.2280   71.1910  227.8490 C   0  0  0  0  0  0  0  0  0  0  0  0
  140.6550   69.9530  228.0590 C   0  0  0  0  0  0  0  0  0  0  0  0
  139.9040   69.3800  227.0460 C   0  0  0  0  0  0  0  0  0  0  0  0
  139.7190   70.0190  225.8370 C   0  0  0  0  0  0  0  0  0  0  0  0
  138.9720   69.4650  224.8120 C   0  0  0  0  0  0  0  0  0  0  0  0
  138.4760   68.3350  225.0550 O   0  0  0  0  0  0  0  0  0  0  0  0
  138.7880   70.1010  223.6170 N   0  0  0  0  0  0  0  0  0  0  0  0
  137.9660   69.4500  222.6550 C   0  0  0  0  0  0  0  0  0  0  0  0
  138.6090   68.4300  221.7720 C   0  0  0  0  0  0  0  0  0  0  0  0
  138.6190   67.0460  222.3400 C   0  0  0  0  0  0  0  0  0  0  0  0
  139.5820   66.1190  221.6290 C   0  0  0  0  0  0  0  0  0  0  0  0
  139.6250   66.5110  220.1660 C   0  0  0  0  0  0  0  0  0  0  0  0
  140.2310   67.8680  220.0180 C   0  0  0  0  0  0  0  0  0  0  0  0
  139.9390   68.7750  221.2040 C   0  0  0  0  0  0  0  0  0  0  0  0
  142.2170   71.9450  221.4090 C   0  0  0  0  0  0  0  0  0  0  0  0
  143.4330   71.8810  220.8180 C   0  0  0  0  0  0  0  0  0  0  0  0
  146.4020   73.9980  217.6510 H   0  0  0  0  0  0  0  0  0  0  0  0
  144.8300   74.5550  218.0700 H   0  0  0  0  0  0  0  0  0  0  0  0
  143.8995   75.1283  220.1479 H   0  0  0  0  0  0  0  0  0  0  0  0
  141.6872   75.2463  221.2234 H   0  0  0  0  0  0  0  0  0  0  0  0
  138.3563   72.6494  222.2214 H   0  0  0  0  0  0  0  0  0  0  0  0
  139.4617   71.4556  221.3944 H   0  0  0  0  0  0  0  0  0  0  0  0
  141.5228   72.8539  226.4844 H   0  0  0  0  0  0  0  0  0  0  0  0
  141.8257   71.6507  228.6499 H   0  0  0  0  0  0  0  0  0  0  0  0
  140.7927   69.4293  229.0165 H   0  0  0  0  0  0  0  0  0  0  0  0
  139.4449   68.3937  227.2089 H   0  0  0  0  0  0  0  0  0  0  0  0
  137.1546   68.9473  223.2018 H   0  0  0  0  0  0  0  0  0  0  0  0
  137.6486   70.2510  221.9712 H   0  0  0  0  0  0  0  0  0  0  0  0
  137.9217   68.4454  220.9133 H   0  0  0  0  0  0  0  0  0  0  0  0
  138.9076   67.1046  223.3998 H   0  0  0  0  0  0  0  0  0  0  0  0
  137.6085   66.6311  222.2106 H   0  0  0  0  0  0  0  0  0  0  0  0
  140.5852   66.2153  222.0698 H   0  0  0  0  0  0  0  0  0  0  0  0
  139.2506   65.0753  221.7327 H   0  0  0  0  0  0  0  0  0  0  0  0
  140.2301   65.7794  219.6105 H   0  0  0  0  0  0  0  0  0  0  0  0
  138.6002   66.5279  219.7666 H   0  0  0  0  0  0  0  0  0  0  0  0
  141.3210   67.7576  219.9196 H   0  0  0  0  0  0  0  0  0  0  0  0
  139.7867   68.3344  219.1263 H   0  0  0  0  0  0  0  0  0  0  0  0
  140.7138   68.6358  221.9723 H   0  0  0  0  0  0  0  0  0  0  0  0
  139.9371   69.8241  220.8733 H   0  0  0  0  0  0  0  0  0  0  0  0
  141.7550   71.0114  221.7624 H   0  0  0  0  0  0  0  0  0  0  0  0
  143.9283   70.9052  220.7060 H   0  0  0  0  0  0  0  0  0  0  0  0
  1  2  1  0
  2  3  2  0
  2  4  2  0
  2  5  1  0
  5  6  2  0
  6  7  1  0
  7  8  2  0
  8  9  1  0
  9 10  1  0
 10 11  1  0
 11 12  2  0
 12 13  1  0
 13 14  2  0
 14 15  1  0
 15 16  2  0
 16 17  1  0
 17 18  2  0
 18 19  1  0
 19 20  2  0
 19 21  1  0
 21 22  1  0
 22 23  1  0
 23 24  1  0
 24 25  1  0
 25 26  1  0
 26 27  1  0
 27 28  1  0
  8 29  1  0
 29 30  2  0
 30  5  1  0
 21 11  1  0
 28 23  1  0
 18 13  1  0
  1 31  1  0
  1 32  1  0
  6 33  1  0
  7 34  1  0
 10 35  1  0
 10 36  1  0
 14 37  1  0
 15 38  1  0
 16 39  1  0
 17 40  1  0
 22 41  1  0
 22 42  1  0
 23 43  1  0
 24 44  1  0
 24 45  1  0
 25 46  1  0
 25 47  1  0
 26 48  1  0
 26 49  1  0
 27 50  1  0
 27 51  1  0
 28 52  1  0
 28 53  1  0
 29 54  1  0
 30 55  1  0
M  END
>  <smiles>  (23) 
NS(=O)(=O)c1ccc(OCc2nc3ccccc3c(=O)n2CC2CCCCC2)cc1

>  <score_type>  (23) 
oracle

>  <origin>  (23) 
autodockgpu

>  <m_score__min__energy>  (23) 
-8.8800000000000008

>  <m_primary>  (23) 
energy

>  <rmsd>  (23) 
11.437563638632342

>  <m_score__min__rmsd>  (23) 
11.437563638632342

>  <meeko>  (23) 
{"free_energy": -8.86, "intermolecular_energy": -10.95, "internal_energy": -1.55, "cluster_size": 17, "cluster_id": 2, "rank_in_cluster": 1}

>  <energy>  (23) 
-8.33

>  <cluster_rmsd>  (23) 
1.26

>  <cluster>  (23) 
3

$$$$

     RDKit          3D

 55 58  0  0  0  0  0  0  0  0999 V2000
  145.7950   73.7610  217.9840 N   0  0  0  0  0  0  0  0  0  0  0  0
  145.7200   73.1240  219.5890 S   0  0  0  0  0  0  0  0  0  0  0  0
  145.9430   71.6490  219.5470 O   0  0  0  0  0  0  0  0  0  0  0  0
  146.7720   73.7590  220.4450 O   0  0  0  0  0  0  0  0  0  0  0  0
  144.1400   73.4600  220.2330 C   0  0  0  0  0  0  0  0  0  0  0  0
  143.6950   74.7530  220.2430 C   0  0  0  0  0  0  0  0  0  0  0  0
  142.4350   75.0520  220.7520 C   0  0  0  0  0  0  0  0  0  0  0  0
  141.5840   74.1070  221.2610 C   0  0  0  0  0  0  0  0  0  0  0  0
  140.3640   74.2520  221.7770 O   0  0  0  0  0  0  0  0  0  0  0  0
  139.2260   74.9370  221.4260 C   0  0  0  0  0  0  0  0  0  0  0  0
  139.1740   76.3130  221.9840 C   0  0  0  0  0  0  0  0  0  0  0  0
  140.4140   76.8880  222.1490 N   0  0  0  0  0  0  0  0  0  0  0  0
  140.5800   78.1090  222.6600 C   0  0  0  0  0  0  0  0  0  0  0  0
  141.8520   78.6330  222.8000 C   0  0  0  0  0  0  0  0  0  0  0  0
  141.9640   79.9040  223.3380 C   0  0  0  0  0  0  0  0  0  0  0  0
  140.8490   80.6230  223.7200 C   0  0  0  0  0  0  0  0  0  0  0  0
  139.5960   80.0550  223.5600 C   0  0  0  0  0  0  0  0  0  0  0  0
  139.4420   78.7910  223.0280 C   0  0  0  0  0  0  0  0  0  0  0  0
  138.1990   78.2050  222.8580 C   0  0  0  0  0  0  0  0  0  0  0  0
  137.2180   78.9010  223.2260 O   0  0  0  0  0  0  0  0  0  0  0  0
  138.0490   76.9550  222.3290 N   0  0  0  0  0  0  0  0  0  0  0  0
  136.7190   76.4750  222.1650 C   0  0  0  0  0  0  0  0  0  0  0  0
  135.9730   76.0680  223.3950 C   0  0  0  0  0  0  0  0  0  0  0  0
  135.8260   74.5890  223.5630 C   0  0  0  0  0  0  0  0  0  0  0  0
  134.7710   74.2080  224.5800 C   0  0  0  0  0  0  0  0  0  0  0  0
  134.7620   75.2600  225.6700 C   0  0  0  0  0  0  0  0  0  0  0  0
  134.2940   76.5660  225.1150 C   0  0  0  0  0  0  0  0  0  0  0  0
  134.6810   76.7570  223.6560 C   0  0  0  0  0  0  0  0  0  0  0  0
  142.0990   72.7880  221.2240 C   0  0  0  0  0  0  0  0  0  0  0  0
  143.3230   72.4890  220.7310 C   0  0  0  0  0  0  0  0  0  0  0  0
  146.7470   74.1040  217.7370 H   0  0  0  0  0  0  0  0  0  0  0  0
  145.0750   74.4950  217.8140 H   0  0  0  0  0  0  0  0  0  0  0  0
  144.3335   75.5572  219.8484 H   0  0  0  0  0  0  0  0  0  0  0  0
  142.1053   76.1014  220.7453 H   0  0  0  0  0  0  0  0  0  0  0  0
  139.1824   75.0030  220.3288 H   0  0  0  0  0  0  0  0  0  0  0  0
  138.3709   74.3838  221.8416 H   0  0  0  0  0  0  0  0  0  0  0  0
  142.7413   78.0617  222.4955 H   0  0  0  0  0  0  0  0  0  0  0  0
  142.9617   80.3499  223.4636 H   0  0  0  0  0  0  0  0  0  0  0  0
  140.9542   81.6320  224.1451 H   0  0  0  0  0  0  0  0  0  0  0  0
  138.7045   80.6235  223.8634 H   0  0  0  0  0  0  0  0  0  0  0  0
  136.1392   77.2725  221.6773 H   0  0  0  0  0  0  0  0  0  0  0  0
  136.8267   75.5472  221.5840 H   0  0  0  0  0  0  0  0  0  0  0  0
  136.6552   76.4373  224.1749 H   0  0  0  0  0  0  0  0  0  0  0  0
  135.5499   74.1522  222.5919 H   0  0  0  0  0  0  0  0  0  0  0  0
  136.7888   74.2035  223.9296 H   0  0  0  0  0  0  0  0  0  0  0  0
  133.7845   74.1658  224.0951 H   0  0  0  0  0  0  0  0  0  0  0  0
  134.9952   73.2197  225.0078 H   0  0  0  0  0  0  0  0  0  0  0  0
  134.0846   74.9431  226.4767 H   0  0  0  0  0  0  0  0  0  0  0  0
  135.7816   75.3798  226.0650 H   0  0  0  0  0  0  0  0  0  0  0  0
  133.1980   76.6106  225.1970 H   0  0  0  0  0  0  0  0  0  0  0  0
  134.7784   77.3657  225.6945 H   0  0  0  0  0  0  0  0  0  0  0  0
  133.8999   76.3299  223.0099 H   0  0  0  0  0  0  0  0  0  0  0  0
  134.7862   77.8306  223.4406 H   0  0  0  0  0  0  0  0  0  0  0  0
  141.4756   71.9698  221.6137 H   0  0  0  0  0  0  0  0  0  0  0  0
  143.6650   71.4435  220.7321 H   0  0  0  0  0  0  0  0  0  0  0  0
  1  2  1  0
  2  3  2  0
  2  4  2  0
  2  5  1  0
  5  6  2  0
  6  7  1  0
  7  8  2  0
  8  9  1  0
  9 10  1  0
 10 11  1  0
 11 12  2  0
 12 13  1  0
 13 14  2  0
 14 15  1  0
 15 16  2  0
 16 17  1  0
 17 18  2  0
 18 19  1  0
 19 20  2  0
 19 21  1  0
 21 22  1  0
 22 23  1  0
 23 24  1  0
 24 25  1  0
 25 26  1  0
 26 27  1  0
 27 28  1  0
  8 29  1  0
 29 30  2  0
 30  5  1  0
 21 11  1  0
 28 23  1  0
 18 13  1  0
  1 31  1  0
  1 32  1  0
  6 33  1  0
  7 34  1  0
 10 35  1  0
 10 36  1  0
 14 37  1  0
 15 38  1  0
 16 39  1  0
 17 40  1  0
 22 41  1  0
 22 42  1  0
 23 43  1  0
 24 44  1  0
 24 45  1  0
 25 46  1  0
 25 47  1  0
 26 48  1  0
 26 49  1  0
 27 50  1  0
 27 51  1  0
 28 52  1  0
 28 53  1  0
 29 54  1  0
 30 55  1  0
M  END
>  <smiles>  (24) 
NS(=O)(=O)c1ccc(OCc2nc3ccccc3c(=O)n2CC2CCCCC2)cc1

>  <score_type>  (24) 
oracle

>  <origin>  (24) 
autodockgpu

>  <m_score__min__energy>  (24) 
-8.8800000000000008

>  <m_primary>  (24) 
energy

>  <rmsd>  (24) 
6.3980085408887675

>  <m_score__min__rmsd>  (24) 
6.3980085408887675

>  <meeko>  (24) 
{"free_energy": -8.47, "intermolecular_energy": -10.56, "internal_energy": -1.26, "cluster_size": 4, "cluster_id": 4, "rank_in_cluster": 1}

>  <energy>  (24) 
-8.15

>  <cluster_rmsd>  (24) 
1.3

>  <cluster>  (24) 
3

$$$$

     RDKit          3D

 55 58  0  0  0  0  0  0  0  0999 V2000
  145.9540   73.2630  217.7750 N   0  0  0  0  0  0  0  0  0  0  0  0
  145.9290   72.9520  219.4750 S   0  0  0  0  0  0  0  0  0  0  0  0
  146.1800   71.5010  219.7160 O   0  0  0  0  0  0  0  0  0  0  0  0
  146.9880   73.7580  220.1620 O   0  0  0  0  0  0  0  0  0  0  0  0
  144.3580   73.3840  220.0840 C   0  0  0  0  0  0  0  0  0  0  0  0
  144.0580   74.7080  220.2480 C   0  0  0  0  0  0  0  0  0  0  0  0
  142.8090   75.0830  220.7330 C   0  0  0  0  0  0  0  0  0  0  0  0
  141.8290   74.1860  221.0680 C   0  0  0  0  0  0  0  0  0  0  0  0
  140.6020   74.4040  221.5400 O   0  0  0  0  0  0  0  0  0  0  0  0
  139.7340   75.4680  221.5600 C   0  0  0  0  0  0  0  0  0  0  0  0
  140.4170   76.7850  221.4810 C   0  0  0  0  0  0  0  0  0  0  0  0
  140.7550   77.3050  222.7100 N   0  0  0  0  0  0  0  0  0  0  0  0
  141.3530   78.4890  222.8530 C   0  0  0  0  0  0  0  0  0  0  0  0
  141.6670   78.9580  224.1150 C   0  0  0  0  0  0  0  0  0  0  0  0
  142.2860   80.1940  224.2010 C   0  0  0  0  0  0  0  0  0  0  0  0
  142.5780   80.9320  223.0720 C   0  0  0  0  0  0  0  0  0  0  0  0
  142.2430   80.4190  221.8290 C   0  0  0  0  0  0  0  0  0  0  0  0
  141.6260   79.1920  221.7000 C   0  0  0  0  0  0  0  0  0  0  0  0
  141.2840   78.6610  220.4680 C   0  0  0  0  0  0  0  0  0  0  0  0
  141.5690   79.3750  219.4730 O   0  0  0  0  0  0  0  0  0  0  0  0
  140.6750   77.4440  220.3420 N   0  0  0  0  0  0  0  0  0  0  0  0
  140.4090   76.9850  219.0220 C   0  0  0  0  0  0  0  0  0  0  0  0
  141.5440   76.3880  218.2540 C   0  0  0  0  0  0  0  0  0  0  0  0
  142.3970   77.3890  217.5410 C   0  0  0  0  0  0  0  0  0  0  0  0
  143.2880   76.7680  216.4880 C   0  0  0  0  0  0  0  0  0  0  0  0
  143.6980   75.3900  216.9670 C   0  0  0  0  0  0  0  0  0  0  0  0
  142.5040   74.4930  217.0250 C   0  0  0  0  0  0  0  0  0  0  0  0
  141.2230   75.2410  217.3630 C   0  0  0  0  0  0  0  0  0  0  0  0
  142.1980   72.8320  220.8770 C   0  0  0  0  0  0  0  0  0  0  0  0
  143.4110   72.4590  220.4050 C   0  0  0  0  0  0  0  0  0  0  0  0
  146.3550   72.4710  217.2320 H   0  0  0  0  0  0  0  0  0  0  0  0
  146.4340   74.1600  217.5430 H   0  0  0  0  0  0  0  0  0  0  0  0
  144.8039   75.4764  219.9966 H   0  0  0  0  0  0  0  0  0  0  0  0
  142.5973   76.1557  220.8538 H   0  0  0  0  0  0  0  0  0  0  0  0
  139.0505   75.3772  220.7029 H   0  0  0  0  0  0  0  0  0  0  0  0
  139.2001   75.4350  222.5212 H   0  0  0  0  0  0  0  0  0  0  0  0
  141.4342   78.3720  225.0163 H   0  0  0  0  0  0  0  0  0  0  0  0
  142.5505   80.5960  225.1902 H   0  0  0  0  0  0  0  0  0  0  0  0
  143.0692   81.9125  223.1575 H   0  0  0  0  0  0  0  0  0  0  0  0
  142.4741   81.0028  220.9258 H   0  0  0  0  0  0  0  0  0  0  0  0
  139.6212   76.2205  219.0921 H   0  0  0  0  0  0  0  0  0  0  0  0
  140.1387   77.8916  218.4607 H   0  0  0  0  0  0  0  0  0  0  0  0
  142.1350   75.9540  219.0740 H   0  0  0  0  0  0  0  0  0  0  0  0
  141.7401   78.1247  217.0540 H   0  0  0  0  0  0  0  0  0  0  0  0
  143.0525   77.8546  218.2917 H   0  0  0  0  0  0  0  0  0  0  0  0
  142.7393   76.6841  215.5383 H   0  0  0  0  0  0  0  0  0  0  0  0
  144.1778   77.3941  216.3260 H   0  0  0  0  0  0  0  0  0  0  0  0
  144.4376   74.9675  216.2710 H   0  0  0  0  0  0  0  0  0  0  0  0
  144.1367   75.4728  217.9723 H   0  0  0  0  0  0  0  0  0  0  0  0
  142.3803   74.0082  216.0454 H   0  0  0  0  0  0  0  0  0  0  0  0
  142.6797   73.7575  217.8239 H   0  0  0  0  0  0  0  0  0  0  0  0
  140.7597   75.6132  216.4374 H   0  0  0  0  0  0  0  0  0  0  0  0
  140.5238   74.5624  217.8734 H   0  0  0  0  0  0  0  0  0  0  0  0
  141.4664   72.0483  221.1231 H   0  0  0  0  0  0  0  0  0  0  0  0
  143.6358   71.3897  220.2785 H   0  0  0  0  0  0  0  0  0  0  0  0
  1  2  1  0
  2  3  2  0
  2  4  2  0
  2  5  1  0
  5  6  2  0
  6  7  1  0
  7  8  2  0
  8  9  1  0
  9 10  1  0
 10 11  1  0
 11 12  2  0
 12 13  1  0
 13 14  2  0
 14 15  1  0
 15 16  2  0
 16 17  1  0
 17 18  2  0
 18 19  1  0
 19 20  2  0
 19 21  1  0
 21 22  1  0
 22 23  1  0
 23 24  1  0
 24 25  1  0
 25 26  1  0
 26 27  1  0
 27 28  1  0
  8 29  1  0
 29 30  2  0
 30  5  1  0
 21 11  1  0
 28 23  1  0
 18 13  1  0
  1 31  1  0
  1 32  1  0
  6 33  1  0
  7 34  1  0
 10 35  1  0
 10 36  1  0
 14 37  1  0
 15 38  1  0
 16 39  1  0
 17 40  1  0
 22 41  1  0
 22 42  1  0
 23 43  1  0
 24 44  1  0
 24 45  1  0
 25 46  1  0
 25 47  1  0
 26 48  1  0
 26 49  1  0
 27 50  1  0
 27 51  1  0
 28 52  1  0
 28 53  1  0
 29 54  1  0
 30 55  1  0
M  END
>  <smiles>  (25) 
NS(=O)(=O)c1ccc(OCc2nc3ccccc3c(=O)n2CC2CCCCC2)cc1

>  <score_type>  (25) 
oracle

>  <origin>  (25) 
autodockgpu

>  <m_score__min__energy>  (25) 
-8.8800000000000008

>  <m_primary>  (25) 
energy

>  <rmsd>  (25) 
3.6319743493378627

>  <m_score__min__rmsd>  (25) 
3.6319743493378627

>  <meeko>  (25) 
{"free_energy": -7.41, "intermolecular_energy": -9.5, "internal_energy": -2.25, "cluster_size": 16, "cluster_id": 6, "rank_in_cluster": 15}

>  <energy>  (25) 
-8.47

>  <cluster_rmsd>  (25) 
0.0

>  <cluster>  (25) 
4

$$$$

     RDKit          3D

 55 58  0  0  0  0  0  0  0  0999 V2000
  146.2610   71.2470  219.7470 N   0  0  0  0  0  0  0  0  0  0  0  0
  145.9400   72.9070  219.3870 S   0  0  0  0  0  0  0  0  0  0  0  0
  147.0060   73.7600  219.9900 O   0  0  0  0  0  0  0  0  0  0  0  0
  145.9180   73.1190  217.9050 O   0  0  0  0  0  0  0  0  0  0  0  0
  144.3980   73.3240  220.0750 C   0  0  0  0  0  0  0  0  0  0  0  0
  143.5390   72.3190  220.4200 C   0  0  0  0  0  0  0  0  0  0  0  0
  142.2980   72.6220  220.9730 C   0  0  0  0  0  0  0  0  0  0  0  0
  141.8670   73.9020  221.2010 C   0  0  0  0  0  0  0  0  0  0  0  0
  140.7160   74.3320  221.7170 O   0  0  0  0  0  0  0  0  0  0  0  0
  139.8530   75.3700  221.4590 C   0  0  0  0  0  0  0  0  0  0  0  0
  140.5260   76.6930  221.4070 C   0  0  0  0  0  0  0  0  0  0  0  0
  140.8410   77.2000  222.6470 N   0  0  0  0  0  0  0  0  0  0  0  0
  141.4270   78.3880  222.8130 C   0  0  0  0  0  0  0  0  0  0  0  0
  141.7180   78.8420  224.0860 C   0  0  0  0  0  0  0  0  0  0  0  0
  142.3250   80.0830  224.1970 C   0  0  0  0  0  0  0  0  0  0  0  0
  142.6260   80.8380  223.0810 C   0  0  0  0  0  0  0  0  0  0  0  0
  142.3130   80.3390  221.8280 C   0  0  0  0  0  0  0  0  0  0  0  0
  141.7100   79.1080  221.6730 C   0  0  0  0  0  0  0  0  0  0  0  0
  141.3900   78.5890  220.4300 C   0  0  0  0  0  0  0  0  0  0  0  0
  141.6830   79.3190  219.4490 O   0  0  0  0  0  0  0  0  0  0  0  0
  140.7940   77.3690  220.2800 N   0  0  0  0  0  0  0  0  0  0  0  0
  140.5510   76.9250  218.9500 C   0  0  0  0  0  0  0  0  0  0  0  0
  141.6940   76.3140  218.2040 C   0  0  0  0  0  0  0  0  0  0  0  0
  142.5510   77.3030  217.4780 C   0  0  0  0  0  0  0  0  0  0  0  0
  143.4520   76.6620  216.4450 C   0  0  0  0  0  0  0  0  0  0  0  0
  143.8590   75.2950  216.9550 C   0  0  0  0  0  0  0  0  0  0  0  0
  142.6670   74.3970  217.0210 C   0  0  0  0  0  0  0  0  0  0  0  0
  141.3820   75.1500  217.3340 C   0  0  0  0  0  0  0  0  0  0  0  0
  142.7990   74.8990  220.8240 C   0  0  0  0  0  0  0  0  0  0  0  0
  144.0070   74.6130  220.2860 C   0  0  0  0  0  0  0  0  0  0  0  0
  145.4000   70.7250  220.0100 H   0  0  0  0  0  0  0  0  0  0  0  0
  147.0050   71.1350  220.4690 H   0  0  0  0  0  0  0  0  0  0  0  0
  143.8283   71.2698  220.2606 H   0  0  0  0  0  0  0  0  0  0  0  0
  141.6291   71.7908  221.2407 H   0  0  0  0  0  0  0  0  0  0  0  0
  139.3666   75.1871  220.4895 H   0  0  0  0  0  0  0  0  0  0  0  0
  139.1282   75.4049  222.2857 H   0  0  0  0  0  0  0  0  0  0  0  0
  141.4772   78.2418  224.9758 H   0  0  0  0  0  0  0  0  0  0  0  0
  142.5720   80.4745  225.1949 H   0  0  0  0  0  0  0  0  0  0  0  0
  143.1074   81.8215  223.1858 H   0  0  0  0  0  0  0  0  0  0  0  0
  142.5505   80.9375  220.9362 H   0  0  0  0  0  0  0  0  0  0  0  0
  139.7486   76.1739  218.9953 H   0  0  0  0  0  0  0  0  0  0  0  0
  140.3095   77.8404  218.3898 H   0  0  0  0  0  0  0  0  0  0  0  0
  142.2791   75.8969  219.0368 H   0  0  0  0  0  0  0  0  0  0  0  0
  141.8968   78.0273  216.9707 H   0  0  0  0  0  0  0  0  0  0  0  0
  143.1991   77.7857  218.2243 H   0  0  0  0  0  0  0  0  0  0  0  0
  142.9116   76.5584  215.4925 H   0  0  0  0  0  0  0  0  0  0  0  0
  144.3425   77.2858  216.2780 H   0  0  0  0  0  0  0  0  0  0  0  0
  144.6053   74.8598  216.2741 H   0  0  0  0  0  0  0  0  0  0  0  0
  144.2880   75.3992  217.9625 H   0  0  0  0  0  0  0  0  0  0  0  0
  142.5520   73.8927  216.0502 H   0  0  0  0  0  0  0  0  0  0  0  0
  142.8375   73.6772  217.8352 H   0  0  0  0  0  0  0  0  0  0  0  0
  140.9257   75.5031  216.3975 H   0  0  0  0  0  0  0  0  0  0  0  0
  140.6796   74.4806  217.8522 H   0  0  0  0  0  0  0  0  0  0  0  0
  142.5285   75.9544  220.9755 H   0  0  0  0  0  0  0  0  0  0  0  0
  144.6856   75.4349  220.0140 H   0  0  0  0  0  0  0  0  0  0  0  0
  1  2  1  0
  2  3  2  0
  2  4  2  0
  2  5  1  0
  5  6  2  0
  6  7  1  0
  7  8  2  0
  8  9  1  0
  9 10  1  0
 10 11  1  0
 11 12  2  0
 12 13  1  0
 13 14  2  0
 14 15  1  0
 15 16  2  0
 16 17  1  0
 17 18  2  0
 18 19  1  0
 19 20  2  0
 19 21  1  0
 21 22  1  0
 22 23  1  0
 23 24  1  0
 24 25  1  0
 25 26  1  0
 26 27  1  0
 27 28  1  0
  8 29  1  0
 29 30  2  0
 30  5  1  0
 21 11  1  0
 28 23  1  0
 18 13  1  0
  1 31  1  0
  1 32  1  0
  6 33  1  0
  7 34  1  0
 10 35  1  0
 10 36  1  0
 14 37  1  0
 15 38  1  0
 16 39  1  0
 17 40  1  0
 22 41  1  0
 22 42  1  0
 23 43  1  0
 24 44  1  0
 24 45  1  0
 25 46  1  0
 25 47  1  0
 26 48  1  0
 26 49  1  0
 27 50  1  0
 27 51  1  0
 28 52  1  0
 28 53  1  0
 29 54  1  0
 30 55  1  0
M  END
>  <smiles>  (26) 
NS(=O)(=O)c1ccc(OCc2nc3ccccc3c(=O)n2CC2CCCCC2)cc1

>  <score_type>  (26) 
oracle

>  <origin>  (26) 
autodockgpu

>  <m_score__min__energy>  (26) 
-8.8800000000000008

>  <m_primary>  (26) 
energy

>  <rmsd>  (26) 
3.7278155519696763

>  <m_score__min__rmsd>  (26) 
3.7278155519696763

>  <meeko>  (26) 
{"free_energy": -7.7, "intermolecular_energy": -9.79, "internal_energy": -2.25, "cluster_size": 16, "cluster_id": 6, "rank_in_cluster": 4}

>  <energy>  (26) 
-8.44

>  <cluster_rmsd>  (26) 
0.37

>  <cluster>  (26) 
4

$$$$

     RDKit          3D

 55 58  0  0  0  0  0  0  0  0999 V2000
  145.9890   73.4410  218.2840 N   0  0  0  0  0  0  0  0  0  0  0  0
  145.9340   72.6320  219.8100 S   0  0  0  0  0  0  0  0  0  0  0  0
  146.5520   71.2800  219.6770 O   0  0  0  0  0  0  0  0  0  0  0  0
  146.6860   73.4200  220.8380 O   0  0  0  0  0  0  0  0  0  0  0  0
  144.2680   72.4700  220.2810 C   0  0  0  0  0  0  0  0  0  0  0  0
  143.5260   73.6020  220.4740 C   0  0  0  0  0  0  0  0  0  0  0  0
  142.1900   73.5040  220.8510 C   0  0  0  0  0  0  0  0  0  0  0  0
  141.5480   72.3100  221.0470 C   0  0  0  0  0  0  0  0  0  0  0  0
  140.2870   72.0710  221.4050 O   0  0  0  0  0  0  0  0  0  0  0  0
  139.5020   72.3770  222.4900 C   0  0  0  0  0  0  0  0  0  0  0  0
  139.5660   71.3570  223.5670 C   0  0  0  0  0  0  0  0  0  0  0  0
  140.1720   71.8060  224.7180 N   0  0  0  0  0  0  0  0  0  0  0  0
  140.3490   71.0330  225.7910 C   0  0  0  0  0  0  0  0  0  0  0  0
  140.9650   71.5440  226.9180 C   0  0  0  0  0  0  0  0  0  0  0  0
  141.1220   70.6950  228.0000 C   0  0  0  0  0  0  0  0  0  0  0  0
  140.6820   69.3870  227.9570 C   0  0  0  0  0  0  0  0  0  0  0  0
  140.0700   68.9220  226.8050 C   0  0  0  0  0  0  0  0  0  0  0  0
  139.8940   69.7360  225.7050 C   0  0  0  0  0  0  0  0  0  0  0  0
  139.2840   69.2920  224.5440 C   0  0  0  0  0  0  0  0  0  0  0  0
  138.9050   68.0930  224.5570 O   0  0  0  0  0  0  0  0  0  0  0  0
  139.1090   70.1000  223.4570 N   0  0  0  0  0  0  0  0  0  0  0  0
  138.4320   69.5440  222.3360 C   0  0  0  0  0  0  0  0  0  0  0  0
  139.1680   68.5350  221.5130 C   0  0  0  0  0  0  0  0  0  0  0  0
  139.5990   69.0350  220.1710 C   0  0  0  0  0  0  0  0  0  0  0  0
  139.9950   67.9250  219.2220 C   0  0  0  0  0  0  0  0  0  0  0  0
  140.6280   66.8120  220.0340 C   0  0  0  0  0  0  0  0  0  0  0  0
  139.6100   66.1920  220.9330 C   0  0  0  0  0  0  0  0  0  0  0  0
  138.5550   67.1850  221.4000 C   0  0  0  0  0  0  0  0  0  0  0  0
  142.3660   71.1730  220.8310 C   0  0  0  0  0  0  0  0  0  0  0  0
  143.6660   71.2610  220.4650 C   0  0  0  0  0  0  0  0  0  0  0  0
  146.9200   73.8630  218.0910 H   0  0  0  0  0  0  0  0  0  0  0  0
  145.2270   74.1460  218.1810 H   0  0  0  0  0  0  0  0  0  0  0  0
  143.9855   74.5912  220.3311 H   0  0  0  0  0  0  0  0  0  0  0  0
  141.6202   74.4332  220.9992 H   0  0  0  0  0  0  0  0  0  0  0  0
  139.8356   73.3409  222.9017 H   0  0  0  0  0  0  0  0  0  0  0  0
  138.4604   72.4149  222.1384 H   0  0  0  0  0  0  0  0  0  0  0  0
  141.3170   72.5855  226.9537 H   0  0  0  0  0  0  0  0  0  0  0  0
  141.6074   71.0702  228.9130 H   0  0  0  0  0  0  0  0  0  0  0  0
  140.8156   68.7242  228.8247 H   0  0  0  0  0  0  0  0  0  0  0  0
  139.7166   67.8811  226.7661 H   0  0  0  0  0  0  0  0  0  0  0  0
  137.5181   69.0597  222.7105 H   0  0  0  0  0  0  0  0  0  0  0  0
  138.2710   70.3943  221.6570 H   0  0  0  0  0  0  0  0  0  0  0  0
  140.0666   68.3877  222.1300 H   0  0  0  0  0  0  0  0  0  0  0  0
  138.7665   69.5977  219.7234 H   0  0  0  0  0  0  0  0  0  0  0  0
  140.4868   69.6657  220.3261 H   0  0  0  0  0  0  0  0  0  0  0  0
  139.1041   67.5453  218.7005 H   0  0  0  0  0  0  0  0  0  0  0  0
  140.7069   68.3013  218.4726 H   0  0  0  0  0  0  0  0  0  0  0  0
  141.0270   66.0460  219.3528 H   0  0  0  0  0  0  0  0  0  0  0  0
  141.4422   67.2293  220.6448 H   0  0  0  0  0  0  0  0  0  0  0  0
  139.1098   65.3772  220.3889 H   0  0  0  0  0  0  0  0  0  0  0  0
  140.1363   65.8227  221.8255 H   0  0  0  0  0  0  0  0  0  0  0  0
  137.7308   67.2152  220.6721 H   0  0  0  0  0  0  0  0  0  0  0  0
  138.1640   66.8742  222.3800 H   0  0  0  0  0  0  0  0  0  0  0  0
  141.9247   70.1746  220.9668 H   0  0  0  0  0  0  0  0  0  0  0  0
  144.2476   70.3397  220.3132 H   0  0  0  0  0  0  0  0  0  0  0  0
  1  2  1  0
  2  3  2  0
  2  4  2  0
  2  5  1  0
  5  6  2  0
  6  7  1  0
  7  8  2  0
  8  9  1  0
  9 10  1  0
 10 11  1  0
 11 12  2  0
 12 13  1  0
 13 14  2  0
 14 15  1  0
 15 16  2  0
 16 17  1  0
 17 18  2  0
 18 19  1  0
 19 20  2  0
 19 21  1  0
 21 22  1  0
 22 23  1  0
 23 24  1  0
 24 25  1  0
 25 26  1  0
 26 27  1  0
 27 28  1  0
  8 29  1  0
 29 30  2  0
 30  5  1  0
 21 11  1  0
 28 23  1  0
 18 13  1  0
  1 31  1  0
  1 32  1  0
  6 33  1  0
  7 34  1  0
 10 35  1  0
 10 36  1  0
 14 37  1  0
 15 38  1  0
 16 39  1  0
 17 40  1  0
 22 41  1  0
 22 42  1  0
 23 43  1  0
 24 44  1  0
 24 45  1  0
 25 46  1  0
 25 47  1  0
 26 48  1  0
 26 49  1  0
 27 50  1  0
 27 51  1  0
 28 52  1  0
 28 53  1  0
 29 54  1  0
 30 55  1  0
M  END
>  <smiles>  (27) 
NS(=O)(=O)c1ccc(OCc2nc3ccccc3c(=O)n2CC2CCCCC2)cc1

>  <score_type>  (27) 
oracle

>  <origin>  (27) 
autodockgpu

>  <m_score__min__energy>  (27) 
-8.8800000000000008

>  <m_primary>  (27) 
energy

>  <rmsd>  (27) 
10.941794175800293

>  <m_score__min__rmsd>  (27) 
10.941794175800293

>  <meeko>  (27) 
{"free_energy": -8.54, "intermolecular_energy": -10.62, "internal_energy": -1.66, "cluster_size": 17, "cluster_id": 2, "rank_in_cluster": 7}

>  <energy>  (27) 
-8.39

>  <cluster_rmsd>  (27) 
0.79

>  <cluster>  (27) 
4

$$$$

     RDKit          3D

 55 58  0  0  0  0  0  0  0  0999 V2000
  144.9370   74.1320  217.9530 N   0  0  0  0  0  0  0  0  0  0  0  0
  145.2000   73.1760  219.3690 S   0  0  0  0  0  0  0  0  0  0  0  0
  145.6690   71.8170  218.9690 O   0  0  0  0  0  0  0  0  0  0  0  0
  146.2340   73.8190  220.2400 O   0  0  0  0  0  0  0  0  0  0  0  0
  143.6920   73.0470  220.2260 C   0  0  0  0  0  0  0  0  0  0  0  0
  143.2330   71.8040  220.5650 C   0  0  0  0  0  0  0  0  0  0  0  0
  142.0300   71.6690  221.2500 C   0  0  0  0  0  0  0  0  0  0  0  0
  141.2500   72.7320  221.6200 C   0  0  0  0  0  0  0  0  0  0  0  0
  140.0870   72.7490  222.2710 O   0  0  0  0  0  0  0  0  0  0  0  0
  139.1000   71.8310  222.5380 C   0  0  0  0  0  0  0  0  0  0  0  0
  139.3710   71.0130  223.7480 C   0  0  0  0  0  0  0  0  0  0  0  0
  139.9990   71.7090  224.7550 N   0  0  0  0  0  0  0  0  0  0  0  0
  140.3500   71.1450  225.9120 C   0  0  0  0  0  0  0  0  0  0  0  0
  140.9790   71.8980  226.8860 C   0  0  0  0  0  0  0  0  0  0  0  0
  141.3210   71.2590  228.0660 C   0  0  0  0  0  0  0  0  0  0  0  0
  141.0460   69.9210  228.2650 C   0  0  0  0  0  0  0  0  0  0  0  0
  140.4130   69.2090  227.2580 C   0  0  0  0  0  0  0  0  0  0  0  0
  140.0560   69.8080  226.0680 C   0  0  0  0  0  0  0  0  0  0  0  0
  139.4230   69.1160  225.0500 C   0  0  0  0  0  0  0  0  0  0  0  0
  139.1990   67.9010  225.2820 O   0  0  0  0  0  0  0  0  0  0  0  0
  139.0680   69.7120  223.8740 N   0  0  0  0  0  0  0  0  0  0  0  0
  138.3850   68.9090  222.9180 C   0  0  0  0  0  0  0  0  0  0  0  0
  136.8910   68.9410  222.9270 C   0  0  0  0  0  0  0  0  0  0  0  0
  136.2920   69.2850  224.2550 C   0  0  0  0  0  0  0  0  0  0  0  0
  134.8190   68.9510  224.3460 C   0  0  0  0  0  0  0  0  0  0  0  0
  134.2000   69.1590  222.9790 C   0  0  0  0  0  0  0  0  0  0  0  0
  134.7510   68.1640  222.0110 C   0  0  0  0  0  0  0  0  0  0  0  0
  136.1900   67.7780  222.3200 C   0  0  0  0  0  0  0  0  0  0  0  0
  141.7760   73.9920  221.2430 C   0  0  0  0  0  0  0  0  0  0  0  0
  142.9460   74.1310  220.5760 C   0  0  0  0  0  0  0  0  0  0  0  0
  145.8150   74.3000  217.4190 H   0  0  0  0  0  0  0  0  0  0  0  0
  144.4470   75.0280  218.1650 H   0  0  0  0  0  0  0  0  0  0  0  0
  143.8155   70.9106  220.2958 H   0  0  0  0  0  0  0  0  0  0  0  0
  141.6875   70.6560  221.5078 H   0  0  0  0  0  0  0  0  0  0  0  0
  138.1525   72.3699  222.6857 H   0  0  0  0  0  0  0  0  0  0  0  0
  139.0554   71.1419  221.6818 H   0  0  0  0  0  0  0  0  0  0  0  0
  141.1994   72.9643  226.7296 H   0  0  0  0  0  0  0  0  0  0  0  0
  141.8224   71.8297  228.8615 H   0  0  0  0  0  0  0  0  0  0  0  0
  141.3248   69.4275  229.2078 H   0  0  0  0  0  0  0  0  0  0  0  0
  140.1905   68.1427  227.4114 H   0  0  0  0  0  0  0  0  0  0  0  0
  138.7149   69.2336  221.9201 H   0  0  0  0  0  0  0  0  0  0  0  0
  138.6433   67.8743  223.1875 H   0  0  0  0  0  0  0  0  0  0  0  0
  136.7039   69.7772  222.2373 H   0  0  0  0  0  0  0  0  0  0  0  0
  136.8269   68.7248  225.0360 H   0  0  0  0  0  0  0  0  0  0  0  0
  136.3906   70.3725  224.3876 H   0  0  0  0  0  0  0  0  0  0  0  0
  134.6935   67.9030  224.6558 H   0  0  0  0  0  0  0  0  0  0  0  0
  134.3281   69.5986  225.0874 H   0  0  0  0  0  0  0  0  0  0  0  0
  133.1096   69.0326  223.0500 H   0  0  0  0  0  0  0  0  0  0  0  0
  134.4362   70.1739  222.6267 H   0  0  0  0  0  0  0  0  0  0  0  0
  134.1285   67.2577  222.0454 H   0  0  0  0  0  0  0  0  0  0  0  0
  134.7387   68.6287  221.0141 H   0  0  0  0  0  0  0  0  0  0  0  0
  136.2007   66.9336  223.0249 H   0  0  0  0  0  0  0  0  0  0  0  0
  136.7004   67.4837  221.3911 H   0  0  0  0  0  0  0  0  0  0  0  0
  141.2088   74.8977  221.5037 H   0  0  0  0  0  0  0  0  0  0  0  0
  143.3005   75.1383  220.3120 H   0  0  0  0  0  0  0  0  0  0  0  0
  1  2  1  0
  2  3  2  0
  2  4  2  0
  2  5  1  0
  5  6  2  0
  6  7  1  0
  7  8  2  0
  8  9  1  0
  9 10  1  0
 10 11  1  0
 11 12  2  0
 12 13  1  0
 13 14  2  0
 14 15  1  0
 15 16  2  0
 16 17  1  0
 17 18  2  0
 18 19  1  0
 19 20  2  0
 19 21  1  0
 21 22  1  0
 22 23  1  0
 23 24  1  0
 24 25  1  0
 25 26  1  0
 26 27  1  0
 27 28  1  0
  8 29  1  0
 29 30  2  0
 30  5  1  0
 21 11  1  0
 28 23  1  0
 18 13  1  0
  1 31  1  0
  1 32  1  0
  6 33  1  0
  7 34  1  0
 10 35  1  0
 10 36  1  0
 14 37  1  0
 15 38  1  0
 16 39  1  0
 17 40  1  0
 22 41  1  0
 22 42  1  0
 23 43  1  0
 24 44  1  0
 24 45  1  0
 25 46  1  0
 25 47  1  0
 26 48  1  0
 26 49  1  0
 27 50  1  0
 27 51  1  0
 28 52  1  0
 28 53  1  0
 29 54  1  0
 30 55  1  0
M  END
>  <smiles>  (28) 
NS(=O)(=O)c1ccc(OCc2nc3ccccc3c(=O)n2CC2CCCCC2)cc1

>  <score_type>  (28) 
oracle

>  <origin>  (28) 
autodockgpu

>  <m_score__min__energy>  (28) 
-8.8800000000000008

>  <m_primary>  (28) 
energy

>  <rmsd>  (28) 
11.56170318910799

>  <m_score__min__rmsd>  (28) 
11.56170318910799

>  <meeko>  (28) 
{"free_energy": -8.69, "intermolecular_energy": -10.78, "internal_energy": -1.3, "cluster_size": 17, "cluster_id": 2, "rank_in_cluster": 4}

>  <energy>  (28) 
-8.33

>  <cluster_rmsd>  (28) 
1.46

>  <cluster>  (28) 
4

$$$$

     RDKit          3D

 55 58  0  0  0  0  0  0  0  0999 V2000
  146.6520   73.8750  220.4420 N   0  0  0  0  0  0  0  0  0  0  0  0
  145.6650   72.7150  219.6230 S   0  0  0  0  0  0  0  0  0  0  0  0
  145.5580   73.0870  218.1820 O   0  0  0  0  0  0  0  0  0  0  0  0
  146.2710   71.3510  219.7390 O   0  0  0  0  0  0  0  0  0  0  0  0
  144.0870   72.7340  220.3530 C   0  0  0  0  0  0  0  0  0  0  0  0
  143.5180   71.5450  220.7190 C   0  0  0  0  0  0  0  0  0  0  0  0
  142.2560   71.5290  221.3050 C   0  0  0  0  0  0  0  0  0  0  0  0
  141.5220   72.6590  221.5460 C   0  0  0  0  0  0  0  0  0  0  0  0
  140.3130   72.7880  222.0930 O   0  0  0  0  0  0  0  0  0  0  0  0
  139.2490   71.9520  222.3270 C   0  0  0  0  0  0  0  0  0  0  0  0
  139.4370   71.0790  223.5130 C   0  0  0  0  0  0  0  0  0  0  0  0
  139.9900   71.7290  224.5940 N   0  0  0  0  0  0  0  0  0  0  0  0
  140.2610   71.1130  225.7460 C   0  0  0  0  0  0  0  0  0  0  0  0
  140.8160   71.8210  226.7950 C   0  0  0  0  0  0  0  0  0  0  0  0
  141.0770   71.1280  227.9660 C   0  0  0  0  0  0  0  0  0  0  0  0
  140.7940   69.7820  228.0820 C   0  0  0  0  0  0  0  0  0  0  0  0
  140.2380   69.1170  227.0020 C   0  0  0  0  0  0  0  0  0  0  0  0
  139.9630   69.7700  225.8180 C   0  0  0  0  0  0  0  0  0  0  0  0
  139.4060   69.1240  224.7270 C   0  0  0  0  0  0  0  0  0  0  0  0
  139.1720   67.8990  224.8860 O   0  0  0  0  0  0  0  0  0  0  0  0
  139.1330   69.7740  223.5580 N   0  0  0  0  0  0  0  0  0  0  0  0
  138.5230   69.0140  222.5200 C   0  0  0  0  0  0  0  0  0  0  0  0
  139.4200   68.3850  221.5030 C   0  0  0  0  0  0  0  0  0  0  0  0
  139.7370   69.2650  220.3360 C   0  0  0  0  0  0  0  0  0  0  0  0
  140.3180   68.5080  219.1610 C   0  0  0  0  0  0  0  0  0  0  0  0
  141.1520   67.3640  219.7010 C   0  0  0  0  0  0  0  0  0  0  0  0
  140.2740   66.3710  220.3900 C   0  0  0  0  0  0  0  0  0  0  0  0
  139.0620   67.0150  221.0480 C   0  0  0  0  0  0  0  0  0  0  0  0
  142.1620   73.8580  221.1470 C   0  0  0  0  0  0  0  0  0  0  0  0
  143.3890   73.8830  220.5760 C   0  0  0  0  0  0  0  0  0  0  0  0
  147.1390   74.5180  219.7830 H   0  0  0  0  0  0  0  0  0  0  0  0
  147.3270   73.4280  221.0990 H   0  0  0  0  0  0  0  0  0  0  0  0
  144.0580   70.6017  220.5501 H   0  0  0  0  0  0  0  0  0  0  0  0
  141.8257   70.5574  221.5894 H   0  0  0  0  0  0  0  0  0  0  0  0
  138.3504   72.5665  222.4849 H   0  0  0  0  0  0  0  0  0  0  0  0
  139.1530   71.2942  221.4506 H   0  0  0  0  0  0  0  0  0  0  0  0
  141.0419   72.8937  226.7038 H   0  0  0  0  0  0  0  0  0  0  0  0
  141.5187   71.6613  228.8207 H   0  0  0  0  0  0  0  0  0  0  0  0
  141.0070   69.2455  229.0184 H   0  0  0  0  0  0  0  0  0  0  0  0
  140.0106   68.0444  227.0900 H   0  0  0  0  0  0  0  0  0  0  0  0
  137.9496   68.2058  222.9975 H   0  0  0  0  0  0  0  0  0  0  0  0
  137.9272   69.7443  221.9528 H   0  0  0  0  0  0  0  0  0  0  0  0
  140.3379   68.2565  222.0955 H   0  0  0  0  0  0  0  0  0  0  0  0
  138.8108   69.7605  220.0096 H   0  0  0  0  0  0  0  0  0  0  0  0
  140.4966   69.9882  220.6678 H   0  0  0  0  0  0  0  0  0  0  0  0
  139.5052   68.1128  218.5340 H   0  0  0  0  0  0  0  0  0  0  0  0
  140.9409   69.1765  218.5486 H   0  0  0  0  0  0  0  0  0  0  0  0
  141.6760   66.8710  218.8689 H   0  0  0  0  0  0  0  0  0  0  0  0
  141.8834   67.7595  220.4212 H   0  0  0  0  0  0  0  0  0  0  0  0
  139.9237   65.6373  219.6491 H   0  0  0  0  0  0  0  0  0  0  0  0
  140.8693   65.8956  221.1835 H   0  0  0  0  0  0  0  0  0  0  0  0
  138.2372   67.0725  220.3225 H   0  0  0  0  0  0  0  0  0  0  0  0
  138.7466   66.4106  221.9112 H   0  0  0  0  0  0  0  0  0  0  0  0
  141.6383   74.8118  221.3084 H   0  0  0  0  0  0  0  0  0  0  0  0
  143.8306   74.8481  220.2868 H   0  0  0  0  0  0  0  0  0  0  0  0
  1  2  1  0
  2  3  2  0
  2  4  2  0
  2  5  1  0
  5  6  2  0
  6  7  1  0
  7  8  2  0
  8  9  1  0
  9 10  1  0
 10 11  1  0
 11 12  2  0
 12 13  1  0
 13 14  2  0
 14 15  1  0
 15 16  2  0
 16 17  1  0
 17 18  2  0
 18 19  1  0
 19 20  2  0
 19 21  1  0
 21 22  1  0
 22 23  1  0
 23 24  1  0
 24 25  1  0
 25 26  1  0
 26 27  1  0
 27 28  1  0
  8 29  1  0
 29 30  2  0
 30  5  1  0
 21 11  1  0
 28 23  1  0
 18 13  1  0
  1 31  1  0
  1 32  1  0
  6 33  1  0
  7 34  1  0
 10 35  1  0
 10 36  1  0
 14 37  1  0
 15 38  1  0
 16 39  1  0
 17 40  1  0
 22 41  1  0
 22 42  1  0
 23 43  1  0
 24 44  1  0
 24 45  1  0
 25 46  1  0
 25 47  1  0
 26 48  1  0
 26 49  1  0
 27 50  1  0
 27 51  1  0
 28 52  1  0
 28 53  1  0
 29 54  1  0
 30 55  1  0
M  END
>  <smiles>  (29) 
NS(=O)(=O)c1ccc(OCc2nc3ccccc3c(=O)n2CC2CCCCC2)cc1

>  <score_type>  (29) 
oracle

>  <origin>  (29) 
autodockgpu

>  <m_score__min__energy>  (29) 
-8.8800000000000008

>  <m_primary>  (29) 
energy

>  <rmsd>  (29) 
10.764800056319695

>  <m_score__min__rmsd>  (29) 
10.764800056319695

>  <meeko>  (29) 
{"free_energy": -8.38, "intermolecular_energy": -10.46, "internal_energy": -1.66, "cluster_size": 17, "cluster_id": 2, "rank_in_cluster": 9}

>  <energy>  (29) 
-8.44

>  <cluster_rmsd>  (29) 
0.0

>  <cluster>  (29) 
5

$$$$

     RDKit          3D

 55 58  0  0  0  0  0  0  0  0999 V2000
  144.9160   74.0850  217.3610 N   0  0  0  0  0  0  0  0  0  0  0  0
  145.2970   72.9780  218.6330 S   0  0  0  0  0  0  0  0  0  0  0  0
  145.5430   71.6250  218.0530 O   0  0  0  0  0  0  0  0  0  0  0  0
  146.5220   73.4340  219.3620 O   0  0  0  0  0  0  0  0  0  0  0  0
  143.9420   72.9120  219.7210 C   0  0  0  0  0  0  0  0  0  0  0  0
  143.6610   71.7310  220.3490 C   0  0  0  0  0  0  0  0  0  0  0  0
  142.5830   71.6470  221.2250 C   0  0  0  0  0  0  0  0  0  0  0  0
  141.7590   72.7040  221.5090 C   0  0  0  0  0  0  0  0  0  0  0  0
  140.7010   72.7640  222.3180 O   0  0  0  0  0  0  0  0  0  0  0  0
  139.5570   72.0240  222.4920 C   0  0  0  0  0  0  0  0  0  0  0  0
  139.6400   71.0740  223.6300 C   0  0  0  0  0  0  0  0  0  0  0  0
  140.1730   71.6270  224.7730 N   0  0  0  0  0  0  0  0  0  0  0  0
  140.3540   70.9290  225.8960 C   0  0  0  0  0  0  0  0  0  0  0  0
  140.8930   71.5420  227.0110 C   0  0  0  0  0  0  0  0  0  0  0  0
  141.0590   70.7680  228.1480 C   0  0  0  0  0  0  0  0  0  0  0  0
  140.7010   69.4350  228.1680 C   0  0  0  0  0  0  0  0  0  0  0  0
  140.1640   68.8670  227.0240 C   0  0  0  0  0  0  0  0  0  0  0  0
  139.9820   69.6030  225.8720 C   0  0  0  0  0  0  0  0  0  0  0  0
  139.4470   69.0550  224.7190 C   0  0  0  0  0  0  0  0  0  0  0  0
  139.1410   67.8380  224.7910 O   0  0  0  0  0  0  0  0  0  0  0  0
  139.2660   69.7870  223.5800 N   0  0  0  0  0  0  0  0  0  0  0  0
  138.6680   69.1250  222.4710 C   0  0  0  0  0  0  0  0  0  0  0  0
  139.5790   68.5640  221.4260 C   0  0  0  0  0  0  0  0  0  0  0  0
  140.0060   69.5530  220.3880 C   0  0  0  0  0  0  0  0  0  0  0  0
  140.6020   68.9040  219.1580 C   0  0  0  0  0  0  0  0  0  0  0  0
  141.3400   67.6540  219.5930 C   0  0  0  0  0  0  0  0  0  0  0  0
  140.3720   66.6450  220.1180 C   0  0  0  0  0  0  0  0  0  0  0  0
  139.1670   67.2830  220.7940 C   0  0  0  0  0  0  0  0  0  0  0  0
  142.1000   73.8990  220.8300 C   0  0  0  0  0  0  0  0  0  0  0  0
  143.1460   73.9880  219.9760 C   0  0  0  0  0  0  0  0  0  0  0  0
  145.3380   73.8060  216.4520 H   0  0  0  0  0  0  0  0  0  0  0  0
  145.1620   75.0690  217.6050 H   0  0  0  0  0  0  0  0  0  0  0  0
  144.2874   70.8463  220.1618 H   0  0  0  0  0  0  0  0  0  0  0  0
  142.3822   70.6826  221.7145 H   0  0  0  0  0  0  0  0  0  0  0  0
  138.7193   72.7135  222.6731 H   0  0  0  0  0  0  0  0  0  0  0  0
  139.4127   71.4274  221.5792 H   0  0  0  0  0  0  0  0  0  0  0  0
  141.1793   72.6040  226.9964 H   0  0  0  0  0  0  0  0  0  0  0  0
  141.4848   71.2251  229.0534 H   0  0  0  0  0  0  0  0  0  0  0  0
  140.8399   68.8330  229.0781 H   0  0  0  0  0  0  0  0  0  0  0  0
  139.8764   67.8053  227.0349 H   0  0  0  0  0  0  0  0  0  0  0  0
  138.0704   68.2914  222.8685 H   0  0  0  0  0  0  0  0  0  0  0  0
  138.0972   69.9092  221.9522 H   0  0  0  0  0  0  0  0  0  0  0  0
  140.4559   68.3092  222.0393 H   0  0  0  0  0  0  0  0  0  0  0  0
  139.1279   70.1409  220.0827 H   0  0  0  0  0  0  0  0  0  0  0  0
  140.7879   70.1827  220.8376 H   0  0  0  0  0  0  0  0  0  0  0  0
  139.8012   68.6372  218.4526 H   0  0  0  0  0  0  0  0  0  0  0  0
  141.2931   69.5990  218.6587 H   0  0  0  0  0  0  0  0  0  0  0  0
  141.8769   67.2298  218.7317 H   0  0  0  0  0  0  0  0  0  0  0  0
  142.0550   67.9152  220.3871 H   0  0  0  0  0  0  0  0  0  0  0  0
  140.0187   66.0268  219.2795 H   0  0  0  0  0  0  0  0  0  0  0  0
  140.8971   66.0431  220.8743 H   0  0  0  0  0  0  0  0  0  0  0  0
  138.3856   67.4776  220.0446 H   0  0  0  0  0  0  0  0  0  0  0  0
  138.7731   66.6026  221.5634 H   0  0  0  0  0  0  0  0  0  0  0  0
  141.4869   74.7955  221.0046 H   0  0  0  0  0  0  0  0  0  0  0  0
  143.3574   74.9462  219.4788 H   0  0  0  0  0  0  0  0  0  0  0  0
  1  2  1  0
  2  3  2  0
  2  4  2  0
  2  5  1  0
  5  6  2  0
  6  7  1  0
  7  8  2  0
  8  9  1  0
  9 10  1  0
 10 11  1  0
 11 12  2  0
 12 13  1  0
 13 14  2  0
 14 15  1  0
 15 16  2  0
 16 17  1  0
 17 18  2  0
 18 19  1  0
 19 20  2  0
 19 21  1  0
 21 22  1  0
 22 23  1  0
 23 24  1  0
 24 25  1  0
 25 26  1  0
 26 27  1  0
 27 28  1  0
  8 29  1  0
 29 30  2  0
 30  5  1  0
 21 11  1  0
 28 23  1  0
 18 13  1  0
  1 31  1  0
  1 32  1  0
  6 33  1  0
  7 34  1  0
 10 35  1  0
 10 36  1  0
 14 37  1  0
 15 38  1  0
 16 39  1  0
 17 40  1  0
 22 41  1  0
 22 42  1  0
 23 43  1  0
 24 44  1  0
 24 45  1  0
 25 46  1  0
 25 47  1  0
 26 48  1  0
 26 49  1  0
 27 50  1  0
 27 51  1  0
 28 52  1  0
 28 53  1  0
 29 54  1  0
 30 55  1  0
M  END
>  <smiles>  (30) 
NS(=O)(=O)c1ccc(OCc2nc3ccccc3c(=O)n2CC2CCCCC2)cc1

>  <score_type>  (30) 
oracle

>  <origin>  (30) 
autodockgpu

>  <m_score__min__energy>  (30) 
-8.8800000000000008

>  <m_primary>  (30) 
energy

>  <rmsd>  (30) 
10.82648712474163

>  <m_score__min__rmsd>  (30) 
10.82648712474163

>  <meeko>  (30) 
{"free_energy": -8.44, "intermolecular_energy": -10.52, "internal_energy": -1.62, "cluster_size": 17, "cluster_id": 2, "rank_in_cluster": 8}

>  <energy>  (30) 
-7.9

>  <cluster_rmsd>  (30) 
0.75

>  <cluster>  (30) 
5

$$$$

     RDKit          3D

 55 58  0  0  0  0  0  0  0  0999 V2000
  146.2800   73.6500  220.3500 N   0  0  0  0  0  0  0  0  0  0  0  0
  145.5980   72.3180  219.4840 S   0  0  0  0  0  0  0  0  0  0  0  0
  145.5780   72.6350  218.0260 O   0  0  0  0  0  0  0  0  0  0  0  0
  146.4150   71.0840  219.7110 O   0  0  0  0  0  0  0  0  0  0  0  0
  143.9730   72.0740  220.0530 C   0  0  0  0  0  0  0  0  0  0  0  0
  143.3660   73.0760  220.7580 C   0  0  0  0  0  0  0  0  0  0  0  0
  142.0660   72.9100  221.2260 C   0  0  0  0  0  0  0  0  0  0  0  0
  141.3310   71.7720  221.0220 C   0  0  0  0  0  0  0  0  0  0  0  0
  140.0900   71.4800  221.4100 O   0  0  0  0  0  0  0  0  0  0  0  0
  139.2840   71.8350  222.4640 C   0  0  0  0  0  0  0  0  0  0  0  0
  139.4230   70.9370  223.6380 C   0  0  0  0  0  0  0  0  0  0  0  0
  140.0380   71.5300  224.7170 N   0  0  0  0  0  0  0  0  0  0  0  0
  140.2780   70.8810  225.8580 C   0  0  0  0  0  0  0  0  0  0  0  0
  140.9010   71.5330  226.9060 C   0  0  0  0  0  0  0  0  0  0  0  0
  141.1250   70.8080  228.0650 C   0  0  0  0  0  0  0  0  0  0  0  0
  140.7440   69.4860  228.1710 C   0  0  0  0  0  0  0  0  0  0  0  0
  140.1230   68.8770  227.0930 C   0  0  0  0  0  0  0  0  0  0  0  0
  139.8810   69.5640  225.9200 C   0  0  0  0  0  0  0  0  0  0  0  0
  139.2620   68.9750  224.8310 C   0  0  0  0  0  0  0  0  0  0  0  0
  138.9380   67.7690  224.9800 O   0  0  0  0  0  0  0  0  0  0  0  0
  139.0210   69.6580  223.6730 N   0  0  0  0  0  0  0  0  0  0  0  0
  138.3410   68.9580  222.6370 C   0  0  0  0  0  0  0  0  0  0  0  0
  139.1620   68.1130  221.7160 C   0  0  0  0  0  0  0  0  0  0  0  0
  139.3160   68.6760  220.3390 C   0  0  0  0  0  0  0  0  0  0  0  0
  139.8130   67.6600  219.3340 C   0  0  0  0  0  0  0  0  0  0  0  0
  140.7530   66.7090  220.0470 C   0  0  0  0  0  0  0  0  0  0  0  0
  139.9990   65.9040  221.0530 C   0  0  0  0  0  0  0  0  0  0  0  0
  138.8280   66.6650  221.6580 C   0  0  0  0  0  0  0  0  0  0  0  0
  142.0120   70.7710  220.2860 C   0  0  0  0  0  0  0  0  0  0  0  0
  143.2760   70.9260  219.8270 C   0  0  0  0  0  0  0  0  0  0  0  0
  145.6350   74.0220  221.0780 H   0  0  0  0  0  0  0  0  0  0  0  0
  146.6100   74.4090  219.7150 H   0  0  0  0  0  0  0  0  0  0  0  0
  143.9056   74.0140  220.9554 H   0  0  0  0  0  0  0  0  0  0  0  0
  141.6048   73.7350  221.7887 H   0  0  0  0  0  0  0  0  0  0  0  0
  139.5447   72.8577  222.7739 H   0  0  0  0  0  0  0  0  0  0  0  0
  138.2427   71.7596  222.1177 H   0  0  0  0  0  0  0  0  0  0  0  0
  141.2069   72.5863  226.8228 H   0  0  0  0  0  0  0  0  0  0  0  0
  141.6170   71.2966  228.9189 H   0  0  0  0  0  0  0  0  0  0  0  0
  140.9307   68.9240  229.0980 H   0  0  0  0  0  0  0  0  0  0  0  0
  139.8161   67.8237  227.1731 H   0  0  0  0  0  0  0  0  0  0  0  0
  137.6013   68.2994  223.1157 H   0  0  0  0  0  0  0  0  0  0  0  0
  137.9247   69.7475  221.9940 H   0  0  0  0  0  0  0  0  0  0  0  0
  140.1400   68.1599  222.2174 H   0  0  0  0  0  0  0  0  0  0  0  0
  138.3381   69.0513  220.0029 H   0  0  0  0  0  0  0  0  0  0  0  0
  140.0679   69.4770  220.3946 H   0  0  0  0  0  0  0  0  0  0  0  0
  138.9620   67.1005  218.9183 H   0  0  0  0  0  0  0  0  0  0  0  0
  140.3375   68.1660  218.5100 H   0  0  0  0  0  0  0  0  0  0  0  0
  141.2144   66.0334  219.3117 H   0  0  0  0  0  0  0  0  0  0  0  0
  141.5330   67.2900  220.5609 H   0  0  0  0  0  0  0  0  0  0  0  0
  139.6136   64.9986  220.5614 H   0  0  0  0  0  0  0  0  0  0  0  0
  140.6936   65.6598  221.8703 H   0  0  0  0  0  0  0  0  0  0  0  0
  137.9332   66.5187  221.0352 H   0  0  0  0  0  0  0  0  0  0  0  0
  138.6298   66.2910  222.6733 H   0  0  0  0  0  0  0  0  0  0  0  0
  141.4900   69.8253  220.0782 H   0  0  0  0  0  0  0  0  0  0  0  0
  143.7488   70.1098  219.2611 H   0  0  0  0  0  0  0  0  0  0  0  0
  1  2  1  0
  2  3  2  0
  2  4  2  0
  2  5  1  0
  5  6  2  0
  6  7  1  0
  7  8  2  0
  8  9  1  0
  9 10  1  0
 10 11  1  0
 11 12  2  0
 12 13  1  0
 13 14  2  0
 14 15  1  0
 15 16  2  0
 16 17  1  0
 17 18  2  0
 18 19  1  0
 19 20  2  0
 19 21  1  0
 21 22  1  0
 22 23  1  0
 23 24  1  0
 24 25  1  0
 25 26  1  0
 26 27  1  0
 27 28  1  0
  8 29  1  0
 29 30  2  0
 30  5  1  0
 21 11  1  0
 28 23  1  0
 18 13  1  0
  1 31  1  0
  1 32  1  0
  6 33  1  0
  7 34  1  0
 10 35  1  0
 10 36  1  0
 14 37  1  0
 15 38  1  0
 16 39  1  0
 17 40  1  0
 22 41  1  0
 22 42  1  0
 23 43  1  0
 24 44  1  0
 24 45  1  0
 25 46  1  0
 25 47  1  0
 26 48  1  0
 26 49  1  0
 27 50  1  0
 27 51  1  0
 28 52  1  0
 28 53  1  0
 29 54  1  0
 30 55  1  0
M  END
>  <smiles>  (31) 
NS(=O)(=O)c1ccc(OCc2nc3ccccc3c(=O)n2CC2CCCCC2)cc1

>  <score_type>  (31) 
oracle

>  <origin>  (31) 
autodockgpu

>  <m_score__min__energy>  (31) 
-8.8800000000000008

>  <m_primary>  (31) 
energy

>  <rmsd>  (31) 
11.138131559992168

>  <m_score__min__rmsd>  (31) 
11.138131559992168

>  <meeko>  (31) 
{"free_energy": -8.34, "intermolecular_energy": -10.42, "internal_energy": -1.67, "cluster_size": 17, "cluster_id": 2, "rank_in_cluster": 11}

>  <energy>  (31) 
-7.75

>  <cluster_rmsd>  (31) 
1.98

>  <cluster>  (31) 
5

$$$$

     RDKit          3D

 55 58  0  0  0  0  0  0  0  0999 V2000
  145.9420   73.3830  218.0110 N   0  0  0  0  0  0  0  0  0  0  0  0
  145.5840   72.4490  219.4210 S   0  0  0  0  0  0  0  0  0  0  0  0
  145.4220   71.0160  219.0370 O   0  0  0  0  0  0  0  0  0  0  0  0
  146.6950   72.5720  220.4160 O   0  0  0  0  0  0  0  0  0  0  0  0
  144.0990   73.0430  220.1040 C   0  0  0  0  0  0  0  0  0  0  0  0
  143.9450   74.3910  220.2700 C   0  0  0  0  0  0  0  0  0  0  0  0
  142.7680   74.8960  220.8140 C   0  0  0  0  0  0  0  0  0  0  0  0
  141.7200   74.1070  221.2070 C   0  0  0  0  0  0  0  0  0  0  0  0
  140.5480   74.4530  221.7380 O   0  0  0  0  0  0  0  0  0  0  0  0
  139.6830   75.5110  221.6010 C   0  0  0  0  0  0  0  0  0  0  0  0
  140.3730   76.8240  221.5110 C   0  0  0  0  0  0  0  0  0  0  0  0
  140.7500   77.3340  222.7320 N   0  0  0  0  0  0  0  0  0  0  0  0
  141.3600   78.5140  222.8650 C   0  0  0  0  0  0  0  0  0  0  0  0
  141.7140   78.9720  224.1200 C   0  0  0  0  0  0  0  0  0  0  0  0
  142.3430   80.2030  224.1960 C   0  0  0  0  0  0  0  0  0  0  0  0
  142.6070   80.9470  223.0630 C   0  0  0  0  0  0  0  0  0  0  0  0
  142.2320   80.4440  221.8280 C   0  0  0  0  0  0  0  0  0  0  0  0
  141.6030   79.2220  221.7090 C   0  0  0  0  0  0  0  0  0  0  0  0
  141.2210   78.7010  220.4840 C   0  0  0  0  0  0  0  0  0  0  0  0
  141.4820   79.4200  219.4860 O   0  0  0  0  0  0  0  0  0  0  0  0
  140.6010   77.4890  220.3690 N   0  0  0  0  0  0  0  0  0  0  0  0
  140.2930   77.0400  219.0540 C   0  0  0  0  0  0  0  0  0  0  0  0
  141.3490   76.2820  218.3160 C   0  0  0  0  0  0  0  0  0  0  0  0
  142.5940   77.0660  218.0480 C   0  0  0  0  0  0  0  0  0  0  0  0
  143.4810   76.4330  216.9980 C   0  0  0  0  0  0  0  0  0  0  0  0
  143.3530   74.9280  217.1150 C   0  0  0  0  0  0  0  0  0  0  0  0
  141.9700   74.5020  216.7440 C   0  0  0  0  0  0  0  0  0  0  0  0
  140.9190   75.5450  217.0980 C   0  0  0  0  0  0  0  0  0  0  0  0
  141.9370   72.7210  221.0100 C   0  0  0  0  0  0  0  0  0  0  0  0
  143.0790   72.2220  220.4820 C   0  0  0  0  0  0  0  0  0  0  0  0
  145.7480   74.3960  218.1470 H   0  0  0  0  0  0  0  0  0  0  0  0
  145.4600   73.0180  217.1610 H   0  0  0  0  0  0  0  0  0  0  0  0
  144.7521   75.0771  219.9734 H   0  0  0  0  0  0  0  0  0  0  0  0
  142.6746   75.9854  220.9346 H   0  0  0  0  0  0  0  0  0  0  0  0
  139.0922   75.3631  220.6850 H   0  0  0  0  0  0  0  0  0  0  0  0
  139.0511   75.5350  222.5011 H   0  0  0  0  0  0  0  0  0  0  0  0
  141.5041   78.3812  225.0238 H   0  0  0  0  0  0  0  0  0  0  0  0
  142.6387   80.5967  225.1796 H   0  0  0  0  0  0  0  0  0  0  0  0
  143.1072   81.9237  223.1400 H   0  0  0  0  0  0  0  0  0  0  0  0
  142.4404   81.0320  220.9220 H   0  0  0  0  0  0  0  0  0  0  0  0
  139.4103   76.3877  219.1274 H   0  0  0  0  0  0  0  0  0  0  0  0
  140.1515   77.9616  218.4704 H   0  0  0  0  0  0  0  0  0  0  0  0
  141.5870   75.5001  219.0522 H   0  0  0  0  0  0  0  0  0  0  0  0
  142.3075   78.0709  217.7044 H   0  0  0  0  0  0  0  0  0  0  0  0
  143.1685   77.0989  218.9855 H   0  0  0  0  0  0  0  0  0  0  0  0
  143.1619   76.7571  215.9964 H   0  0  0  0  0  0  0  0  0  0  0  0
  144.5268   76.7383  217.1498 H   0  0  0  0  0  0  0  0  0  0  0  0
  144.0757   74.4474  216.4392 H   0  0  0  0  0  0  0  0  0  0  0  0
  143.5566   74.6282  218.1536 H   0  0  0  0  0  0  0  0  0  0  0  0
  141.9362   74.3224  215.6593 H   0  0  0  0  0  0  0  0  0  0  0  0
  141.7388   73.5905  217.3147 H   0  0  0  0  0  0  0  0  0  0  0  0
  140.8058   76.2510  216.2621 H   0  0  0  0  0  0  0  0  0  0  0  0
  139.9562   75.0482  217.2885 H   0  0  0  0  0  0  0  0  0  0  0  0
  141.1414   72.0186  221.2992 H   0  0  0  0  0  0  0  0  0  0  0  0
  143.1857   71.1345  220.3557 H   0  0  0  0  0  0  0  0  0  0  0  0
  1  2  1  0
  2  3  2  0
  2  4  2  0
  2  5  1  0
  5  6  2  0
  6  7  1  0
  7  8  2  0
  8  9  1  0
  9 10  1  0
 10 11  1  0
 11 12  2  0
 12 13  1  0
 13 14  2  0
 14 15  1  0
 15 16  2  0
 16 17  1  0
 17 18  2  0
 18 19  1  0
 19 20  2  0
 19 21  1  0
 21 22  1  0
 22 23  1  0
 23 24  1  0
 24 25  1  0
 25 26  1  0
 26 27  1  0
 27 28  1  0
  8 29  1  0
 29 30  2  0
 30  5  1  0
 21 11  1  0
 28 23  1  0
 18 13  1  0
  1 31  1  0
  1 32  1  0
  6 33  1  0
  7 34  1  0
 10 35  1  0
 10 36  1  0
 14 37  1  0
 15 38  1  0
 16 39  1  0
 17 40  1  0
 22 41  1  0
 22 42  1  0
 23 43  1  0
 24 44  1  0
 24 45  1  0
 25 46  1  0
 25 47  1  0
 26 48  1  0
 26 49  1  0
 27 50  1  0
 27 51  1  0
 28 52  1  0
 28 53  1  0
 29 54  1  0
 30 55  1  0
M  END
>  <smiles>  (32) 
NS(=O)(=O)c1ccc(OCc2nc3ccccc3c(=O)n2CC2CCCCC2)cc1

>  <score_type>  (32) 
oracle

>  <origin>  (32) 
autodockgpu

>  <m_score__min__energy>  (32) 
-8.8800000000000008

>  <m_primary>  (32) 
energy

>  <rmsd>  (32) 
3.5665358189126626

>  <m_score__min__rmsd>  (32) 
3.5665358189126626

>  <meeko>  (32) 
{"free_energy": -7.4, "intermolecular_energy": -9.49, "internal_energy": -2.31, "cluster_size": 16, "cluster_id": 6, "rank_in_cluster": 16}

>  <energy>  (32) 
-7.6

>  <cluster_rmsd>  (32) 
1.29

>  <cluster>  (32) 
5

$$$$

     RDKit          3D

 55 58  0  0  0  0  0  0  0  0999 V2000
  145.6230   73.4380  217.6600 N   0  0  0  0  0  0  0  0  0  0  0  0
  145.6330   72.8830  219.2970 S   0  0  0  0  0  0  0  0  0  0  0  0
  145.7760   71.3980  219.3150 O   0  0  0  0  0  0  0  0  0  0  0  0
  146.7750   73.4990  220.0430 O   0  0  0  0  0  0  0  0  0  0  0  0
  144.1230   73.3350  220.0330 C   0  0  0  0  0  0  0  0  0  0  0  0
  143.2420   72.3490  220.3820 C   0  0  0  0  0  0  0  0  0  0  0  0
  142.0260   72.6810  220.9730 C   0  0  0  0  0  0  0  0  0  0  0  0
  141.6410   73.9690  221.2360 C   0  0  0  0  0  0  0  0  0  0  0  0
  140.5190   74.4250  221.7910 O   0  0  0  0  0  0  0  0  0  0  0  0
  139.6430   75.4510  221.5300 C   0  0  0  0  0  0  0  0  0  0  0  0
  140.3070   76.7760  221.4260 C   0  0  0  0  0  0  0  0  0  0  0  0
  140.7660   77.2590  222.6310 N   0  0  0  0  0  0  0  0  0  0  0  0
  141.3680   78.4440  222.7510 C   0  0  0  0  0  0  0  0  0  0  0  0
  141.8060   78.8740  223.9900 C   0  0  0  0  0  0  0  0  0  0  0  0
  142.4230   80.1120  224.0540 C   0  0  0  0  0  0  0  0  0  0  0  0
  142.5930   80.8900  222.9260 C   0  0  0  0  0  0  0  0  0  0  0  0
  142.1360   80.4150  221.7080 C   0  0  0  0  0  0  0  0  0  0  0  0
  141.5170   79.1860  221.6000 C   0  0  0  0  0  0  0  0  0  0  0  0
  141.0540   78.6920  220.3930 C   0  0  0  0  0  0  0  0  0  0  0  0
  141.2320   79.4410  219.3990 O   0  0  0  0  0  0  0  0  0  0  0  0
  140.4430   77.4750  220.2890 N   0  0  0  0  0  0  0  0  0  0  0  0
  140.0460   77.0560  218.9890 C   0  0  0  0  0  0  0  0  0  0  0  0
  141.1070   76.5270  218.0780 C   0  0  0  0  0  0  0  0  0  0  0  0
  141.0420   75.0490  217.8540 C   0  0  0  0  0  0  0  0  0  0  0  0
  142.3110   74.4830  217.2530 C   0  0  0  0  0  0  0  0  0  0  0  0
  142.9040   75.5260  216.3280 C   0  0  0  0  0  0  0  0  0  0  0  0
  143.3580   76.7110  217.1170 C   0  0  0  0  0  0  0  0  0  0  0  0
  142.5040   76.9570  218.3520 C   0  0  0  0  0  0  0  0  0  0  0  0
  142.5950   74.9440  220.8540 C   0  0  0  0  0  0  0  0  0  0  0  0
  143.7790   74.6300  220.2790 C   0  0  0  0  0  0  0  0  0  0  0  0
  145.7270   74.4710  217.5910 H   0  0  0  0  0  0  0  0  0  0  0  0
  144.7850   73.1070  217.1350 H   0  0  0  0  0  0  0  0  0  0  0  0
  143.4939   71.2945  220.1959 H   0  0  0  0  0  0  0  0  0  0  0  0
  141.3382   71.8661  221.2430 H   0  0  0  0  0  0  0  0  0  0  0  0
  139.1318   75.2407  220.5790 H   0  0  0  0  0  0  0  0  0  0  0  0
  138.9402   75.5032  222.3746 H   0  0  0  0  0  0  0  0  0  0  0  0
  141.6696   78.2565  224.8901 H   0  0  0  0  0  0  0  0  0  0  0  0
  142.7854   80.4835  225.0239 H   0  0  0  0  0  0  0  0  0  0  0  0
  143.0839   81.8720  222.9938 H   0  0  0  0  0  0  0  0  0  0  0  0
  142.2693   81.0309  220.8064 H   0  0  0  0  0  0  0  0  0  0  0  0
  139.2943   76.2628  219.1142 H   0  0  0  0  0  0  0  0  0  0  0  0
  139.6874   77.9725  218.4976 H   0  0  0  0  0  0  0  0  0  0  0  0
  140.8351   77.0302  217.1384 H   0  0  0  0  0  0  0  0  0  0  0  0
  140.8623   74.5560  218.8208 H   0  0  0  0  0  0  0  0  0  0  0  0
  140.2280   74.8612  217.1383 H   0  0  0  0  0  0  0  0  0  0  0  0
  143.0274   74.2444  218.0529 H   0  0  0  0  0  0  0  0  0  0  0  0
  142.0883   73.5623  216.6937 H   0  0  0  0  0  0  0  0  0  0  0  0
  143.7629   75.0932  215.7942 H   0  0  0  0  0  0  0  0  0  0  0  0
  142.1380   75.8453  215.6060 H   0  0  0  0  0  0  0  0  0  0  0  0
  144.3975   76.5442  217.4356 H   0  0  0  0  0  0  0  0  0  0  0  0
  143.2677   77.5955  216.4693 H   0  0  0  0  0  0  0  0  0  0  0  0
  142.9066   76.3804  219.1978 H   0  0  0  0  0  0  0  0  0  0  0  0
  142.5173   78.0283  218.6014 H   0  0  0  0  0  0  0  0  0  0  0  0
  142.3628   76.0042  221.0329 H   0  0  0  0  0  0  0  0  0  0  0  0
  144.4766   75.4352  220.0052 H   0  0  0  0  0  0  0  0  0  0  0  0
  1  2  1  0
  2  3  2  0
  2  4  2  0
  2  5  1  0
  5  6  2  0
  6  7  1  0
  7  8  2  0
  8  9  1  0
  9 10  1  0
 10 11  1  0
 11 12  2  0
 12 13  1  0
 13 14  2  0
 14 15  1  0
 15 16  2  0
 16 17  1  0
 17 18  2  0
 18 19  1  0
 19 20  2  0
 19 21  1  0
 21 22  1  0
 22 23  1  0
 23 24  1  0
 24 25  1  0
 25 26  1  0
 26 27  1  0
 27 28  1  0
  8 29  1  0
 29 30  2  0
 30  5  1  0
 21 11  1  0
 28 23  1  0
 18 13  1  0
  1 31  1  0
  1 32  1  0
  6 33  1  0
  7 34  1  0
 10 35  1  0
 10 36  1  0
 14 37  1  0
 15 38  1  0
 16 39  1  0
 17 40  1  0
 22 41  1  0
 22 42  1  0
 23 43  1  0
 24 44  1  0
 24 45  1  0
 25 46  1  0
 25 47  1  0
 26 48  1  0
 26 49  1  0
 27 50  1  0
 27 51  1  0
 28 52  1  0
 28 53  1  0
 29 54  1  0
 30 55  1  0
M  END
>  <smiles>  (33) 
NS(=O)(=O)c1ccc(OCc2nc3ccccc3c(=O)n2CC2CCCCC2)cc1

>  <score_type>  (33) 
oracle

>  <origin>  (33) 
autodockgpu

>  <m_score__min__energy>  (33) 
-8.8800000000000008

>  <m_primary>  (33) 
energy

>  <rmsd>  (33) 
3.6868800175520127

>  <m_score__min__rmsd>  (33) 
3.6868800175520127

>  <meeko>  (33) 
{"free_energy": -7.52, "intermolecular_energy": -9.6, "internal_energy": -2.32, "cluster_size": 16, "cluster_id": 6, "rank_in_cluster": 11}

>  <energy>  (33) 
-7.9

>  <cluster_rmsd>  (33) 
0.0

>  <cluster>  (33) 
6

$$$$

     RDKit          3D

 55 58  0  0  0  0  0  0  0  0999 V2000
  145.9860   73.3520  217.8320 N   0  0  0  0  0  0  0  0  0  0  0  0
  145.9200   72.9940  219.5220 S   0  0  0  0  0  0  0  0  0  0  0  0
  146.1540   71.5340  219.7270 O   0  0  0  0  0  0  0  0  0  0  0  0
  146.9690   73.7710  220.2540 O   0  0  0  0  0  0  0  0  0  0  0  0
  144.3400   73.4220  220.1070 C   0  0  0  0  0  0  0  0  0  0  0  0
  143.9850   74.7420  220.1360 C   0  0  0  0  0  0  0  0  0  0  0  0
  142.7260   75.1150  220.6000 C   0  0  0  0  0  0  0  0  0  0  0  0
  141.7900   74.2190  221.0430 C   0  0  0  0  0  0  0  0  0  0  0  0
  140.5610   74.4340  221.5090 O   0  0  0  0  0  0  0  0  0  0  0  0
  139.7140   75.5130  221.5790 C   0  0  0  0  0  0  0  0  0  0  0  0
  140.4180   76.8180  221.5030 C   0  0  0  0  0  0  0  0  0  0  0  0
  140.7980   77.3130  222.7300 N   0  0  0  0  0  0  0  0  0  0  0  0
  141.4210   78.4840  222.8750 C   0  0  0  0  0  0  0  0  0  0  0  0
  141.7770   78.9260  224.1360 C   0  0  0  0  0  0  0  0  0  0  0  0
  142.4200   80.1500  224.2250 C   0  0  0  0  0  0  0  0  0  0  0  0
  142.6960   80.9000  223.1000 C   0  0  0  0  0  0  0  0  0  0  0  0
  142.3190   80.4140  221.8590 C   0  0  0  0  0  0  0  0  0  0  0  0
  141.6760   79.2000  221.7260 C   0  0  0  0  0  0  0  0  0  0  0  0
  141.2920   78.6940  220.4960 C   0  0  0  0  0  0  0  0  0  0  0  0
  141.5640   79.4200  219.5050 O   0  0  0  0  0  0  0  0  0  0  0  0
  140.6590   77.4910  220.3680 N   0  0  0  0  0  0  0  0  0  0  0  0
  140.3500   77.0580  219.0480 C   0  0  0  0  0  0  0  0  0  0  0  0
  141.4550   76.4590  218.2390 C   0  0  0  0  0  0  0  0  0  0  0  0
  142.3430   77.4640  217.5750 C   0  0  0  0  0  0  0  0  0  0  0  0
  143.2020   76.8660  216.4810 C   0  0  0  0  0  0  0  0  0  0  0  0
  143.5580   75.4480  216.8800 C   0  0  0  0  0  0  0  0  0  0  0  0
  142.3300   74.5990  216.8980 C   0  0  0  0  0  0  0  0  0  0  0  0
  141.0820   75.3780  217.2890 C   0  0  0  0  0  0  0  0  0  0  0  0
  142.2140   72.8680  220.9880 C   0  0  0  0  0  0  0  0  0  0  0  0
  143.4360   72.4980  220.5390 C   0  0  0  0  0  0  0  0  0  0  0  0
  145.9640   74.3750  217.6420 H   0  0  0  0  0  0  0  0  0  0  0  0
  145.2460   72.8530  217.2920 H   0  0  0  0  0  0  0  0  0  0  0  0
  144.6941   75.5097  219.7927 H   0  0  0  0  0  0  0  0  0  0  0  0
  142.4702   76.1848  220.6112 H   0  0  0  0  0  0  0  0  0  0  0  0
  139.0009   75.4518  220.7437 H   0  0  0  0  0  0  0  0  0  0  0  0
  139.2118   75.4701  222.5567 H   0  0  0  0  0  0  0  0  0  0  0  0
  141.5581   78.3290  225.0336 H   0  0  0  0  0  0  0  0  0  0  0  0
  142.7167   80.5319  225.2130 H   0  0  0  0  0  0  0  0  0  0  0  0
  143.2079   81.8697  223.1876 H   0  0  0  0  0  0  0  0  0  0  0  0
  142.5369   81.0087  220.9596 H   0  0  0  0  0  0  0  0  0  0  0  0
  139.5539   76.3031  219.1273 H   0  0  0  0  0  0  0  0  0  0  0  0
  140.0768   77.9775  218.5095 H   0  0  0  0  0  0  0  0  0  0  0  0
  142.0332   75.9560  219.0281 H   0  0  0  0  0  0  0  0  0  0  0  0
  141.7131   78.2511  217.1348 H   0  0  0  0  0  0  0  0  0  0  0  0
  143.0212   77.8617  218.3443 H   0  0  0  0  0  0  0  0  0  0  0  0
  142.6445   76.8571  215.5328 H   0  0  0  0  0  0  0  0  0  0  0  0
  144.1157   77.4634  216.3462 H   0  0  0  0  0  0  0  0  0  0  0  0
  144.2757   75.0351  216.1559 H   0  0  0  0  0  0  0  0  0  0  0  0
  144.0054   75.4572  217.8849 H   0  0  0  0  0  0  0  0  0  0  0  0
  142.1802   74.1757  215.8938 H   0  0  0  0  0  0  0  0  0  0  0  0
  142.4808   73.8131  217.6528 H   0  0  0  0  0  0  0  0  0  0  0  0
  140.6278   75.8197  216.3898 H   0  0  0  0  0  0  0  0  0  0  0  0
  140.3594   74.7004  217.7672 H   0  0  0  0  0  0  0  0  0  0  0  0
  141.5189   72.0850  221.3253 H   0  0  0  0  0  0  0  0  0  0  0  0
  143.7047   71.4314  220.5224 H   0  0  0  0  0  0  0  0  0  0  0  0
  1  2  1  0
  2  3  2  0
  2  4  2  0
  2  5  1  0
  5  6  2  0
  6  7  1  0
  7  8  2  0
  8  9  1  0
  9 10  1  0
 10 11  1  0
 11 12  2  0
 12 13  1  0
 13 14  2  0
 14 15  1  0
 15 16  2  0
 16 17  1  0
 17 18  2  0
 18 19  1  0
 19 20  2  0
 19 21  1  0
 21 22  1  0
 22 23  1  0
 23 24  1  0
 24 25  1  0
 25 26  1  0
 26 27  1  0
 27 28  1  0
  8 29  1  0
 29 30  2  0
 30  5  1  0
 21 11  1  0
 28 23  1  0
 18 13  1  0
  1 31  1  0
  1 32  1  0
  6 33  1  0
  7 34  1  0
 10 35  1  0
 10 36  1  0
 14 37  1  0
 15 38  1  0
 16 39  1  0
 17 40  1  0
 22 41  1  0
 22 42  1  0
 23 43  1  0
 24 44  1  0
 24 45  1  0
 25 46  1  0
 25 47  1  0
 26 48  1  0
 26 49  1  0
 27 50  1  0
 27 51  1  0
 28 52  1  0
 28 53  1  0
 29 54  1  0
 30 55  1  0
M  END
>  <smiles>  (34) 
NS(=O)(=O)c1ccc(OCc2nc3ccccc3c(=O)n2CC2CCCCC2)cc1

>  <score_type>  (34) 
oracle

>  <origin>  (34) 
autodockgpu

>  <m_score__min__energy>  (34) 
-8.8800000000000008

>  <m_primary>  (34) 
energy

>  <rmsd>  (34) 
3.6435415748031104

>  <m_score__min__rmsd>  (34) 
3.6435415748031104

>  <meeko>  (34) 
{"free_energy": -7.76, "intermolecular_energy": -9.85, "internal_energy": -2.14, "cluster_size": 16, "cluster_id": 6, "rank_in_cluster": 2}

>  <energy>  (34) 
-7.76

>  <cluster_rmsd>  (34) 
0.52

>  <cluster>  (34) 
6

$$$$

     RDKit          3D

 55 58  0  0  0  0  0  0  0  0999 V2000
  144.9650   73.8790  217.3500 N   0  0  0  0  0  0  0  0  0  0  0  0
  145.3270   72.8790  218.7120 S   0  0  0  0  0  0  0  0  0  0  0  0
  145.5740   71.4820  218.2480 O   0  0  0  0  0  0  0  0  0  0  0  0
  146.5450   73.3890  219.4170 O   0  0  0  0  0  0  0  0  0  0  0  0
  143.9590   72.9060  219.7850 C   0  0  0  0  0  0  0  0  0  0  0  0
  143.3120   74.0920  219.9960 C   0  0  0  0  0  0  0  0  0  0  0  0
  142.2150   74.1450  220.8500 C   0  0  0  0  0  0  0  0  0  0  0  0
  141.7230   73.0520  221.5140 C   0  0  0  0  0  0  0  0  0  0  0  0
  140.6910   72.9600  222.3530 O   0  0  0  0  0  0  0  0  0  0  0  0
  139.5920   72.1440  222.4690 C   0  0  0  0  0  0  0  0  0  0  0  0
  139.6630   71.2270  223.6360 C   0  0  0  0  0  0  0  0  0  0  0  0
  140.2120   71.8040  224.7580 N   0  0  0  0  0  0  0  0  0  0  0  0
  140.3850   71.1380  225.9010 C   0  0  0  0  0  0  0  0  0  0  0  0
  140.9430   71.7740  226.9950 C   0  0  0  0  0  0  0  0  0  0  0  0
  141.1000   71.0320  228.1540 C   0  0  0  0  0  0  0  0  0  0  0  0
  140.7150   69.7080  228.2170 C   0  0  0  0  0  0  0  0  0  0  0  0
  140.1610   69.1150  227.0940 C   0  0  0  0  0  0  0  0  0  0  0  0
  139.9870   69.8190  225.9200 C   0  0  0  0  0  0  0  0  0  0  0  0
  139.4350   69.2470  224.7870 C   0  0  0  0  0  0  0  0  0  0  0  0
  139.1050   68.0390  224.8980 O   0  0  0  0  0  0  0  0  0  0  0  0
  139.2620   69.9470  223.6270 N   0  0  0  0  0  0  0  0  0  0  0  0
  138.6460   69.2630  222.5410 C   0  0  0  0  0  0  0  0  0  0  0  0
  139.5400   68.6440  221.5150 C   0  0  0  0  0  0  0  0  0  0  0  0
  139.9590   69.5770  220.4230 C   0  0  0  0  0  0  0  0  0  0  0  0
  140.5360   68.8630  219.2200 C   0  0  0  0  0  0  0  0  0  0  0  0
  141.2720   67.6320  219.7080 C   0  0  0  0  0  0  0  0  0  0  0  0
  140.3050   66.6570  220.2960 C   0  0  0  0  0  0  0  0  0  0  0  0
  139.1120   67.3360  220.9540 C   0  0  0  0  0  0  0  0  0  0  0  0
  142.4320   71.8530  221.2550 C   0  0  0  0  0  0  0  0  0  0  0  0
  143.5000   71.7940  220.4270 C   0  0  0  0  0  0  0  0  0  0  0  0
  145.2480   74.8700  217.4980 H   0  0  0  0  0  0  0  0  0  0  0  0
  143.9640   73.8130  217.0640 H   0  0  0  0  0  0  0  0  0  0  0  0
  143.6592   75.0050  219.4901 H   0  0  0  0  0  0  0  0  0  0  0  0
  141.7169   75.1143  220.9999 H   0  0  0  0  0  0  0  0  0  0  0  0
  138.6976   72.7755  222.5748 H   0  0  0  0  0  0  0  0  0  0  0  0
  139.5527   71.5190  221.5647 H   0  0  0  0  0  0  0  0  0  0  0  0
  141.2504   72.8291  226.9465 H   0  0  0  0  0  0  0  0  0  0  0  0
  141.5406   71.5077  229.0426 H   0  0  0  0  0  0  0  0  0  0  0  0
  140.8461   69.1322  229.1450 H   0  0  0  0  0  0  0  0  0  0  0  0
  139.8531   68.0599  227.1393 H   0  0  0  0  0  0  0  0  0  0  0  0
  138.0280   68.4588  222.9669 H   0  0  0  0  0  0  0  0  0  0  0  0
  138.0951   70.0438  221.9962 H   0  0  0  0  0  0  0  0  0  0  0  0
  140.4234   68.4143  222.1289 H   0  0  0  0  0  0  0  0  0  0  0  0
  139.0802   70.1539  220.0993 H   0  0  0  0  0  0  0  0  0  0  0  0
  140.7498   70.2241  220.8304 H   0  0  0  0  0  0  0  0  0  0  0  0
  139.7249   68.5662  218.5388 H   0  0  0  0  0  0  0  0  0  0  0  0
  141.2249   69.5276  218.6781 H   0  0  0  0  0  0  0  0  0  0  0  0
  141.7949   67.1613  218.8624 H   0  0  0  0  0  0  0  0  0  0  0  0
  141.9990   67.9282  220.4785 H   0  0  0  0  0  0  0  0  0  0  0  0
  139.9375   65.9992  219.4946 H   0  0  0  0  0  0  0  0  0  0  0  0
  140.8365   66.0913  221.0754 H   0  0  0  0  0  0  0  0  0  0  0  0
  138.3223   67.4978  220.2056 H   0  0  0  0  0  0  0  0  0  0  0  0
  138.7235   66.6978  221.7613 H   0  0  0  0  0  0  0  0  0  0  0  0
  142.0990   70.9286  221.7495 H   0  0  0  0  0  0  0  0  0  0  0  0
  144.0077   70.8311  220.2686 H   0  0  0  0  0  0  0  0  0  0  0  0
  1  2  1  0
  2  3  2  0
  2  4  2  0
  2  5  1  0
  5  6  2  0
  6  7  1  0
  7  8  2  0
  8  9  1  0
  9 10  1  0
 10 11  1  0
 11 12  2  0
 12 13  1  0
 13 14  2  0
 14 15  1  0
 15 16  2  0
 16 17  1  0
 17 18  2  0
 18 19  1  0
 19 20  2  0
 19 21  1  0
 21 22  1  0
 22 23  1  0
 23 24  1  0
 24 25  1  0
 25 26  1  0
 26 27  1  0
 27 28  1  0
  8 29  1  0
 29 30  2  0
 30  5  1  0
 21 11  1  0
 28 23  1  0
 18 13  1  0
  1 31  1  0
  1 32  1  0
  6 33  1  0
  7 34  1  0
 10 35  1  0
 10 36  1  0
 14 37  1  0
 15 38  1  0
 16 39  1  0
 17 40  1  0
 22 41  1  0
 22 42  1  0
 23 43  1  0
 24 44  1  0
 24 45  1  0
 25 46  1  0
 25 47  1  0
 26 48  1  0
 26 49  1  0
 27 50  1  0
 27 51  1  0
 28 52  1  0
 28 53  1  0
 29 54  1  0
 30 55  1  0
M  END
>  <smiles>  (35) 
NS(=O)(=O)c1ccc(OCc2nc3ccccc3c(=O)n2CC2CCCCC2)cc1

>  <score_type>  (35) 
oracle

>  <origin>  (35) 
autodockgpu

>  <m_score__min__energy>  (35) 
-8.8800000000000008

>  <m_primary>  (35) 
energy

>  <rmsd>  (35) 
10.710200630384918

>  <m_score__min__rmsd>  (35) 
10.710200630384918

>  <meeko>  (35) 
{"free_energy": -8.65, "intermolecular_energy": -10.74, "internal_energy": -1.59, "cluster_size": 17, "cluster_id": 2, "rank_in_cluster": 6}

>  <energy>  (35) 
-7.71

>  <cluster_rmsd>  (35) 
0.62

>  <cluster>  (35) 
6

$$$$

     RDKit          3D

 55 58  0  0  0  0  0  0  0  0999 V2000
  145.7990   71.5530  220.0870 N   0  0  0  0  0  0  0  0  0  0  0  0
  145.7360   73.2280  219.6640 S   0  0  0  0  0  0  0  0  0  0  0  0
  146.7420   73.9800  220.4690 O   0  0  0  0  0  0  0  0  0  0  0  0
  146.0360   73.4040  218.2080 O   0  0  0  0  0  0  0  0  0  0  0  0
  144.1400   73.8190  220.0220 C   0  0  0  0  0  0  0  0  0  0  0  0
  143.2480   72.9780  220.6270 C   0  0  0  0  0  0  0  0  0  0  0  0
  141.9630   73.4230  220.9260 C   0  0  0  0  0  0  0  0  0  0  0  0
  141.5190   74.6880  220.6450 C   0  0  0  0  0  0  0  0  0  0  0  0
  140.3290   75.2420  220.8720 O   0  0  0  0  0  0  0  0  0  0  0  0
  139.5890   75.5530  221.9880 C   0  0  0  0  0  0  0  0  0  0  0  0
  139.6560   76.9910  222.3540 C   0  0  0  0  0  0  0  0  0  0  0  0
  140.9290   77.4270  222.6450 N   0  0  0  0  0  0  0  0  0  0  0  0
  141.1940   78.6800  223.0200 C   0  0  0  0  0  0  0  0  0  0  0  0
  142.4950   79.0570  223.2990 C   0  0  0  0  0  0  0  0  0  0  0  0
  142.7090   80.3700  223.6850 C   0  0  0  0  0  0  0  0  0  0  0  0
  141.6670   81.2690  223.7880 C   0  0  0  0  0  0  0  0  0  0  0  0
  140.3810   80.8420  223.4970 C   0  0  0  0  0  0  0  0  0  0  0  0
  140.1240   79.5430  223.1090 C   0  0  0  0  0  0  0  0  0  0  0  0
  138.8480   79.0960  222.8140 C   0  0  0  0  0  0  0  0  0  0  0  0
  137.9350   79.9540  222.9270 O   0  0  0  0  0  0  0  0  0  0  0  0
  138.5970   77.8100  222.4280 N   0  0  0  0  0  0  0  0  0  0  0  0
  137.2500   77.4790  222.1110 C   0  0  0  0  0  0  0  0  0  0  0  0
  136.5000   76.6220  223.0800 C   0  0  0  0  0  0  0  0  0  0  0  0
  136.5070   75.1650  222.7440 C   0  0  0  0  0  0  0  0  0  0  0  0
  135.4580   74.3760  223.4970 C   0  0  0  0  0  0  0  0  0  0  0  0
  135.2890   75.0010  224.8670 C   0  0  0  0  0  0  0  0  0  0  0  0
  134.7070   76.3710  224.7360 C   0  0  0  0  0  0  0  0  0  0  0  0
  135.1320   77.0690  223.4530 C   0  0  0  0  0  0  0  0  0  0  0  0
  142.4870   75.5130  220.0200 C   0  0  0  0  0  0  0  0  0  0  0  0
  143.7380   75.0880  219.7270 C   0  0  0  0  0  0  0  0  0  0  0  0
  144.9880   71.2610  220.6710 H   0  0  0  0  0  0  0  0  0  0  0  0
  146.7020   71.2920  220.5380 H   0  0  0  0  0  0  0  0  0  0  0  0
  143.5456   71.9491  220.8777 H   0  0  0  0  0  0  0  0  0  0  0  0
  141.2685   72.7226  221.4130 H   0  0  0  0  0  0  0  0  0  0  0  0
  138.5384   75.2902  221.7950 H   0  0  0  0  0  0  0  0  0  0  0  0
  140.0107   74.9823  222.8286 H   0  0  0  0  0  0  0  0  0  0  0  0
  143.3272   78.3423  223.2176 H   0  0  0  0  0  0  0  0  0  0  0  0
  143.7318   80.7034  223.9144 H   0  0  0  0  0  0  0  0  0  0  0  0
  141.8542   82.3082  224.0962 H   0  0  0  0  0  0  0  0  0  0  0  0
  139.5467   81.5544  223.5771 H   0  0  0  0  0  0  0  0  0  0  0  0
  136.6947   78.4230  222.0087 H   0  0  0  0  0  0  0  0  0  0  0  0
  137.3201   76.8707  221.1971 H   0  0  0  0  0  0  0  0  0  0  0  0
  137.1040   76.7689  223.9875 H   0  0  0  0  0  0  0  0  0  0  0  0
  136.3213   75.0538  221.6655 H   0  0  0  0  0  0  0  0  0  0  0  0
  137.4895   74.7661  223.0366 H   0  0  0  0  0  0  0  0  0  0  0  0
  134.5033   74.4104  222.9516 H   0  0  0  0  0  0  0  0  0  0  0  0
  135.7695   73.3255  223.5942 H   0  0  0  0  0  0  0  0  0  0  0  0
  134.6160   74.3757  225.4720 H   0  0  0  0  0  0  0  0  0  0  0  0
  136.2722   75.0718  225.3551 H   0  0  0  0  0  0  0  0  0  0  0  0
  133.6100   76.2898  224.7457 H   0  0  0  0  0  0  0  0  0  0  0  0
  135.0778   76.9717  225.5796 H   0  0  0  0  0  0  0  0  0  0  0  0
  134.4294   76.8140  222.6460 H   0  0  0  0  0  0  0  0  0  0  0  0
  135.1298   78.1580  223.6080 H   0  0  0  0  0  0  0  0  0  0  0  0
  142.2090   76.5454  219.7614 H   0  0  0  0  0  0  0  0  0  0  0  0
  144.4433   75.7789  219.2420 H   0  0  0  0  0  0  0  0  0  0  0  0
  1  2  1  0
  2  3  2  0
  2  4  2  0
  2  5  1  0
  5  6  2  0
  6  7  1  0
  7  8  2  0
  8  9  1  0
  9 10  1  0
 10 11  1  0
 11 12  2  0
 12 13  1  0
 13 14  2  0
 14 15  1  0
 15 16  2  0
 16 17  1  0
 17 18  2  0
 18 19  1  0
 19 20  2  0
 19 21  1  0
 21 22  1  0
 22 23  1  0
 23 24  1  0
 24 25  1  0
 25 26  1  0
 26 27  1  0
 27 28  1  0
  8 29  1  0
 29 30  2  0
 30  5  1  0
 21 11  1  0
 28 23  1  0
 18 13  1  0
  1 31  1  0
  1 32  1  0
  6 33  1  0
  7 34  1  0
 10 35  1  0
 10 36  1  0
 14 37  1  0
 15 38  1  0
 16 39  1  0
 17 40  1  0
 22 41  1  0
 22 42  1  0
 23 43  1  0
 24 44  1  0
 24 45  1  0
 25 46  1  0
 25 47  1  0
 26 48  1  0
 26 49  1  0
 27 50  1  0
 27 51  1  0
 28 52  1  0
 28 53  1  0
 29 54  1  0
 30 55  1  0
M  END
>  <smiles>  (36) 
NS(=O)(=O)c1ccc(OCc2nc3ccccc3c(=O)n2CC2CCCCC2)cc1

>  <score_type>  (36) 
oracle

>  <origin>  (36) 
autodockgpu

>  <m_score__min__energy>  (36) 
-8.8800000000000008

>  <m_primary>  (36) 
energy

>  <rmsd>  (36) 
5.731185357826973

>  <m_score__min__rmsd>  (36) 
5.731185357826973

>  <meeko>  (36) 
{"free_energy": -8.33, "intermolecular_energy": -10.42, "internal_energy": -1.22, "cluster_size": 4, "cluster_id": 4, "rank_in_cluster": 4}

>  <energy>  (36) 
-7.7

>  <cluster_rmsd>  (36) 
1.16

>  <cluster>  (36) 
6

$$$$

     RDKit          3D

 55 58  0  0  0  0  0  0  0  0999 V2000
  139.5870   67.3590  227.0300 N   0  0  0  0  0  0  0  0  0  0  0  0
  140.1140   68.9310  227.5170 S   0  0  0  0  0  0  0  0  0  0  0  0
  139.1320   69.5060  228.4820 O   0  0  0  0  0  0  0  0  0  0  0  0
  141.4580   68.8440  228.1720 O   0  0  0  0  0  0  0  0  0  0  0  0
  140.2020   69.9370  226.1010 C   0  0  0  0  0  0  0  0  0  0  0  0
  139.5900   69.5140  224.9550 C   0  0  0  0  0  0  0  0  0  0  0  0
  139.6430   70.2980  223.8060 C   0  0  0  0  0  0  0  0  0  0  0  0
  140.2890   71.5040  223.7460 C   0  0  0  0  0  0  0  0  0  0  0  0
  140.4190   72.3490  222.7240 O   0  0  0  0  0  0  0  0  0  0  0  0
  139.6070   73.2640  222.0990 C   0  0  0  0  0  0  0  0  0  0  0  0
  140.3340   74.4720  221.6310 C   0  0  0  0  0  0  0  0  0  0  0  0
  140.0520   75.6040  222.3620 N   0  0  0  0  0  0  0  0  0  0  0  0
  140.5860   76.7940  222.0830 C   0  0  0  0  0  0  0  0  0  0  0  0
  140.2630   77.8940  222.8560 C   0  0  0  0  0  0  0  0  0  0  0  0
  140.8460   79.1050  222.5190 C   0  0  0  0  0  0  0  0  0  0  0  0
  141.7160   79.2110  221.4520 C   0  0  0  0  0  0  0  0  0  0  0  0
  142.0080   78.0790  220.7090 C   0  0  0  0  0  0  0  0  0  0  0  0
  141.4490   76.8550  221.0110 C   0  0  0  0  0  0  0  0  0  0  0  0
  141.7280   75.7110  220.2820 C   0  0  0  0  0  0  0  0  0  0  0  0
  142.5230   75.8650  219.3200 O   0  0  0  0  0  0  0  0  0  0  0  0
  141.1740   74.5000  220.5860 N   0  0  0  0  0  0  0  0  0  0  0  0
  141.5680   73.3880  219.7890 C   0  0  0  0  0  0  0  0  0  0  0  0
  143.0280   73.0770  219.7090 C   0  0  0  0  0  0  0  0  0  0  0  0
  143.3340   71.6430  219.4110 C   0  0  0  0  0  0  0  0  0  0  0  0
  144.7720   71.2700  219.7010 C   0  0  0  0  0  0  0  0  0  0  0  0
  145.6430   72.4750  219.4050 C   0  0  0  0  0  0  0  0  0  0  0  0
  145.3390   73.5740  220.3700 C   0  0  0  0  0  0  0  0  0  0  0  0
  143.8840   73.5780  220.8170 C   0  0  0  0  0  0  0  0  0  0  0  0
  140.9030   71.8900  224.9630 C   0  0  0  0  0  0  0  0  0  0  0  0
  140.8560   71.1330  226.0840 C   0  0  0  0  0  0  0  0  0  0  0  0
  138.8450   66.9780  227.6540 H   0  0  0  0  0  0  0  0  0  0  0  0
  140.3790   66.6870  226.9330 H   0  0  0  0  0  0  0  0  0  0  0  0
  139.0549   68.5530  224.9403 H   0  0  0  0  0  0  0  0  0  0  0  0
  139.1401   69.9299  222.8996 H   0  0  0  0  0  0  0  0  0  0  0  0
  139.1394   72.7792  221.2293 H   0  0  0  0  0  0  0  0  0  0  0  0
  138.8631   73.5973  222.8376 H   0  0  0  0  0  0  0  0  0  0  0  0
  139.5697   77.8109  223.7060 H   0  0  0  0  0  0  0  0  0  0  0  0
  140.6110   80.0001  223.1136 H   0  0  0  0  0  0  0  0  0  0  0  0
  142.1702   80.1796  221.1959 H   0  0  0  0  0  0  0  0  0  0  0  0
  142.7015   78.1582  219.8588 H   0  0  0  0  0  0  0  0  0  0  0  0
  141.0635   72.4980  220.1933 H   0  0  0  0  0  0  0  0  0  0  0  0
  141.2846   73.6652  218.7629 H   0  0  0  0  0  0  0  0  0  0  0  0
  143.3146   73.6800  218.8348 H   0  0  0  0  0  0  0  0  0  0  0  0
  142.6773   71.0098  220.0257 H   0  0  0  0  0  0  0  0  0  0  0  0
  143.1657   71.4885  218.3350 H   0  0  0  0  0  0  0  0  0  0  0  0
  144.8769   70.9855  220.7584 H   0  0  0  0  0  0  0  0  0  0  0  0
  145.0770   70.4180  219.0757 H   0  0  0  0  0  0  0  0  0  0  0  0
  146.7016   72.1910  219.4979 H   0  0  0  0  0  0  0  0  0  0  0  0
  145.4394   72.8255  218.3824 H   0  0  0  0  0  0  0  0  0  0  0  0
  145.9790   73.4511  221.2562 H   0  0  0  0  0  0  0  0  0  0  0  0
  145.5317   74.5283  219.8579 H   0  0  0  0  0  0  0  0  0  0  0  0
  143.7676   72.9257  221.6950 H   0  0  0  0  0  0  0  0  0  0  0  0
  143.5825   74.6024  221.0812 H   0  0  0  0  0  0  0  0  0  0  0  0
  141.4422   72.8481  224.9985 H   0  0  0  0  0  0  0  0  0  0  0  0
  141.3544   71.4892  226.9976 H   0  0  0  0  0  0  0  0  0  0  0  0
  1  2  1  0
  2  3  2  0
  2  4  2  0
  2  5  1  0
  5  6  2  0
  6  7  1  0
  7  8  2  0
  8  9  1  0
  9 10  1  0
 10 11  1  0
 11 12  2  0
 12 13  1  0
 13 14  2  0
 14 15  1  0
 15 16  2  0
 16 17  1  0
 17 18  2  0
 18 19  1  0
 19 20  2  0
 19 21  1  0
 21 22  1  0
 22 23  1  0
 23 24  1  0
 24 25  1  0
 25 26  1  0
 26 27  1  0
 27 28  1  0
  8 29  1  0
 29 30  2  0
 30  5  1  0
 21 11  1  0
 28 23  1  0
 18 13  1  0
  1 31  1  0
  1 32  1  0
  6 33  1  0
  7 34  1  0
 10 35  1  0
 10 36  1  0
 14 37  1  0
 15 38  1  0
 16 39  1  0
 17 40  1  0
 22 41  1  0
 22 42  1  0
 23 43  1  0
 24 44  1  0
 24 45  1  0
 25 46  1  0
 25 47  1  0
 26 48  1  0
 26 49  1  0
 27 50  1  0
 27 51  1  0
 28 52  1  0
 28 53  1  0
 29 54  1  0
 30 55  1  0
M  END
>  <smiles>  (37) 
NS(=O)(=O)c1ccc(OCc2nc3ccccc3c(=O)n2CC2CCCCC2)cc1

>  <score_type>  (37) 
oracle

>  <origin>  (37) 
autodockgpu

>  <m_score__min__energy>  (37) 
-8.8800000000000008

>  <m_primary>  (37) 
energy

>  <rmsd>  (37) 
5.393143139320704

>  <m_score__min__rmsd>  (37) 
5.393143139320704

>  <meeko>  (37) 
{"free_energy": -8.65, "intermolecular_energy": -10.74, "internal_energy": -1.25, "cluster_size": 4, "cluster_id": 3, "rank_in_cluster": 1}

>  <energy>  (37) 
-7.69

>  <cluster_rmsd>  (37) 
0.37

>  <cluster>  (37) 
6

$$$$

     RDKit          3D

 55 58  0  0  0  0  0  0  0  0999 V2000
  146.0750   73.4010  218.1130 N   0  0  0  0  0  0  0  0  0  0  0  0
  145.5790   72.3170  219.3650 S   0  0  0  0  0  0  0  0  0  0  0  0
  145.3140   70.9710  218.7790 O   0  0  0  0  0  0  0  0  0  0  0  0
  146.6540   72.2010  220.4020 O   0  0  0  0  0  0  0  0  0  0  0  0
  144.1230   72.9420  220.0810 C   0  0  0  0  0  0  0  0  0  0  0  0
  143.1420   72.0640  220.4490 C   0  0  0  0  0  0  0  0  0  0  0  0
  141.9650   72.5350  221.0240 C   0  0  0  0  0  0  0  0  0  0  0  0
  141.7160   73.8620  221.2520 C   0  0  0  0  0  0  0  0  0  0  0  0
  140.6450   74.4470  221.7880 O   0  0  0  0  0  0  0  0  0  0  0  0
  139.7960   75.4620  221.4200 C   0  0  0  0  0  0  0  0  0  0  0  0
  140.4540   76.7920  221.3780 C   0  0  0  0  0  0  0  0  0  0  0  0
  140.8180   77.2670  222.6180 N   0  0  0  0  0  0  0  0  0  0  0  0
  141.4000   78.4540  222.7940 C   0  0  0  0  0  0  0  0  0  0  0  0
  141.7420   78.8750  224.0660 C   0  0  0  0  0  0  0  0  0  0  0  0
  142.3420   80.1170  224.1880 C   0  0  0  0  0  0  0  0  0  0  0  0
  142.5890   80.9070  223.0830 C   0  0  0  0  0  0  0  0  0  0  0  0
  142.2280   80.4410  221.8300 C   0  0  0  0  0  0  0  0  0  0  0  0
  141.6280   79.2100  221.6650 C   0  0  0  0  0  0  0  0  0  0  0  0
  141.2600   78.7240  220.4220 C   0  0  0  0  0  0  0  0  0  0  0  0
  141.5050   79.4850  219.4510 O   0  0  0  0  0  0  0  0  0  0  0  0
  140.6690   77.5040  220.2620 N   0  0  0  0  0  0  0  0  0  0  0  0
  140.3730   77.0950  218.9310 C   0  0  0  0  0  0  0  0  0  0  0  0
  141.3960   76.2730  218.2150 C   0  0  0  0  0  0  0  0  0  0  0  0
  142.7420   76.9180  218.1150 C   0  0  0  0  0  0  0  0  0  0  0  0
  143.6390   76.2630  217.0870 C   0  0  0  0  0  0  0  0  0  0  0  0
  143.3280   74.7800  217.0620 C   0  0  0  0  0  0  0  0  0  0  0  0
  141.9440   74.5560  216.5490 C   0  0  0  0  0  0  0  0  0  0  0  0
  140.9930   75.6890  216.9080 C   0  0  0  0  0  0  0  0  0  0  0  0
  142.7680   74.7230  220.8510 C   0  0  0  0  0  0  0  0  0  0  0  0
  143.9140   74.2720  220.2910 C   0  0  0  0  0  0  0  0  0  0  0  0
  146.9990   73.8380  218.3090 H   0  0  0  0  0  0  0  0  0  0  0  0
  145.3520   74.1230  217.9050 H   0  0  0  0  0  0  0  0  0  0  0  0
  143.2828   70.9846  220.2907 H   0  0  0  0  0  0  0  0  0  0  0  0
  141.1951   71.8033  221.3100 H   0  0  0  0  0  0  0  0  0  0  0  0
  139.3972   75.2381  220.4196 H   0  0  0  0  0  0  0  0  0  0  0  0
  139.0028   75.5149  222.1803 H   0  0  0  0  0  0  0  0  0  0  0  0
  141.5449   78.2471  224.9474 H   0  0  0  0  0  0  0  0  0  0  0  0
  142.6277   80.4817  225.1857 H   0  0  0  0  0  0  0  0  0  0  0  0
  143.0655   81.8919  223.1963 H   0  0  0  0  0  0  0  0  0  0  0  0
  142.4241   81.0664  220.9466 H   0  0  0  0  0  0  0  0  0  0  0  0
  139.4443   76.5065  218.9666 H   0  0  0  0  0  0  0  0  0  0  0  0
  140.3166   78.0319  218.3573 H   0  0  0  0  0  0  0  0  0  0  0  0
  141.4771   75.4136  218.8968 H   0  0  0  0  0  0  0  0  0  0  0  0
  142.6047   77.9737  217.8380 H   0  0  0  0  0  0  0  0  0  0  0  0
  143.2314   76.8095  219.0942 H   0  0  0  0  0  0  0  0  0  0  0  0
  143.4495   76.6998  216.0954 H   0  0  0  0  0  0  0  0  0  0  0  0
  144.6955   76.4249  217.3469 H   0  0  0  0  0  0  0  0  0  0  0  0
  144.0470   74.2683  216.4053 H   0  0  0  0  0  0  0  0  0  0  0  0
  143.4034   74.3785  218.0833 H   0  0  0  0  0  0  0  0  0  0  0  0
  141.9853   74.4652  215.4535 H   0  0  0  0  0  0  0  0  0  0  0  0
  141.5601   73.6388  217.0194 H   0  0  0  0  0  0  0  0  0  0  0  0
  141.0358   76.4652  216.1298 H   0  0  0  0  0  0  0  0  0  0  0  0
  139.9665   75.3002  216.9788 H   0  0  0  0  0  0  0  0  0  0  0  0
  142.6473   75.8059  221.0018 H   0  0  0  0  0  0  0  0  0  0  0  0
  144.6921   74.9929  219.9996 H   0  0  0  0  0  0  0  0  0  0  0  0
  1  2  1  0
  2  3  2  0
  2  4  2  0
  2  5  1  0
  5  6  2  0
  6  7  1  0
  7  8  2  0
  8  9  1  0
  9 10  1  0
 10 11  1  0
 11 12  2  0
 12 13  1  0
 13 14  2  0
 14 15  1  0
 15 16  2  0
 16 17  1  0
 17 18  2  0
 18 19  1  0
 19 20  2  0
 19 21  1  0
 21 22  1  0
 22 23  1  0
 23 24  1  0
 24 25  1  0
 25 26  1  0
 26 27  1  0
 27 28  1  0
  8 29  1  0
 29 30  2  0
 30  5  1  0
 21 11  1  0
 28 23  1  0
 18 13  1  0
  1 31  1  0
  1 32  1  0
  6 33  1  0
  7 34  1  0
 10 35  1  0
 10 36  1  0
 14 37  1  0
 15 38  1  0
 16 39  1  0
 17 40  1  0
 22 41  1  0
 22 42  1  0
 23 43  1  0
 24 44  1  0
 24 45  1  0
 25 46  1  0
 25 47  1  0
 26 48  1  0
 26 49  1  0
 27 50  1  0
 27 51  1  0
 28 52  1  0
 28 53  1  0
 29 54  1  0
 30 55  1  0
M  END
>  <smiles>  (38) 
NS(=O)(=O)c1ccc(OCc2nc3ccccc3c(=O)n2CC2CCCCC2)cc1

>  <score_type>  (38) 
oracle

>  <origin>  (38) 
autodockgpu

>  <m_score__min__energy>  (38) 
-8.8800000000000008

>  <m_primary>  (38) 
energy

>  <rmsd>  (38) 
3.6190334965468454

>  <m_score__min__rmsd>  (38) 
3.6190334965468454

>  <meeko>  (38) 
{"free_energy": -7.53, "intermolecular_energy": -9.62, "internal_energy": -2.28, "cluster_size": 16, "cluster_id": 6, "rank_in_cluster": 10}

>  <energy>  (38) 
-7.67

>  <cluster_rmsd>  (38) 
1.16

>  <cluster>  (38) 
6

$$$$

     RDKit          3D

 55 58  0  0  0  0  0  0  0  0999 V2000
  133.1340   72.6020  227.5950 N   0  0  0  0  0  0  0  0  0  0  0  0
  133.5250   73.2670  226.0480 S   0  0  0  0  0  0  0  0  0  0  0  0
  132.2660   73.6100  225.3240 O   0  0  0  0  0  0  0  0  0  0  0  0
  134.3530   74.5040  226.2130 O   0  0  0  0  0  0  0  0  0  0  0  0
  134.4090   72.0690  225.1490 C   0  0  0  0  0  0  0  0  0  0  0  0
  134.3960   70.7750  225.5890 C   0  0  0  0  0  0  0  0  0  0  0  0
  135.0940   69.7950  224.8900 C   0  0  0  0  0  0  0  0  0  0  0  0
  135.8170   70.0480  223.7550 C   0  0  0  0  0  0  0  0  0  0  0  0
  136.5260   69.2150  222.9950 O   0  0  0  0  0  0  0  0  0  0  0  0
  137.7040   68.5220  223.1350 C   0  0  0  0  0  0  0  0  0  0  0  0
  138.6200   69.1190  224.1400 C   0  0  0  0  0  0  0  0  0  0  0  0
  138.8810   68.2920  225.2090 N   0  0  0  0  0  0  0  0  0  0  0  0
  139.6600   68.6550  226.2300 C   0  0  0  0  0  0  0  0  0  0  0  0
  139.8830   67.7780  227.2750 C   0  0  0  0  0  0  0  0  0  0  0  0
  140.6990   68.2100  228.3070 C   0  0  0  0  0  0  0  0  0  0  0  0
  141.2690   69.4670  228.2950 C   0  0  0  0  0  0  0  0  0  0  0  0
  141.0150   70.3090  227.2250 C   0  0  0  0  0  0  0  0  0  0  0  0
  140.2070   69.9170  226.1770 C   0  0  0  0  0  0  0  0  0  0  0  0
  139.9420   70.7420  225.0970 C   0  0  0  0  0  0  0  0  0  0  0  0
  140.4820   71.8770  225.1380 O   0  0  0  0  0  0  0  0  0  0  0  0
  139.1440   70.3510  224.0600 N   0  0  0  0  0  0  0  0  0  0  0  0
  138.9770   71.2710  222.9870 C   0  0  0  0  0  0  0  0  0  0  0  0
  140.1810   71.6050  222.1670 C   0  0  0  0  0  0  0  0  0  0  0  0
  140.4610   73.0710  222.0570 C   0  0  0  0  0  0  0  0  0  0  0  0
  141.4300   73.4090  220.9450 C   0  0  0  0  0  0  0  0  0  0  0  0
  142.4260   72.2730  220.8220 C   0  0  0  0  0  0  0  0  0  0  0  0
  141.7340   71.0350  220.3540 C   0  0  0  0  0  0  0  0  0  0  0  0
  140.2940   70.9470  220.8380 C   0  0  0  0  0  0  0  0  0  0  0  0
  135.7930   71.4050  223.3480 C   0  0  0  0  0  0  0  0  0  0  0  0
  135.1170   72.3640  224.0230 C   0  0  0  0  0  0  0  0  0  0  0  0
  132.4440   71.8260  227.5310 H   0  0  0  0  0  0  0  0  0  0  0  0
  132.8190   73.3310  228.2720 H   0  0  0  0  0  0  0  0  0  0  0  0
  133.8336   70.5083  226.4959 H   0  0  0  0  0  0  0  0  0  0  0  0
  135.0634   68.7628  225.2691 H   0  0  0  0  0  0  0  0  0  0  0  0
  137.4692   67.4928  223.4443 H   0  0  0  0  0  0  0  0  0  0  0  0
  138.2193   68.5551  222.1637 H   0  0  0  0  0  0  0  0  0  0  0  0
  139.4298   66.7758  227.2863 H   0  0  0  0  0  0  0  0  0  0  0  0
  140.8972   67.5371  229.1543 H   0  0  0  0  0  0  0  0  0  0  0  0
  141.9151   69.7951  229.1226 H   0  0  0  0  0  0  0  0  0  0  0  0
  141.4670   71.3117  227.2102 H   0  0  0  0  0  0  0  0  0  0  0  0
  138.2224   70.8494  222.3067 H   0  0  0  0  0  0  0  0  0  0  0  0
  138.6987   72.2181  223.4724 H   0  0  0  0  0  0  0  0  0  0  0  0
  140.9730   71.1471  222.7778 H   0  0  0  0  0  0  0  0  0  0  0  0
  139.5128   73.5951  221.8663 H   0  0  0  0  0  0  0  0  0  0  0  0
  140.9242   73.3881  223.0030 H   0  0  0  0  0  0  0  0  0  0  0  0
  140.8830   73.5286  219.9982 H   0  0  0  0  0  0  0  0  0  0  0  0
  141.9533   74.3499  221.1704 H   0  0  0  0  0  0  0  0  0  0  0  0
  143.2066   72.5498  220.0980 H   0  0  0  0  0  0  0  0  0  0  0  0
  142.8799   72.0828  221.8058 H   0  0  0  0  0  0  0  0  0  0  0  0
  141.7365   71.0252  219.2541 H   0  0  0  0  0  0  0  0  0  0  0  0
  142.2771   70.1738  220.7704 H   0  0  0  0  0  0  0  0  0  0  0  0
  139.6332   71.4541  220.1195 H   0  0  0  0  0  0  0  0  0  0  0  0
  139.9978   69.8911  220.9233 H   0  0  0  0  0  0  0  0  0  0  0  0
  136.3486   71.6920  222.4430 H   0  0  0  0  0  0  0  0  0  0  0  0
  135.1397   73.4006  223.6556 H   0  0  0  0  0  0  0  0  0  0  0  0
  1  2  1  0
  2  3  2  0
  2  4  2  0
  2  5  1  0
  5  6  2  0
  6  7  1  0
  7  8  2  0
  8  9  1  0
  9 10  1  0
 10 11  1  0
 11 12  2  0
 12 13  1  0
 13 14  2  0
 14 15  1  0
 15 16  2  0
 16 17  1  0
 17 18  2  0
 18 19  1  0
 19 20  2  0
 19 21  1  0
 21 22  1  0
 22 23  1  0
 23 24  1  0
 24 25  1  0
 25 26  1  0
 26 27  1  0
 27 28  1  0
  8 29  1  0
 29 30  2  0
 30  5  1  0
 21 11  1  0
 28 23  1  0
 18 13  1  0
  1 31  1  0
  1 32  1  0
  6 33  1  0
  7 34  1  0
 10 35  1  0
 10 36  1  0
 14 37  1  0
 15 38  1  0
 16 39  1  0
 17 40  1  0
 22 41  1  0
 22 42  1  0
 23 43  1  0
 24 44  1  0
 24 45  1  0
 25 46  1  0
 25 47  1  0
 26 48  1  0
 26 49  1  0
 27 50  1  0
 27 51  1  0
 28 52  1  0
 28 53  1  0
 29 54  1  0
 30 55  1  0
M  END
>  <smiles>  (39) 
NS(=O)(=O)c1ccc(OCc2nc3ccccc3c(=O)n2CC2CCCCC2)cc1

>  <score_type>  (39) 
oracle

>  <origin>  (39) 
autodockgpu

>  <m_score__min__energy>  (39) 
-8.8800000000000008

>  <m_primary>  (39) 
energy

>  <rmsd>  (39) 
10.459864017889934

>  <m_score__min__rmsd>  (39) 
10.459864017889934

>  <meeko>  (39) 
{"free_energy": -7.9, "intermolecular_energy": -9.99, "internal_energy": -1.65, "cluster_size": 4, "cluster_id": 5, "rank_in_cluster": 2}

>  <energy>  (39) 
-7.66

>  <cluster_rmsd>  (39) 
1.16

>  <cluster>  (39) 
6

$$$$

     RDKit          3D

 55 58  0  0  0  0  0  0  0  0999 V2000
  146.1730   73.3890  218.5650 N   0  0  0  0  0  0  0  0  0  0  0  0
  145.6760   72.4930  219.9570 S   0  0  0  0  0  0  0  0  0  0  0  0
  145.5940   71.0440  219.6100 O   0  0  0  0  0  0  0  0  0  0  0  0
  146.6610   72.6810  221.0690 O   0  0  0  0  0  0  0  0  0  0  0  0
  144.1090   73.0690  220.4430 C   0  0  0  0  0  0  0  0  0  0  0  0
  143.8740   74.4160  220.4410 C   0  0  0  0  0  0  0  0  0  0  0  0
  142.6290   74.9060  220.8250 C   0  0  0  0  0  0  0  0  0  0  0  0
  141.5900   74.1030  221.2160 C   0  0  0  0  0  0  0  0  0  0  0  0
  140.3600   74.4340  221.6060 O   0  0  0  0  0  0  0  0  0  0  0  0
  139.5790   75.5620  221.5340 C   0  0  0  0  0  0  0  0  0  0  0  0
  140.3670   76.8180  221.4650 C   0  0  0  0  0  0  0  0  0  0  0  0
  140.7060   77.3260  222.6990 N   0  0  0  0  0  0  0  0  0  0  0  0
  141.3920   78.4600  222.8490 C   0  0  0  0  0  0  0  0  0  0  0  0
  141.7010   78.9180  224.1160 C   0  0  0  0  0  0  0  0  0  0  0  0
  142.4140   80.1020  224.2110 C   0  0  0  0  0  0  0  0  0  0  0  0
  142.8000   80.8000  223.0840 C   0  0  0  0  0  0  0  0  0  0  0  0
  142.4660   80.3000  221.8370 C   0  0  0  0  0  0  0  0  0  0  0  0
  141.7570   79.1240  221.6990 C   0  0  0  0  0  0  0  0  0  0  0  0
  141.4140   78.6060  220.4620 C   0  0  0  0  0  0  0  0  0  0  0  0
  141.7870   79.2830  219.4700 O   0  0  0  0  0  0  0  0  0  0  0  0
  140.7140   77.4410  220.3280 N   0  0  0  0  0  0  0  0  0  0  0  0
  140.4550   76.9870  219.0050 C   0  0  0  0  0  0  0  0  0  0  0  0
  141.5770   76.3320  218.2650 C   0  0  0  0  0  0  0  0  0  0  0  0
  142.4260   77.2780  217.4750 C   0  0  0  0  0  0  0  0  0  0  0  0
  143.3000   76.5810  216.4550 C   0  0  0  0  0  0  0  0  0  0  0  0
  143.7070   75.2360  217.0210 C   0  0  0  0  0  0  0  0  0  0  0  0
  142.5100   74.3530  217.1530 C   0  0  0  0  0  0  0  0  0  0  0  0
  141.2370   75.1310  217.4570 C   0  0  0  0  0  0  0  0  0  0  0  0
  141.8930   72.7190  221.1970 C   0  0  0  0  0  0  0  0  0  0  0  0
  143.1010   72.2350  220.8250 C   0  0  0  0  0  0  0  0  0  0  0  0
  147.0590   73.9120  218.7240 H   0  0  0  0  0  0  0  0  0  0  0  0
  145.4220   74.0200  218.2100 H   0  0  0  0  0  0  0  0  0  0  0  0
  144.6689   75.1125  220.1359 H   0  0  0  0  0  0  0  0  0  0  0  0
  142.4711   75.9945  220.8140 H   0  0  0  0  0  0  0  0  0  0  0  0
  138.9501   75.4944  220.6340 H   0  0  0  0  0  0  0  0  0  0  0  0
  138.9802   75.6032  222.4558 H   0  0  0  0  0  0  0  0  0  0  0  0
  141.3926   78.3635  225.0146 H   0  0  0  0  0  0  0  0  0  0  0  0
  142.6779   80.4939  225.2043 H   0  0  0  0  0  0  0  0  0  0  0  0
  143.3646   81.7396  223.1756 H   0  0  0  0  0  0  0  0  0  0  0  0
  142.7725   80.8522  220.9364 H   0  0  0  0  0  0  0  0  0  0  0  0
  139.6304   76.2612  219.0618 H   0  0  0  0  0  0  0  0  0  0  0  0
  140.2402   77.9018  218.4332 H   0  0  0  0  0  0  0  0  0  0  0  0
  142.1766   75.9498  219.1043 H   0  0  0  0  0  0  0  0  0  0  0  0
  141.7667   77.9831  216.9476 H   0  0  0  0  0  0  0  0  0  0  0  0
  143.0935   77.7898  218.1839 H   0  0  0  0  0  0  0  0  0  0  0  0
  142.7388   76.4372  215.5199 H   0  0  0  0  0  0  0  0  0  0  0  0
  144.1915   77.1884  216.2400 H   0  0  0  0  0  0  0  0  0  0  0  0
  144.4360   74.7627  216.3467 H   0  0  0  0  0  0  0  0  0  0  0  0
  144.1574   75.3838  218.0136 H   0  0  0  0  0  0  0  0  0  0  0  0
  142.3709   73.8053  216.2093 H   0  0  0  0  0  0  0  0  0  0  0  0
  142.6918   73.6705  217.9963 H   0  0  0  0  0  0  0  0  0  0  0  0
  140.7636   75.4439  216.5147 H   0  0  0  0  0  0  0  0  0  0  0  0
  140.5403   74.4927  218.0203 H   0  0  0  0  0  0  0  0  0  0  0  0
  141.1114   72.0059  221.4981 H   0  0  0  0  0  0  0  0  0  0  0  0
  143.2724   71.1485  220.8311 H   0  0  0  0  0  0  0  0  0  0  0  0
  1  2  1  0
  2  3  2  0
  2  4  2  0
  2  5  1  0
  5  6  2  0
  6  7  1  0
  7  8  2  0
  8  9  1  0
  9 10  1  0
 10 11  1  0
 11 12  2  0
 12 13  1  0
 13 14  2  0
 14 15  1  0
 15 16  2  0
 16 17  1  0
 17 18  2  0
 18 19  1  0
 19 20  2  0
 19 21  1  0
 21 22  1  0
 22 23  1  0
 23 24  1  0
 24 25  1  0
 25 26  1  0
 26 27  1  0
 27 28  1  0
  8 29  1  0
 29 30  2  0
 30  5  1  0
 21 11  1  0
 28 23  1  0
 18 13  1  0
  1 31  1  0
  1 32  1  0
  6 33  1  0
  7 34  1  0
 10 35  1  0
 10 36  1  0
 14 37  1  0
 15 38  1  0
 16 39  1  0
 17 40  1  0
 22 41  1  0
 22 42  1  0
 23 43  1  0
 24 44  1  0
 24 45  1  0
 25 46  1  0
 25 47  1  0
 26 48  1  0
 26 49  1  0
 27 50  1  0
 27 51  1  0
 28 52  1  0
 28 53  1  0
 29 54  1  0
 30 55  1  0
M  END
>  <smiles>  (40) 
NS(=O)(=O)c1ccc(OCc2nc3ccccc3c(=O)n2CC2CCCCC2)cc1

>  <score_type>  (40) 
oracle

>  <origin>  (40) 
autodockgpu

>  <m_score__min__energy>  (40) 
-8.8800000000000008

>  <m_primary>  (40) 
energy

>  <rmsd>  (40) 
3.676091367704981

>  <m_score__min__rmsd>  (40) 
3.676091367704981

>  <meeko>  (40) 
{"free_energy": -7.9, "intermolecular_energy": -9.99, "internal_energy": -2.2, "cluster_size": 16, "cluster_id": 6, "rank_in_cluster": 1}

>  <energy>  (40) 
-7.62

>  <cluster_rmsd>  (40) 
0.56

>  <cluster>  (40) 
6

$$$$

     RDKit          3D

 55 58  0  0  0  0  0  0  0  0999 V2000
  139.6760   68.4980  227.7300 N   0  0  0  0  0  0  0  0  0  0  0  0
  140.2690   68.1580  226.1420 S   0  0  0  0  0  0  0  0  0  0  0  0
  141.7180   67.8090  226.2190 O   0  0  0  0  0  0  0  0  0  0  0  0
  139.5150   67.0110  225.5440 O   0  0  0  0  0  0  0  0  0  0  0  0
  140.0610   69.5840  225.1680 C   0  0  0  0  0  0  0  0  0  0  0  0
  139.0460   69.6120  224.2520 C   0  0  0  0  0  0  0  0  0  0  0  0
  138.8550   70.7390  223.4590 C   0  0  0  0  0  0  0  0  0  0  0  0
  139.6420   71.8580  223.5360 C   0  0  0  0  0  0  0  0  0  0  0  0
  139.5740   72.9950  222.8450 O   0  0  0  0  0  0  0  0  0  0  0  0
  139.6120   73.3370  221.5150 C   0  0  0  0  0  0  0  0  0  0  0  0
  140.9680   73.7230  221.0470 C   0  0  0  0  0  0  0  0  0  0  0  0
  141.8430   72.6640  220.9570 N   0  0  0  0  0  0  0  0  0  0  0  0
  143.1150   72.8080  220.5800 C   0  0  0  0  0  0  0  0  0  0  0  0
  143.9440   71.7040  220.5090 C   0  0  0  0  0  0  0  0  0  0  0  0
  145.2550   71.9150  220.1130 C   0  0  0  0  0  0  0  0  0  0  0  0
  145.7170   73.1780  219.8010 C   0  0  0  0  0  0  0  0  0  0  0  0
  144.8470   74.2520  219.8870 C   0  0  0  0  0  0  0  0  0  0  0  0
  143.5340   74.0850  220.2780 C   0  0  0  0  0  0  0  0  0  0  0  0
  142.6470   75.1440  220.3700 C   0  0  0  0  0  0  0  0  0  0  0  0
  143.1210   76.2720  220.0780 O   0  0  0  0  0  0  0  0  0  0  0  0
  141.3470   74.9760  220.7540 N   0  0  0  0  0  0  0  0  0  0  0  0
  140.5200   76.1340  220.7720 C   0  0  0  0  0  0  0  0  0  0  0  0
  140.8440   77.2010  221.7670 C   0  0  0  0  0  0  0  0  0  0  0  0
  139.6910   77.6060  222.6300 C   0  0  0  0  0  0  0  0  0  0  0  0
  139.9210   78.9150  223.3530 C   0  0  0  0  0  0  0  0  0  0  0  0
  141.3950   79.0210  223.6840 C   0  0  0  0  0  0  0  0  0  0  0  0
  142.1940   79.1410  222.4280 C   0  0  0  0  0  0  0  0  0  0  0  0
  141.5650   78.3980  221.2580 C   0  0  0  0  0  0  0  0  0  0  0  0
  140.6750   71.7700  224.5020 C   0  0  0  0  0  0  0  0  0  0  0  0
  140.8670   70.6780  225.2770 C   0  0  0  0  0  0  0  0  0  0  0  0
  139.5960   67.6400  228.3150 H   0  0  0  0  0  0  0  0  0  0  0  0
  138.7790   69.0280  227.7130 H   0  0  0  0  0  0  0  0  0  0  0  0
  138.3804   68.7432  224.1422 H   0  0  0  0  0  0  0  0  0  0  0  0
  138.0292   70.7314  222.7324 H   0  0  0  0  0  0  0  0  0  0  0  0
  139.2702   72.4753  220.9228 H   0  0  0  0  0  0  0  0  0  0  0  0
  138.9602   74.2135  221.3848 H   0  0  0  0  0  0  0  0  0  0  0  0
  143.5771   70.6971  220.7572 H   0  0  0  0  0  0  0  0  0  0  0  0
  145.9419   71.0584  220.0459 H   0  0  0  0  0  0  0  0  0  0  0  0
  146.7609   73.3290  219.4887 H   0  0  0  0  0  0  0  0  0  0  0  0
  145.2103   75.2600  219.6383 H   0  0  0  0  0  0  0  0  0  0  0  0
  140.5708   76.5901  219.7723 H   0  0  0  0  0  0  0  0  0  0  0  0
  139.5285   75.7642  221.0723 H   0  0  0  0  0  0  0  0  0  0  0  0
  141.5768   76.6738  222.3956 H   0  0  0  0  0  0  0  0  0  0  0  0
  138.7982   77.7087  221.9957 H   0  0  0  0  0  0  0  0  0  0  0  0
  139.5651   76.8264  223.3958 H   0  0  0  0  0  0  0  0  0  0  0  0
  139.6232   79.7542  222.7072 H   0  0  0  0  0  0  0  0  0  0  0  0
  139.3215   78.9501  224.2746 H   0  0  0  0  0  0  0  0  0  0  0  0
  141.5647   79.9096  224.3098 H   0  0  0  0  0  0  0  0  0  0  0  0
  141.7089   78.1169  224.2262 H   0  0  0  0  0  0  0  0  0  0  0  0
  142.2776   80.2057  222.1646 H   0  0  0  0  0  0  0  0  0  0  0  0
  143.1793   78.6898  222.6168 H   0  0  0  0  0  0  0  0  0  0  0  0
  140.8566   79.0610  220.7397 H   0  0  0  0  0  0  0  0  0  0  0  0
  142.3509   78.0839  220.5553 H   0  0  0  0  0  0  0  0  0  0  0  0
  141.3513   72.6284  224.6273 H   0  0  0  0  0  0  0  0  0  0  0  0
  141.6885   70.6727  226.0085 H   0  0  0  0  0  0  0  0  0  0  0  0
  1  2  1  0
  2  3  2  0
  2  4  2  0
  2  5  1  0
  5  6  2  0
  6  7  1  0
  7  8  2  0
  8  9  1  0
  9 10  1  0
 10 11  1  0
 11 12  2  0
 12 13  1  0
 13 14  2  0
 14 15  1  0
 15 16  2  0
 16 17  1  0
 17 18  2  0
 18 19  1  0
 19 20  2  0
 19 21  1  0
 21 22  1  0
 22 23  1  0
 23 24  1  0
 24 25  1  0
 25 26  1  0
 26 27  1  0
 27 28  1  0
  8 29  1  0
 29 30  2  0
 30  5  1  0
 21 11  1  0
 28 23  1  0
 18 13  1  0
  1 31  1  0
  1 32  1  0
  6 33  1  0
  7 34  1  0
 10 35  1  0
 10 36  1  0
 14 37  1  0
 15 38  1  0
 16 39  1  0
 17 40  1  0
 22 41  1  0
 22 42  1  0
 23 43  1  0
 24 44  1  0
 24 45  1  0
 25 46  1  0
 25 47  1  0
 26 48  1  0
 26 49  1  0
 27 50  1  0
 27 51  1  0
 28 52  1  0
 28 53  1  0
 29 54  1  0
 30 55  1  0
M  END
>  <smiles>  (41) 
NS(=O)(=O)c1ccc(OCc2nc3ccccc3c(=O)n2CC2CCCCC2)cc1

>  <score_type>  (41) 
oracle

>  <origin>  (41) 
autodockgpu

>  <m_score__min__energy>  (41) 
-8.8800000000000008

>  <m_primary>  (41) 
energy

>  <rmsd>  (41) 
7.8440162099347095

>  <m_score__min__rmsd>  (41) 
7.8440162099347095

>  <meeko>  (41) 
{"free_energy": -8.63, "intermolecular_energy": -10.72, "internal_energy": -1.28, "cluster_size": 3, "cluster_id": 1, "rank_in_cluster": 2}

>  <energy>  (41) 
-7.54

>  <cluster_rmsd>  (41) 
0.57

>  <cluster>  (41) 
6

$$$$

     RDKit          3D

 55 58  0  0  0  0  0  0  0  0999 V2000
  132.8010   73.2430  227.5790 N   0  0  0  0  0  0  0  0  0  0  0  0
  133.2570   74.4330  226.4110 S   0  0  0  0  0  0  0  0  0  0  0  0
  132.0440   74.8920  225.6720 O   0  0  0  0  0  0  0  0  0  0  0  0
  133.8940   75.6040  227.0910 O   0  0  0  0  0  0  0  0  0  0  0  0
  134.3780   73.7020  225.3000 C   0  0  0  0  0  0  0  0  0  0  0  0
  134.9450   74.4820  224.3300 C   0  0  0  0  0  0  0  0  0  0  0  0
  135.8450   73.9260  223.4270 C   0  0  0  0  0  0  0  0  0  0  0  0
  136.2140   72.6060  223.4460 C   0  0  0  0  0  0  0  0  0  0  0  0
  137.0550   71.9470  222.6500 O   0  0  0  0  0  0  0  0  0  0  0  0
  138.3960   71.6490  222.6730 C   0  0  0  0  0  0  0  0  0  0  0  0
  138.7960   70.8350  223.8490 C   0  0  0  0  0  0  0  0  0  0  0  0
  139.4930   71.5460  224.8000 N   0  0  0  0  0  0  0  0  0  0  0  0
  139.9610   70.9880  225.9180 C   0  0  0  0  0  0  0  0  0  0  0  0
  140.6540   71.7560  226.8360 C   0  0  0  0  0  0  0  0  0  0  0  0
  141.1180   71.1230  227.9770 C   0  0  0  0  0  0  0  0  0  0  0  0
  140.8990   69.7770  228.1910 C   0  0  0  0  0  0  0  0  0  0  0  0
  140.2000   69.0500  227.2410 C   0  0  0  0  0  0  0  0  0  0  0  0
  139.7200   69.6430  226.0910 C   0  0  0  0  0  0  0  0  0  0  0  0
  139.0180   68.9360  225.1300 C   0  0  0  0  0  0  0  0  0  0  0  0
  138.8500   67.7140  225.3740 O   0  0  0  0  0  0  0  0  0  0  0  0
  138.5430   69.5260  223.9940 N   0  0  0  0  0  0  0  0  0  0  0  0
  137.8000   68.7060  223.0980 C   0  0  0  0  0  0  0  0  0  0  0  0
  136.3090   68.7850  223.1620 C   0  0  0  0  0  0  0  0  0  0  0  0
  135.7580   68.8840  224.5500 C   0  0  0  0  0  0  0  0  0  0  0  0
  134.2760   68.5870  224.6240 C   0  0  0  0  0  0  0  0  0  0  0  0
  133.6310   69.0760  223.3440 C   0  0  0  0  0  0  0  0  0  0  0  0
  134.1180   68.2700  222.1840 C   0  0  0  0  0  0  0  0  0  0  0  0
  135.5490   67.7850  222.3650 C   0  0  0  0  0  0  0  0  0  0  0  0
  135.5950   71.8500  224.4720 C   0  0  0  0  0  0  0  0  0  0  0  0
  134.7180   72.3840  225.3530 C   0  0  0  0  0  0  0  0  0  0  0  0
  132.2070   73.6380  228.3370 H   0  0  0  0  0  0  0  0  0  0  0  0
  133.6230   72.7350  227.9700 H   0  0  0  0  0  0  0  0  0  0  0  0
  134.6891   75.5498  224.2640 H   0  0  0  0  0  0  0  0  0  0  0  0
  136.2832   74.5792  222.6580 H   0  0  0  0  0  0  0  0  0  0  0  0
  138.6451   71.0890  221.7596 H   0  0  0  0  0  0  0  0  0  0  0  0
  138.9409   72.6025  222.7357 H   0  0  0  0  0  0  0  0  0  0  0  0
  140.8299   72.8285  226.6663 H   0  0  0  0  0  0  0  0  0  0  0  0
  141.6724   71.7047  228.7282 H   0  0  0  0  0  0  0  0  0  0  0  0
  141.2740   69.2887  229.1025 H   0  0  0  0  0  0  0  0  0  0  0  0
  140.0238   67.9770  227.4070 H   0  0  0  0  0  0  0  0  0  0  0  0
  138.1004   68.9795  222.0758 H   0  0  0  0  0  0  0  0  0  0  0  0
  138.0382   67.6755  223.4001 H   0  0  0  0  0  0  0  0  0  0  0  0
  136.1362   69.7451  222.6538 H   0  0  0  0  0  0  0  0  0  0  0  0
  136.2912   68.1658  225.1902 H   0  0  0  0  0  0  0  0  0  0  0  0
  135.9013   69.9215  224.8861 H   0  0  0  0  0  0  0  0  0  0  0  0
  134.1182   67.5036  224.7302 H   0  0  0  0  0  0  0  0  0  0  0  0
  133.8297   69.0940  225.4922 H   0  0  0  0  0  0  0  0  0  0  0  0
  132.5387   68.9742  223.4249 H   0  0  0  0  0  0  0  0  0  0  0  0
  133.8976   70.1315  223.1866 H   0  0  0  0  0  0  0  0  0  0  0  0
  133.4625   67.3949  222.0636 H   0  0  0  0  0  0  0  0  0  0  0  0
  134.0971   68.9193  221.2963 H   0  0  0  0  0  0  0  0  0  0  0  0
  135.5461   66.8198  222.8927 H   0  0  0  0  0  0  0  0  0  0  0  0
  136.0235   67.6603  221.3805 H   0  0  0  0  0  0  0  0  0  0  0  0
  135.8385   70.7806  224.5561 H   0  0  0  0  0  0  0  0  0  0  0  0
  134.2712   71.7419  226.1264 H   0  0  0  0  0  0  0  0  0  0  0  0
  1  2  1  0
  2  3  2  0
  2  4  2  0
  2  5  1  0
  5  6  2  0
  6  7  1  0
  7  8  2  0
  8  9  1  0
  9 10  1  0
 10 11  1  0
 11 12  2  0
 12 13  1  0
 13 14  2  0
 14 15  1  0
 15 16  2  0
 16 17  1  0
 17 18  2  0
 18 19  1  0
 19 20  2  0
 19 21  1  0
 21 22  1  0
 22 23  1  0
 23 24  1  0
 24 25  1  0
 25 26  1  0
 26 27  1  0
 27 28  1  0
  8 29  1  0
 29 30  2  0
 30  5  1  0
 21 11  1  0
 28 23  1  0
 18 13  1  0
  1 31  1  0
  1 32  1  0
  6 33  1  0
  7 34  1  0
 10 35  1  0
 10 36  1  0
 14 37  1  0
 15 38  1  0
 16 39  1  0
 17 40  1  0
 22 41  1  0
 22 42  1  0
 23 43  1  0
 24 44  1  0
 24 45  1  0
 25 46  1  0
 25 47  1  0
 26 48  1  0
 26 49  1  0
 27 50  1  0
 27 51  1  0
 28 52  1  0
 28 53  1  0
 29 54  1  0
 30 55  1  0
M  END
>  <smiles>  (42) 
NS(=O)(=O)c1ccc(OCc2nc3ccccc3c(=O)n2CC2CCCCC2)cc1

>  <score_type>  (42) 
oracle

>  <origin>  (42) 
autodockgpu

>  <m_score__min__energy>  (42) 
-8.8800000000000008

>  <m_primary>  (42) 
energy

>  <rmsd>  (42) 
11.88813164213556

>  <m_score__min__rmsd>  (42) 
11.88813164213556

>  <meeko>  (42) 
{"free_energy": -7.75, "intermolecular_energy": -9.84, "internal_energy": -1.91, "cluster_size": 4, "cluster_id": 5, "rank_in_cluster": 3}

>  <energy>  (42) 
-7.53

>  <cluster_rmsd>  (42) 
0.45

>  <cluster>  (42) 
6

$$$$

     RDKit          3D

 55 58  0  0  0  0  0  0  0  0999 V2000
  146.2850   71.2370  219.7390 N   0  0  0  0  0  0  0  0  0  0  0  0
  145.9450   72.8870  219.3530 S   0  0  0  0  0  0  0  0  0  0  0  0
  147.0090   73.7600  219.9310 O   0  0  0  0  0  0  0  0  0  0  0  0
  145.9070   73.0710  217.8670 O   0  0  0  0  0  0  0  0  0  0  0  0
  144.4060   73.3020  220.0470 C   0  0  0  0  0  0  0  0  0  0  0  0
  143.5400   72.2960  220.3770 C   0  0  0  0  0  0  0  0  0  0  0  0
  142.3020   72.5980  220.9340 C   0  0  0  0  0  0  0  0  0  0  0  0
  141.8780   73.8760  221.1830 C   0  0  0  0  0  0  0  0  0  0  0  0
  140.7300   74.3050  221.7060 O   0  0  0  0  0  0  0  0  0  0  0  0
  139.8640   75.3420  221.4530 C   0  0  0  0  0  0  0  0  0  0  0  0
  140.5330   76.6670  221.4080 C   0  0  0  0  0  0  0  0  0  0  0  0
  140.8450   77.1700  222.6500 N   0  0  0  0  0  0  0  0  0  0  0  0
  141.4270   78.3590  222.8220 C   0  0  0  0  0  0  0  0  0  0  0  0
  141.7150   78.8090  224.0970 C   0  0  0  0  0  0  0  0  0  0  0  0
  142.3180   80.0510  224.2140 C   0  0  0  0  0  0  0  0  0  0  0  0
  142.6190   80.8110  223.1030 C   0  0  0  0  0  0  0  0  0  0  0  0
  142.3090   80.3160  221.8460 C   0  0  0  0  0  0  0  0  0  0  0  0
  141.7090   79.0840  221.6860 C   0  0  0  0  0  0  0  0  0  0  0  0
  141.3930   78.5700  220.4400 C   0  0  0  0  0  0  0  0  0  0  0  0
  141.6850   79.3050  219.4620 O   0  0  0  0  0  0  0  0  0  0  0  0
  140.8010   77.3490  220.2840 N   0  0  0  0  0  0  0  0  0  0  0  0
  140.5610   76.9090  218.9520 C   0  0  0  0  0  0  0  0  0  0  0  0
  141.7070   76.3060  218.2050 C   0  0  0  0  0  0  0  0  0  0  0  0
  142.5830   77.3040  217.5150 C   0  0  0  0  0  0  0  0  0  0  0  0
  143.4910   76.6800  216.4770 C   0  0  0  0  0  0  0  0  0  0  0  0
  143.8770   75.2960  216.9570 C   0  0  0  0  0  0  0  0  0  0  0  0
  142.6750   74.4100  216.9850 C   0  0  0  0  0  0  0  0  0  0  0  0
  141.3940   75.1670  217.3010 C   0  0  0  0  0  0  0  0  0  0  0  0
  142.8160   74.8750  220.8220 C   0  0  0  0  0  0  0  0  0  0  0  0
  144.0220   74.5890  220.2790 C   0  0  0  0  0  0  0  0  0  0  0  0
  145.4200   70.6800  219.8980 H   0  0  0  0  0  0  0  0  0  0  0  0
  146.9450   71.1450  220.5420 H   0  0  0  0  0  0  0  0  0  0  0  0
  143.8229   71.2475  220.2017 H   0  0  0  0  0  0  0  0  0  0  0  0
  141.6280   71.7666  221.1879 H   0  0  0  0  0  0  0  0  0  0  0  0
  139.3784   75.1627  220.4824 H   0  0  0  0  0  0  0  0  0  0  0  0
  139.1389   75.3706  222.2797 H   0  0  0  0  0  0  0  0  0  0  0  0
  141.4748   78.2046  224.9841 H   0  0  0  0  0  0  0  0  0  0  0  0
  142.5618   80.4391  225.2140 H   0  0  0  0  0  0  0  0  0  0  0  0
  143.0979   81.7952  223.2129 H   0  0  0  0  0  0  0  0  0  0  0  0
  142.5465   80.9184  220.9568 H   0  0  0  0  0  0  0  0  0  0  0  0
  139.7618   76.1543  218.9937 H   0  0  0  0  0  0  0  0  0  0  0  0
  140.3159   77.8254  218.3951 H   0  0  0  0  0  0  0  0  0  0  0  0
  142.2776   75.8624  219.0342 H   0  0  0  0  0  0  0  0  0  0  0  0
  141.9425   78.0476  217.0182 H   0  0  0  0  0  0  0  0  0  0  0  0
  143.2264   77.7608  218.2814 H   0  0  0  0  0  0  0  0  0  0  0  0
  142.9621   76.6066  215.5153 H   0  0  0  0  0  0  0  0  0  0  0  0
  144.3900   77.2984  216.3373 H   0  0  0  0  0  0  0  0  0  0  0  0
  144.6273   74.8701  216.2746 H   0  0  0  0  0  0  0  0  0  0  0  0
  144.2942   75.3698  217.9721 H   0  0  0  0  0  0  0  0  0  0  0  0
  142.5673   73.9320  216.0001 H   0  0  0  0  0  0  0  0  0  0  0  0
  142.8278   73.6685  217.7830 H   0  0  0  0  0  0  0  0  0  0  0  0
  140.9529   75.5485  216.3683 H   0  0  0  0  0  0  0  0  0  0  0  0
  140.6784   74.4917  217.7929 H   0  0  0  0  0  0  0  0  0  0  0  0
  142.5521   75.9295  220.9906 H   0  0  0  0  0  0  0  0  0  0  0  0
  144.7056   75.4110  220.0199 H   0  0  0  0  0  0  0  0  0  0  0  0
  1  2  1  0
  2  3  2  0
  2  4  2  0
  2  5  1  0
  5  6  2  0
  6  7  1  0
  7  8  2  0
  8  9  1  0
  9 10  1  0
 10 11  1  0
 11 12  2  0
 12 13  1  0
 13 14  2  0
 14 15  1  0
 15 16  2  0
 16 17  1  0
 17 18  2  0
 18 19  1  0
 19 20  2  0
 19 21  1  0
 21 22  1  0
 22 23  1  0
 23 24  1  0
 24 25  1  0
 25 26  1  0
 26 27  1  0
 27 28  1  0
  8 29  1  0
 29 30  2  0
 30  5  1  0
 21 11  1  0
 28 23  1  0
 18 13  1  0
  1 31  1  0
  1 32  1  0
  6 33  1  0
  7 34  1  0
 10 35  1  0
 10 36  1  0
 14 37  1  0
 15 38  1  0
 16 39  1  0
 17 40  1  0
 22 41  1  0
 22 42  1  0
 23 43  1  0
 24 44  1  0
 24 45  1  0
 25 46  1  0
 25 47  1  0
 26 48  1  0
 26 49  1  0
 27 50  1  0
 27 51  1  0
 28 52  1  0
 28 53  1  0
 29 54  1  0
 30 55  1  0
M  END
>  <smiles>  (43) 
NS(=O)(=O)c1ccc(OCc2nc3ccccc3c(=O)n2CC2CCCCC2)cc1

>  <score_type>  (43) 
oracle

>  <origin>  (43) 
autodockgpu

>  <m_score__min__energy>  (43) 
-8.8800000000000008

>  <m_primary>  (43) 
energy

>  <rmsd>  (43) 
3.7452291385920216

>  <m_score__min__rmsd>  (43) 
3.7452291385920216

>  <meeko>  (43) 
{"free_energy": -7.67, "intermolecular_energy": -9.76, "internal_energy": -2.25, "cluster_size": 16, "cluster_id": 6, "rank_in_cluster": 6}

>  <energy>  (43) 
-7.52

>  <cluster_rmsd>  (43) 
0.6

>  <cluster>  (43) 
6

$$$$

     RDKit          3D

 55 58  0  0  0  0  0  0  0  0999 V2000
  146.3180   73.4800  218.8920 N   0  0  0  0  0  0  0  0  0  0  0  0
  145.2390   72.1430  218.7110 S   0  0  0  0  0  0  0  0  0  0  0  0
  144.7740   72.0700  217.2950 O   0  0  0  0  0  0  0  0  0  0  0  0
  145.9350   70.8670  219.0700 O   0  0  0  0  0  0  0  0  0  0  0  0
  143.8760   72.3980  219.7620 C   0  0  0  0  0  0  0  0  0  0  0  0
  143.2960   71.3140  220.3600 C   0  0  0  0  0  0  0  0  0  0  0  0
  142.2050   71.4870  221.2060 C   0  0  0  0  0  0  0  0  0  0  0  0
  141.6560   72.7100  221.4880 C   0  0  0  0  0  0  0  0  0  0  0  0
  140.6210   73.0190  222.2700 O   0  0  0  0  0  0  0  0  0  0  0  0
  139.4300   72.4200  222.6000 C   0  0  0  0  0  0  0  0  0  0  0  0
  139.5670   71.3810  223.6520 C   0  0  0  0  0  0  0  0  0  0  0  0
  140.1050   71.8530  224.8280 N   0  0  0  0  0  0  0  0  0  0  0  0
  140.3310   71.0710  225.8850 C   0  0  0  0  0  0  0  0  0  0  0  0
  140.8740   71.6060  227.0380 C   0  0  0  0  0  0  0  0  0  0  0  0
  141.0880   70.7450  228.1020 C   0  0  0  0  0  0  0  0  0  0  0  0
  140.7740   69.4040  228.0150 C   0  0  0  0  0  0  0  0  0  0  0  0
  140.2320   68.9150  226.8380 C   0  0  0  0  0  0  0  0  0  0  0  0
  140.0030   69.7390  225.7550 C   0  0  0  0  0  0  0  0  0  0  0  0
  139.4620   69.2720  224.5690 C   0  0  0  0  0  0  0  0  0  0  0  0
  139.1970   68.0430  224.5430 O   0  0  0  0  0  0  0  0  0  0  0  0
  139.2340   70.0910  223.5000 N   0  0  0  0  0  0  0  0  0  0  0  0
  138.6360   69.5040  222.3490 C   0  0  0  0  0  0  0  0  0  0  0  0
  139.5330   69.1470  221.2080 C   0  0  0  0  0  0  0  0  0  0  0  0
  139.4430   70.0790  220.0420 C   0  0  0  0  0  0  0  0  0  0  0  0
  140.0530   69.5110  218.7790 C   0  0  0  0  0  0  0  0  0  0  0  0
  141.2320   68.6440  219.1710 C   0  0  0  0  0  0  0  0  0  0  0  0
  140.7560   67.4470  219.9290 C   0  0  0  0  0  0  0  0  0  0  0  0
  139.5090   67.7320  220.7530 C   0  0  0  0  0  0  0  0  0  0  0  0
  142.2990   73.7940  220.8400 C   0  0  0  0  0  0  0  0  0  0  0  0
  143.3600   73.6330  220.0160 C   0  0  0  0  0  0  0  0  0  0  0  0
  146.0580   74.0950  219.6910 H   0  0  0  0  0  0  0  0  0  0  0  0
  146.4200   74.0300  218.0110 H   0  0  0  0  0  0  0  0  0  0  0  0
  143.6919   70.3050  220.1723 H   0  0  0  0  0  0  0  0  0  0  0  0
  141.7603   70.5956  221.6725 H   0  0  0  0  0  0  0  0  0  0  0  0
  138.7381   73.1946  222.9623 H   0  0  0  0  0  0  0  0  0  0  0  0
  139.0549   71.9199  221.6949 H   0  0  0  0  0  0  0  0  0  0  0  0
  141.1265   72.6743  227.1081 H   0  0  0  0  0  0  0  0  0  0  0  0
  141.5170   71.1383  229.0354 H   0  0  0  0  0  0  0  0  0  0  0  0
  140.9517   68.7330  228.8683 H   0  0  0  0  0  0  0  0  0  0  0  0
  139.9787   67.8471  226.7649 H   0  0  0  0  0  0  0  0  0  0  0  0
  138.1338   68.5808  222.6739 H   0  0  0  0  0  0  0  0  0  0  0  0
  137.9739   70.2861  221.9491 H   0  0  0  0  0  0  0  0  0  0  0  0
  140.5190   69.2779  221.6779 H   0  0  0  0  0  0  0  0  0  0  0  0
  138.3823   70.2984  219.8504 H   0  0  0  0  0  0  0  0  0  0  0  0
  140.0108   70.9847  220.3017 H   0  0  0  0  0  0  0  0  0  0  0  0
  139.3064   68.9049  218.2449 H   0  0  0  0  0  0  0  0  0  0  0  0
  140.3835   70.3252  218.1173 H   0  0  0  0  0  0  0  0  0  0  0  0
  141.7596   68.3146  218.2638 H   0  0  0  0  0  0  0  0  0  0  0  0
  141.9135   69.2273  219.8077 H   0  0  0  0  0  0  0  0  0  0  0  0
  140.5284   66.6441  219.2123 H   0  0  0  0  0  0  0  0  0  0  0  0
  141.5555   67.1553  220.6259 H   0  0  0  0  0  0  0  0  0  0  0  0
  138.6142   67.5593  220.1370 H   0  0  0  0  0  0  0  0  0  0  0  0
  139.4846   67.0645  221.6270 H   0  0  0  0  0  0  0  0  0  0  0  0
  141.9187   74.8113  221.0147 H   0  0  0  0  0  0  0  0  0  0  0  0
  143.8144   74.5157  219.5424 H   0  0  0  0  0  0  0  0  0  0  0  0
  1  2  1  0
  2  3  2  0
  2  4  2  0
  2  5  1  0
  5  6  2  0
  6  7  1  0
  7  8  2  0
  8  9  1  0
  9 10  1  0
 10 11  1  0
 11 12  2  0
 12 13  1  0
 13 14  2  0
 14 15  1  0
 15 16  2  0
 16 17  1  0
 17 18  2  0
 18 19  1  0
 19 20  2  0
 19 21  1  0
 21 22  1  0
 22 23  1  0
 23 24  1  0
 24 25  1  0
 25 26  1  0
 26 27  1  0
 27 28  1  0
  8 29  1  0
 29 30  2  0
 30  5  1  0
 21 11  1  0
 28 23  1  0
 18 13  1  0
  1 31  1  0
  1 32  1  0
  6 33  1  0
  7 34  1  0
 10 35  1  0
 10 36  1  0
 14 37  1  0
 15 38  1  0
 16 39  1  0
 17 40  1  0
 22 41  1  0
 22 42  1  0
 23 43  1  0
 24 44  1  0
 24 45  1  0
 25 46  1  0
 25 47  1  0
 26 48  1  0
 26 49  1  0
 27 50  1  0
 27 51  1  0
 28 52  1  0
 28 53  1  0
 29 54  1  0
 30 55  1  0
M  END
>  <smiles>  (44) 
NS(=O)(=O)c1ccc(OCc2nc3ccccc3c(=O)n2CC2CCCCC2)cc1

>  <score_type>  (44) 
oracle

>  <origin>  (44) 
autodockgpu

>  <m_score__min__energy>  (44) 
-8.8800000000000008

>  <m_primary>  (44) 
energy

>  <rmsd>  (44) 
10.516022110087091

>  <m_score__min__rmsd>  (44) 
10.516022110087091

>  <meeko>  (44) 
{"free_energy": -8.04, "intermolecular_energy": -10.13, "internal_energy": -1.92, "cluster_size": 17, "cluster_id": 2, "rank_in_cluster": 17}

>  <energy>  (44) 
-7.49

>  <cluster_rmsd>  (44) 
0.38

>  <cluster>  (44) 
6

$$$$

     RDKit          3D

 55 58  0  0  0  0  0  0  0  0999 V2000
  146.8820   73.7650  219.4540 N   0  0  0  0  0  0  0  0  0  0  0  0
  145.6600   72.5800  219.1570 S   0  0  0  0  0  0  0  0  0  0  0  0
  145.4440   72.4490  217.6870 O   0  0  0  0  0  0  0  0  0  0  0  0
  146.0790   71.2560  219.7160 O   0  0  0  0  0  0  0  0  0  0  0  0
  144.1900   73.1130  219.9190 C   0  0  0  0  0  0  0  0  0  0  0  0
  144.0560   74.4360  220.2360 C   0  0  0  0  0  0  0  0  0  0  0  0
  142.8910   74.8910  220.8460 C   0  0  0  0  0  0  0  0  0  0  0  0
  141.8360   74.0760  221.1610 C   0  0  0  0  0  0  0  0  0  0  0  0
  140.6740   74.3740  221.7400 O   0  0  0  0  0  0  0  0  0  0  0  0
  139.7970   75.4310  221.6920 C   0  0  0  0  0  0  0  0  0  0  0  0
  140.4710   76.7490  221.5760 C   0  0  0  0  0  0  0  0  0  0  0  0
  140.8150   77.3010  222.7890 N   0  0  0  0  0  0  0  0  0  0  0  0
  141.4060   78.4920  222.8980 C   0  0  0  0  0  0  0  0  0  0  0  0
  141.7270   78.9930  224.1470 C   0  0  0  0  0  0  0  0  0  0  0  0
  142.3380   80.2350  224.1980 C   0  0  0  0  0  0  0  0  0  0  0  0
  142.6180   80.9470  223.0490 C   0  0  0  0  0  0  0  0  0  0  0  0
  142.2770   80.4020  221.8220 C   0  0  0  0  0  0  0  0  0  0  0  0
  141.6670   79.1680  221.7270 C   0  0  0  0  0  0  0  0  0  0  0  0
  141.3190   78.6040  220.5110 C   0  0  0  0  0  0  0  0  0  0  0  0
  141.5930   79.2960  219.4970 O   0  0  0  0  0  0  0  0  0  0  0  0
  140.7170   77.3820  220.4190 N   0  0  0  0  0  0  0  0  0  0  0  0
  140.4450   76.8880  219.1130 C   0  0  0  0  0  0  0  0  0  0  0  0
  141.5790   76.2810  218.3510 C   0  0  0  0  0  0  0  0  0  0  0  0
  142.4910   77.2790  217.7090 C   0  0  0  0  0  0  0  0  0  0  0  0
  143.3890   76.6700  216.6540 C   0  0  0  0  0  0  0  0  0  0  0  0
  143.7290   75.2560  217.0810 C   0  0  0  0  0  0  0  0  0  0  0  0
  142.5010   74.4070  217.0630 C   0  0  0  0  0  0  0  0  0  0  0  0
  141.2400   75.1900  217.3990 C   0  0  0  0  0  0  0  0  0  0  0  0
  142.0330   72.7180  220.8080 C   0  0  0  0  0  0  0  0  0  0  0  0
  143.1630   72.2680  220.2150 C   0  0  0  0  0  0  0  0  0  0  0  0
  146.5590   74.5160  220.1000 H   0  0  0  0  0  0  0  0  0  0  0  0
  147.2680   74.1670  218.5720 H   0  0  0  0  0  0  0  0  0  0  0  0
  144.8692   75.1410  220.0088 H   0  0  0  0  0  0  0  0  0  0  0  0
  142.8132   75.9612  221.0879 H   0  0  0  0  0  0  0  0  0  0  0  0
  139.1377   75.2983  220.8216 H   0  0  0  0  0  0  0  0  0  0  0  0
  139.2378   75.4334  222.6392 H   0  0  0  0  0  0  0  0  0  0  0  0
  141.5056   78.4270  225.0639 H   0  0  0  0  0  0  0  0  0  0  0  0
  142.6059   80.6632  225.1752 H   0  0  0  0  0  0  0  0  0  0  0  0
  143.1044   81.9319  223.1069 H   0  0  0  0  0  0  0  0  0  0  0  0
  142.4973   80.9653  220.9032 H   0  0  0  0  0  0  0  0  0  0  0  0
  139.6640   76.1192  219.2083 H   0  0  0  0  0  0  0  0  0  0  0  0
  140.1633   77.7782  218.5314 H   0  0  0  0  0  0  0  0  0  0  0  0
  142.1283   75.7869  219.1659 H   0  0  0  0  0  0  0  0  0  0  0  0
  141.8778   78.0612  217.2377 H   0  0  0  0  0  0  0  0  0  0  0  0
  143.1408   77.6848  218.4983 H   0  0  0  0  0  0  0  0  0  0  0  0
  142.8669   76.6514  215.6860 H   0  0  0  0  0  0  0  0  0  0  0  0
  144.3074   77.2658  216.5464 H   0  0  0  0  0  0  0  0  0  0  0  0
  144.4727   74.8353  216.3882 H   0  0  0  0  0  0  0  0  0  0  0  0
  144.1387   75.2761  218.1016 H   0  0  0  0  0  0  0  0  0  0  0  0
  142.3883   73.9726  216.0587 H   0  0  0  0  0  0  0  0  0  0  0  0
  142.6236   73.6295  217.8314 H   0  0  0  0  0  0  0  0  0  0  0  0
  140.8197   75.6223  216.4790 H   0  0  0  0  0  0  0  0  0  0  0  0
  140.4994   74.5178  217.8569 H   0  0  0  0  0  0  0  0  0  0  0  0
  141.2313   71.9971  221.0258 H   0  0  0  0  0  0  0  0  0  0  0  0
  143.2541   71.2001  219.9673 H   0  0  0  0  0  0  0  0  0  0  0  0
  1  2  1  0
  2  3  2  0
  2  4  2  0
  2  5  1  0
  5  6  2  0
  6  7  1  0
  7  8  2  0
  8  9  1  0
  9 10  1  0
 10 11  1  0
 11 12  2  0
 12 13  1  0
 13 14  2  0
 14 15  1  0
 15 16  2  0
 16 17  1  0
 17 18  2  0
 18 19  1  0
 19 20  2  0
 19 21  1  0
 21 22  1  0
 22 23  1  0
 23 24  1  0
 24 25  1  0
 25 26  1  0
 26 27  1  0
 27 28  1  0
  8 29  1  0
 29 30  2  0
 30  5  1  0
 21 11  1  0
 28 23  1  0
 18 13  1  0
  1 31  1  0
  1 32  1  0
  6 33  1  0
  7 34  1  0
 10 35  1  0
 10 36  1  0
 14 37  1  0
 15 38  1  0
 16 39  1  0
 17 40  1  0
 22 41  1  0
 22 42  1  0
 23 43  1  0
 24 44  1  0
 24 45  1  0
 25 46  1  0
 25 47  1  0
 26 48  1  0
 26 49  1  0
 27 50  1  0
 27 51  1  0
 28 52  1  0
 28 53  1  0
 29 54  1  0
 30 55  1  0
M  END
>  <smiles>  (45) 
NS(=O)(=O)c1ccc(OCc2nc3ccccc3c(=O)n2CC2CCCCC2)cc1

>  <score_type>  (45) 
oracle

>  <origin>  (45) 
autodockgpu

>  <m_score__min__energy>  (45) 
-8.8800000000000008

>  <m_primary>  (45) 
energy

>  <rmsd>  (45) 
3.634925010330891

>  <m_score__min__rmsd>  (45) 
3.634925010330891

>  <meeko>  (45) 
{"free_energy": -7.71, "intermolecular_energy": -9.8, "internal_energy": -2.33, "cluster_size": 16, "cluster_id": 6, "rank_in_cluster": 3}

>  <energy>  (45) 
-7.49

>  <cluster_rmsd>  (45) 
0.62

>  <cluster>  (45) 
6

$$$$

     RDKit          3D

 55 58  0  0  0  0  0  0  0  0999 V2000
  131.8780   72.6930  227.9220 N   0  0  0  0  0  0  0  0  0  0  0  0
  132.6660   73.2800  226.4990 S   0  0  0  0  0  0  0  0  0  0  0  0
  131.6380   73.7220  225.5120 O   0  0  0  0  0  0  0  0  0  0  0  0
  133.5530   74.4360  226.8410 O   0  0  0  0  0  0  0  0  0  0  0  0
  133.6070   71.9820  225.8240 C   0  0  0  0  0  0  0  0  0  0  0  0
  133.8930   70.9000  226.6100 C   0  0  0  0  0  0  0  0  0  0  0  0
  134.6440   69.8470  226.0970 C   0  0  0  0  0  0  0  0  0  0  0  0
  135.1300   69.8210  224.8160 C   0  0  0  0  0  0  0  0  0  0  0  0
  135.8560   68.8880  224.2010 O   0  0  0  0  0  0  0  0  0  0  0  0
  137.0880   68.8460  223.5950 C   0  0  0  0  0  0  0  0  0  0  0  0
  138.1880   69.3350  224.4650 C   0  0  0  0  0  0  0  0  0  0  0  0
  138.4860   68.4870  225.5070 N   0  0  0  0  0  0  0  0  0  0  0  0
  139.4250   68.7600  226.4140 C   0  0  0  0  0  0  0  0  0  0  0  0
  139.6780   67.8660  227.4380 C   0  0  0  0  0  0  0  0  0  0  0  0
  140.6640   68.2030  228.3510 C   0  0  0  0  0  0  0  0  0  0  0  0
  141.3680   69.3860  228.2450 C   0  0  0  0  0  0  0  0  0  0  0  0
  141.0770   70.2490  227.2010 C   0  0  0  0  0  0  0  0  0  0  0  0
  140.1030   69.9500  226.2700 C   0  0  0  0  0  0  0  0  0  0  0  0
  139.7980   70.7980  225.2190 C   0  0  0  0  0  0  0  0  0  0  0  0
  140.4660   71.8620  225.1710 O   0  0  0  0  0  0  0  0  0  0  0  0
  138.8340   70.4980  224.2980 N   0  0  0  0  0  0  0  0  0  0  0  0
  138.6380   71.4280  223.2380 C   0  0  0  0  0  0  0  0  0  0  0  0
  139.8190   71.7680  222.3870 C   0  0  0  0  0  0  0  0  0  0  0  0
  139.9620   73.2270  222.0900 C   0  0  0  0  0  0  0  0  0  0  0  0
  140.9130   73.5100  220.9470 C   0  0  0  0  0  0  0  0  0  0  0  0
  142.0120   72.4670  220.9750 C   0  0  0  0  0  0  0  0  0  0  0  0
  141.4470   71.1190  220.6680 C   0  0  0  0  0  0  0  0  0  0  0  0
  140.0140   70.9580  221.1550 C   0  0  0  0  0  0  0  0  0  0  0  0
  134.8010   70.9670  224.0520 C   0  0  0  0  0  0  0  0  0  0  0  0
  134.0720   71.9950  224.5430 C   0  0  0  0  0  0  0  0  0  0  0  0
  131.7250   73.4420  228.6280 H   0  0  0  0  0  0  0  0  0  0  0  0
  132.3740   71.8760  228.3410 H   0  0  0  0  0  0  0  0  0  0  0  0
  133.5294   70.8622  227.6475 H   0  0  0  0  0  0  0  0  0  0  0  0
  134.8587   68.9911  226.7537 H   0  0  0  0  0  0  0  0  0  0  0  0
  137.3028   67.8048  223.3127 H   0  0  0  0  0  0  0  0  0  0  0  0
  137.0437   69.5120  222.7207 H   0  0  0  0  0  0  0  0  0  0  0  0
  139.1178   66.9233  227.5244 H   0  0  0  0  0  0  0  0  0  0  0  0
  140.8908   67.5137  229.1777 H   0  0  0  0  0  0  0  0  0  0  0  0
  142.1479   69.6394  228.9782 H   0  0  0  0  0  0  0  0  0  0  0  0
  141.6344   71.1931  227.1122 H   0  0  0  0  0  0  0  0  0  0  0  0
  137.8638   71.0134  222.5757 H   0  0  0  0  0  0  0  0  0  0  0  0
  138.3750   72.3710  223.7395 H   0  0  0  0  0  0  0  0  0  0  0  0
  140.6411   71.4712  223.0549 H   0  0  0  0  0  0  0  0  0  0  0  0
  138.9721   73.6299  221.8297 H   0  0  0  0  0  0  0  0  0  0  0  0
  140.3781   73.7054  222.9889 H   0  0  0  0  0  0  0  0  0  0  0  0
  140.3722   73.4553  219.9907 H   0  0  0  0  0  0  0  0  0  0  0  0
  141.3428   74.5172  221.0513 H   0  0  0  0  0  0  0  0  0  0  0  0
  142.7746   72.7216  220.2243 H   0  0  0  0  0  0  0  0  0  0  0  0
  142.4654   72.4480  221.9770 H   0  0  0  0  0  0  0  0  0  0  0  0
  141.4674   70.9687  219.5785 H   0  0  0  0  0  0  0  0  0  0  0  0
  142.0622   70.3734  221.1931 H   0  0  0  0  0  0  0  0  0  0  0  0
  139.3199   71.3033  220.3747 H   0  0  0  0  0  0  0  0  0  0  0  0
  139.8170   69.8986  221.3758 H   0  0  0  0  0  0  0  0  0  0  0  0
  135.1544   71.0237  223.0119 H   0  0  0  0  0  0  0  0  0  0  0  0
  133.8504   72.8571  223.8967 H   0  0  0  0  0  0  0  0  0  0  0  0
  1  2  1  0
  2  3  2  0
  2  4  2  0
  2  5  1  0
  5  6  2  0
  6  7  1  0
  7  8  2  0
  8  9  1  0
  9 10  1  0
 10 11  1  0
 11 12  2  0
 12 13  1  0
 13 14  2  0
 14 15  1  0
 15 16  2  0
 16 17  1  0
 17 18  2  0
 18 19  1  0
 19 20  2  0
 19 21  1  0
 21 22  1  0
 22 23  1  0
 23 24  1  0
 24 25  1  0
 25 26  1  0
 26 27  1  0
 27 28  1  0
  8 29  1  0
 29 30  2  0
 30  5  1  0
 21 11  1  0
 28 23  1  0
 18 13  1  0
  1 31  1  0
  1 32  1  0
  6 33  1  0
  7 34  1  0
 10 35  1  0
 10 36  1  0
 14 37  1  0
 15 38  1  0
 16 39  1  0
 17 40  1  0
 22 41  1  0
 22 42  1  0
 23 43  1  0
 24 44  1  0
 24 45  1  0
 25 46  1  0
 25 47  1  0
 26 48  1  0
 26 49  1  0
 27 50  1  0
 27 51  1  0
 28 52  1  0
 28 53  1  0
 29 54  1  0
 30 55  1  0
M  END
>  <smiles>  (46) 
NS(=O)(=O)c1ccc(OCc2nc3ccccc3c(=O)n2CC2CCCCC2)cc1

>  <score_type>  (46) 
oracle

>  <origin>  (46) 
autodockgpu

>  <m_score__min__energy>  (46) 
-8.8800000000000008

>  <m_primary>  (46) 
energy

>  <rmsd>  (46) 
10.431036123436426

>  <m_score__min__rmsd>  (46) 
10.431036123436426

>  <meeko>  (46) 
{"free_energy": -8.44, "intermolecular_energy": -10.53, "internal_energy": -1.44, "cluster_size": 4, "cluster_id": 5, "rank_in_cluster": 1}

>  <energy>  (46) 
-7.41

>  <cluster_rmsd>  (46) 
0.61

>  <cluster>  (46) 
6

$$$$

     RDKit          3D

 55 58  0  0  0  0  0  0  0  0999 V2000
  141.4060   67.8930  226.4390 N   0  0  0  0  0  0  0  0  0  0  0  0
  139.8080   68.4940  226.1660 S   0  0  0  0  0  0  0  0  0  0  0  0
  138.9670   67.4130  225.5730 O   0  0  0  0  0  0  0  0  0  0  0  0
  139.1990   68.9430  227.4580 O   0  0  0  0  0  0  0  0  0  0  0  0
  139.9130   69.8300  225.0570 C   0  0  0  0  0  0  0  0  0  0  0  0
  139.2420   69.7510  223.8690 C   0  0  0  0  0  0  0  0  0  0  0  0
  139.3070   70.8040  222.9610 C   0  0  0  0  0  0  0  0  0  0  0  0
  140.0210   71.9510  223.1870 C   0  0  0  0  0  0  0  0  0  0  0  0
  140.1700   73.0270  222.4150 O   0  0  0  0  0  0  0  0  0  0  0  0
  139.3670   74.0710  222.0230 C   0  0  0  0  0  0  0  0  0  0  0  0
  140.1160   75.3330  221.7970 C   0  0  0  0  0  0  0  0  0  0  0  0
  139.7280   76.3620  222.6250 N   0  0  0  0  0  0  0  0  0  0  0  0
  140.2630   77.5820  222.5610 C   0  0  0  0  0  0  0  0  0  0  0  0
  139.8300   78.5730  223.4220 C   0  0  0  0  0  0  0  0  0  0  0  0
  140.4210   79.8210  223.3080 C   0  0  0  0  0  0  0  0  0  0  0  0
  141.4040   80.0670  222.3710 C   0  0  0  0  0  0  0  0  0  0  0  0
  141.8040   79.0410  221.5310 C   0  0  0  0  0  0  0  0  0  0  0  0
  141.2410   77.7840  221.6120 C   0  0  0  0  0  0  0  0  0  0  0  0
  141.6260   76.7440  220.7830 C   0  0  0  0  0  0  0  0  0  0  0  0
  142.5230   77.0240  219.9470 O   0  0  0  0  0  0  0  0  0  0  0  0
  141.0690   75.5000  220.8670 N   0  0  0  0  0  0  0  0  0  0  0  0
  141.5760   74.5010  219.9900 C   0  0  0  0  0  0  0  0  0  0  0  0
  142.8430   73.8120  220.3820 C   0  0  0  0  0  0  0  0  0  0  0  0
  144.0860   74.5750  220.0470 C   0  0  0  0  0  0  0  0  0  0  0  0
  145.3370   73.7250  220.1000 C   0  0  0  0  0  0  0  0  0  0  0  0
  145.1620   72.6920  221.1940 C   0  0  0  0  0  0  0  0  0  0  0  0
  144.0750   71.7360  220.8270 C   0  0  0  0  0  0  0  0  0  0  0  0
  142.9810   72.3840  219.9900 C   0  0  0  0  0  0  0  0  0  0  0  0
  140.6930   71.9750  224.4340 C   0  0  0  0  0  0  0  0  0  0  0  0
  140.6350   70.9550  225.3210 C   0  0  0  0  0  0  0  0  0  0  0  0
  141.4170   67.0770  227.0860 H   0  0  0  0  0  0  0  0  0  0  0  0
  142.0600   68.6380  226.7610 H   0  0  0  0  0  0  0  0  0  0  0  0
  138.6503   68.8549  223.6303 H   0  0  0  0  0  0  0  0  0  0  0  0
  138.7567   70.7103  222.0132 H   0  0  0  0  0  0  0  0  0  0  0  0
  138.8627   73.7914  221.0863 H   0  0  0  0  0  0  0  0  0  0  0  0
  138.6521   74.2570  222.8380 H   0  0  0  0  0  0  0  0  0  0  0  0
  139.0463   78.3783  224.1690 H   0  0  0  0  0  0  0  0  0  0  0  0
  140.1002   80.6323  223.9780 H   0  0  0  0  0  0  0  0  0  0  0  0
  141.8632   81.0635  222.2925 H   0  0  0  0  0  0  0  0  0  0  0  0
  142.5875   79.2325  220.7831 H   0  0  0  0  0  0  0  0  0  0  0  0
  140.7997   73.7284  219.8880 H   0  0  0  0  0  0  0  0  0  0  0  0
  141.8279   75.0429  219.0665 H   0  0  0  0  0  0  0  0  0  0  0  0
  142.7326   73.7964  221.4763 H   0  0  0  0  0  0  0  0  0  0  0  0
  143.9830   74.9832  219.0308 H   0  0  0  0  0  0  0  0  0  0  0  0
  144.1967   75.3687  220.8005 H   0  0  0  0  0  0  0  0  0  0  0  0
  145.4864   73.2218  219.1333 H   0  0  0  0  0  0  0  0  0  0  0  0
  146.2149   74.3540  220.3086 H   0  0  0  0  0  0  0  0  0  0  0  0
  146.1036   72.1390  221.3264 H   0  0  0  0  0  0  0  0  0  0  0  0
  144.8926   73.2015  222.1309 H   0  0  0  0  0  0  0  0  0  0  0  0
  144.5142   70.9076  220.2517 H   0  0  0  0  0  0  0  0  0  0  0  0
  143.6137   71.3828  221.7610 H   0  0  0  0  0  0  0  0  0  0  0  0
  143.2467   72.3195  218.9245 H   0  0  0  0  0  0  0  0  0  0  0  0
  142.0282   71.8613  220.1605 H   0  0  0  0  0  0  0  0  0  0  0  0
  141.2887   72.8628  224.6927 H   0  0  0  0  0  0  0  0  0  0  0  0
  141.1807   71.0354  226.2727 H   0  0  0  0  0  0  0  0  0  0  0  0
  1  2  1  0
  2  3  2  0
  2  4  2  0
  2  5  1  0
  5  6  2  0
  6  7  1  0
  7  8  2  0
  8  9  1  0
  9 10  1  0
 10 11  1  0
 11 12  2  0
 12 13  1  0
 13 14  2  0
 14 15  1  0
 15 16  2  0
 16 17  1  0
 17 18  2  0
 18 19  1  0
 19 20  2  0
 19 21  1  0
 21 22  1  0
 22 23  1  0
 23 24  1  0
 24 25  1  0
 25 26  1  0
 26 27  1  0
 27 28  1  0
  8 29  1  0
 29 30  2  0
 30  5  1  0
 21 11  1  0
 28 23  1  0
 18 13  1  0
  1 31  1  0
  1 32  1  0
  6 33  1  0
  7 34  1  0
 10 35  1  0
 10 36  1  0
 14 37  1  0
 15 38  1  0
 16 39  1  0
 17 40  1  0
 22 41  1  0
 22 42  1  0
 23 43  1  0
 24 44  1  0
 24 45  1  0
 25 46  1  0
 25 47  1  0
 26 48  1  0
 26 49  1  0
 27 50  1  0
 27 51  1  0
 28 52  1  0
 28 53  1  0
 29 54  1  0
 30 55  1  0
M  END
>  <smiles>  (47) 
NS(=O)(=O)c1ccc(OCc2nc3ccccc3c(=O)n2CC2CCCCC2)cc1

>  <score_type>  (47) 
oracle

>  <origin>  (47) 
autodockgpu

>  <m_score__min__energy>  (47) 
-8.8800000000000008

>  <m_primary>  (47) 
energy

>  <rmsd>  (47) 
4.650824517750894

>  <m_score__min__rmsd>  (47) 
4.650824517750894

>  <meeko>  (47) 
{"free_energy": -8.33, "intermolecular_energy": -10.42, "internal_energy": -1.41, "cluster_size": 4, "cluster_id": 3, "rank_in_cluster": 3}

>  <energy>  (47) 
-7.41

>  <cluster_rmsd>  (47) 
0.59

>  <cluster>  (47) 
6

$$$$

     RDKit          3D

 55 58  0  0  0  0  0  0  0  0999 V2000
  144.4750   74.8850  217.5250 N   0  0  0  0  0  0  0  0  0  0  0  0
  144.5940   73.2870  218.1740 S   0  0  0  0  0  0  0  0  0  0  0  0
  144.2730   72.2950  217.1070 O   0  0  0  0  0  0  0  0  0  0  0  0
  145.9810   73.0380  218.6790 O   0  0  0  0  0  0  0  0  0  0  0  0
  143.4470   73.1410  219.4730 C   0  0  0  0  0  0  0  0  0  0  0  0
  142.6990   74.2340  219.8150 C   0  0  0  0  0  0  0  0  0  0  0  0
  141.7730   74.1470  220.8500 C   0  0  0  0  0  0  0  0  0  0  0  0
  141.5550   73.0040  221.5730 C   0  0  0  0  0  0  0  0  0  0  0  0
  140.7110   72.7830  222.5800 O   0  0  0  0  0  0  0  0  0  0  0  0
  139.5570   72.0570  222.7510 C   0  0  0  0  0  0  0  0  0  0  0  0
  139.6500   71.0540  223.8420 C   0  0  0  0  0  0  0  0  0  0  0  0
  140.1820   71.5560  225.0090 N   0  0  0  0  0  0  0  0  0  0  0  0
  140.3710   70.8080  226.0970 C   0  0  0  0  0  0  0  0  0  0  0  0
  140.9090   71.3720  227.2390 C   0  0  0  0  0  0  0  0  0  0  0  0
  141.0840   70.5460  228.3370 C   0  0  0  0  0  0  0  0  0  0  0  0
  140.7340   69.2110  228.2950 C   0  0  0  0  0  0  0  0  0  0  0  0
  140.1980   68.6930  227.1270 C   0  0  0  0  0  0  0  0  0  0  0  0
  140.0080   69.4820  226.0110 C   0  0  0  0  0  0  0  0  0  0  0  0
  139.4730   68.9850  224.8350 C   0  0  0  0  0  0  0  0  0  0  0  0
  139.1760   67.7640  224.8500 O   0  0  0  0  0  0  0  0  0  0  0  0
  139.2840   69.7690  223.7320 N   0  0  0  0  0  0  0  0  0  0  0  0
  138.6880   69.1560  222.5940 C   0  0  0  0  0  0  0  0  0  0  0  0
  139.5750   68.8450  221.4310 C   0  0  0  0  0  0  0  0  0  0  0  0
  139.5520   69.8770  220.3490 C   0  0  0  0  0  0  0  0  0  0  0  0
  140.1410   69.3840  219.0450 C   0  0  0  0  0  0  0  0  0  0  0  0
  141.2620   68.4180  219.3670 C   0  0  0  0  0  0  0  0  0  0  0  0
  140.7090   67.1910  220.0170 C   0  0  0  0  0  0  0  0  0  0  0  0
  139.4720   67.4770  220.8560 C   0  0  0  0  0  0  0  0  0  0  0  0
  142.3580   71.9080  221.1730 C   0  0  0  0  0  0  0  0  0  0  0  0
  143.2600   71.9840  220.1680 C   0  0  0  0  0  0  0  0  0  0  0  0
  145.3370   75.1720  217.0160 H   0  0  0  0  0  0  0  0  0  0  0  0
  144.2130   75.5880  218.2490 H   0  0  0  0  0  0  0  0  0  0  0  0
  142.8295   75.1816  219.2719 H   0  0  0  0  0  0  0  0  0  0  0  0
  141.1855   75.0426  221.1007 H   0  0  0  0  0  0  0  0  0  0  0  0
  138.7382   72.7531  222.9856 H   0  0  0  0  0  0  0  0  0  0  0  0
  139.3775   71.5057  221.8162 H   0  0  0  0  0  0  0  0  0  0  0  0
  141.1873   72.4356  227.2742 H   0  0  0  0  0  0  0  0  0  0  0  0
  141.5106   70.9622  229.2616 H   0  0  0  0  0  0  0  0  0  0  0  0
  140.8785   68.5682  229.1758 H   0  0  0  0  0  0  0  0  0  0  0  0
  139.9179   67.6299  227.0885 H   0  0  0  0  0  0  0  0  0  0  0  0
  138.2388   68.2090  222.9278 H   0  0  0  0  0  0  0  0  0  0  0  0
  137.9792   69.9055  222.2121 H   0  0  0  0  0  0  0  0  0  0  0  0
  140.5622   68.8764  221.9151 H   0  0  0  0  0  0  0  0  0  0  0  0
  138.5080   70.1744  220.1712 H   0  0  0  0  0  0  0  0  0  0  0  0
  140.1691   70.7219  220.6887 H   0  0  0  0  0  0  0  0  0  0  0  0
  139.3657   68.8718  218.4564 H   0  0  0  0  0  0  0  0  0  0  0  0
  140.5262   70.2308  218.4580 H   0  0  0  0  0  0  0  0  0  0  0  0
  141.7784   68.1365  218.4375 H   0  0  0  0  0  0  0  0  0  0  0  0
  141.9699   68.9031  220.0551 H   0  0  0  0  0  0  0  0  0  0  0  0
  140.4426   66.4671  219.2328 H   0  0  0  0  0  0  0  0  0  0  0  0
  141.4829   66.7947  220.6908 H   0  0  0  0  0  0  0  0  0  0  0  0
  138.5749   67.4109  220.2228 H   0  0  0  0  0  0  0  0  0  0  0  0
  139.3989   66.7396  221.6689 H   0  0  0  0  0  0  0  0  0  0  0  0
  142.2428   70.9515  221.7038 H   0  0  0  0  0  0  0  0  0  0  0  0
  143.8535   71.0954  219.9069 H   0  0  0  0  0  0  0  0  0  0  0  0
  1  2  1  0
  2  3  2  0
  2  4  2  0
  2  5  1  0
  5  6  2  0
  6  7  1  0
  7  8  2  0
  8  9  1  0
  9 10  1  0
 10 11  1  0
 11 12  2  0
 12 13  1  0
 13 14  2  0
 14 15  1  0
 15 16  2  0
 16 17  1  0
 17 18  2  0
 18 19  1  0
 19 20  2  0
 19 21  1  0
 21 22  1  0
 22 23  1  0
 23 24  1  0
 24 25  1  0
 25 26  1  0
 26 27  1  0
 27 28  1  0
  8 29  1  0
 29 30  2  0
 30  5  1  0
 21 11  1  0
 28 23  1  0
 18 13  1  0
  1 31  1  0
  1 32  1  0
  6 33  1  0
  7 34  1  0
 10 35  1  0
 10 36  1  0
 14 37  1  0
 15 38  1  0
 16 39  1  0
 17 40  1  0
 22 41  1  0
 22 42  1  0
 23 43  1  0
 24 44  1  0
 24 45  1  0
 25 46  1  0
 25 47  1  0
 26 48  1  0
 26 49  1  0
 27 50  1  0
 27 51  1  0
 28 52  1  0
 28 53  1  0
 29 54  1  0
 30 55  1  0
M  END
>  <smiles>  (48) 
NS(=O)(=O)c1ccc(OCc2nc3ccccc3c(=O)n2CC2CCCCC2)cc1

>  <score_type>  (48) 
oracle

>  <origin>  (48) 
autodockgpu

>  <m_score__min__energy>  (48) 
-8.8800000000000008

>  <m_primary>  (48) 
energy

>  <rmsd>  (48) 
10.800978281283074

>  <m_score__min__rmsd>  (48) 
10.800978281283074

>  <meeko>  (48) 
{"free_energy": -8.21, "intermolecular_energy": -10.3, "internal_energy": -1.65, "cluster_size": 17, "cluster_id": 2, "rank_in_cluster": 14}

>  <energy>  (48) 
-7.4

>  <cluster_rmsd>  (48) 
0.45

>  <cluster>  (48) 
6

$$$$

     RDKit          3D

 55 58  0  0  0  0  0  0  0  0999 V2000
  145.9360   73.3940  217.8420 N   0  0  0  0  0  0  0  0  0  0  0  0
  145.9260   73.0020  219.5260 S   0  0  0  0  0  0  0  0  0  0  0  0
  146.1690   71.5400  219.6950 O   0  0  0  0  0  0  0  0  0  0  0  0
  146.9970   73.7670  220.2400 O   0  0  0  0  0  0  0  0  0  0  0  0
  144.3640   73.4150  220.1700 C   0  0  0  0  0  0  0  0  0  0  0  0
  143.5230   72.4070  220.5520 C   0  0  0  0  0  0  0  0  0  0  0  0
  142.2670   72.7070  221.0710 C   0  0  0  0  0  0  0  0  0  0  0  0
  141.8030   73.9850  221.2310 C   0  0  0  0  0  0  0  0  0  0  0  0
  140.6350   74.4130  221.7080 O   0  0  0  0  0  0  0  0  0  0  0  0
  139.7540   75.4180  221.3900 C   0  0  0  0  0  0  0  0  0  0  0  0
  140.3840   76.7620  221.3590 C   0  0  0  0  0  0  0  0  0  0  0  0
  140.8200   77.1950  222.5910 N   0  0  0  0  0  0  0  0  0  0  0  0
  141.3910   78.3870  222.7760 C   0  0  0  0  0  0  0  0  0  0  0  0
  141.8080   78.7650  224.0390 C   0  0  0  0  0  0  0  0  0  0  0  0
  142.3920   80.0140  224.1710 C   0  0  0  0  0  0  0  0  0  0  0  0
  142.5520   80.8510  223.0860 C   0  0  0  0  0  0  0  0  0  0  0  0
  142.1170   80.4270  221.8410 C   0  0  0  0  0  0  0  0  0  0  0  0
  141.5300   79.1900  221.6660 C   0  0  0  0  0  0  0  0  0  0  0  0
  141.0890   78.7470  220.4310 C   0  0  0  0  0  0  0  0  0  0  0  0
  141.2560   79.5500  219.4780 O   0  0  0  0  0  0  0  0  0  0  0  0
  140.5110   77.5210  220.2610 N   0  0  0  0  0  0  0  0  0  0  0  0
  140.1360   77.1590  218.9370 C   0  0  0  0  0  0  0  0  0  0  0  0
  141.1940   76.5890  218.0480 C   0  0  0  0  0  0  0  0  0  0  0  0
  141.1390   75.1010  217.9030 C   0  0  0  0  0  0  0  0  0  0  0  0
  142.4080   74.5130  217.3250 C   0  0  0  0  0  0  0  0  0  0  0  0
  142.9860   75.5100  216.3410 C   0  0  0  0  0  0  0  0  0  0  0  0
  143.4370   76.7380  217.0630 C   0  0  0  0  0  0  0  0  0  0  0  0
  142.5890   77.0430  218.2890 C   0  0  0  0  0  0  0  0  0  0  0  0
  142.7180   74.9860  220.8200 C   0  0  0  0  0  0  0  0  0  0  0  0
  143.9410   74.7020  220.3140 C   0  0  0  0  0  0  0  0  0  0  0  0
  146.7170   72.9310  217.3320 H   0  0  0  0  0  0  0  0  0  0  0  0
  145.9350   74.4240  217.6750 H   0  0  0  0  0  0  0  0  0  0  0  0
  143.8392   71.3585  220.4491 H   0  0  0  0  0  0  0  0  0  0  0  0
  141.6131   71.8739  221.3681 H   0  0  0  0  0  0  0  0  0  0  0  0
  139.3287   75.2086  220.3974 H   0  0  0  0  0  0  0  0  0  0  0  0
  138.9836   75.4369  222.1749 H   0  0  0  0  0  0  0  0  0  0  0  0
  141.6808   78.0994  224.9055 H   0  0  0  0  0  0  0  0  0  0  0  0
  142.7355   80.3456  225.1620 H   0  0  0  0  0  0  0  0  0  0  0  0
  143.0179   81.8400  223.2077 H   0  0  0  0  0  0  0  0  0  0  0  0
  142.2421   81.0907  220.9728 H   0  0  0  0  0  0  0  0  0  0  0  0
  139.3340   76.4103  219.0155 H   0  0  0  0  0  0  0  0  0  0  0  0
  139.8514   78.1078  218.4586 H   0  0  0  0  0  0  0  0  0  0  0  0
  140.9111   77.0385  217.0847 H   0  0  0  0  0  0  0  0  0  0  0  0
  140.9688   74.6587  218.8957 H   0  0  0  0  0  0  0  0  0  0  0  0
  140.3223   74.8698  217.2033 H   0  0  0  0  0  0  0  0  0  0  0  0
  143.1316   74.3234  218.1315 H   0  0  0  0  0  0  0  0  0  0  0  0
  142.1895   73.5616  216.8180 H   0  0  0  0  0  0  0  0  0  0  0  0
  143.8440   75.0558  215.8238 H   0  0  0  0  0  0  0  0  0  0  0  0
  142.2122   75.7851  215.6092 H   0  0  0  0  0  0  0  0  0  0  0  0
  144.4797   76.5951  217.3830 H   0  0  0  0  0  0  0  0  0  0  0  0
  143.3368   77.5865  216.3702 H   0  0  0  0  0  0  0  0  0  0  0  0
  143.0015   76.5151  219.1615 H   0  0  0  0  0  0  0  0  0  0  0  0
  142.5956   78.1261  218.4810 H   0  0  0  0  0  0  0  0  0  0  0  0
  142.4212   76.0408  220.9165 H   0  0  0  0  0  0  0  0  0  0  0  0
  144.6055   75.5255  220.0135 H   0  0  0  0  0  0  0  0  0  0  0  0
  1  2  1  0
  2  3  2  0
  2  4  2  0
  2  5  1  0
  5  6  2  0
  6  7  1  0
  7  8  2  0
  8  9  1  0
  9 10  1  0
 10 11  1  0
 11 12  2  0
 12 13  1  0
 13 14  2  0
 14 15  1  0
 15 16  2  0
 16 17  1  0
 17 18  2  0
 18 19  1  0
 19 20  2  0
 19 21  1  0
 21 22  1  0
 22 23  1  0
 23 24  1  0
 24 25  1  0
 25 26  1  0
 26 27  1  0
 27 28  1  0
  8 29  1  0
 29 30  2  0
 30  5  1  0
 21 11  1  0
 28 23  1  0
 18 13  1  0
  1 31  1  0
  1 32  1  0
  6 33  1  0
  7 34  1  0
 10 35  1  0
 10 36  1  0
 14 37  1  0
 15 38  1  0
 16 39  1  0
 17 40  1  0
 22 41  1  0
 22 42  1  0
 23 43  1  0
 24 44  1  0
 24 45  1  0
 25 46  1  0
 25 47  1  0
 26 48  1  0
 26 49  1  0
 27 50  1  0
 27 51  1  0
 28 52  1  0
 28 53  1  0
 29 54  1  0
 30 55  1  0
M  END
>  <smiles>  (49) 
NS(=O)(=O)c1ccc(OCc2nc3ccccc3c(=O)n2CC2CCCCC2)cc1

>  <score_type>  (49) 
oracle

>  <origin>  (49) 
autodockgpu

>  <m_score__min__energy>  (49) 
-8.8800000000000008

>  <m_primary>  (49) 
energy

>  <rmsd>  (49) 
3.7379884901431053

>  <m_score__min__rmsd>  (49) 
3.7379884901431053

>  <meeko>  (49) 
{"free_energy": -7.49, "intermolecular_energy": -9.58, "internal_energy": -2.32, "cluster_size": 16, "cluster_id": 6, "rank_in_cluster": 13}

>  <energy>  (49) 
-7.67

>  <cluster_rmsd>  (49) 
0.0

>  <cluster>  (49) 
7

$$$$

     RDKit          3D

 55 58  0  0  0  0  0  0  0  0999 V2000
  145.9320   73.3980  218.0720 N   0  0  0  0  0  0  0  0  0  0  0  0
  145.9350   72.8020  219.6940 S   0  0  0  0  0  0  0  0  0  0  0  0
  146.6400   71.4880  219.7370 O   0  0  0  0  0  0  0  0  0  0  0  0
  146.6350   73.7690  220.5970 O   0  0  0  0  0  0  0  0  0  0  0  0
  144.2830   72.5970  220.2010 C   0  0  0  0  0  0  0  0  0  0  0  0
  143.4980   73.7070  220.3450 C   0  0  0  0  0  0  0  0  0  0  0  0
  142.1730   73.5740  220.7490 C   0  0  0  0  0  0  0  0  0  0  0  0
  141.5840   72.3680  221.0200 C   0  0  0  0  0  0  0  0  0  0  0  0
  140.3400   72.0970  221.4120 O   0  0  0  0  0  0  0  0  0  0  0  0
  139.5720   72.3950  222.5120 C   0  0  0  0  0  0  0  0  0  0  0  0
  139.6700   71.3770  223.5890 C   0  0  0  0  0  0  0  0  0  0  0  0
  140.2090   71.8610  224.7590 N   0  0  0  0  0  0  0  0  0  0  0  0
  140.4030   71.0960  225.8350 C   0  0  0  0  0  0  0  0  0  0  0  0
  140.9500   71.6420  226.9820 C   0  0  0  0  0  0  0  0  0  0  0  0
  141.1290   70.8000  228.0670 C   0  0  0  0  0  0  0  0  0  0  0  0
  140.7770   69.4670  228.0080 C   0  0  0  0  0  0  0  0  0  0  0  0
  140.2330   68.9670  226.8360 C   0  0  0  0  0  0  0  0  0  0  0  0
  140.0380   69.7720  225.7320 C   0  0  0  0  0  0  0  0  0  0  0  0
  139.4940   69.2940  224.5520 C   0  0  0  0  0  0  0  0  0  0  0  0
  139.1940   68.0730  224.5520 O   0  0  0  0  0  0  0  0  0  0  0  0
  139.3000   70.0930  223.4620 N   0  0  0  0  0  0  0  0  0  0  0  0
  138.6960   69.4980  222.3200 C   0  0  0  0  0  0  0  0  0  0  0  0
  137.2290   69.2160  222.3790 C   0  0  0  0  0  0  0  0  0  0  0  0
  136.5390   69.8030  223.5700 C   0  0  0  0  0  0  0  0  0  0  0  0
  135.1690   69.2090  223.8150 C   0  0  0  0  0  0  0  0  0  0  0  0
  134.5530   68.8690  222.4730 C   0  0  0  0  0  0  0  0  0  0  0  0
  135.3260   67.7710  221.8190 C   0  0  0  0  0  0  0  0  0  0  0  0
  136.8070   67.8060  222.1690 C   0  0  0  0  0  0  0  0  0  0  0  0
  142.4460   71.2560  220.8520 C   0  0  0  0  0  0  0  0  0  0  0  0
  143.7360   71.3770  220.4600 C   0  0  0  0  0  0  0  0  0  0  0  0
  145.9350   74.4380  218.0310 H   0  0  0  0  0  0  0  0  0  0  0  0
  145.1520   73.0010  217.5050 H   0  0  0  0  0  0  0  0  0  0  0  0
  143.9136   74.7049  220.1416 H   0  0  0  0  0  0  0  0  0  0  0  0
  141.5669   74.4857  220.8563 H   0  0  0  0  0  0  0  0  0  0  0  0
  139.9014   73.3637  222.9159 H   0  0  0  0  0  0  0  0  0  0  0  0
  138.5234   72.4195  222.1807 H   0  0  0  0  0  0  0  0  0  0  0  0
  141.2320   72.7041  227.0306 H   0  0  0  0  0  0  0  0  0  0  0  0
  141.5608   71.2023  228.9953 H   0  0  0  0  0  0  0  0  0  0  0  0
  140.9261   68.8112  228.8785 H   0  0  0  0  0  0  0  0  0  0  0  0
  139.9503   67.9052  226.7842 H   0  0  0  0  0  0  0  0  0  0  0  0
  138.8671   70.1729  221.4684 H   0  0  0  0  0  0  0  0  0  0  0  0
  139.1672   68.5073  222.2399 H   0  0  0  0  0  0  0  0  0  0  0  0
  136.8845   69.7517  221.4822 H   0  0  0  0  0  0  0  0  0  0  0  0
  137.1620   69.6244  224.4588 H   0  0  0  0  0  0  0  0  0  0  0  0
  136.4006   70.8763  223.3729 H   0  0  0  0  0  0  0  0  0  0  0  0
  135.2619   68.2975  224.4237 H   0  0  0  0  0  0  0  0  0  0  0  0
  134.5340   69.9281  224.3531 H   0  0  0  0  0  0  0  0  0  0  0  0
  133.5128   68.5435  222.6217 H   0  0  0  0  0  0  0  0  0  0  0  0
  134.5768   69.7603  221.8288 H   0  0  0  0  0  0  0  0  0  0  0  0
  134.9103   66.8059  222.1442 H   0  0  0  0  0  0  0  0  0  0  0  0
  135.2385   67.9057  220.7308 H   0  0  0  0  0  0  0  0  0  0  0  0
  136.9808   67.2295  223.0896 H   0  0  0  0  0  0  0  0  0  0  0  0
  137.3904   67.3652  221.3472 H   0  0  0  0  0  0  0  0  0  0  0  0
  142.0491   70.2492  221.0490 H   0  0  0  0  0  0  0  0  0  0  0  0
  144.3536   70.4736  220.3486 H   0  0  0  0  0  0  0  0  0  0  0  0
  1  2  1  0
  2  3  2  0
  2  4  2  0
  2  5  1  0
  5  6  2  0
  6  7  1  0
  7  8  2  0
  8  9  1  0
  9 10  1  0
 10 11  1  0
 11 12  2  0
 12 13  1  0
 13 14  2  0
 14 15  1  0
 15 16  2  0
 16 17  1  0
 17 18  2  0
 18 19  1  0
 19 20  2  0
 19 21  1  0
 21 22  1  0
 22 23  1  0
 23 24  1  0
 24 25  1  0
 25 26  1  0
 26 27  1  0
 27 28  1  0
  8 29  1  0
 29 30  2  0
 30  5  1  0
 21 11  1  0
 28 23  1  0
 18 13  1  0
  1 31  1  0
  1 32  1  0
  6 33  1  0
  7 34  1  0
 10 35  1  0
 10 36  1  0
 14 37  1  0
 15 38  1  0
 16 39  1  0
 17 40  1  0
 22 41  1  0
 22 42  1  0
 23 43  1  0
 24 44  1  0
 24 45  1  0
 25 46  1  0
 25 47  1  0
 26 48  1  0
 26 49  1  0
 27 50  1  0
 27 51  1  0
 28 52  1  0
 28 53  1  0
 29 54  1  0
 30 55  1  0
M  END
>  <smiles>  (50) 
NS(=O)(=O)c1ccc(OCc2nc3ccccc3c(=O)n2CC2CCCCC2)cc1

>  <score_type>  (50) 
oracle

>  <origin>  (50) 
autodockgpu

>  <m_score__min__energy>  (50) 
-8.8800000000000008

>  <m_primary>  (50) 
energy

>  <rmsd>  (50) 
11.3518445176595

>  <m_score__min__rmsd>  (50) 
11.3518445176595

>  <meeko>  (50) 
{"free_energy": -8.18, "intermolecular_energy": -10.27, "internal_energy": -1.38, "cluster_size": 17, "cluster_id": 2, "rank_in_cluster": 15}

>  <energy>  (50) 
-7.15

>  <cluster_rmsd>  (50) 
0.0

>  <cluster>  (50) 
8

$$$$
