
     RDKit          3D

 45 48  0  0  0  0  0  0  0  0999 V2000
  139.7260   72.2330  220.5430 O   0  0  0  0  0  0  0  0  0  0  0  0
  139.7070   72.6760  221.7200 C   0  0  0  0  0  0  0  0  0  0  0  0
  139.6370   74.0490  222.0300 N   0  0  0  0  0  0  0  0  0  0  0  0
  139.5820   75.0630  220.9970 C   0  0  0  0  0  0  0  0  0  0  0  0
  140.2920   76.2670  221.5220 C   0  0  0  0  0  0  0  0  0  0  0  0
  140.6130   76.2900  222.7380 O   0  0  0  0  0  0  0  0  0  0  0  0
  140.5840   77.3500  220.6330 N   0  0  0  0  0  0  0  0  0  0  0  0
  140.7900   77.2470  219.1970 C   0  0  0  0  0  0  0  0  0  0  0  0
  141.5170   78.5000  218.8000 C   0  0  0  0  0  0  0  0  0  0  0  0
  141.7650   79.2700  220.0730 C   0  0  0  0  0  0  0  0  0  0  0  0
  140.7240   78.7370  221.0270 C   0  0  2  0  0  0  0  0  0  0  0  0
  141.1510   78.8660  222.4680 C   0  0  0  0  0  0  0  0  0  0  0  0
  142.4540   79.4770  222.8200 C   0  0  0  0  0  0  0  0  0  0  0  0
  141.1590   80.2240  223.1390 C   0  0  0  0  0  0  0  0  0  0  0  0
  139.7610   71.7130  222.8380 C   0  0  0  0  0  0  0  0  0  0  0  0
  139.2410   70.4360  222.7100 C   0  0  0  0  0  0  0  0  0  0  0  0
  139.2920   69.5360  223.7570 C   0  0  0  0  0  0  0  0  0  0  0  0
  139.8760   69.9480  224.9330 C   0  0  0  0  0  0  0  0  0  0  0  0
  139.9640   69.1070  226.0220 C   0  0  0  0  0  0  0  0  0  0  0  0
  140.5610   69.5400  227.2110 C   0  0  0  0  0  0  0  0  0  0  0  0
  140.6850   68.4880  228.6060 Cl  0  0  0  0  0  0  0  0  0  0  0  0
  141.0740   70.8220  227.3120 C   0  0  0  0  0  0  0  0  0  0  0  0
  140.9880   71.6700  226.2210 C   0  0  0  0  0  0  0  0  0  0  0  0
  140.3980   71.2140  225.0730 C   0  0  0  0  0  0  0  0  0  0  0  0
  140.3190   72.0440  224.0230 N   0  0  0  0  0  0  0  0  0  0  0  0
  139.6260   74.3390  223.0470 H   0  0  0  0  0  0  0  0  0  0  0  0
  140.0793   74.6998  220.0855 H   0  0  0  0  0  0  0  0  0  0  0  0
  138.5396   75.3046  220.7421 H   0  0  0  0  0  0  0  0  0  0  0  0
  141.3959   76.3603  218.9590 H   0  0  0  0  0  0  0  0  0  0  0  0
  139.8377   77.1416  218.6567 H   0  0  0  0  0  0  0  0  0  0  0  0
  142.4719   78.2484  218.3154 H   0  0  0  0  0  0  0  0  0  0  0  0
  140.9287   79.0924  218.0838 H   0  0  0  0  0  0  0  0  0  0  0  0
  142.7792   79.0801  220.4542 H   0  0  0  0  0  0  0  0  0  0  0  0
  141.6937   80.3585  219.9316 H   0  0  0  0  0  0  0  0  0  0  0  0
  139.7787   79.2967  220.9717 H   0  0  0  0  0  0  0  0  0  0  0  0
  140.6751   77.8984  222.6853 H   0  0  0  0  0  0  0  0  0  0  0  0
  143.0573   79.0515  223.6354 H   0  0  0  0  0  0  0  0  0  0  0  0
  143.3722   79.7190  222.2648 H   0  0  0  0  0  0  0  0  0  0  0  0
  140.8219   80.3301  224.1807 H   0  0  0  0  0  0  0  0  0  0  0  0
  140.7461   81.2178  222.9113 H   0  0  0  0  0  0  0  0  0  0  0  0
  138.7795   70.1330  221.7586 H   0  0  0  0  0  0  0  0  0  0  0  0
  138.8787   68.5218  223.6538 H   0  0  0  0  0  0  0  0  0  0  0  0
  139.5609   68.0857  225.9554 H   0  0  0  0  0  0  0  0  0  0  0  0
  141.5437   71.1623  228.2467 H   0  0  0  0  0  0  0  0  0  0  0  0
  141.3873   72.6935  226.2758 H   0  0  0  0  0  0  0  0  0  0  0  0
  1  2  2  0
  2  3  1  0
  3  4  1  0
  4  5  1  0
  5  6  2  0
  5  7  1  0
  7  8  1  0
  8  9  1  0
  9 10  1  0
 10 11  1  0
 11 12  1  0
 12 13  1  0
 13 14  1  0
  2 15  1  0
 15 16  2  0
 16 17  1  0
 17 18  2  0
 18 19  1  0
 19 20  2  0
 20 21  1  0
 20 22  1  0
 22 23  2  0
 23 24  1  0
 24 25  2  0
 11  7  1  0
 14 12  1  0
 25 15  1  0
 24 18  1  0
  3 26  1  0
  4 27  1  0
  4 28  1  0
  8 29  1  0
  8 30  1  0
  9 31  1  0
  9 32  1  0
 10 33  1  0
 10 34  1  0
 11 35  1  1
 12 36  1  0
 13 37  1  0
 13 38  1  0
 14 39  1  0
 14 40  1  0
 16 41  1  0
 17 42  1  0
 19 43  1  0
 22 44  1  0
 23 45  1  0
M  END
>  <smiles>  (1) 
O=C(NCC(=O)N1CCCC1C1CC1)c1ccc2cc(Cl)ccc2n1

>  <score_type>  (1) 
oracle

>  <origin>  (1) 
autodockgpu

>  <m_score__min__energy>  (1) 
-8.1999999999999993

>  <m_primary>  (1) 
energy

>  <rmsd>  (1) 
2.080086195917303

>  <m_score__min__rmsd>  (1) 
2.080086195917303

>  <meeko>  (1) 
{"free_energy": -7.49, "intermolecular_energy": -8.98, "internal_energy": -1.58, "cluster_size": 20, "cluster_id": 3, "rank_in_cluster": 12}

>  <energy>  (1) 
-8.2

>  <cluster_rmsd>  (1) 
0.0

>  <cluster>  (1) 
1

$$$$

     RDKit          3D

 45 48  0  0  0  0  0  0  0  0999 V2000
  140.1700   72.5850  220.7500 O   0  0  0  0  0  0  0  0  0  0  0  0
  139.9200   72.9510  221.9270 C   0  0  0  0  0  0  0  0  0  0  0  0
  139.6010   74.2790  222.2740 N   0  0  0  0  0  0  0  0  0  0  0  0
  139.5370   75.3330  221.2810 C   0  0  0  0  0  0  0  0  0  0  0  0
  139.0440   76.5610  221.9730 C   0  0  0  0  0  0  0  0  0  0  0  0
  138.4680   76.4320  223.0840 O   0  0  0  0  0  0  0  0  0  0  0  0
  139.2390   77.8380  221.3560 N   0  0  0  0  0  0  0  0  0  0  0  0
  138.6580   78.2780  220.0980 C   0  0  0  0  0  0  0  0  0  0  0  0
  139.5010   79.4360  219.6450 C   0  0  0  0  0  0  0  0  0  0  0  0
  140.6060   79.5810  220.6610 C   0  0  0  0  0  0  0  0  0  0  0  0
  140.0560   78.9060  221.8930 C   0  0  2  0  0  0  0  0  0  0  0  0
  141.1490   78.3750  222.7890 C   0  0  0  0  0  0  0  0  0  0  0  0
  142.4300   79.1040  222.9330 C   0  0  0  0  0  0  0  0  0  0  0  0
  141.4510   79.0600  224.1050 C   0  0  0  0  0  0  0  0  0  0  0  0
  139.9620   71.9430  223.0050 C   0  0  0  0  0  0  0  0  0  0  0  0
  139.5230   70.6460  222.7920 C   0  0  0  0  0  0  0  0  0  0  0  0
  139.5630   69.7040  223.8010 C   0  0  0  0  0  0  0  0  0  0  0  0
  140.0530   70.0930  225.0260 C   0  0  0  0  0  0  0  0  0  0  0  0
  140.1250   69.2100  226.0830 C   0  0  0  0  0  0  0  0  0  0  0  0
  140.6250   69.6200  227.3230 C   0  0  0  0  0  0  0  0  0  0  0  0
  140.7250   68.5140  228.6780 Cl  0  0  0  0  0  0  0  0  0  0  0  0
  141.0590   70.9210  227.5090 C   0  0  0  0  0  0  0  0  0  0  0  0
  140.9890   71.8120  226.4520 C   0  0  0  0  0  0  0  0  0  0  0  0
  140.4940   71.3770  225.2520 C   0  0  0  0  0  0  0  0  0  0  0  0
  140.4300   72.2480  224.2350 N   0  0  0  0  0  0  0  0  0  0  0  0
  139.4040   74.5050  223.2880 H   0  0  0  0  0  0  0  0  0  0  0  0
  140.5363   75.5139  220.8583 H   0  0  0  0  0  0  0  0  0  0  0  0
  138.8652   75.0528  220.4563 H   0  0  0  0  0  0  0  0  0  0  0  0
  138.6901   77.4666  219.3560 H   0  0  0  0  0  0  0  0  0  0  0  0
  137.6028   78.5652  220.2162 H   0  0  0  0  0  0  0  0  0  0  0  0
  139.9234   79.2328  218.6499 H   0  0  0  0  0  0  0  0  0  0  0  0
  138.9052   80.3576  219.5693 H   0  0  0  0  0  0  0  0  0  0  0  0
  141.5228   79.0802  220.3165 H   0  0  0  0  0  0  0  0  0  0  0  0
  140.8832   80.6304  220.8399 H   0  0  0  0  0  0  0  0  0  0  0  0
  139.4904   79.5984  222.5338 H   0  0  0  0  0  0  0  0  0  0  0  0
  140.8798   77.3500  222.4941 H   0  0  0  0  0  0  0  0  0  0  0  0
  143.3762   78.5457  222.9870 H   0  0  0  0  0  0  0  0  0  0  0  0
  142.9332   79.9057  222.3726 H   0  0  0  0  0  0  0  0  0  0  0  0
  141.6835   78.4642  225.0000 H   0  0  0  0  0  0  0  0  0  0  0  0
  140.9476   79.8044  224.7395 H   0  0  0  0  0  0  0  0  0  0  0  0
  139.1360   70.3619  221.8023 H   0  0  0  0  0  0  0  0  0  0  0  0
  139.2140   68.6749  223.6304 H   0  0  0  0  0  0  0  0  0  0  0  0
  139.7856   68.1723  225.9493 H   0  0  0  0  0  0  0  0  0  0  0  0
  141.4543   71.2427  228.4838 H   0  0  0  0  0  0  0  0  0  0  0  0
  141.3254   72.8521  226.5742 H   0  0  0  0  0  0  0  0  0  0  0  0
  1  2  2  0
  2  3  1  0
  3  4  1  0
  4  5  1  0
  5  6  2  0
  5  7  1  0
  7  8  1  0
  8  9  1  0
  9 10  1  0
 10 11  1  0
 11 12  1  0
 12 13  1  0
 13 14  1  0
  2 15  1  0
 15 16  2  0
 16 17  1  0
 17 18  2  0
 18 19  1  0
 19 20  2  0
 20 21  1  0
 20 22  1  0
 22 23  2  0
 23 24  1  0
 24 25  2  0
 11  7  1  0
 14 12  1  0
 25 15  1  0
 24 18  1  0
  3 26  1  0
  4 27  1  0
  4 28  1  0
  8 29  1  0
  8 30  1  0
  9 31  1  0
  9 32  1  0
 10 33  1  0
 10 34  1  0
 11 35  1  1
 12 36  1  0
 13 37  1  0
 13 38  1  0
 14 39  1  0
 14 40  1  0
 16 41  1  0
 17 42  1  0
 19 43  1  0
 22 44  1  0
 23 45  1  0
M  END
>  <smiles>  (2) 
O=C(NCC(=O)N1CCCC1C1CC1)c1ccc2cc(Cl)ccc2n1

>  <score_type>  (2) 
oracle

>  <origin>  (2) 
autodockgpu

>  <m_score__min__energy>  (2) 
-8.1999999999999993

>  <m_primary>  (2) 
energy

>  <rmsd>  (2) 
2.4861926789823445

>  <m_score__min__rmsd>  (2) 
2.4861926789823445

>  <meeko>  (2) 
{"free_energy": -7.19, "intermolecular_energy": -8.68, "internal_energy": -1.79, "cluster_size": 20, "cluster_id": 3, "rank_in_cluster": 20}

>  <energy>  (2) 
-8.2

>  <cluster_rmsd>  (2) 
0.06

>  <cluster>  (2) 
1

$$$$

     RDKit          3D

 45 48  0  0  0  0  0  0  0  0999 V2000
  135.0510   68.4570  224.8780 O   0  0  0  0  0  0  0  0  0  0  0  0
  135.5390   69.6140  224.9550 C   0  0  0  0  0  0  0  0  0  0  0  0
  136.8270   69.9450  224.4870 N   0  0  0  0  0  0  0  0  0  0  0  0
  137.6920   68.9580  223.8730 C   0  0  0  0  0  0  0  0  0  0  0  0
  138.8260   68.7190  224.8150 C   0  0  0  0  0  0  0  0  0  0  0  0
  139.2040   67.5350  225.0090 O   0  0  0  0  0  0  0  0  0  0  0  0
  139.4440   69.8340  225.4640 N   0  0  0  0  0  0  0  0  0  0  0  0
  139.9080   71.0510  224.8170 C   0  0  0  0  0  0  0  0  0  0  0  0
  140.8770   71.6780  225.7790 C   0  0  0  0  0  0  0  0  0  0  0  0
  140.9830   70.7350  226.9520 C   0  0  0  0  0  0  0  0  0  0  0  0
  139.7080   69.9300  226.8850 C   0  0  2  0  0  0  0  0  0  0  0  0
  139.8610   68.5670  227.5160 C   0  0  0  0  0  0  0  0  0  0  0  0
  141.0830   67.7620  227.2910 C   0  0  0  0  0  0  0  0  0  0  0  0
  140.8220   68.3690  228.6690 C   0  0  0  0  0  0  0  0  0  0  0  0
  134.7270   70.6840  225.5670 C   0  0  0  0  0  0  0  0  0  0  0  0
  133.6930   70.3890  226.4410 C   0  0  0  0  0  0  0  0  0  0  0  0
  132.9340   71.3910  227.0130 C   0  0  0  0  0  0  0  0  0  0  0  0
  133.2360   72.6940  226.6880 C   0  0  0  0  0  0  0  0  0  0  0  0
  132.5240   73.7490  227.2180 C   0  0  0  0  0  0  0  0  0  0  0  0
  132.8430   75.0680  226.8790 C   0  0  0  0  0  0  0  0  0  0  0  0
  131.9520   76.4230  227.5410 Cl  0  0  0  0  0  0  0  0  0  0  0  0
  133.8830   75.3350  226.0040 C   0  0  0  0  0  0  0  0  0  0  0  0
  134.6010   74.2800  225.4690 C   0  0  0  0  0  0  0  0  0  0  0  0
  134.2620   73.0010  225.8230 C   0  0  0  0  0  0  0  0  0  0  0  0
  134.9640   71.9870  225.2980 N   0  0  0  0  0  0  0  0  0  0  0  0
  137.1630   70.9420  224.5900 H   0  0  0  0  0  0  0  0  0  0  0  0
  137.1376   68.0228  223.7054 H   0  0  0  0  0  0  0  0  0  0  0  0
  138.0608   69.3130  222.8994 H   0  0  0  0  0  0  0  0  0  0  0  0
  140.4097   70.8133  223.8674 H   0  0  0  0  0  0  0  0  0  0  0  0
  139.0744   71.7286  224.5805 H   0  0  0  0  0  0  0  0  0  0  0  0
  141.8600   71.8032  225.3015 H   0  0  0  0  0  0  0  0  0  0  0  0
  140.5349   72.6738  226.0975 H   0  0  0  0  0  0  0  0  0  0  0  0
  141.8634   70.0832  226.8521 H   0  0  0  0  0  0  0  0  0  0  0  0
  141.1034   71.2611  227.9105 H   0  0  0  0  0  0  0  0  0  0  0  0
  138.8850   70.3995  227.4438 H   0  0  0  0  0  0  0  0  0  0  0  0
  138.7865   68.3865  227.3645 H   0  0  0  0  0  0  0  0  0  0  0  0
  141.0049   66.6743  227.1466 H   0  0  0  0  0  0  0  0  0  0  0  0
  141.9147   67.7993  226.5721 H   0  0  0  0  0  0  0  0  0  0  0  0
  140.5466   67.7239  229.5163 H   0  0  0  0  0  0  0  0  0  0  0  0
  141.3728   69.0266  229.3576 H   0  0  0  0  0  0  0  0  0  0  0  0
  133.4729   69.3388  226.6833 H   0  0  0  0  0  0  0  0  0  0  0  0
  132.1136   71.1551  227.7068 H   0  0  0  0  0  0  0  0  0  0  0  0
  131.6962   73.5513  227.9149 H   0  0  0  0  0  0  0  0  0  0  0  0
  134.1349   76.3722  225.7379 H   0  0  0  0  0  0  0  0  0  0  0  0
  135.4305   74.4655  224.7708 H   0  0  0  0  0  0  0  0  0  0  0  0
  1  2  2  0
  2  3  1  0
  3  4  1  0
  4  5  1  0
  5  6  2  0
  5  7  1  0
  7  8  1  0
  8  9  1  0
  9 10  1  0
 10 11  1  0
 11 12  1  0
 12 13  1  0
 13 14  1  0
  2 15  1  0
 15 16  2  0
 16 17  1  0
 17 18  2  0
 18 19  1  0
 19 20  2  0
 20 21  1  0
 20 22  1  0
 22 23  2  0
 23 24  1  0
 24 25  2  0
 11  7  1  0
 14 12  1  0
 25 15  1  0
 24 18  1  0
  3 26  1  0
  4 27  1  0
  4 28  1  0
  8 29  1  0
  8 30  1  0
  9 31  1  0
  9 32  1  0
 10 33  1  0
 10 34  1  0
 11 35  1  1
 12 36  1  0
 13 37  1  0
 13 38  1  0
 14 39  1  0
 14 40  1  0
 16 41  1  0
 17 42  1  0
 19 43  1  0
 22 44  1  0
 23 45  1  0
M  END
>  <smiles>  (3) 
O=C(NCC(=O)N1CCCC1C1CC1)c1ccc2cc(Cl)ccc2n1

>  <score_type>  (3) 
oracle

>  <origin>  (3) 
autodockgpu

>  <m_score__min__energy>  (3) 
-8.1999999999999993

>  <m_primary>  (3) 
energy

>  <rmsd>  (3) 
7.940646433727928

>  <m_score__min__rmsd>  (3) 
7.940646433727928

>  <meeko>  (3) 
{"free_energy": -8.18, "intermolecular_energy": -9.67, "internal_energy": -1.39, "cluster_size": 20, "cluster_id": 1, "rank_in_cluster": 12}

>  <energy>  (3) 
-8.19

>  <cluster_rmsd>  (3) 
0.05

>  <cluster>  (3) 
1

$$$$

     RDKit          3D

 45 48  0  0  0  0  0  0  0  0999 V2000
  140.1740   72.2680  220.6220 O   0  0  0  0  0  0  0  0  0  0  0  0
  139.9560   72.6990  221.7840 C   0  0  0  0  0  0  0  0  0  0  0  0
  139.7180   74.0570  222.0740 N   0  0  0  0  0  0  0  0  0  0  0  0
  139.7100   75.0690  221.0370 C   0  0  0  0  0  0  0  0  0  0  0  0
  139.7660   76.3980  221.7170 C   0  0  0  0  0  0  0  0  0  0  0  0
  139.2810   76.5000  222.8730 O   0  0  0  0  0  0  0  0  0  0  0  0
  140.3660   77.5060  221.0390 N   0  0  0  0  0  0  0  0  0  0  0  0
  140.9360   77.4830  219.7010 C   0  0  0  0  0  0  0  0  0  0  0  0
  141.8370   78.6820  219.6230 C   0  0  0  0  0  0  0  0  0  0  0  0
  141.7990   79.3330  220.9840 C   0  0  0  0  0  0  0  0  0  0  0  0
  140.5040   78.8400  221.5830 C   0  0  2  0  0  0  0  0  0  0  0  0
  140.5440   78.8250  223.0920 C   0  0  0  0  0  0  0  0  0  0  0  0
  141.8290   78.6740  223.8140 C   0  0  0  0  0  0  0  0  0  0  0  0
  141.0960   80.0150  223.8480 C   0  0  0  0  0  0  0  0  0  0  0  0
  139.9470   71.7370  222.9040 C   0  0  0  0  0  0  0  0  0  0  0  0
  139.4040   70.4710  222.7580 C   0  0  0  0  0  0  0  0  0  0  0  0
  139.3960   69.5720  223.8070 C   0  0  0  0  0  0  0  0  0  0  0  0
  139.9450   69.9740  225.0030 C   0  0  0  0  0  0  0  0  0  0  0  0
  139.9750   69.1330  226.0970 C   0  0  0  0  0  0  0  0  0  0  0  0
  140.5370   69.5550  227.3060 C   0  0  0  0  0  0  0  0  0  0  0  0
  140.5850   68.5040  228.7060 Cl  0  0  0  0  0  0  0  0  0  0  0  0
  141.0740   70.8260  227.4250 C   0  0  0  0  0  0  0  0  0  0  0  0
  141.0470   71.6740  226.3310 C   0  0  0  0  0  0  0  0  0  0  0  0
  140.4900   71.2280  225.1620 C   0  0  0  0  0  0  0  0  0  0  0  0
  140.4680   72.0570  224.1090 N   0  0  0  0  0  0  0  0  0  0  0  0
  139.5440   74.3370  223.0790 H   0  0  0  0  0  0  0  0  0  0  0  0
  140.5844   74.9439  220.3814 H   0  0  0  0  0  0  0  0  0  0  0  0
  138.8056   74.9854  220.4165 H   0  0  0  0  0  0  0  0  0  0  0  0
  141.5125   76.5592  219.5454 H   0  0  0  0  0  0  0  0  0  0  0  0
  140.1554   77.5104  218.9264 H   0  0  0  0  0  0  0  0  0  0  0  0
  142.8635   78.3712  219.3785 H   0  0  0  0  0  0  0  0  0  0  0  0
  141.5066   79.3786  218.8384 H   0  0  0  0  0  0  0  0  0  0  0  0
  142.6582   79.0168  221.5937 H   0  0  0  0  0  0  0  0  0  0  0  0
  141.8531   80.4304  220.9322 H   0  0  0  0  0  0  0  0  0  0  0  0
  139.6530   79.4926  221.3382 H   0  0  0  0  0  0  0  0  0  0  0  0
  139.5908   78.2762  223.1023 H   0  0  0  0  0  0  0  0  0  0  0  0
  141.8797   78.0529  224.7205 H   0  0  0  0  0  0  0  0  0  0  0  0
  142.8426   78.3510  223.5342 H   0  0  0  0  0  0  0  0  0  0  0  0
  140.6102   80.3583  224.7733 H   0  0  0  0  0  0  0  0  0  0  0  0
  141.3480   81.0570  223.6016 H   0  0  0  0  0  0  0  0  0  0  0  0
  138.9718   70.1765  221.7903 H   0  0  0  0  0  0  0  0  0  0  0  0
  138.9645   68.5670  223.6899 H   0  0  0  0  0  0  0  0  0  0  0  0
  139.5526   68.1205  226.0171 H   0  0  0  0  0  0  0  0  0  0  0  0
  141.5161   71.1574  228.3762 H   0  0  0  0  0  0  0  0  0  0  0  0
  141.4658   72.6888  226.3995 H   0  0  0  0  0  0  0  0  0  0  0  0
  1  2  2  0
  2  3  1  0
  3  4  1  0
  4  5  1  0
  5  6  2  0
  5  7  1  0
  7  8  1  0
  8  9  1  0
  9 10  1  0
 10 11  1  0
 11 12  1  0
 12 13  1  0
 13 14  1  0
  2 15  1  0
 15 16  2  0
 16 17  1  0
 17 18  2  0
 18 19  1  0
 19 20  2  0
 20 21  1  0
 20 22  1  0
 22 23  2  0
 23 24  1  0
 24 25  2  0
 11  7  1  0
 14 12  1  0
 25 15  1  0
 24 18  1  0
  3 26  1  0
  4 27  1  0
  4 28  1  0
  8 29  1  0
  8 30  1  0
  9 31  1  0
  9 32  1  0
 10 33  1  0
 10 34  1  0
 11 35  1  1
 12 36  1  0
 13 37  1  0
 13 38  1  0
 14 39  1  0
 14 40  1  0
 16 41  1  0
 17 42  1  0
 19 43  1  0
 22 44  1  0
 23 45  1  0
M  END
>  <smiles>  (4) 
O=C(NCC(=O)N1CCCC1C1CC1)c1ccc2cc(Cl)ccc2n1

>  <score_type>  (4) 
oracle

>  <origin>  (4) 
autodockgpu

>  <m_score__min__energy>  (4) 
-8.1999999999999993

>  <m_primary>  (4) 
energy

>  <rmsd>  (4) 
2.386673763578738

>  <m_score__min__rmsd>  (4) 
2.386673763578738

>  <meeko>  (4) 
{"free_energy": -7.65, "intermolecular_energy": -9.14, "internal_energy": -1.57, "cluster_size": 20, "cluster_id": 3, "rank_in_cluster": 5}

>  <energy>  (4) 
-8.19

>  <cluster_rmsd>  (4) 
0.07

>  <cluster>  (4) 
1

$$$$

     RDKit          3D

 45 48  0  0  0  0  0  0  0  0999 V2000
  135.0210   68.5000  224.8810 O   0  0  0  0  0  0  0  0  0  0  0  0
  135.5190   69.6510  224.9710 C   0  0  0  0  0  0  0  0  0  0  0  0
  136.8110   69.9740  224.5090 N   0  0  0  0  0  0  0  0  0  0  0  0
  137.6690   68.9850  223.8880 C   0  0  0  0  0  0  0  0  0  0  0  0
  138.8120   68.7460  224.8180 C   0  0  0  0  0  0  0  0  0  0  0  0
  139.1950   67.5620  225.0050 O   0  0  0  0  0  0  0  0  0  0  0  0
  139.4330   69.8620  225.4640 N   0  0  0  0  0  0  0  0  0  0  0  0
  139.8950   71.0780  224.8140 C   0  0  0  0  0  0  0  0  0  0  0  0
  140.8690   71.7050  225.7700 C   0  0  0  0  0  0  0  0  0  0  0  0
  140.9810   70.7620  226.9430 C   0  0  0  0  0  0  0  0  0  0  0  0
  139.7050   69.9580  226.8830 C   0  0  2  0  0  0  0  0  0  0  0  0
  139.8600   68.5960  227.5140 C   0  0  0  0  0  0  0  0  0  0  0  0
  141.0800   67.7890  227.2830 C   0  0  0  0  0  0  0  0  0  0  0  0
  140.8270   68.3970  228.6620 C   0  0  0  0  0  0  0  0  0  0  0  0
  134.7150   70.7230  225.5910 C   0  0  0  0  0  0  0  0  0  0  0  0
  133.6900   70.4300  226.4750 C   0  0  0  0  0  0  0  0  0  0  0  0
  132.9380   71.4340  227.0550 C   0  0  0  0  0  0  0  0  0  0  0  0
  133.2400   72.7360  226.7260 C   0  0  0  0  0  0  0  0  0  0  0  0
  132.5350   73.7930  227.2630 C   0  0  0  0  0  0  0  0  0  0  0  0
  132.8540   75.1100  226.9200 C   0  0  0  0  0  0  0  0  0  0  0  0
  131.9720   76.4670  227.5920 Cl  0  0  0  0  0  0  0  0  0  0  0  0
  133.8850   75.3760  226.0350 C   0  0  0  0  0  0  0  0  0  0  0  0
  134.5960   74.3190  225.4930 C   0  0  0  0  0  0  0  0  0  0  0  0
  134.2570   73.0410  225.8500 C   0  0  0  0  0  0  0  0  0  0  0  0
  134.9520   72.0250  225.3190 N   0  0  0  0  0  0  0  0  0  0  0  0
  137.1560   70.9670  224.6220 H   0  0  0  0  0  0  0  0  0  0  0  0
  137.1119   68.0502  223.7275 H   0  0  0  0  0  0  0  0  0  0  0  0
  138.0284   69.3385  222.9103 H   0  0  0  0  0  0  0  0  0  0  0  0
  140.3917   70.8391  223.8621 H   0  0  0  0  0  0  0  0  0  0  0  0
  139.0607   71.7561  224.5814 H   0  0  0  0  0  0  0  0  0  0  0  0
  141.8494   71.8298  225.2871 H   0  0  0  0  0  0  0  0  0  0  0  0
  140.5291   72.7011  226.0899 H   0  0  0  0  0  0  0  0  0  0  0  0
  141.8604   70.1095  226.8384 H   0  0  0  0  0  0  0  0  0  0  0  0
  141.1072   71.2881  227.9007 H   0  0  0  0  0  0  0  0  0  0  0  0
  138.8853   70.4283  227.4459 H   0  0  0  0  0  0  0  0  0  0  0  0
  138.7845   68.4171  227.3684 H   0  0  0  0  0  0  0  0  0  0  0  0
  140.9997   66.7014  227.1395 H   0  0  0  0  0  0  0  0  0  0  0  0
  141.9080   67.8248  226.5598 H   0  0  0  0  0  0  0  0  0  0  0  0
  140.5551   67.7526  229.5110 H   0  0  0  0  0  0  0  0  0  0  0  0
  141.3824   69.0542  229.3473 H   0  0  0  0  0  0  0  0  0  0  0  0
  133.4707   69.3802  226.7197 H   0  0  0  0  0  0  0  0  0  0  0  0
  132.1241   71.2001  227.7571 H   0  0  0  0  0  0  0  0  0  0  0  0
  131.7137   73.5976  227.9681 H   0  0  0  0  0  0  0  0  0  0  0  0
  134.1357   76.4128  225.7663 H   0  0  0  0  0  0  0  0  0  0  0  0
  135.4196   74.5026  224.7873 H   0  0  0  0  0  0  0  0  0  0  0  0
  1  2  2  0
  2  3  1  0
  3  4  1  0
  4  5  1  0
  5  6  2  0
  5  7  1  0
  7  8  1  0
  8  9  1  0
  9 10  1  0
 10 11  1  0
 11 12  1  0
 12 13  1  0
 13 14  1  0
  2 15  1  0
 15 16  2  0
 16 17  1  0
 17 18  2  0
 18 19  1  0
 19 20  2  0
 20 21  1  0
 20 22  1  0
 22 23  2  0
 23 24  1  0
 24 25  2  0
 11  7  1  0
 14 12  1  0
 25 15  1  0
 24 18  1  0
  3 26  1  0
  4 27  1  0
  4 28  1  0
  8 29  1  0
  8 30  1  0
  9 31  1  0
  9 32  1  0
 10 33  1  0
 10 34  1  0
 11 35  1  1
 12 36  1  0
 13 37  1  0
 13 38  1  0
 14 39  1  0
 14 40  1  0
 16 41  1  0
 17 42  1  0
 19 43  1  0
 22 44  1  0
 23 45  1  0
M  END
>  <smiles>  (5) 
O=C(NCC(=O)N1CCCC1C1CC1)c1ccc2cc(Cl)ccc2n1

>  <score_type>  (5) 
oracle

>  <origin>  (5) 
autodockgpu

>  <m_score__min__energy>  (5) 
-8.1999999999999993

>  <m_primary>  (5) 
energy

>  <rmsd>  (5) 
7.938938780730271

>  <m_score__min__rmsd>  (5) 
7.938938780730271

>  <meeko>  (5) 
{"free_energy": -8.18, "intermolecular_energy": -9.68, "internal_energy": -1.39, "cluster_size": 20, "cluster_id": 1, "rank_in_cluster": 10}

>  <energy>  (5) 
-8.19

>  <cluster_rmsd>  (5) 
0.05

>  <cluster>  (5) 
1

$$$$

     RDKit          3D

 45 48  0  0  0  0  0  0  0  0999 V2000
  139.9120   72.5840  220.5240 O   0  0  0  0  0  0  0  0  0  0  0  0
  139.8030   72.9740  221.7150 C   0  0  0  0  0  0  0  0  0  0  0  0
  139.6620   74.3290  222.0750 N   0  0  0  0  0  0  0  0  0  0  0  0
  139.6310   75.3840  221.0830 C   0  0  0  0  0  0  0  0  0  0  0  0
  140.5070   76.4860  221.5830 C   0  0  0  0  0  0  0  0  0  0  0  0
  141.0050   76.3800  222.7330 O   0  0  0  0  0  0  0  0  0  0  0  0
  140.7510   77.6200  220.7450 N   0  0  0  0  0  0  0  0  0  0  0  0
  141.0080   77.5880  219.3140 C   0  0  0  0  0  0  0  0  0  0  0  0
  141.6590   78.9020  218.9890 C   0  0  0  0  0  0  0  0  0  0  0  0
  141.8140   79.6360  220.2970 C   0  0  0  0  0  0  0  0  0  0  0  0
  140.7820   78.9960  221.1950 C   0  0  2  0  0  0  0  0  0  0  0  0
  141.1560   79.0970  222.6540 C   0  0  0  0  0  0  0  0  0  0  0  0
  142.4690   79.6460  223.0630 C   0  0  0  0  0  0  0  0  0  0  0  0
  141.1980   80.4500  223.3340 C   0  0  0  0  0  0  0  0  0  0  0  0
  139.8250   71.9670  222.7930 C   0  0  0  0  0  0  0  0  0  0  0  0
  139.2990   70.7000  222.6030 C   0  0  0  0  0  0  0  0  0  0  0  0
  139.3200   69.7580  223.6130 C   0  0  0  0  0  0  0  0  0  0  0  0
  139.8810   70.1170  224.8170 C   0  0  0  0  0  0  0  0  0  0  0  0
  139.9400   69.2330  225.8730 C   0  0  0  0  0  0  0  0  0  0  0  0
  140.5130   69.6130  227.0910 C   0  0  0  0  0  0  0  0  0  0  0  0
  140.5980   68.5040  228.4450 Cl  0  0  0  0  0  0  0  0  0  0  0  0
  141.0330   70.8850  227.2550 C   0  0  0  0  0  0  0  0  0  0  0  0
  140.9780   71.7770  226.1980 C   0  0  0  0  0  0  0  0  0  0  0  0
  140.4090   71.3720  225.0200 C   0  0  0  0  0  0  0  0  0  0  0  0
  140.3600   72.2440  224.0030 N   0  0  0  0  0  0  0  0  0  0  0  0
  139.5770   74.5740  223.1010 H   0  0  0  0  0  0  0  0  0  0  0  0
  140.0099   75.0082  220.1211 H   0  0  0  0  0  0  0  0  0  0  0  0
  138.6030   75.7427  220.9263 H   0  0  0  0  0  0  0  0  0  0  0  0
  141.6805   76.7543  219.0636 H   0  0  0  0  0  0  0  0  0  0  0  0
  140.0825   77.4398  218.7383 H   0  0  0  0  0  0  0  0  0  0  0  0
  142.6435   78.7349  218.5277 H   0  0  0  0  0  0  0  0  0  0  0  0
  141.0536   79.4812  218.2763 H   0  0  0  0  0  0  0  0  0  0  0  0
  142.8265   79.5000  220.7049 H   0  0  0  0  0  0  0  0  0  0  0  0
  141.6729   80.7221  220.1942 H   0  0  0  0  0  0  0  0  0  0  0  0
  139.8020   79.4911  221.1291 H   0  0  0  0  0  0  0  0  0  0  0  0
  140.6289   78.1506  222.8449 H   0  0  0  0  0  0  0  0  0  0  0  0
  143.0183   79.1893  223.8995 H   0  0  0  0  0  0  0  0  0  0  0  0
  143.4193   79.8485  222.5473 H   0  0  0  0  0  0  0  0  0  0  0  0
  140.8236   80.5663  224.3618 H   0  0  0  0  0  0  0  0  0  0  0  0
  140.8405   81.4628  223.0964 H   0  0  0  0  0  0  0  0  0  0  0  0
  138.8565   70.4392  221.6303 H   0  0  0  0  0  0  0  0  0  0  0  0
  138.9014   68.7524  223.4596 H   0  0  0  0  0  0  0  0  0  0  0  0
  139.5322   68.2181  225.7566 H   0  0  0  0  0  0  0  0  0  0  0  0
  141.4842   71.1833  228.2129 H   0  0  0  0  0  0  0  0  0  0  0  0
  141.3844   72.7938  226.3024 H   0  0  0  0  0  0  0  0  0  0  0  0
  1  2  2  0
  2  3  1  0
  3  4  1  0
  4  5  1  0
  5  6  2  0
  5  7  1  0
  7  8  1  0
  8  9  1  0
  9 10  1  0
 10 11  1  0
 11 12  1  0
 12 13  1  0
 13 14  1  0
  2 15  1  0
 15 16  2  0
 16 17  1  0
 17 18  2  0
 18 19  1  0
 19 20  2  0
 20 21  1  0
 20 22  1  0
 22 23  2  0
 23 24  1  0
 24 25  2  0
 11  7  1  0
 14 12  1  0
 25 15  1  0
 24 18  1  0
  3 26  1  0
  4 27  1  0
  4 28  1  0
  8 29  1  0
  8 30  1  0
  9 31  1  0
  9 32  1  0
 10 33  1  0
 10 34  1  0
 11 35  1  1
 12 36  1  0
 13 37  1  0
 13 38  1  0
 14 39  1  0
 14 40  1  0
 16 41  1  0
 17 42  1  0
 19 43  1  0
 22 44  1  0
 23 45  1  0
M  END
>  <smiles>  (6) 
O=C(NCC(=O)N1CCCC1C1CC1)c1ccc2cc(Cl)ccc2n1

>  <score_type>  (6) 
oracle

>  <origin>  (6) 
autodockgpu

>  <m_score__min__energy>  (6) 
-8.1999999999999993

>  <m_primary>  (6) 
energy

>  <rmsd>  (6) 
2.3628165151276104

>  <m_score__min__rmsd>  (6) 
2.3628165151276104

>  <meeko>  (6) 
{"free_energy": -7.69, "intermolecular_energy": -9.18, "internal_energy": -1.51, "cluster_size": 20, "cluster_id": 3, "rank_in_cluster": 1}

>  <energy>  (6) 
-8.19

>  <cluster_rmsd>  (6) 
0.08

>  <cluster>  (6) 
1

$$$$

     RDKit          3D

 45 48  0  0  0  0  0  0  0  0999 V2000
  140.5710   72.4650  220.6850 O   0  0  0  0  0  0  0  0  0  0  0  0
  140.2030   72.8590  221.8210 C   0  0  0  0  0  0  0  0  0  0  0  0
  139.8500   74.1950  222.1000 N   0  0  0  0  0  0  0  0  0  0  0  0
  139.8890   75.2240  221.0810 C   0  0  0  0  0  0  0  0  0  0  0  0
  139.5630   76.5190  221.7490 C   0  0  0  0  0  0  0  0  0  0  0  0
  139.0890   76.4900  222.9140 O   0  0  0  0  0  0  0  0  0  0  0  0
  139.7970   77.7460  221.0500 N   0  0  0  0  0  0  0  0  0  0  0  0
  139.3620   78.0560  219.6970 C   0  0  0  0  0  0  0  0  0  0  0  0
  140.2220   79.2030  219.2470 C   0  0  0  0  0  0  0  0  0  0  0  0
  141.1910   79.4750  220.3710 C   0  0  0  0  0  0  0  0  0  0  0  0
  140.5130   78.8850  221.5840 C   0  0  2  0  0  0  0  0  0  0  0  0
  141.5020   78.4730  222.6460 C   0  0  0  0  0  0  0  0  0  0  0  0
  142.5800   79.3950  223.0750 C   0  0  0  0  0  0  0  0  0  0  0  0
  141.4280   79.0840  224.0300 C   0  0  0  0  0  0  0  0  0  0  0  0
  140.1340   71.8780  222.9220 C   0  0  0  0  0  0  0  0  0  0  0  0
  139.5760   70.6250  222.7320 C   0  0  0  0  0  0  0  0  0  0  0  0
  139.5120   69.7070  223.7620 C   0  0  0  0  0  0  0  0  0  0  0  0
  140.0220   70.0770  224.9860 C   0  0  0  0  0  0  0  0  0  0  0  0
  139.9950   69.2170  226.0640 C   0  0  0  0  0  0  0  0  0  0  0  0
  140.5170   69.6070  227.3010 C   0  0  0  0  0  0  0  0  0  0  0  0
  140.4930   68.5290  228.6820 Cl  0  0  0  0  0  0  0  0  0  0  0  0
  141.0710   70.8650  227.4640 C   0  0  0  0  0  0  0  0  0  0  0  0
  141.1010   71.7330  226.3860 C   0  0  0  0  0  0  0  0  0  0  0  0
  140.5810   71.3190  225.1890 C   0  0  0  0  0  0  0  0  0  0  0  0
  140.6140   72.1670  224.1510 N   0  0  0  0  0  0  0  0  0  0  0  0
  139.5510   74.4450  223.0830 H   0  0  0  0  0  0  0  0  0  0  0  0
  140.8925   75.2731  220.6331 H   0  0  0  0  0  0  0  0  0  0  0  0
  139.1690   75.0064  220.2783 H   0  0  0  0  0  0  0  0  0  0  0  0
  139.5067   77.1866  219.0388 H   0  0  0  0  0  0  0  0  0  0  0  0
  138.2927   78.3120  219.6626 H   0  0  0  0  0  0  0  0  0  0  0  0
  140.7679   78.9328  218.3310 H   0  0  0  0  0  0  0  0  0  0  0  0
  139.6149   80.0917  219.0199 H   0  0  0  0  0  0  0  0  0  0  0  0
  142.1564   78.9822  220.1836 H   0  0  0  0  0  0  0  0  0  0  0  0
  141.4155   80.5454  220.4885 H   0  0  0  0  0  0  0  0  0  0  0  0
  139.8548   79.6070  222.0894 H   0  0  0  0  0  0  0  0  0  0  0  0
  141.4838   77.4464  222.2514 H   0  0  0  0  0  0  0  0  0  0  0  0
  143.5866   79.0034  223.2833 H   0  0  0  0  0  0  0  0  0  0  0  0
  143.0212   80.3159  222.6660 H   0  0  0  0  0  0  0  0  0  0  0  0
  141.5986   78.4618  224.9209 H   0  0  0  0  0  0  0  0  0  0  0  0
  140.6894   79.6744  224.5920 H   0  0  0  0  0  0  0  0  0  0  0  0
  139.1766   70.3559  221.7430 H   0  0  0  0  0  0  0  0  0  0  0  0
  139.0678   68.7123  223.6092 H   0  0  0  0  0  0  0  0  0  0  0  0
  139.5583   68.2140  225.9493 H   0  0  0  0  0  0  0  0  0  0  0  0
  141.4820   71.1710  228.4374 H   0  0  0  0  0  0  0  0  0  0  0  0
  141.5353   72.7383  226.4894 H   0  0  0  0  0  0  0  0  0  0  0  0
  1  2  2  0
  2  3  1  0
  3  4  1  0
  4  5  1  0
  5  6  2  0
  5  7  1  0
  7  8  1  0
  8  9  1  0
  9 10  1  0
 10 11  1  0
 11 12  1  0
 12 13  1  0
 13 14  1  0
  2 15  1  0
 15 16  2  0
 16 17  1  0
 17 18  2  0
 18 19  1  0
 19 20  2  0
 20 21  1  0
 20 22  1  0
 22 23  2  0
 23 24  1  0
 24 25  2  0
 11  7  1  0
 14 12  1  0
 25 15  1  0
 24 18  1  0
  3 26  1  0
  4 27  1  0
  4 28  1  0
  8 29  1  0
  8 30  1  0
  9 31  1  0
  9 32  1  0
 10 33  1  0
 10 34  1  0
 11 35  1  1
 12 36  1  0
 13 37  1  0
 13 38  1  0
 14 39  1  0
 14 40  1  0
 16 41  1  0
 17 42  1  0
 19 43  1  0
 22 44  1  0
 23 45  1  0
M  END
>  <smiles>  (7) 
O=C(NCC(=O)N1CCCC1C1CC1)c1ccc2cc(Cl)ccc2n1

>  <score_type>  (7) 
oracle

>  <origin>  (7) 
autodockgpu

>  <m_score__min__energy>  (7) 
-8.1999999999999993

>  <m_primary>  (7) 
energy

>  <rmsd>  (7) 
2.347960540782578

>  <m_score__min__rmsd>  (7) 
2.347960540782578

>  <meeko>  (7) 
{"free_energy": -7.33, "intermolecular_energy": -8.82, "internal_energy": -1.73, "cluster_size": 20, "cluster_id": 3, "rank_in_cluster": 16}

>  <energy>  (7) 
-8.19

>  <cluster_rmsd>  (7) 
0.04

>  <cluster>  (7) 
1

$$$$

     RDKit          3D

 45 48  0  0  0  0  0  0  0  0999 V2000
  134.9820   68.4890  224.8830 O   0  0  0  0  0  0  0  0  0  0  0  0
  135.5020   69.6300  224.9760 C   0  0  0  0  0  0  0  0  0  0  0  0
  136.8010   69.9300  224.5170 N   0  0  0  0  0  0  0  0  0  0  0  0
  137.6410   68.9260  223.8960 C   0  0  0  0  0  0  0  0  0  0  0  0
  138.8070   68.7050  224.8020 C   0  0  0  0  0  0  0  0  0  0  0  0
  139.2260   67.5290  224.9620 O   0  0  0  0  0  0  0  0  0  0  0  0
  139.4090   69.8270  225.4560 N   0  0  0  0  0  0  0  0  0  0  0  0
  139.8530   71.0530  224.8140 C   0  0  0  0  0  0  0  0  0  0  0  0
  140.8130   71.6910  225.7770 C   0  0  0  0  0  0  0  0  0  0  0  0
  140.9360   70.7440  226.9450 C   0  0  0  0  0  0  0  0  0  0  0  0
  139.6740   69.9190  226.8760 C   0  0  2  0  0  0  0  0  0  0  0  0
  139.8490   68.5560  227.5000 C   0  0  0  0  0  0  0  0  0  0  0  0
  141.0830   67.7710  227.2690 C   0  0  0  0  0  0  0  0  0  0  0  0
  140.8150   68.3670  228.6510 C   0  0  0  0  0  0  0  0  0  0  0  0
  134.7170   70.7160  225.5970 C   0  0  0  0  0  0  0  0  0  0  0  0
  133.6920   70.4410  226.4860 C   0  0  0  0  0  0  0  0  0  0  0  0
  132.9580   71.4570  227.0660 C   0  0  0  0  0  0  0  0  0  0  0  0
  133.2780   72.7540  226.7330 C   0  0  0  0  0  0  0  0  0  0  0  0
  132.5920   73.8220  227.2710 C   0  0  0  0  0  0  0  0  0  0  0  0
  132.9290   75.1340  226.9240 C   0  0  0  0  0  0  0  0  0  0  0  0
  132.0700   76.5060  227.5950 Cl  0  0  0  0  0  0  0  0  0  0  0  0
  133.9600   75.3820  226.0330 C   0  0  0  0  0  0  0  0  0  0  0  0
  134.6520   74.3130  225.4910 C   0  0  0  0  0  0  0  0  0  0  0  0
  134.2960   73.0410  225.8530 C   0  0  0  0  0  0  0  0  0  0  0  0
  134.9730   72.0130  225.3210 N   0  0  0  0  0  0  0  0  0  0  0  0
  137.1640   70.9160  224.6340 H   0  0  0  0  0  0  0  0  0  0  0  0
  137.0785   67.9891  223.7702 H   0  0  0  0  0  0  0  0  0  0  0  0
  137.9758   69.2571  222.9019 H   0  0  0  0  0  0  0  0  0  0  0  0
  140.3571   70.8271  223.8628 H   0  0  0  0  0  0  0  0  0  0  0  0
  139.0086   71.7185  224.5814 H   0  0  0  0  0  0  0  0  0  0  0  0
  141.7930   71.8345  225.2985 H   0  0  0  0  0  0  0  0  0  0  0  0
  140.4556   72.6797  226.1007 H   0  0  0  0  0  0  0  0  0  0  0  0
  141.8266   70.1069  226.8405 H   0  0  0  0  0  0  0  0  0  0  0  0
  141.0495   71.2672  227.9059 H   0  0  0  0  0  0  0  0  0  0  0  0
  138.8446   70.3721  227.4389 H   0  0  0  0  0  0  0  0  0  0  0  0
  138.7772   68.3598  227.3493 H   0  0  0  0  0  0  0  0  0  0  0  0
  141.0214   66.6830  227.1191 H   0  0  0  0  0  0  0  0  0  0  0  0
  141.9129   67.8248  226.5490 H   0  0  0  0  0  0  0  0  0  0  0  0
  140.5509   67.7134  229.4954 H   0  0  0  0  0  0  0  0  0  0  0  0
  141.3567   69.0295  229.3421 H   0  0  0  0  0  0  0  0  0  0  0  0
  133.4582   69.3953  226.7347 H   0  0  0  0  0  0  0  0  0  0  0  0
  132.1434   71.2369  227.7717 H   0  0  0  0  0  0  0  0  0  0  0  0
  131.7712   73.6402  227.9804 H   0  0  0  0  0  0  0  0  0  0  0  0
  134.2251   76.4141  225.7600 H   0  0  0  0  0  0  0  0  0  0  0  0
  135.4748   74.4823  224.7808 H   0  0  0  0  0  0  0  0  0  0  0  0
  1  2  2  0
  2  3  1  0
  3  4  1  0
  4  5  1  0
  5  6  2  0
  5  7  1  0
  7  8  1  0
  8  9  1  0
  9 10  1  0
 10 11  1  0
 11 12  1  0
 12 13  1  0
 13 14  1  0
  2 15  1  0
 15 16  2  0
 16 17  1  0
 17 18  2  0
 18 19  1  0
 19 20  2  0
 20 21  1  0
 20 22  1  0
 22 23  2  0
 23 24  1  0
 24 25  2  0
 11  7  1  0
 14 12  1  0
 25 15  1  0
 24 18  1  0
  3 26  1  0
  4 27  1  0
  4 28  1  0
  8 29  1  0
  8 30  1  0
  9 31  1  0
  9 32  1  0
 10 33  1  0
 10 34  1  0
 11 35  1  1
 12 36  1  0
 13 37  1  0
 13 38  1  0
 14 39  1  0
 14 40  1  0
 16 41  1  0
 17 42  1  0
 19 43  1  0
 22 44  1  0
 23 45  1  0
M  END
>  <smiles>  (8) 
O=C(NCC(=O)N1CCCC1C1CC1)c1ccc2cc(Cl)ccc2n1

>  <score_type>  (8) 
oracle

>  <origin>  (8) 
autodockgpu

>  <m_score__min__energy>  (8) 
-8.1999999999999993

>  <m_primary>  (8) 
energy

>  <rmsd>  (8) 
7.941398683947171

>  <m_score__min__rmsd>  (8) 
7.941398683947171

>  <meeko>  (8) 
{"free_energy": -8.15, "intermolecular_energy": -9.64, "internal_energy": -1.4, "cluster_size": 20, "cluster_id": 1, "rank_in_cluster": 15}

>  <energy>  (8) 
-8.19

>  <cluster_rmsd>  (8) 
0.03

>  <cluster>  (8) 
1

$$$$

     RDKit          3D

 45 48  0  0  0  0  0  0  0  0999 V2000
  135.0500   68.5040  224.8460 O   0  0  0  0  0  0  0  0  0  0  0  0
  135.5380   69.6580  224.9570 C   0  0  0  0  0  0  0  0  0  0  0  0
  136.8340   69.9960  224.5190 N   0  0  0  0  0  0  0  0  0  0  0  0
  137.7100   69.0210  223.9010 C   0  0  0  0  0  0  0  0  0  0  0  0
  138.8320   68.7680  224.8530 C   0  0  0  0  0  0  0  0  0  0  0  0
  139.1880   67.5790  225.0570 O   0  0  0  0  0  0  0  0  0  0  0  0
  139.4640   69.8770  225.5000 N   0  0  0  0  0  0  0  0  0  0  0  0
  139.9460   71.0850  224.8500 C   0  0  0  0  0  0  0  0  0  0  0  0
  140.9220   71.7020  225.8110 C   0  0  0  0  0  0  0  0  0  0  0  0
  141.0130   70.7610  226.9870 C   0  0  0  0  0  0  0  0  0  0  0  0
  139.7270   69.9740  226.9200 C   0  0  2  0  0  0  0  0  0  0  0  0
  139.8600   68.6110  227.5560 C   0  0  0  0  0  0  0  0  0  0  0  0
  141.0760   67.7920  227.3440 C   0  0  0  0  0  0  0  0  0  0  0  0
  140.8090   68.4050  228.7180 C   0  0  0  0  0  0  0  0  0  0  0  0
  134.7160   70.7160  225.5770 C   0  0  0  0  0  0  0  0  0  0  0  0
  133.6780   70.4050  226.4390 C   0  0  0  0  0  0  0  0  0  0  0  0
  132.9090   71.3960  227.0180 C   0  0  0  0  0  0  0  0  0  0  0  0
  133.2080   72.7040  226.7120 C   0  0  0  0  0  0  0  0  0  0  0  0
  132.4870   73.7490  227.2500 C   0  0  0  0  0  0  0  0  0  0  0  0
  132.8030   75.0730  226.9300 C   0  0  0  0  0  0  0  0  0  0  0  0
  131.9000   76.4160  227.6030 Cl  0  0  0  0  0  0  0  0  0  0  0  0
  133.8470   75.3570  226.0670 C   0  0  0  0  0  0  0  0  0  0  0  0
  134.5740   74.3120  225.5230 C   0  0  0  0  0  0  0  0  0  0  0  0
  134.2380   73.0270  225.8580 C   0  0  0  0  0  0  0  0  0  0  0  0
  134.9490   72.0230  225.3260 N   0  0  0  0  0  0  0  0  0  0  0  0
  137.1700   70.9900  224.6500 H   0  0  0  0  0  0  0  0  0  0  0  0
  137.1599   68.0877  223.7105 H   0  0  0  0  0  0  0  0  0  0  0  0
  138.0913   69.3937  222.9389 H   0  0  0  0  0  0  0  0  0  0  0  0
  140.4458   70.8371  223.9020 H   0  0  0  0  0  0  0  0  0  0  0  0
  139.1222   71.7733  224.6102 H   0  0  0  0  0  0  0  0  0  0  0  0
  141.9073   71.8122  225.3346 H   0  0  0  0  0  0  0  0  0  0  0  0
  140.5935   72.7036  226.1256 H   0  0  0  0  0  0  0  0  0  0  0  0
  141.8843   70.0966  226.8905 H   0  0  0  0  0  0  0  0  0  0  0  0
  141.1393   71.2880  227.9442 H   0  0  0  0  0  0  0  0  0  0  0  0
  138.9096   70.4570  227.4755 H   0  0  0  0  0  0  0  0  0  0  0  0
  138.7850   68.4420  227.3955 H   0  0  0  0  0  0  0  0  0  0  0  0
  140.9876   66.7049  227.2014 H   0  0  0  0  0  0  0  0  0  0  0  0
  141.9146   67.8187  226.6327 H   0  0  0  0  0  0  0  0  0  0  0  0
  140.5191   67.7648  229.5642 H   0  0  0  0  0  0  0  0  0  0  0  0
  141.3608   69.0583  229.4099 H   0  0  0  0  0  0  0  0  0  0  0  0
  133.4619   69.3507  226.6667 H   0  0  0  0  0  0  0  0  0  0  0  0
  132.0840   71.1475  227.7018 H   0  0  0  0  0  0  0  0  0  0  0  0
  131.6548   73.5390  227.9379 H   0  0  0  0  0  0  0  0  0  0  0  0
  134.0957   76.3989  225.8167 H   0  0  0  0  0  0  0  0  0  0  0  0
  135.4076   74.5103  224.8332 H   0  0  0  0  0  0  0  0  0  0  0  0
  1  2  2  0
  2  3  1  0
  3  4  1  0
  4  5  1  0
  5  6  2  0
  5  7  1  0
  7  8  1  0
  8  9  1  0
  9 10  1  0
 10 11  1  0
 11 12  1  0
 12 13  1  0
 13 14  1  0
  2 15  1  0
 15 16  2  0
 16 17  1  0
 17 18  2  0
 18 19  1  0
 19 20  2  0
 20 21  1  0
 20 22  1  0
 22 23  2  0
 23 24  1  0
 24 25  2  0
 11  7  1  0
 14 12  1  0
 25 15  1  0
 24 18  1  0
  3 26  1  0
  4 27  1  0
  4 28  1  0
  8 29  1  0
  8 30  1  0
  9 31  1  0
  9 32  1  0
 10 33  1  0
 10 34  1  0
 11 35  1  1
 12 36  1  0
 13 37  1  0
 13 38  1  0
 14 39  1  0
 14 40  1  0
 16 41  1  0
 17 42  1  0
 19 43  1  0
 22 44  1  0
 23 45  1  0
M  END
>  <smiles>  (9) 
O=C(NCC(=O)N1CCCC1C1CC1)c1ccc2cc(Cl)ccc2n1

>  <score_type>  (9) 
oracle

>  <origin>  (9) 
autodockgpu

>  <m_score__min__energy>  (9) 
-8.1999999999999993

>  <m_primary>  (9) 
energy

>  <rmsd>  (9) 
7.948163658074346

>  <m_score__min__rmsd>  (9) 
7.948163658074346

>  <meeko>  (9) 
{"free_energy": -8.2, "intermolecular_energy": -9.69, "internal_energy": -1.38, "cluster_size": 20, "cluster_id": 1, "rank_in_cluster": 1}

>  <energy>  (9) 
-8.19

>  <cluster_rmsd>  (9) 
0.05

>  <cluster>  (9) 
1

$$$$

     RDKit          3D

 45 48  0  0  0  0  0  0  0  0999 V2000
  135.0160   68.5020  224.8710 O   0  0  0  0  0  0  0  0  0  0  0  0
  135.5100   69.6550  224.9620 C   0  0  0  0  0  0  0  0  0  0  0  0
  136.8010   69.9830  224.5020 N   0  0  0  0  0  0  0  0  0  0  0  0
  137.6630   68.9970  223.8820 C   0  0  0  0  0  0  0  0  0  0  0  0
  138.8010   68.7550  224.8190 C   0  0  0  0  0  0  0  0  0  0  0  0
  139.1790   67.5700  225.0080 O   0  0  0  0  0  0  0  0  0  0  0  0
  139.4230   69.8690  225.4670 N   0  0  0  0  0  0  0  0  0  0  0  0
  139.8880   71.0850  224.8200 C   0  0  0  0  0  0  0  0  0  0  0  0
  140.8610   71.7080  225.7810 C   0  0  0  0  0  0  0  0  0  0  0  0
  140.9680   70.7640  226.9520 C   0  0  0  0  0  0  0  0  0  0  0  0
  139.6910   69.9630  226.8870 C   0  0  2  0  0  0  0  0  0  0  0  0
  139.8410   68.5990  227.5170 C   0  0  0  0  0  0  0  0  0  0  0  0
  141.0580   67.7870  227.2830 C   0  0  0  0  0  0  0  0  0  0  0  0
  140.8100   68.3960  228.6630 C   0  0  0  0  0  0  0  0  0  0  0  0
  134.7010   70.7230  225.5820 C   0  0  0  0  0  0  0  0  0  0  0  0
  133.6660   70.4260  226.4530 C   0  0  0  0  0  0  0  0  0  0  0  0
  132.9100   71.4270  227.0320 C   0  0  0  0  0  0  0  0  0  0  0  0
  133.2170   72.7310  226.7160 C   0  0  0  0  0  0  0  0  0  0  0  0
  132.5090   73.7850  227.2540 C   0  0  0  0  0  0  0  0  0  0  0  0
  132.8330   75.1040  226.9240 C   0  0  0  0  0  0  0  0  0  0  0  0
  131.9460   76.4580  227.5960 Cl  0  0  0  0  0  0  0  0  0  0  0  0
  133.8730   75.3740  226.0510 C   0  0  0  0  0  0  0  0  0  0  0  0
  134.5880   74.3210  225.5090 C   0  0  0  0  0  0  0  0  0  0  0  0
  134.2440   73.0400  225.8530 C   0  0  0  0  0  0  0  0  0  0  0  0
  134.9420   72.0270  225.3220 N   0  0  0  0  0  0  0  0  0  0  0  0
  137.1420   70.9770  224.6170 H   0  0  0  0  0  0  0  0  0  0  0  0
  137.1074   68.0626  223.7143 H   0  0  0  0  0  0  0  0  0  0  0  0
  138.0280   69.3543  222.9078 H   0  0  0  0  0  0  0  0  0  0  0  0
  140.3868   70.8472  223.8689 H   0  0  0  0  0  0  0  0  0  0  0  0
  139.0557   71.7650  224.5857 H   0  0  0  0  0  0  0  0  0  0  0  0
  141.8431   71.8315  225.3012 H   0  0  0  0  0  0  0  0  0  0  0  0
  140.5216   72.7039  226.1019 H   0  0  0  0  0  0  0  0  0  0  0  0
  141.8464   70.1100  226.8490 H   0  0  0  0  0  0  0  0  0  0  0  0
  141.0927   71.2884  227.9109 H   0  0  0  0  0  0  0  0  0  0  0  0
  138.8708   70.4347  227.4480 H   0  0  0  0  0  0  0  0  0  0  0  0
  138.7645   68.4241  227.3735 H   0  0  0  0  0  0  0  0  0  0  0  0
  140.9732   66.6997  227.1395 H   0  0  0  0  0  0  0  0  0  0  0  0
  141.8846   67.8197  226.5580 H   0  0  0  0  0  0  0  0  0  0  0  0
  140.5375   67.7525  229.5125 H   0  0  0  0  0  0  0  0  0  0  0  0
  141.3694   69.0510  229.3472 H   0  0  0  0  0  0  0  0  0  0  0  0
  133.4420   69.3750  226.6879 H   0  0  0  0  0  0  0  0  0  0  0  0
  132.0885   71.1893  227.7238 H   0  0  0  0  0  0  0  0  0  0  0  0
  131.6808   73.5857  227.9500 H   0  0  0  0  0  0  0  0  0  0  0  0
  134.1275   76.4123  225.7917 H   0  0  0  0  0  0  0  0  0  0  0  0
  135.4191   74.5090  224.8133 H   0  0  0  0  0  0  0  0  0  0  0  0
  1  2  2  0
  2  3  1  0
  3  4  1  0
  4  5  1  0
  5  6  2  0
  5  7  1  0
  7  8  1  0
  8  9  1  0
  9 10  1  0
 10 11  1  0
 11 12  1  0
 12 13  1  0
 13 14  1  0
  2 15  1  0
 15 16  2  0
 16 17  1  0
 17 18  2  0
 18 19  1  0
 19 20  2  0
 20 21  1  0
 20 22  1  0
 22 23  2  0
 23 24  1  0
 24 25  2  0
 11  7  1  0
 14 12  1  0
 25 15  1  0
 24 18  1  0
  3 26  1  0
  4 27  1  0
  4 28  1  0
  8 29  1  0
  8 30  1  0
  9 31  1  0
  9 32  1  0
 10 33  1  0
 10 34  1  0
 11 35  1  1
 12 36  1  0
 13 37  1  0
 13 38  1  0
 14 39  1  0
 14 40  1  0
 16 41  1  0
 17 42  1  0
 19 43  1  0
 22 44  1  0
 23 45  1  0
M  END
>  <smiles>  (10) 
O=C(NCC(=O)N1CCCC1C1CC1)c1ccc2cc(Cl)ccc2n1

>  <score_type>  (10) 
oracle

>  <origin>  (10) 
autodockgpu

>  <m_score__min__energy>  (10) 
-8.1999999999999993

>  <m_primary>  (10) 
energy

>  <rmsd>  (10) 
7.942618202670696

>  <m_score__min__rmsd>  (10) 
7.942618202670696

>  <meeko>  (10) 
{"free_energy": -8.19, "intermolecular_energy": -9.68, "internal_energy": -1.39, "cluster_size": 20, "cluster_id": 1, "rank_in_cluster": 9}

>  <energy>  (10) 
-8.18

>  <cluster_rmsd>  (10) 
0.05

>  <cluster>  (10) 
1

$$$$

     RDKit          3D

 45 48  0  0  0  0  0  0  0  0999 V2000
  134.2430   69.1220  226.4730 O   0  0  0  0  0  0  0  0  0  0  0  0
  134.6520   70.2350  226.0530 C   0  0  0  0  0  0  0  0  0  0  0  0
  135.8490   70.3950  225.3250 N   0  0  0  0  0  0  0  0  0  0  0  0
  136.7040   69.2700  225.0050 C   0  0  0  0  0  0  0  0  0  0  0  0
  138.0590   69.8190  224.7020 C   0  0  0  0  0  0  0  0  0  0  0  0
  138.1390   70.8920  224.0510 O   0  0  0  0  0  0  0  0  0  0  0  0
  139.2180   69.1130  225.1570 N   0  0  0  0  0  0  0  0  0  0  0  0
  139.3910   67.6690  225.1670 C   0  0  0  0  0  0  0  0  0  0  0  0
  140.5050   67.4000  226.1390 C   0  0  0  0  0  0  0  0  0  0  0  0
  140.8990   68.7370  226.7150 C   0  0  0  0  0  0  0  0  0  0  0  0
  140.4160   69.7310  225.6860 C   0  0  2  0  0  0  0  0  0  0  0  0
  140.1240   71.0820  226.2920 C   0  0  0  0  0  0  0  0  0  0  0  0
  140.3390   71.3260  227.7370 C   0  0  0  0  0  0  0  0  0  0  0  0
  141.2630   71.9860  226.7140 C   0  0  0  0  0  0  0  0  0  0  0  0
  133.8440   71.4380  226.3340 C   0  0  0  0  0  0  0  0  0  0  0  0
  132.5570   71.3360  226.8360 C   0  0  0  0  0  0  0  0  0  0  0  0
  131.8010   72.4620  227.0990 C   0  0  0  0  0  0  0  0  0  0  0  0
  132.3680   73.6910  226.8460 C   0  0  0  0  0  0  0  0  0  0  0  0
  131.6770   74.8610  227.0830 C   0  0  0  0  0  0  0  0  0  0  0  0
  132.2660   76.1020  226.8220 C   0  0  0  0  0  0  0  0  0  0  0  0
  131.4060   77.6000  227.1160 Cl  0  0  0  0  0  0  0  0  0  0  0  0
  133.5540   76.1760  226.3220 C   0  0  0  0  0  0  0  0  0  0  0  0
  134.2530   75.0050  226.0820 C   0  0  0  0  0  0  0  0  0  0  0  0
  133.6460   73.8070  226.3490 C   0  0  0  0  0  0  0  0  0  0  0  0
  134.3310   72.6790  226.1130 N   0  0  0  0  0  0  0  0  0  0  0  0
  136.1230   71.3660  225.0090 H   0  0  0  0  0  0  0  0  0  0  0  0
  136.7587   68.5823  225.8618 H   0  0  0  0  0  0  0  0  0  0  0  0
  136.3078   68.7099  224.1451 H   0  0  0  0  0  0  0  0  0  0  0  0
  138.4658   67.1741  225.4973 H   0  0  0  0  0  0  0  0  0  0  0  0
  139.6242   67.2809  224.1645 H   0  0  0  0  0  0  0  0  0  0  0  0
  140.1586   66.7284  226.9384 H   0  0  0  0  0  0  0  0  0  0  0  0
  141.3575   66.9121  225.6438 H   0  0  0  0  0  0  0  0  0  0  0  0
  140.4068   68.9062  227.6841 H   0  0  0  0  0  0  0  0  0  0  0  0
  141.9794   68.8151  226.9066 H   0  0  0  0  0  0  0  0  0  0  0  0
  141.1712   69.9356  224.9128 H   0  0  0  0  0  0  0  0  0  0  0  0
  139.2614   71.1875  225.6177 H   0  0  0  0  0  0  0  0  0  0  0  0
  139.6211   71.9376  228.3032 H   0  0  0  0  0  0  0  0  0  0  0  0
  140.4896   70.6845  228.6178 H   0  0  0  0  0  0  0  0  0  0  0  0
  141.2071   73.0697  226.5339 H   0  0  0  0  0  0  0  0  0  0  0  0
  142.3485   72.0197  226.5390 H   0  0  0  0  0  0  0  0  0  0  0  0
  132.1294   70.3410  227.0286 H   0  0  0  0  0  0  0  0  0  0  0  0
  130.7791   72.3794  227.4976 H   0  0  0  0  0  0  0  0  0  0  0  0
  130.6525   74.8173  227.4812 H   0  0  0  0  0  0  0  0  0  0  0  0
  134.0169   77.1527  226.1177 H   0  0  0  0  0  0  0  0  0  0  0  0
  135.2779   75.0366  225.6838 H   0  0  0  0  0  0  0  0  0  0  0  0
  1  2  2  0
  2  3  1  0
  3  4  1  0
  4  5  1  0
  5  6  2  0
  5  7  1  0
  7  8  1  0
  8  9  1  0
  9 10  1  0
 10 11  1  0
 11 12  1  0
 12 13  1  0
 13 14  1  0
  2 15  1  0
 15 16  2  0
 16 17  1  0
 17 18  2  0
 18 19  1  0
 19 20  2  0
 20 21  1  0
 20 22  1  0
 22 23  2  0
 23 24  1  0
 24 25  2  0
 11  7  1  0
 14 12  1  0
 25 15  1  0
 24 18  1  0
  3 26  1  0
  4 27  1  0
  4 28  1  0
  8 29  1  0
  8 30  1  0
  9 31  1  0
  9 32  1  0
 10 33  1  0
 10 34  1  0
 11 35  1  6
 12 36  1  0
 13 37  1  0
 13 38  1  0
 14 39  1  0
 14 40  1  0
 16 41  1  0
 17 42  1  0
 19 43  1  0
 22 44  1  0
 23 45  1  0
M  END
>  <smiles>  (11) 
O=C(NCC(=O)N1CCCC1C1CC1)c1ccc2cc(Cl)ccc2n1

>  <score_type>  (11) 
oracle

>  <origin>  (11) 
autodockgpu

>  <m_score__min__energy>  (11) 
-8.1999999999999993

>  <m_primary>  (11) 
energy

>  <rmsd>  (11) 
8.884854106965681

>  <m_score__min__rmsd>  (11) 
8.884854106965681

>  <meeko>  (11) 
{"free_energy": -7.24, "intermolecular_energy": -8.74, "internal_energy": -1.84, "cluster_size": 20, "cluster_id": 1, "rank_in_cluster": 20}

>  <energy>  (11) 
-8.18

>  <cluster_rmsd>  (11) 
0.07

>  <cluster>  (11) 
1

$$$$

     RDKit          3D

 45 48  0  0  0  0  0  0  0  0999 V2000
  141.5690   71.7510  220.9520 O   0  0  0  0  0  0  0  0  0  0  0  0
  140.9030   72.5620  221.6470 C   0  0  0  0  0  0  0  0  0  0  0  0
  139.9820   72.1600  222.6340 N   0  0  0  0  0  0  0  0  0  0  0  0
  139.7320   70.7630  222.9230 C   0  0  0  0  0  0  0  0  0  0  0  0
  139.1480   70.6930  224.2950 C   0  0  0  0  0  0  0  0  0  0  0  0
  138.2170   71.4860  224.5910 O   0  0  0  0  0  0  0  0  0  0  0  0
  139.6590   69.7330  225.2260 N   0  0  0  0  0  0  0  0  0  0  0  0
  139.4100   68.3010  225.2010 C   0  0  0  0  0  0  0  0  0  0  0  0
  139.7310   67.8090  226.5840 C   0  0  0  0  0  0  0  0  0  0  0  0
  140.1030   69.0270  227.3930 C   0  0  0  0  0  0  0  0  0  0  0  0
  140.5160   70.0400  226.3530 C   0  0  2  0  0  0  0  0  0  0  0  0
  140.3210   71.4580  226.8300 C   0  0  0  0  0  0  0  0  0  0  0  0
  140.4430   71.7970  228.2670 C   0  0  0  0  0  0  0  0  0  0  0  0
  141.5120   72.2760  227.2860 C   0  0  0  0  0  0  0  0  0  0  0  0
  141.0930   74.0080  221.4200 C   0  0  0  0  0  0  0  0  0  0  0  0
  142.0030   74.4740  220.4850 C   0  0  0  0  0  0  0  0  0  0  0  0
  142.1790   75.8280  220.2740 C   0  0  0  0  0  0  0  0  0  0  0  0
  141.4220   76.7010  221.0220 C   0  0  0  0  0  0  0  0  0  0  0  0
  141.5410   78.0660  220.8690 C   0  0  0  0  0  0  0  0  0  0  0  0
  140.7650   78.9400  221.6360 C   0  0  0  0  0  0  0  0  0  0  0  0
  140.9000   80.6780  221.4560 Cl  0  0  0  0  0  0  0  0  0  0  0  0
  139.8620   78.4480  222.5620 C   0  0  0  0  0  0  0  0  0  0  0  0
  139.7380   77.0790  222.7200 C   0  0  0  0  0  0  0  0  0  0  0  0
  140.5140   76.2510  221.9530 C   0  0  0  0  0  0  0  0  0  0  0  0
  140.3860   74.9260  222.1150 N   0  0  0  0  0  0  0  0  0  0  0  0
  139.4620   72.9060  223.1750 H   0  0  0  0  0  0  0  0  0  0  0  0
  139.0242   70.3476  222.1906 H   0  0  0  0  0  0  0  0  0  0  0  0
  140.6629   70.1799  222.8650 H   0  0  0  0  0  0  0  0  0  0  0  0
  138.3567   68.0989  224.9568 H   0  0  0  0  0  0  0  0  0  0  0  0
  140.0205   67.7957  224.4381 H   0  0  0  0  0  0  0  0  0  0  0  0
  138.8537   67.3129  227.0246 H   0  0  0  0  0  0  0  0  0  0  0  0
  140.5509   67.0759  226.5665 H   0  0  0  0  0  0  0  0  0  0  0  0
  139.2416   69.3900  227.9728 H   0  0  0  0  0  0  0  0  0  0  0  0
  140.8972   68.8234  228.1264 H   0  0  0  0  0  0  0  0  0  0  0  0
  141.5867   69.9788  226.1083 H   0  0  0  0  0  0  0  0  0  0  0  0
  139.5323   71.5933  226.0752 H   0  0  0  0  0  0  0  0  0  0  0  0
  139.7504   72.5212  228.7207 H   0  0  0  0  0  0  0  0  0  0  0  0
  140.4526   71.2178  229.2021 H   0  0  0  0  0  0  0  0  0  0  0  0
  141.5864   73.3416  227.0233 H   0  0  0  0  0  0  0  0  0  0  0  0
  142.6056   72.1871  227.2071 H   0  0  0  0  0  0  0  0  0  0  0  0
  142.5952   73.7541  219.9010 H   0  0  0  0  0  0  0  0  0  0  0  0
  142.9017   76.1969  219.5313 H   0  0  0  0  0  0  0  0  0  0  0  0
  142.2538   78.4715  220.1359 H   0  0  0  0  0  0  0  0  0  0  0  0
  139.2509   79.1361  223.1645 H   0  0  0  0  0  0  0  0  0  0  0  0
  139.0279   76.6625  223.4496 H   0  0  0  0  0  0  0  0  0  0  0  0
  1  2  2  0
  2  3  1  0
  3  4  1  0
  4  5  1  0
  5  6  2  0
  5  7  1  0
  7  8  1  0
  8  9  1  0
  9 10  1  0
 10 11  1  0
 11 12  1  0
 12 13  1  0
 13 14  1  0
  2 15  1  0
 15 16  2  0
 16 17  1  0
 17 18  2  0
 18 19  1  0
 19 20  2  0
 20 21  1  0
 20 22  1  0
 22 23  2  0
 23 24  1  0
 24 25  2  0
 11  7  1  0
 14 12  1  0
 25 15  1  0
 24 18  1  0
  3 26  1  0
  4 27  1  0
  4 28  1  0
  8 29  1  0
  8 30  1  0
  9 31  1  0
  9 32  1  0
 10 33  1  0
 10 34  1  0
 11 35  1  6
 12 36  1  0
 13 37  1  0
 13 38  1  0
 14 39  1  0
 14 40  1  0
 16 41  1  0
 17 42  1  0
 19 43  1  0
 22 44  1  0
 23 45  1  0
M  END
>  <smiles>  (12) 
O=C(NCC(=O)N1CCCC1C1CC1)c1ccc2cc(Cl)ccc2n1

>  <score_type>  (12) 
oracle

>  <origin>  (12) 
autodockgpu

>  <m_score__min__energy>  (12) 
-8.1999999999999993

>  <m_primary>  (12) 
energy

>  <rmsd>  (12) 
8.565503324421673

>  <m_score__min__rmsd>  (12) 
8.565503324421673

>  <meeko>  (12) 
{"free_energy": -7.92, "intermolecular_energy": -9.41, "internal_energy": -1.79, "cluster_size": 10, "cluster_id": 2, "rank_in_cluster": 2}

>  <energy>  (12) 
-8.18

>  <cluster_rmsd>  (12) 
0.06

>  <cluster>  (12) 
1

$$$$

     RDKit          3D

 45 48  0  0  0  0  0  0  0  0999 V2000
  135.0330   68.4630  224.8830 O   0  0  0  0  0  0  0  0  0  0  0  0
  135.5240   69.6180  224.9770 C   0  0  0  0  0  0  0  0  0  0  0  0
  136.8140   69.9500  224.5180 N   0  0  0  0  0  0  0  0  0  0  0  0
  137.6800   68.9680  223.8980 C   0  0  0  0  0  0  0  0  0  0  0  0
  138.8170   68.7270  224.8350 C   0  0  0  0  0  0  0  0  0  0  0  0
  139.1990   67.5430  225.0220 O   0  0  0  0  0  0  0  0  0  0  0  0
  139.4350   69.8410  225.4870 N   0  0  0  0  0  0  0  0  0  0  0  0
  139.8980   71.0600  224.8430 C   0  0  0  0  0  0  0  0  0  0  0  0
  140.8670   71.6850  225.8060 C   0  0  0  0  0  0  0  0  0  0  0  0
  140.9740   70.7390  226.9760 C   0  0  0  0  0  0  0  0  0  0  0  0
  139.7000   69.9340  226.9080 C   0  0  2  0  0  0  0  0  0  0  0  0
  139.8530   68.5690  227.5350 C   0  0  0  0  0  0  0  0  0  0  0  0
  141.0750   67.7640  227.3060 C   0  0  0  0  0  0  0  0  0  0  0  0
  140.8160   68.3680  228.6860 C   0  0  0  0  0  0  0  0  0  0  0  0
  134.7110   70.6830  225.5970 C   0  0  0  0  0  0  0  0  0  0  0  0
  133.6890   70.3820  226.4820 C   0  0  0  0  0  0  0  0  0  0  0  0
  132.9290   71.3790  227.0620 C   0  0  0  0  0  0  0  0  0  0  0  0
  133.2200   72.6840  226.7330 C   0  0  0  0  0  0  0  0  0  0  0  0
  132.5070   73.7350  227.2700 C   0  0  0  0  0  0  0  0  0  0  0  0
  132.8150   75.0550  226.9270 C   0  0  0  0  0  0  0  0  0  0  0  0
  131.9220   76.4050  227.5990 Cl  0  0  0  0  0  0  0  0  0  0  0  0
  133.8430   75.3290  226.0410 C   0  0  0  0  0  0  0  0  0  0  0  0
  134.5620   74.2780  225.4990 C   0  0  0  0  0  0  0  0  0  0  0  0
  134.2350   72.9970  225.8570 C   0  0  0  0  0  0  0  0  0  0  0  0
  134.9370   71.9870  225.3250 N   0  0  0  0  0  0  0  0  0  0  0  0
  137.1530   70.9450  224.6350 H   0  0  0  0  0  0  0  0  0  0  0  0
  137.1273   68.0323  223.7277 H   0  0  0  0  0  0  0  0  0  0  0  0
  138.0457   69.3289  222.9253 H   0  0  0  0  0  0  0  0  0  0  0  0
  140.3993   70.8251  223.8925 H   0  0  0  0  0  0  0  0  0  0  0  0
  139.0638   71.7377  224.6088 H   0  0  0  0  0  0  0  0  0  0  0  0
  141.8497   71.8121  225.3283 H   0  0  0  0  0  0  0  0  0  0  0  0
  140.5246   72.6798  226.1273 H   0  0  0  0  0  0  0  0  0  0  0  0
  141.8546   70.0878  226.8737 H   0  0  0  0  0  0  0  0  0  0  0  0
  141.0947   71.2626  227.9358 H   0  0  0  0  0  0  0  0  0  0  0  0
  138.8779   70.4023  227.4691 H   0  0  0  0  0  0  0  0  0  0  0  0
  138.7783   68.3890  227.3846 H   0  0  0  0  0  0  0  0  0  0  0  0
  140.9965   66.6767  227.1592 H   0  0  0  0  0  0  0  0  0  0  0  0
  141.9056   67.8028  226.5859 H   0  0  0  0  0  0  0  0  0  0  0  0
  140.5418   67.7209  229.5322 H   0  0  0  0  0  0  0  0  0  0  0  0
  141.3680   69.0240  229.3752 H   0  0  0  0  0  0  0  0  0  0  0  0
  133.4788   69.3305  226.7273 H   0  0  0  0  0  0  0  0  0  0  0  0
  132.1173   71.1381  227.7642 H   0  0  0  0  0  0  0  0  0  0  0  0
  131.6875   73.5329  227.9754 H   0  0  0  0  0  0  0  0  0  0  0  0
  134.0849   76.3677  225.7716 H   0  0  0  0  0  0  0  0  0  0  0  0
  135.3829   74.4684  224.7920 H   0  0  0  0  0  0  0  0  0  0  0  0
  1  2  2  0
  2  3  1  0
  3  4  1  0
  4  5  1  0
  5  6  2  0
  5  7  1  0
  7  8  1  0
  8  9  1  0
  9 10  1  0
 10 11  1  0
 11 12  1  0
 12 13  1  0
 13 14  1  0
  2 15  1  0
 15 16  2  0
 16 17  1  0
 17 18  2  0
 18 19  1  0
 19 20  2  0
 20 21  1  0
 20 22  1  0
 22 23  2  0
 23 24  1  0
 24 25  2  0
 11  7  1  0
 14 12  1  0
 25 15  1  0
 24 18  1  0
  3 26  1  0
  4 27  1  0
  4 28  1  0
  8 29  1  0
  8 30  1  0
  9 31  1  0
  9 32  1  0
 10 33  1  0
 10 34  1  0
 11 35  1  1
 12 36  1  0
 13 37  1  0
 13 38  1  0
 14 39  1  0
 14 40  1  0
 16 41  1  0
 17 42  1  0
 19 43  1  0
 22 44  1  0
 23 45  1  0
M  END
>  <smiles>  (13) 
O=C(NCC(=O)N1CCCC1C1CC1)c1ccc2cc(Cl)ccc2n1

>  <score_type>  (13) 
oracle

>  <origin>  (13) 
autodockgpu

>  <m_score__min__energy>  (13) 
-8.1999999999999993

>  <m_primary>  (13) 
energy

>  <rmsd>  (13) 
7.955994149522679

>  <m_score__min__rmsd>  (13) 
7.955994149522679

>  <meeko>  (13) 
{"free_energy": -8.19, "intermolecular_energy": -9.69, "internal_energy": -1.38, "cluster_size": 20, "cluster_id": 1, "rank_in_cluster": 3}

>  <energy>  (13) 
-8.17

>  <cluster_rmsd>  (13) 
0.05

>  <cluster>  (13) 
1

$$$$

     RDKit          3D

 45 48  0  0  0  0  0  0  0  0999 V2000
  135.0460   68.4790  224.8660 O   0  0  0  0  0  0  0  0  0  0  0  0
  135.5340   69.6350  224.9510 C   0  0  0  0  0  0  0  0  0  0  0  0
  136.8230   69.9680  224.4880 N   0  0  0  0  0  0  0  0  0  0  0  0
  137.6900   68.9840  223.8720 C   0  0  0  0  0  0  0  0  0  0  0  0
  138.8190   68.7370  224.8170 C   0  0  0  0  0  0  0  0  0  0  0  0
  139.2000   67.5520  224.9980 O   0  0  0  0  0  0  0  0  0  0  0  0
  139.4300   69.8470  225.4830 N   0  0  0  0  0  0  0  0  0  0  0  0
  139.8890   71.0750  224.8540 C   0  0  0  0  0  0  0  0  0  0  0  0
  140.8530   71.6930  225.8270 C   0  0  0  0  0  0  0  0  0  0  0  0
  140.9610   70.7350  226.9870 C   0  0  0  0  0  0  0  0  0  0  0  0
  139.6900   69.9240  226.9050 C   0  0  2  0  0  0  0  0  0  0  0  0
  139.8480   68.5540  227.5180 C   0  0  0  0  0  0  0  0  0  0  0  0
  141.0790   67.7610  227.2920 C   0  0  0  0  0  0  0  0  0  0  0  0
  140.8010   68.3460  228.6760 C   0  0  0  0  0  0  0  0  0  0  0  0
  134.7200   70.7020  225.5670 C   0  0  0  0  0  0  0  0  0  0  0  0
  133.6650   70.4020  226.4130 C   0  0  0  0  0  0  0  0  0  0  0  0
  132.9050   71.4010  226.9890 C   0  0  0  0  0  0  0  0  0  0  0  0
  133.2280   72.7060  226.6950 C   0  0  0  0  0  0  0  0  0  0  0  0
  132.5150   73.7590  227.2310 C   0  0  0  0  0  0  0  0  0  0  0  0
  132.8560   75.0800  226.9240 C   0  0  0  0  0  0  0  0  0  0  0  0
  131.9640   76.4310  227.5940 Cl  0  0  0  0  0  0  0  0  0  0  0  0
  133.9150   75.3530  226.0760 C   0  0  0  0  0  0  0  0  0  0  0  0
  134.6340   74.3000  225.5360 C   0  0  0  0  0  0  0  0  0  0  0  0
  134.2740   73.0190  225.8580 C   0  0  0  0  0  0  0  0  0  0  0  0
  134.9760   72.0070  225.3280 N   0  0  0  0  0  0  0  0  0  0  0  0
  137.1590   70.9640  224.5990 H   0  0  0  0  0  0  0  0  0  0  0  0
  137.1352   68.0507  223.6955 H   0  0  0  0  0  0  0  0  0  0  0  0
  138.0641   69.3455  222.9028 H   0  0  0  0  0  0  0  0  0  0  0  0
  140.3938   70.8532  223.9022 H   0  0  0  0  0  0  0  0  0  0  0  0
  139.0526   71.7517  224.6251 H   0  0  0  0  0  0  0  0  0  0  0  0
  141.8364   71.8293  225.3534 H   0  0  0  0  0  0  0  0  0  0  0  0
  140.5053   72.6826  226.1584 H   0  0  0  0  0  0  0  0  0  0  0  0
  141.8452   70.0893  226.8808 H   0  0  0  0  0  0  0  0  0  0  0  0
  141.0760   71.2484  227.9530 H   0  0  0  0  0  0  0  0  0  0  0  0
  138.8628   70.3812  227.4678 H   0  0  0  0  0  0  0  0  0  0  0  0
  138.7762   68.3680  227.3550 H   0  0  0  0  0  0  0  0  0  0  0  0
  141.0106   66.6750  227.1312 H   0  0  0  0  0  0  0  0  0  0  0  0
  141.9167   67.8150  226.5812 H   0  0  0  0  0  0  0  0  0  0  0  0
  140.5232   67.6865  229.5114 H   0  0  0  0  0  0  0  0  0  0  0  0
  141.3409   68.9977  229.3787 H   0  0  0  0  0  0  0  0  0  0  0  0
  133.4284   69.3498  226.6298 H   0  0  0  0  0  0  0  0  0  0  0  0
  132.0681   71.1612  227.6614 H   0  0  0  0  0  0  0  0  0  0  0  0
  131.6704   73.5573  227.9062 H   0  0  0  0  0  0  0  0  0  0  0  0
  134.1819   76.3924  225.8342 H   0  0  0  0  0  0  0  0  0  0  0  0
  135.4804   74.4896  224.8595 H   0  0  0  0  0  0  0  0  0  0  0  0
  1  2  2  0
  2  3  1  0
  3  4  1  0
  4  5  1  0
  5  6  2  0
  5  7  1  0
  7  8  1  0
  8  9  1  0
  9 10  1  0
 10 11  1  0
 11 12  1  0
 12 13  1  0
 13 14  1  0
  2 15  1  0
 15 16  2  0
 16 17  1  0
 17 18  2  0
 18 19  1  0
 19 20  2  0
 20 21  1  0
 20 22  1  0
 22 23  2  0
 23 24  1  0
 24 25  2  0
 11  7  1  0
 14 12  1  0
 25 15  1  0
 24 18  1  0
  3 26  1  0
  4 27  1  0
  4 28  1  0
  8 29  1  0
  8 30  1  0
  9 31  1  0
  9 32  1  0
 10 33  1  0
 10 34  1  0
 11 35  1  1
 12 36  1  0
 13 37  1  0
 13 38  1  0
 14 39  1  0
 14 40  1  0
 16 41  1  0
 17 42  1  0
 19 43  1  0
 22 44  1  0
 23 45  1  0
M  END
>  <smiles>  (14) 
O=C(NCC(=O)N1CCCC1C1CC1)c1ccc2cc(Cl)ccc2n1

>  <score_type>  (14) 
oracle

>  <origin>  (14) 
autodockgpu

>  <m_score__min__energy>  (14) 
-8.1999999999999993

>  <m_primary>  (14) 
energy

>  <rmsd>  (14) 
7.945100174030149

>  <m_score__min__rmsd>  (14) 
7.945100174030149

>  <meeko>  (14) 
{"free_energy": -8.17, "intermolecular_energy": -9.66, "internal_energy": -1.4, "cluster_size": 20, "cluster_id": 1, "rank_in_cluster": 13}

>  <energy>  (14) 
-8.16

>  <cluster_rmsd>  (14) 
0.11

>  <cluster>  (14) 
1

$$$$

     RDKit          3D

 45 48  0  0  0  0  0  0  0  0999 V2000
  141.7570   72.0800  221.1690 O   0  0  0  0  0  0  0  0  0  0  0  0
  140.9350   72.7810  221.8130 C   0  0  0  0  0  0  0  0  0  0  0  0
  140.0240   72.2450  222.7450 N   0  0  0  0  0  0  0  0  0  0  0  0
  139.9710   70.8250  223.0310 C   0  0  0  0  0  0  0  0  0  0  0  0
  139.2630   70.6640  224.3360 C   0  0  0  0  0  0  0  0  0  0  0  0
  138.3080   71.4390  224.5990 O   0  0  0  0  0  0  0  0  0  0  0  0
  139.6900   69.6420  225.2420 N   0  0  0  0  0  0  0  0  0  0  0  0
  139.3890   68.2230  225.1330 C   0  0  0  0  0  0  0  0  0  0  0  0
  139.6190   67.6530  226.5040 C   0  0  0  0  0  0  0  0  0  0  0  0
  139.9930   68.8140  227.3910 C   0  0  0  0  0  0  0  0  0  0  0  0
  140.4960   69.8590  226.4250 C   0  0  2  0  0  0  0  0  0  0  0  0
  140.3300   71.2590  226.9620 C   0  0  0  0  0  0  0  0  0  0  0  0
  140.9830   71.6670  228.2270 C   0  0  0  0  0  0  0  0  0  0  0  0
  141.4850   72.2380  226.9010 C   0  0  0  0  0  0  0  0  0  0  0  0
  140.9180   74.2390  221.5840 C   0  0  0  0  0  0  0  0  0  0  0  0
  141.8190   74.8410  220.7220 C   0  0  0  0  0  0  0  0  0  0  0  0
  141.8020   76.2050  220.5090 C   0  0  0  0  0  0  0  0  0  0  0  0
  140.8600   76.9500  221.1810 C   0  0  0  0  0  0  0  0  0  0  0  0
  140.7800   78.3180  221.0210 C   0  0  0  0  0  0  0  0  0  0  0  0
  139.8170   79.0620  221.7110 C   0  0  0  0  0  0  0  0  0  0  0  0
  139.6980   80.7990  221.5210 Cl  0  0  0  0  0  0  0  0  0  0  0  0
  138.9270   78.4360  222.5660 C   0  0  0  0  0  0  0  0  0  0  0  0
  139.0020   77.0630  222.7310 C   0  0  0  0  0  0  0  0  0  0  0  0
  139.9570   76.3650  222.0400 C   0  0  0  0  0  0  0  0  0  0  0  0
  140.0230   75.0370  222.2070 N   0  0  0  0  0  0  0  0  0  0  0  0
  139.3650   72.9030  223.2450 H   0  0  0  0  0  0  0  0  0  0  0  0
  139.4203   70.3007  222.2362 H   0  0  0  0  0  0  0  0  0  0  0  0
  140.9837   70.3984  223.0807 H   0  0  0  0  0  0  0  0  0  0  0  0
  138.3430   68.0751  224.8265 H   0  0  0  0  0  0  0  0  0  0  0  0
  140.0190   67.7309  224.3774 H   0  0  0  0  0  0  0  0  0  0  0  0
  138.7021   67.1713  226.8744 H   0  0  0  0  0  0  0  0  0  0  0  0
  140.4113   66.8901  226.4907 H   0  0  0  0  0  0  0  0  0  0  0  0
  139.1167   69.1820  227.9448 H   0  0  0  0  0  0  0  0  0  0  0  0
  140.7400   68.5441  228.1520 H   0  0  0  0  0  0  0  0  0  0  0  0
  141.5750   69.7664  226.2320 H   0  0  0  0  0  0  0  0  0  0  0  0
  139.2914   71.2641  226.5998 H   0  0  0  0  0  0  0  0  0  0  0  0
  140.4481   72.3156  228.9364 H   0  0  0  0  0  0  0  0  0  0  0  0
  141.4498   71.1309  229.0665 H   0  0  0  0  0  0  0  0  0  0  0  0
  141.3051   73.2932  226.6477 H   0  0  0  0  0  0  0  0  0  0  0  0
  142.4519   72.2845  226.3786 H   0  0  0  0  0  0  0  0  0  0  0  0
  142.5615   74.2215  220.1976 H   0  0  0  0  0  0  0  0  0  0  0  0
  142.5188   76.6812  219.8238 H   0  0  0  0  0  0  0  0  0  0  0  0
  141.4805   78.8289  220.3440 H   0  0  0  0  0  0  0  0  0  0  0  0
  138.1696   79.0215  223.1077 H   0  0  0  0  0  0  0  0  0  0  0  0
  138.3066   76.5418  223.4054 H   0  0  0  0  0  0  0  0  0  0  0  0
  1  2  2  0
  2  3  1  0
  3  4  1  0
  4  5  1  0
  5  6  2  0
  5  7  1  0
  7  8  1  0
  8  9  1  0
  9 10  1  0
 10 11  1  0
 11 12  1  0
 12 13  1  0
 13 14  1  0
  2 15  1  0
 15 16  2  0
 16 17  1  0
 17 18  2  0
 18 19  1  0
 19 20  2  0
 20 21  1  0
 20 22  1  0
 22 23  2  0
 23 24  1  0
 24 25  2  0
 11  7  1  0
 14 12  1  0
 25 15  1  0
 24 18  1  0
  3 26  1  0
  4 27  1  0
  4 28  1  0
  8 29  1  0
  8 30  1  0
  9 31  1  0
  9 32  1  0
 10 33  1  0
 10 34  1  0
 11 35  1  6
 12 36  1  0
 13 37  1  0
 13 38  1  0
 14 39  1  0
 14 40  1  0
 16 41  1  0
 17 42  1  0
 19 43  1  0
 22 44  1  0
 23 45  1  0
M  END
>  <smiles>  (15) 
O=C(NCC(=O)N1CCCC1C1CC1)c1ccc2cc(Cl)ccc2n1

>  <score_type>  (15) 
oracle

>  <origin>  (15) 
autodockgpu

>  <m_score__min__energy>  (15) 
-8.1999999999999993

>  <m_primary>  (15) 
energy

>  <rmsd>  (15) 
8.659916294908937

>  <m_score__min__rmsd>  (15) 
8.659916294908937

>  <meeko>  (15) 
{"free_energy": -7.64, "intermolecular_energy": -9.13, "internal_energy": -1.93, "cluster_size": 10, "cluster_id": 2, "rank_in_cluster": 10}

>  <energy>  (15) 
-8.15

>  <cluster_rmsd>  (15) 
0.1

>  <cluster>  (15) 
1

$$$$

     RDKit          3D

 45 48  0  0  0  0  0  0  0  0999 V2000
  141.5460   71.7370  220.8720 O   0  0  0  0  0  0  0  0  0  0  0  0
  140.9460   72.5420  221.6290 C   0  0  0  0  0  0  0  0  0  0  0  0
  140.1070   72.1340  222.6850 N   0  0  0  0  0  0  0  0  0  0  0  0
  139.8720   70.7340  222.9760 C   0  0  0  0  0  0  0  0  0  0  0  0
  139.2390   70.6640  224.3260 C   0  0  0  0  0  0  0  0  0  0  0  0
  138.3440   71.5010  224.6120 O   0  0  0  0  0  0  0  0  0  0  0  0
  139.6660   69.6560  225.2480 N   0  0  0  0  0  0  0  0  0  0  0  0
  139.3570   68.2380  225.1670 C   0  0  0  0  0  0  0  0  0  0  0  0
  139.5920   67.6920  226.5470 C   0  0  0  0  0  0  0  0  0  0  0  0
  139.9790   68.8670  227.4100 C   0  0  0  0  0  0  0  0  0  0  0  0
  140.4810   69.8910  226.4210 C   0  0  2  0  0  0  0  0  0  0  0  0
  140.3260   71.3020  226.9340 C   0  0  0  0  0  0  0  0  0  0  0  0
  140.9430   71.7140  228.2160 C   0  0  0  0  0  0  0  0  0  0  0  0
  141.5030   72.2550  226.9010 C   0  0  0  0  0  0  0  0  0  0  0  0
  141.1260   73.9900  221.4050 C   0  0  0  0  0  0  0  0  0  0  0  0
  142.0410   74.4650  220.4800 C   0  0  0  0  0  0  0  0  0  0  0  0
  142.2090   75.8200  220.2710 C   0  0  0  0  0  0  0  0  0  0  0  0
  141.4380   76.6860  221.0120 C   0  0  0  0  0  0  0  0  0  0  0  0
  141.5470   78.0520  220.8600 C   0  0  0  0  0  0  0  0  0  0  0  0
  140.7560   78.9200  221.6200 C   0  0  0  0  0  0  0  0  0  0  0  0
  140.8790   80.6590  221.4430 Cl  0  0  0  0  0  0  0  0  0  0  0  0
  139.8470   78.4200  222.5370 C   0  0  0  0  0  0  0  0  0  0  0  0
  139.7330   77.0490  222.6930 C   0  0  0  0  0  0  0  0  0  0  0  0
  140.5230   76.2280  221.9330 C   0  0  0  0  0  0  0  0  0  0  0  0
  140.4050   74.9030  222.0930 N   0  0  0  0  0  0  0  0  0  0  0  0
  139.6390   72.8760  223.2750 H   0  0  0  0  0  0  0  0  0  0  0  0
  139.1995   70.3000  222.2215 H   0  0  0  0  0  0  0  0  0  0  0  0
  140.8148   70.1676  222.9569 H   0  0  0  0  0  0  0  0  0  0  0  0
  138.3084   68.0902  224.8694 H   0  0  0  0  0  0  0  0  0  0  0  0
  139.9799   67.7286  224.4170 H   0  0  0  0  0  0  0  0  0  0  0  0
  138.6744   67.2232  226.9319 H   0  0  0  0  0  0  0  0  0  0  0  0
  140.3793   66.9238  226.5430 H   0  0  0  0  0  0  0  0  0  0  0  0
  139.1089   69.2503  227.9631 H   0  0  0  0  0  0  0  0  0  0  0  0
  140.7298   68.6068  228.1707 H   0  0  0  0  0  0  0  0  0  0  0  0
  141.5580   69.7894  226.2217 H   0  0  0  0  0  0  0  0  0  0  0  0
  139.3009   71.3238  226.5356 H   0  0  0  0  0  0  0  0  0  0  0  0
  140.3978   72.3838  228.8972 H   0  0  0  0  0  0  0  0  0  0  0  0
  141.3684   71.1802  229.0786 H   0  0  0  0  0  0  0  0  0  0  0  0
  141.3551   73.3101  226.6273 H   0  0  0  0  0  0  0  0  0  0  0  0
  142.4884   72.2735  226.4125 H   0  0  0  0  0  0  0  0  0  0  0  0
  142.6447   73.7503  219.9014 H   0  0  0  0  0  0  0  0  0  0  0  0
  142.9360   76.1949  219.5356 H   0  0  0  0  0  0  0  0  0  0  0  0
  142.2633   78.4635  220.1337 H   0  0  0  0  0  0  0  0  0  0  0  0
  139.2239   79.1027  223.1334 H   0  0  0  0  0  0  0  0  0  0  0  0
  139.0196   76.6261  223.4156 H   0  0  0  0  0  0  0  0  0  0  0  0
  1  2  2  0
  2  3  1  0
  3  4  1  0
  4  5  1  0
  5  6  2  0
  5  7  1  0
  7  8  1  0
  8  9  1  0
  9 10  1  0
 10 11  1  0
 11 12  1  0
 12 13  1  0
 13 14  1  0
  2 15  1  0
 15 16  2  0
 16 17  1  0
 17 18  2  0
 18 19  1  0
 19 20  2  0
 20 21  1  0
 20 22  1  0
 22 23  2  0
 23 24  1  0
 24 25  2  0
 11  7  1  0
 14 12  1  0
 25 15  1  0
 24 18  1  0
  3 26  1  0
  4 27  1  0
  4 28  1  0
  8 29  1  0
  8 30  1  0
  9 31  1  0
  9 32  1  0
 10 33  1  0
 10 34  1  0
 11 35  1  6
 12 36  1  0
 13 37  1  0
 13 38  1  0
 14 39  1  0
 14 40  1  0
 16 41  1  0
 17 42  1  0
 19 43  1  0
 22 44  1  0
 23 45  1  0
M  END
>  <smiles>  (16) 
O=C(NCC(=O)N1CCCC1C1CC1)c1ccc2cc(Cl)ccc2n1

>  <score_type>  (16) 
oracle

>  <origin>  (16) 
autodockgpu

>  <m_score__min__energy>  (16) 
-8.1999999999999993

>  <m_primary>  (16) 
energy

>  <rmsd>  (16) 
8.607763024330438

>  <m_score__min__rmsd>  (16) 
8.607763024330438

>  <meeko>  (16) 
{"free_energy": -7.82, "intermolecular_energy": -9.32, "internal_energy": -1.85, "cluster_size": 10, "cluster_id": 2, "rank_in_cluster": 5}

>  <energy>  (16) 
-8.14

>  <cluster_rmsd>  (16) 
0.13

>  <cluster>  (16) 
1

$$$$

     RDKit          3D

 45 48  0  0  0  0  0  0  0  0999 V2000
  134.9850   68.5050  224.8430 O   0  0  0  0  0  0  0  0  0  0  0  0
  135.4950   69.6490  224.9540 C   0  0  0  0  0  0  0  0  0  0  0  0
  136.7960   69.9620  224.5110 N   0  0  0  0  0  0  0  0  0  0  0  0
  137.6510   68.9710  223.8890 C   0  0  0  0  0  0  0  0  0  0  0  0
  138.8010   68.7380  224.8130 C   0  0  0  0  0  0  0  0  0  0  0  0
  139.1930   67.5570  224.9950 O   0  0  0  0  0  0  0  0  0  0  0  0
  139.4180   69.8560  225.4580 N   0  0  0  0  0  0  0  0  0  0  0  0
  139.8810   71.0710  224.8070 C   0  0  0  0  0  0  0  0  0  0  0  0
  140.8500   71.7020  225.7660 C   0  0  0  0  0  0  0  0  0  0  0  0
  140.9580   70.7630  226.9410 C   0  0  0  0  0  0  0  0  0  0  0  0
  139.6840   69.9570  226.8780 C   0  0  2  0  0  0  0  0  0  0  0  0
  139.8380   68.5960  227.5130 C   0  0  0  0  0  0  0  0  0  0  0  0
  141.0550   67.7850  227.2790 C   0  0  0  0  0  0  0  0  0  0  0  0
  140.8100   68.3990  228.6570 C   0  0  0  0  0  0  0  0  0  0  0  0
  134.6960   70.7220  225.5770 C   0  0  0  0  0  0  0  0  0  0  0  0
  133.6760   70.4320  226.4680 C   0  0  0  0  0  0  0  0  0  0  0  0
  132.9290   71.4370  227.0500 C   0  0  0  0  0  0  0  0  0  0  0  0
  133.2290   72.7380  226.7170 C   0  0  0  0  0  0  0  0  0  0  0  0
  132.5280   73.7960  227.2570 C   0  0  0  0  0  0  0  0  0  0  0  0
  132.8450   75.1130  226.9090 C   0  0  0  0  0  0  0  0  0  0  0  0
  131.9680   76.4720  227.5830 Cl  0  0  0  0  0  0  0  0  0  0  0  0
  133.8700   75.3760  226.0170 C   0  0  0  0  0  0  0  0  0  0  0  0
  134.5770   74.3180  225.4720 C   0  0  0  0  0  0  0  0  0  0  0  0
  134.2410   73.0410  225.8340 C   0  0  0  0  0  0  0  0  0  0  0  0
  134.9310   72.0240  225.3000 N   0  0  0  0  0  0  0  0  0  0  0  0
  137.1510   70.9500  224.6420 H   0  0  0  0  0  0  0  0  0  0  0  0
  137.0940   68.0347  223.7369 H   0  0  0  0  0  0  0  0  0  0  0  0
  138.0033   69.3200  222.9071 H   0  0  0  0  0  0  0  0  0  0  0  0
  140.3823   70.8304  223.8579 H   0  0  0  0  0  0  0  0  0  0  0  0
  139.0467   71.7473  224.5690 H   0  0  0  0  0  0  0  0  0  0  0  0
  141.8324   71.8269  225.2872 H   0  0  0  0  0  0  0  0  0  0  0  0
  140.5072   72.6984  226.0818 H   0  0  0  0  0  0  0  0  0  0  0  0
  141.8388   70.1116  226.8420 H   0  0  0  0  0  0  0  0  0  0  0  0
  141.0790   71.2921  227.8978 H   0  0  0  0  0  0  0  0  0  0  0  0
  138.8618   70.4282  227.4366 H   0  0  0  0  0  0  0  0  0  0  0  0
  138.7614   68.4191  227.3731 H   0  0  0  0  0  0  0  0  0  0  0  0
  140.9713   66.6970  227.1401 H   0  0  0  0  0  0  0  0  0  0  0  0
  141.8796   67.8160  226.5516 H   0  0  0  0  0  0  0  0  0  0  0  0
  140.5406   67.7585  229.5098 H   0  0  0  0  0  0  0  0  0  0  0  0
  141.3703   69.0574  229.3371 H   0  0  0  0  0  0  0  0  0  0  0  0
  133.4572   69.3830  226.7163 H   0  0  0  0  0  0  0  0  0  0  0  0
  132.1195   71.2049  227.7577 H   0  0  0  0  0  0  0  0  0  0  0  0
  131.7117   73.6021  227.9683 H   0  0  0  0  0  0  0  0  0  0  0  0
  134.1196   76.4121  225.7447 H   0  0  0  0  0  0  0  0  0  0  0  0
  135.3953   74.5002  224.7598 H   0  0  0  0  0  0  0  0  0  0  0  0
  1  2  2  0
  2  3  1  0
  3  4  1  0
  4  5  1  0
  5  6  2  0
  5  7  1  0
  7  8  1  0
  8  9  1  0
  9 10  1  0
 10 11  1  0
 11 12  1  0
 12 13  1  0
 13 14  1  0
  2 15  1  0
 15 16  2  0
 16 17  1  0
 17 18  2  0
 18 19  1  0
 19 20  2  0
 20 21  1  0
 20 22  1  0
 22 23  2  0
 23 24  1  0
 24 25  2  0
 11  7  1  0
 14 12  1  0
 25 15  1  0
 24 18  1  0
  3 26  1  0
  4 27  1  0
  4 28  1  0
  8 29  1  0
  8 30  1  0
  9 31  1  0
  9 32  1  0
 10 33  1  0
 10 34  1  0
 11 35  1  1
 12 36  1  0
 13 37  1  0
 13 38  1  0
 14 39  1  0
 14 40  1  0
 16 41  1  0
 17 42  1  0
 19 43  1  0
 22 44  1  0
 23 45  1  0
M  END
>  <smiles>  (17) 
O=C(NCC(=O)N1CCCC1C1CC1)c1ccc2cc(Cl)ccc2n1

>  <score_type>  (17) 
oracle

>  <origin>  (17) 
autodockgpu

>  <m_score__min__energy>  (17) 
-8.1999999999999993

>  <m_primary>  (17) 
energy

>  <rmsd>  (17) 
7.944526687902531

>  <m_score__min__rmsd>  (17) 
7.944526687902531

>  <meeko>  (17) 
{"free_energy": -8.2, "intermolecular_energy": -9.69, "internal_energy": -1.38, "cluster_size": 20, "cluster_id": 1, "rank_in_cluster": 2}

>  <energy>  (17) 
-7.81

>  <cluster_rmsd>  (17) 
1.29

>  <cluster>  (17) 
1

$$$$

     RDKit          3D

 45 48  0  0  0  0  0  0  0  0999 V2000
  139.8530   72.1030  220.5760 O   0  0  0  0  0  0  0  0  0  0  0  0
  139.7690   72.5640  221.7430 C   0  0  0  0  0  0  0  0  0  0  0  0
  139.6410   73.9390  222.0250 N   0  0  0  0  0  0  0  0  0  0  0  0
  139.5980   74.9340  220.9730 C   0  0  0  0  0  0  0  0  0  0  0  0
  139.4600   76.2670  221.6300 C   0  0  0  0  0  0  0  0  0  0  0  0
  139.0330   76.3100  222.8130 O   0  0  0  0  0  0  0  0  0  0  0  0
  139.8160   77.4470  220.9030 N   0  0  0  0  0  0  0  0  0  0  0  0
  139.7060   77.6300  219.4640 C   0  0  0  0  0  0  0  0  0  0  0  0
  140.6120   78.7820  219.1320 C   0  0  0  0  0  0  0  0  0  0  0  0
  141.2770   79.1870  220.4230 C   0  0  0  0  0  0  0  0  0  0  0  0
  140.3480   78.6590  221.4890 C   0  0  2  0  0  0  0  0  0  0  0  0
  141.0690   78.3800  222.7860 C   0  0  0  0  0  0  0  0  0  0  0  0
  142.3150   79.1020  223.1300 C   0  0  0  0  0  0  0  0  0  0  0  0
  141.0330   79.3970  223.9070 C   0  0  0  0  0  0  0  0  0  0  0  0
  139.8050   71.6220  222.8790 C   0  0  0  0  0  0  0  0  0  0  0  0
  139.2860   70.3430  222.7670 C   0  0  0  0  0  0  0  0  0  0  0  0
  139.3210   69.4630  223.8310 C   0  0  0  0  0  0  0  0  0  0  0  0
  139.8870   69.8960  225.0080 C   0  0  0  0  0  0  0  0  0  0  0  0
  139.9590   69.0760  226.1150 C   0  0  0  0  0  0  0  0  0  0  0  0
  140.5380   69.5310  227.3030 C   0  0  0  0  0  0  0  0  0  0  0  0
  140.6400   68.5050  228.7200 Cl  0  0  0  0  0  0  0  0  0  0  0  0
  141.0500   70.8140  227.3890 C   0  0  0  0  0  0  0  0  0  0  0  0
  140.9810   71.6420  226.2810 C   0  0  0  0  0  0  0  0  0  0  0  0
  140.4080   71.1650  225.1330 C   0  0  0  0  0  0  0  0  0  0  0  0
  140.3450   71.9750  224.0670 N   0  0  0  0  0  0  0  0  0  0  0  0
  139.5760   74.2450  223.0360 H   0  0  0  0  0  0  0  0  0  0  0  0
  140.5259   74.8990  220.3833 H   0  0  0  0  0  0  0  0  0  0  0  0
  138.7547   74.7456  220.2923 H   0  0  0  0  0  0  0  0  0  0  0  0
  140.0308   76.7215  218.9356 H   0  0  0  0  0  0  0  0  0  0  0  0
  138.6682   77.8272  219.1572 H   0  0  0  0  0  0  0  0  0  0  0  0
  141.3680   78.4714  218.3959 H   0  0  0  0  0  0  0  0  0  0  0  0
  140.0483   79.6191  218.6943 H   0  0  0  0  0  0  0  0  0  0  0  0
  142.2736   78.7297  220.5105 H   0  0  0  0  0  0  0  0  0  0  0  0
  141.4351   80.2731  220.4971 H   0  0  0  0  0  0  0  0  0  0  0  0
  139.5662   79.3835  221.7607 H   0  0  0  0  0  0  0  0  0  0  0  0
  140.7999   77.3172  222.6960 H   0  0  0  0  0  0  0  0  0  0  0  0
  143.1423   78.5668  223.6190 H   0  0  0  0  0  0  0  0  0  0  0  0
  143.0387   79.7108  222.5682 H   0  0  0  0  0  0  0  0  0  0  0  0
  140.9292   79.0679  224.9515 H   0  0  0  0  0  0  0  0  0  0  0  0
  140.4404   80.2945  224.1379 H   0  0  0  0  0  0  0  0  0  0  0  0
  138.8384   70.0225  221.8147 H   0  0  0  0  0  0  0  0  0  0  0  0
  138.9090   68.4471  223.7402 H   0  0  0  0  0  0  0  0  0  0  0  0
  139.5566   68.0536  226.0622 H   0  0  0  0  0  0  0  0  0  0  0  0
  141.5054   71.1711  228.3245 H   0  0  0  0  0  0  0  0  0  0  0  0
  141.3801   72.6662  226.3228 H   0  0  0  0  0  0  0  0  0  0  0  0
  1  2  2  0
  2  3  1  0
  3  4  1  0
  4  5  1  0
  5  6  2  0
  5  7  1  0
  7  8  1  0
  8  9  1  0
  9 10  1  0
 10 11  1  0
 11 12  1  0
 12 13  1  0
 13 14  1  0
  2 15  1  0
 15 16  2  0
 16 17  1  0
 17 18  2  0
 18 19  1  0
 19 20  2  0
 20 21  1  0
 20 22  1  0
 22 23  2  0
 23 24  1  0
 24 25  2  0
 11  7  1  0
 14 12  1  0
 25 15  1  0
 24 18  1  0
  3 26  1  0
  4 27  1  0
  4 28  1  0
  8 29  1  0
  8 30  1  0
  9 31  1  0
  9 32  1  0
 10 33  1  0
 10 34  1  0
 11 35  1  1
 12 36  1  0
 13 37  1  0
 13 38  1  0
 14 39  1  0
 14 40  1  0
 16 41  1  0
 17 42  1  0
 19 43  1  0
 22 44  1  0
 23 45  1  0
M  END
>  <smiles>  (18) 
O=C(NCC(=O)N1CCCC1C1CC1)c1ccc2cc(Cl)ccc2n1

>  <score_type>  (18) 
oracle

>  <origin>  (18) 
autodockgpu

>  <m_score__min__energy>  (18) 
-8.1999999999999993

>  <m_primary>  (18) 
energy

>  <rmsd>  (18) 
2.0980185532581586

>  <m_score__min__rmsd>  (18) 
2.0980185532581586

>  <meeko>  (18) 
{"free_energy": -7.31, "intermolecular_energy": -8.81, "internal_energy": -1.76, "cluster_size": 20, "cluster_id": 3, "rank_in_cluster": 17}

>  <energy>  (18) 
-7.79

>  <cluster_rmsd>  (18) 
1.3

>  <cluster>  (18) 
1

$$$$

     RDKit          3D

 45 48  0  0  0  0  0  0  0  0999 V2000
  139.9040   72.6560  220.5000 O   0  0  0  0  0  0  0  0  0  0  0  0
  139.7940   73.0290  221.6960 C   0  0  0  0  0  0  0  0  0  0  0  0
  139.6560   74.3800  222.0760 N   0  0  0  0  0  0  0  0  0  0  0  0
  139.6320   75.4490  221.0990 C   0  0  0  0  0  0  0  0  0  0  0  0
  140.5120   76.5390  221.6160 C   0  0  0  0  0  0  0  0  0  0  0  0
  140.9770   76.4310  222.7800 O   0  0  0  0  0  0  0  0  0  0  0  0
  140.7980   77.6640  220.7800 N   0  0  0  0  0  0  0  0  0  0  0  0
  141.2490   77.6110  219.3990 C   0  0  0  0  0  0  0  0  0  0  0  0
  141.8560   78.9560  219.1170 C   0  0  0  0  0  0  0  0  0  0  0  0
  141.7840   79.7340  220.4080 C   0  0  0  0  0  0  0  0  0  0  0  0
  140.6820   79.0510  221.1800 C   0  0  2  0  0  0  0  0  0  0  0  0
  140.8440   79.2150  222.6720 C   0  0  0  0  0  0  0  0  0  0  0  0
  142.1910   79.3080  223.2800 C   0  0  0  0  0  0  0  0  0  0  0  0
  141.2930   80.5440  223.2440 C   0  0  0  0  0  0  0  0  0  0  0  0
  139.8080   72.0060  222.7600 C   0  0  0  0  0  0  0  0  0  0  0  0
  139.2550   70.7530  222.5580 C   0  0  0  0  0  0  0  0  0  0  0  0
  139.2690   69.7960  223.5540 C   0  0  0  0  0  0  0  0  0  0  0  0
  139.8520   70.1270  224.7560 C   0  0  0  0  0  0  0  0  0  0  0  0
  139.9050   69.2260  225.7990 C   0  0  0  0  0  0  0  0  0  0  0  0
  140.5010   69.5770  227.0150 C   0  0  0  0  0  0  0  0  0  0  0  0
  140.5800   68.4480  228.3520 Cl  0  0  0  0  0  0  0  0  0  0  0  0
  141.0480   70.8360  227.1910 C   0  0  0  0  0  0  0  0  0  0  0  0
  140.9980   71.7450  226.1470 C   0  0  0  0  0  0  0  0  0  0  0  0
  140.4070   71.3680  224.9700 C   0  0  0  0  0  0  0  0  0  0  0  0
  140.3630   72.2560  223.9670 N   0  0  0  0  0  0  0  0  0  0  0  0
  139.5690   74.6100  223.1050 H   0  0  0  0  0  0  0  0  0  0  0  0
  140.0110   75.0850  220.1326 H   0  0  0  0  0  0  0  0  0  0  0  0
  138.6061   75.8149  220.9455 H   0  0  0  0  0  0  0  0  0  0  0  0
  141.9996   76.8171  219.2710 H   0  0  0  0  0  0  0  0  0  0  0  0
  140.4212   77.3870  218.7102 H   0  0  0  0  0  0  0  0  0  0  0  0
  142.9029   78.8420  218.7992 H   0  0  0  0  0  0  0  0  0  0  0  0
  141.3199   79.4742  218.3082 H   0  0  0  0  0  0  0  0  0  0  0  0
  142.7376   79.6771  220.9533 H   0  0  0  0  0  0  0  0  0  0  0  0
  141.5904   80.8050  220.2486 H   0  0  0  0  0  0  0  0  0  0  0  0
  139.6919   79.4788  220.9637 H   0  0  0  0  0  0  0  0  0  0  0  0
  139.9759   78.5581  222.8301 H   0  0  0  0  0  0  0  0  0  0  0  0
  142.3968   78.8069  224.2373 H   0  0  0  0  0  0  0  0  0  0  0  0
  143.2123   79.0816  222.9400 H   0  0  0  0  0  0  0  0  0  0  0  0
  140.8427   80.9298  224.1705 H   0  0  0  0  0  0  0  0  0  0  0  0
  141.3841   81.5736  222.8676 H   0  0  0  0  0  0  0  0  0  0  0  0
  138.7962   70.5152  221.5869 H   0  0  0  0  0  0  0  0  0  0  0  0
  138.8283   68.8013  223.3917 H   0  0  0  0  0  0  0  0  0  0  0  0
  139.4744   68.2216  225.6734 H   0  0  0  0  0  0  0  0  0  0  0  0
  141.5164   71.1112  228.1475 H   0  0  0  0  0  0  0  0  0  0  0  0
  141.4254   72.7521  226.2610 H   0  0  0  0  0  0  0  0  0  0  0  0
  1  2  2  0
  2  3  1  0
  3  4  1  0
  4  5  1  0
  5  6  2  0
  5  7  1  0
  7  8  1  0
  8  9  1  0
  9 10  1  0
 10 11  1  0
 11 12  1  0
 12 13  1  0
 13 14  1  0
  2 15  1  0
 15 16  2  0
 16 17  1  0
 17 18  2  0
 18 19  1  0
 19 20  2  0
 20 21  1  0
 20 22  1  0
 22 23  2  0
 23 24  1  0
 24 25  2  0
 11  7  1  0
 14 12  1  0
 25 15  1  0
 24 18  1  0
  3 26  1  0
  4 27  1  0
  4 28  1  0
  8 29  1  0
  8 30  1  0
  9 31  1  0
  9 32  1  0
 10 33  1  0
 10 34  1  0
 11 35  1  6
 12 36  1  0
 13 37  1  0
 13 38  1  0
 14 39  1  0
 14 40  1  0
 16 41  1  0
 17 42  1  0
 19 43  1  0
 22 44  1  0
 23 45  1  0
M  END
>  <smiles>  (19) 
O=C(NCC(=O)N1CCCC1C1CC1)c1ccc2cc(Cl)ccc2n1

>  <score_type>  (19) 
oracle

>  <origin>  (19) 
autodockgpu

>  <m_score__min__energy>  (19) 
-8.1999999999999993

>  <m_primary>  (19) 
energy

>  <rmsd>  (19) 
2.455360431622999

>  <m_score__min__rmsd>  (19) 
2.455360431622999

>  <meeko>  (19) 
{"free_energy": -7.65, "intermolecular_energy": -9.14, "internal_energy": -1.56, "cluster_size": 20, "cluster_id": 3, "rank_in_cluster": 6}

>  <energy>  (19) 
-7.44

>  <cluster_rmsd>  (19) 
1.4

>  <cluster>  (19) 
1

$$$$

     RDKit          3D

 45 48  0  0  0  0  0  0  0  0999 V2000
  134.2230   69.2360  226.4680 O   0  0  0  0  0  0  0  0  0  0  0  0
  134.6190   70.3610  226.0690 C   0  0  0  0  0  0  0  0  0  0  0  0
  135.7950   70.5450  225.3140 N   0  0  0  0  0  0  0  0  0  0  0  0
  136.6440   69.4320  224.9400 C   0  0  0  0  0  0  0  0  0  0  0  0
  138.0240   69.9710  224.7580 C   0  0  0  0  0  0  0  0  0  0  0  0
  138.1620   71.0840  224.1870 O   0  0  0  0  0  0  0  0  0  0  0  0
  139.1410   69.2130  225.2340 N   0  0  0  0  0  0  0  0  0  0  0  0
  139.2620   67.7640  225.2140 C   0  0  0  0  0  0  0  0  0  0  0  0
  140.3320   67.4330  226.2160 C   0  0  0  0  0  0  0  0  0  0  0  0
  140.7530   68.7410  226.8380 C   0  0  0  0  0  0  0  0  0  0  0  0
  140.3410   69.7750  225.8190 C   0  0  2  0  0  0  0  0  0  0  0  0
  140.0760   71.1210  226.4480 C   0  0  0  0  0  0  0  0  0  0  0  0
  140.3190   71.3430  227.8920 C   0  0  0  0  0  0  0  0  0  0  0  0
  141.2330   72.0060  226.8610 C   0  0  0  0  0  0  0  0  0  0  0  0
  133.8160   71.5530  226.4040 C   0  0  0  0  0  0  0  0  0  0  0  0
  132.5630   71.4350  226.9840 C   0  0  0  0  0  0  0  0  0  0  0  0
  131.8130   72.5510  227.2980 C   0  0  0  0  0  0  0  0  0  0  0  0
  132.3480   73.7870  227.0160 C   0  0  0  0  0  0  0  0  0  0  0  0
  131.6600   74.9480  227.3000 C   0  0  0  0  0  0  0  0  0  0  0  0
  132.2170   76.1970  227.0080 C   0  0  0  0  0  0  0  0  0  0  0  0
  131.3600   77.6840  227.3610 Cl  0  0  0  0  0  0  0  0  0  0  0  0
  133.4720   76.2880  226.4300 C   0  0  0  0  0  0  0  0  0  0  0  0
  134.1670   75.1260  226.1430 C   0  0  0  0  0  0  0  0  0  0  0  0
  133.5920   73.9200  226.4420 C   0  0  0  0  0  0  0  0  0  0  0  0
  134.2740   72.8010  226.1590 N   0  0  0  0  0  0  0  0  0  0  0  0
  136.0590   71.5250  225.0180 H   0  0  0  0  0  0  0  0  0  0  0  0
  136.6385   68.6705  225.7338 H   0  0  0  0  0  0  0  0  0  0  0  0
  136.2838   68.9602  224.0139 H   0  0  0  0  0  0  0  0  0  0  0  0
  138.3091   67.2953  225.5010 H   0  0  0  0  0  0  0  0  0  0  0  0
  139.5150   67.3909  224.2106 H   0  0  0  0  0  0  0  0  0  0  0  0
  139.9351   66.7557  226.9866 H   0  0  0  0  0  0  0  0  0  0  0  0
  141.1834   66.9269  225.7374 H   0  0  0  0  0  0  0  0  0  0  0  0
  140.2342   68.9049  227.7940 H   0  0  0  0  0  0  0  0  0  0  0  0
  141.8282   68.7756  227.0675 H   0  0  0  0  0  0  0  0  0  0  0  0
  141.1292   69.9705  225.0770 H   0  0  0  0  0  0  0  0  0  0  0  0
  139.2028   71.2456  225.7907 H   0  0  0  0  0  0  0  0  0  0  0  0
  139.6184   71.9553  228.4788 H   0  0  0  0  0  0  0  0  0  0  0  0
  140.4773   70.6882  228.7615 H   0  0  0  0  0  0  0  0  0  0  0  0
  141.1868   73.0926  226.6960 H   0  0  0  0  0  0  0  0  0  0  0  0
  142.3155   72.0294  226.6671 H   0  0  0  0  0  0  0  0  0  0  0  0
  132.1587   70.4346  227.1980 H   0  0  0  0  0  0  0  0  0  0  0  0
  130.8190   72.4550  227.7592 H   0  0  0  0  0  0  0  0  0  0  0  0
  130.6629   74.8910  227.7610 H   0  0  0  0  0  0  0  0  0  0  0  0
  133.9107   77.2706  226.2020 H   0  0  0  0  0  0  0  0  0  0  0  0
  135.1649   75.1707  225.6823 H   0  0  0  0  0  0  0  0  0  0  0  0
  1  2  2  0
  2  3  1  0
  3  4  1  0
  4  5  1  0
  5  6  2  0
  5  7  1  0
  7  8  1  0
  8  9  1  0
  9 10  1  0
 10 11  1  0
 11 12  1  0
 12 13  1  0
 13 14  1  0
  2 15  1  0
 15 16  2  0
 16 17  1  0
 17 18  2  0
 18 19  1  0
 19 20  2  0
 20 21  1  0
 20 22  1  0
 22 23  2  0
 23 24  1  0
 24 25  2  0
 11  7  1  0
 14 12  1  0
 25 15  1  0
 24 18  1  0
  3 26  1  0
  4 27  1  0
  4 28  1  0
  8 29  1  0
  8 30  1  0
  9 31  1  0
  9 32  1  0
 10 33  1  0
 10 34  1  0
 11 35  1  6
 12 36  1  0
 13 37  1  0
 13 38  1  0
 14 39  1  0
 14 40  1  0
 16 41  1  0
 17 42  1  0
 19 43  1  0
 22 44  1  0
 23 45  1  0
M  END
>  <smiles>  (20) 
O=C(NCC(=O)N1CCCC1C1CC1)c1ccc2cc(Cl)ccc2n1

>  <score_type>  (20) 
oracle

>  <origin>  (20) 
autodockgpu

>  <m_score__min__energy>  (20) 
-8.1999999999999993

>  <m_primary>  (20) 
energy

>  <rmsd>  (20) 
8.922503286126036

>  <m_score__min__rmsd>  (20) 
8.922503286126036

>  <meeko>  (20) 
{"free_energy": -7.44, "intermolecular_energy": -8.93, "internal_energy": -1.82, "cluster_size": 20, "cluster_id": 1, "rank_in_cluster": 19}

>  <energy>  (20) 
-7.24

>  <cluster_rmsd>  (20) 
1.36

>  <cluster>  (20) 
1

$$$$

     RDKit          3D

 45 48  0  0  0  0  0  0  0  0999 V2000
  135.5760   69.4490  224.4090 O   0  0  0  0  0  0  0  0  0  0  0  0
  135.8750   70.6570  224.5980 C   0  0  0  0  0  0  0  0  0  0  0  0
  137.0900   71.2300  224.1720 N   0  0  0  0  0  0  0  0  0  0  0  0
  138.0960   70.4550  223.4750 C   0  0  0  0  0  0  0  0  0  0  0  0
  139.3830   70.6410  224.2080 C   0  0  0  0  0  0  0  0  0  0  0  0
  140.0940   71.6400  223.9250 O   0  0  0  0  0  0  0  0  0  0  0  0
  139.7660   69.6870  225.2040 N   0  0  0  0  0  0  0  0  0  0  0  0
  139.4760   68.2630  225.1800 C   0  0  0  0  0  0  0  0  0  0  0  0
  139.6390   67.7920  226.5970 C   0  0  0  0  0  0  0  0  0  0  0  0
  139.9640   69.0150  227.4180 C   0  0  0  0  0  0  0  0  0  0  0  0
  140.5120   69.9930  226.4070 C   0  0  2  0  0  0  0  0  0  0  0  0
  140.3140   71.4260  226.8360 C   0  0  0  0  0  0  0  0  0  0  0  0
  140.4460   71.8160  228.2590 C   0  0  0  0  0  0  0  0  0  0  0  0
  141.5050   72.2640  227.2530 C   0  0  0  0  0  0  0  0  0  0  0  0
  134.9080   71.5220  225.3020 C   0  0  0  0  0  0  0  0  0  0  0  0
  133.8490   70.9830  226.0150 C   0  0  0  0  0  0  0  0  0  0  0  0
  132.9450   71.7940  226.6720 C   0  0  0  0  0  0  0  0  0  0  0  0
  133.1280   73.1560  226.5980 C   0  0  0  0  0  0  0  0  0  0  0  0
  132.2680   74.0310  227.2280 C   0  0  0  0  0  0  0  0  0  0  0  0
  132.4670   75.4120  227.1440 C   0  0  0  0  0  0  0  0  0  0  0  0
  131.3870   76.5410  227.9370 Cl  0  0  0  0  0  0  0  0  0  0  0  0
  133.5340   75.9250  226.4260 C   0  0  0  0  0  0  0  0  0  0  0  0
  134.4010   75.0520  225.7910 C   0  0  0  0  0  0  0  0  0  0  0  0
  134.1760   73.7050  225.8940 C   0  0  0  0  0  0  0  0  0  0  0  0
  135.0210   72.8680  225.2760 N   0  0  0  0  0  0  0  0  0  0  0  0
  137.2640   72.2530  224.3710 H   0  0  0  0  0  0  0  0  0  0  0  0
  137.8156   69.3914  223.4698 H   0  0  0  0  0  0  0  0  0  0  0  0
  138.1901   70.7868  222.4305 H   0  0  0  0  0  0  0  0  0  0  0  0
  138.4471   68.0868  224.8330 H   0  0  0  0  0  0  0  0  0  0  0  0
  140.1447   67.7236  224.4930 H   0  0  0  0  0  0  0  0  0  0  0  0
  138.7064   67.3309  226.9542 H   0  0  0  0  0  0  0  0  0  0  0  0
  140.4337   67.0356  226.6767 H   0  0  0  0  0  0  0  0  0  0  0  0
  139.0597   69.4151  227.8998 H   0  0  0  0  0  0  0  0  0  0  0  0
  140.6723   68.8042  228.2328 H   0  0  0  0  0  0  0  0  0  0  0  0
  141.5996   69.8954  226.2741 H   0  0  0  0  0  0  0  0  0  0  0  0
  139.5183   71.5313  226.0838 H   0  0  0  0  0  0  0  0  0  0  0  0
  139.7541   72.5532  228.6925 H   0  0  0  0  0  0  0  0  0  0  0  0
  140.4654   71.2703  229.2139 H   0  0  0  0  0  0  0  0  0  0  0  0
  141.5729   73.3199  226.9522 H   0  0  0  0  0  0  0  0  0  0  0  0
  142.5982   72.1765  227.1684 H   0  0  0  0  0  0  0  0  0  0  0  0
  133.7265   69.8907  226.0583 H   0  0  0  0  0  0  0  0  0  0  0  0
  132.1045   71.3647  227.2371 H   0  0  0  0  0  0  0  0  0  0  0  0
  131.4164   73.6379  227.8027 H   0  0  0  0  0  0  0  0  0  0  0  0
  133.6908   77.0118  226.3609 H   0  0  0  0  0  0  0  0  0  0  0  0
  135.2559   75.4338  225.2137 H   0  0  0  0  0  0  0  0  0  0  0  0
  1  2  2  0
  2  3  1  0
  3  4  1  0
  4  5  1  0
  5  6  2  0
  5  7  1  0
  7  8  1  0
  8  9  1  0
  9 10  1  0
 10 11  1  0
 11 12  1  0
 12 13  1  0
 13 14  1  0
  2 15  1  0
 15 16  2  0
 16 17  1  0
 17 18  2  0
 18 19  1  0
 19 20  2  0
 20 21  1  0
 20 22  1  0
 22 23  2  0
 23 24  1  0
 24 25  2  0
 11  7  1  0
 14 12  1  0
 25 15  1  0
 24 18  1  0
  3 26  1  0
  4 27  1  0
  4 28  1  0
  8 29  1  0
  8 30  1  0
  9 31  1  0
  9 32  1  0
 10 33  1  0
 10 34  1  0
 11 35  1  6
 12 36  1  0
 13 37  1  0
 13 38  1  0
 14 39  1  0
 14 40  1  0
 16 41  1  0
 17 42  1  0
 19 43  1  0
 22 44  1  0
 23 45  1  0
M  END
>  <smiles>  (21) 
O=C(NCC(=O)N1CCCC1C1CC1)c1ccc2cc(Cl)ccc2n1

>  <score_type>  (21) 
oracle

>  <origin>  (21) 
autodockgpu

>  <m_score__min__energy>  (21) 
-8.1999999999999993

>  <m_primary>  (21) 
energy

>  <rmsd>  (21) 
8.274880777946677

>  <m_score__min__rmsd>  (21) 
8.274880777946677

>  <meeko>  (21) 
{"free_energy": -7.81, "intermolecular_energy": -9.3, "internal_energy": -1.54, "cluster_size": 20, "cluster_id": 1, "rank_in_cluster": 17}

>  <energy>  (21) 
-7.93

>  <cluster_rmsd>  (21) 
0.0

>  <cluster>  (21) 
2

$$$$

     RDKit          3D

 45 48  0  0  0  0  0  0  0  0999 V2000
  135.0120   68.4500  224.8660 O   0  0  0  0  0  0  0  0  0  0  0  0
  135.5110   69.6020  224.9530 C   0  0  0  0  0  0  0  0  0  0  0  0
  136.8040   69.9220  224.4950 N   0  0  0  0  0  0  0  0  0  0  0  0
  137.6640   68.9310  223.8810 C   0  0  0  0  0  0  0  0  0  0  0  0
  138.8110   68.7060  224.8100 C   0  0  0  0  0  0  0  0  0  0  0  0
  139.1990   67.5260  225.0080 O   0  0  0  0  0  0  0  0  0  0  0  0
  139.4310   69.8310  225.4420 N   0  0  0  0  0  0  0  0  0  0  0  0
  139.8910   71.0390  224.7770 C   0  0  0  0  0  0  0  0  0  0  0  0
  140.8640   71.6800  225.7250 C   0  0  0  0  0  0  0  0  0  0  0  0
  140.9770   70.7530  226.9100 C   0  0  0  0  0  0  0  0  0  0  0  0
  139.7020   69.9460  226.8600 C   0  0  2  0  0  0  0  0  0  0  0  0
  139.8590   68.5920  227.5070 C   0  0  0  0  0  0  0  0  0  0  0  0
  141.0760   67.7790  227.2780 C   0  0  0  0  0  0  0  0  0  0  0  0
  140.8360   68.4060  228.6500 C   0  0  0  0  0  0  0  0  0  0  0  0
  134.7050   70.6760  225.5670 C   0  0  0  0  0  0  0  0  0  0  0  0
  133.6830   70.3870  226.4560 C   0  0  0  0  0  0  0  0  0  0  0  0
  132.9300   71.3930  227.0290 C   0  0  0  0  0  0  0  0  0  0  0  0
  133.2260   72.6930  226.6890 C   0  0  0  0  0  0  0  0  0  0  0  0
  132.5190   73.7520  227.2190 C   0  0  0  0  0  0  0  0  0  0  0  0
  132.8320   75.0680  226.8640 C   0  0  0  0  0  0  0  0  0  0  0  0
  131.9460   76.4270  227.5260 Cl  0  0  0  0  0  0  0  0  0  0  0  0
  133.8590   75.3290  225.9730 C   0  0  0  0  0  0  0  0  0  0  0  0
  134.5720   74.2710  225.4380 C   0  0  0  0  0  0  0  0  0  0  0  0
  134.2390   72.9950  225.8070 C   0  0  0  0  0  0  0  0  0  0  0  0
  134.9360   71.9770  225.2830 N   0  0  0  0  0  0  0  0  0  0  0  0
  137.1490   70.9160  224.6070 H   0  0  0  0  0  0  0  0  0  0  0  0
  137.1104   67.9923  223.7313 H   0  0  0  0  0  0  0  0  0  0  0  0
  138.0188   69.2764  222.8987 H   0  0  0  0  0  0  0  0  0  0  0  0
  140.3883   70.7888  223.8282 H   0  0  0  0  0  0  0  0  0  0  0  0
  139.0556   71.7127  224.5359 H   0  0  0  0  0  0  0  0  0  0  0  0
  141.8444   71.7998  225.2407 H   0  0  0  0  0  0  0  0  0  0  0  0
  140.5226   72.6797  226.0316 H   0  0  0  0  0  0  0  0  0  0  0  0
  141.8575   70.1006  226.8144 H   0  0  0  0  0  0  0  0  0  0  0  0
  141.1019   71.2919  227.8608 H   0  0  0  0  0  0  0  0  0  0  0  0
  138.8818   70.4224  227.4171 H   0  0  0  0  0  0  0  0  0  0  0  0
  138.7820   68.4135  227.3718 H   0  0  0  0  0  0  0  0  0  0  0  0
  140.9922   66.6897  227.1502 H   0  0  0  0  0  0  0  0  0  0  0  0
  141.8983   67.8032  226.5478 H   0  0  0  0  0  0  0  0  0  0  0  0
  140.5699   67.7738  229.5099 H   0  0  0  0  0  0  0  0  0  0  0  0
  141.3987   69.0711  229.3216 H   0  0  0  0  0  0  0  0  0  0  0  0
  133.4675   69.3386  226.7099 H   0  0  0  0  0  0  0  0  0  0  0  0
  132.1189   71.1622  227.7352 H   0  0  0  0  0  0  0  0  0  0  0  0
  131.7005   73.5595  227.9282 H   0  0  0  0  0  0  0  0  0  0  0  0
  134.1049   76.3642  225.6941 H   0  0  0  0  0  0  0  0  0  0  0  0
  135.3926   74.4517  224.7281 H   0  0  0  0  0  0  0  0  0  0  0  0
  1  2  2  0
  2  3  1  0
  3  4  1  0
  4  5  1  0
  5  6  2  0
  5  7  1  0
  7  8  1  0
  8  9  1  0
  9 10  1  0
 10 11  1  0
 11 12  1  0
 12 13  1  0
 13 14  1  0
  2 15  1  0
 15 16  2  0
 16 17  1  0
 17 18  2  0
 18 19  1  0
 19 20  2  0
 20 21  1  0
 20 22  1  0
 22 23  2  0
 23 24  1  0
 24 25  2  0
 11  7  1  0
 14 12  1  0
 25 15  1  0
 24 18  1  0
  3 26  1  0
  4 27  1  0
  4 28  1  0
  8 29  1  0
  8 30  1  0
  9 31  1  0
  9 32  1  0
 10 33  1  0
 10 34  1  0
 11 35  1  1
 12 36  1  0
 13 37  1  0
 13 38  1  0
 14 39  1  0
 14 40  1  0
 16 41  1  0
 17 42  1  0
 19 43  1  0
 22 44  1  0
 23 45  1  0
M  END
>  <smiles>  (22) 
O=C(NCC(=O)N1CCCC1C1CC1)c1ccc2cc(Cl)ccc2n1

>  <score_type>  (22) 
oracle

>  <origin>  (22) 
autodockgpu

>  <m_score__min__energy>  (22) 
-8.1999999999999993

>  <m_primary>  (22) 
energy

>  <rmsd>  (22) 
7.93687441914356

>  <m_score__min__rmsd>  (22) 
7.93687441914356

>  <meeko>  (22) 
{"free_energy": -8.19, "intermolecular_energy": -9.68, "internal_energy": -1.38, "cluster_size": 20, "cluster_id": 1, "rank_in_cluster": 4}

>  <energy>  (22) 
-7.92

>  <cluster_rmsd>  (22) 
0.21

>  <cluster>  (22) 
2

$$$$

     RDKit          3D

 45 48  0  0  0  0  0  0  0  0999 V2000
  134.9540   68.4960  224.8410 O   0  0  0  0  0  0  0  0  0  0  0  0
  135.4730   69.6380  224.9320 C   0  0  0  0  0  0  0  0  0  0  0  0
  136.7720   69.9380  224.4750 N   0  0  0  0  0  0  0  0  0  0  0  0
  137.6150   68.9330  223.8580 C   0  0  0  0  0  0  0  0  0  0  0  0
  138.7800   68.7170  224.7660 C   0  0  0  0  0  0  0  0  0  0  0  0
  139.2010   67.5430  224.9320 O   0  0  0  0  0  0  0  0  0  0  0  0
  139.3800   69.8430  225.4160 N   0  0  0  0  0  0  0  0  0  0  0  0
  139.8270   71.0660  224.7690 C   0  0  0  0  0  0  0  0  0  0  0  0
  140.7840   71.7080  225.7320 C   0  0  0  0  0  0  0  0  0  0  0  0
  140.9020   70.7680  226.9060 C   0  0  0  0  0  0  0  0  0  0  0  0
  139.6390   69.9440  226.8370 C   0  0  2  0  0  0  0  0  0  0  0  0
  139.8110   68.5850  227.4700 C   0  0  0  0  0  0  0  0  0  0  0  0
  141.0420   67.7940  227.2430 C   0  0  0  0  0  0  0  0  0  0  0  0
  140.7780   68.4000  228.6210 C   0  0  0  0  0  0  0  0  0  0  0  0
  134.6850   70.7240  225.5490 C   0  0  0  0  0  0  0  0  0  0  0  0
  133.6570   70.4500  226.4350 C   0  0  0  0  0  0  0  0  0  0  0  0
  132.9210   71.4670  227.0110 C   0  0  0  0  0  0  0  0  0  0  0  0
  133.2410   72.7630  226.6770 C   0  0  0  0  0  0  0  0  0  0  0  0
  132.5530   73.8330  227.2100 C   0  0  0  0  0  0  0  0  0  0  0  0
  132.8900   75.1440  226.8610 C   0  0  0  0  0  0  0  0  0  0  0  0
  132.0290   76.5170  227.5280 Cl  0  0  0  0  0  0  0  0  0  0  0  0
  133.9230   75.3910  225.9740 C   0  0  0  0  0  0  0  0  0  0  0  0
  134.6180   74.3210  225.4350 C   0  0  0  0  0  0  0  0  0  0  0  0
  134.2620   73.0500  225.7990 C   0  0  0  0  0  0  0  0  0  0  0  0
  134.9400   72.0220  225.2710 N   0  0  0  0  0  0  0  0  0  0  0  0
  137.1340   70.9250  224.5900 H   0  0  0  0  0  0  0  0  0  0  0  0
  137.0543   67.9947  223.7345 H   0  0  0  0  0  0  0  0  0  0  0  0
  137.9505   69.2615  222.8633 H   0  0  0  0  0  0  0  0  0  0  0  0
  140.3342   70.8350  223.8206 H   0  0  0  0  0  0  0  0  0  0  0  0
  138.9838   71.7308  224.5301 H   0  0  0  0  0  0  0  0  0  0  0  0
  141.7659   71.8476  225.2563 H   0  0  0  0  0  0  0  0  0  0  0  0
  140.4261   72.6987  226.0489 H   0  0  0  0  0  0  0  0  0  0  0  0
  141.7922   70.1293  226.8085 H   0  0  0  0  0  0  0  0  0  0  0  0
  141.0128   71.2966  227.8643 H   0  0  0  0  0  0  0  0  0  0  0  0
  138.8075   70.4014  227.3932 H   0  0  0  0  0  0  0  0  0  0  0  0
  138.7383   68.3917  227.3219 H   0  0  0  0  0  0  0  0  0  0  0  0
  140.9763   66.7052  227.1005 H   0  0  0  0  0  0  0  0  0  0  0  0
  141.8712   67.8400  226.5217 H   0  0  0  0  0  0  0  0  0  0  0  0
  140.5126   67.7530  229.4701 H   0  0  0  0  0  0  0  0  0  0  0  0
  141.3231   69.0651  229.3070 H   0  0  0  0  0  0  0  0  0  0  0  0
  133.4224   69.4046  226.6844 H   0  0  0  0  0  0  0  0  0  0  0  0
  132.1045   71.2478  227.7148 H   0  0  0  0  0  0  0  0  0  0  0  0
  131.7301   73.6528  227.9174 H   0  0  0  0  0  0  0  0  0  0  0  0
  134.1886   76.4229  225.7007 H   0  0  0  0  0  0  0  0  0  0  0  0
  135.4422   74.4895  224.7263 H   0  0  0  0  0  0  0  0  0  0  0  0
  1  2  2  0
  2  3  1  0
  3  4  1  0
  4  5  1  0
  5  6  2  0
  5  7  1  0
  7  8  1  0
  8  9  1  0
  9 10  1  0
 10 11  1  0
 11 12  1  0
 12 13  1  0
 13 14  1  0
  2 15  1  0
 15 16  2  0
 16 17  1  0
 17 18  2  0
 18 19  1  0
 19 20  2  0
 20 21  1  0
 20 22  1  0
 22 23  2  0
 23 24  1  0
 24 25  2  0
 11  7  1  0
 14 12  1  0
 25 15  1  0
 24 18  1  0
  3 26  1  0
  4 27  1  0
  4 28  1  0
  8 29  1  0
  8 30  1  0
  9 31  1  0
  9 32  1  0
 10 33  1  0
 10 34  1  0
 11 35  1  1
 12 36  1  0
 13 37  1  0
 13 38  1  0
 14 39  1  0
 14 40  1  0
 16 41  1  0
 17 42  1  0
 19 43  1  0
 22 44  1  0
 23 45  1  0
M  END
>  <smiles>  (23) 
O=C(NCC(=O)N1CCCC1C1CC1)c1ccc2cc(Cl)ccc2n1

>  <score_type>  (23) 
oracle

>  <origin>  (23) 
autodockgpu

>  <m_score__min__energy>  (23) 
-8.1999999999999993

>  <m_primary>  (23) 
energy

>  <rmsd>  (23) 
7.932210255527466

>  <m_score__min__rmsd>  (23) 
7.932210255527466

>  <meeko>  (23) 
{"free_energy": -8.16, "intermolecular_energy": -9.65, "internal_energy": -1.4, "cluster_size": 20, "cluster_id": 1, "rank_in_cluster": 14}

>  <energy>  (23) 
-7.89

>  <cluster_rmsd>  (23) 
0.21

>  <cluster>  (23) 
2

$$$$

     RDKit          3D

 45 48  0  0  0  0  0  0  0  0999 V2000
  141.3630   72.1300  221.0610 O   0  0  0  0  0  0  0  0  0  0  0  0
  140.6520   72.7760  221.8730 C   0  0  0  0  0  0  0  0  0  0  0  0
  139.9120   72.1700  222.9080 N   0  0  0  0  0  0  0  0  0  0  0  0
  139.9180   70.7350  223.1120 C   0  0  0  0  0  0  0  0  0  0  0  0
  139.1220   70.4610  224.3440 C   0  0  0  0  0  0  0  0  0  0  0  0
  138.0010   71.0180  224.4700 O   0  0  0  0  0  0  0  0  0  0  0  0
  139.6530   69.5800  225.3390 N   0  0  0  0  0  0  0  0  0  0  0  0
  139.4130   68.1490  225.4290 C   0  0  0  0  0  0  0  0  0  0  0  0
  139.7560   67.7680  226.8410 C   0  0  0  0  0  0  0  0  0  0  0  0
  140.1320   69.0460  227.5480 C   0  0  0  0  0  0  0  0  0  0  0  0
  140.5220   69.9780  226.4260 C   0  0  2  0  0  0  0  0  0  0  0  0
  140.3250   71.4280  226.7950 C   0  0  0  0  0  0  0  0  0  0  0  0
  140.3880   71.8650  228.2090 C   0  0  0  0  0  0  0  0  0  0  0  0
  141.5050   72.2630  227.2460 C   0  0  0  0  0  0  0  0  0  0  0  0
  140.5850   74.2450  221.7400 C   0  0  0  0  0  0  0  0  0  0  0  0
  141.5410   74.9440  221.0210 C   0  0  0  0  0  0  0  0  0  0  0  0
  141.4770   76.3190  220.8970 C   0  0  0  0  0  0  0  0  0  0  0  0
  140.4340   76.9730  221.5110 C   0  0  0  0  0  0  0  0  0  0  0  0
  140.3020   78.3440  221.4330 C   0  0  0  0  0  0  0  0  0  0  0  0
  139.2360   78.9950  222.0620 C   0  0  0  0  0  0  0  0  0  0  0  0
  139.0500   80.7350  221.9750 Cl  0  0  0  0  0  0  0  0  0  0  0  0
  138.2940   78.2720  222.7740 C   0  0  0  0  0  0  0  0  0  0  0  0
  138.4210   76.8960  222.8560 C   0  0  0  0  0  0  0  0  0  0  0  0
  139.4770   76.2910  222.2280 C   0  0  0  0  0  0  0  0  0  0  0  0
  139.5910   74.9580  222.3140 N   0  0  0  0  0  0  0  0  0  0  0  0
  139.3380   72.7860  223.5480 H   0  0  0  0  0  0  0  0  0  0  0  0
  139.4614   70.2297  222.2482 H   0  0  0  0  0  0  0  0  0  0  0  0
  140.9465   70.3604  223.2204 H   0  0  0  0  0  0  0  0  0  0  0  0
  138.3577   67.9228  225.2162 H   0  0  0  0  0  0  0  0  0  0  0  0
  140.0163   67.5892  224.6992 H   0  0  0  0  0  0  0  0  0  0  0  0
  138.8877   67.3034  227.3312 H   0  0  0  0  0  0  0  0  0  0  0  0
  140.5802   67.0400  226.8684 H   0  0  0  0  0  0  0  0  0  0  0  0
  139.2772   69.4478  228.1118 H   0  0  0  0  0  0  0  0  0  0  0  0
  140.9386   68.9040  228.2824 H   0  0  0  0  0  0  0  0  0  0  0  0
  141.5894   69.9040  226.1706 H   0  0  0  0  0  0  0  0  0  0  0  0
  139.5721   71.5184  225.9982 H   0  0  0  0  0  0  0  0  0  0  0  0
  139.6860   72.6263  228.5800 H   0  0  0  0  0  0  0  0  0  0  0  0
  140.3486   71.3524  229.1815 H   0  0  0  0  0  0  0  0  0  0  0  0
  141.6052   73.3068  226.9137 H   0  0  0  0  0  0  0  0  0  0  0  0
  142.5997   72.1574  227.2225 H   0  0  0  0  0  0  0  0  0  0  0  0
  142.3647   74.3954  220.5408 H   0  0  0  0  0  0  0  0  0  0  0  0
  142.2361   76.8730  220.3254 H   0  0  0  0  0  0  0  0  0  0  0  0
  141.0428   78.9311  220.8703 H   0  0  0  0  0  0  0  0  0  0  0  0
  137.4554   78.7845  223.2682 H   0  0  0  0  0  0  0  0  0  0  0  0
  137.6863   76.2988  223.4160 H   0  0  0  0  0  0  0  0  0  0  0  0
  1  2  2  0
  2  3  1  0
  3  4  1  0
  4  5  1  0
  5  6  2  0
  5  7  1  0
  7  8  1  0
  8  9  1  0
  9 10  1  0
 10 11  1  0
 11 12  1  0
 12 13  1  0
 13 14  1  0
  2 15  1  0
 15 16  2  0
 16 17  1  0
 17 18  2  0
 18 19  1  0
 19 20  2  0
 20 21  1  0
 20 22  1  0
 22 23  2  0
 23 24  1  0
 24 25  2  0
 11  7  1  0
 14 12  1  0
 25 15  1  0
 24 18  1  0
  3 26  1  0
  4 27  1  0
  4 28  1  0
  8 29  1  0
  8 30  1  0
  9 31  1  0
  9 32  1  0
 10 33  1  0
 10 34  1  0
 11 35  1  6
 12 36  1  0
 13 37  1  0
 13 38  1  0
 14 39  1  0
 14 40  1  0
 16 41  1  0
 17 42  1  0
 19 43  1  0
 22 44  1  0
 23 45  1  0
M  END
>  <smiles>  (24) 
O=C(NCC(=O)N1CCCC1C1CC1)c1ccc2cc(Cl)ccc2n1

>  <score_type>  (24) 
oracle

>  <origin>  (24) 
autodockgpu

>  <m_score__min__energy>  (24) 
-8.1999999999999993

>  <m_primary>  (24) 
energy

>  <rmsd>  (24) 
8.64208188012625

>  <m_score__min__rmsd>  (24) 
8.64208188012625

>  <meeko>  (24) 
{"free_energy": -7.69, "intermolecular_energy": -9.18, "internal_energy": -1.72, "cluster_size": 10, "cluster_id": 2, "rank_in_cluster": 9}

>  <energy>  (24) 
-7.88

>  <cluster_rmsd>  (24) 
1.41

>  <cluster>  (24) 
2

$$$$

     RDKit          3D

 45 48  0  0  0  0  0  0  0  0999 V2000
  141.0690   72.4680  220.8040 O   0  0  0  0  0  0  0  0  0  0  0  0
  140.3650   72.7830  221.7980 C   0  0  0  0  0  0  0  0  0  0  0  0
  139.6930   74.0160  221.9100 N   0  0  0  0  0  0  0  0  0  0  0  0
  139.7670   75.0240  220.8710 C   0  0  0  0  0  0  0  0  0  0  0  0
  140.9330   75.9000  221.1890 C   0  0  0  0  0  0  0  0  0  0  0  0
  141.1420   76.2060  222.3910 O   0  0  0  0  0  0  0  0  0  0  0  0
  141.7720   76.3630  220.1260 N   0  0  0  0  0  0  0  0  0  0  0  0
  141.4090   77.3430  219.1150 C   0  0  0  0  0  0  0  0  0  0  0  0
  142.3840   77.1440  217.9880 C   0  0  0  0  0  0  0  0  0  0  0  0
  143.2570   75.9780  218.3820 C   0  0  0  0  0  0  0  0  0  0  0  0
  143.1310   75.9240  219.8850 C   0  0  2  0  0  0  0  0  0  0  0  0
  143.3710   74.5360  220.4270 C   0  0  0  0  0  0  0  0  0  0  0  0
  143.8010   73.4370  219.5310 C   0  0  0  0  0  0  0  0  0  0  0  0
  144.7840   74.0050  220.5540 C   0  0  0  0  0  0  0  0  0  0  0  0
  140.2340   71.8160  222.9060 C   0  0  0  0  0  0  0  0  0  0  0  0
  139.6250   70.5870  222.7160 C   0  0  0  0  0  0  0  0  0  0  0  0
  139.5020   69.6830  223.7540 C   0  0  0  0  0  0  0  0  0  0  0  0
  140.0040   70.0430  224.9840 C   0  0  0  0  0  0  0  0  0  0  0  0
  139.9200   69.1950  226.0690 C   0  0  0  0  0  0  0  0  0  0  0  0
  140.4350   69.5750  227.3120 C   0  0  0  0  0  0  0  0  0  0  0  0
  140.3390   68.5130  228.7020 Cl  0  0  0  0  0  0  0  0  0  0  0  0
  141.0400   70.8090  227.4740 C   0  0  0  0  0  0  0  0  0  0  0  0
  141.1270   71.6640  226.3890 C   0  0  0  0  0  0  0  0  0  0  0  0
  140.6130   71.2610  225.1860 C   0  0  0  0  0  0  0  0  0  0  0  0
  140.7020   72.0970  224.1420 N   0  0  0  0  0  0  0  0  0  0  0  0
  139.1210   74.2040  222.7800 H   0  0  0  0  0  0  0  0  0  0  0  0
  139.9112   74.5455  219.8911 H   0  0  0  0  0  0  0  0  0  0  0  0
  138.8375   75.6107  220.8289 H   0  0  0  0  0  0  0  0  0  0  0  0
  140.3798   77.1717  218.7667 H   0  0  0  0  0  0  0  0  0  0  0  0
  141.4490   78.3687  219.5105 H   0  0  0  0  0  0  0  0  0  0  0  0
  141.8465   76.9188  217.0550 H   0  0  0  0  0  0  0  0  0  0  0  0
  142.9829   78.0500  217.8137 H   0  0  0  0  0  0  0  0  0  0  0  0
  142.8947   75.0454  217.9248 H   0  0  0  0  0  0  0  0  0  0  0  0
  144.2982   76.0944  218.0468 H   0  0  0  0  0  0  0  0  0  0  0  0
  143.8806   76.5496  220.3917 H   0  0  0  0  0  0  0  0  0  0  0  0
  142.5299   74.6725  221.1227 H   0  0  0  0  0  0  0  0  0  0  0  0
  143.3906   72.4255  219.6670 H   0  0  0  0  0  0  0  0  0  0  0  0
  143.8166   73.2859  218.4415 H   0  0  0  0  0  0  0  0  0  0  0  0
  145.0763   73.4103  221.4320 H   0  0  0  0  0  0  0  0  0  0  0  0
  145.7945   74.4382  220.5193 H   0  0  0  0  0  0  0  0  0  0  0  0
  139.2325   70.3259  221.7221 H   0  0  0  0  0  0  0  0  0  0  0  0
  139.0183   68.7068  223.6021 H   0  0  0  0  0  0  0  0  0  0  0  0
  139.4432   68.2103  225.9550 H   0  0  0  0  0  0  0  0  0  0  0  0
  141.4463   71.1064  228.4520 H   0  0  0  0  0  0  0  0  0  0  0  0
  141.6014   72.6511  226.4918 H   0  0  0  0  0  0  0  0  0  0  0  0
  1  2  2  0
  2  3  1  0
  3  4  1  0
  4  5  1  0
  5  6  2  0
  5  7  1  0
  7  8  1  0
  8  9  1  0
  9 10  1  0
 10 11  1  0
 11 12  1  0
 12 13  1  0
 13 14  1  0
  2 15  1  0
 15 16  2  0
 16 17  1  0
 17 18  2  0
 18 19  1  0
 19 20  2  0
 20 21  1  0
 20 22  1  0
 22 23  2  0
 23 24  1  0
 24 25  2  0
 11  7  1  0
 14 12  1  0
 25 15  1  0
 24 18  1  0
  3 26  1  0
  4 27  1  0
  4 28  1  0
  8 29  1  0
  8 30  1  0
  9 31  1  0
  9 32  1  0
 10 33  1  0
 10 34  1  0
 11 35  1  1
 12 36  1  0
 13 37  1  0
 13 38  1  0
 14 39  1  0
 14 40  1  0
 16 41  1  0
 17 42  1  0
 19 43  1  0
 22 44  1  0
 23 45  1  0
M  END
>  <smiles>  (25) 
O=C(NCC(=O)N1CCCC1C1CC1)c1ccc2cc(Cl)ccc2n1

>  <score_type>  (25) 
oracle

>  <origin>  (25) 
autodockgpu

>  <m_score__min__energy>  (25) 
-8.1999999999999993

>  <m_primary>  (25) 
energy

>  <rmsd>  (25) 
2.180712681371772

>  <m_score__min__rmsd>  (25) 
2.180712681371772

>  <meeko>  (25) 
{"free_energy": -7.4, "intermolecular_energy": -8.89, "internal_energy": -1.5, "cluster_size": 20, "cluster_id": 3, "rank_in_cluster": 15}

>  <energy>  (25) 
-7.82

>  <cluster_rmsd>  (25) 
0.28

>  <cluster>  (25) 
2

$$$$

     RDKit          3D

 45 48  0  0  0  0  0  0  0  0999 V2000
  135.0170   68.4740  224.8400 O   0  0  0  0  0  0  0  0  0  0  0  0
  135.5180   69.6230  224.9460 C   0  0  0  0  0  0  0  0  0  0  0  0
  136.8150   69.9460  224.5010 N   0  0  0  0  0  0  0  0  0  0  0  0
  137.6780   68.9610  223.8810 C   0  0  0  0  0  0  0  0  0  0  0  0
  138.8170   68.7220  224.8150 C   0  0  0  0  0  0  0  0  0  0  0  0
  139.2040   67.5380  224.9980 O   0  0  0  0  0  0  0  0  0  0  0  0
  139.4320   69.8360  225.4700 N   0  0  0  0  0  0  0  0  0  0  0  0
  139.8940   71.0560  224.8290 C   0  0  0  0  0  0  0  0  0  0  0  0
  140.8600   71.6820  225.7940 C   0  0  0  0  0  0  0  0  0  0  0  0
  140.9670   70.7340  226.9630 C   0  0  0  0  0  0  0  0  0  0  0  0
  139.6940   69.9260  226.8910 C   0  0  2  0  0  0  0  0  0  0  0  0
  139.8500   68.5610  227.5170 C   0  0  0  0  0  0  0  0  0  0  0  0
  141.0750   67.7610  227.2920 C   0  0  0  0  0  0  0  0  0  0  0  0
  140.8080   68.3610  228.6720 C   0  0  0  0  0  0  0  0  0  0  0  0
  134.7100   70.6910  225.5670 C   0  0  0  0  0  0  0  0  0  0  0  0
  133.6760   70.3930  226.4400 C   0  0  0  0  0  0  0  0  0  0  0  0
  132.9210   71.3940  227.0200 C   0  0  0  0  0  0  0  0  0  0  0  0
  133.2270   72.6980  226.7040 C   0  0  0  0  0  0  0  0  0  0  0  0
  132.5190   73.7510  227.2430 C   0  0  0  0  0  0  0  0  0  0  0  0
  132.8420   75.0710  226.9130 C   0  0  0  0  0  0  0  0  0  0  0  0
  131.9560   76.4240  227.5860 Cl  0  0  0  0  0  0  0  0  0  0  0  0
  133.8810   75.3420  226.0390 C   0  0  0  0  0  0  0  0  0  0  0  0
  134.5960   74.2880  225.4950 C   0  0  0  0  0  0  0  0  0  0  0  0
  134.2530   73.0080  225.8400 C   0  0  0  0  0  0  0  0  0  0  0  0
  134.9500   71.9950  225.3070 N   0  0  0  0  0  0  0  0  0  0  0  0
  137.1620   70.9380  224.6280 H   0  0  0  0  0  0  0  0  0  0  0  0
  137.1238   68.0254  223.7153 H   0  0  0  0  0  0  0  0  0  0  0  0
  138.0409   69.3183  222.9060 H   0  0  0  0  0  0  0  0  0  0  0  0
  140.3975   70.8231  223.8791 H   0  0  0  0  0  0  0  0  0  0  0  0
  139.0589   71.7325  224.5944 H   0  0  0  0  0  0  0  0  0  0  0  0
  141.8432   71.8119  225.3181 H   0  0  0  0  0  0  0  0  0  0  0  0
  140.5152   72.6757  226.1160 H   0  0  0  0  0  0  0  0  0  0  0  0
  141.8492   70.0848  226.8613 H   0  0  0  0  0  0  0  0  0  0  0  0
  141.0849   71.2562  227.9240 H   0  0  0  0  0  0  0  0  0  0  0  0
  138.8687   70.3905  227.4506 H   0  0  0  0  0  0  0  0  0  0  0  0
  138.7765   68.3778  227.3617 H   0  0  0  0  0  0  0  0  0  0  0  0
  141.0008   66.6737  227.1425 H   0  0  0  0  0  0  0  0  0  0  0  0
  141.9087   67.8042  226.5757 H   0  0  0  0  0  0  0  0  0  0  0  0
  140.5321   67.7112  229.5156 H   0  0  0  0  0  0  0  0  0  0  0  0
  141.3546   69.0173  229.3652 H   0  0  0  0  0  0  0  0  0  0  0  0
  133.4526   69.3419  226.6751 H   0  0  0  0  0  0  0  0  0  0  0  0
  132.1006   71.1561  227.7130 H   0  0  0  0  0  0  0  0  0  0  0  0
  131.6916   73.5509  227.9397 H   0  0  0  0  0  0  0  0  0  0  0  0
  134.1352   76.3805  225.7802 H   0  0  0  0  0  0  0  0  0  0  0  0
  135.4255   74.4760  224.7975 H   0  0  0  0  0  0  0  0  0  0  0  0
  1  2  2  0
  2  3  1  0
  3  4  1  0
  4  5  1  0
  5  6  2  0
  5  7  1  0
  7  8  1  0
  8  9  1  0
  9 10  1  0
 10 11  1  0
 11 12  1  0
 12 13  1  0
 13 14  1  0
  2 15  1  0
 15 16  2  0
 16 17  1  0
 17 18  2  0
 18 19  1  0
 19 20  2  0
 20 21  1  0
 20 22  1  0
 22 23  2  0
 23 24  1  0
 24 25  2  0
 11  7  1  0
 14 12  1  0
 25 15  1  0
 24 18  1  0
  3 26  1  0
  4 27  1  0
  4 28  1  0
  8 29  1  0
  8 30  1  0
  9 31  1  0
  9 32  1  0
 10 33  1  0
 10 34  1  0
 11 35  1  1
 12 36  1  0
 13 37  1  0
 13 38  1  0
 14 39  1  0
 14 40  1  0
 16 41  1  0
 17 42  1  0
 19 43  1  0
 22 44  1  0
 23 45  1  0
M  END
>  <smiles>  (26) 
O=C(NCC(=O)N1CCCC1C1CC1)c1ccc2cc(Cl)ccc2n1

>  <score_type>  (26) 
oracle

>  <origin>  (26) 
autodockgpu

>  <m_score__min__energy>  (26) 
-8.1999999999999993

>  <m_primary>  (26) 
energy

>  <rmsd>  (26) 
7.946861046989069

>  <m_score__min__rmsd>  (26) 
7.946861046989069

>  <meeko>  (26) 
{"free_energy": -8.19, "intermolecular_energy": -9.68, "internal_energy": -1.39, "cluster_size": 20, "cluster_id": 1, "rank_in_cluster": 5}

>  <energy>  (26) 
-7.79

>  <cluster_rmsd>  (26) 
0.61

>  <cluster>  (26) 
2

$$$$

     RDKit          3D

 45 48  0  0  0  0  0  0  0  0999 V2000
  139.8390   72.6210  220.5150 O   0  0  0  0  0  0  0  0  0  0  0  0
  139.7600   73.0000  221.7120 C   0  0  0  0  0  0  0  0  0  0  0  0
  139.6310   74.3520  222.0890 N   0  0  0  0  0  0  0  0  0  0  0  0
  139.5800   75.4170  221.1070 C   0  0  0  0  0  0  0  0  0  0  0  0
  140.4820   76.5050  221.5890 C   0  0  0  0  0  0  0  0  0  0  0  0
  140.9490   76.4240  222.7540 O   0  0  0  0  0  0  0  0  0  0  0  0
  140.7850   77.5990  220.7180 N   0  0  0  0  0  0  0  0  0  0  0  0
  141.2090   77.4960  219.3310 C   0  0  0  0  0  0  0  0  0  0  0  0
  141.8500   78.8150  219.0030 C   0  0  0  0  0  0  0  0  0  0  0  0
  141.8270   79.6270  220.2740 C   0  0  0  0  0  0  0  0  0  0  0  0
  140.7190   78.9990  221.0840 C   0  0  2  0  0  0  0  0  0  0  0  0
  140.9150   79.1960  222.5670 C   0  0  0  0  0  0  0  0  0  0  0  0
  142.2700   79.3850  223.1330 C   0  0  0  0  0  0  0  0  0  0  0  0
  141.2930   80.5600  223.1070 C   0  0  0  0  0  0  0  0  0  0  0  0
  139.8050   71.9830  222.7810 C   0  0  0  0  0  0  0  0  0  0  0  0
  139.3130   70.7040  222.5750 C   0  0  0  0  0  0  0  0  0  0  0  0
  139.3550   69.7530  223.5750 C   0  0  0  0  0  0  0  0  0  0  0  0
  139.9020   70.1150  224.7850 C   0  0  0  0  0  0  0  0  0  0  0  0
  139.9800   69.2210  225.8330 C   0  0  0  0  0  0  0  0  0  0  0  0
  140.5390   69.6030  227.0560 C   0  0  0  0  0  0  0  0  0  0  0  0
  140.6480   68.4840  228.4000 Cl  0  0  0  0  0  0  0  0  0  0  0  0
  141.0250   70.8870  227.2360 C   0  0  0  0  0  0  0  0  0  0  0  0
  140.9490   71.7890  226.1880 C   0  0  0  0  0  0  0  0  0  0  0  0
  140.3960   71.3810  225.0030 C   0  0  0  0  0  0  0  0  0  0  0  0
  140.3270   72.2620  223.9950 N   0  0  0  0  0  0  0  0  0  0  0  0
  139.5720   74.5880  223.1180 H   0  0  0  0  0  0  0  0  0  0  0  0
  139.9250   75.0462  220.1305 H   0  0  0  0  0  0  0  0  0  0  0  0
  138.5514   75.7874  220.9855 H   0  0  0  0  0  0  0  0  0  0  0  0
  141.9336   76.6771  219.2112 H   0  0  0  0  0  0  0  0  0  0  0  0
  140.3628   77.2784  218.6627 H   0  0  0  0  0  0  0  0  0  0  0  0
  142.8865   78.6615  218.6682 H   0  0  0  0  0  0  0  0  0  0  0  0
  141.3133   79.3286  218.1917 H   0  0  0  0  0  0  0  0  0  0  0  0
  142.7887   79.5538  220.8030 H   0  0  0  0  0  0  0  0  0  0  0  0
  141.6638   80.6992  220.0903 H   0  0  0  0  0  0  0  0  0  0  0  0
  139.7384   79.4516  220.8753 H   0  0  0  0  0  0  0  0  0  0  0  0
  140.0969   78.4865  222.7600 H   0  0  0  0  0  0  0  0  0  0  0  0
  142.5355   78.9131  224.0905 H   0  0  0  0  0  0  0  0  0  0  0  0
  143.2936   79.2196  222.7657 H   0  0  0  0  0  0  0  0  0  0  0  0
  140.8456   80.9304  224.0412 H   0  0  0  0  0  0  0  0  0  0  0  0
  141.3061   81.5873  222.7139 H   0  0  0  0  0  0  0  0  0  0  0  0
  138.8815   70.4419  221.5977 H   0  0  0  0  0  0  0  0  0  0  0  0
  138.9637   68.7383  223.4099 H   0  0  0  0  0  0  0  0  0  0  0  0
  139.5984   68.1973  225.7049 H   0  0  0  0  0  0  0  0  0  0  0  0
  141.4655   71.1865  228.1984 H   0  0  0  0  0  0  0  0  0  0  0  0
  141.3263   72.8156  226.3051 H   0  0  0  0  0  0  0  0  0  0  0  0
  1  2  2  0
  2  3  1  0
  3  4  1  0
  4  5  1  0
  5  6  2  0
  5  7  1  0
  7  8  1  0
  8  9  1  0
  9 10  1  0
 10 11  1  0
 11 12  1  0
 12 13  1  0
 13 14  1  0
  2 15  1  0
 15 16  2  0
 16 17  1  0
 17 18  2  0
 18 19  1  0
 19 20  2  0
 20 21  1  0
 20 22  1  0
 22 23  2  0
 23 24  1  0
 24 25  2  0
 11  7  1  0
 14 12  1  0
 25 15  1  0
 24 18  1  0
  3 26  1  0
  4 27  1  0
  4 28  1  0
  8 29  1  0
  8 30  1  0
  9 31  1  0
  9 32  1  0
 10 33  1  0
 10 34  1  0
 11 35  1  6
 12 36  1  0
 13 37  1  0
 13 38  1  0
 14 39  1  0
 14 40  1  0
 16 41  1  0
 17 42  1  0
 19 43  1  0
 22 44  1  0
 23 45  1  0
M  END
>  <smiles>  (27) 
O=C(NCC(=O)N1CCCC1C1CC1)c1ccc2cc(Cl)ccc2n1

>  <score_type>  (27) 
oracle

>  <origin>  (27) 
autodockgpu

>  <m_score__min__energy>  (27) 
-8.1999999999999993

>  <m_primary>  (27) 
energy

>  <rmsd>  (27) 
2.3767228828565155

>  <m_score__min__rmsd>  (27) 
2.3767228828565155

>  <meeko>  (27) 
{"free_energy": -7.64, "intermolecular_energy": -9.13, "internal_energy": -1.59, "cluster_size": 20, "cluster_id": 3, "rank_in_cluster": 7}

>  <energy>  (27) 
-7.77

>  <cluster_rmsd>  (27) 
0.64

>  <cluster>  (27) 
2

$$$$

     RDKit          3D

 45 48  0  0  0  0  0  0  0  0999 V2000
  139.9850   71.9980  220.5420 O   0  0  0  0  0  0  0  0  0  0  0  0
  139.8480   72.4650  221.7020 C   0  0  0  0  0  0  0  0  0  0  0  0
  139.6790   73.8390  221.9680 N   0  0  0  0  0  0  0  0  0  0  0  0
  139.6530   74.8240  220.9060 C   0  0  0  0  0  0  0  0  0  0  0  0
  139.7030   76.1700  221.5520 C   0  0  0  0  0  0  0  0  0  0  0  0
  139.2720   76.2860  222.7280 O   0  0  0  0  0  0  0  0  0  0  0  0
  140.2360   77.2780  220.8200 N   0  0  0  0  0  0  0  0  0  0  0  0
  140.4290   77.3390  219.3800 C   0  0  0  0  0  0  0  0  0  0  0  0
  141.4190   78.4450  219.1500 C   0  0  0  0  0  0  0  0  0  0  0  0
  141.8160   78.9520  220.5140 C   0  0  0  0  0  0  0  0  0  0  0  0
  140.6720   78.5290  221.4030 C   0  0  2  0  0  0  0  0  0  0  0  0
  141.1030   78.3540  222.8400 C   0  0  0  0  0  0  0  0  0  0  0  0
  142.2210   79.1480  223.3970 C   0  0  0  0  0  0  0  0  0  0  0  0
  140.7920   79.4280  223.8610 C   0  0  0  0  0  0  0  0  0  0  0  0
  139.8630   71.5320  222.8460 C   0  0  0  0  0  0  0  0  0  0  0  0
  139.3300   70.2580  222.7400 C   0  0  0  0  0  0  0  0  0  0  0  0
  139.3450   69.3860  223.8110 C   0  0  0  0  0  0  0  0  0  0  0  0
  139.9060   69.8230  224.9900 C   0  0  0  0  0  0  0  0  0  0  0  0
  139.9590   69.0120  226.1030 C   0  0  0  0  0  0  0  0  0  0  0  0
  140.5330   69.4700  227.2930 C   0  0  0  0  0  0  0  0  0  0  0  0
  140.6100   68.4550  228.7200 Cl  0  0  0  0  0  0  0  0  0  0  0  0
  141.0590   70.7480  227.3730 C   0  0  0  0  0  0  0  0  0  0  0  0
  141.0100   71.5670  226.2580 C   0  0  0  0  0  0  0  0  0  0  0  0
  140.4410   71.0870  225.1080 C   0  0  0  0  0  0  0  0  0  0  0  0
  140.3970   71.8880  224.0350 N   0  0  0  0  0  0  0  0  0  0  0  0
  139.5710   74.1500  222.9730 H   0  0  0  0  0  0  0  0  0  0  0  0
  140.5228   74.6900  220.2460 H   0  0  0  0  0  0  0  0  0  0  0  0
  138.7442   74.7169  220.2957 H   0  0  0  0  0  0  0  0  0  0  0  0
  140.8265   76.3842  219.0054 H   0  0  0  0  0  0  0  0  0  0  0  0
  139.4827   77.5241  218.8507 H   0  0  0  0  0  0  0  0  0  0  0  0
  142.3005   78.0614  218.6154 H   0  0  0  0  0  0  0  0  0  0  0  0
  140.9841   79.2483  218.5371 H   0  0  0  0  0  0  0  0  0  0  0  0
  142.7592   78.4919  220.8437 H   0  0  0  0  0  0  0  0  0  0  0  0
  141.9879   80.0384  220.5303 H   0  0  0  0  0  0  0  0  0  0  0  0
  139.8724   79.2831  221.4465 H   0  0  0  0  0  0  0  0  0  0  0  0
  140.8937   77.2770  222.7615 H   0  0  0  0  0  0  0  0  0  0  0  0
  142.9391   78.6775  224.0847 H   0  0  0  0  0  0  0  0  0  0  0  0
  143.0297   79.7567  222.9664 H   0  0  0  0  0  0  0  0  0  0  0  0
  140.4745   79.1521  224.8774 H   0  0  0  0  0  0  0  0  0  0  0  0
  140.1353   80.3095  223.9025 H   0  0  0  0  0  0  0  0  0  0  0  0
  138.8871   69.9351  221.7863 H   0  0  0  0  0  0  0  0  0  0  0  0
  138.9221   68.3742  223.7248 H   0  0  0  0  0  0  0  0  0  0  0  0
  139.5455   67.9938  226.0547 H   0  0  0  0  0  0  0  0  0  0  0  0
  141.5097   71.1078  228.3097 H   0  0  0  0  0  0  0  0  0  0  0  0
  141.4212   72.5866  226.2948 H   0  0  0  0  0  0  0  0  0  0  0  0
  1  2  2  0
  2  3  1  0
  3  4  1  0
  4  5  1  0
  5  6  2  0
  5  7  1  0
  7  8  1  0
  8  9  1  0
  9 10  1  0
 10 11  1  0
 11 12  1  0
 12 13  1  0
 13 14  1  0
  2 15  1  0
 15 16  2  0
 16 17  1  0
 17 18  2  0
 18 19  1  0
 19 20  2  0
 20 21  1  0
 20 22  1  0
 22 23  2  0
 23 24  1  0
 24 25  2  0
 11  7  1  0
 14 12  1  0
 25 15  1  0
 24 18  1  0
  3 26  1  0
  4 27  1  0
  4 28  1  0
  8 29  1  0
  8 30  1  0
  9 31  1  0
  9 32  1  0
 10 33  1  0
 10 34  1  0
 11 35  1  1
 12 36  1  0
 13 37  1  0
 13 38  1  0
 14 39  1  0
 14 40  1  0
 16 41  1  0
 17 42  1  0
 19 43  1  0
 22 44  1  0
 23 45  1  0
M  END
>  <smiles>  (28) 
O=C(NCC(=O)N1CCCC1C1CC1)c1ccc2cc(Cl)ccc2n1

>  <score_type>  (28) 
oracle

>  <origin>  (28) 
autodockgpu

>  <m_score__min__energy>  (28) 
-8.1999999999999993

>  <m_primary>  (28) 
energy

>  <rmsd>  (28) 
2.068353955235684

>  <m_score__min__rmsd>  (28) 
2.068353955235684

>  <meeko>  (28) 
{"free_energy": -7.52, "intermolecular_energy": -9.01, "internal_energy": -1.67, "cluster_size": 20, "cluster_id": 3, "rank_in_cluster": 10}

>  <energy>  (28) 
-7.71

>  <cluster_rmsd>  (28) 
0.91

>  <cluster>  (28) 
2

$$$$

     RDKit          3D

 45 48  0  0  0  0  0  0  0  0999 V2000
  141.6360   71.9170  221.1420 O   0  0  0  0  0  0  0  0  0  0  0  0
  140.8650   72.6370  221.8270 C   0  0  0  0  0  0  0  0  0  0  0  0
  139.9820   72.1210  222.7970 N   0  0  0  0  0  0  0  0  0  0  0  0
  139.9000   70.7010  223.0760 C   0  0  0  0  0  0  0  0  0  0  0  0
  139.1800   70.5480  224.3750 C   0  0  0  0  0  0  0  0  0  0  0  0
  138.1400   71.2310  224.5670 O   0  0  0  0  0  0  0  0  0  0  0  0
  139.6880   69.6370  225.3550 N   0  0  0  0  0  0  0  0  0  0  0  0
  139.4520   68.2030  225.3920 C   0  0  0  0  0  0  0  0  0  0  0  0
  139.7600   67.7780  226.7990 C   0  0  0  0  0  0  0  0  0  0  0  0
  140.1110   69.0340  227.5570 C   0  0  0  0  0  0  0  0  0  0  0  0
  140.5270   70.0030  226.4770 C   0  0  2  0  0  0  0  0  0  0  0  0
  140.3130   71.4390  226.8870 C   0  0  0  0  0  0  0  0  0  0  0  0
  140.5260   71.8660  228.2890 C   0  0  0  0  0  0  0  0  0  0  0  0
  141.5010   72.3220  227.2040 C   0  0  0  0  0  0  0  0  0  0  0  0
  140.8810   74.0960  221.6080 C   0  0  0  0  0  0  0  0  0  0  0  0
  141.8170   74.6870  220.7750 C   0  0  0  0  0  0  0  0  0  0  0  0
  141.8300   76.0530  220.5720 C   0  0  0  0  0  0  0  0  0  0  0  0
  140.8830   76.8110  221.2220 C   0  0  0  0  0  0  0  0  0  0  0  0
  140.8320   78.1810  221.0690 C   0  0  0  0  0  0  0  0  0  0  0  0
  139.8640   78.9370  221.7370 C   0  0  0  0  0  0  0  0  0  0  0  0
  139.7810   80.6780  221.5560 Cl  0  0  0  0  0  0  0  0  0  0  0  0
  138.9390   78.3220  222.5620 C   0  0  0  0  0  0  0  0  0  0  0  0
  138.9850   76.9470  222.7190 C   0  0  0  0  0  0  0  0  0  0  0  0
  139.9460   76.2370  222.0510 C   0  0  0  0  0  0  0  0  0  0  0  0
  139.9830   74.9070  222.2110 N   0  0  0  0  0  0  0  0  0  0  0  0
  139.3660   72.7940  223.3300 H   0  0  0  0  0  0  0  0  0  0  0  0
  139.3450   70.1908  222.2749 H   0  0  0  0  0  0  0  0  0  0  0  0
  140.9040   70.2548  223.1307 H   0  0  0  0  0  0  0  0  0  0  0  0
  138.4036   67.9801  225.1446 H   0  0  0  0  0  0  0  0  0  0  0  0
  140.0762   67.6693  224.6602 H   0  0  0  0  0  0  0  0  0  0  0  0
  138.8817   67.2940  227.2509 H   0  0  0  0  0  0  0  0  0  0  0  0
  140.5870   67.0531  226.8243 H   0  0  0  0  0  0  0  0  0  0  0  0
  139.2394   69.4143  228.1100 H   0  0  0  0  0  0  0  0  0  0  0  0
  140.8979   68.8712  228.3081 H   0  0  0  0  0  0  0  0  0  0  0  0
  141.6012   69.9414  226.2481 H   0  0  0  0  0  0  0  0  0  0  0  0
  139.4664   71.5025  226.1876 H   0  0  0  0  0  0  0  0  0  0  0  0
  139.8412   72.5918  228.7519 H   0  0  0  0  0  0  0  0  0  0  0  0
  140.6261   71.3440  229.2521 H   0  0  0  0  0  0  0  0  0  0  0  0
  141.5149   73.3720  226.8763 H   0  0  0  0  0  0  0  0  0  0  0  0
  142.5884   72.2658  227.0477 H   0  0  0  0  0  0  0  0  0  0  0  0
  142.5624   74.0577  220.2667 H   0  0  0  0  0  0  0  0  0  0  0  0
  142.5745   76.5208  219.9110 H   0  0  0  0  0  0  0  0  0  0  0  0
  141.5600   78.6835  220.4151 H   0  0  0  0  0  0  0  0  0  0  0  0
  138.1771   78.9175  223.0863 H   0  0  0  0  0  0  0  0  0  0  0  0
  138.2615   76.4339  223.3696 H   0  0  0  0  0  0  0  0  0  0  0  0
  1  2  2  0
  2  3  1  0
  3  4  1  0
  4  5  1  0
  5  6  2  0
  5  7  1  0
  7  8  1  0
  8  9  1  0
  9 10  1  0
 10 11  1  0
 11 12  1  0
 12 13  1  0
 13 14  1  0
  2 15  1  0
 15 16  2  0
 16 17  1  0
 17 18  2  0
 18 19  1  0
 19 20  2  0
 20 21  1  0
 20 22  1  0
 22 23  2  0
 23 24  1  0
 24 25  2  0
 11  7  1  0
 14 12  1  0
 25 15  1  0
 24 18  1  0
  3 26  1  0
  4 27  1  0
  4 28  1  0
  8 29  1  0
  8 30  1  0
  9 31  1  0
  9 32  1  0
 10 33  1  0
 10 34  1  0
 11 35  1  6
 12 36  1  0
 13 37  1  0
 13 38  1  0
 14 39  1  0
 14 40  1  0
 16 41  1  0
 17 42  1  0
 19 43  1  0
 22 44  1  0
 23 45  1  0
M  END
>  <smiles>  (29) 
O=C(NCC(=O)N1CCCC1C1CC1)c1ccc2cc(Cl)ccc2n1

>  <score_type>  (29) 
oracle

>  <origin>  (29) 
autodockgpu

>  <m_score__min__energy>  (29) 
-8.1999999999999993

>  <m_primary>  (29) 
energy

>  <rmsd>  (29) 
8.635844296847837

>  <m_score__min__rmsd>  (29) 
8.635844296847837

>  <meeko>  (29) 
{"free_energy": -7.77, "intermolecular_energy": -9.27, "internal_energy": -1.82, "cluster_size": 10, "cluster_id": 2, "rank_in_cluster": 7}

>  <energy>  (29) 
-7.69

>  <cluster_rmsd>  (29) 
0.9

>  <cluster>  (29) 
2

$$$$

     RDKit          3D

 45 48  0  0  0  0  0  0  0  0999 V2000
  134.9500   68.4950  224.8990 O   0  0  0  0  0  0  0  0  0  0  0  0
  135.4800   69.6330  224.9800 C   0  0  0  0  0  0  0  0  0  0  0  0
  136.7760   69.9190  224.5070 N   0  0  0  0  0  0  0  0  0  0  0  0
  137.6030   68.9050  223.8850 C   0  0  0  0  0  0  0  0  0  0  0  0
  138.7830   68.6910  224.7750 C   0  0  0  0  0  0  0  0  0  0  0  0
  139.2120   67.5190  224.9300 O   0  0  0  0  0  0  0  0  0  0  0  0
  139.3870   69.8170  225.4200 N   0  0  0  0  0  0  0  0  0  0  0  0
  139.8340   71.0370  224.7690 C   0  0  0  0  0  0  0  0  0  0  0  0
  140.7960   71.6800  225.7280 C   0  0  0  0  0  0  0  0  0  0  0  0
  140.9150   70.7430  226.9040 C   0  0  0  0  0  0  0  0  0  0  0  0
  139.6510   69.9210  226.8400 C   0  0  2  0  0  0  0  0  0  0  0  0
  139.8220   68.5620  227.4750 C   0  0  0  0  0  0  0  0  0  0  0  0
  141.0590   67.7770  227.2620 C   0  0  0  0  0  0  0  0  0  0  0  0
  140.7780   68.3830  228.6360 C   0  0  0  0  0  0  0  0  0  0  0  0
  134.7090   70.7280  225.6010 C   0  0  0  0  0  0  0  0  0  0  0  0
  133.6930   70.4670  226.5060 C   0  0  0  0  0  0  0  0  0  0  0  0
  132.9730   71.4930  227.0860 C   0  0  0  0  0  0  0  0  0  0  0  0
  133.2950   72.7840  226.7370 C   0  0  0  0  0  0  0  0  0  0  0  0
  132.6220   73.8620  227.2730 C   0  0  0  0  0  0  0  0  0  0  0  0
  132.9610   75.1680  226.9090 C   0  0  0  0  0  0  0  0  0  0  0  0
  132.1190   76.5510  227.5780 Cl  0  0  0  0  0  0  0  0  0  0  0  0
  133.9810   75.4020  226.0030 C   0  0  0  0  0  0  0  0  0  0  0  0
  134.6610   74.3250  225.4610 C   0  0  0  0  0  0  0  0  0  0  0  0
  134.3030   73.0580  225.8400 C   0  0  0  0  0  0  0  0  0  0  0  0
  134.9670   72.0220  225.3090 N   0  0  0  0  0  0  0  0  0  0  0  0
  137.1480   70.9030  224.6140 H   0  0  0  0  0  0  0  0  0  0  0  0
  137.0357   67.9685  223.7795 H   0  0  0  0  0  0  0  0  0  0  0  0
  137.9230   69.2232  222.8818 H   0  0  0  0  0  0  0  0  0  0  0  0
  140.3377   70.8028  223.8196 H   0  0  0  0  0  0  0  0  0  0  0  0
  138.9913   71.7028  224.5313 H   0  0  0  0  0  0  0  0  0  0  0  0
  141.7769   71.8160  225.2491 H   0  0  0  0  0  0  0  0  0  0  0  0
  140.4416   72.6725  226.0431 H   0  0  0  0  0  0  0  0  0  0  0  0
  141.8040   70.1026  226.8062 H   0  0  0  0  0  0  0  0  0  0  0  0
  141.0287   71.2740  227.8606 H   0  0  0  0  0  0  0  0  0  0  0  0
  138.8225   70.3816  227.3980 H   0  0  0  0  0  0  0  0  0  0  0  0
  138.7520   68.3630  227.3153 H   0  0  0  0  0  0  0  0  0  0  0  0
  141.0002   66.6878  227.1202 H   0  0  0  0  0  0  0  0  0  0  0  0
  141.8954   67.8264  226.5493 H   0  0  0  0  0  0  0  0  0  0  0  0
  140.5071   67.7356  229.4830 H   0  0  0  0  0  0  0  0  0  0  0  0
  141.3128   69.0515  229.3268 H   0  0  0  0  0  0  0  0  0  0  0  0
  133.4558   69.4251  226.7670 H   0  0  0  0  0  0  0  0  0  0  0  0
  132.1670   71.2842  227.8048 H   0  0  0  0  0  0  0  0  0  0  0  0
  131.8096   73.6919  227.9948 H   0  0  0  0  0  0  0  0  0  0  0  0
  134.2477   76.4303  225.7175 H   0  0  0  0  0  0  0  0  0  0  0  0
  135.4749   74.4837  224.7383 H   0  0  0  0  0  0  0  0  0  0  0  0
  1  2  2  0
  2  3  1  0
  3  4  1  0
  4  5  1  0
  5  6  2  0
  5  7  1  0
  7  8  1  0
  8  9  1  0
  9 10  1  0
 10 11  1  0
 11 12  1  0
 12 13  1  0
 13 14  1  0
  2 15  1  0
 15 16  2  0
 16 17  1  0
 17 18  2  0
 18 19  1  0
 19 20  2  0
 20 21  1  0
 20 22  1  0
 22 23  2  0
 23 24  1  0
 24 25  2  0
 11  7  1  0
 14 12  1  0
 25 15  1  0
 24 18  1  0
  3 26  1  0
  4 27  1  0
  4 28  1  0
  8 29  1  0
  8 30  1  0
  9 31  1  0
  9 32  1  0
 10 33  1  0
 10 34  1  0
 11 35  1  1
 12 36  1  0
 13 37  1  0
 13 38  1  0
 14 39  1  0
 14 40  1  0
 16 41  1  0
 17 42  1  0
 19 43  1  0
 22 44  1  0
 23 45  1  0
M  END
>  <smiles>  (30) 
O=C(NCC(=O)N1CCCC1C1CC1)c1ccc2cc(Cl)ccc2n1

>  <score_type>  (30) 
oracle

>  <origin>  (30) 
autodockgpu

>  <m_score__min__energy>  (30) 
-8.1999999999999993

>  <m_primary>  (30) 
energy

>  <rmsd>  (30) 
7.934550962409854

>  <m_score__min__rmsd>  (30) 
7.934550962409854

>  <meeko>  (30) 
{"free_energy": -8.14, "intermolecular_energy": -9.63, "internal_energy": -1.41, "cluster_size": 20, "cluster_id": 1, "rank_in_cluster": 16}

>  <energy>  (30) 
-7.64

>  <cluster_rmsd>  (30) 
0.68

>  <cluster>  (30) 
2

$$$$

     RDKit          3D

 45 48  0  0  0  0  0  0  0  0999 V2000
  135.5670   69.4520  224.4360 O   0  0  0  0  0  0  0  0  0  0  0  0
  135.8540   70.6650  224.6020 C   0  0  0  0  0  0  0  0  0  0  0  0
  137.0570   71.2450  224.1520 N   0  0  0  0  0  0  0  0  0  0  0  0
  138.0640   70.4710  223.4560 C   0  0  0  0  0  0  0  0  0  0  0  0
  139.3540   70.6720  224.1800 C   0  0  0  0  0  0  0  0  0  0  0  0
  140.0490   71.6820  223.8980 O   0  0  0  0  0  0  0  0  0  0  0  0
  139.7590   69.7180  225.1680 N   0  0  0  0  0  0  0  0  0  0  0  0
  139.4740   68.2920  225.1470 C   0  0  0  0  0  0  0  0  0  0  0  0
  139.6630   67.8190  226.5600 C   0  0  0  0  0  0  0  0  0  0  0  0
  140.0000   69.0420  227.3760 C   0  0  0  0  0  0  0  0  0  0  0  0
  140.5250   70.0240  226.3570 C   0  0  2  0  0  0  0  0  0  0  0  0
  140.3300   71.4560  226.7920 C   0  0  0  0  0  0  0  0  0  0  0  0
  140.4350   71.8350  228.2200 C   0  0  0  0  0  0  0  0  0  0  0  0
  141.5190   72.2810  227.2390 C   0  0  0  0  0  0  0  0  0  0  0  0
  134.8850   71.5310  225.3030 C   0  0  0  0  0  0  0  0  0  0  0  0
  133.8070   70.9940  225.9880 C   0  0  0  0  0  0  0  0  0  0  0  0
  132.9010   71.8050  226.6430 C   0  0  0  0  0  0  0  0  0  0  0  0
  133.1030   73.1650  226.5950 C   0  0  0  0  0  0  0  0  0  0  0  0
  132.2420   74.0400  227.2250 C   0  0  0  0  0  0  0  0  0  0  0  0
  132.4600   75.4200  227.1680 C   0  0  0  0  0  0  0  0  0  0  0  0
  131.3790   76.5490  227.9610 Cl  0  0  0  0  0  0  0  0  0  0  0  0
  133.5460   75.9310  226.4780 C   0  0  0  0  0  0  0  0  0  0  0  0
  134.4130   75.0580  225.8440 C   0  0  0  0  0  0  0  0  0  0  0  0
  134.1700   73.7120  225.9200 C   0  0  0  0  0  0  0  0  0  0  0  0
  135.0160   72.8760  225.3020 N   0  0  0  0  0  0  0  0  0  0  0  0
  137.2220   72.2740  224.3330 H   0  0  0  0  0  0  0  0  0  0  0  0
  137.7908   69.4055  223.4615 H   0  0  0  0  0  0  0  0  0  0  0  0
  138.1499   70.7945  222.4081 H   0  0  0  0  0  0  0  0  0  0  0  0
  138.4400   68.1123  224.8175 H   0  0  0  0  0  0  0  0  0  0  0  0
  140.1332   67.7564  224.4480 H   0  0  0  0  0  0  0  0  0  0  0  0
  138.7378   67.3555  226.9332 H   0  0  0  0  0  0  0  0  0  0  0  0
  140.4601   67.0638  226.6249 H   0  0  0  0  0  0  0  0  0  0  0  0
  139.1039   69.4382  227.8760 H   0  0  0  0  0  0  0  0  0  0  0  0
  140.7252   68.8320  228.1760 H   0  0  0  0  0  0  0  0  0  0  0  0
  141.6103   69.9304  226.2042 H   0  0  0  0  0  0  0  0  0  0  0  0
  139.5511   71.5732  226.0242 H   0  0  0  0  0  0  0  0  0  0  0  0
  139.7403   72.5750  228.6440 H   0  0  0  0  0  0  0  0  0  0  0  0
  140.4297   71.2827  229.1713 H   0  0  0  0  0  0  0  0  0  0  0  0
  141.6020   73.3383  226.9469 H   0  0  0  0  0  0  0  0  0  0  0  0
  142.6130   72.1849  227.1764 H   0  0  0  0  0  0  0  0  0  0  0  0
  133.6704   69.9028  226.0106 H   0  0  0  0  0  0  0  0  0  0  0  0
  132.0452   71.3771  227.1857 H   0  0  0  0  0  0  0  0  0  0  0  0
  131.3754   73.6480  227.7776 H   0  0  0  0  0  0  0  0  0  0  0  0
  133.7176   77.0166  226.4342 H   0  0  0  0  0  0  0  0  0  0  0  0
  135.2827   75.4387  225.2883 H   0  0  0  0  0  0  0  0  0  0  0  0
  1  2  2  0
  2  3  1  0
  3  4  1  0
  4  5  1  0
  5  6  2  0
  5  7  1  0
  7  8  1  0
  8  9  1  0
  9 10  1  0
 10 11  1  0
 11 12  1  0
 12 13  1  0
 13 14  1  0
  2 15  1  0
 15 16  2  0
 16 17  1  0
 17 18  2  0
 18 19  1  0
 19 20  2  0
 20 21  1  0
 20 22  1  0
 22 23  2  0
 23 24  1  0
 24 25  2  0
 11  7  1  0
 14 12  1  0
 25 15  1  0
 24 18  1  0
  3 26  1  0
  4 27  1  0
  4 28  1  0
  8 29  1  0
  8 30  1  0
  9 31  1  0
  9 32  1  0
 10 33  1  0
 10 34  1  0
 11 35  1  6
 12 36  1  0
 13 37  1  0
 13 38  1  0
 14 39  1  0
 14 40  1  0
 16 41  1  0
 17 42  1  0
 19 43  1  0
 22 44  1  0
 23 45  1  0
M  END
>  <smiles>  (31) 
O=C(NCC(=O)N1CCCC1C1CC1)c1ccc2cc(Cl)ccc2n1

>  <score_type>  (31) 
oracle

>  <origin>  (31) 
autodockgpu

>  <m_score__min__energy>  (31) 
-8.1999999999999993

>  <m_primary>  (31) 
energy

>  <rmsd>  (31) 
8.256796785048207

>  <m_score__min__rmsd>  (31) 
8.256796785048207

>  <meeko>  (31) 
{"free_energy": -7.79, "intermolecular_energy": -9.28, "internal_energy": -1.55, "cluster_size": 20, "cluster_id": 1, "rank_in_cluster": 18}

>  <energy>  (31) 
-7.69

>  <cluster_rmsd>  (31) 
0.0

>  <cluster>  (31) 
3

$$$$

     RDKit          3D

 45 48  0  0  0  0  0  0  0  0999 V2000
  135.0400   68.5080  224.8750 O   0  0  0  0  0  0  0  0  0  0  0  0
  135.5280   69.6640  224.9660 C   0  0  0  0  0  0  0  0  0  0  0  0
  136.8180   69.9990  224.5080 N   0  0  0  0  0  0  0  0  0  0  0  0
  137.6870   69.0170  223.8910 C   0  0  0  0  0  0  0  0  0  0  0  0
  138.8160   68.7710  224.8360 C   0  0  0  0  0  0  0  0  0  0  0  0
  139.1840   67.5850  225.0340 O   0  0  0  0  0  0  0  0  0  0  0  0
  139.4430   69.8840  225.4830 N   0  0  0  0  0  0  0  0  0  0  0  0
  139.9150   71.0960  224.8330 C   0  0  0  0  0  0  0  0  0  0  0  0
  140.8890   71.7180  225.7930 C   0  0  0  0  0  0  0  0  0  0  0  0
  140.9890   70.7770  226.9680 C   0  0  0  0  0  0  0  0  0  0  0  0
  139.7080   69.9810  226.9030 C   0  0  2  0  0  0  0  0  0  0  0  0
  139.8520   68.6180  227.5360 C   0  0  0  0  0  0  0  0  0  0  0  0
  141.0650   67.8000  227.3060 C   0  0  0  0  0  0  0  0  0  0  0  0
  140.8190   68.4130  228.6840 C   0  0  0  0  0  0  0  0  0  0  0  0
  134.7120   70.7290  225.5820 C   0  0  0  0  0  0  0  0  0  0  0  0
  133.6680   70.4260  226.4420 C   0  0  0  0  0  0  0  0  0  0  0  0
  132.9060   71.4230  227.0180 C   0  0  0  0  0  0  0  0  0  0  0  0
  133.2150   72.7290  226.7120 C   0  0  0  0  0  0  0  0  0  0  0  0
  132.5000   73.7800  227.2480 C   0  0  0  0  0  0  0  0  0  0  0  0
  132.8260   75.1010  226.9280 C   0  0  0  0  0  0  0  0  0  0  0  0
  131.9310   76.4500  227.5970 Cl  0  0  0  0  0  0  0  0  0  0  0  0
  133.8750   75.3770  226.0670 C   0  0  0  0  0  0  0  0  0  0  0  0
  134.5960   74.3260  225.5260 C   0  0  0  0  0  0  0  0  0  0  0  0
  134.2500   73.0440  225.8610 C   0  0  0  0  0  0  0  0  0  0  0  0
  134.9540   72.0340  225.3310 N   0  0  0  0  0  0  0  0  0  0  0  0
  137.1540   70.9950  224.6220 H   0  0  0  0  0  0  0  0  0  0  0  0
  137.1339   68.0829  223.7134 H   0  0  0  0  0  0  0  0  0  0  0  0
  138.0607   69.3801  222.9222 H   0  0  0  0  0  0  0  0  0  0  0  0
  140.4143   70.8527  223.8835 H   0  0  0  0  0  0  0  0  0  0  0  0
  139.0861   71.7790  224.5954 H   0  0  0  0  0  0  0  0  0  0  0  0
  141.8726   71.8350  225.3146 H   0  0  0  0  0  0  0  0  0  0  0  0
  140.5542   72.7169  226.1095 H   0  0  0  0  0  0  0  0  0  0  0  0
  141.8647   70.1187  226.8692 H   0  0  0  0  0  0  0  0  0  0  0  0
  141.1137   71.3042  227.9253 H   0  0  0  0  0  0  0  0  0  0  0  0
  138.8887   70.4575  227.4613 H   0  0  0  0  0  0  0  0  0  0  0  0
  138.7750   68.4478  227.3911 H   0  0  0  0  0  0  0  0  0  0  0  0
  140.9752   66.7128  227.1650 H   0  0  0  0  0  0  0  0  0  0  0  0
  141.8926   67.8272  226.5819 H   0  0  0  0  0  0  0  0  0  0  0  0
  140.5425   67.7728  229.5347 H   0  0  0  0  0  0  0  0  0  0  0  0
  141.3809   69.0668  229.3673 H   0  0  0  0  0  0  0  0  0  0  0  0
  133.4428   69.3736  226.6694 H   0  0  0  0  0  0  0  0  0  0  0  0
  132.0777   71.1811  227.7003 H   0  0  0  0  0  0  0  0  0  0  0  0
  131.6648   73.5764  227.9342 H   0  0  0  0  0  0  0  0  0  0  0  0
  134.1319   76.4168  225.8164 H   0  0  0  0  0  0  0  0  0  0  0  0
  135.4330   74.5176  224.8384 H   0  0  0  0  0  0  0  0  0  0  0  0
  1  2  2  0
  2  3  1  0
  3  4  1  0
  4  5  1  0
  5  6  2  0
  5  7  1  0
  7  8  1  0
  8  9  1  0
  9 10  1  0
 10 11  1  0
 11 12  1  0
 12 13  1  0
 13 14  1  0
  2 15  1  0
 15 16  2  0
 16 17  1  0
 17 18  2  0
 18 19  1  0
 19 20  2  0
 20 21  1  0
 20 22  1  0
 22 23  2  0
 23 24  1  0
 24 25  2  0
 11  7  1  0
 14 12  1  0
 25 15  1  0
 24 18  1  0
  3 26  1  0
  4 27  1  0
  4 28  1  0
  8 29  1  0
  8 30  1  0
  9 31  1  0
  9 32  1  0
 10 33  1  0
 10 34  1  0
 11 35  1  1
 12 36  1  0
 13 37  1  0
 13 38  1  0
 14 39  1  0
 14 40  1  0
 16 41  1  0
 17 42  1  0
 19 43  1  0
 22 44  1  0
 23 45  1  0
M  END
>  <smiles>  (32) 
O=C(NCC(=O)N1CCCC1C1CC1)c1ccc2cc(Cl)ccc2n1

>  <score_type>  (32) 
oracle

>  <origin>  (32) 
autodockgpu

>  <m_score__min__energy>  (32) 
-8.1999999999999993

>  <m_primary>  (32) 
energy

>  <rmsd>  (32) 
7.9404966838789255

>  <m_score__min__rmsd>  (32) 
7.9404966838789255

>  <meeko>  (32) 
{"free_energy": -8.19, "intermolecular_energy": -9.68, "internal_energy": -1.39, "cluster_size": 20, "cluster_id": 1, "rank_in_cluster": 8}

>  <energy>  (32) 
-7.68

>  <cluster_rmsd>  (32) 
0.57

>  <cluster>  (32) 
3

$$$$

     RDKit          3D

 45 48  0  0  0  0  0  0  0  0999 V2000
  135.0180   68.5040  224.8740 O   0  0  0  0  0  0  0  0  0  0  0  0
  135.5100   69.6580  224.9650 C   0  0  0  0  0  0  0  0  0  0  0  0
  136.8000   69.9890  224.5040 N   0  0  0  0  0  0  0  0  0  0  0  0
  137.6640   69.0050  223.8830 C   0  0  0  0  0  0  0  0  0  0  0  0
  138.7970   68.7570  224.8230 C   0  0  0  0  0  0  0  0  0  0  0  0
  139.1690   67.5700  225.0130 O   0  0  0  0  0  0  0  0  0  0  0  0
  139.4220   69.8670  225.4760 N   0  0  0  0  0  0  0  0  0  0  0  0
  139.8930   71.0830  224.8320 C   0  0  0  0  0  0  0  0  0  0  0  0
  140.8660   71.7010  225.7950 C   0  0  0  0  0  0  0  0  0  0  0  0
  140.9670   70.7550  226.9650 C   0  0  0  0  0  0  0  0  0  0  0  0
  139.6870   69.9580  226.8960 C   0  0  2  0  0  0  0  0  0  0  0  0
  139.8320   68.5920  227.5230 C   0  0  0  0  0  0  0  0  0  0  0  0
  141.0450   67.7760  227.2890 C   0  0  0  0  0  0  0  0  0  0  0  0
  140.7990   68.3830  228.6700 C   0  0  0  0  0  0  0  0  0  0  0  0
  134.6990   70.7240  225.5860 C   0  0  0  0  0  0  0  0  0  0  0  0
  133.6700   70.4250  226.4630 C   0  0  0  0  0  0  0  0  0  0  0  0
  132.9130   71.4230  227.0430 C   0  0  0  0  0  0  0  0  0  0  0  0
  133.2120   72.7280  226.7230 C   0  0  0  0  0  0  0  0  0  0  0  0
  132.5010   73.7800  227.2610 C   0  0  0  0  0  0  0  0  0  0  0  0
  132.8180   75.1000  226.9260 C   0  0  0  0  0  0  0  0  0  0  0  0
  131.9280   76.4510  227.5980 Cl  0  0  0  0  0  0  0  0  0  0  0  0
  133.8520   75.3730  226.0470 C   0  0  0  0  0  0  0  0  0  0  0  0
  134.5690   74.3210  225.5040 C   0  0  0  0  0  0  0  0  0  0  0  0
  134.2330   73.0400  225.8540 C   0  0  0  0  0  0  0  0  0  0  0  0
  134.9330   72.0290  225.3210 N   0  0  0  0  0  0  0  0  0  0  0  0
  137.1400   70.9840  224.6200 H   0  0  0  0  0  0  0  0  0  0  0  0
  137.1081   68.0720  223.7082 H   0  0  0  0  0  0  0  0  0  0  0  0
  138.0338   69.3669  222.9123 H   0  0  0  0  0  0  0  0  0  0  0  0
  140.3927   70.8449  223.8814 H   0  0  0  0  0  0  0  0  0  0  0  0
  139.0635   71.7663  224.5977 H   0  0  0  0  0  0  0  0  0  0  0  0
  141.8495   71.8214  225.3172 H   0  0  0  0  0  0  0  0  0  0  0  0
  140.5300   72.6979  226.1164 H   0  0  0  0  0  0  0  0  0  0  0  0
  141.8435   70.0981  226.8632 H   0  0  0  0  0  0  0  0  0  0  0  0
  141.0911   71.2777  227.9249 H   0  0  0  0  0  0  0  0  0  0  0  0
  138.8673   70.4314  227.4563 H   0  0  0  0  0  0  0  0  0  0  0  0
  138.7551   68.4216  227.3775 H   0  0  0  0  0  0  0  0  0  0  0  0
  140.9558   66.6893  227.1433 H   0  0  0  0  0  0  0  0  0  0  0  0
  141.8723   67.8068  226.5647 H   0  0  0  0  0  0  0  0  0  0  0  0
  140.5231   67.7390  229.5180 H   0  0  0  0  0  0  0  0  0  0  0  0
  141.3605   69.0342  229.3561 H   0  0  0  0  0  0  0  0  0  0  0  0
  133.4519   69.3736  226.7017 H   0  0  0  0  0  0  0  0  0  0  0  0
  132.0961   71.1829  227.7394 H   0  0  0  0  0  0  0  0  0  0  0  0
  131.6764   73.5787  227.9606 H   0  0  0  0  0  0  0  0  0  0  0  0
  134.1004   76.4117  225.7837 H   0  0  0  0  0  0  0  0  0  0  0  0
  135.3951   74.5105  224.8029 H   0  0  0  0  0  0  0  0  0  0  0  0
  1  2  2  0
  2  3  1  0
  3  4  1  0
  4  5  1  0
  5  6  2  0
  5  7  1  0
  7  8  1  0
  8  9  1  0
  9 10  1  0
 10 11  1  0
 11 12  1  0
 12 13  1  0
 13 14  1  0
  2 15  1  0
 15 16  2  0
 16 17  1  0
 17 18  2  0
 18 19  1  0
 19 20  2  0
 20 21  1  0
 20 22  1  0
 22 23  2  0
 23 24  1  0
 24 25  2  0
 11  7  1  0
 14 12  1  0
 25 15  1  0
 24 18  1  0
  3 26  1  0
  4 27  1  0
  4 28  1  0
  8 29  1  0
  8 30  1  0
  9 31  1  0
  9 32  1  0
 10 33  1  0
 10 34  1  0
 11 35  1  1
 12 36  1  0
 13 37  1  0
 13 38  1  0
 14 39  1  0
 14 40  1  0
 16 41  1  0
 17 42  1  0
 19 43  1  0
 22 44  1  0
 23 45  1  0
M  END
>  <smiles>  (33) 
O=C(NCC(=O)N1CCCC1C1CC1)c1ccc2cc(Cl)ccc2n1

>  <score_type>  (33) 
oracle

>  <origin>  (33) 
autodockgpu

>  <m_score__min__energy>  (33) 
-8.1999999999999993

>  <m_primary>  (33) 
energy

>  <rmsd>  (33) 
7.950652085617472

>  <m_score__min__rmsd>  (33) 
7.950652085617472

>  <meeko>  (33) 
{"free_energy": -8.19, "intermolecular_energy": -9.68, "internal_energy": -1.38, "cluster_size": 20, "cluster_id": 1, "rank_in_cluster": 7}

>  <energy>  (33) 
-7.66

>  <cluster_rmsd>  (33) 
0.14

>  <cluster>  (33) 
3

$$$$

     RDKit          3D

 45 48  0  0  0  0  0  0  0  0999 V2000
  139.4100   71.9860  220.6290 O   0  0  0  0  0  0  0  0  0  0  0  0
  139.5050   72.4490  221.7950 C   0  0  0  0  0  0  0  0  0  0  0  0
  139.4820   73.8280  222.0850 N   0  0  0  0  0  0  0  0  0  0  0  0
  139.3470   74.8250  221.0430 C   0  0  0  0  0  0  0  0  0  0  0  0
  139.6180   76.1550  221.6660 C   0  0  0  0  0  0  0  0  0  0  0  0
  139.3420   76.3130  222.8830 O   0  0  0  0  0  0  0  0  0  0  0  0
  140.1790   77.2010  220.8670 N   0  0  0  0  0  0  0  0  0  0  0  0
  140.3510   77.1770  219.4230 C   0  0  0  0  0  0  0  0  0  0  0  0
  141.3760   78.2320  219.1190 C   0  0  0  0  0  0  0  0  0  0  0  0
  141.8130   78.7970  220.4470 C   0  0  0  0  0  0  0  0  0  0  0  0
  140.6690   78.4660  221.3750 C   0  0  2  0  0  0  0  0  0  0  0  0
  141.1150   78.3530  222.8120 C   0  0  0  0  0  0  0  0  0  0  0  0
  142.1720   79.2410  223.3490 C   0  0  0  0  0  0  0  0  0  0  0  0
  140.7270   79.4210  223.8130 C   0  0  0  0  0  0  0  0  0  0  0  0
  139.6470   71.5050  222.9210 C   0  0  0  0  0  0  0  0  0  0  0  0
  139.2280   70.1890  222.8110 C   0  0  0  0  0  0  0  0  0  0  0  0
  139.3610   69.3070  223.8650 C   0  0  0  0  0  0  0  0  0  0  0  0
  139.9240   69.7750  225.0300 C   0  0  0  0  0  0  0  0  0  0  0  0
  140.0910   68.9550  226.1260 C   0  0  0  0  0  0  0  0  0  0  0  0
  140.6650   69.4460  227.3030 C   0  0  0  0  0  0  0  0  0  0  0  0
  140.8870   68.4210  228.7070 Cl  0  0  0  0  0  0  0  0  0  0  0  0
  141.0770   70.7650  227.3870 C   0  0  0  0  0  0  0  0  0  0  0  0
  140.9120   71.5930  226.2900 C   0  0  0  0  0  0  0  0  0  0  0  0
  140.3460   71.0800  225.1530 C   0  0  0  0  0  0  0  0  0  0  0  0
  140.1900   71.8900  224.0970 N   0  0  0  0  0  0  0  0  0  0  0  0
  139.5680   74.1350  223.0930 H   0  0  0  0  0  0  0  0  0  0  0  0
  140.0724   74.6306  220.2392 H   0  0  0  0  0  0  0  0  0  0  0  0
  138.3384   74.7975  220.6048 H   0  0  0  0  0  0  0  0  0  0  0  0
  140.7081   76.1895  219.0955 H   0  0  0  0  0  0  0  0  0  0  0  0
  139.4035   77.3677  218.8977 H   0  0  0  0  0  0  0  0  0  0  0  0
  142.2344   77.7881  218.5935 H   0  0  0  0  0  0  0  0  0  0  0  0
  140.9601   79.0164  218.4696 H   0  0  0  0  0  0  0  0  0  0  0  0
  142.7441   78.3207  220.7879 H   0  0  0  0  0  0  0  0  0  0  0  0
  142.0242   79.8756  220.4010 H   0  0  0  0  0  0  0  0  0  0  0  0
  139.8988   79.2512  221.3890 H   0  0  0  0  0  0  0  0  0  0  0  0
  140.9871   77.2619  222.7557 H   0  0  0  0  0  0  0  0  0  0  0  0
  142.9254   78.8401  224.0430 H   0  0  0  0  0  0  0  0  0  0  0  0
  142.9312   79.9005  222.9032 H   0  0  0  0  0  0  0  0  0  0  0  0
  140.4341   79.1423  224.8360 H   0  0  0  0  0  0  0  0  0  0  0  0
  140.0057   80.2510  223.8397 H   0  0  0  0  0  0  0  0  0  0  0  0
  138.7817   69.8408  221.8678 H   0  0  0  0  0  0  0  0  0  0  0  0
  139.0272   68.2626  223.7761 H   0  0  0  0  0  0  0  0  0  0  0  0
  139.7696   67.9043  226.0740 H   0  0  0  0  0  0  0  0  0  0  0  0
  141.5293   71.1498  228.3129 H   0  0  0  0  0  0  0  0  0  0  0  0
  141.2301   72.6452  226.3307 H   0  0  0  0  0  0  0  0  0  0  0  0
  1  2  2  0
  2  3  1  0
  3  4  1  0
  4  5  1  0
  5  6  2  0
  5  7  1  0
  7  8  1  0
  8  9  1  0
  9 10  1  0
 10 11  1  0
 11 12  1  0
 12 13  1  0
 13 14  1  0
  2 15  1  0
 15 16  2  0
 16 17  1  0
 17 18  2  0
 18 19  1  0
 19 20  2  0
 20 21  1  0
 20 22  1  0
 22 23  2  0
 23 24  1  0
 24 25  2  0
 11  7  1  0
 14 12  1  0
 25 15  1  0
 24 18  1  0
  3 26  1  0
  4 27  1  0
  4 28  1  0
  8 29  1  0
  8 30  1  0
  9 31  1  0
  9 32  1  0
 10 33  1  0
 10 34  1  0
 11 35  1  1
 12 36  1  0
 13 37  1  0
 13 38  1  0
 14 39  1  0
 14 40  1  0
 16 41  1  0
 17 42  1  0
 19 43  1  0
 22 44  1  0
 23 45  1  0
M  END
>  <smiles>  (34) 
O=C(NCC(=O)N1CCCC1C1CC1)c1ccc2cc(Cl)ccc2n1

>  <score_type>  (34) 
oracle

>  <origin>  (34) 
autodockgpu

>  <m_score__min__energy>  (34) 
-8.1999999999999993

>  <m_primary>  (34) 
energy

>  <rmsd>  (34) 
1.9513020015253668

>  <m_score__min__rmsd>  (34) 
1.9513020015253668

>  <meeko>  (34) 
{"free_energy": -7.46, "intermolecular_energy": -8.95, "internal_energy": -1.68, "cluster_size": 20, "cluster_id": 3, "rank_in_cluster": 14}

>  <energy>  (34) 
-7.65

>  <cluster_rmsd>  (34) 
0.61

>  <cluster>  (34) 
3

$$$$

     RDKit          3D

 45 48  0  0  0  0  0  0  0  0999 V2000
  139.6580   72.0310  220.6050 O   0  0  0  0  0  0  0  0  0  0  0  0
  139.6510   72.4850  221.7770 C   0  0  0  0  0  0  0  0  0  0  0  0
  139.5540   73.8600  222.0740 N   0  0  0  0  0  0  0  0  0  0  0  0
  139.4540   74.8610  221.0320 C   0  0  0  0  0  0  0  0  0  0  0  0
  139.6240   76.1940  221.6820 C   0  0  0  0  0  0  0  0  0  0  0  0
  139.1930   76.3480  222.8540 O   0  0  0  0  0  0  0  0  0  0  0  0
  140.2680   77.2480  220.9600 N   0  0  0  0  0  0  0  0  0  0  0  0
  140.8120   77.1560  219.6150 C   0  0  0  0  0  0  0  0  0  0  0  0
  141.7710   78.3040  219.4850 C   0  0  0  0  0  0  0  0  0  0  0  0
  141.7890   78.9980  220.8240 C   0  0  0  0  0  0  0  0  0  0  0  0
  140.4810   78.5910  221.4590 C   0  0  2  0  0  0  0  0  0  0  0  0
  140.5460   78.6200  222.9670 C   0  0  0  0  0  0  0  0  0  0  0  0
  141.8180   78.9190  223.6640 C   0  0  0  0  0  0  0  0  0  0  0  0
  140.6820   79.9420  223.6940 C   0  0  0  0  0  0  0  0  0  0  0  0
  139.7500   71.5360  222.9040 C   0  0  0  0  0  0  0  0  0  0  0  0
  139.3090   70.2290  222.7810 C   0  0  0  0  0  0  0  0  0  0  0  0
  139.4010   69.3420  223.8360 C   0  0  0  0  0  0  0  0  0  0  0  0
  139.9460   69.7980  225.0150 C   0  0  0  0  0  0  0  0  0  0  0  0
  140.0730   68.9730  226.1130 C   0  0  0  0  0  0  0  0  0  0  0  0
  140.6290   69.4500  227.3040 C   0  0  0  0  0  0  0  0  0  0  0  0
  140.7990   68.4190  228.7100 Cl  0  0  0  0  0  0  0  0  0  0  0  0
  141.0630   70.7610  227.3990 C   0  0  0  0  0  0  0  0  0  0  0  0
  140.9390   71.5940  226.3010 C   0  0  0  0  0  0  0  0  0  0  0  0
  140.3900   71.0940  225.1500 C   0  0  0  0  0  0  0  0  0  0  0  0
  140.2740   71.9090  224.0920 N   0  0  0  0  0  0  0  0  0  0  0  0
  139.5560   74.1600  223.0880 H   0  0  0  0  0  0  0  0  0  0  0  0
  140.2431   74.7042  220.2819 H   0  0  0  0  0  0  0  0  0  0  0  0
  138.4818   74.7970  220.5213 H   0  0  0  0  0  0  0  0  0  0  0  0
  141.3380   76.1996  219.4787 H   0  0  0  0  0  0  0  0  0  0  0  0
  140.0200   77.2004  218.8529 H   0  0  0  0  0  0  0  0  0  0  0  0
  142.7761   77.9335  219.2350 H   0  0  0  0  0  0  0  0  0  0  0  0
  141.4632   78.9918  218.6836 H   0  0  0  0  0  0  0  0  0  0  0  0
  142.6414   78.6576  221.4302 H   0  0  0  0  0  0  0  0  0  0  0  0
  141.8975   80.0891  220.7359 H   0  0  0  0  0  0  0  0  0  0  0  0
  139.6601   79.2785  221.2072 H   0  0  0  0  0  0  0  0  0  0  0  0
  139.8301   77.7857  223.0052 H   0  0  0  0  0  0  0  0  0  0  0  0
  142.0854   78.3688  224.5782 H   0  0  0  0  0  0  0  0  0  0  0  0
  142.8770   78.9447  223.3678 H   0  0  0  0  0  0  0  0  0  0  0  0
  140.1235   80.1238  224.6240 H   0  0  0  0  0  0  0  0  0  0  0  0
  140.5699   81.0033  223.4273 H   0  0  0  0  0  0  0  0  0  0  0  0
  138.8781   69.8914  221.8269 H   0  0  0  0  0  0  0  0  0  0  0  0
  139.0499   68.3042  223.7371 H   0  0  0  0  0  0  0  0  0  0  0  0
  139.7332   67.9286  226.0511 H   0  0  0  0  0  0  0  0  0  0  0  0
  141.5011   71.1360  228.3357 H   0  0  0  0  0  0  0  0  0  0  0  0
  141.2756   72.6400  226.3516 H   0  0  0  0  0  0  0  0  0  0  0  0
  1  2  2  0
  2  3  1  0
  3  4  1  0
  4  5  1  0
  5  6  2  0
  5  7  1  0
  7  8  1  0
  8  9  1  0
  9 10  1  0
 10 11  1  0
 11 12  1  0
 12 13  1  0
 13 14  1  0
  2 15  1  0
 15 16  2  0
 16 17  1  0
 17 18  2  0
 18 19  1  0
 19 20  2  0
 20 21  1  0
 20 22  1  0
 22 23  2  0
 23 24  1  0
 24 25  2  0
 11  7  1  0
 14 12  1  0
 25 15  1  0
 24 18  1  0
  3 26  1  0
  4 27  1  0
  4 28  1  0
  8 29  1  0
  8 30  1  0
  9 31  1  0
  9 32  1  0
 10 33  1  0
 10 34  1  0
 11 35  1  6
 12 36  1  0
 13 37  1  0
 13 38  1  0
 14 39  1  0
 14 40  1  0
 16 41  1  0
 17 42  1  0
 19 43  1  0
 22 44  1  0
 23 45  1  0
M  END
>  <smiles>  (35) 
O=C(NCC(=O)N1CCCC1C1CC1)c1ccc2cc(Cl)ccc2n1

>  <score_type>  (35) 
oracle

>  <origin>  (35) 
autodockgpu

>  <m_score__min__energy>  (35) 
-8.1999999999999993

>  <m_primary>  (35) 
energy

>  <rmsd>  (35) 
2.1463301926163827

>  <m_score__min__rmsd>  (35) 
2.1463301926163827

>  <meeko>  (35) 
{"free_energy": -7.56, "intermolecular_energy": -9.05, "internal_energy": -1.59, "cluster_size": 20, "cluster_id": 3, "rank_in_cluster": 9}

>  <energy>  (35) 
-7.65

>  <cluster_rmsd>  (35) 
0.6

>  <cluster>  (35) 
3

$$$$

     RDKit          3D

 45 48  0  0  0  0  0  0  0  0999 V2000
  141.5260   71.5860  220.9070 O   0  0  0  0  0  0  0  0  0  0  0  0
  140.8840   72.4350  221.5750 C   0  0  0  0  0  0  0  0  0  0  0  0
  139.9280   72.0900  222.5520 N   0  0  0  0  0  0  0  0  0  0  0  0
  139.6130   70.7090  222.8570 C   0  0  0  0  0  0  0  0  0  0  0  0
  139.1140   70.6710  224.2640 C   0  0  0  0  0  0  0  0  0  0  0  0
  138.2110   71.4790  224.6010 O   0  0  0  0  0  0  0  0  0  0  0  0
  139.6720   69.7230  225.1790 N   0  0  0  0  0  0  0  0  0  0  0  0
  139.4610   68.2840  225.1560 C   0  0  0  0  0  0  0  0  0  0  0  0
  139.8260   67.7980  226.5290 C   0  0  0  0  0  0  0  0  0  0  0  0
  140.1840   69.0220  227.3330 C   0  0  0  0  0  0  0  0  0  0  0  0
  140.5450   70.0490  226.2870 C   0  0  2  0  0  0  0  0  0  0  0  0
  140.3240   71.4600  226.7740 C   0  0  0  0  0  0  0  0  0  0  0  0
  140.3850   71.7820  228.2180 C   0  0  0  0  0  0  0  0  0  0  0  0
  141.4910   72.2780  227.2870 C   0  0  0  0  0  0  0  0  0  0  0  0
  141.1390   73.8690  221.3300 C   0  0  0  0  0  0  0  0  0  0  0  0
  142.0070   74.2820  220.3330 C   0  0  0  0  0  0  0  0  0  0  0  0
  142.2450   75.6230  220.1040 C   0  0  0  0  0  0  0  0  0  0  0  0
  141.5920   76.5380  220.8990 C   0  0  0  0  0  0  0  0  0  0  0  0
  141.7780   77.8940  220.7320 C   0  0  0  0  0  0  0  0  0  0  0  0
  141.1070   78.8120  221.5460 C   0  0  0  0  0  0  0  0  0  0  0  0
  141.3270   80.5390  221.3510 Cl  0  0  0  0  0  0  0  0  0  0  0  0
  140.2430   78.3720  222.5350 C   0  0  0  0  0  0  0  0  0  0  0  0
  140.0530   77.0120  222.7070 C   0  0  0  0  0  0  0  0  0  0  0  0
  140.7250   76.1410  221.8920 C   0  0  0  0  0  0  0  0  0  0  0  0
  140.5350   74.8260  222.0680 N   0  0  0  0  0  0  0  0  0  0  0  0
  139.4300   72.8660  223.0700 H   0  0  0  0  0  0  0  0  0  0  0  0
  138.8363   70.3392  222.1714 H   0  0  0  0  0  0  0  0  0  0  0  0
  140.5011   70.0706  222.7400 H   0  0  0  0  0  0  0  0  0  0  0  0
  138.4082   68.0542  224.9351 H   0  0  0  0  0  0  0  0  0  0  0  0
  140.0676   67.7970  224.3783 H   0  0  0  0  0  0  0  0  0  0  0  0
  138.9722   67.2778  226.9878 H   0  0  0  0  0  0  0  0  0  0  0  0
  140.6646   67.0871  226.4904 H   0  0  0  0  0  0  0  0  0  0  0  0
  139.3271   69.3600  227.9343 H   0  0  0  0  0  0  0  0  0  0  0  0
  141.0005   68.8376  228.0467 H   0  0  0  0  0  0  0  0  0  0  0  0
  141.6109   70.0170  226.0171 H   0  0  0  0  0  0  0  0  0  0  0  0
  139.5657   71.6005  225.9896 H   0  0  0  0  0  0  0  0  0  0  0  0
  139.6706   72.4974  228.6514 H   0  0  0  0  0  0  0  0  0  0  0  0
  140.3593   71.1916  229.1458 H   0  0  0  0  0  0  0  0  0  0  0  0
  141.5704   73.3470  227.0400 H   0  0  0  0  0  0  0  0  0  0  0  0
  142.5873   72.1953  227.2516 H   0  0  0  0  0  0  0  0  0  0  0  0
  142.5155   73.5291  219.7129 H   0  0  0  0  0  0  0  0  0  0  0  0
  142.9344   75.9497  219.3116 H   0  0  0  0  0  0  0  0  0  0  0  0
  142.4613   78.2574  219.9503 H   0  0  0  0  0  0  0  0  0  0  0  0
  139.7148   79.0939  223.1753 H   0  0  0  0  0  0  0  0  0  0  0  0
  139.3730   76.6369  223.4860 H   0  0  0  0  0  0  0  0  0  0  0  0
  1  2  2  0
  2  3  1  0
  3  4  1  0
  4  5  1  0
  5  6  2  0
  5  7  1  0
  7  8  1  0
  8  9  1  0
  9 10  1  0
 10 11  1  0
 11 12  1  0
 12 13  1  0
 13 14  1  0
  2 15  1  0
 15 16  2  0
 16 17  1  0
 17 18  2  0
 18 19  1  0
 19 20  2  0
 20 21  1  0
 20 22  1  0
 22 23  2  0
 23 24  1  0
 24 25  2  0
 11  7  1  0
 14 12  1  0
 25 15  1  0
 24 18  1  0
  3 26  1  0
  4 27  1  0
  4 28  1  0
  8 29  1  0
  8 30  1  0
  9 31  1  0
  9 32  1  0
 10 33  1  0
 10 34  1  0
 11 35  1  6
 12 36  1  0
 13 37  1  0
 13 38  1  0
 14 39  1  0
 14 40  1  0
 16 41  1  0
 17 42  1  0
 19 43  1  0
 22 44  1  0
 23 45  1  0
M  END
>  <smiles>  (36) 
O=C(NCC(=O)N1CCCC1C1CC1)c1ccc2cc(Cl)ccc2n1

>  <score_type>  (36) 
oracle

>  <origin>  (36) 
autodockgpu

>  <m_score__min__energy>  (36) 
-8.1999999999999993

>  <m_primary>  (36) 
energy

>  <rmsd>  (36) 
8.518890612035399

>  <m_score__min__rmsd>  (36) 
8.518890612035399

>  <meeko>  (36) 
{"free_energy": -7.93, "intermolecular_energy": -9.42, "internal_energy": -1.75, "cluster_size": 10, "cluster_id": 2, "rank_in_cluster": 1}

>  <energy>  (36) 
-7.65

>  <cluster_rmsd>  (36) 
0.16

>  <cluster>  (36) 
3

$$$$

     RDKit          3D

 45 48  0  0  0  0  0  0  0  0999 V2000
  141.6960   71.9060  221.1860 O   0  0  0  0  0  0  0  0  0  0  0  0
  140.8810   72.6280  221.8160 C   0  0  0  0  0  0  0  0  0  0  0  0
  139.9410   72.1170  222.7320 N   0  0  0  0  0  0  0  0  0  0  0  0
  139.8450   70.6990  223.0160 C   0  0  0  0  0  0  0  0  0  0  0  0
  139.1860   70.5600  224.3490 C   0  0  0  0  0  0  0  0  0  0  0  0
  138.1720   71.2630  224.5920 O   0  0  0  0  0  0  0  0  0  0  0  0
  139.7220   69.6370  225.3020 N   0  0  0  0  0  0  0  0  0  0  0  0
  139.5170   68.1970  225.3080 C   0  0  0  0  0  0  0  0  0  0  0  0
  139.8470   67.7460  226.7020 C   0  0  0  0  0  0  0  0  0  0  0  0
  140.1790   68.9920  227.4860 C   0  0  0  0  0  0  0  0  0  0  0  0
  140.5640   69.9940  226.4250 C   0  0  2  0  0  0  0  0  0  0  0  0
  140.3250   71.4160  226.8700 C   0  0  0  0  0  0  0  0  0  0  0  0
  140.4420   71.7920  228.2980 C   0  0  0  0  0  0  0  0  0  0  0  0
  141.4900   72.2830  227.2990 C   0  0  0  0  0  0  0  0  0  0  0  0
  140.9070   74.0870  221.5880 C   0  0  0  0  0  0  0  0  0  0  0  0
  141.8340   74.6640  220.7360 C   0  0  0  0  0  0  0  0  0  0  0  0
  141.8560   76.0280  220.5240 C   0  0  0  0  0  0  0  0  0  0  0  0
  140.9280   76.7990  221.1860 C   0  0  0  0  0  0  0  0  0  0  0  0
  140.8870   78.1680  221.0260 C   0  0  0  0  0  0  0  0  0  0  0  0
  139.9380   78.9380  221.7060 C   0  0  0  0  0  0  0  0  0  0  0  0
  139.8680   80.6780  221.5160 Cl  0  0  0  0  0  0  0  0  0  0  0  0
  139.0210   78.3360  222.5510 C   0  0  0  0  0  0  0  0  0  0  0  0
  139.0580   76.9620  222.7160 C   0  0  0  0  0  0  0  0  0  0  0  0
  140.0000   76.2390  222.0350 C   0  0  0  0  0  0  0  0  0  0  0  0
  140.0270   74.9090  222.2020 N   0  0  0  0  0  0  0  0  0  0  0  0
  139.2900   72.7920  223.2210 H   0  0  0  0  0  0  0  0  0  0  0  0
  139.2419   70.1997  222.2434 H   0  0  0  0  0  0  0  0  0  0  0  0
  140.8416   70.2334  223.0223 H   0  0  0  0  0  0  0  0  0  0  0  0
  138.4714   67.9573  225.0647 H   0  0  0  0  0  0  0  0  0  0  0  0
  140.1459   67.6940  224.5587 H   0  0  0  0  0  0  0  0  0  0  0  0
  138.9832   67.2333  227.1504 H   0  0  0  0  0  0  0  0  0  0  0  0
  140.6890   67.0382  226.7031 H   0  0  0  0  0  0  0  0  0  0  0  0
  139.3051   69.3409  228.0556 H   0  0  0  0  0  0  0  0  0  0  0  0
  140.9764   68.8288  228.2259 H   0  0  0  0  0  0  0  0  0  0  0  0
  141.6370   69.9596  226.1851 H   0  0  0  0  0  0  0  0  0  0  0  0
  139.5287   71.5077  226.1166 H   0  0  0  0  0  0  0  0  0  0  0  0
  139.7280   72.5033  228.7387 H   0  0  0  0  0  0  0  0  0  0  0  0
  140.4752   71.2356  229.2463 H   0  0  0  0  0  0  0  0  0  0  0  0
  141.5276   73.3439  227.0109 H   0  0  0  0  0  0  0  0  0  0  0  0
  142.5855   72.2284  227.2156 H   0  0  0  0  0  0  0  0  0  0  0  0
  142.5651   74.0247  220.2195 H   0  0  0  0  0  0  0  0  0  0  0  0
  142.5927   76.4846  219.8467 H   0  0  0  0  0  0  0  0  0  0  0  0
  141.6082   78.6596  220.3565 H   0  0  0  0  0  0  0  0  0  0  0  0
  138.2731   78.9414  223.0840 H   0  0  0  0  0  0  0  0  0  0  0  0
  138.3423   76.4595  223.3833 H   0  0  0  0  0  0  0  0  0  0  0  0
  1  2  2  0
  2  3  1  0
  3  4  1  0
  4  5  1  0
  5  6  2  0
  5  7  1  0
  7  8  1  0
  8  9  1  0
  9 10  1  0
 10 11  1  0
 11 12  1  0
 12 13  1  0
 13 14  1  0
  2 15  1  0
 15 16  2  0
 16 17  1  0
 17 18  2  0
 18 19  1  0
 19 20  2  0
 20 21  1  0
 20 22  1  0
 22 23  2  0
 23 24  1  0
 24 25  2  0
 11  7  1  0
 14 12  1  0
 25 15  1  0
 24 18  1  0
  3 26  1  0
  4 27  1  0
  4 28  1  0
  8 29  1  0
  8 30  1  0
  9 31  1  0
  9 32  1  0
 10 33  1  0
 10 34  1  0
 11 35  1  6
 12 36  1  0
 13 37  1  0
 13 38  1  0
 14 39  1  0
 14 40  1  0
 16 41  1  0
 17 42  1  0
 19 43  1  0
 22 44  1  0
 23 45  1  0
M  END
>  <smiles>  (37) 
O=C(NCC(=O)N1CCCC1C1CC1)c1ccc2cc(Cl)ccc2n1

>  <score_type>  (37) 
oracle

>  <origin>  (37) 
autodockgpu

>  <m_score__min__energy>  (37) 
-8.1999999999999993

>  <m_primary>  (37) 
energy

>  <rmsd>  (37) 
8.618970362546591

>  <m_score__min__rmsd>  (37) 
8.618970362546591

>  <meeko>  (37) 
{"free_energy": -7.79, "intermolecular_energy": -9.28, "internal_energy": -1.83, "cluster_size": 10, "cluster_id": 2, "rank_in_cluster": 6}

>  <energy>  (37) 
-7.64

>  <cluster_rmsd>  (37) 
0.13

>  <cluster>  (37) 
3

$$$$

     RDKit          3D

 45 48  0  0  0  0  0  0  0  0999 V2000
  140.1910   72.5990  220.5840 O   0  0  0  0  0  0  0  0  0  0  0  0
  139.9680   72.9980  221.7550 C   0  0  0  0  0  0  0  0  0  0  0  0
  139.7570   74.3510  222.0860 N   0  0  0  0  0  0  0  0  0  0  0  0
  139.7840   75.3960  221.0820 C   0  0  0  0  0  0  0  0  0  0  0  0
  140.3620   76.6120  221.7270 C   0  0  0  0  0  0  0  0  0  0  0  0
  140.5180   76.6120  222.9750 O   0  0  0  0  0  0  0  0  0  0  0  0
  140.7180   77.7340  220.9120 N   0  0  0  0  0  0  0  0  0  0  0  0
  141.1800   77.6780  219.5340 C   0  0  0  0  0  0  0  0  0  0  0  0
  141.8640   78.9920  219.2820 C   0  0  0  0  0  0  0  0  0  0  0  0
  141.8230   79.7510  220.5850 C   0  0  0  0  0  0  0  0  0  0  0  0
  140.6760   79.1180  221.3350 C   0  0  2  0  0  0  0  0  0  0  0  0
  140.8330   79.2480  222.8310 C   0  0  0  0  0  0  0  0  0  0  0  0
  142.1770   79.2490  223.4540 C   0  0  0  0  0  0  0  0  0  0  0  0
  141.3560   80.5370  223.4290 C   0  0  0  0  0  0  0  0  0  0  0  0
  139.9220   72.0010  222.8440 C   0  0  0  0  0  0  0  0  0  0  0  0
  139.3310   70.7630  222.6580 C   0  0  0  0  0  0  0  0  0  0  0  0
  139.2900   69.8310  223.6780 C   0  0  0  0  0  0  0  0  0  0  0  0
  139.8540   70.1730  224.8850 C   0  0  0  0  0  0  0  0  0  0  0  0
  139.8530   69.2970  225.9510 C   0  0  0  0  0  0  0  0  0  0  0  0
  140.4310   69.6580  227.1720 C   0  0  0  0  0  0  0  0  0  0  0  0
  140.4400   68.5600  228.5380 Cl  0  0  0  0  0  0  0  0  0  0  0  0
  141.0160   70.9020  227.3310 C   0  0  0  0  0  0  0  0  0  0  0  0
  141.0220   71.7850  226.2650 C   0  0  0  0  0  0  0  0  0  0  0  0
  140.4470   71.4000  225.0830 C   0  0  0  0  0  0  0  0  0  0  0  0
  140.4560   72.2630  224.0580 N   0  0  0  0  0  0  0  0  0  0  0  0
  139.5750   74.6040  223.0970 H   0  0  0  0  0  0  0  0  0  0  0  0
  140.4101   75.0863  220.2322 H   0  0  0  0  0  0  0  0  0  0  0  0
  138.7719   75.5989  220.7018 H   0  0  0  0  0  0  0  0  0  0  0  0
  141.8865   76.8456  219.3996 H   0  0  0  0  0  0  0  0  0  0  0  0
  140.3488   77.5114  218.8331 H   0  0  0  0  0  0  0  0  0  0  0  0
  142.9060   78.8250  218.9718 H   0  0  0  0  0  0  0  0  0  0  0  0
  141.3653   79.5532  218.4781 H   0  0  0  0  0  0  0  0  0  0  0  0
  142.7663   79.6313  221.1380 H   0  0  0  0  0  0  0  0  0  0  0  0
  141.6918   80.8338  220.4424 H   0  0  0  0  0  0  0  0  0  0  0  0
  139.7133   79.6037  221.1174 H   0  0  0  0  0  0  0  0  0  0  0  0
  139.9251   78.6427  222.9696 H   0  0  0  0  0  0  0  0  0  0  0  0
  142.3415   78.7213  224.4050 H   0  0  0  0  0  0  0  0  0  0  0  0
  143.1864   78.9663  223.1207 H   0  0  0  0  0  0  0  0  0  0  0  0
  140.9199   80.9349  224.3572 H   0  0  0  0  0  0  0  0  0  0  0  0
  141.5137   81.5648  223.0702 H   0  0  0  0  0  0  0  0  0  0  0  0
  138.8866   70.5169  221.6823 H   0  0  0  0  0  0  0  0  0  0  0  0
  138.8212   68.8471  223.5292 H   0  0  0  0  0  0  0  0  0  0  0  0
  139.3927   68.3042  225.8392 H   0  0  0  0  0  0  0  0  0  0  0  0
  141.4703   71.1854  228.2919 H   0  0  0  0  0  0  0  0  0  0  0  0
  141.4810   72.7796  226.3655 H   0  0  0  0  0  0  0  0  0  0  0  0
  1  2  2  0
  2  3  1  0
  3  4  1  0
  4  5  1  0
  5  6  2  0
  5  7  1  0
  7  8  1  0
  8  9  1  0
  9 10  1  0
 10 11  1  0
 11 12  1  0
 12 13  1  0
 13 14  1  0
  2 15  1  0
 15 16  2  0
 16 17  1  0
 17 18  2  0
 18 19  1  0
 19 20  2  0
 20 21  1  0
 20 22  1  0
 22 23  2  0
 23 24  1  0
 24 25  2  0
 11  7  1  0
 14 12  1  0
 25 15  1  0
 24 18  1  0
  3 26  1  0
  4 27  1  0
  4 28  1  0
  8 29  1  0
  8 30  1  0
  9 31  1  0
  9 32  1  0
 10 33  1  0
 10 34  1  0
 11 35  1  6
 12 36  1  0
 13 37  1  0
 13 38  1  0
 14 39  1  0
 14 40  1  0
 16 41  1  0
 17 42  1  0
 19 43  1  0
 22 44  1  0
 23 45  1  0
M  END
>  <smiles>  (38) 
O=C(NCC(=O)N1CCCC1C1CC1)c1ccc2cc(Cl)ccc2n1

>  <score_type>  (38) 
oracle

>  <origin>  (38) 
autodockgpu

>  <m_score__min__energy>  (38) 
-8.1999999999999993

>  <m_primary>  (38) 
energy

>  <rmsd>  (38) 
2.510954719503083

>  <m_score__min__rmsd>  (38) 
2.510954719503083

>  <meeko>  (38) 
{"free_energy": -7.61, "intermolecular_energy": -9.1, "internal_energy": -1.54, "cluster_size": 20, "cluster_id": 3, "rank_in_cluster": 8}

>  <energy>  (38) 
-7.61

>  <cluster_rmsd>  (38) 
0.26

>  <cluster>  (38) 
3

$$$$

     RDKit          3D

 45 48  0  0  0  0  0  0  0  0999 V2000
  141.6410   71.7360  220.9800 O   0  0  0  0  0  0  0  0  0  0  0  0
  140.9650   72.5490  221.6610 C   0  0  0  0  0  0  0  0  0  0  0  0
  140.0430   72.1510  222.6500 N   0  0  0  0  0  0  0  0  0  0  0  0
  139.8060   70.7550  222.9560 C   0  0  0  0  0  0  0  0  0  0  0  0
  139.1930   70.6990  224.3160 C   0  0  0  0  0  0  0  0  0  0  0  0
  138.2750   71.5130  224.5930 O   0  0  0  0  0  0  0  0  0  0  0  0
  139.6630   69.7280  225.2560 N   0  0  0  0  0  0  0  0  0  0  0  0
  139.3870   68.3010  225.2220 C   0  0  0  0  0  0  0  0  0  0  0  0
  139.6640   67.8000  226.6110 C   0  0  0  0  0  0  0  0  0  0  0  0
  140.0390   69.0080  227.4320 C   0  0  0  0  0  0  0  0  0  0  0  0
  140.4960   70.0160  226.4050 C   0  0  2  0  0  0  0  0  0  0  0  0
  140.3170   71.4370  226.8810 C   0  0  0  0  0  0  0  0  0  0  0  0
  140.5250   71.7900  228.3040 C   0  0  0  0  0  0  0  0  0  0  0  0
  141.5250   72.2700  227.2530 C   0  0  0  0  0  0  0  0  0  0  0  0
  141.1410   73.9940  221.4160 C   0  0  0  0  0  0  0  0  0  0  0  0
  142.0400   74.4570  220.4690 C   0  0  0  0  0  0  0  0  0  0  0  0
  142.2040   75.8100  220.2420 C   0  0  0  0  0  0  0  0  0  0  0  0
  141.4450   76.6850  220.9850 C   0  0  0  0  0  0  0  0  0  0  0  0
  141.5520   78.0490  220.8150 C   0  0  0  0  0  0  0  0  0  0  0  0
  140.7740   78.9260  221.5780 C   0  0  0  0  0  0  0  0  0  0  0  0
  140.8930   80.6630  221.3780 Cl  0  0  0  0  0  0  0  0  0  0  0  0
  139.8820   78.4370  222.5170 C   0  0  0  0  0  0  0  0  0  0  0  0
  139.7700   77.0690  222.6920 C   0  0  0  0  0  0  0  0  0  0  0  0
  140.5470   76.2380  221.9280 C   0  0  0  0  0  0  0  0  0  0  0  0
  140.4320   74.9150  222.1060 N   0  0  0  0  0  0  0  0  0  0  0  0
  139.5130   72.8990  223.1780 H   0  0  0  0  0  0  0  0  0  0  0  0
  139.1202   70.3180  222.2152 H   0  0  0  0  0  0  0  0  0  0  0  0
  140.7458   70.1840  222.9275 H   0  0  0  0  0  0  0  0  0  0  0  0
  138.3363   68.1200  224.9514 H   0  0  0  0  0  0  0  0  0  0  0  0
  140.0065   67.7854  224.4734 H   0  0  0  0  0  0  0  0  0  0  0  0
  138.7666   67.3199  227.0284 H   0  0  0  0  0  0  0  0  0  0  0  0
  140.4699   67.0513  226.6117 H   0  0  0  0  0  0  0  0  0  0  0  0
  139.1708   69.3857  227.9920 H   0  0  0  0  0  0  0  0  0  0  0  0
  140.8113   68.7875  228.1836 H   0  0  0  0  0  0  0  0  0  0  0  0
  141.5711   69.9351  226.1869 H   0  0  0  0  0  0  0  0  0  0  0  0
  139.4811   71.5579  226.1762 H   0  0  0  0  0  0  0  0  0  0  0  0
  139.8549   72.5117  228.7941 H   0  0  0  0  0  0  0  0  0  0  0  0
  140.5992   71.2197  229.2417 H   0  0  0  0  0  0  0  0  0  0  0  0
  141.5718   73.3337  226.9767 H   0  0  0  0  0  0  0  0  0  0  0  0
  142.6122   72.1909  227.1058 H   0  0  0  0  0  0  0  0  0  0  0  0
  142.6331   73.7354  219.8881 H   0  0  0  0  0  0  0  0  0  0  0  0
  142.9191   76.1764  219.4907 H   0  0  0  0  0  0  0  0  0  0  0  0
  142.2562   78.4516  220.0720 H   0  0  0  0  0  0  0  0  0  0  0  0
  139.2701   79.1272  223.1163 H   0  0  0  0  0  0  0  0  0  0  0  0
  139.0690   76.6554  223.4320 H   0  0  0  0  0  0  0  0  0  0  0  0
  1  2  2  0
  2  3  1  0
  3  4  1  0
  4  5  1  0
  5  6  2  0
  5  7  1  0
  7  8  1  0
  8  9  1  0
  9 10  1  0
 10 11  1  0
 11 12  1  0
 12 13  1  0
 13 14  1  0
  2 15  1  0
 15 16  2  0
 16 17  1  0
 17 18  2  0
 18 19  1  0
 19 20  2  0
 20 21  1  0
 20 22  1  0
 22 23  2  0
 23 24  1  0
 24 25  2  0
 11  7  1  0
 14 12  1  0
 25 15  1  0
 24 18  1  0
  3 26  1  0
  4 27  1  0
  4 28  1  0
  8 29  1  0
  8 30  1  0
  9 31  1  0
  9 32  1  0
 10 33  1  0
 10 34  1  0
 11 35  1  6
 12 36  1  0
 13 37  1  0
 13 38  1  0
 14 39  1  0
 14 40  1  0
 16 41  1  0
 17 42  1  0
 19 43  1  0
 22 44  1  0
 23 45  1  0
M  END
>  <smiles>  (39) 
O=C(NCC(=O)N1CCCC1C1CC1)c1ccc2cc(Cl)ccc2n1

>  <score_type>  (39) 
oracle

>  <origin>  (39) 
autodockgpu

>  <m_score__min__energy>  (39) 
-8.1999999999999993

>  <m_primary>  (39) 
energy

>  <rmsd>  (39) 
8.587135044444855

>  <m_score__min__rmsd>  (39) 
8.587135044444855

>  <meeko>  (39) 
{"free_energy": -7.89, "intermolecular_energy": -9.38, "internal_energy": -1.81, "cluster_size": 10, "cluster_id": 2, "rank_in_cluster": 3}

>  <energy>  (39) 
-7.56

>  <cluster_rmsd>  (39) 
0.68

>  <cluster>  (39) 
3

$$$$

     RDKit          3D

 45 48  0  0  0  0  0  0  0  0999 V2000
  140.0560   72.2850  220.6090 O   0  0  0  0  0  0  0  0  0  0  0  0
  139.8900   72.7160  221.7790 C   0  0  0  0  0  0  0  0  0  0  0  0
  139.6820   74.0770  222.0800 N   0  0  0  0  0  0  0  0  0  0  0  0
  139.6450   75.0910  221.0460 C   0  0  0  0  0  0  0  0  0  0  0  0
  140.0200   76.3870  221.6850 C   0  0  0  0  0  0  0  0  0  0  0  0
  140.0310   76.4550  222.9410 O   0  0  0  0  0  0  0  0  0  0  0  0
  140.3550   77.5050  220.8560 N   0  0  0  0  0  0  0  0  0  0  0  0
  140.2450   77.5590  219.4080 C   0  0  0  0  0  0  0  0  0  0  0  0
  141.1300   78.6940  218.9750 C   0  0  0  0  0  0  0  0  0  0  0  0
  141.7840   79.2240  220.2270 C   0  0  0  0  0  0  0  0  0  0  0  0
  140.8630   78.7740  221.3340 C   0  0  2  0  0  0  0  0  0  0  0  0
  141.5860   78.6240  222.6510 C   0  0  0  0  0  0  0  0  0  0  0  0
  142.4970   79.6840  223.1400 C   0  0  0  0  0  0  0  0  0  0  0  0
  141.1630   79.4510  223.8470 C   0  0  0  0  0  0  0  0  0  0  0  0
  139.9140   71.7520  222.8970 C   0  0  0  0  0  0  0  0  0  0  0  0
  139.4150   70.4690  222.7490 C   0  0  0  0  0  0  0  0  0  0  0  0
  139.4370   69.5690  223.7960 C   0  0  0  0  0  0  0  0  0  0  0  0
  139.9730   69.9860  224.9930 C   0  0  0  0  0  0  0  0  0  0  0  0
  140.0320   69.1450  226.0840 C   0  0  0  0  0  0  0  0  0  0  0  0
  140.5790   69.5830  227.2940 C   0  0  0  0  0  0  0  0  0  0  0  0
  140.6640   68.5310  228.6920 Cl  0  0  0  0  0  0  0  0  0  0  0  0
  141.0730   70.8710  227.4150 C   0  0  0  0  0  0  0  0  0  0  0  0
  141.0170   71.7190  226.3230 C   0  0  0  0  0  0  0  0  0  0  0  0
  140.4750   71.2580  225.1530 C   0  0  0  0  0  0  0  0  0  0  0  0
  140.4250   72.0880  224.1020 N   0  0  0  0  0  0  0  0  0  0  0  0
  139.5520   74.3570  223.0910 H   0  0  0  0  0  0  0  0  0  0  0  0
  140.3612   74.8427  220.2489 H   0  0  0  0  0  0  0  0  0  0  0  0
  138.6433   75.1531  220.5957 H   0  0  0  0  0  0  0  0  0  0  0  0
  140.5876   76.6137  218.9618 H   0  0  0  0  0  0  0  0  0  0  0  0
  139.2043   77.7097  219.0852 H   0  0  0  0  0  0  0  0  0  0  0  0
  141.8936   78.3337  218.2700 H   0  0  0  0  0  0  0  0  0  0  0  0
  140.5524   79.4781  218.4636 H   0  0  0  0  0  0  0  0  0  0  0  0
  142.7890   78.7956  220.3553 H   0  0  0  0  0  0  0  0  0  0  0  0
  141.9208   80.3152  220.2055 H   0  0  0  0  0  0  0  0  0  0  0  0
  140.0668   79.5044  221.5405 H   0  0  0  0  0  0  0  0  0  0  0  0
  141.6990   77.5475  222.4551 H   0  0  0  0  0  0  0  0  0  0  0  0
  143.4381   79.4112  223.6399 H   0  0  0  0  0  0  0  0  0  0  0  0
  142.9903   80.5542  222.6824 H   0  0  0  0  0  0  0  0  0  0  0  0
  141.1382   79.0022  224.8510 H   0  0  0  0  0  0  0  0  0  0  0  0
  140.2916   80.0691  224.1091 H   0  0  0  0  0  0  0  0  0  0  0  0
  138.9937   70.1613  221.7806 H   0  0  0  0  0  0  0  0  0  0  0  0
  139.0386   68.5506  223.6771 H   0  0  0  0  0  0  0  0  0  0  0  0
  139.6447   68.1187  226.0016 H   0  0  0  0  0  0  0  0  0  0  0  0
  141.5042   71.2154  228.3665 H   0  0  0  0  0  0  0  0  0  0  0  0
  141.4017   72.7471  226.3936 H   0  0  0  0  0  0  0  0  0  0  0  0
  1  2  2  0
  2  3  1  0
  3  4  1  0
  4  5  1  0
  5  6  2  0
  5  7  1  0
  7  8  1  0
  8  9  1  0
  9 10  1  0
 10 11  1  0
 11 12  1  0
 12 13  1  0
 13 14  1  0
  2 15  1  0
 15 16  2  0
 16 17  1  0
 17 18  2  0
 18 19  1  0
 19 20  2  0
 20 21  1  0
 20 22  1  0
 22 23  2  0
 23 24  1  0
 24 25  2  0
 11  7  1  0
 14 12  1  0
 25 15  1  0
 24 18  1  0
  3 26  1  0
  4 27  1  0
  4 28  1  0
  8 29  1  0
  8 30  1  0
  9 31  1  0
  9 32  1  0
 10 33  1  0
 10 34  1  0
 11 35  1  1
 12 36  1  0
 13 37  1  0
 13 38  1  0
 14 39  1  0
 14 40  1  0
 16 41  1  0
 17 42  1  0
 19 43  1  0
 22 44  1  0
 23 45  1  0
M  END
>  <smiles>  (40) 
O=C(NCC(=O)N1CCCC1C1CC1)c1ccc2cc(Cl)ccc2n1

>  <score_type>  (40) 
oracle

>  <origin>  (40) 
autodockgpu

>  <m_score__min__energy>  (40) 
-8.1999999999999993

>  <m_primary>  (40) 
energy

>  <rmsd>  (40) 
2.135016253964874

>  <m_score__min__rmsd>  (40) 
2.135016253964874

>  <meeko>  (40) 
{"free_energy": -7.5, "intermolecular_energy": -8.99, "internal_energy": -1.61, "cluster_size": 20, "cluster_id": 3, "rank_in_cluster": 11}

>  <energy>  (40) 
-7.52

>  <cluster_rmsd>  (40) 
0.64

>  <cluster>  (40) 
3

$$$$

     RDKit          3D

 45 48  0  0  0  0  0  0  0  0999 V2000
  134.9770   68.5000  224.8750 O   0  0  0  0  0  0  0  0  0  0  0  0
  135.4950   69.6410  224.9820 C   0  0  0  0  0  0  0  0  0  0  0  0
  136.7980   69.9440  224.5390 N   0  0  0  0  0  0  0  0  0  0  0  0
  137.6460   68.9450  223.9200 C   0  0  0  0  0  0  0  0  0  0  0  0
  138.8020   68.7180  224.8370 C   0  0  0  0  0  0  0  0  0  0  0  0
  139.1970   67.5380  225.0210 O   0  0  0  0  0  0  0  0  0  0  0  0
  139.4220   69.8390  225.4740 N   0  0  0  0  0  0  0  0  0  0  0  0
  139.8860   71.0490  224.8140 C   0  0  0  0  0  0  0  0  0  0  0  0
  140.8570   71.6850  225.7680 C   0  0  0  0  0  0  0  0  0  0  0  0
  140.9650   70.7540  226.9490 C   0  0  0  0  0  0  0  0  0  0  0  0
  139.6890   69.9490  226.8930 C   0  0  2  0  0  0  0  0  0  0  0  0
  139.8420   68.5930  227.5370 C   0  0  0  0  0  0  0  0  0  0  0  0
  141.0670   67.7880  227.3250 C   0  0  0  0  0  0  0  0  0  0  0  0
  140.7990   68.4070  228.6960 C   0  0  0  0  0  0  0  0  0  0  0  0
  134.7030   70.7210  225.6030 C   0  0  0  0  0  0  0  0  0  0  0  0
  133.6810   70.4400  226.4940 C   0  0  0  0  0  0  0  0  0  0  0  0
  132.9410   71.4520  227.0740 C   0  0  0  0  0  0  0  0  0  0  0  0
  133.2500   72.7500  226.7380 C   0  0  0  0  0  0  0  0  0  0  0  0
  132.5570   73.8140  227.2750 C   0  0  0  0  0  0  0  0  0  0  0  0
  132.8840   75.1280  226.9250 C   0  0  0  0  0  0  0  0  0  0  0  0
  132.0160   76.4940  227.5960 Cl  0  0  0  0  0  0  0  0  0  0  0  0
  133.9110   75.3820  226.0330 C   0  0  0  0  0  0  0  0  0  0  0  0
  134.6110   74.3180  225.4910 C   0  0  0  0  0  0  0  0  0  0  0  0
  134.2650   73.0440  225.8550 C   0  0  0  0  0  0  0  0  0  0  0  0
  134.9480   72.0200  225.3240 N   0  0  0  0  0  0  0  0  0  0  0  0
  137.1600   70.9300  224.6670 H   0  0  0  0  0  0  0  0  0  0  0  0
  137.0856   68.0087  223.7810 H   0  0  0  0  0  0  0  0  0  0  0  0
  137.9917   69.2839  222.9322 H   0  0  0  0  0  0  0  0  0  0  0  0
  140.3860   70.8013  223.8660 H   0  0  0  0  0  0  0  0  0  0  0  0
  139.0525   71.7248  224.5720 H   0  0  0  0  0  0  0  0  0  0  0  0
  141.8391   71.8053  225.2874 H   0  0  0  0  0  0  0  0  0  0  0  0
  140.5157   72.6839  226.0775 H   0  0  0  0  0  0  0  0  0  0  0  0
  141.8447   70.1006  226.8534 H   0  0  0  0  0  0  0  0  0  0  0  0
  141.0879   71.2894  227.9020 H   0  0  0  0  0  0  0  0  0  0  0  0
  138.8677   70.4246  227.4491 H   0  0  0  0  0  0  0  0  0  0  0  0
  138.7685   68.4093  227.3825 H   0  0  0  0  0  0  0  0  0  0  0  0
  140.9916   66.6989  227.1903 H   0  0  0  0  0  0  0  0  0  0  0  0
  141.9019   67.8203  226.6095 H   0  0  0  0  0  0  0  0  0  0  0  0
  140.5211   67.7691  229.5480 H   0  0  0  0  0  0  0  0  0  0  0  0
  141.3458   69.0719  229.3808 H   0  0  0  0  0  0  0  0  0  0  0  0
  133.4545   69.3931  226.7442 H   0  0  0  0  0  0  0  0  0  0  0  0
  132.1300   71.2272  227.7824 H   0  0  0  0  0  0  0  0  0  0  0  0
  131.7386   73.6276  227.9859 H   0  0  0  0  0  0  0  0  0  0  0  0
  134.1677   76.4158  225.7583 H   0  0  0  0  0  0  0  0  0  0  0  0
  135.4316   74.4929  224.7797 H   0  0  0  0  0  0  0  0  0  0  0  0
  1  2  2  0
  2  3  1  0
  3  4  1  0
  4  5  1  0
  5  6  2  0
  5  7  1  0
  7  8  1  0
  8  9  1  0
  9 10  1  0
 10 11  1  0
 11 12  1  0
 12 13  1  0
 13 14  1  0
  2 15  1  0
 15 16  2  0
 16 17  1  0
 17 18  2  0
 18 19  1  0
 19 20  2  0
 20 21  1  0
 20 22  1  0
 22 23  2  0
 23 24  1  0
 24 25  2  0
 11  7  1  0
 14 12  1  0
 25 15  1  0
 24 18  1  0
  3 26  1  0
  4 27  1  0
  4 28  1  0
  8 29  1  0
  8 30  1  0
  9 31  1  0
  9 32  1  0
 10 33  1  0
 10 34  1  0
 11 35  1  1
 12 36  1  0
 13 37  1  0
 13 38  1  0
 14 39  1  0
 14 40  1  0
 16 41  1  0
 17 42  1  0
 19 43  1  0
 22 44  1  0
 23 45  1  0
M  END
>  <smiles>  (41) 
O=C(NCC(=O)N1CCCC1C1CC1)c1ccc2cc(Cl)ccc2n1

>  <score_type>  (41) 
oracle

>  <origin>  (41) 
autodockgpu

>  <m_score__min__energy>  (41) 
-8.1999999999999993

>  <m_primary>  (41) 
energy

>  <rmsd>  (41) 
7.950789428268082

>  <m_score__min__rmsd>  (41) 
7.950789428268082

>  <meeko>  (41) 
{"free_energy": -8.18, "intermolecular_energy": -9.67, "internal_energy": -1.39, "cluster_size": 20, "cluster_id": 1, "rank_in_cluster": 11}

>  <energy>  (41) 
-7.5

>  <cluster_rmsd>  (41) 
0.45

>  <cluster>  (41) 
3

$$$$

     RDKit          3D

 45 48  0  0  0  0  0  0  0  0999 V2000
  141.5590   72.1370  221.2720 O   0  0  0  0  0  0  0  0  0  0  0  0
  140.7130   72.7720  221.9520 C   0  0  0  0  0  0  0  0  0  0  0  0
  139.8440   72.1580  222.8760 N   0  0  0  0  0  0  0  0  0  0  0  0
  139.8650   70.7280  223.1100 C   0  0  0  0  0  0  0  0  0  0  0  0
  139.1300   70.4790  224.3860 C   0  0  0  0  0  0  0  0  0  0  0  0
  138.0300   71.0610  224.5670 O   0  0  0  0  0  0  0  0  0  0  0  0
  139.6940   69.5920  225.3570 N   0  0  0  0  0  0  0  0  0  0  0  0
  139.5000   68.1520  225.4160 C   0  0  0  0  0  0  0  0  0  0  0  0
  139.8630   67.7500  226.8170 C   0  0  0  0  0  0  0  0  0  0  0  0
  140.2030   69.0230  227.5500 C   0  0  0  0  0  0  0  0  0  0  0  0
  140.5580   69.9920  226.4480 C   0  0  2  0  0  0  0  0  0  0  0  0
  140.3180   71.4260  226.8510 C   0  0  0  0  0  0  0  0  0  0  0  0
  140.3540   71.8280  228.2760 C   0  0  0  0  0  0  0  0  0  0  0  0
  141.4700   72.2810  227.3360 C   0  0  0  0  0  0  0  0  0  0  0  0
  140.6200   74.2350  221.7780 C   0  0  0  0  0  0  0  0  0  0  0  0
  141.5570   74.9290  221.0300 C   0  0  0  0  0  0  0  0  0  0  0  0
  141.4690   76.2980  220.8680 C   0  0  0  0  0  0  0  0  0  0  0  0
  140.4200   76.9520  221.4720 C   0  0  0  0  0  0  0  0  0  0  0  0
  140.2640   78.3180  221.3560 C   0  0  0  0  0  0  0  0  0  0  0  0
  139.1920   78.9680  221.9760 C   0  0  0  0  0  0  0  0  0  0  0  0
  138.9750   80.7020  221.8410 Cl  0  0  0  0  0  0  0  0  0  0  0  0
  138.2680   78.2510  222.7160 C   0  0  0  0  0  0  0  0  0  0  0  0
  138.4200   76.8800  222.8360 C   0  0  0  0  0  0  0  0  0  0  0  0
  139.4800   76.2750  222.2160 C   0  0  0  0  0  0  0  0  0  0  0  0
  139.6180   74.9470  222.3390 N   0  0  0  0  0  0  0  0  0  0  0  0
  139.1590   72.7640  223.4080 H   0  0  0  0  0  0  0  0  0  0  0  0
  139.3688   70.2029  222.2805 H   0  0  0  0  0  0  0  0  0  0  0  0
  140.8988   70.3581  223.1760 H   0  0  0  0  0  0  0  0  0  0  0  0
  138.4512   67.8973  225.2035 H   0  0  0  0  0  0  0  0  0  0  0  0
  140.1167   67.6284  224.6707 H   0  0  0  0  0  0  0  0  0  0  0  0
  139.0126   67.2476  227.3012 H   0  0  0  0  0  0  0  0  0  0  0  0
  140.7094   67.0474  226.8239 H   0  0  0  0  0  0  0  0  0  0  0  0
  139.3392   69.3853  228.1267 H   0  0  0  0  0  0  0  0  0  0  0  0
  141.0179   68.8897  228.2768 H   0  0  0  0  0  0  0  0  0  0  0  0
  141.6257   69.9571  226.1855 H   0  0  0  0  0  0  0  0  0  0  0  0
  139.5715   71.5165  226.0482 H   0  0  0  0  0  0  0  0  0  0  0  0
  139.6274   72.5601  228.6583 H   0  0  0  0  0  0  0  0  0  0  0  0
  140.3184   71.2897  229.2346 H   0  0  0  0  0  0  0  0  0  0  0  0
  141.5450   73.3353  227.0314 H   0  0  0  0  0  0  0  0  0  0  0  0
  142.5673   72.2059  227.3220 H   0  0  0  0  0  0  0  0  0  0  0  0
  142.3851   74.3807  220.5571 H   0  0  0  0  0  0  0  0  0  0  0  0
  142.2143   76.8480  220.2747 H   0  0  0  0  0  0  0  0  0  0  0  0
  140.9897   78.9014  220.7703 H   0  0  0  0  0  0  0  0  0  0  0  0
  137.4246   78.7632  223.2021 H   0  0  0  0  0  0  0  0  0  0  0  0
  137.7009   76.2867  223.4199 H   0  0  0  0  0  0  0  0  0  0  0  0
  1  2  2  0
  2  3  1  0
  3  4  1  0
  4  5  1  0
  5  6  2  0
  5  7  1  0
  7  8  1  0
  8  9  1  0
  9 10  1  0
 10 11  1  0
 11 12  1  0
 12 13  1  0
 13 14  1  0
  2 15  1  0
 15 16  2  0
 16 17  1  0
 17 18  2  0
 18 19  1  0
 19 20  2  0
 20 21  1  0
 20 22  1  0
 22 23  2  0
 23 24  1  0
 24 25  2  0
 11  7  1  0
 14 12  1  0
 25 15  1  0
 24 18  1  0
  3 26  1  0
  4 27  1  0
  4 28  1  0
  8 29  1  0
  8 30  1  0
  9 31  1  0
  9 32  1  0
 10 33  1  0
 10 34  1  0
 11 35  1  6
 12 36  1  0
 13 37  1  0
 13 38  1  0
 14 39  1  0
 14 40  1  0
 16 41  1  0
 17 42  1  0
 19 43  1  0
 22 44  1  0
 23 45  1  0
M  END
>  <smiles>  (42) 
O=C(NCC(=O)N1CCCC1C1CC1)c1ccc2cc(Cl)ccc2n1

>  <score_type>  (42) 
oracle

>  <origin>  (42) 
autodockgpu

>  <m_score__min__energy>  (42) 
-8.1999999999999993

>  <m_primary>  (42) 
energy

>  <rmsd>  (42) 
8.645683021508344

>  <m_score__min__rmsd>  (42) 
8.645683021508344

>  <meeko>  (42) 
{"free_energy": -7.71, "intermolecular_energy": -9.2, "internal_energy": -1.82, "cluster_size": 10, "cluster_id": 2, "rank_in_cluster": 8}

>  <energy>  (42) 
-7.49

>  <cluster_rmsd>  (42) 
0.3

>  <cluster>  (42) 
3

$$$$

     RDKit          3D

 45 48  0  0  0  0  0  0  0  0999 V2000
  135.0730   68.4870  224.8630 O   0  0  0  0  0  0  0  0  0  0  0  0
  135.5340   69.6530  224.9620 C   0  0  0  0  0  0  0  0  0  0  0  0
  136.8180   70.0190  224.5120 N   0  0  0  0  0  0  0  0  0  0  0  0
  137.7130   69.0600  223.8940 C   0  0  0  0  0  0  0  0  0  0  0  0
  138.8060   68.7830  224.8730 C   0  0  0  0  0  0  0  0  0  0  0  0
  139.1470   67.5880  225.0680 O   0  0  0  0  0  0  0  0  0  0  0  0
  139.4300   69.8760  225.5540 N   0  0  0  0  0  0  0  0  0  0  0  0
  139.8950   71.1110  224.9430 C   0  0  0  0  0  0  0  0  0  0  0  0
  140.8690   71.7050  225.9200 C   0  0  0  0  0  0  0  0  0  0  0  0
  140.9770   70.7260  227.0630 C   0  0  0  0  0  0  0  0  0  0  0  0
  139.6990   69.9270  226.9760 C   0  0  2  0  0  0  0  0  0  0  0  0
  139.8500   68.5460  227.5640 C   0  0  0  0  0  0  0  0  0  0  0  0
  141.0640   67.7390  227.3010 C   0  0  0  0  0  0  0  0  0  0  0  0
  140.8230   68.3070  228.7000 C   0  0  0  0  0  0  0  0  0  0  0  0
  134.6910   70.6960  225.5790 C   0  0  0  0  0  0  0  0  0  0  0  0
  133.6580   70.3660  226.4410 C   0  0  0  0  0  0  0  0  0  0  0  0
  132.8700   71.3430  227.0180 C   0  0  0  0  0  0  0  0  0  0  0  0
  133.1430   72.6560  226.7110 C   0  0  0  0  0  0  0  0  0  0  0  0
  132.4020   73.6880  227.2470 C   0  0  0  0  0  0  0  0  0  0  0  0
  132.6920   75.0170  226.9250 C   0  0  0  0  0  0  0  0  0  0  0  0
  131.7630   76.3430  227.5960 Cl  0  0  0  0  0  0  0  0  0  0  0  0
  133.7310   75.3200  226.0620 C   0  0  0  0  0  0  0  0  0  0  0  0
  134.4790   74.2890  225.5210 C   0  0  0  0  0  0  0  0  0  0  0  0
  134.1680   72.9980  225.8570 C   0  0  0  0  0  0  0  0  0  0  0  0
  134.8980   72.0070  225.3270 N   0  0  0  0  0  0  0  0  0  0  0  0
  137.1310   71.0220  224.6330 H   0  0  0  0  0  0  0  0  0  0  0  0
  137.1697   68.1319  223.6628 H   0  0  0  0  0  0  0  0  0  0  0  0
  138.1222   69.4570  222.9533 H   0  0  0  0  0  0  0  0  0  0  0  0
  140.3925   70.9013  223.9846 H   0  0  0  0  0  0  0  0  0  0  0  0
  139.0625   71.7979  224.7305 H   0  0  0  0  0  0  0  0  0  0  0  0
  141.8505   71.8423  225.4428 H   0  0  0  0  0  0  0  0  0  0  0  0
  140.5307   72.6913  226.2705 H   0  0  0  0  0  0  0  0  0  0  0  0
  141.8551   70.0751  226.9396 H   0  0  0  0  0  0  0  0  0  0  0  0
  141.1028   71.2218  228.0368 H   0  0  0  0  0  0  0  0  0  0  0  0
  138.8792   70.3811  227.5520 H   0  0  0  0  0  0  0  0  0  0  0  0
  138.7726   68.3776  227.4195 H   0  0  0  0  0  0  0  0  0  0  0  0
  140.9762   66.6567  227.1254 H   0  0  0  0  0  0  0  0  0  0  0  0
  141.8878   67.7917  226.5739 H   0  0  0  0  0  0  0  0  0  0  0  0
  140.5524   67.6390  229.5310 H   0  0  0  0  0  0  0  0  0  0  0  0
  141.3864   68.9400  229.4013 H   0  0  0  0  0  0  0  0  0  0  0  0
  133.4619   69.3081  226.6699 H   0  0  0  0  0  0  0  0  0  0  0  0
  132.0497   71.0793  227.7017 H   0  0  0  0  0  0  0  0  0  0  0  0
  131.5739   73.4631  227.9352 H   0  0  0  0  0  0  0  0  0  0  0  0
  133.9590   76.3661  225.8096 H   0  0  0  0  0  0  0  0  0  0  0  0
  135.3098   74.5027  224.8324 H   0  0  0  0  0  0  0  0  0  0  0  0
  1  2  2  0
  2  3  1  0
  3  4  1  0
  4  5  1  0
  5  6  2  0
  5  7  1  0
  7  8  1  0
  8  9  1  0
  9 10  1  0
 10 11  1  0
 11 12  1  0
 12 13  1  0
 13 14  1  0
  2 15  1  0
 15 16  2  0
 16 17  1  0
 17 18  2  0
 18 19  1  0
 19 20  2  0
 20 21  1  0
 20 22  1  0
 22 23  2  0
 23 24  1  0
 24 25  2  0
 11  7  1  0
 14 12  1  0
 25 15  1  0
 24 18  1  0
  3 26  1  0
  4 27  1  0
  4 28  1  0
  8 29  1  0
  8 30  1  0
  9 31  1  0
  9 32  1  0
 10 33  1  0
 10 34  1  0
 11 35  1  1
 12 36  1  0
 13 37  1  0
 13 38  1  0
 14 39  1  0
 14 40  1  0
 16 41  1  0
 17 42  1  0
 19 43  1  0
 22 44  1  0
 23 45  1  0
M  END
>  <smiles>  (43) 
O=C(NCC(=O)N1CCCC1C1CC1)c1ccc2cc(Cl)ccc2n1

>  <score_type>  (43) 
oracle

>  <origin>  (43) 
autodockgpu

>  <m_score__min__energy>  (43) 
-8.1999999999999993

>  <m_primary>  (43) 
energy

>  <rmsd>  (43) 
7.990516165554186

>  <m_score__min__rmsd>  (43) 
7.990516165554186

>  <meeko>  (43) 
{"free_energy": -8.19, "intermolecular_energy": -9.68, "internal_energy": -1.36, "cluster_size": 20, "cluster_id": 1, "rank_in_cluster": 6}

>  <energy>  (43) 
-7.47

>  <cluster_rmsd>  (43) 
0.42

>  <cluster>  (43) 
3

$$$$

     RDKit          3D

 45 48  0  0  0  0  0  0  0  0999 V2000
  140.1710   70.2720  221.9460 O   0  0  0  0  0  0  0  0  0  0  0  0
  139.7010   71.3260  222.4460 C   0  0  0  0  0  0  0  0  0  0  0  0
  138.6880   71.3330  223.4250 N   0  0  0  0  0  0  0  0  0  0  0  0
  138.1070   70.1060  223.9330 C   0  0  0  0  0  0  0  0  0  0  0  0
  139.0790   69.5290  224.9090 C   0  0  0  0  0  0  0  0  0  0  0  0
  139.2790   68.2870  224.8910 O   0  0  0  0  0  0  0  0  0  0  0  0
  139.7480   70.3990  225.8270 N   0  0  0  0  0  0  0  0  0  0  0  0
  140.4360   71.6340  225.4890 C   0  0  0  0  0  0  0  0  0  0  0  0
  141.3520   71.9190  226.6450 C   0  0  0  0  0  0  0  0  0  0  0  0
  141.1970   70.7650  227.6050 C   0  0  0  0  0  0  0  0  0  0  0  0
  139.8490   70.1840  227.2560 C   0  0  2  0  0  0  0  0  0  0  0  0
  139.7520   68.7190  227.6060 C   0  0  0  0  0  0  0  0  0  0  0  0
  140.8300   67.7760  227.2250 C   0  0  0  0  0  0  0  0  0  0  0  0
  140.6300   68.1400  228.6960 C   0  0  0  0  0  0  0  0  0  0  0  0
  140.2330   72.6240  221.9870 C   0  0  0  0  0  0  0  0  0  0  0  0
  141.3570   72.6940  221.1800 C   0  0  0  0  0  0  0  0  0  0  0  0
  141.8540   73.9090  220.7520 C   0  0  0  0  0  0  0  0  0  0  0  0
  141.1970   75.0510  221.1510 C   0  0  0  0  0  0  0  0  0  0  0  0
  141.6320   76.3010  220.7650 C   0  0  0  0  0  0  0  0  0  0  0  0
  140.9540   77.4520  221.1780 C   0  0  0  0  0  0  0  0  0  0  0  0
  141.4900   79.0500  220.6980 Cl  0  0  0  0  0  0  0  0  0  0  0  0
  139.8330   77.3540  221.9840 C   0  0  0  0  0  0  0  0  0  0  0  0
  139.3910   76.1020  222.3750 C   0  0  0  0  0  0  0  0  0  0  0  0
  140.0780   74.9960  221.9510 C   0  0  0  0  0  0  0  0  0  0  0  0
  139.6430   73.7880  222.3360 N   0  0  0  0  0  0  0  0  0  0  0  0
  138.3470   72.2640  223.7940 H   0  0  0  0  0  0  0  0  0  0  0  0
  137.1517   70.3205  224.4344 H   0  0  0  0  0  0  0  0  0  0  0  0
  137.9092   69.3989  223.1139 H   0  0  0  0  0  0  0  0  0  0  0  0
  141.0154   71.5089  224.5624 H   0  0  0  0  0  0  0  0  0  0  0  0
  139.7287   72.4591  225.3187 H   0  0  0  0  0  0  0  0  0  0  0  0
  142.3934   71.9877  226.2974 H   0  0  0  0  0  0  0  0  0  0  0  0
  141.1009   72.8754  227.1268 H   0  0  0  0  0  0  0  0  0  0  0  0
  141.9943   70.0219  227.4562 H   0  0  0  0  0  0  0  0  0  0  0  0
  141.2662   71.0758  228.6579 H   0  0  0  0  0  0  0  0  0  0  0  0
  139.0305   70.6551  227.8200 H   0  0  0  0  0  0  0  0  0  0  0  0
  138.6679   68.7569  227.4236 H   0  0  0  0  0  0  0  0  0  0  0  0
  140.5760   66.7664  226.8699 H   0  0  0  0  0  0  0  0  0  0  0  0
  141.6788   67.8099  226.5262 H   0  0  0  0  0  0  0  0  0  0  0  0
  140.2238   67.3992  229.4005 H   0  0  0  0  0  0  0  0  0  0  0  0
  141.2609   68.5482  229.4993 H   0  0  0  0  0  0  0  0  0  0  0  0
  141.8621   71.7657  220.8750 H   0  0  0  0  0  0  0  0  0  0  0  0
  142.7471   73.9627  220.1121 H   0  0  0  0  0  0  0  0  0  0  0  0
  142.5220   76.3938  220.1253 H   0  0  0  0  0  0  0  0  0  0  0  0
  139.3002   78.2596  222.3096 H   0  0  0  0  0  0  0  0  0  0  0  0
  138.5029   75.9972  223.0155 H   0  0  0  0  0  0  0  0  0  0  0  0
  1  2  2  0
  2  3  1  0
  3  4  1  0
  4  5  1  0
  5  6  2  0
  5  7  1  0
  7  8  1  0
  8  9  1  0
  9 10  1  0
 10 11  1  0
 11 12  1  0
 12 13  1  0
 13 14  1  0
  2 15  1  0
 15 16  2  0
 16 17  1  0
 17 18  2  0
 18 19  1  0
 19 20  2  0
 20 21  1  0
 20 22  1  0
 22 23  2  0
 23 24  1  0
 24 25  2  0
 11  7  1  0
 14 12  1  0
 25 15  1  0
 24 18  1  0
  3 26  1  0
  4 27  1  0
  4 28  1  0
  8 29  1  0
  8 30  1  0
  9 31  1  0
  9 32  1  0
 10 33  1  0
 10 34  1  0
 11 35  1  1
 12 36  1  0
 13 37  1  0
 13 38  1  0
 14 39  1  0
 14 40  1  0
 16 41  1  0
 17 42  1  0
 19 43  1  0
 22 44  1  0
 23 45  1  0
M  END
>  <smiles>  (44) 
O=C(NCC(=O)N1CCCC1C1CC1)c1ccc2cc(Cl)ccc2n1

>  <score_type>  (44) 
oracle

>  <origin>  (44) 
autodockgpu

>  <m_score__min__energy>  (44) 
-8.1999999999999993

>  <m_primary>  (44) 
energy

>  <rmsd>  (44) 
7.864196751049042

>  <m_score__min__rmsd>  (44) 
7.864196751049042

>  <meeko>  (44) 
{"free_energy": -7.88, "intermolecular_energy": -9.37, "internal_energy": -1.28, "cluster_size": 10, "cluster_id": 2, "rank_in_cluster": 4}

>  <energy>  (44) 
-7.46

>  <cluster_rmsd>  (44) 
0.69

>  <cluster>  (44) 
3

$$$$

     RDKit          3D

 45 48  0  0  0  0  0  0  0  0999 V2000
  139.9470   72.1680  220.5980 O   0  0  0  0  0  0  0  0  0  0  0  0
  139.8290   72.6200  221.7660 C   0  0  0  0  0  0  0  0  0  0  0  0
  139.6850   73.9920  222.0540 N   0  0  0  0  0  0  0  0  0  0  0  0
  139.6640   74.9940  221.0080 C   0  0  0  0  0  0  0  0  0  0  0  0
  140.4730   76.1530  221.4890 C   0  0  0  0  0  0  0  0  0  0  0  0
  140.4370   76.4400  222.7140 O   0  0  0  0  0  0  0  0  0  0  0  0
  141.2590   76.8960  220.5520 N   0  0  0  0  0  0  0  0  0  0  0  0
  140.8790   78.1500  219.9220 C   0  0  0  0  0  0  0  0  0  0  0  0
  141.7600   78.2800  218.7130 C   0  0  0  0  0  0  0  0  0  0  0  0
  142.5950   77.0250  218.6570 C   0  0  0  0  0  0  0  0  0  0  0  0
  142.5720   76.5120  220.0770 C   0  0  2  0  0  0  0  0  0  0  0  0
  142.7740   75.0180  220.1470 C   0  0  0  0  0  0  0  0  0  0  0  0
  143.4740   74.2970  219.0580 C   0  0  0  0  0  0  0  0  0  0  0  0
  144.1520   74.4520  220.4190 C   0  0  0  0  0  0  0  0  0  0  0  0
  139.8400   71.6700  222.8960 C   0  0  0  0  0  0  0  0  0  0  0  0
  139.2970   70.4020  222.7730 C   0  0  0  0  0  0  0  0  0  0  0  0
  139.3080   69.5140  223.8310 C   0  0  0  0  0  0  0  0  0  0  0  0
  139.8780   69.9290  225.0130 C   0  0  0  0  0  0  0  0  0  0  0  0
  139.9280   69.1000  226.1150 C   0  0  0  0  0  0  0  0  0  0  0  0
  140.5100   69.5360  227.3090 C   0  0  0  0  0  0  0  0  0  0  0  0
  140.5840   68.4990  228.7200 Cl  0  0  0  0  0  0  0  0  0  0  0  0
  141.0480   70.8080  227.4050 C   0  0  0  0  0  0  0  0  0  0  0  0
  141.0010   71.6440  226.3030 C   0  0  0  0  0  0  0  0  0  0  0  0
  140.4230   71.1860  225.1490 C   0  0  0  0  0  0  0  0  0  0  0  0
  140.3820   72.0040  224.0880 N   0  0  0  0  0  0  0  0  0  0  0  0
  139.5920   74.2900  223.0650 H   0  0  0  0  0  0  0  0  0  0  0  0
  140.1028   74.5852  220.0859 H   0  0  0  0  0  0  0  0  0  0  0  0
  138.6323   75.3041  220.7856 H   0  0  0  0  0  0  0  0  0  0  0  0
  139.8204   78.1244  219.6243 H   0  0  0  0  0  0  0  0  0  0  0  0
  141.0009   79.0020  220.6070 H   0  0  0  0  0  0  0  0  0  0  0  0
  141.1473   78.3701  217.8039 H   0  0  0  0  0  0  0  0  0  0  0  0
  142.3930   79.1774  218.7757 H   0  0  0  0  0  0  0  0  0  0  0  0
  142.1525   76.2905  217.9680 H   0  0  0  0  0  0  0  0  0  0  0  0
  143.6148   77.2093  218.2882 H   0  0  0  0  0  0  0  0  0  0  0  0
  143.3882   76.9268  220.6867 H   0  0  0  0  0  0  0  0  0  0  0  0
  141.7874   74.9156  220.6225 H   0  0  0  0  0  0  0  0  0  0  0  0
  143.1140   73.3096  218.7334 H   0  0  0  0  0  0  0  0  0  0  0  0
  143.7515   74.5383  218.0213 H   0  0  0  0  0  0  0  0  0  0  0  0
  144.2735   73.5816  221.0805 H   0  0  0  0  0  0  0  0  0  0  0  0
  145.1107   74.8522  220.7805 H   0  0  0  0  0  0  0  0  0  0  0  0
  138.8490   70.0966  221.8159 H   0  0  0  0  0  0  0  0  0  0  0  0
  138.8751   68.5076  223.7320 H   0  0  0  0  0  0  0  0  0  0  0  0
  139.5058   68.0861  226.0534 H   0  0  0  0  0  0  0  0  0  0  0  0
  141.5067   71.1497  228.3446 H   0  0  0  0  0  0  0  0  0  0  0  0
  141.4209   72.6594  226.3532 H   0  0  0  0  0  0  0  0  0  0  0  0
  1  2  2  0
  2  3  1  0
  3  4  1  0
  4  5  1  0
  5  6  2  0
  5  7  1  0
  7  8  1  0
  8  9  1  0
  9 10  1  0
 10 11  1  0
 11 12  1  0
 12 13  1  0
 13 14  1  0
  2 15  1  0
 15 16  2  0
 16 17  1  0
 17 18  2  0
 18 19  1  0
 19 20  2  0
 20 21  1  0
 20 22  1  0
 22 23  2  0
 23 24  1  0
 24 25  2  0
 11  7  1  0
 14 12  1  0
 25 15  1  0
 24 18  1  0
  3 26  1  0
  4 27  1  0
  4 28  1  0
  8 29  1  0
  8 30  1  0
  9 31  1  0
  9 32  1  0
 10 33  1  0
 10 34  1  0
 11 35  1  1
 12 36  1  0
 13 37  1  0
 13 38  1  0
 14 39  1  0
 14 40  1  0
 16 41  1  0
 17 42  1  0
 19 43  1  0
 22 44  1  0
 23 45  1  0
M  END
>  <smiles>  (45) 
O=C(NCC(=O)N1CCCC1C1CC1)c1ccc2cc(Cl)ccc2n1

>  <score_type>  (45) 
oracle

>  <origin>  (45) 
autodockgpu

>  <m_score__min__energy>  (45) 
-8.1999999999999993

>  <m_primary>  (45) 
energy

>  <rmsd>  (45) 
2.080295943196975

>  <m_score__min__rmsd>  (45) 
2.080295943196975

>  <meeko>  (45) 
{"free_energy": -7.2, "intermolecular_energy": -8.69, "internal_energy": -1.79, "cluster_size": 20, "cluster_id": 3, "rank_in_cluster": 19}

>  <energy>  (45) 
-7.4

>  <cluster_rmsd>  (45) 
1.83

>  <cluster>  (45) 
3

$$$$

     RDKit          3D

 45 48  0  0  0  0  0  0  0  0999 V2000
  140.0080   72.5370  220.7540 O   0  0  0  0  0  0  0  0  0  0  0  0
  139.8090   72.9150  221.9370 C   0  0  0  0  0  0  0  0  0  0  0  0
  139.5310   74.2520  222.2870 N   0  0  0  0  0  0  0  0  0  0  0  0
  139.4540   75.3010  221.2910 C   0  0  0  0  0  0  0  0  0  0  0  0
  140.8120   75.9110  221.1860 C   0  0  0  0  0  0  0  0  0  0  0  0
  141.8000   75.2470  221.5940 O   0  0  0  0  0  0  0  0  0  0  0  0
  140.9510   77.2220  220.6290 N   0  0  0  0  0  0  0  0  0  0  0  0
  141.4340   77.5370  219.2950 C   0  0  0  0  0  0  0  0  0  0  0  0
  141.8470   78.9810  219.3430 C   0  0  0  0  0  0  0  0  0  0  0  0
  141.6360   79.4370  220.7650 C   0  0  0  0  0  0  0  0  0  0  0  0
  140.6270   78.4560  221.3130 C   0  0  2  0  0  0  0  0  0  0  0  0
  140.7330   78.3070  222.8110 C   0  0  0  0  0  0  0  0  0  0  0  0
  141.8550   78.9230  223.5560 C   0  0  0  0  0  0  0  0  0  0  0  0
  140.4440   79.4890  223.7130 C   0  0  0  0  0  0  0  0  0  0  0  0
  139.8690   71.9120  223.0190 C   0  0  0  0  0  0  0  0  0  0  0  0
  139.4290   70.6140  222.8190 C   0  0  0  0  0  0  0  0  0  0  0  0
  139.4860   69.6770  223.8320 C   0  0  0  0  0  0  0  0  0  0  0  0
  139.9930   70.0720  225.0480 C   0  0  0  0  0  0  0  0  0  0  0  0
  140.0830   69.1940  226.1080 C   0  0  0  0  0  0  0  0  0  0  0  0
  140.6010   69.6110  227.3380 C   0  0  0  0  0  0  0  0  0  0  0  0
  140.7240   68.5120  228.6960 Cl  0  0  0  0  0  0  0  0  0  0  0  0
  141.0350   70.9140  227.5110 C   0  0  0  0  0  0  0  0  0  0  0  0
  140.9490   71.8000  226.4510 C   0  0  0  0  0  0  0  0  0  0  0  0
  140.4360   71.3580  225.2600 C   0  0  0  0  0  0  0  0  0  0  0  0
  140.3550   72.2240  224.2400 N   0  0  0  0  0  0  0  0  0  0  0  0
  139.3760   74.4870  223.3060 H   0  0  0  0  0  0  0  0  0  0  0  0
  139.1549   74.8780  220.3206 H   0  0  0  0  0  0  0  0  0  0  0  0
  138.7077   76.0568  221.5771 H   0  0  0  0  0  0  0  0  0  0  0  0
  142.2936   76.9005  219.0380 H   0  0  0  0  0  0  0  0  0  0  0  0
  140.6622   77.3605  218.5314 H   0  0  0  0  0  0  0  0  0  0  0  0
  142.9061   79.0833  219.0638 H   0  0  0  0  0  0  0  0  0  0  0  0
  141.2593   79.5876  218.6383 H   0  0  0  0  0  0  0  0  0  0  0  0
  142.5760   79.3914  221.3345 H   0  0  0  0  0  0  0  0  0  0  0  0
  141.2933   80.4802  220.8304 H   0  0  0  0  0  0  0  0  0  0  0  0
  139.5899   78.7811  221.1435 H   0  0  0  0  0  0  0  0  0  0  0  0
  140.3403   77.2829  222.7273 H   0  0  0  0  0  0  0  0  0  0  0  0
  142.3243   78.3797  224.3894 H   0  0  0  0  0  0  0  0  0  0  0  0
  142.8325   79.3435  223.2775 H   0  0  0  0  0  0  0  0  0  0  0  0
  139.8908   79.3473  224.6531 H   0  0  0  0  0  0  0  0  0  0  0  0
  139.9728   80.4756  223.5924 H   0  0  0  0  0  0  0  0  0  0  0  0
  139.0274   70.3245  221.8367 H   0  0  0  0  0  0  0  0  0  0  0  0
  139.1366   68.6464  223.6712 H   0  0  0  0  0  0  0  0  0  0  0  0
  139.7437   68.1550  225.9844 H   0  0  0  0  0  0  0  0  0  0  0  0
  141.4431   71.2412  228.4787 H   0  0  0  0  0  0  0  0  0  0  0  0
  141.2867   72.8409  226.5629 H   0  0  0  0  0  0  0  0  0  0  0  0
  1  2  2  0
  2  3  1  0
  3  4  1  0
  4  5  1  0
  5  6  2  0
  5  7  1  0
  7  8  1  0
  8  9  1  0
  9 10  1  0
 10 11  1  0
 11 12  1  0
 12 13  1  0
 13 14  1  0
  2 15  1  0
 15 16  2  0
 16 17  1  0
 17 18  2  0
 18 19  1  0
 19 20  2  0
 20 21  1  0
 20 22  1  0
 22 23  2  0
 23 24  1  0
 24 25  2  0
 11  7  1  0
 14 12  1  0
 25 15  1  0
 24 18  1  0
  3 26  1  0
  4 27  1  0
  4 28  1  0
  8 29  1  0
  8 30  1  0
  9 31  1  0
  9 32  1  0
 10 33  1  0
 10 34  1  0
 11 35  1  1
 12 36  1  0
 13 37  1  0
 13 38  1  0
 14 39  1  0
 14 40  1  0
 16 41  1  0
 17 42  1  0
 19 43  1  0
 22 44  1  0
 23 45  1  0
M  END
>  <smiles>  (46) 
O=C(NCC(=O)N1CCCC1C1CC1)c1ccc2cc(Cl)ccc2n1

>  <score_type>  (46) 
oracle

>  <origin>  (46) 
autodockgpu

>  <m_score__min__energy>  (46) 
-8.1999999999999993

>  <m_primary>  (46) 
energy

>  <rmsd>  (46) 
2.371993181468297

>  <m_score__min__rmsd>  (46) 
2.371993181468297

>  <meeko>  (46) 
{"free_energy": -7.65, "intermolecular_energy": -9.15, "internal_energy": -1.28, "cluster_size": 20, "cluster_id": 3, "rank_in_cluster": 4}

>  <energy>  (46) 
-7.33

>  <cluster_rmsd>  (46) 
0.78

>  <cluster>  (46) 
3

$$$$

     RDKit          3D

 45 48  0  0  0  0  0  0  0  0999 V2000
  139.7070   72.2100  220.6100 O   0  0  0  0  0  0  0  0  0  0  0  0
  139.6870   72.6570  221.7860 C   0  0  0  0  0  0  0  0  0  0  0  0
  139.6040   74.0310  222.0900 N   0  0  0  0  0  0  0  0  0  0  0  0
  139.5370   75.0400  221.0530 C   0  0  0  0  0  0  0  0  0  0  0  0
  140.2640   76.2420  221.5590 C   0  0  0  0  0  0  0  0  0  0  0  0
  140.4800   76.3350  222.7950 O   0  0  0  0  0  0  0  0  0  0  0  0
  140.6900   77.2450  220.6310 N   0  0  0  0  0  0  0  0  0  0  0  0
  141.2670   77.0050  219.3180 C   0  0  0  0  0  0  0  0  0  0  0  0
  141.9720   78.2780  218.9450 C   0  0  0  0  0  0  0  0  0  0  0  0
  141.8210   79.2080  220.1230 C   0  0  0  0  0  0  0  0  0  0  0  0
  140.6140   78.6730  220.8540 C   0  0  2  0  0  0  0  0  0  0  0  0
  140.6430   79.0090  222.3250 C   0  0  0  0  0  0  0  0  0  0  0  0
  141.9230   79.0380  223.0700 C   0  0  0  0  0  0  0  0  0  0  0  0
  141.1850   80.3460  222.7870 C   0  0  0  0  0  0  0  0  0  0  0  0
  139.7520   71.7000  222.9070 C   0  0  0  0  0  0  0  0  0  0  0  0
  139.2640   70.4100  222.7790 C   0  0  0  0  0  0  0  0  0  0  0  0
  139.3260   69.5150  223.8290 C   0  0  0  0  0  0  0  0  0  0  0  0
  139.8870   69.9450  225.0090 C   0  0  0  0  0  0  0  0  0  0  0  0
  139.9850   69.1100  226.1030 C   0  0  0  0  0  0  0  0  0  0  0  0
  140.5580   69.5610  227.2960 C   0  0  0  0  0  0  0  0  0  0  0  0
  140.6930   68.5170  228.6970 Cl  0  0  0  0  0  0  0  0  0  0  0  0
  141.0390   70.8550  227.3980 C   0  0  0  0  0  0  0  0  0  0  0  0
  140.9440   71.6980  226.3040 C   0  0  0  0  0  0  0  0  0  0  0  0
  140.3770   71.2230  225.1510 C   0  0  0  0  0  0  0  0  0  0  0  0
  140.2890   72.0470  224.0970 N   0  0  0  0  0  0  0  0  0  0  0  0
  139.5920   74.3250  223.1060 H   0  0  0  0  0  0  0  0  0  0  0  0
  140.0155   74.6690  220.1347 H   0  0  0  0  0  0  0  0  0  0  0  0
  138.4918   75.2871  220.8155 H   0  0  0  0  0  0  0  0  0  0  0  0
  141.9810   76.1692  219.3597 H   0  0  0  0  0  0  0  0  0  0  0  0
  140.4976   76.7356  218.5795 H   0  0  0  0  0  0  0  0  0  0  0  0
  143.0364   78.0805  218.7499 H   0  0  0  0  0  0  0  0  0  0  0  0
  141.5451   78.7180  218.0317 H   0  0  0  0  0  0  0  0  0  0  0  0
  142.7138   79.1752  220.7648 H   0  0  0  0  0  0  0  0  0  0  0  0
  141.7034   80.2594  219.8217 H   0  0  0  0  0  0  0  0  0  0  0  0
  139.6741   79.1146  220.4914 H   0  0  0  0  0  0  0  0  0  0  0  0
  139.6922   78.4718  222.4569 H   0  0  0  0  0  0  0  0  0  0  0  0
  141.9697   78.6451  224.0964 H   0  0  0  0  0  0  0  0  0  0  0  0
  142.9399   78.6645  222.8791 H   0  0  0  0  0  0  0  0  0  0  0  0
  140.6912   80.8924  223.6041 H   0  0  0  0  0  0  0  0  0  0  0  0
  141.4347   81.3035  222.3066 H   0  0  0  0  0  0  0  0  0  0  0  0
  138.8193   70.0928  221.8242 H   0  0  0  0  0  0  0  0  0  0  0  0
  138.9390   68.4906  223.7249 H   0  0  0  0  0  0  0  0  0  0  0  0
  139.6084   68.0787  226.0359 H   0  0  0  0  0  0  0  0  0  0  0  0
  141.4909   71.2089  228.3363 H   0  0  0  0  0  0  0  0  0  0  0  0
  141.3173   72.7312  226.3596 H   0  0  0  0  0  0  0  0  0  0  0  0
  1  2  2  0
  2  3  1  0
  3  4  1  0
  4  5  1  0
  5  6  2  0
  5  7  1  0
  7  8  1  0
  8  9  1  0
  9 10  1  0
 10 11  1  0
 11 12  1  0
 12 13  1  0
 13 14  1  0
  2 15  1  0
 15 16  2  0
 16 17  1  0
 17 18  2  0
 18 19  1  0
 19 20  2  0
 20 21  1  0
 20 22  1  0
 22 23  2  0
 23 24  1  0
 24 25  2  0
 11  7  1  0
 14 12  1  0
 25 15  1  0
 24 18  1  0
  3 26  1  0
  4 27  1  0
  4 28  1  0
  8 29  1  0
  8 30  1  0
  9 31  1  0
  9 32  1  0
 10 33  1  0
 10 34  1  0
 11 35  1  6
 12 36  1  0
 13 37  1  0
 13 38  1  0
 14 39  1  0
 14 40  1  0
 16 41  1  0
 17 42  1  0
 19 43  1  0
 22 44  1  0
 23 45  1  0
M  END
>  <smiles>  (47) 
O=C(NCC(=O)N1CCCC1C1CC1)c1ccc2cc(Cl)ccc2n1

>  <score_type>  (47) 
oracle

>  <origin>  (47) 
autodockgpu

>  <m_score__min__energy>  (47) 
-8.1999999999999993

>  <m_primary>  (47) 
energy

>  <rmsd>  (47) 
2.1056432458210868

>  <m_score__min__rmsd>  (47) 
2.1056432458210868

>  <meeko>  (47) 
{"free_energy": -7.47, "intermolecular_energy": -8.96, "internal_energy": -1.66, "cluster_size": 20, "cluster_id": 3, "rank_in_cluster": 13}

>  <energy>  (47) 
-7.31

>  <cluster_rmsd>  (47) 
0.73

>  <cluster>  (47) 
3

$$$$

     RDKit          3D

 45 48  0  0  0  0  0  0  0  0999 V2000
  140.4270   72.3210  220.6530 O   0  0  0  0  0  0  0  0  0  0  0  0
  140.0180   72.7060  221.7780 C   0  0  0  0  0  0  0  0  0  0  0  0
  139.5570   74.0140  222.0290 N   0  0  0  0  0  0  0  0  0  0  0  0
  139.5230   75.0240  220.9910 C   0  0  0  0  0  0  0  0  0  0  0  0
  139.7590   76.3420  221.6500 C   0  0  0  0  0  0  0  0  0  0  0  0
  139.4130   76.4820  222.8510 O   0  0  0  0  0  0  0  0  0  0  0  0
  140.3680   77.4000  220.9020 N   0  0  0  0  0  0  0  0  0  0  0  0
  140.9370   77.2870  219.5680 C   0  0  0  0  0  0  0  0  0  0  0  0
  141.8480   78.4710  219.4140 C   0  0  0  0  0  0  0  0  0  0  0  0
  141.8150   79.2080  220.7290 C   0  0  0  0  0  0  0  0  0  0  0  0
  140.5170   78.7660  221.3590 C   0  0  2  0  0  0  0  0  0  0  0  0
  140.5570   78.8470  222.8660 C   0  0  0  0  0  0  0  0  0  0  0  0
  141.8290   78.6540  223.6000 C   0  0  0  0  0  0  0  0  0  0  0  0
  141.1930   80.0430  223.5440 C   0  0  0  0  0  0  0  0  0  0  0  0
  140.0180   71.7430  222.8970 C   0  0  0  0  0  0  0  0  0  0  0  0
  139.5240   70.4580  222.7380 C   0  0  0  0  0  0  0  0  0  0  0  0
  139.5240   69.5580  223.7860 C   0  0  0  0  0  0  0  0  0  0  0  0
  140.0320   69.9770  224.9940 C   0  0  0  0  0  0  0  0  0  0  0  0
  140.0670   69.1360  226.0870 C   0  0  0  0  0  0  0  0  0  0  0  0
  140.5860   69.5760  227.3090 C   0  0  0  0  0  0  0  0  0  0  0  0
  140.6400   68.5240  228.7090 Cl  0  0  0  0  0  0  0  0  0  0  0  0
  141.0750   70.8640  227.4410 C   0  0  0  0  0  0  0  0  0  0  0  0
  141.0430   71.7120  226.3480 C   0  0  0  0  0  0  0  0  0  0  0  0
  140.5280   71.2490  225.1660 C   0  0  0  0  0  0  0  0  0  0  0  0
  140.5000   72.0790  224.1140 N   0  0  0  0  0  0  0  0  0  0  0  0
  139.2300   74.2570  223.0050 H   0  0  0  0  0  0  0  0  0  0  0  0
  140.3102   74.8277  220.2482 H   0  0  0  0  0  0  0  0  0  0  0  0
  138.5544   75.0159  220.4698 H   0  0  0  0  0  0  0  0  0  0  0  0
  141.5056   76.3503  219.4715 H   0  0  0  0  0  0  0  0  0  0  0  0
  140.1563   77.2715  218.7932 H   0  0  0  0  0  0  0  0  0  0  0  0
  142.8719   78.1366  219.1910 H   0  0  0  0  0  0  0  0  0  0  0  0
  141.5237   79.1184  218.5860 H   0  0  0  0  0  0  0  0  0  0  0  0
  142.6719   78.9250  221.3581 H   0  0  0  0  0  0  0  0  0  0  0  0
  141.8773   80.2993  220.6059 H   0  0  0  0  0  0  0  0  0  0  0  0
  139.6719   79.4094  221.0731 H   0  0  0  0  0  0  0  0  0  0  0  0
  139.5675   78.3684  222.9095 H   0  0  0  0  0  0  0  0  0  0  0  0
  141.8373   78.0918  224.5455 H   0  0  0  0  0  0  0  0  0  0  0  0
  142.8167   78.2426  223.3449 H   0  0  0  0  0  0  0  0  0  0  0  0
  140.7343   80.4798  224.4433 H   0  0  0  0  0  0  0  0  0  0  0  0
  141.5175   81.0462  223.2305 H   0  0  0  0  0  0  0  0  0  0  0  0
  139.1250   70.1494  221.7605 H   0  0  0  0  0  0  0  0  0  0  0  0
  139.1304   68.5388  223.6587 H   0  0  0  0  0  0  0  0  0  0  0  0
  139.6829   68.1092  225.9966 H   0  0  0  0  0  0  0  0  0  0  0  0
  141.4837   71.2091  228.4022 H   0  0  0  0  0  0  0  0  0  0  0  0
  141.4247   72.7406  226.4269 H   0  0  0  0  0  0  0  0  0  0  0  0
  1  2  2  0
  2  3  1  0
  3  4  1  0
  4  5  1  0
  5  6  2  0
  5  7  1  0
  7  8  1  0
  8  9  1  0
  9 10  1  0
 10 11  1  0
 11 12  1  0
 12 13  1  0
 13 14  1  0
  2 15  1  0
 15 16  2  0
 16 17  1  0
 17 18  2  0
 18 19  1  0
 19 20  2  0
 20 21  1  0
 20 22  1  0
 22 23  2  0
 23 24  1  0
 24 25  2  0
 11  7  1  0
 14 12  1  0
 25 15  1  0
 24 18  1  0
  3 26  1  0
  4 27  1  0
  4 28  1  0
  8 29  1  0
  8 30  1  0
  9 31  1  0
  9 32  1  0
 10 33  1  0
 10 34  1  0
 11 35  1  6
 12 36  1  0
 13 37  1  0
 13 38  1  0
 14 39  1  0
 14 40  1  0
 16 41  1  0
 17 42  1  0
 19 43  1  0
 22 44  1  0
 23 45  1  0
M  END
>  <smiles>  (48) 
O=C(NCC(=O)N1CCCC1C1CC1)c1ccc2cc(Cl)ccc2n1

>  <score_type>  (48) 
oracle

>  <origin>  (48) 
autodockgpu

>  <m_score__min__energy>  (48) 
-8.1999999999999993

>  <m_primary>  (48) 
energy

>  <rmsd>  (48) 
2.266190635890927

>  <m_score__min__rmsd>  (48) 
2.266190635890927

>  <meeko>  (48) 
{"free_energy": -7.68, "intermolecular_energy": -9.17, "internal_energy": -1.47, "cluster_size": 20, "cluster_id": 3, "rank_in_cluster": 2}

>  <energy>  (48) 
-7.23

>  <cluster_rmsd>  (48) 
1.61

>  <cluster>  (48) 
3

$$$$

     RDKit          3D

 45 48  0  0  0  0  0  0  0  0999 V2000
  140.1290   72.2280  220.6100 O   0  0  0  0  0  0  0  0  0  0  0  0
  139.9480   72.6620  221.7760 C   0  0  0  0  0  0  0  0  0  0  0  0
  139.7370   74.0240  222.0720 N   0  0  0  0  0  0  0  0  0  0  0  0
  139.7130   75.0350  221.0340 C   0  0  0  0  0  0  0  0  0  0  0  0
  140.6710   76.1060  221.4400 C   0  0  0  0  0  0  0  0  0  0  0  0
  140.6500   76.5090  222.6310 O   0  0  0  0  0  0  0  0  0  0  0  0
  141.5780   76.6380  220.4690 N   0  0  0  0  0  0  0  0  0  0  0  0
  141.4090   77.8780  219.7300 C   0  0  0  0  0  0  0  0  0  0  0  0
  142.3190   77.7690  218.5390 C   0  0  0  0  0  0  0  0  0  0  0  0
  142.9490   76.4000  218.6090 C   0  0  0  0  0  0  0  0  0  0  0  0
  142.8230   76.0180  220.0640 C   0  0  2  0  0  0  0  0  0  0  0  0
  142.7890   74.5220  220.2600 C   0  0  0  0  0  0  0  0  0  0  0  0
  143.2800   73.6090  219.2020 C   0  0  0  0  0  0  0  0  0  0  0  0
  144.0760   73.7590  220.4980 C   0  0  0  0  0  0  0  0  0  0  0  0
  139.9570   71.7010  222.8970 C   0  0  0  0  0  0  0  0  0  0  0  0
  139.4730   70.4130  222.7420 C   0  0  0  0  0  0  0  0  0  0  0  0
  139.4820   69.5150  223.7910 C   0  0  0  0  0  0  0  0  0  0  0  0
  139.9880   69.9400  224.9980 C   0  0  0  0  0  0  0  0  0  0  0  0
  140.0310   69.1020  226.0930 C   0  0  0  0  0  0  0  0  0  0  0  0
  140.5490   69.5490  227.3130 C   0  0  0  0  0  0  0  0  0  0  0  0
  140.6130   68.5010  228.7160 Cl  0  0  0  0  0  0  0  0  0  0  0  0
  141.0280   70.8410  227.4410 C   0  0  0  0  0  0  0  0  0  0  0  0
  140.9870   71.6870  226.3460 C   0  0  0  0  0  0  0  0  0  0  0  0
  140.4740   71.2170  225.1660 C   0  0  0  0  0  0  0  0  0  0  0  0
  140.4390   72.0440  224.1120 N   0  0  0  0  0  0  0  0  0  0  0  0
  139.5930   74.3070  223.0800 H   0  0  0  0  0  0  0  0  0  0  0  0
  140.0222   74.5968  220.0736 H   0  0  0  0  0  0  0  0  0  0  0  0
  138.6993   75.4438  220.9098 H   0  0  0  0  0  0  0  0  0  0  0  0
  140.3642   77.9915  219.4052 H   0  0  0  0  0  0  0  0  0  0  0  0
  141.6521   78.7551  220.3477 H   0  0  0  0  0  0  0  0  0  0  0  0
  141.7422   77.8753  217.6084 H   0  0  0  0  0  0  0  0  0  0  0  0
  143.0828   78.5606  218.5466 H   0  0  0  0  0  0  0  0  0  0  0  0
  142.4088   75.6871  217.9687 H   0  0  0  0  0  0  0  0  0  0  0  0
  143.9911   76.3934  218.2567 H   0  0  0  0  0  0  0  0  0  0  0  0
  143.6838   76.3524  220.6616 H   0  0  0  0  0  0  0  0  0  0  0  0
  141.8378   74.6238  220.8030 H   0  0  0  0  0  0  0  0  0  0  0  0
  142.7430   72.6720  218.9931 H   0  0  0  0  0  0  0  0  0  0  0  0
  143.5129   73.7160  218.1323 H   0  0  0  0  0  0  0  0  0  0  0  0
  144.1067   72.9371  221.2285 H   0  0  0  0  0  0  0  0  0  0  0  0
  145.1111   74.0225  220.7610 H   0  0  0  0  0  0  0  0  0  0  0  0
  139.0743   70.0995  221.7659 H   0  0  0  0  0  0  0  0  0  0  0  0
  139.0968   68.4923  223.6657 H   0  0  0  0  0  0  0  0  0  0  0  0
  139.6543   68.0722  226.0058 H   0  0  0  0  0  0  0  0  0  0  0  0
  141.4361   71.1913  228.4006 H   0  0  0  0  0  0  0  0  0  0  0  0
  141.3600   72.7190  226.4222 H   0  0  0  0  0  0  0  0  0  0  0  0
  1  2  2  0
  2  3  1  0
  3  4  1  0
  4  5  1  0
  5  6  2  0
  5  7  1  0
  7  8  1  0
  8  9  1  0
  9 10  1  0
 10 11  1  0
 11 12  1  0
 12 13  1  0
 13 14  1  0
  2 15  1  0
 15 16  2  0
 16 17  1  0
 17 18  2  0
 18 19  1  0
 19 20  2  0
 20 21  1  0
 20 22  1  0
 22 23  2  0
 23 24  1  0
 24 25  2  0
 11  7  1  0
 14 12  1  0
 25 15  1  0
 24 18  1  0
  3 26  1  0
  4 27  1  0
  4 28  1  0
  8 29  1  0
  8 30  1  0
  9 31  1  0
  9 32  1  0
 10 33  1  0
 10 34  1  0
 11 35  1  1
 12 36  1  0
 13 37  1  0
 13 38  1  0
 14 39  1  0
 14 40  1  0
 16 41  1  0
 17 42  1  0
 19 43  1  0
 22 44  1  0
 23 45  1  0
M  END
>  <smiles>  (49) 
O=C(NCC(=O)N1CCCC1C1CC1)c1ccc2cc(Cl)ccc2n1

>  <score_type>  (49) 
oracle

>  <origin>  (49) 
autodockgpu

>  <m_score__min__energy>  (49) 
-8.1999999999999993

>  <m_primary>  (49) 
energy

>  <rmsd>  (49) 
2.1723567169836495

>  <m_score__min__rmsd>  (49) 
2.1723567169836495

>  <meeko>  (49) 
{"free_energy": -7.23, "intermolecular_energy": -8.72, "internal_energy": -1.76, "cluster_size": 20, "cluster_id": 3, "rank_in_cluster": 18}

>  <energy>  (49) 
-7.2

>  <cluster_rmsd>  (49) 
1.47

>  <cluster>  (49) 
3

$$$$

     RDKit          3D

 45 48  0  0  0  0  0  0  0  0999 V2000
  139.9170   72.6150  220.5170 O   0  0  0  0  0  0  0  0  0  0  0  0
  139.7990   73.0030  221.7080 C   0  0  0  0  0  0  0  0  0  0  0  0
  139.6710   74.3590  222.0720 N   0  0  0  0  0  0  0  0  0  0  0  0
  139.6660   75.4180  221.0820 C   0  0  0  0  0  0  0  0  0  0  0  0
  140.5360   76.5130  221.6040 C   0  0  0  0  0  0  0  0  0  0  0  0
  140.9980   76.4080  222.7700 O   0  0  0  0  0  0  0  0  0  0  0  0
  140.8170   77.6410  220.7700 N   0  0  0  0  0  0  0  0  0  0  0  0
  141.2490   77.5920  219.3820 C   0  0  0  0  0  0  0  0  0  0  0  0
  141.8600   78.9350  219.1000 C   0  0  0  0  0  0  0  0  0  0  0  0
  141.8120   79.7060  220.3950 C   0  0  0  0  0  0  0  0  0  0  0  0
  140.7160   79.0260  221.1790 C   0  0  2  0  0  0  0  0  0  0  0  0
  140.9020   79.1810  222.6690 C   0  0  0  0  0  0  0  0  0  0  0  0
  142.2540   79.3380  223.2520 C   0  0  0  0  0  0  0  0  0  0  0  0
  141.2910   80.5250  223.2500 C   0  0  0  0  0  0  0  0  0  0  0  0
  139.7940   71.9920  222.7840 C   0  0  0  0  0  0  0  0  0  0  0  0
  139.1940   70.7570  222.6040 C   0  0  0  0  0  0  0  0  0  0  0  0
  139.1900   69.8120  223.6120 C   0  0  0  0  0  0  0  0  0  0  0  0
  139.8030   70.1350  224.8010 C   0  0  0  0  0  0  0  0  0  0  0  0
  139.8410   69.2450  225.8530 C   0  0  0  0  0  0  0  0  0  0  0  0
  140.4670   69.5880  227.0550 C   0  0  0  0  0  0  0  0  0  0  0  0
  140.5270   68.4710  228.4050 Cl  0  0  0  0  0  0  0  0  0  0  0  0
  141.0610   70.8290  227.2080 C   0  0  0  0  0  0  0  0  0  0  0  0
  141.0270   71.7270  226.1550 C   0  0  0  0  0  0  0  0  0  0  0  0
  140.4050   71.3580  224.9920 C   0  0  0  0  0  0  0  0  0  0  0  0
  140.3760   72.2350  223.9790 N   0  0  0  0  0  0  0  0  0  0  0  0
  139.5770   74.6020  223.0960 H   0  0  0  0  0  0  0  0  0  0  0  0
  140.0634   75.0434  220.1272 H   0  0  0  0  0  0  0  0  0  0  0  0
  138.6434   75.7823  220.9044 H   0  0  0  0  0  0  0  0  0  0  0  0
  141.9930   76.7944  219.2396 H   0  0  0  0  0  0  0  0  0  0  0  0
  140.4110   77.3760  218.7029 H   0  0  0  0  0  0  0  0  0  0  0  0
  142.9015   78.8165  218.7664 H   0  0  0  0  0  0  0  0  0  0  0  0
  141.3148   79.4612  218.3026 H   0  0  0  0  0  0  0  0  0  0  0  0
  142.7729   79.6396  220.9264 H   0  0  0  0  0  0  0  0  0  0  0  0
  141.6238   80.7792  220.2442 H   0  0  0  0  0  0  0  0  0  0  0  0
  139.7255   79.4609  220.9795 H   0  0  0  0  0  0  0  0  0  0  0  0
  140.0738   78.4764  222.8350 H   0  0  0  0  0  0  0  0  0  0  0  0
  142.5052   78.8367  224.1984 H   0  0  0  0  0  0  0  0  0  0  0  0
  143.2789   79.1706  222.8893 H   0  0  0  0  0  0  0  0  0  0  0  0
  140.8395   80.8748  224.1901 H   0  0  0  0  0  0  0  0  0  0  0  0
  141.3197   81.5625  222.8858 H   0  0  0  0  0  0  0  0  0  0  0  0
  138.7126   70.5245  221.6427 H   0  0  0  0  0  0  0  0  0  0  0  0
  138.7117   68.8319  223.4685 H   0  0  0  0  0  0  0  0  0  0  0  0
  139.3740   68.2549  225.7456 H   0  0  0  0  0  0  0  0  0  0  0  0
  141.5536   71.0981  228.1540 H   0  0  0  0  0  0  0  0  0  0  0  0
  141.4914   72.7195  226.2507 H   0  0  0  0  0  0  0  0  0  0  0  0
  1  2  2  0
  2  3  1  0
  3  4  1  0
  4  5  1  0
  5  6  2  0
  5  7  1  0
  7  8  1  0
  8  9  1  0
  9 10  1  0
 10 11  1  0
 11 12  1  0
 12 13  1  0
 13 14  1  0
  2 15  1  0
 15 16  2  0
 16 17  1  0
 17 18  2  0
 18 19  1  0
 19 20  2  0
 20 21  1  0
 20 22  1  0
 22 23  2  0
 23 24  1  0
 24 25  2  0
 11  7  1  0
 14 12  1  0
 25 15  1  0
 24 18  1  0
  3 26  1  0
  4 27  1  0
  4 28  1  0
  8 29  1  0
  8 30  1  0
  9 31  1  0
  9 32  1  0
 10 33  1  0
 10 34  1  0
 11 35  1  6
 12 36  1  0
 13 37  1  0
 13 38  1  0
 14 39  1  0
 14 40  1  0
 16 41  1  0
 17 42  1  0
 19 43  1  0
 22 44  1  0
 23 45  1  0
M  END
>  <smiles>  (50) 
O=C(NCC(=O)N1CCCC1C1CC1)c1ccc2cc(Cl)ccc2n1

>  <score_type>  (50) 
oracle

>  <origin>  (50) 
autodockgpu

>  <m_score__min__energy>  (50) 
-8.1999999999999993

>  <m_primary>  (50) 
energy

>  <rmsd>  (50) 
2.4392830282528313

>  <m_score__min__rmsd>  (50) 
2.4392830282528313

>  <meeko>  (50) 
{"free_energy": -7.66, "intermolecular_energy": -9.15, "internal_energy": -1.55, "cluster_size": 20, "cluster_id": 3, "rank_in_cluster": 3}

>  <energy>  (50) 
-7.19

>  <cluster_rmsd>  (50) 
1.04

>  <cluster>  (50) 
3

$$$$

     RDKit          3D

 45 48  0  0  0  0  0  0  0  0999 V2000
  139.2550   69.6060  222.1450 O   0  0  0  0  0  0  0  0  0  0  0  0
  139.1820   70.6680  222.8020 C   0  0  0  0  0  0  0  0  0  0  0  0
  138.4880   70.7410  224.0610 N   0  0  0  0  0  0  0  0  0  0  0  0
  137.8800   69.4900  224.5110 C   0  0  0  0  0  0  0  0  0  0  0  0
  138.9310   68.5470  224.9200 C   0  0  0  0  0  0  0  0  0  0  0  0
  139.2000   67.4760  224.2860 O   0  0  0  0  0  0  0  0  0  0  0  0
  139.7130   68.8000  226.0740 N   0  0  0  0  0  0  0  0  0  0  0  0
  140.8570   67.9620  226.4660 C   0  0  0  0  0  0  0  0  0  0  0  0
  141.1400   68.2390  227.9020 C   0  0  0  0  0  0  0  0  0  0  0  0
  140.1470   69.2900  228.3480 C   0  0  0  0  0  0  0  0  0  0  0  0
  139.6010   69.8450  227.0690 C   0  0  1  0  0  0  0  0  0  0  0  0
  140.1620   71.1460  226.6320 C   0  0  0  0  0  0  0  0  0  0  0  0
  141.5440   71.1480  225.9850 C   0  0  0  0  0  0  0  0  0  0  0  0
  141.2880   71.8420  227.2940 C   0  0  0  0  0  0  0  0  0  0  0  0
  139.8080   71.9090  222.3170 C   0  0  0  0  0  0  0  0  0  0  0  0
  141.0520   71.8300  221.7240 C   0  0  0  0  0  0  0  0  0  0  0  0
  141.7230   72.9390  221.2350 C   0  0  0  0  0  0  0  0  0  0  0  0
  141.0570   74.1520  221.3810 C   0  0  0  0  0  0  0  0  0  0  0  0
  141.7030   75.2830  220.9000 C   0  0  0  0  0  0  0  0  0  0  0  0
  141.0470   76.4880  221.0430 C   0  0  0  0  0  0  0  0  0  0  0  0
  141.8710   77.9160  220.4330 Cl  0  0  0  0  0  0  0  0  0  0  0  0
  139.8000   76.5700  221.6370 C   0  0  0  0  0  0  0  0  0  0  0  0
  139.1550   75.4360  222.1160 C   0  0  0  0  0  0  0  0  0  0  0  0
  139.8160   74.2350  221.9710 C   0  0  0  0  0  0  0  0  0  0  0  0
  139.2090   73.1080  222.4320 N   0  0  0  0  0  0  0  0  0  0  0  0
  138.4300   71.6270  224.6040 H   0  0  0  0  0  0  0  0  0  0  0  0
  137.2175   69.6921  225.3655 H   0  0  0  0  0  0  0  0  0  0  0  0
  137.2975   69.0513  223.6875 H   0  0  0  0  0  0  0  0  0  0  0  0
  140.6087   66.8991  226.3299 H   0  0  0  0  0  0  0  0  0  0  0  0
  141.7363   68.1899  225.8456 H   0  0  0  0  0  0  0  0  0  0  0  0
  141.0139   67.3222  228.4966 H   0  0  0  0  0  0  0  0  0  0  0  0
  142.1738   68.5885  228.0405 H   0  0  0  0  0  0  0  0  0  0  0  0
  139.3455   68.8386  228.9511 H   0  0  0  0  0  0  0  0  0  0  0  0
  140.6073   70.0633  228.9806 H   0  0  0  0  0  0  0  0  0  0  0  0
  138.5489   70.1210  227.2332 H   0  0  0  0  0  0  0  0  0  0  0  0
  139.1408   71.4678  226.3799 H   0  0  0  0  0  0  0  0  0  0  0  0
  142.1429   70.2259  225.9545 H   0  0  0  0  0  0  0  0  0  0  0  0
  141.9543   71.4398  225.0070 H   0  0  0  0  0  0  0  0  0  0  0  0
  141.7136   71.4317  228.2216 H   0  0  0  0  0  0  0  0  0  0  0  0
  141.4476   72.8648  227.6660 H   0  0  0  0  0  0  0  0  0  0  0  0
  141.5313   70.8438  221.6359 H   0  0  0  0  0  0  0  0  0  0  0  0
  142.7142   72.8657  220.7637 H   0  0  0  0  0  0  0  0  0  0  0  0
  142.6937   75.2209  220.4260 H   0  0  0  0  0  0  0  0  0  0  0  0
  139.3104   77.5504  221.7318 H   0  0  0  0  0  0  0  0  0  0  0  0
  138.1634   75.4941  222.5887 H   0  0  0  0  0  0  0  0  0  0  0  0
  1  2  2  0
  2  3  1  0
  3  4  1  0
  4  5  1  0
  5  6  2  0
  5  7  1  0
  7  8  1  0
  8  9  1  0
  9 10  1  0
 10 11  1  0
 11 12  1  0
 12 13  1  0
 13 14  1  0
  2 15  1  0
 15 16  2  0
 16 17  1  0
 17 18  2  0
 18 19  1  0
 19 20  2  0
 20 21  1  0
 20 22  1  0
 22 23  2  0
 23 24  1  0
 24 25  2  0
 11  7  1  0
 14 12  1  0
 25 15  1  0
 24 18  1  0
  3 26  1  0
  4 27  1  0
  4 28  1  0
  8 29  1  0
  8 30  1  0
  9 31  1  0
  9 32  1  0
 10 33  1  0
 10 34  1  0
 11 35  1  1
 12 36  1  0
 13 37  1  0
 13 38  1  0
 14 39  1  0
 14 40  1  0
 16 41  1  0
 17 42  1  0
 19 43  1  0
 22 44  1  0
 23 45  1  0
M  END
>  <smiles>  (51) 
O=C(NCC(=O)N1CCCC1C1CC1)c1ccc2cc(Cl)ccc2n1

>  <score_type>  (51) 
oracle

>  <origin>  (51) 
autodockgpu

>  <m_score__min__energy>  (51) 
-7.8499999999999996

>  <m_primary>  (51) 
energy

>  <rmsd>  (51) 
8.448632612658193

>  <m_score__min__rmsd>  (51) 
8.448632612658193

>  <meeko>  (51) 
{"free_energy": -7.5, "intermolecular_energy": -8.99, "internal_energy": -1.58, "cluster_size": 18, "cluster_id": 2, "rank_in_cluster": 11}

>  <energy>  (51) 
-7.85

>  <cluster_rmsd>  (51) 
0.0

>  <cluster>  (51) 
1

$$$$

     RDKit          3D

 45 48  0  0  0  0  0  0  0  0999 V2000
  140.6810   73.8530  220.4820 O   0  0  0  0  0  0  0  0  0  0  0  0
  140.1310   73.8800  221.6060 C   0  0  0  0  0  0  0  0  0  0  0  0
  139.6760   75.1070  222.2040 N   0  0  0  0  0  0  0  0  0  0  0  0
  139.9010   76.3100  221.4050 C   0  0  0  0  0  0  0  0  0  0  0  0
  139.4480   77.4930  222.1510 C   0  0  0  0  0  0  0  0  0  0  0  0
  138.5890   77.4450  223.0900 O   0  0  0  0  0  0  0  0  0  0  0  0
  139.9650   78.7770  221.8460 N   0  0  0  0  0  0  0  0  0  0  0  0
  139.1480   79.9990  221.8880 C   0  0  0  0  0  0  0  0  0  0  0  0
  139.8680   81.0410  221.1030 C   0  0  0  0  0  0  0  0  0  0  0  0
  141.1550   80.4110  220.6170 C   0  0  0  0  0  0  0  0  0  0  0  0
  141.2990   79.1790  221.4540 C   0  0  1  0  0  0  0  0  0  0  0  0
  142.2500   79.2690  222.5880 C   0  0  0  0  0  0  0  0  0  0  0  0
  141.8310   78.6620  223.9230 C   0  0  0  0  0  0  0  0  0  0  0  0
  142.0670   80.1380  223.7720 C   0  0  0  0  0  0  0  0  0  0  0  0
  139.9210   72.6460  222.3800 C   0  0  0  0  0  0  0  0  0  0  0  0
  139.0300   71.7090  221.8960 C   0  0  0  0  0  0  0  0  0  0  0  0
  138.7640   70.5170  222.5510 C   0  0  0  0  0  0  0  0  0  0  0  0
  139.4580   70.3210  223.7410 C   0  0  0  0  0  0  0  0  0  0  0  0
  139.2130   69.1360  224.4200 C   0  0  0  0  0  0  0  0  0  0  0  0
  139.8990   68.9360  225.6010 C   0  0  0  0  0  0  0  0  0  0  0  0
  139.5840   67.4350  226.4570 Cl  0  0  0  0  0  0  0  0  0  0  0  0
  140.7920   69.8750  226.0880 C   0  0  0  0  0  0  0  0  0  0  0  0
  141.0360   71.0600  225.4060 C   0  0  0  0  0  0  0  0  0  0  0  0
  140.3480   71.2530  224.2270 C   0  0  0  0  0  0  0  0  0  0  0  0
  140.5650   72.4050  223.5360 N   0  0  0  0  0  0  0  0  0  0  0  0
  139.2190   75.1240  223.1390 H   0  0  0  0  0  0  0  0  0  0  0  0
  140.9742   76.4063  221.1836 H   0  0  0  0  0  0  0  0  0  0  0  0
  139.3349   76.2337  220.4649 H   0  0  0  0  0  0  0  0  0  0  0  0
  138.1608   79.8072  221.4424 H   0  0  0  0  0  0  0  0  0  0  0  0
  138.9953   80.3297  222.9259 H   0  0  0  0  0  0  0  0  0  0  0  0
  139.2558   81.3604  220.2467 H   0  0  0  0  0  0  0  0  0  0  0  0
  140.0715   81.9291  221.7194 H   0  0  0  0  0  0  0  0  0  0  0  0
  141.0841   80.1520  219.5503 H   0  0  0  0  0  0  0  0  0  0  0  0
  142.0172   81.0876  220.7109 H   0  0  0  0  0  0  0  0  0  0  0  0
  141.7817   78.4017  220.8434 H   0  0  0  0  0  0  0  0  0  0  0  0
  143.0740   79.1672  221.8664 H   0  0  0  0  0  0  0  0  0  0  0  0
  140.8103   78.2753  224.0598 H   0  0  0  0  0  0  0  0  0  0  0  0
  142.2140   77.8676  224.5804 H   0  0  0  0  0  0  0  0  0  0  0  0
  141.2159   80.8337  223.8121 H   0  0  0  0  0  0  0  0  0  0  0  0
  142.6997   80.8726  224.2917 H   0  0  0  0  0  0  0  0  0  0  0  0
  138.5089   71.9175  220.9500 H   0  0  0  0  0  0  0  0  0  0  0  0
  138.0527   69.7762  222.1570 H   0  0  0  0  0  0  0  0  0  0  0  0
  138.5036   68.3891  224.0343 H   0  0  0  0  0  0  0  0  0  0  0  0
  141.3186   69.6788  227.0336 H   0  0  0  0  0  0  0  0  0  0  0  0
  141.7448   71.8092  225.7885 H   0  0  0  0  0  0  0  0  0  0  0  0
  1  2  2  0
  2  3  1  0
  3  4  1  0
  4  5  1  0
  5  6  2  0
  5  7  1  0
  7  8  1  0
  8  9  1  0
  9 10  1  0
 10 11  1  0
 11 12  1  0
 12 13  1  0
 13 14  1  0
  2 15  1  0
 15 16  2  0
 16 17  1  0
 17 18  2  0
 18 19  1  0
 19 20  2  0
 20 21  1  0
 20 22  1  0
 22 23  2  0
 23 24  1  0
 24 25  2  0
 11  7  1  0
 14 12  1  0
 25 15  1  0
 24 18  1  0
  3 26  1  0
  4 27  1  0
  4 28  1  0
  8 29  1  0
  8 30  1  0
  9 31  1  0
  9 32  1  0
 10 33  1  0
 10 34  1  0
 11 35  1  6
 12 36  1  0
 13 37  1  0
 13 38  1  0
 14 39  1  0
 14 40  1  0
 16 41  1  0
 17 42  1  0
 19 43  1  0
 22 44  1  0
 23 45  1  0
M  END
>  <smiles>  (52) 
O=C(NCC(=O)N1CCCC1C1CC1)c1ccc2cc(Cl)ccc2n1

>  <score_type>  (52) 
oracle

>  <origin>  (52) 
autodockgpu

>  <m_score__min__energy>  (52) 
-7.8499999999999996

>  <m_primary>  (52) 
energy

>  <rmsd>  (52) 
3.586281655126351

>  <m_score__min__rmsd>  (52) 
3.586281655126351

>  <meeko>  (52) 
{"free_energy": -7.08, "intermolecular_energy": -8.58, "internal_energy": -1.35, "cluster_size": 13, "cluster_id": 1, "rank_in_cluster": 12}

>  <energy>  (52) 
-7.79

>  <cluster_rmsd>  (52) 
0.43

>  <cluster>  (52) 
1

$$$$

     RDKit          3D

 45 48  0  0  0  0  0  0  0  0999 V2000
  135.1230   69.9390  224.6150 O   0  0  0  0  0  0  0  0  0  0  0  0
  135.4430   71.1430  224.7310 C   0  0  0  0  0  0  0  0  0  0  0  0
  136.6850   71.6560  224.2160 N   0  0  0  0  0  0  0  0  0  0  0  0
  137.5380   70.6720  223.5530 C   0  0  0  0  0  0  0  0  0  0  0  0
  138.8990   70.7450  224.1020 C   0  0  0  0  0  0  0  0  0  0  0  0
  139.7600   71.6100  223.7360 O   0  0  0  0  0  0  0  0  0  0  0  0
  139.3240   69.8260  225.0940 N   0  0  0  0  0  0  0  0  0  0  0  0
  139.5740   68.4040  224.8130 C   0  0  0  0  0  0  0  0  0  0  0  0
  139.5610   67.6840  226.1170 C   0  0  0  0  0  0  0  0  0  0  0  0
  139.3250   68.7260  227.1890 C   0  0  0  0  0  0  0  0  0  0  0  0
  139.5960   70.0270  226.5010 C   0  0  1  0  0  0  0  0  0  0  0  0
  140.9190   70.6430  226.7690 C   0  0  0  0  0  0  0  0  0  0  0  0
  141.0630   71.5110  228.0150 C   0  0  0  0  0  0  0  0  0  0  0  0
  141.2160   72.0860  226.6360 C   0  0  0  0  0  0  0  0  0  0  0  0
  134.5560   72.1050  225.4060 C   0  0  0  0  0  0  0  0  0  0  0  0
  133.4510   71.6220  226.0780 C   0  0  0  0  0  0  0  0  0  0  0  0
  132.5580   72.4470  226.7440 C   0  0  0  0  0  0  0  0  0  0  0  0
  132.8470   73.8070  226.6920 C   0  0  0  0  0  0  0  0  0  0  0  0
  131.9710   74.6580  227.3500 C   0  0  0  0  0  0  0  0  0  0  0  0
  132.2530   76.0080  227.3020 C   0  0  0  0  0  0  0  0  0  0  0  0
  131.1400   77.0810  228.1360 Cl  0  0  0  0  0  0  0  0  0  0  0  0
  133.3600   76.4940  226.6290 C   0  0  0  0  0  0  0  0  0  0  0  0
  134.2370   75.6390  225.9720 C   0  0  0  0  0  0  0  0  0  0  0  0
  133.9490   74.2920  226.0230 C   0  0  0  0  0  0  0  0  0  0  0  0
  134.7880   73.4300  225.3880 N   0  0  0  0  0  0  0  0  0  0  0  0
  136.9470   72.6590  224.3150 H   0  0  0  0  0  0  0  0  0  0  0  0
  137.1304   69.6639  223.7193 H   0  0  0  0  0  0  0  0  0  0  0  0
  137.5689   70.8852  222.4743 H   0  0  0  0  0  0  0  0  0  0  0  0
  138.7865   68.0063  224.1559 H   0  0  0  0  0  0  0  0  0  0  0  0
  140.5412   68.2722  224.3059 H   0  0  0  0  0  0  0  0  0  0  0  0
  138.7529   66.9378  226.1296 H   0  0  0  0  0  0  0  0  0  0  0  0
  140.5097   67.1531  226.2844 H   0  0  0  0  0  0  0  0  0  0  0  0
  138.2872   68.6849  227.5515 H   0  0  0  0  0  0  0  0  0  0  0  0
  139.9635   68.5748  228.0719 H   0  0  0  0  0  0  0  0  0  0  0  0
  138.9255   70.7880  226.9269 H   0  0  0  0  0  0  0  0  0  0  0  0
  141.3913   69.7487  226.3364 H   0  0  0  0  0  0  0  0  0  0  0  0
  140.1805   71.7577  228.6235 H   0  0  0  0  0  0  0  0  0  0  0  0
  141.6766   71.4816  228.9275 H   0  0  0  0  0  0  0  0  0  0  0  0
  140.4480   72.7670  226.2404 H   0  0  0  0  0  0  0  0  0  0  0  0
  142.0006   72.6656  226.1276 H   0  0  0  0  0  0  0  0  0  0  0  0
  133.2716   70.5368  226.0853 H   0  0  0  0  0  0  0  0  0  0  0  0
  131.6803   72.0531  227.2775 H   0  0  0  0  0  0  0  0  0  0  0  0
  131.0907   74.2737  227.8862 H   0  0  0  0  0  0  0  0  0  0  0  0
  133.5495   77.5774  226.6136 H   0  0  0  0  0  0  0  0  0  0  0  0
  135.1194   76.0194  225.4365 H   0  0  0  0  0  0  0  0  0  0  0  0
  1  2  2  0
  2  3  1  0
  3  4  1  0
  4  5  1  0
  5  6  2  0
  5  7  1  0
  7  8  1  0
  8  9  1  0
  9 10  1  0
 10 11  1  0
 11 12  1  0
 12 13  1  0
 13 14  1  0
  2 15  1  0
 15 16  2  0
 16 17  1  0
 17 18  2  0
 18 19  1  0
 19 20  2  0
 20 21  1  0
 20 22  1  0
 22 23  2  0
 23 24  1  0
 24 25  2  0
 11  7  1  0
 14 12  1  0
 25 15  1  0
 24 18  1  0
  3 26  1  0
  4 27  1  0
  4 28  1  0
  8 29  1  0
  8 30  1  0
  9 31  1  0
  9 32  1  0
 10 33  1  0
 10 34  1  0
 11 35  1  1
 12 36  1  0
 13 37  1  0
 13 38  1  0
 14 39  1  0
 14 40  1  0
 16 41  1  0
 17 42  1  0
 19 43  1  0
 22 44  1  0
 23 45  1  0
M  END
>  <smiles>  (53) 
O=C(NCC(=O)N1CCCC1C1CC1)c1ccc2cc(Cl)ccc2n1

>  <score_type>  (53) 
oracle

>  <origin>  (53) 
autodockgpu

>  <m_score__min__energy>  (53) 
-7.8499999999999996

>  <m_primary>  (53) 
energy

>  <rmsd>  (53) 
8.481413291024667

>  <m_score__min__rmsd>  (53) 
8.481413291024667

>  <meeko>  (53) 
{"free_energy": -7.36, "intermolecular_energy": -8.86, "internal_energy": -1.42, "cluster_size": 11, "cluster_id": 3, "rank_in_cluster": 8}

>  <energy>  (53) 
-7.76

>  <cluster_rmsd>  (53) 
0.45

>  <cluster>  (53) 
1

$$$$

     RDKit          3D

 45 48  0  0  0  0  0  0  0  0999 V2000
  140.4710   72.3980  220.7660 O   0  0  0  0  0  0  0  0  0  0  0  0
  140.1610   72.8020  221.9090 C   0  0  0  0  0  0  0  0  0  0  0  0
  139.8040   74.1720  222.1650 N   0  0  0  0  0  0  0  0  0  0  0  0
  139.8300   75.0500  220.9970 C   0  0  0  0  0  0  0  0  0  0  0  0
  140.2550   76.3980  221.4000 C   0  0  0  0  0  0  0  0  0  0  0  0
  139.9260   76.9390  222.5040 O   0  0  0  0  0  0  0  0  0  0  0  0
  141.0780   77.1760  220.5470 N   0  0  0  0  0  0  0  0  0  0  0  0
  141.3270   78.6100  220.7640 C   0  0  0  0  0  0  0  0  0  0  0  0
  141.8360   79.1720  219.4820 C   0  0  0  0  0  0  0  0  0  0  0  0
  141.9120   78.0220  218.5010 C   0  0  0  0  0  0  0  0  0  0  0  0
  141.8150   76.8000  219.3590 C   0  0  1  0  0  0  0  0  0  0  0  0
  143.0920   76.1030  219.6470 C   0  0  0  0  0  0  0  0  0  0  0  0
  143.3500   74.7690  218.9520 C   0  0  0  0  0  0  0  0  0  0  0  0
  143.2100   74.8620  220.4460 C   0  0  0  0  0  0  0  0  0  0  0  0
  140.1460   71.8850  223.0620 C   0  0  0  0  0  0  0  0  0  0  0  0
  139.6300   70.6170  222.8880 C   0  0  0  0  0  0  0  0  0  0  0  0
  139.5730   69.6830  223.9100 C   0  0  0  0  0  0  0  0  0  0  0  0
  140.0720   70.1080  225.1370 C   0  0  0  0  0  0  0  0  0  0  0  0
  140.0290   69.1950  226.1800 C   0  0  0  0  0  0  0  0  0  0  0  0
  140.5230   69.6110  227.4000 C   0  0  0  0  0  0  0  0  0  0  0  0
  140.4650   68.4500  228.7170 Cl  0  0  0  0  0  0  0  0  0  0  0  0
  141.0400   70.8830  227.5760 C   0  0  0  0  0  0  0  0  0  0  0  0
  141.0830   71.7950  226.5290 C   0  0  0  0  0  0  0  0  0  0  0  0
  140.5880   71.3730  225.3140 C   0  0  0  0  0  0  0  0  0  0  0  0
  140.6160   72.2440  224.2700 N   0  0  0  0  0  0  0  0  0  0  0  0
  139.5470   74.5030  223.1180 H   0  0  0  0  0  0  0  0  0  0  0  0
  140.5367   74.6504  220.2548 H   0  0  0  0  0  0  0  0  0  0  0  0
  138.8229   75.1017  220.5576 H   0  0  0  0  0  0  0  0  0  0  0  0
  140.3928   79.1147  221.0513 H   0  0  0  0  0  0  0  0  0  0  0  0
  142.0587   78.7596  221.5717 H   0  0  0  0  0  0  0  0  0  0  0  0
  141.1483   79.9446  219.1075 H   0  0  0  0  0  0  0  0  0  0  0  0
  142.8221   79.6397  219.6196 H   0  0  0  0  0  0  0  0  0  0  0  0
  141.0773   78.0637  217.7858 H   0  0  0  0  0  0  0  0  0  0  0  0
  142.8325   78.0420  217.8991 H   0  0  0  0  0  0  0  0  0  0  0  0
  141.2807   76.0226  218.7932 H   0  0  0  0  0  0  0  0  0  0  0  0
  143.5768   77.0866  219.7341 H   0  0  0  0  0  0  0  0  0  0  0  0
  142.5602   74.2961  218.3498 H   0  0  0  0  0  0  0  0  0  0  0  0
  144.1068   74.3783  218.2558 H   0  0  0  0  0  0  0  0  0  0  0  0
  142.3198   74.4429  220.9379 H   0  0  0  0  0  0  0  0  0  0  0  0
  143.8338   74.5522  221.2974 H   0  0  0  0  0  0  0  0  0  0  0  0
  139.2477   70.3357  221.8957 H   0  0  0  0  0  0  0  0  0  0  0  0
  139.1611   68.6739  223.7612 H   0  0  0  0  0  0  0  0  0  0  0  0
  139.6192   68.1837  226.0412 H   0  0  0  0  0  0  0  0  0  0  0  0
  141.4241   71.1773  228.5639 H   0  0  0  0  0  0  0  0  0  0  0  0
  141.4930   72.8068  226.6635 H   0  0  0  0  0  0  0  0  0  0  0  0
  1  2  2  0
  2  3  1  0
  3  4  1  0
  4  5  1  0
  5  6  2  0
  5  7  1  0
  7  8  1  0
  8  9  1  0
  9 10  1  0
 10 11  1  0
 11 12  1  0
 12 13  1  0
 13 14  1  0
  2 15  1  0
 15 16  2  0
 16 17  1  0
 17 18  2  0
 18 19  1  0
 19 20  2  0
 20 21  1  0
 20 22  1  0
 22 23  2  0
 23 24  1  0
 24 25  2  0
 11  7  1  0
 14 12  1  0
 25 15  1  0
 24 18  1  0
  3 26  1  0
  4 27  1  0
  4 28  1  0
  8 29  1  0
  8 30  1  0
  9 31  1  0
  9 32  1  0
 10 33  1  0
 10 34  1  0
 11 35  1  6
 12 36  1  0
 13 37  1  0
 13 38  1  0
 14 39  1  0
 14 40  1  0
 16 41  1  0
 17 42  1  0
 19 43  1  0
 22 44  1  0
 23 45  1  0
M  END
>  <smiles>  (54) 
O=C(NCC(=O)N1CCCC1C1CC1)c1ccc2cc(Cl)ccc2n1

>  <score_type>  (54) 
oracle

>  <origin>  (54) 
autodockgpu

>  <m_score__min__energy>  (54) 
-7.8499999999999996

>  <m_primary>  (54) 
energy

>  <rmsd>  (54) 
2.425285107579888

>  <m_score__min__rmsd>  (54) 
2.425285107579888

>  <meeko>  (54) 
{"free_energy": -7.06, "intermolecular_energy": -8.55, "internal_energy": -1.53, "cluster_size": 13, "cluster_id": 1, "rank_in_cluster": 13}

>  <energy>  (54) 
-7.63

>  <cluster_rmsd>  (54) 
0.55

>  <cluster>  (54) 
1

$$$$

     RDKit          3D

 45 48  0  0  0  0  0  0  0  0999 V2000
  139.7600   73.9600  222.3250 O   0  0  0  0  0  0  0  0  0  0  0  0
  139.8550   72.7300  222.1160 C   0  0  0  0  0  0  0  0  0  0  0  0
  139.8800   72.1820  220.7860 N   0  0  0  0  0  0  0  0  0  0  0  0
  139.7870   73.1620  219.7060 C   0  0  0  0  0  0  0  0  0  0  0  0
  141.1150   73.3760  219.1140 C   0  0  0  0  0  0  0  0  0  0  0  0
  141.6030   72.6390  218.1970 O   0  0  0  0  0  0  0  0  0  0  0  0
  141.9340   74.4450  219.5540 N   0  0  0  0  0  0  0  0  0  0  0  0
  141.3920   75.6790  220.1430 C   0  0  0  0  0  0  0  0  0  0  0  0
  142.4600   76.7150  220.0670 C   0  0  0  0  0  0  0  0  0  0  0  0
  143.6670   76.0520  219.4410 C   0  0  0  0  0  0  0  0  0  0  0  0
  143.3750   74.5880  219.5400 C   0  0  1  0  0  0  0  0  0  0  0  0
  144.0550   73.8600  220.6390 C   0  0  0  0  0  0  0  0  0  0  0  0
  145.5750   73.7420  220.5840 C   0  0  0  0  0  0  0  0  0  0  0  0
  144.6900   72.5310  220.4990 C   0  0  0  0  0  0  0  0  0  0  0  0
  139.9480   71.7730  223.2310 C   0  0  0  0  0  0  0  0  0  0  0  0
  139.5230   70.4760  223.0220 C   0  0  0  0  0  0  0  0  0  0  0  0
  139.5700   69.5030  224.0070 C   0  0  0  0  0  0  0  0  0  0  0  0
  140.0770   69.9190  225.2340 C   0  0  0  0  0  0  0  0  0  0  0  0
  140.1370   68.9660  226.2420 C   0  0  0  0  0  0  0  0  0  0  0  0
  140.6400   69.3730  227.4610 C   0  0  0  0  0  0  0  0  0  0  0  0
  140.7130   68.1630  228.7320 Cl  0  0  0  0  0  0  0  0  0  0  0  0
  141.0660   70.6730  227.6720 C   0  0  0  0  0  0  0  0  0  0  0  0
  141.0060   71.6250  226.6610 C   0  0  0  0  0  0  0  0  0  0  0  0
  140.5020   71.2110  225.4460 C   0  0  0  0  0  0  0  0  0  0  0  0
  140.4300   72.1210  224.4370 N   0  0  0  0  0  0  0  0  0  0  0  0
  139.9590   71.1570  220.6170 H   0  0  0  0  0  0  0  0  0  0  0  0
  139.0981   72.7900  218.9333 H   0  0  0  0  0  0  0  0  0  0  0  0
  139.4111   74.1137  220.1097 H   0  0  0  0  0  0  0  0  0  0  0  0
  140.5076   76.0085  219.5780 H   0  0  0  0  0  0  0  0  0  0  0  0
  141.0878   75.5104  221.1866 H   0  0  0  0  0  0  0  0  0  0  0  0
  142.1260   77.5585  219.4450 H   0  0  0  0  0  0  0  0  0  0  0  0
  142.6995   77.1095  221.0655 H   0  0  0  0  0  0  0  0  0  0  0  0
  143.7784   76.3573  218.3901 H   0  0  0  0  0  0  0  0  0  0  0  0
  144.6065   76.3288  219.9418 H   0  0  0  0  0  0  0  0  0  0  0  0
  143.8127   74.0893  218.6626 H   0  0  0  0  0  0  0  0  0  0  0  0
  143.2892   74.2439  221.3291 H   0  0  0  0  0  0  0  0  0  0  0  0
  146.1260   74.0890  219.6974 H   0  0  0  0  0  0  0  0  0  0  0  0
  146.4123   74.0611  221.2221 H   0  0  0  0  0  0  0  0  0  0  0  0
  144.6049   71.9829  219.5491 H   0  0  0  0  0  0  0  0  0  0  0  0
  144.6253   71.5855  221.0574 H   0  0  0  0  0  0  0  0  0  0  0  0
  139.1304   70.2037  222.0312 H   0  0  0  0  0  0  0  0  0  0  0  0
  139.2297   68.4719  223.8310 H   0  0  0  0  0  0  0  0  0  0  0  0
  139.7986   67.9325  226.0763 H   0  0  0  0  0  0  0  0  0  0  0  0
  141.4596   70.9582  228.6588 H   0  0  0  0  0  0  0  0  0  0  0  0
  141.3444   72.6592  226.8224 H   0  0  0  0  0  0  0  0  0  0  0  0
  1  2  2  0
  2  3  1  0
  3  4  1  0
  4  5  1  0
  5  6  2  0
  5  7  1  0
  7  8  1  0
  8  9  1  0
  9 10  1  0
 10 11  1  0
 11 12  1  0
 12 13  1  0
 13 14  1  0
  2 15  1  0
 15 16  2  0
 16 17  1  0
 17 18  2  0
 18 19  1  0
 19 20  2  0
 20 21  1  0
 20 22  1  0
 22 23  2  0
 23 24  1  0
 24 25  2  0
 11  7  1  0
 14 12  1  0
 25 15  1  0
 24 18  1  0
  3 26  1  0
  4 27  1  0
  4 28  1  0
  8 29  1  0
  8 30  1  0
  9 31  1  0
  9 32  1  0
 10 33  1  0
 10 34  1  0
 11 35  1  6
 12 36  1  0
 13 37  1  0
 13 38  1  0
 14 39  1  0
 14 40  1  0
 16 41  1  0
 17 42  1  0
 19 43  1  0
 22 44  1  0
 23 45  1  0
M  END
>  <smiles>  (55) 
O=C(NCC(=O)N1CCCC1C1CC1)c1ccc2cc(Cl)ccc2n1

>  <score_type>  (55) 
oracle

>  <origin>  (55) 
autodockgpu

>  <m_score__min__energy>  (55) 
-7.8499999999999996

>  <m_primary>  (55) 
energy

>  <rmsd>  (55) 
2.539514009292574

>  <m_score__min__rmsd>  (55) 
2.539514009292574

>  <meeko>  (55) 
{"free_energy": -7.22, "intermolecular_energy": -8.71, "internal_energy": -1.28, "cluster_size": 8, "cluster_id": 4, "rank_in_cluster": 3}

>  <energy>  (55) 
-7.52

>  <cluster_rmsd>  (55) 
1.24

>  <cluster>  (55) 
1

$$$$

     RDKit          3D

 45 48  0  0  0  0  0  0  0  0999 V2000
  140.6750   70.9390  221.5180 O   0  0  0  0  0  0  0  0  0  0  0  0
  140.0220   71.8400  222.0900 C   0  0  0  0  0  0  0  0  0  0  0  0
  138.9180   71.5440  222.9650 N   0  0  0  0  0  0  0  0  0  0  0  0
  138.6210   70.1230  223.1340 C   0  0  0  0  0  0  0  0  0  0  0  0
  138.2270   69.8600  224.5250 C   0  0  0  0  0  0  0  0  0  0  0  0
  137.0900   70.1730  225.0050 O   0  0  0  0  0  0  0  0  0  0  0  0
  139.1270   69.2270  225.4190 N   0  0  0  0  0  0  0  0  0  0  0  0
  139.5740   67.8360  225.2520 C   0  0  0  0  0  0  0  0  0  0  0  0
  140.1240   67.3850  226.5620 C   0  0  0  0  0  0  0  0  0  0  0  0
  140.0170   68.5620  227.5070 C   0  0  0  0  0  0  0  0  0  0  0  0
  139.7760   69.7340  226.6090 C   0  0  1  0  0  0  0  0  0  0  0  0
  140.9520   70.5920  226.3260 C   0  0  0  0  0  0  0  0  0  0  0  0
  141.0700   71.9140  227.0780 C   0  0  0  0  0  0  0  0  0  0  0  0
  140.8990   71.8720  225.5850 C   0  0  0  0  0  0  0  0  0  0  0  0
  140.3520   73.2610  221.8960 C   0  0  0  0  0  0  0  0  0  0  0  0
  141.5040   73.5810  221.2050 C   0  0  0  0  0  0  0  0  0  0  0  0
  141.9010   74.8880  220.9700 C   0  0  0  0  0  0  0  0  0  0  0  0
  141.0560   75.8690  221.4800 C   0  0  0  0  0  0  0  0  0  0  0  0
  141.4260   77.1890  221.2600 C   0  0  0  0  0  0  0  0  0  0  0  0
  140.5920   78.1660  221.7640 C   0  0  0  0  0  0  0  0  0  0  0  0
  141.0660   79.8340  221.4830 Cl  0  0  0  0  0  0  0  0  0  0  0  0
  139.4370   77.8480  222.4570 C   0  0  0  0  0  0  0  0  0  0  0  0
  139.0680   76.5260  222.6740 C   0  0  0  0  0  0  0  0  0  0  0  0
  139.9060   75.5540  222.1690 C   0  0  0  0  0  0  0  0  0  0  0  0
  139.5720   74.2500  222.3670 N   0  0  0  0  0  0  0  0  0  0  0  0
  138.3770   72.2970  223.4390 H   0  0  0  0  0  0  0  0  0  0  0  0
  137.7983   69.8391  222.4613 H   0  0  0  0  0  0  0  0  0  0  0  0
  139.5172   69.5329  222.8921 H   0  0  0  0  0  0  0  0  0  0  0  0
  138.7246   67.2002  224.9618 H   0  0  0  0  0  0  0  0  0  0  0  0
  140.3386   67.7653  224.4644 H   0  0  0  0  0  0  0  0  0  0  0  0
  139.5397   66.5359  226.9463 H   0  0  0  0  0  0  0  0  0  0  0  0
  141.1678   67.0533  226.4598 H   0  0  0  0  0  0  0  0  0  0  0  0
  139.1778   68.4266  228.2051 H   0  0  0  0  0  0  0  0  0  0  0  0
  140.9160   68.6858  228.1287 H   0  0  0  0  0  0  0  0  0  0  0  0
  139.1269   70.4467  227.1389 H   0  0  0  0  0  0  0  0  0  0  0  0
  141.5474   69.6785  226.1809 H   0  0  0  0  0  0  0  0  0  0  0  0
  140.2474   72.2614  227.7204 H   0  0  0  0  0  0  0  0  0  0  0  0
  141.7949   72.3608  227.7744 H   0  0  0  0  0  0  0  0  0  0  0  0
  139.9516   72.2031  225.1346 H   0  0  0  0  0  0  0  0  0  0  0  0
  141.4568   72.2921  224.7351 H   0  0  0  0  0  0  0  0  0  0  0  0
  142.1338   72.7633  220.8246 H   0  0  0  0  0  0  0  0  0  0  0  0
  142.8206   75.1329  220.4184 H   0  0  0  0  0  0  0  0  0  0  0  0
  142.3429   77.4445  220.7086 H   0  0  0  0  0  0  0  0  0  0  0  0
  138.7992   78.6568  222.8432 H   0  0  0  0  0  0  0  0  0  0  0  0
  138.1506   76.2669  223.2228 H   0  0  0  0  0  0  0  0  0  0  0  0
  1  2  2  0
  2  3  1  0
  3  4  1  0
  4  5  1  0
  5  6  2  0
  5  7  1  0
  7  8  1  0
  8  9  1  0
  9 10  1  0
 10 11  1  0
 11 12  1  0
 12 13  1  0
 13 14  1  0
  2 15  1  0
 15 16  2  0
 16 17  1  0
 17 18  2  0
 18 19  1  0
 19 20  2  0
 20 21  1  0
 20 22  1  0
 22 23  2  0
 23 24  1  0
 24 25  2  0
 11  7  1  0
 14 12  1  0
 25 15  1  0
 24 18  1  0
  3 26  1  0
  4 27  1  0
  4 28  1  0
  8 29  1  0
  8 30  1  0
  9 31  1  0
  9 32  1  0
 10 33  1  0
 10 34  1  0
 11 35  1  1
 12 36  1  0
 13 37  1  0
 13 38  1  0
 14 39  1  0
 14 40  1  0
 16 41  1  0
 17 42  1  0
 19 43  1  0
 22 44  1  0
 23 45  1  0
M  END
>  <smiles>  (56) 
O=C(NCC(=O)N1CCCC1C1CC1)c1ccc2cc(Cl)ccc2n1

>  <score_type>  (56) 
oracle

>  <origin>  (56) 
autodockgpu

>  <m_score__min__energy>  (56) 
-7.8499999999999996

>  <m_primary>  (56) 
energy

>  <rmsd>  (56) 
8.476125837310724

>  <m_score__min__rmsd>  (56) 
8.476125837310724

>  <meeko>  (56) 
{"free_energy": -7.54, "intermolecular_energy": -9.04, "internal_energy": -1.66, "cluster_size": 18, "cluster_id": 2, "rank_in_cluster": 10}

>  <energy>  (56) 
-7.51

>  <cluster_rmsd>  (56) 
1.21

>  <cluster>  (56) 
1

$$$$

     RDKit          3D

 45 48  0  0  0  0  0  0  0  0999 V2000
  140.0550   72.2630  220.7340 O   0  0  0  0  0  0  0  0  0  0  0  0
  139.9040   72.6860  221.9020 C   0  0  0  0  0  0  0  0  0  0  0  0
  139.6500   74.0740  222.1850 N   0  0  0  0  0  0  0  0  0  0  0  0
  139.5820   74.9460  221.0130 C   0  0  0  0  0  0  0  0  0  0  0  0
  140.6240   75.9780  221.1020 C   0  0  0  0  0  0  0  0  0  0  0  0
  140.5690   76.9670  221.9020 O   0  0  0  0  0  0  0  0  0  0  0  0
  141.7720   75.9130  220.2730 N   0  0  0  0  0  0  0  0  0  0  0  0
  142.4800   77.1080  219.7900 C   0  0  0  0  0  0  0  0  0  0  0  0
  143.3170   76.6900  218.6300 C   0  0  0  0  0  0  0  0  0  0  0  0
  143.1100   75.2020  218.4560 C   0  0  0  0  0  0  0  0  0  0  0  0
  142.4780   74.7670  219.7400 C   0  0  1  0  0  0  0  0  0  0  0  0
  143.3770   74.1120  220.7220 C   0  0  0  0  0  0  0  0  0  0  0  0
  144.8720   74.0920  220.4180 C   0  0  0  0  0  0  0  0  0  0  0  0
  144.0690   72.8240  220.4980 C   0  0  0  0  0  0  0  0  0  0  0  0
  139.9800   71.7770  223.0580 C   0  0  0  0  0  0  0  0  0  0  0  0
  139.5410   70.4770  222.9020 C   0  0  0  0  0  0  0  0  0  0  0  0
  139.5720   69.5460  223.9270 C   0  0  0  0  0  0  0  0  0  0  0  0
  140.0780   70.0080  225.1390 C   0  0  0  0  0  0  0  0  0  0  0  0
  140.1210   69.0980  226.1860 C   0  0  0  0  0  0  0  0  0  0  0  0
  140.6220   69.5510  227.3900 C   0  0  0  0  0  0  0  0  0  0  0  0
  140.6740   68.3960  228.7120 Cl  0  0  0  0  0  0  0  0  0  0  0  0
  141.0610   70.8540  227.5480 C   0  0  0  0  0  0  0  0  0  0  0  0
  141.0170   71.7630  226.4980 C   0  0  0  0  0  0  0  0  0  0  0  0
  140.5160   71.3040  225.2980 C   0  0  0  0  0  0  0  0  0  0  0  0
  140.4590   72.1700  224.2510 N   0  0  0  0  0  0  0  0  0  0  0  0
  139.5270   74.4220  223.1580 H   0  0  0  0  0  0  0  0  0  0  0  0
  139.7366   74.3479  220.1029 H   0  0  0  0  0  0  0  0  0  0  0  0
  138.5941   75.4283  220.9749 H   0  0  0  0  0  0  0  0  0  0  0  0
  141.7552   77.8730  219.4747 H   0  0  0  0  0  0  0  0  0  0  0  0
  143.1056   77.5378  220.5862 H   0  0  0  0  0  0  0  0  0  0  0  0
  143.0008   77.2251  217.7224 H   0  0  0  0  0  0  0  0  0  0  0  0
  144.3778   76.9234  218.8040 H   0  0  0  0  0  0  0  0  0  0  0  0
  142.4442   74.9977  217.6046 H   0  0  0  0  0  0  0  0  0  0  0  0
  144.0483   74.6677  218.2459 H   0  0  0  0  0  0  0  0  0  0  0  0
  141.7831   73.9433  219.5195 H   0  0  0  0  0  0  0  0  0  0  0  0
  142.7104   74.4623  221.5238 H   0  0  0  0  0  0  0  0  0  0  0  0
  145.2451   74.4514  219.4476 H   0  0  0  0  0  0  0  0  0  0  0  0
  145.7789   74.4809  220.9040 H   0  0  0  0  0  0  0  0  0  0  0  0
  143.8666   72.2476  219.5832 H   0  0  0  0  0  0  0  0  0  0  0  0
  144.1612   71.8908  221.0730 H   0  0  0  0  0  0  0  0  0  0  0  0
  139.1499   70.1676  221.9215 H   0  0  0  0  0  0  0  0  0  0  0  0
  139.2209   68.5122  223.7927 H   0  0  0  0  0  0  0  0  0  0  0  0
  139.7716   68.0624  226.0621 H   0  0  0  0  0  0  0  0  0  0  0  0
  141.4525   71.1764  228.5241 H   0  0  0  0  0  0  0  0  0  0  0  0
  141.3652   72.7995  226.6183 H   0  0  0  0  0  0  0  0  0  0  0  0
  1  2  2  0
  2  3  1  0
  3  4  1  0
  4  5  1  0
  5  6  2  0
  5  7  1  0
  7  8  1  0
  8  9  1  0
  9 10  1  0
 10 11  1  0
 11 12  1  0
 12 13  1  0
 13 14  1  0
  2 15  1  0
 15 16  2  0
 16 17  1  0
 17 18  2  0
 18 19  1  0
 19 20  2  0
 20 21  1  0
 20 22  1  0
 22 23  2  0
 23 24  1  0
 24 25  2  0
 11  7  1  0
 14 12  1  0
 25 15  1  0
 24 18  1  0
  3 26  1  0
  4 27  1  0
  4 28  1  0
  8 29  1  0
  8 30  1  0
  9 31  1  0
  9 32  1  0
 10 33  1  0
 10 34  1  0
 11 35  1  6
 12 36  1  0
 13 37  1  0
 13 38  1  0
 14 39  1  0
 14 40  1  0
 16 41  1  0
 17 42  1  0
 19 43  1  0
 22 44  1  0
 23 45  1  0
M  END
>  <smiles>  (57) 
O=C(NCC(=O)N1CCCC1C1CC1)c1ccc2cc(Cl)ccc2n1

>  <score_type>  (57) 
oracle

>  <origin>  (57) 
autodockgpu

>  <m_score__min__energy>  (57) 
-7.8499999999999996

>  <m_primary>  (57) 
energy

>  <rmsd>  (57) 
2.4076196402413133

>  <m_score__min__rmsd>  (57) 
2.4076196402413133

>  <meeko>  (57) 
{"free_energy": -7.32, "intermolecular_energy": -8.81, "internal_energy": -1.52, "cluster_size": 8, "cluster_id": 4, "rank_in_cluster": 1}

>  <energy>  (57) 
-7.49

>  <cluster_rmsd>  (57) 
1.2

>  <cluster>  (57) 
1

$$$$

     RDKit          3D

 45 48  0  0  0  0  0  0  0  0999 V2000
  140.4560   72.5370  220.9040 O   0  0  0  0  0  0  0  0  0  0  0  0
  140.0890   72.8810  222.0500 C   0  0  0  0  0  0  0  0  0  0  0  0
  139.6350   74.2150  222.3380 N   0  0  0  0  0  0  0  0  0  0  0  0
  139.6330   75.1320  221.2000 C   0  0  0  0  0  0  0  0  0  0  0  0
  139.3870   76.5030  221.6680 C   0  0  0  0  0  0  0  0  0  0  0  0
  138.6000   76.7880  222.6280 O   0  0  0  0  0  0  0  0  0  0  0  0
  140.0360   77.6010  221.0490 N   0  0  0  0  0  0  0  0  0  0  0  0
  139.4610   78.3340  219.9110 C   0  0  0  0  0  0  0  0  0  0  0  0
  140.5690   79.0890  219.2620 C   0  0  0  0  0  0  0  0  0  0  0  0
  141.8190   78.8070  220.0670 C   0  0  0  0  0  0  0  0  0  0  0  0
  141.3070   78.2260  221.3480 C   0  0  1  0  0  0  0  0  0  0  0  0
  141.2600   79.1470  222.5090 C   0  0  0  0  0  0  0  0  0  0  0  0
  142.5650   79.7910  222.9640 C   0  0  0  0  0  0  0  0  0  0  0  0
  141.8090   78.8390  223.8480 C   0  0  0  0  0  0  0  0  0  0  0  0
  140.1050   71.9280  223.1730 C   0  0  0  0  0  0  0  0  0  0  0  0
  139.6180   70.6530  222.9610 C   0  0  0  0  0  0  0  0  0  0  0  0
  139.5900   69.6850  223.9520 C   0  0  0  0  0  0  0  0  0  0  0  0
  140.0890   70.0830  225.1890 C   0  0  0  0  0  0  0  0  0  0  0  0
  140.0740   69.1350  226.2030 C   0  0  0  0  0  0  0  0  0  0  0  0
  140.5680   69.5240  227.4310 C   0  0  0  0  0  0  0  0  0  0  0  0
  140.5470   68.3200  228.7110 Cl  0  0  0  0  0  0  0  0  0  0  0  0
  141.0560   70.8010  227.6460 C   0  0  0  0  0  0  0  0  0  0  0  0
  141.0700   71.7480  226.6290 C   0  0  0  0  0  0  0  0  0  0  0  0
  140.5750   71.3530  225.4040 C   0  0  0  0  0  0  0  0  0  0  0  0
  140.5750   72.2580  224.3890 N   0  0  0  0  0  0  0  0  0  0  0  0
  139.3320   74.4970  223.2940 H   0  0  0  0  0  0  0  0  0  0  0  0
  140.6085   75.0882  220.6936 H   0  0  0  0  0  0  0  0  0  0  0  0
  138.8384   74.8390  220.4980 H   0  0  0  0  0  0  0  0  0  0  0  0
  139.0171   77.6274  219.1942 H   0  0  0  0  0  0  0  0  0  0  0  0
  138.6703   79.0194  220.2500 H   0  0  0  0  0  0  0  0  0  0  0  0
  140.7020   78.7493  218.2243 H   0  0  0  0  0  0  0  0  0  0  0  0
  140.3506   80.1668  219.2359 H   0  0  0  0  0  0  0  0  0  0  0  0
  142.4662   78.0879  219.5436 H   0  0  0  0  0  0  0  0  0  0  0  0
  142.4294   79.7080  220.2271 H   0  0  0  0  0  0  0  0  0  0  0  0
  142.0360   77.4844  221.7067 H   0  0  0  0  0  0  0  0  0  0  0  0
  140.2625   79.4695  222.1759 H   0  0  0  0  0  0  0  0  0  0  0  0
  143.5203   79.4869  222.5113 H   0  0  0  0  0  0  0  0  0  0  0  0
  142.9436   80.8195  223.0581 H   0  0  0  0  0  0  0  0  0  0  0  0
  142.2210   77.8398  224.0524 H   0  0  0  0  0  0  0  0  0  0  0  0
  141.4121   78.8914  224.8726 H   0  0  0  0  0  0  0  0  0  0  0  0
  139.2359   70.3949  221.9623 H   0  0  0  0  0  0  0  0  0  0  0  0
  139.2003   68.6719  223.7735 H   0  0  0  0  0  0  0  0  0  0  0  0
  139.6858   68.1196  226.0350 H   0  0  0  0  0  0  0  0  0  0  0  0
  141.4401   71.0716  228.6406 H   0  0  0  0  0  0  0  0  0  0  0  0
  141.4575   72.7643  226.7933 H   0  0  0  0  0  0  0  0  0  0  0  0
  1  2  2  0
  2  3  1  0
  3  4  1  0
  4  5  1  0
  5  6  2  0
  5  7  1  0
  7  8  1  0
  8  9  1  0
  9 10  1  0
 10 11  1  0
 11 12  1  0
 12 13  1  0
 13 14  1  0
  2 15  1  0
 15 16  2  0
 16 17  1  0
 17 18  2  0
 18 19  1  0
 19 20  2  0
 20 21  1  0
 20 22  1  0
 22 23  2  0
 23 24  1  0
 24 25  2  0
 11  7  1  0
 14 12  1  0
 25 15  1  0
 24 18  1  0
  3 26  1  0
  4 27  1  0
  4 28  1  0
  8 29  1  0
  8 30  1  0
  9 31  1  0
  9 32  1  0
 10 33  1  0
 10 34  1  0
 11 35  1  1
 12 36  1  0
 13 37  1  0
 13 38  1  0
 14 39  1  0
 14 40  1  0
 16 41  1  0
 17 42  1  0
 19 43  1  0
 22 44  1  0
 23 45  1  0
M  END
>  <smiles>  (58) 
O=C(NCC(=O)N1CCCC1C1CC1)c1ccc2cc(Cl)ccc2n1

>  <score_type>  (58) 
oracle

>  <origin>  (58) 
autodockgpu

>  <m_score__min__energy>  (58) 
-7.8499999999999996

>  <m_primary>  (58) 
energy

>  <rmsd>  (58) 
2.205520727191579

>  <m_score__min__rmsd>  (58) 
2.205520727191579

>  <meeko>  (58) 
{"free_energy": -7.51, "intermolecular_energy": -9.01, "internal_energy": -1.32, "cluster_size": 13, "cluster_id": 1, "rank_in_cluster": 6}

>  <energy>  (58) 
-7.43

>  <cluster_rmsd>  (58) 
1.21

>  <cluster>  (58) 
1

$$$$

     RDKit          3D

 45 48  0  0  0  0  0  0  0  0999 V2000
  141.2510   71.2860  221.3610 O   0  0  0  0  0  0  0  0  0  0  0  0
  140.5570   72.1840  221.8880 C   0  0  0  0  0  0  0  0  0  0  0  0
  139.4520   71.8830  222.7590 N   0  0  0  0  0  0  0  0  0  0  0  0
  139.2020   70.4600  222.9800 C   0  0  0  0  0  0  0  0  0  0  0  0
  138.5790   70.2640  224.2960 C   0  0  0  0  0  0  0  0  0  0  0  0
  137.4570   70.7690  224.6250 O   0  0  0  0  0  0  0  0  0  0  0  0
  139.2220   69.4790  225.2860 N   0  0  0  0  0  0  0  0  0  0  0  0
  139.5700   68.0640  225.0840 C   0  0  0  0  0  0  0  0  0  0  0  0
  139.8040   67.4680  226.4290 C   0  0  0  0  0  0  0  0  0  0  0  0
  139.6130   68.5790  227.4390 C   0  0  0  0  0  0  0  0  0  0  0  0
  139.6600   69.8300  226.6200 C   0  0  1  0  0  0  0  0  0  0  0  0
  140.9400   70.5800  226.6470 C   0  0  0  0  0  0  0  0  0  0  0  0
  141.0010   71.8580  227.4780 C   0  0  0  0  0  0  0  0  0  0  0  0
  141.1640   71.8840  225.9840 C   0  0  0  0  0  0  0  0  0  0  0  0
  140.8400   73.6080  221.6430 C   0  0  0  0  0  0  0  0  0  0  0  0
  141.8720   73.9350  220.7860 C   0  0  0  0  0  0  0  0  0  0  0  0
  142.2160   75.2450  220.4900 C   0  0  0  0  0  0  0  0  0  0  0  0
  141.4470   76.2200  221.1180 C   0  0  0  0  0  0  0  0  0  0  0  0
  141.7670   77.5420  220.8420 C   0  0  0  0  0  0  0  0  0  0  0  0
  141.0080   78.5140  221.4610 C   0  0  0  0  0  0  0  0  0  0  0  0
  141.4180   80.1850  221.1080 Cl  0  0  0  0  0  0  0  0  0  0  0  0
  139.9730   78.1870  222.3200 C   0  0  0  0  0  0  0  0  0  0  0  0
  139.6540   76.8630  222.5950 C   0  0  0  0  0  0  0  0  0  0  0  0
  140.4170   75.8980  221.9730 C   0  0  0  0  0  0  0  0  0  0  0  0
  140.1290   74.5910  222.2220 N   0  0  0  0  0  0  0  0  0  0  0  0
  138.8780   72.6340  223.1950 H   0  0  0  0  0  0  0  0  0  0  0  0
  138.5287   70.0813  222.1969 H   0  0  0  0  0  0  0  0  0  0  0  0
  140.1558   69.9132  222.9440 H   0  0  0  0  0  0  0  0  0  0  0  0
  138.7438   67.5416  224.5796 H   0  0  0  0  0  0  0  0  0  0  0  0
  140.4678   67.9701  224.4553 H   0  0  0  0  0  0  0  0  0  0  0  0
  139.0826   66.6588  226.6153 H   0  0  0  0  0  0  0  0  0  0  0  0
  140.8145   67.0393  226.5003 H   0  0  0  0  0  0  0  0  0  0  0  0
  138.6425   68.4816  227.9475 H   0  0  0  0  0  0  0  0  0  0  0  0
  140.3760   68.5646  228.2312 H   0  0  0  0  0  0  0  0  0  0  0  0
  138.9817   70.5656  227.0769 H   0  0  0  0  0  0  0  0  0  0  0  0
  141.4717   69.6190  226.5848 H   0  0  0  0  0  0  0  0  0  0  0  0
  140.0891   72.2607  227.9430 H   0  0  0  0  0  0  0  0  0  0  0  0
  141.5882   72.2088  228.3395 H   0  0  0  0  0  0  0  0  0  0  0  0
  140.3730   72.3201  225.3562 H   0  0  0  0  0  0  0  0  0  0  0  0
  141.9313   72.2775  225.3011 H   0  0  0  0  0  0  0  0  0  0  0  0
  142.4457   73.1214  220.3181 H   0  0  0  0  0  0  0  0  0  0  0  0
  143.0400   75.4963  219.8060 H   0  0  0  0  0  0  0  0  0  0  0  0
  142.5894   77.8034  220.1599 H   0  0  0  0  0  0  0  0  0  0  0  0
  139.3916   78.9913  222.7943 H   0  0  0  0  0  0  0  0  0  0  0  0
  138.8322   76.5976  223.2763 H   0  0  0  0  0  0  0  0  0  0  0  0
  1  2  2  0
  2  3  1  0
  3  4  1  0
  4  5  1  0
  5  6  2  0
  5  7  1  0
  7  8  1  0
  8  9  1  0
  9 10  1  0
 10 11  1  0
 11 12  1  0
 12 13  1  0
 13 14  1  0
  2 15  1  0
 15 16  2  0
 16 17  1  0
 17 18  2  0
 18 19  1  0
 19 20  2  0
 20 21  1  0
 20 22  1  0
 22 23  2  0
 23 24  1  0
 24 25  2  0
 11  7  1  0
 14 12  1  0
 25 15  1  0
 24 18  1  0
  3 26  1  0
  4 27  1  0
  4 28  1  0
  8 29  1  0
  8 30  1  0
  9 31  1  0
  9 32  1  0
 10 33  1  0
 10 34  1  0
 11 35  1  1
 12 36  1  0
 13 37  1  0
 13 38  1  0
 14 39  1  0
 14 40  1  0
 16 41  1  0
 17 42  1  0
 19 43  1  0
 22 44  1  0
 23 45  1  0
M  END
>  <smiles>  (59) 
O=C(NCC(=O)N1CCCC1C1CC1)c1ccc2cc(Cl)ccc2n1

>  <score_type>  (59) 
oracle

>  <origin>  (59) 
autodockgpu

>  <m_score__min__energy>  (59) 
-7.8499999999999996

>  <m_primary>  (59) 
energy

>  <rmsd>  (59) 
8.566579030335063

>  <m_score__min__rmsd>  (59) 
8.566579030335063

>  <meeko>  (59) 
{"free_energy": -7.75, "intermolecular_energy": -9.25, "internal_energy": -1.57, "cluster_size": 18, "cluster_id": 2, "rank_in_cluster": 6}

>  <energy>  (59) 
-7.39

>  <cluster_rmsd>  (59) 
1.3

>  <cluster>  (59) 
1

$$$$

     RDKit          3D

 45 48  0  0  0  0  0  0  0  0999 V2000
  139.7590   72.3700  220.5090 O   0  0  0  0  0  0  0  0  0  0  0  0
  140.2620   72.7130  221.6020 C   0  0  0  0  0  0  0  0  0  0  0  0
  140.9320   73.9750  221.7720 N   0  0  0  0  0  0  0  0  0  0  0  0
  140.9800   74.8200  220.5810 C   0  0  0  0  0  0  0  0  0  0  0  0
  142.2610   74.6240  219.8850 C   0  0  0  0  0  0  0  0  0  0  0  0
  142.9580   75.5800  219.4130 O   0  0  0  0  0  0  0  0  0  0  0  0
  142.7890   73.3210  219.7060 N   0  0  0  0  0  0  0  0  0  0  0  0
  142.4530   72.4730  218.5530 C   0  0  0  0  0  0  0  0  0  0  0  0
  142.8100   71.0720  218.9130 C   0  0  0  0  0  0  0  0  0  0  0  0
  143.3980   71.1160  220.3070 C   0  0  0  0  0  0  0  0  0  0  0  0
  143.7060   72.5630  220.5290 C   0  0  1  0  0  0  0  0  0  0  0  0
  145.1250   72.9600  220.3610 C   0  0  0  0  0  0  0  0  0  0  0  0
  146.0010   73.0280  221.6080 C   0  0  0  0  0  0  0  0  0  0  0  0
  145.6920   74.2560  220.7980 C   0  0  0  0  0  0  0  0  0  0  0  0
  140.1930   71.8340  222.7810 C   0  0  0  0  0  0  0  0  0  0  0  0
  139.5900   70.5990  222.6470 C   0  0  0  0  0  0  0  0  0  0  0  0
  139.4760   69.7010  223.6960 C   0  0  0  0  0  0  0  0  0  0  0  0
  140.0130   70.1260  224.9080 C   0  0  0  0  0  0  0  0  0  0  0  0
  139.9140   69.2480  225.9780 C   0  0  0  0  0  0  0  0  0  0  0  0
  140.4450   69.6650  227.1820 C   0  0  0  0  0  0  0  0  0  0  0  0
  140.3170   68.5500  228.5330 Cl  0  0  0  0  0  0  0  0  0  0  0  0
  141.0490   70.9030  227.3180 C   0  0  0  0  0  0  0  0  0  0  0  0
  141.1470   71.7790  226.2450 C   0  0  0  0  0  0  0  0  0  0  0  0
  140.6150   71.3570  225.0450 C   0  0  0  0  0  0  0  0  0  0  0  0
  140.6950   72.1940  223.9760 N   0  0  0  0  0  0  0  0  0  0  0  0
  141.3500   74.2550  222.6840 H   0  0  0  0  0  0  0  0  0  0  0  0
  140.1531   74.5501  219.9077 H   0  0  0  0  0  0  0  0  0  0  0  0
  140.8849   75.8747  220.8787 H   0  0  0  0  0  0  0  0  0  0  0  0
  141.3770   72.5430  218.3353 H   0  0  0  0  0  0  0  0  0  0  0  0
  143.0043   72.7971  217.6580 H   0  0  0  0  0  0  0  0  0  0  0  0
  141.9119   70.4370  218.9005 H   0  0  0  0  0  0  0  0  0  0  0  0
  143.5281   70.6502  218.1944 H   0  0  0  0  0  0  0  0  0  0  0  0
  142.6711   70.7534  221.0488 H   0  0  0  0  0  0  0  0  0  0  0  0
  144.2860   70.4752  220.4105 H   0  0  0  0  0  0  0  0  0  0  0  0
  143.5557   72.7884  221.5951 H   0  0  0  0  0  0  0  0  0  0  0  0
  145.1247   72.4433  219.3899 H   0  0  0  0  0  0  0  0  0  0  0  0
  145.5563   72.8958  222.6054 H   0  0  0  0  0  0  0  0  0  0  0  0
  146.9153   72.5245  221.9552 H   0  0  0  0  0  0  0  0  0  0  0  0
  145.0290   75.0301  221.2116 H   0  0  0  0  0  0  0  0  0  0  0  0
  146.3034   75.0307  220.3123 H   0  0  0  0  0  0  0  0  0  0  0  0
  139.1826   70.3159  221.6652 H   0  0  0  0  0  0  0  0  0  0  0  0
  138.9940   68.7192  223.5791 H   0  0  0  0  0  0  0  0  0  0  0  0
  139.4340   68.2640  225.8715 H   0  0  0  0  0  0  0  0  0  0  0  0
  141.4593   71.1986  228.2949 H   0  0  0  0  0  0  0  0  0  0  0  0
  141.6267   72.7636  226.3476 H   0  0  0  0  0  0  0  0  0  0  0  0
  1  2  2  0
  2  3  1  0
  3  4  1  0
  4  5  1  0
  5  6  2  0
  5  7  1  0
  7  8  1  0
  8  9  1  0
  9 10  1  0
 10 11  1  0
 11 12  1  0
 12 13  1  0
 13 14  1  0
  2 15  1  0
 15 16  2  0
 16 17  1  0
 17 18  2  0
 18 19  1  0
 19 20  2  0
 20 21  1  0
 20 22  1  0
 22 23  2  0
 23 24  1  0
 24 25  2  0
 11  7  1  0
 14 12  1  0
 25 15  1  0
 24 18  1  0
  3 26  1  0
  4 27  1  0
  4 28  1  0
  8 29  1  0
  8 30  1  0
  9 31  1  0
  9 32  1  0
 10 33  1  0
 10 34  1  0
 11 35  1  1
 12 36  1  0
 13 37  1  0
 13 38  1  0
 14 39  1  0
 14 40  1  0
 16 41  1  0
 17 42  1  0
 19 43  1  0
 22 44  1  0
 23 45  1  0
M  END
>  <smiles>  (60) 
O=C(NCC(=O)N1CCCC1C1CC1)c1ccc2cc(Cl)ccc2n1

>  <score_type>  (60) 
oracle

>  <origin>  (60) 
autodockgpu

>  <m_score__min__energy>  (60) 
-7.8499999999999996

>  <m_primary>  (60) 
energy

>  <rmsd>  (60) 
3.6709907195821674

>  <m_score__min__rmsd>  (60) 
3.6709907195821674

>  <meeko>  (60) 
{"free_energy": -6.45, "intermolecular_energy": -7.94, "internal_energy": -1.9, "cluster_size": 8, "cluster_id": 4, "rank_in_cluster": 8}

>  <energy>  (60) 
-7.25

>  <cluster_rmsd>  (60) 
0.88

>  <cluster>  (60) 
1

$$$$

     RDKit          3D

 45 48  0  0  0  0  0  0  0  0999 V2000
  134.9430   68.5210  224.6850 O   0  0  0  0  0  0  0  0  0  0  0  0
  135.4370   69.6700  224.7200 C   0  0  0  0  0  0  0  0  0  0  0  0
  136.7300   69.9630  224.1610 N   0  0  0  0  0  0  0  0  0  0  0  0
  137.4180   68.8260  223.5520 C   0  0  0  0  0  0  0  0  0  0  0  0
  138.6840   68.5770  224.2560 C   0  0  0  0  0  0  0  0  0  0  0  0
  139.1250   67.4120  224.5180 O   0  0  0  0  0  0  0  0  0  0  0  0
  139.4910   69.6590  224.6860 N   0  0  0  0  0  0  0  0  0  0  0  0
  139.4620   70.9840  224.0460 C   0  0  0  0  0  0  0  0  0  0  0  0
  140.7070   71.6970  224.4440 C   0  0  0  0  0  0  0  0  0  0  0  0
  141.4680   70.7680  225.3650 C   0  0  0  0  0  0  0  0  0  0  0  0
  140.4580   69.7370  225.7600 C   0  0  1  0  0  0  0  0  0  0  0  0
  139.8470   69.9030  227.1010 C   0  0  0  0  0  0  0  0  0  0  0  0
  140.5580   70.8050  228.1040 C   0  0  0  0  0  0  0  0  0  0  0  0
  140.3950   69.3310  228.3510 C   0  0  0  0  0  0  0  0  0  0  0  0
  134.7130   70.7910  225.3420 C   0  0  0  0  0  0  0  0  0  0  0  0
  133.7130   70.5060  226.2490 C   0  0  0  0  0  0  0  0  0  0  0  0
  132.9750   71.4900  226.8880 C   0  0  0  0  0  0  0  0  0  0  0  0
  133.3100   72.7990  226.5540 C   0  0  0  0  0  0  0  0  0  0  0  0
  132.5880   73.8070  227.1770 C   0  0  0  0  0  0  0  0  0  0  0  0
  132.9160   75.1070  226.8500 C   0  0  0  0  0  0  0  0  0  0  0  0
  132.0000   76.3800  227.6420 Cl  0  0  0  0  0  0  0  0  0  0  0  0
  133.9190   75.3950  225.9400 C   0  0  0  0  0  0  0  0  0  0  0  0
  134.6400   74.3830  225.3180 C   0  0  0  0  0  0  0  0  0  0  0  0
  134.3070   73.0870  225.6500 C   0  0  0  0  0  0  0  0  0  0  0  0
  134.9950   72.0750  225.0560 N   0  0  0  0  0  0  0  0  0  0  0  0
  137.1370   70.9210  224.1940 H   0  0  0  0  0  0  0  0  0  0  0  0
  136.7796   67.9328  223.6210 H   0  0  0  0  0  0  0  0  0  0  0  0
  137.6271   69.0504  222.4956 H   0  0  0  0  0  0  0  0  0  0  0  0
  139.4256   70.8727  222.9523 H   0  0  0  0  0  0  0  0  0  0  0  0
  138.5726   71.5489  224.3618 H   0  0  0  0  0  0  0  0  0  0  0  0
  141.3119   71.9277  223.5547 H   0  0  0  0  0  0  0  0  0  0  0  0
  140.4739   72.6472  224.9468 H   0  0  0  0  0  0  0  0  0  0  0  0
  142.3147   70.3034  224.8384 H   0  0  0  0  0  0  0  0  0  0  0  0
  141.8976   71.2917  226.2317 H   0  0  0  0  0  0  0  0  0  0  0  0
  140.9787   68.7769  225.8908 H   0  0  0  0  0  0  0  0  0  0  0  0
  138.8572   69.8292  226.6268 H   0  0  0  0  0  0  0  0  0  0  0  0
  141.5488   71.2213  227.8696 H   0  0  0  0  0  0  0  0  0  0  0  0
  140.3063   71.7264  228.6495 H   0  0  0  0  0  0  0  0  0  0  0  0
  141.2734   68.6702  228.3098 H   0  0  0  0  0  0  0  0  0  0  0  0
  139.9744   68.7305  229.1711 H   0  0  0  0  0  0  0  0  0  0  0  0
  133.4919   69.4523  226.4747 H   0  0  0  0  0  0  0  0  0  0  0  0
  132.1793   71.2527  227.6095 H   0  0  0  0  0  0  0  0  0  0  0  0
  131.7899   73.5800  227.8992 H   0  0  0  0  0  0  0  0  0  0  0  0
  134.1494   76.4446  225.7050 H   0  0  0  0  0  0  0  0  0  0  0  0
  135.4386   74.6054  224.5950 H   0  0  0  0  0  0  0  0  0  0  0  0
  1  2  2  0
  2  3  1  0
  3  4  1  0
  4  5  1  0
  5  6  2  0
  5  7  1  0
  7  8  1  0
  8  9  1  0
  9 10  1  0
 10 11  1  0
 11 12  1  0
 12 13  1  0
 13 14  1  0
  2 15  1  0
 15 16  2  0
 16 17  1  0
 17 18  2  0
 18 19  1  0
 19 20  2  0
 20 21  1  0
 20 22  1  0
 22 23  2  0
 23 24  1  0
 24 25  2  0
 11  7  1  0
 14 12  1  0
 25 15  1  0
 24 18  1  0
  3 26  1  0
  4 27  1  0
  4 28  1  0
  8 29  1  0
  8 30  1  0
  9 31  1  0
  9 32  1  0
 10 33  1  0
 10 34  1  0
 11 35  1  1
 12 36  1  0
 13 37  1  0
 13 38  1  0
 14 39  1  0
 14 40  1  0
 16 41  1  0
 17 42  1  0
 19 43  1  0
 22 44  1  0
 23 45  1  0
M  END
>  <smiles>  (61) 
O=C(NCC(=O)N1CCCC1C1CC1)c1ccc2cc(Cl)ccc2n1

>  <score_type>  (61) 
oracle

>  <origin>  (61) 
autodockgpu

>  <m_score__min__energy>  (61) 
-7.8499999999999996

>  <m_primary>  (61) 
energy

>  <rmsd>  (61) 
7.542124003700234

>  <m_score__min__rmsd>  (61) 
7.542124003700234

>  <meeko>  (61) 
{"free_energy": -7.56, "intermolecular_energy": -9.05, "internal_energy": -1.35, "cluster_size": 11, "cluster_id": 3, "rank_in_cluster": 1}

>  <energy>  (61) 
-7.12

>  <cluster_rmsd>  (61) 
1.45

>  <cluster>  (61) 
1

$$$$

     RDKit          3D

 45 48  0  0  0  0  0  0  0  0999 V2000
  140.9020   71.1860  221.5780 O   0  0  0  0  0  0  0  0  0  0  0  0
  140.1880   72.1430  221.9500 C   0  0  0  0  0  0  0  0  0  0  0  0
  138.9480   71.9430  222.6520 N   0  0  0  0  0  0  0  0  0  0  0  0
  138.5890   70.5470  222.8970 C   0  0  0  0  0  0  0  0  0  0  0  0
  138.4770   70.3100  224.3430 C   0  0  0  0  0  0  0  0  0  0  0  0
  137.3690   70.1110  224.9390 O   0  0  0  0  0  0  0  0  0  0  0  0
  139.6350   70.2930  225.1600 N   0  0  0  0  0  0  0  0  0  0  0  0
  140.3050   71.5170  225.6250 C   0  0  0  0  0  0  0  0  0  0  0  0
  141.6800   71.1350  226.0550 C   0  0  0  0  0  0  0  0  0  0  0  0
  141.7980   69.6390  225.8600 C   0  0  0  0  0  0  0  0  0  0  0  0
  140.3850   69.1770  225.6970 C   0  0  1  0  0  0  0  0  0  0  0  0
  139.7590   68.5600  226.8920 C   0  0  0  0  0  0  0  0  0  0  0  0
  139.6130   69.4170  228.1460 C   0  0  0  0  0  0  0  0  0  0  0  0
  140.4870   68.1940  228.1270 C   0  0  0  0  0  0  0  0  0  0  0  0
  140.5830   73.5360  221.6850 C   0  0  0  0  0  0  0  0  0  0  0  0
  141.6150   73.7710  220.7980 C   0  0  0  0  0  0  0  0  0  0  0  0
  142.0590   75.0450  220.4820 C   0  0  0  0  0  0  0  0  0  0  0  0
  141.3940   76.0850  221.1240 C   0  0  0  0  0  0  0  0  0  0  0  0
  141.8170   77.3740  220.8280 C   0  0  0  0  0  0  0  0  0  0  0  0
  141.1610   78.4100  221.4610 C   0  0  0  0  0  0  0  0  0  0  0  0
  141.7000   80.0380  221.0840 Cl  0  0  0  0  0  0  0  0  0  0  0  0
  140.1270   78.1770  222.3510 C   0  0  0  0  0  0  0  0  0  0  0  0
  139.7050   76.8860  222.6450 C   0  0  0  0  0  0  0  0  0  0  0  0
  140.3650   75.8560  222.0090 C   0  0  0  0  0  0  0  0  0  0  0  0
  139.9750   74.5800  222.2770 N   0  0  0  0  0  0  0  0  0  0  0  0
  138.3560   72.7430  222.9590 H   0  0  0  0  0  0  0  0  0  0  0  0
  137.6250   70.3275  222.4149 H   0  0  0  0  0  0  0  0  0  0  0  0
  139.3685   69.8922  222.4802 H   0  0  0  0  0  0  0  0  0  0  0  0
  140.3568   72.2513  224.8076 H   0  0  0  0  0  0  0  0  0  0  0  0
  139.7493   71.9720  226.4581 H   0  0  0  0  0  0  0  0  0  0  0  0
  142.4280   71.6574  225.4405 H   0  0  0  0  0  0  0  0  0  0  0  0
  141.8570   71.4119  227.1048 H   0  0  0  0  0  0  0  0  0  0  0  0
  142.3898   69.4082  224.9620 H   0  0  0  0  0  0  0  0  0  0  0  0
  142.3087   69.1440  226.6991 H   0  0  0  0  0  0  0  0  0  0  0  0
  140.3788   68.3260  225.0000 H   0  0  0  0  0  0  0  0  0  0  0  0
  139.1105   67.9814  226.2177 H   0  0  0  0  0  0  0  0  0  0  0  0
  140.0636   70.4196  228.1876 H   0  0  0  0  0  0  0  0  0  0  0  0
  138.7741   69.7750  228.7609 H   0  0  0  0  0  0  0  0  0  0  0  0
  141.5807   68.3041  228.1687 H   0  0  0  0  0  0  0  0  0  0  0  0
  140.5490   67.2839  228.7417 H   0  0  0  0  0  0  0  0  0  0  0  0
  142.1059   72.9095  220.3217 H   0  0  0  0  0  0  0  0  0  0  0  0
  142.8807   75.2220  219.7724 H   0  0  0  0  0  0  0  0  0  0  0  0
  142.6383   77.5610  220.1206 H   0  0  0  0  0  0  0  0  0  0  0  0
  139.6295   79.0303  222.8351 H   0  0  0  0  0  0  0  0  0  0  0  0
  138.8837   76.6950  223.3514 H   0  0  0  0  0  0  0  0  0  0  0  0
  1  2  2  0
  2  3  1  0
  3  4  1  0
  4  5  1  0
  5  6  2  0
  5  7  1  0
  7  8  1  0
  8  9  1  0
  9 10  1  0
 10 11  1  0
 11 12  1  0
 12 13  1  0
 13 14  1  0
  2 15  1  0
 15 16  2  0
 16 17  1  0
 17 18  2  0
 18 19  1  0
 19 20  2  0
 20 21  1  0
 20 22  1  0
 22 23  2  0
 23 24  1  0
 24 25  2  0
 11  7  1  0
 14 12  1  0
 25 15  1  0
 24 18  1  0
  3 26  1  0
  4 27  1  0
  4 28  1  0
  8 29  1  0
  8 30  1  0
  9 31  1  0
  9 32  1  0
 10 33  1  0
 10 34  1  0
 11 35  1  6
 12 36  1  0
 13 37  1  0
 13 38  1  0
 14 39  1  0
 14 40  1  0
 16 41  1  0
 17 42  1  0
 19 43  1  0
 22 44  1  0
 23 45  1  0
M  END
>  <smiles>  (62) 
O=C(NCC(=O)N1CCCC1C1CC1)c1ccc2cc(Cl)ccc2n1

>  <score_type>  (62) 
oracle

>  <origin>  (62) 
autodockgpu

>  <m_score__min__energy>  (62) 
-7.8499999999999996

>  <m_primary>  (62) 
energy

>  <rmsd>  (62) 
7.940316660902472

>  <m_score__min__rmsd>  (62) 
7.940316660902472

>  <meeko>  (62) 
{"free_energy": -7.3, "intermolecular_energy": -8.79, "internal_energy": -1.49, "cluster_size": 18, "cluster_id": 2, "rank_in_cluster": 18}

>  <energy>  (62) 
-7.08

>  <cluster_rmsd>  (62) 
1.45

>  <cluster>  (62) 
1

$$$$

     RDKit          3D

 45 48  0  0  0  0  0  0  0  0999 V2000
  134.7970   68.5180  224.9580 O   0  0  0  0  0  0  0  0  0  0  0  0
  135.2530   69.6830  224.9630 C   0  0  0  0  0  0  0  0  0  0  0  0
  136.5190   70.0100  224.3610 N   0  0  0  0  0  0  0  0  0  0  0  0
  137.2270   68.8870  223.7490 C   0  0  0  0  0  0  0  0  0  0  0  0
  138.5010   68.6630  224.4480 C   0  0  0  0  0  0  0  0  0  0  0  0
  138.9150   67.5130  224.8030 O   0  0  0  0  0  0  0  0  0  0  0  0
  139.3470   69.7550  224.7660 N   0  0  0  0  0  0  0  0  0  0  0  0
  139.2490   71.0640  224.1020 C   0  0  0  0  0  0  0  0  0  0  0  0
  140.5280   71.7850  224.3510 C   0  0  0  0  0  0  0  0  0  0  0  0
  141.3810   70.8780  225.2110 C   0  0  0  0  0  0  0  0  0  0  0  0
  140.4200   69.8570  225.7320 C   0  0  1  0  0  0  0  0  0  0  0  0
  139.9500   70.0550  227.1250 C   0  0  0  0  0  0  0  0  0  0  0  0
  140.7350   71.0140  228.0140 C   0  0  0  0  0  0  0  0  0  0  0  0
  140.6470   69.5470  228.3270 C   0  0  0  0  0  0  0  0  0  0  0  0
  134.5100   70.7890  225.5890 C   0  0  0  0  0  0  0  0  0  0  0  0
  133.5000   70.4820  226.4790 C   0  0  0  0  0  0  0  0  0  0  0  0
  132.7440   71.4510  227.1200 C   0  0  0  0  0  0  0  0  0  0  0  0
  133.0710   72.7670  226.8070 C   0  0  0  0  0  0  0  0  0  0  0  0
  132.3320   73.7600  227.4340 C   0  0  0  0  0  0  0  0  0  0  0  0
  132.6510   75.0680  227.1280 C   0  0  0  0  0  0  0  0  0  0  0  0
  131.7110   76.3210  227.9240 Cl  0  0  0  0  0  0  0  0  0  0  0  0
  133.6630   75.3770  226.2360 C   0  0  0  0  0  0  0  0  0  0  0  0
  134.4030   74.3800  225.6110 C   0  0  0  0  0  0  0  0  0  0  0  0
  134.0780   73.0770  225.9210 C   0  0  0  0  0  0  0  0  0  0  0  0
  134.7840   72.0790  225.3230 N   0  0  0  0  0  0  0  0  0  0  0  0
  136.8950   70.9810  224.3690 H   0  0  0  0  0  0  0  0  0  0  0  0
  136.6068   67.9813  223.8204 H   0  0  0  0  0  0  0  0  0  0  0  0
  137.4273   69.1157  222.6918 H   0  0  0  0  0  0  0  0  0  0  0  0
  139.0985   70.9272  223.0210 H   0  0  0  0  0  0  0  0  0  0  0  0
  138.3965   71.6370  224.4956 H   0  0  0  0  0  0  0  0  0  0  0  0
  141.0374   71.9926  223.3984 H   0  0  0  0  0  0  0  0  0  0  0  0
  140.3474   72.7479  224.8512 H   0  0  0  0  0  0  0  0  0  0  0  0
  142.1703   70.4009  224.6115 H   0  0  0  0  0  0  0  0  0  0  0  0
  141.8955   71.4224  226.0166 H   0  0  0  0  0  0  0  0  0  0  0  0
  140.9535   68.9001  225.8304 H   0  0  0  0  0  0  0  0  0  0  0  0
  138.9181   69.9347  226.7635 H   0  0  0  0  0  0  0  0  0  0  0  0
  141.6811   71.4492  227.6598 H   0  0  0  0  0  0  0  0  0  0  0  0
  140.5136   71.9477  228.5518 H   0  0  0  0  0  0  0  0  0  0  0  0
  141.5369   68.9104  228.2136 H   0  0  0  0  0  0  0  0  0  0  0  0
  140.3362   68.9661  229.2079 H   0  0  0  0  0  0  0  0  0  0  0  0
  133.2862   69.4235  226.6883 H   0  0  0  0  0  0  0  0  0  0  0  0
  131.9408   71.1972  227.8274 H   0  0  0  0  0  0  0  0  0  0  0  0
  131.5276   73.5159  228.1435 H   0  0  0  0  0  0  0  0  0  0  0  0
  133.8860   76.4317  226.0174 H   0  0  0  0  0  0  0  0  0  0  0  0
  135.2097   74.6196  224.9026 H   0  0  0  0  0  0  0  0  0  0  0  0
  1  2  2  0
  2  3  1  0
  3  4  1  0
  4  5  1  0
  5  6  2  0
  5  7  1  0
  7  8  1  0
  8  9  1  0
  9 10  1  0
 10 11  1  0
 11 12  1  0
 12 13  1  0
 13 14  1  0
  2 15  1  0
 15 16  2  0
 16 17  1  0
 17 18  2  0
 18 19  1  0
 19 20  2  0
 20 21  1  0
 20 22  1  0
 22 23  2  0
 23 24  1  0
 24 25  2  0
 11  7  1  0
 14 12  1  0
 25 15  1  0
 24 18  1  0
  3 26  1  0
  4 27  1  0
  4 28  1  0
  8 29  1  0
  8 30  1  0
  9 31  1  0
  9 32  1  0
 10 33  1  0
 10 34  1  0
 11 35  1  1
 12 36  1  0
 13 37  1  0
 13 38  1  0
 14 39  1  0
 14 40  1  0
 16 41  1  0
 17 42  1  0
 19 43  1  0
 22 44  1  0
 23 45  1  0
M  END
>  <smiles>  (63) 
O=C(NCC(=O)N1CCCC1C1CC1)c1ccc2cc(Cl)ccc2n1

>  <score_type>  (63) 
oracle

>  <origin>  (63) 
autodockgpu

>  <m_score__min__energy>  (63) 
-7.8499999999999996

>  <m_primary>  (63) 
energy

>  <rmsd>  (63) 
7.604756922997097

>  <m_score__min__rmsd>  (63) 
7.604756922997097

>  <meeko>  (63) 
{"free_energy": -7.55, "intermolecular_energy": -9.05, "internal_energy": -1.34, "cluster_size": 11, "cluster_id": 3, "rank_in_cluster": 2}

>  <energy>  (63) 
-7.06

>  <cluster_rmsd>  (63) 
1.67

>  <cluster>  (63) 
1

$$$$

     RDKit          3D

 45 48  0  0  0  0  0  0  0  0999 V2000
  139.9100   72.3510  220.3840 O   0  0  0  0  0  0  0  0  0  0  0  0
  140.2490   72.7640  221.5160 C   0  0  0  0  0  0  0  0  0  0  0  0
  140.7130   74.1090  221.7300 N   0  0  0  0  0  0  0  0  0  0  0  0
  140.7580   74.9500  220.5350 C   0  0  0  0  0  0  0  0  0  0  0  0
  142.1320   75.0050  220.0190 C   0  0  0  0  0  0  0  0  0  0  0  0
  142.7030   76.0830  219.6520 O   0  0  0  0  0  0  0  0  0  0  0  0
  142.9050   73.8230  219.9040 N   0  0  0  0  0  0  0  0  0  0  0  0
  142.8670   72.9540  218.7180 C   0  0  0  0  0  0  0  0  0  0  0  0
  143.4260   71.6310  219.1180 C   0  0  0  0  0  0  0  0  0  0  0  0
  143.8260   71.7480  220.5730 C   0  0  0  0  0  0  0  0  0  0  0  0
  143.8390   73.2220  220.8320 C   0  0  1  0  0  0  0  0  0  0  0  0
  145.1730   73.8710  220.8370 C   0  0  0  0  0  0  0  0  0  0  0  0
  146.3190   73.1550  220.1280 C   0  0  0  0  0  0  0  0  0  0  0  0
  146.3380   73.3900  221.6120 C   0  0  0  0  0  0  0  0  0  0  0  0
  140.1900   71.8860  222.6960 C   0  0  0  0  0  0  0  0  0  0  0  0
  139.6050   70.6430  222.5630 C   0  0  0  0  0  0  0  0  0  0  0  0
  139.5010   69.7450  223.6140 C   0  0  0  0  0  0  0  0  0  0  0  0
  140.0300   70.1800  224.8250 C   0  0  0  0  0  0  0  0  0  0  0  0
  139.9420   69.3030  225.8970 C   0  0  0  0  0  0  0  0  0  0  0  0
  140.4640   69.7290  227.1010 C   0  0  0  0  0  0  0  0  0  0  0  0
  140.3490   68.6140  228.4540 Cl  0  0  0  0  0  0  0  0  0  0  0  0
  141.0510   70.9750  227.2360 C   0  0  0  0  0  0  0  0  0  0  0  0
  141.1390   71.8510  226.1610 C   0  0  0  0  0  0  0  0  0  0  0  0
  140.6150   71.4190  224.9620 C   0  0  0  0  0  0  0  0  0  0  0  0
  140.6850   72.2550  223.8910 N   0  0  0  0  0  0  0  0  0  0  0  0
  140.9950   74.4480  222.6730 H   0  0  0  0  0  0  0  0  0  0  0  0
  140.0952   74.5274  219.7655 H   0  0  0  0  0  0  0  0  0  0  0  0
  140.4249   75.9663  220.7924 H   0  0  0  0  0  0  0  0  0  0  0  0
  141.8297   72.8350  218.3719 H   0  0  0  0  0  0  0  0  0  0  0  0
  143.4532   73.3915  217.8964 H   0  0  0  0  0  0  0  0  0  0  0  0
  142.6653   70.8459  218.9962 H   0  0  0  0  0  0  0  0  0  0  0  0
  144.2890   71.3611  218.4916 H   0  0  0  0  0  0  0  0  0  0  0  0
  143.0934   71.2444  221.2208 H   0  0  0  0  0  0  0  0  0  0  0  0
  144.7964   71.2744  220.7829 H   0  0  0  0  0  0  0  0  0  0  0  0
  143.5244   73.3915  221.8723 H   0  0  0  0  0  0  0  0  0  0  0  0
  144.6668   74.8466  220.7928 H   0  0  0  0  0  0  0  0  0  0  0  0
  146.1760   72.1397  219.7295 H   0  0  0  0  0  0  0  0  0  0  0  0
  146.9893   73.3846  219.2866 H   0  0  0  0  0  0  0  0  0  0  0  0
  146.2220   72.5401  222.3006 H   0  0  0  0  0  0  0  0  0  0  0  0
  147.0479   73.8635  222.3062 H   0  0  0  0  0  0  0  0  0  0  0  0
  139.2040   70.3524  221.5808 H   0  0  0  0  0  0  0  0  0  0  0  0
  139.0325   68.7565  223.4984 H   0  0  0  0  0  0  0  0  0  0  0  0
  139.4766   68.3119  225.7914 H   0  0  0  0  0  0  0  0  0  0  0  0
  141.4556   71.2777  228.2131 H   0  0  0  0  0  0  0  0  0  0  0  0
  141.6049   72.8423  226.2623 H   0  0  0  0  0  0  0  0  0  0  0  0
  1  2  2  0
  2  3  1  0
  3  4  1  0
  4  5  1  0
  5  6  2  0
  5  7  1  0
  7  8  1  0
  8  9  1  0
  9 10  1  0
 10 11  1  0
 11 12  1  0
 12 13  1  0
 13 14  1  0
  2 15  1  0
 15 16  2  0
 16 17  1  0
 17 18  2  0
 18 19  1  0
 19 20  2  0
 20 21  1  0
 20 22  1  0
 22 23  2  0
 23 24  1  0
 24 25  2  0
 11  7  1  0
 14 12  1  0
 25 15  1  0
 24 18  1  0
  3 26  1  0
  4 27  1  0
  4 28  1  0
  8 29  1  0
  8 30  1  0
  9 31  1  0
  9 32  1  0
 10 33  1  0
 10 34  1  0
 11 35  1  1
 12 36  1  0
 13 37  1  0
 13 38  1  0
 14 39  1  0
 14 40  1  0
 16 41  1  0
 17 42  1  0
 19 43  1  0
 22 44  1  0
 23 45  1  0
M  END
>  <smiles>  (64) 
O=C(NCC(=O)N1CCCC1C1CC1)c1ccc2cc(Cl)ccc2n1

>  <score_type>  (64) 
oracle

>  <origin>  (64) 
autodockgpu

>  <m_score__min__energy>  (64) 
-7.8499999999999996

>  <m_primary>  (64) 
energy

>  <rmsd>  (64) 
3.555317930533458

>  <m_score__min__rmsd>  (64) 
3.555317930533458

>  <meeko>  (64) 
{"free_energy": -6.77, "intermolecular_energy": -8.26, "internal_energy": -1.8, "cluster_size": 8, "cluster_id": 4, "rank_in_cluster": 6}

>  <energy>  (64) 
-7.83

>  <cluster_rmsd>  (64) 
0.0

>  <cluster>  (64) 
2

$$$$

     RDKit          3D

 45 48  0  0  0  0  0  0  0  0999 V2000
  135.0290   68.4930  224.8520 O   0  0  0  0  0  0  0  0  0  0  0  0
  135.4560   69.6660  224.7650 C   0  0  0  0  0  0  0  0  0  0  0  0
  136.6750   69.9860  224.0710 N   0  0  0  0  0  0  0  0  0  0  0  0
  137.3730   68.8470  223.4790 C   0  0  0  0  0  0  0  0  0  0  0  0
  138.6150   68.5860  224.2200 C   0  0  0  0  0  0  0  0  0  0  0  0
  139.0300   67.4170  224.5080 O   0  0  0  0  0  0  0  0  0  0  0  0
  139.4280   69.6610  224.6600 N   0  0  0  0  0  0  0  0  0  0  0  0
  139.4330   70.9790  224.0070 C   0  0  0  0  0  0  0  0  0  0  0  0
  140.6800   71.6780  224.4290 C   0  0  0  0  0  0  0  0  0  0  0  0
  141.4030   70.7470  225.3770 C   0  0  0  0  0  0  0  0  0  0  0  0
  140.3690   69.7340  225.7570 C   0  0  1  0  0  0  0  0  0  0  0  0
  139.7270   69.9220  227.0800 C   0  0  0  0  0  0  0  0  0  0  0  0
  140.4380   70.8050  228.1010 C   0  0  0  0  0  0  0  0  0  0  0  0
  140.2250   69.3380  228.3460 C   0  0  0  0  0  0  0  0  0  0  0  0
  134.7240   70.7890  225.3750 C   0  0  0  0  0  0  0  0  0  0  0  0
  133.7190   70.5070  226.2780 C   0  0  0  0  0  0  0  0  0  0  0  0
  132.9740   71.4930  226.9050 C   0  0  0  0  0  0  0  0  0  0  0  0
  133.3050   72.8000  226.5630 C   0  0  0  0  0  0  0  0  0  0  0  0
  132.5770   73.8100  227.1750 C   0  0  0  0  0  0  0  0  0  0  0  0
  132.9020   75.1090  226.8400 C   0  0  0  0  0  0  0  0  0  0  0  0
  131.9760   76.3840  227.6170 Cl  0  0  0  0  0  0  0  0  0  0  0  0
  133.9090   75.3940  225.9350 C   0  0  0  0  0  0  0  0  0  0  0  0
  134.6380   74.3810  225.3240 C   0  0  0  0  0  0  0  0  0  0  0  0
  134.3080   73.0860  225.6630 C   0  0  0  0  0  0  0  0  0  0  0  0
  135.0030   72.0710  225.0810 N   0  0  0  0  0  0  0  0  0  0  0  0
  137.0260   70.9640  224.0020 H   0  0  0  0  0  0  0  0  0  0  0  0
  136.7265   67.9582  223.5248 H   0  0  0  0  0  0  0  0  0  0  0  0
  137.6159   69.0742  222.4305 H   0  0  0  0  0  0  0  0  0  0  0  0
  139.4211   70.8575  222.9138 H   0  0  0  0  0  0  0  0  0  0  0  0
  138.5444   71.5598  224.2952 H   0  0  0  0  0  0  0  0  0  0  0  0
  141.3101   71.8905  223.5528 H   0  0  0  0  0  0  0  0  0  0  0  0
  140.4495   72.6368  224.9164 H   0  0  0  0  0  0  0  0  0  0  0  0
  142.2555   70.2651  224.8760 H   0  0  0  0  0  0  0  0  0  0  0  0
  141.8179   71.2731  226.2494 H   0  0  0  0  0  0  0  0  0  0  0  0
  140.8722   68.7680  225.9103 H   0  0  0  0  0  0  0  0  0  0  0  0
  138.7485   69.8765  226.5795 H   0  0  0  0  0  0  0  0  0  0  0  0
  141.4467   71.1912  227.8925 H   0  0  0  0  0  0  0  0  0  0  0  0
  140.1993   71.7347  228.6382 H   0  0  0  0  0  0  0  0  0  0  0  0
  141.0844   68.6515  228.3295 H   0  0  0  0  0  0  0  0  0  0  0  0
  139.7652   68.7526  229.1559 H   0  0  0  0  0  0  0  0  0  0  0  0
  133.5000   69.4543  226.5100 H   0  0  0  0  0  0  0  0  0  0  0  0
  132.1754   71.2581  227.6241 H   0  0  0  0  0  0  0  0  0  0  0  0
  131.7764   73.5856  227.8952 H   0  0  0  0  0  0  0  0  0  0  0  0
  134.1370   76.4429  225.6945 H   0  0  0  0  0  0  0  0  0  0  0  0
  135.4400   74.6018  224.6043 H   0  0  0  0  0  0  0  0  0  0  0  0
  1  2  2  0
  2  3  1  0
  3  4  1  0
  4  5  1  0
  5  6  2  0
  5  7  1  0
  7  8  1  0
  8  9  1  0
  9 10  1  0
 10 11  1  0
 11 12  1  0
 12 13  1  0
 13 14  1  0
  2 15  1  0
 15 16  2  0
 16 17  1  0
 17 18  2  0
 18 19  1  0
 19 20  2  0
 20 21  1  0
 20 22  1  0
 22 23  2  0
 23 24  1  0
 24 25  2  0
 11  7  1  0
 14 12  1  0
 25 15  1  0
 24 18  1  0
  3 26  1  0
  4 27  1  0
  4 28  1  0
  8 29  1  0
  8 30  1  0
  9 31  1  0
  9 32  1  0
 10 33  1  0
 10 34  1  0
 11 35  1  1
 12 36  1  0
 13 37  1  0
 13 38  1  0
 14 39  1  0
 14 40  1  0
 16 41  1  0
 17 42  1  0
 19 43  1  0
 22 44  1  0
 23 45  1  0
M  END
>  <smiles>  (65) 
O=C(NCC(=O)N1CCCC1C1CC1)c1ccc2cc(Cl)ccc2n1

>  <score_type>  (65) 
oracle

>  <origin>  (65) 
autodockgpu

>  <m_score__min__energy>  (65) 
-7.8499999999999996

>  <m_primary>  (65) 
energy

>  <rmsd>  (65) 
7.5433537773885995

>  <m_score__min__rmsd>  (65) 
7.5433537773885995

>  <meeko>  (65) 
{"free_energy": -7.5, "intermolecular_energy": -8.99, "internal_energy": -1.41, "cluster_size": 11, "cluster_id": 3, "rank_in_cluster": 6}

>  <energy>  (65) 
-7.82

>  <cluster_rmsd>  (65) 
0.1

>  <cluster>  (65) 
2

$$$$

     RDKit          3D

 45 48  0  0  0  0  0  0  0  0999 V2000
  138.6800   72.6960  221.1250 O   0  0  0  0  0  0  0  0  0  0  0  0
  139.6720   72.7290  221.8870 C   0  0  0  0  0  0  0  0  0  0  0  0
  140.7660   73.6400  221.6780 N   0  0  0  0  0  0  0  0  0  0  0  0
  140.6320   74.5190  220.5180 C   0  0  0  0  0  0  0  0  0  0  0  0
  141.0970   75.8700  220.8620 C   0  0  0  0  0  0  0  0  0  0  0  0
  142.2130   76.3490  220.4780 O   0  0  0  0  0  0  0  0  0  0  0  0
  140.2960   76.7230  221.6610 N   0  0  0  0  0  0  0  0  0  0  0  0
  139.0880   76.2620  222.3630 C   0  0  0  0  0  0  0  0  0  0  0  0
  138.2880   77.4690  222.7110 C   0  0  0  0  0  0  0  0  0  0  0  0
  139.0710   78.6680  222.2220 C   0  0  0  0  0  0  0  0  0  0  0  0
  140.4440   78.1300  221.9670 C   0  0  1  0  0  0  0  0  0  0  0  0
  141.4580   78.4090  223.0120 C   0  0  0  0  0  0  0  0  0  0  0  0
  141.3230   79.7010  223.8120 C   0  0  0  0  0  0  0  0  0  0  0  0
  142.5020   79.4530  222.9130 C   0  0  0  0  0  0  0  0  0  0  0  0
  139.7710   71.8280  223.0470 C   0  0  0  0  0  0  0  0  0  0  0  0
  139.2590   70.5510  222.9340 C   0  0  0  0  0  0  0  0  0  0  0  0
  139.3040   69.6290  223.9680 C   0  0  0  0  0  0  0  0  0  0  0  0
  139.9040   70.0760  225.1410 C   0  0  0  0  0  0  0  0  0  0  0  0
  139.9640   69.1760  226.1960 C   0  0  0  0  0  0  0  0  0  0  0  0
  140.5580   69.6150  227.3610 C   0  0  0  0  0  0  0  0  0  0  0  0
  140.6310   68.4710  228.6930 Cl  0  0  0  0  0  0  0  0  0  0  0  0
  141.0720   70.8950  227.4770 C   0  0  0  0  0  0  0  0  0  0  0  0
  141.0110   71.7940  226.4190 C   0  0  0  0  0  0  0  0  0  0  0  0
  140.4160   71.3500  225.2580 C   0  0  0  0  0  0  0  0  0  0  0  0
  140.3400   72.2080  224.2050 N   0  0  0  0  0  0  0  0  0  0  0  0
  141.5890   73.6630  222.3150 H   0  0  0  0  0  0  0  0  0  0  0  0
  141.2374   74.1244  219.6887 H   0  0  0  0  0  0  0  0  0  0  0  0
  139.5752   74.5641  220.2161 H   0  0  0  0  0  0  0  0  0  0  0  0
  138.5029   75.5987  221.7089 H   0  0  0  0  0  0  0  0  0  0  0  0
  139.3561   75.6989  223.2691 H   0  0  0  0  0  0  0  0  0  0  0  0
  137.3071   77.4292  222.2148 H   0  0  0  0  0  0  0  0  0  0  0  0
  138.1128   77.5274  223.7954 H   0  0  0  0  0  0  0  0  0  0  0  0
  138.6316   79.0703  221.2973 H   0  0  0  0  0  0  0  0  0  0  0  0
  139.0704   79.4958  222.9464 H   0  0  0  0  0  0  0  0  0  0  0  0
  140.8752   78.6750  221.1144 H   0  0  0  0  0  0  0  0  0  0  0  0
  141.5110   77.3279  223.2080 H   0  0  0  0  0  0  0  0  0  0  0  0
  140.5629   80.4468  223.5361 H   0  0  0  0  0  0  0  0  0  0  0  0
  141.1826   79.9587  224.8721 H   0  0  0  0  0  0  0  0  0  0  0  0
  142.6101   80.0303  221.9829 H   0  0  0  0  0  0  0  0  0  0  0  0
  143.5928   79.4653  223.0546 H   0  0  0  0  0  0  0  0  0  0  0  0
  138.7953   70.2522  221.9823 H   0  0  0  0  0  0  0  0  0  0  0  0
  138.8934   68.6134  223.8680 H   0  0  0  0  0  0  0  0  0  0  0  0
  139.5561   68.1583  226.1070 H   0  0  0  0  0  0  0  0  0  0  0  0
  141.5373   71.2063  228.4239 H   0  0  0  0  0  0  0  0  0  0  0  0
  141.4185   72.8122  226.5043 H   0  0  0  0  0  0  0  0  0  0  0  0
  1  2  2  0
  2  3  1  0
  3  4  1  0
  4  5  1  0
  5  6  2  0
  5  7  1  0
  7  8  1  0
  8  9  1  0
  9 10  1  0
 10 11  1  0
 11 12  1  0
 12 13  1  0
 13 14  1  0
  2 15  1  0
 15 16  2  0
 16 17  1  0
 17 18  2  0
 18 19  1  0
 19 20  2  0
 20 21  1  0
 20 22  1  0
 22 23  2  0
 23 24  1  0
 24 25  2  0
 11  7  1  0
 14 12  1  0
 25 15  1  0
 24 18  1  0
  3 26  1  0
  4 27  1  0
  4 28  1  0
  8 29  1  0
  8 30  1  0
  9 31  1  0
  9 32  1  0
 10 33  1  0
 10 34  1  0
 11 35  1  6
 12 36  1  0
 13 37  1  0
 13 38  1  0
 14 39  1  0
 14 40  1  0
 16 41  1  0
 17 42  1  0
 19 43  1  0
 22 44  1  0
 23 45  1  0
M  END
>  <smiles>  (66) 
O=C(NCC(=O)N1CCCC1C1CC1)c1ccc2cc(Cl)ccc2n1

>  <score_type>  (66) 
oracle

>  <origin>  (66) 
autodockgpu

>  <m_score__min__energy>  (66) 
-7.8499999999999996

>  <m_primary>  (66) 
energy

>  <rmsd>  (66) 
2.8388359140429493

>  <m_score__min__rmsd>  (66) 
2.8388359140429493

>  <meeko>  (66) 
{"free_energy": -7.25, "intermolecular_energy": -8.74, "internal_energy": -1.28, "cluster_size": 13, "cluster_id": 1, "rank_in_cluster": 10}

>  <energy>  (66) 
-7.81

>  <cluster_rmsd>  (66) 
0.12

>  <cluster>  (66) 
2

$$$$

     RDKit          3D

 45 48  0  0  0  0  0  0  0  0999 V2000
  139.9990   72.4380  220.8430 O   0  0  0  0  0  0  0  0  0  0  0  0
  139.8010   72.8120  222.0210 C   0  0  0  0  0  0  0  0  0  0  0  0
  139.4510   74.1700  222.3420 N   0  0  0  0  0  0  0  0  0  0  0  0
  139.3430   75.0730  221.1980 C   0  0  0  0  0  0  0  0  0  0  0  0
  139.1760   76.4550  221.6700 C   0  0  0  0  0  0  0  0  0  0  0  0
  138.3790   76.7860  222.6060 O   0  0  0  0  0  0  0  0  0  0  0  0
  139.9200   77.5090  221.0840 N   0  0  0  0  0  0  0  0  0  0  0  0
  139.4850   78.2170  219.8700 C   0  0  0  0  0  0  0  0  0  0  0  0
  140.6770   78.9150  219.3120 C   0  0  0  0  0  0  0  0  0  0  0  0
  141.8310   78.6240  220.2470 C   0  0  0  0  0  0  0  0  0  0  0  0
  141.1750   78.1050  221.4880 C   0  0  1  0  0  0  0  0  0  0  0  0
  141.0440   79.0690  222.6080 C   0  0  0  0  0  0  0  0  0  0  0  0
  142.1870   80.0510  222.8430 C   0  0  0  0  0  0  0  0  0  0  0  0
  141.8250   79.0090  223.8630 C   0  0  0  0  0  0  0  0  0  0  0  0
  139.9190   71.8720  223.1480 C   0  0  0  0  0  0  0  0  0  0  0  0
  139.5200   70.5640  222.9580 C   0  0  0  0  0  0  0  0  0  0  0  0
  139.5920   69.6050  223.9560 C   0  0  0  0  0  0  0  0  0  0  0  0
  140.0960   70.0480  225.1760 C   0  0  0  0  0  0  0  0  0  0  0  0
  140.1800   69.1100  226.1950 C   0  0  0  0  0  0  0  0  0  0  0  0
  140.6790   69.5440  227.4060 C   0  0  0  0  0  0  0  0  0  0  0  0
  140.7830   68.3530  228.6940 Cl  0  0  0  0  0  0  0  0  0  0  0  0
  141.0780   70.8550  227.5990 C   0  0  0  0  0  0  0  0  0  0  0  0
  140.9930   71.7920  226.5760 C   0  0  0  0  0  0  0  0  0  0  0  0
  140.4940   71.3520  225.3680 C   0  0  0  0  0  0  0  0  0  0  0  0
  140.3980   72.2460  224.3480 N   0  0  0  0  0  0  0  0  0  0  0  0
  139.2880   74.4760  223.3240 H   0  0  0  0  0  0  0  0  0  0  0  0
  140.2566   75.0026  220.5894 H   0  0  0  0  0  0  0  0  0  0  0  0
  138.4711   74.7882  220.5909 H   0  0  0  0  0  0  0  0  0  0  0  0
  139.0919   77.4984  219.1358 H   0  0  0  0  0  0  0  0  0  0  0  0
  138.6869   78.9368  220.1043 H   0  0  0  0  0  0  0  0  0  0  0  0
  140.9010   78.5352  218.3042 H   0  0  0  0  0  0  0  0  0  0  0  0
  140.4984   79.9973  219.2300 H   0  0  0  0  0  0  0  0  0  0  0  0
  142.5023   77.8673  219.8147 H   0  0  0  0  0  0  0  0  0  0  0  0
  142.4528   79.5110  220.4381 H   0  0  0  0  0  0  0  0  0  0  0  0
  141.8391   77.3546  221.9417 H   0  0  0  0  0  0  0  0  0  0  0  0
  139.9622   79.1058  222.4120 H   0  0  0  0  0  0  0  0  0  0  0  0
  143.1205   79.9627  222.2679 H   0  0  0  0  0  0  0  0  0  0  0  0
  142.2964   81.1455  222.8415 H   0  0  0  0  0  0  0  0  0  0  0  0
  142.5041   78.1626  224.0433 H   0  0  0  0  0  0  0  0  0  0  0  0
  141.5660   79.0367  224.9317 H   0  0  0  0  0  0  0  0  0  0  0  0
  139.1284   70.2706  221.9728 H   0  0  0  0  0  0  0  0  0  0  0  0
  139.2727   68.5647  223.7952 H   0  0  0  0  0  0  0  0  0  0  0  0
  139.8631   68.0675  226.0442 H   0  0  0  0  0  0  0  0  0  0  0  0
  141.4697   71.1612  228.5802 H   0  0  0  0  0  0  0  0  0  0  0  0
  141.3088   72.8354  226.7230 H   0  0  0  0  0  0  0  0  0  0  0  0
  1  2  2  0
  2  3  1  0
  3  4  1  0
  4  5  1  0
  5  6  2  0
  5  7  1  0
  7  8  1  0
  8  9  1  0
  9 10  1  0
 10 11  1  0
 11 12  1  0
 12 13  1  0
 13 14  1  0
  2 15  1  0
 15 16  2  0
 16 17  1  0
 17 18  2  0
 18 19  1  0
 19 20  2  0
 20 21  1  0
 20 22  1  0
 22 23  2  0
 23 24  1  0
 24 25  2  0
 11  7  1  0
 14 12  1  0
 25 15  1  0
 24 18  1  0
  3 26  1  0
  4 27  1  0
  4 28  1  0
  8 29  1  0
  8 30  1  0
  9 31  1  0
  9 32  1  0
 10 33  1  0
 10 34  1  0
 11 35  1  1
 12 36  1  0
 13 37  1  0
 13 38  1  0
 14 39  1  0
 14 40  1  0
 16 41  1  0
 17 42  1  0
 19 43  1  0
 22 44  1  0
 23 45  1  0
M  END
>  <smiles>  (67) 
O=C(NCC(=O)N1CCCC1C1CC1)c1ccc2cc(Cl)ccc2n1

>  <score_type>  (67) 
oracle

>  <origin>  (67) 
autodockgpu

>  <m_score__min__energy>  (67) 
-7.8499999999999996

>  <m_primary>  (67) 
energy

>  <rmsd>  (67) 
2.1323221080953747

>  <m_score__min__rmsd>  (67) 
2.1323221080953747

>  <meeko>  (67) 
{"free_energy": -7.52, "intermolecular_energy": -9.01, "internal_energy": -1.29, "cluster_size": 13, "cluster_id": 1, "rank_in_cluster": 5}

>  <energy>  (67) 
-7.78

>  <cluster_rmsd>  (67) 
0.36

>  <cluster>  (67) 
2

$$$$

     RDKit          3D

 45 48  0  0  0  0  0  0  0  0999 V2000
  141.4200   71.3790  221.3980 O   0  0  0  0  0  0  0  0  0  0  0  0
  140.6890   72.2640  221.8960 C   0  0  0  0  0  0  0  0  0  0  0  0
  139.5820   71.9440  222.7580 N   0  0  0  0  0  0  0  0  0  0  0  0
  139.3780   70.5180  223.0070 C   0  0  0  0  0  0  0  0  0  0  0  0
  138.7010   70.3320  224.2980 C   0  0  0  0  0  0  0  0  0  0  0  0
  137.5840   70.8680  224.5900 O   0  0  0  0  0  0  0  0  0  0  0  0
  139.2840   69.5210  225.3040 N   0  0  0  0  0  0  0  0  0  0  0  0
  139.5860   68.0950  225.1080 C   0  0  0  0  0  0  0  0  0  0  0  0
  139.7560   67.4870  226.4580 C   0  0  0  0  0  0  0  0  0  0  0  0
  139.5760   68.6020  227.4650 C   0  0  0  0  0  0  0  0  0  0  0  0
  139.6950   69.8530  226.6520 C   0  0  1  0  0  0  0  0  0  0  0  0
  141.0000   70.5540  226.7210 C   0  0  0  0  0  0  0  0  0  0  0  0
  141.0950   71.8030  227.5920 C   0  0  0  0  0  0  0  0  0  0  0  0
  141.2810   71.8690  226.1020 C   0  0  0  0  0  0  0  0  0  0  0  0
  140.9270   73.6910  221.6220 C   0  0  0  0  0  0  0  0  0  0  0  0
  141.9170   74.0330  220.7230 C   0  0  0  0  0  0  0  0  0  0  0  0
  142.2160   75.3460  220.3990 C   0  0  0  0  0  0  0  0  0  0  0  0
  141.4480   76.3110  221.0440 C   0  0  0  0  0  0  0  0  0  0  0  0
  141.7230   77.6360  220.7400 C   0  0  0  0  0  0  0  0  0  0  0  0
  140.9640   78.5970  221.3760 C   0  0  0  0  0  0  0  0  0  0  0  0
  141.3180   80.2730  220.9870 Cl  0  0  0  0  0  0  0  0  0  0  0  0
  139.9710   78.2560  222.2780 C   0  0  0  0  0  0  0  0  0  0  0  0
  139.6970   76.9280  222.5800 C   0  0  0  0  0  0  0  0  0  0  0  0
  140.4590   75.9740  221.9410 C   0  0  0  0  0  0  0  0  0  0  0  0
  140.2140   74.6640  222.2170 N   0  0  0  0  0  0  0  0  0  0  0  0
  138.9770   72.6840  223.1700 H   0  0  0  0  0  0  0  0  0  0  0  0
  138.7582   70.0918  222.2044 H   0  0  0  0  0  0  0  0  0  0  0  0
  140.3531   70.0094  223.0306 H   0  0  0  0  0  0  0  0  0  0  0  0
  138.7573   67.6046  224.5762 H   0  0  0  0  0  0  0  0  0  0  0  0
  140.4990   67.9698  224.5074 H   0  0  0  0  0  0  0  0  0  0  0  0
  138.9992   66.7051  226.6193 H   0  0  0  0  0  0  0  0  0  0  0  0
  140.7468   67.0200  226.5588 H   0  0  0  0  0  0  0  0  0  0  0  0
  138.5874   68.5400  227.9433 H   0  0  0  0  0  0  0  0  0  0  0  0
  140.3135   68.5571  228.2799 H   0  0  0  0  0  0  0  0  0  0  0  0
  139.0319   70.6135  227.0901 H   0  0  0  0  0  0  0  0  0  0  0  0
  141.4973   69.5764  226.6369 H   0  0  0  0  0  0  0  0  0  0  0  0
  140.1915   72.2244  228.0568 H   0  0  0  0  0  0  0  0  0  0  0  0
  141.6817   72.1054  228.4720 H   0  0  0  0  0  0  0  0  0  0  0  0
  140.5157   72.3529  225.4774 H   0  0  0  0  0  0  0  0  0  0  0  0
  142.0721   72.2549  225.4423 H   0  0  0  0  0  0  0  0  0  0  0  0
  142.4933   73.2282  220.2433 H   0  0  0  0  0  0  0  0  0  0  0  0
  143.0067   75.6083  219.6807 H   0  0  0  0  0  0  0  0  0  0  0  0
  142.5116   77.9088  220.0233 H   0  0  0  0  0  0  0  0  0  0  0  0
  139.3878   79.0515  222.7648 H   0  0  0  0  0  0  0  0  0  0  0  0
  138.9088   76.6510  223.2956 H   0  0  0  0  0  0  0  0  0  0  0  0
  1  2  2  0
  2  3  1  0
  3  4  1  0
  4  5  1  0
  5  6  2  0
  5  7  1  0
  7  8  1  0
  8  9  1  0
  9 10  1  0
 10 11  1  0
 11 12  1  0
 12 13  1  0
 13 14  1  0
  2 15  1  0
 15 16  2  0
 16 17  1  0
 17 18  2  0
 18 19  1  0
 19 20  2  0
 20 21  1  0
 20 22  1  0
 22 23  2  0
 23 24  1  0
 24 25  2  0
 11  7  1  0
 14 12  1  0
 25 15  1  0
 24 18  1  0
  3 26  1  0
  4 27  1  0
  4 28  1  0
  8 29  1  0
  8 30  1  0
  9 31  1  0
  9 32  1  0
 10 33  1  0
 10 34  1  0
 11 35  1  1
 12 36  1  0
 13 37  1  0
 13 38  1  0
 14 39  1  0
 14 40  1  0
 16 41  1  0
 17 42  1  0
 19 43  1  0
 22 44  1  0
 23 45  1  0
M  END
>  <smiles>  (68) 
O=C(NCC(=O)N1CCCC1C1CC1)c1ccc2cc(Cl)ccc2n1

>  <score_type>  (68) 
oracle

>  <origin>  (68) 
autodockgpu

>  <m_score__min__energy>  (68) 
-7.8499999999999996

>  <m_primary>  (68) 
energy

>  <rmsd>  (68) 
8.606960678789225

>  <m_score__min__rmsd>  (68) 
8.606960678789225

>  <meeko>  (68) 
{"free_energy": -7.78, "intermolecular_energy": -9.27, "internal_energy": -1.57, "cluster_size": 18, "cluster_id": 2, "rank_in_cluster": 4}

>  <energy>  (68) 
-7.77

>  <cluster_rmsd>  (68) 
0.13

>  <cluster>  (68) 
2

$$$$

     RDKit          3D

 45 48  0  0  0  0  0  0  0  0999 V2000
  137.6850   71.8510  223.4550 O   0  0  0  0  0  0  0  0  0  0  0  0
  138.8720   71.5130  223.2470 C   0  0  0  0  0  0  0  0  0  0  0  0
  139.4270   70.3020  223.7890 N   0  0  0  0  0  0  0  0  0  0  0  0
  138.5080   69.5010  224.5950 C   0  0  0  0  0  0  0  0  0  0  0  0
  139.2280   68.3620  225.1840 C   0  0  0  0  0  0  0  0  0  0  0  0
  139.2190   67.1910  224.6840 O   0  0  0  0  0  0  0  0  0  0  0  0
  139.9850   68.5280  226.3710 N   0  0  0  0  0  0  0  0  0  0  0  0
  140.8000   67.4520  226.9560 C   0  0  0  0  0  0  0  0  0  0  0  0
  141.0740   67.8240  228.3730 C   0  0  0  0  0  0  0  0  0  0  0  0
  140.4210   69.1690  228.6050 C   0  0  0  0  0  0  0  0  0  0  0  0
  140.1400   69.6830  227.2290 C   0  0  1  0  0  0  0  0  0  0  0  0
  141.0900   70.6920  226.7020 C   0  0  0  0  0  0  0  0  0  0  0  0
  141.0940   72.0750  227.3470 C   0  0  0  0  0  0  0  0  0  0  0  0
  140.7010   71.8800  225.9100 C   0  0  0  0  0  0  0  0  0  0  0  0
  139.7680   72.3470  222.4280 C   0  0  0  0  0  0  0  0  0  0  0  0
  140.7740   71.7270  221.7160 C   0  0  0  0  0  0  0  0  0  0  0  0
  141.6670   72.4240  220.9170 C   0  0  0  0  0  0  0  0  0  0  0  0
  141.4840   73.8030  220.8780 C   0  0  0  0  0  0  0  0  0  0  0  0
  142.3630   74.5280  220.0860 C   0  0  0  0  0  0  0  0  0  0  0  0
  142.1860   75.8960  220.0440 C   0  0  0  0  0  0  0  0  0  0  0  0
  143.3020   76.8100  219.0410 Cl  0  0  0  0  0  0  0  0  0  0  0  0
  141.1780   76.5190  220.7590 C   0  0  0  0  0  0  0  0  0  0  0  0
  140.2980   75.7900  221.5500 C   0  0  0  0  0  0  0  0  0  0  0  0
  140.4810   74.4240  221.5880 C   0  0  0  0  0  0  0  0  0  0  0  0
  139.6360   73.6830  222.3540 N   0  0  0  0  0  0  0  0  0  0  0  0
  140.4160   70.0260  223.6140 H   0  0  0  0  0  0  0  0  0  0  0  0
  138.0890   70.1239  225.3990 H   0  0  0  0  0  0  0  0  0  0  0  0
  137.6950   69.1264  223.9557 H   0  0  0  0  0  0  0  0  0  0  0  0
  140.2508   66.4997  226.9162 H   0  0  0  0  0  0  0  0  0  0  0  0
  141.7394   67.3274  226.3974 H   0  0  0  0  0  0  0  0  0  0  0  0
  140.6448   67.0723  229.0518 H   0  0  0  0  0  0  0  0  0  0  0  0
  142.1557   67.8713  228.5670 H   0  0  0  0  0  0  0  0  0  0  0  0
  139.4884   69.0563  229.1773 H   0  0  0  0  0  0  0  0  0  0  0  0
  141.0574   69.8513  229.1877 H   0  0  0  0  0  0  0  0  0  0  0  0
  139.2137   70.2752  227.2653 H   0  0  0  0  0  0  0  0  0  0  0  0
  141.8036   69.8773  226.5096 H   0  0  0  0  0  0  0  0  0  0  0  0
  140.3348   72.3382  228.0983 H   0  0  0  0  0  0  0  0  0  0  0  0
  141.8308   72.6901  227.8844 H   0  0  0  0  0  0  0  0  0  0  0  0
  139.6519   72.0149  225.6081 H   0  0  0  0  0  0  0  0  0  0  0  0
  141.0376   72.3115  224.9558 H   0  0  0  0  0  0  0  0  0  0  0  0
  140.8716   70.6335  221.7852 H   0  0  0  0  0  0  0  0  0  0  0  0
  142.4659   71.9213  220.3522 H   0  0  0  0  0  0  0  0  0  0  0  0
  143.1648   74.0345  219.5172 H   0  0  0  0  0  0  0  0  0  0  0  0
  141.0713   77.6122  220.7001 H   0  0  0  0  0  0  0  0  0  0  0  0
  139.4937   76.2796  222.1187 H   0  0  0  0  0  0  0  0  0  0  0  0
  1  2  2  0
  2  3  1  0
  3  4  1  0
  4  5  1  0
  5  6  2  0
  5  7  1  0
  7  8  1  0
  8  9  1  0
  9 10  1  0
 10 11  1  0
 11 12  1  0
 12 13  1  0
 13 14  1  0
  2 15  1  0
 15 16  2  0
 16 17  1  0
 17 18  2  0
 18 19  1  0
 19 20  2  0
 20 21  1  0
 20 22  1  0
 22 23  2  0
 23 24  1  0
 24 25  2  0
 11  7  1  0
 14 12  1  0
 25 15  1  0
 24 18  1  0
  3 26  1  0
  4 27  1  0
  4 28  1  0
  8 29  1  0
  8 30  1  0
  9 31  1  0
  9 32  1  0
 10 33  1  0
 10 34  1  0
 11 35  1  1
 12 36  1  0
 13 37  1  0
 13 38  1  0
 14 39  1  0
 14 40  1  0
 16 41  1  0
 17 42  1  0
 19 43  1  0
 22 44  1  0
 23 45  1  0
M  END
>  <smiles>  (69) 
O=C(NCC(=O)N1CCCC1C1CC1)c1ccc2cc(Cl)ccc2n1

>  <score_type>  (69) 
oracle

>  <origin>  (69) 
autodockgpu

>  <m_score__min__energy>  (69) 
-7.8499999999999996

>  <m_primary>  (69) 
energy

>  <rmsd>  (69) 
8.726623121164804

>  <m_score__min__rmsd>  (69) 
8.726623121164804

>  <meeko>  (69) 
{"free_energy": -7.69, "intermolecular_energy": -9.18, "internal_energy": -1.27, "cluster_size": 18, "cluster_id": 2, "rank_in_cluster": 8}

>  <energy>  (69) 
-7.75

>  <cluster_rmsd>  (69) 
0.44

>  <cluster>  (69) 
2

$$$$

     RDKit          3D

 45 48  0  0  0  0  0  0  0  0999 V2000
  141.2810   71.2860  221.3530 O   0  0  0  0  0  0  0  0  0  0  0  0
  140.5670   72.1670  221.8810 C   0  0  0  0  0  0  0  0  0  0  0  0
  139.4850   71.8400  222.7710 N   0  0  0  0  0  0  0  0  0  0  0  0
  139.2840   70.4120  223.0110 C   0  0  0  0  0  0  0  0  0  0  0  0
  138.6170   70.2150  224.3050 C   0  0  0  0  0  0  0  0  0  0  0  0
  137.4860   70.7220  224.5980 O   0  0  0  0  0  0  0  0  0  0  0  0
  139.2250   69.4270  225.3140 N   0  0  0  0  0  0  0  0  0  0  0  0
  139.5760   68.0120  225.1210 C   0  0  0  0  0  0  0  0  0  0  0  0
  139.7640   67.4120  226.4720 C   0  0  0  0  0  0  0  0  0  0  0  0
  139.5440   68.5230  227.4770 C   0  0  0  0  0  0  0  0  0  0  0  0
  139.6210   69.7750  226.6620 C   0  0  1  0  0  0  0  0  0  0  0  0
  140.9010   70.5210  226.7330 C   0  0  0  0  0  0  0  0  0  0  0  0
  140.9890   71.7010  227.6950 C   0  0  0  0  0  0  0  0  0  0  0  0
  141.1060   71.8900  226.2090 C   0  0  0  0  0  0  0  0  0  0  0  0
  140.8000   73.5960  221.6160 C   0  0  0  0  0  0  0  0  0  0  0  0
  141.7980   73.9470  220.7280 C   0  0  0  0  0  0  0  0  0  0  0  0
  142.0930   75.2630  220.4120 C   0  0  0  0  0  0  0  0  0  0  0  0
  141.3140   76.2210  221.0540 C   0  0  0  0  0  0  0  0  0  0  0  0
  141.5860   77.5490  220.7580 C   0  0  0  0  0  0  0  0  0  0  0  0
  140.8160   78.5040  221.3910 C   0  0  0  0  0  0  0  0  0  0  0  0
  141.1650   80.1830  221.0130 Cl  0  0  0  0  0  0  0  0  0  0  0  0
  139.8160   78.1540  222.2810 C   0  0  0  0  0  0  0  0  0  0  0  0
  139.5440   76.8230  222.5750 C   0  0  0  0  0  0  0  0  0  0  0  0
  140.3180   75.8750  221.9400 C   0  0  0  0  0  0  0  0  0  0  0  0
  140.0770   74.5630  222.2080 N   0  0  0  0  0  0  0  0  0  0  0  0
  138.8930   72.5770  223.2080 H   0  0  0  0  0  0  0  0  0  0  0  0
  138.6586   69.9913  222.2098 H   0  0  0  0  0  0  0  0  0  0  0  0
  140.2599   69.9045  223.0239 H   0  0  0  0  0  0  0  0  0  0  0  0
  138.7657   67.4928  224.5883 H   0  0  0  0  0  0  0  0  0  0  0  0
  140.4941   67.9174  224.5225 H   0  0  0  0  0  0  0  0  0  0  0  0
  139.0339   66.6051  226.6332 H   0  0  0  0  0  0  0  0  0  0  0  0
  140.7698   66.9787  226.5756 H   0  0  0  0  0  0  0  0  0  0  0  0
  138.5574   68.4280  227.9540 H   0  0  0  0  0  0  0  0  0  0  0  0
  140.2814   68.5053  228.2931 H   0  0  0  0  0  0  0  0  0  0  0  0
  138.9303   70.5125  227.0968 H   0  0  0  0  0  0  0  0  0  0  0  0
  141.4294   69.5734  226.5516 H   0  0  0  0  0  0  0  0  0  0  0  0
  140.0923   72.0487  228.2288 H   0  0  0  0  0  0  0  0  0  0  0  0
  141.6029   71.9573  228.5710 H   0  0  0  0  0  0  0  0  0  0  0  0
  140.2965   72.3900  225.6570 H   0  0  0  0  0  0  0  0  0  0  0  0
  141.8523   72.3572  225.5497 H   0  0  0  0  0  0  0  0  0  0  0  0
  142.3837   73.1472  220.2513 H   0  0  0  0  0  0  0  0  0  0  0  0
  142.8888   75.5325  219.7020 H   0  0  0  0  0  0  0  0  0  0  0  0
  142.3802   77.8285  220.0501 H   0  0  0  0  0  0  0  0  0  0  0  0
  139.2245   78.9448  222.7655 H   0  0  0  0  0  0  0  0  0  0  0  0
  138.7492   76.5395  223.2806 H   0  0  0  0  0  0  0  0  0  0  0  0
  1  2  2  0
  2  3  1  0
  3  4  1  0
  4  5  1  0
  5  6  2  0
  5  7  1  0
  7  8  1  0
  8  9  1  0
  9 10  1  0
 10 11  1  0
 11 12  1  0
 12 13  1  0
 13 14  1  0
  2 15  1  0
 15 16  2  0
 16 17  1  0
 17 18  2  0
 18 19  1  0
 19 20  2  0
 20 21  1  0
 20 22  1  0
 22 23  2  0
 23 24  1  0
 24 25  2  0
 11  7  1  0
 14 12  1  0
 25 15  1  0
 24 18  1  0
  3 26  1  0
  4 27  1  0
  4 28  1  0
  8 29  1  0
  8 30  1  0
  9 31  1  0
  9 32  1  0
 10 33  1  0
 10 34  1  0
 11 35  1  1
 12 36  1  0
 13 37  1  0
 13 38  1  0
 14 39  1  0
 14 40  1  0
 16 41  1  0
 17 42  1  0
 19 43  1  0
 22 44  1  0
 23 45  1  0
M  END
>  <smiles>  (70) 
O=C(NCC(=O)N1CCCC1C1CC1)c1ccc2cc(Cl)ccc2n1

>  <score_type>  (70) 
oracle

>  <origin>  (70) 
autodockgpu

>  <m_score__min__energy>  (70) 
-7.8499999999999996

>  <m_primary>  (70) 
energy

>  <rmsd>  (70) 
8.603991866278475

>  <m_score__min__rmsd>  (70) 
8.603991866278475

>  <meeko>  (70) 
{"free_energy": -7.75, "intermolecular_energy": -9.24, "internal_energy": -1.55, "cluster_size": 18, "cluster_id": 2, "rank_in_cluster": 7}

>  <energy>  (70) 
-7.75

>  <cluster_rmsd>  (70) 
0.41

>  <cluster>  (70) 
2

$$$$

     RDKit          3D

 45 48  0  0  0  0  0  0  0  0999 V2000
  139.5060   69.6130  222.3860 O   0  0  0  0  0  0  0  0  0  0  0  0
  139.2920   70.7280  222.9110 C   0  0  0  0  0  0  0  0  0  0  0  0
  138.4420   70.8800  224.0620 N   0  0  0  0  0  0  0  0  0  0  0  0
  137.8510   69.6430  224.5680 C   0  0  0  0  0  0  0  0  0  0  0  0
  138.9160   68.7070  224.9550 C   0  0  0  0  0  0  0  0  0  0  0  0
  139.1940   67.6490  224.3030 O   0  0  0  0  0  0  0  0  0  0  0  0
  139.7040   68.9520  226.1080 N   0  0  0  0  0  0  0  0  0  0  0  0
  140.7890   68.0590  226.5400 C   0  0  0  0  0  0  0  0  0  0  0  0
  141.0780   68.3700  227.9690 C   0  0  0  0  0  0  0  0  0  0  0  0
  140.1500   69.4970  228.3660 C   0  0  0  0  0  0  0  0  0  0  0  0
  139.6510   70.0380  227.0640 C   0  0  1  0  0  0  0  0  0  0  0  0
  140.2960   71.2850  226.5850 C   0  0  0  0  0  0  0  0  0  0  0  0
  141.7310   71.1970  226.0760 C   0  0  0  0  0  0  0  0  0  0  0  0
  141.3790   71.9970  227.2980 C   0  0  0  0  0  0  0  0  0  0  0  0
  139.9060   71.9530  222.3730 C   0  0  0  0  0  0  0  0  0  0  0  0
  141.1270   71.8520  221.7360 C   0  0  0  0  0  0  0  0  0  0  0  0
  141.7850   72.9460  221.1960 C   0  0  0  0  0  0  0  0  0  0  0  0
  141.1310   74.1660  221.3370 C   0  0  0  0  0  0  0  0  0  0  0  0
  141.7650   75.2810  220.8060 C   0  0  0  0  0  0  0  0  0  0  0  0
  141.1210   76.4930  220.9440 C   0  0  0  0  0  0  0  0  0  0  0  0
  141.9290   77.9010  220.2700 Cl  0  0  0  0  0  0  0  0  0  0  0  0
  139.8970   76.5960  221.5820 C   0  0  0  0  0  0  0  0  0  0  0  0
  139.2640   75.4790  222.1120 C   0  0  0  0  0  0  0  0  0  0  0  0
  139.9130   74.2710  221.9710 C   0  0  0  0  0  0  0  0  0  0  0  0
  139.3190   73.1580  222.4810 N   0  0  0  0  0  0  0  0  0  0  0  0
  138.2670   71.8110  224.4940 H   0  0  0  0  0  0  0  0  0  0  0  0
  137.2259   69.8683  225.4446 H   0  0  0  0  0  0  0  0  0  0  0  0
  137.2329   69.1862  223.7810 H   0  0  0  0  0  0  0  0  0  0  0  0
  140.4751   67.0095  226.4394 H   0  0  0  0  0  0  0  0  0  0  0  0
  141.6856   68.2082  225.9204 H   0  0  0  0  0  0  0  0  0  0  0  0
  140.8893   67.4854  228.5950 H   0  0  0  0  0  0  0  0  0  0  0  0
  142.1308   68.6581  228.1057 H   0  0  0  0  0  0  0  0  0  0  0  0
  139.3166   69.1193  228.9765 H   0  0  0  0  0  0  0  0  0  0  0  0
  140.6534   70.2624  228.9748 H   0  0  0  0  0  0  0  0  0  0  0  0
  138.6176   70.3861  227.2086 H   0  0  0  0  0  0  0  0  0  0  0  0
  139.3154   71.6153  226.2119 H   0  0  0  0  0  0  0  0  0  0  0  0
  142.2965   70.2584  226.1721 H   0  0  0  0  0  0  0  0  0  0  0  0
  142.2414   71.4001  225.1230 H   0  0  0  0  0  0  0  0  0  0  0  0
  141.7007   71.6478  228.2902 H   0  0  0  0  0  0  0  0  0  0  0  0
  141.5400   73.0406  227.6063 H   0  0  0  0  0  0  0  0  0  0  0  0
  141.5975   70.8611  221.6536 H   0  0  0  0  0  0  0  0  0  0  0  0
  142.7578   72.8558  220.6905 H   0  0  0  0  0  0  0  0  0  0  0  0
  142.7374   75.2015  220.2979 H   0  0  0  0  0  0  0  0  0  0  0  0
  139.4163   77.5814  221.6710 H   0  0  0  0  0  0  0  0  0  0  0  0
  138.2913   75.5547  222.6200 H   0  0  0  0  0  0  0  0  0  0  0  0
  1  2  2  0
  2  3  1  0
  3  4  1  0
  4  5  1  0
  5  6  2  0
  5  7  1  0
  7  8  1  0
  8  9  1  0
  9 10  1  0
 10 11  1  0
 11 12  1  0
 12 13  1  0
 13 14  1  0
  2 15  1  0
 15 16  2  0
 16 17  1  0
 17 18  2  0
 18 19  1  0
 19 20  2  0
 20 21  1  0
 20 22  1  0
 22 23  2  0
 23 24  1  0
 24 25  2  0
 11  7  1  0
 14 12  1  0
 25 15  1  0
 24 18  1  0
  3 26  1  0
  4 27  1  0
  4 28  1  0
  8 29  1  0
  8 30  1  0
  9 31  1  0
  9 32  1  0
 10 33  1  0
 10 34  1  0
 11 35  1  1
 12 36  1  0
 13 37  1  0
 13 38  1  0
 14 39  1  0
 14 40  1  0
 16 41  1  0
 17 42  1  0
 19 43  1  0
 22 44  1  0
 23 45  1  0
M  END
>  <smiles>  (71) 
O=C(NCC(=O)N1CCCC1C1CC1)c1ccc2cc(Cl)ccc2n1

>  <score_type>  (71) 
oracle

>  <origin>  (71) 
autodockgpu

>  <m_score__min__energy>  (71) 
-7.8499999999999996

>  <m_primary>  (71) 
energy

>  <rmsd>  (71) 
8.415825116963727

>  <m_score__min__rmsd>  (71) 
8.415825116963727

>  <meeko>  (71) 
{"free_energy": -7.57, "intermolecular_energy": -9.06, "internal_energy": -1.6, "cluster_size": 18, "cluster_id": 2, "rank_in_cluster": 9}

>  <energy>  (71) 
-7.69

>  <cluster_rmsd>  (71) 
1.76

>  <cluster>  (71) 
2

$$$$

     RDKit          3D

 45 48  0  0  0  0  0  0  0  0999 V2000
  140.6800   70.9410  221.4940 O   0  0  0  0  0  0  0  0  0  0  0  0
  140.0350   71.8490  222.0650 C   0  0  0  0  0  0  0  0  0  0  0  0
  138.9380   71.5650  222.9530 N   0  0  0  0  0  0  0  0  0  0  0  0
  138.6360   70.1470  223.1360 C   0  0  0  0  0  0  0  0  0  0  0  0
  138.1920   69.9090  224.5170 C   0  0  0  0  0  0  0  0  0  0  0  0
  137.0460   70.2480  224.9550 O   0  0  0  0  0  0  0  0  0  0  0  0
  139.0510   69.2700  225.4460 N   0  0  0  0  0  0  0  0  0  0  0  0
  139.6160   67.9310  225.2250 C   0  0  0  0  0  0  0  0  0  0  0  0
  140.0740   67.4180  226.5470 C   0  0  0  0  0  0  0  0  0  0  0  0
  139.7910   68.5070  227.5600 C   0  0  0  0  0  0  0  0  0  0  0  0
  139.5460   69.7260  226.7280 C   0  0  1  0  0  0  0  0  0  0  0  0
  140.6750   70.6820  226.6230 C   0  0  0  0  0  0  0  0  0  0  0  0
  140.7620   71.5520  225.3740 C   0  0  0  0  0  0  0  0  0  0  0  0
  141.8190   70.5340  225.6960 C   0  0  0  0  0  0  0  0  0  0  0  0
  140.3700   73.2670  221.8560 C   0  0  0  0  0  0  0  0  0  0  0  0
  141.5160   73.5760  221.1510 C   0  0  0  0  0  0  0  0  0  0  0  0
  141.9170   74.8790  220.9010 C   0  0  0  0  0  0  0  0  0  0  0  0
  141.0820   75.8680  221.4120 C   0  0  0  0  0  0  0  0  0  0  0  0
  141.4560   77.1840  221.1780 C   0  0  0  0  0  0  0  0  0  0  0  0
  140.6330   78.1700  221.6820 C   0  0  0  0  0  0  0  0  0  0  0  0
  141.1120   79.8330  221.3830 Cl  0  0  0  0  0  0  0  0  0  0  0  0
  139.4830   77.8620  222.3890 C   0  0  0  0  0  0  0  0  0  0  0  0
  139.1100   76.5440  222.6210 C   0  0  0  0  0  0  0  0  0  0  0  0
  139.9380   75.5650  222.1150 C   0  0  0  0  0  0  0  0  0  0  0  0
  139.6000   74.2640  222.3270 N   0  0  0  0  0  0  0  0  0  0  0  0
  138.4050   72.3250  223.4250 H   0  0  0  0  0  0  0  0  0  0  0  0
  137.8383   69.8502  222.4392 H   0  0  0  0  0  0  0  0  0  0  0  0
  139.5404   69.5534  222.9368 H   0  0  0  0  0  0  0  0  0  0  0  0
  138.8482   67.2629  224.8077 H   0  0  0  0  0  0  0  0  0  0  0  0
  140.4538   67.9751  224.5136 H   0  0  0  0  0  0  0  0  0  0  0  0
  139.5225   66.5033  226.8101 H   0  0  0  0  0  0  0  0  0  0  0  0
  141.1451   67.1684  226.5243 H   0  0  0  0  0  0  0  0  0  0  0  0
  138.9035   68.2599  228.1611 H   0  0  0  0  0  0  0  0  0  0  0  0
  140.6161   68.6430  228.2747 H   0  0  0  0  0  0  0  0  0  0  0  0
  138.7980   70.3483  227.2412 H   0  0  0  0  0  0  0  0  0  0  0  0
  140.6204   70.8199  227.7130 H   0  0  0  0  0  0  0  0  0  0  0  0
  140.0709   71.3865  224.5343 H   0  0  0  0  0  0  0  0  0  0  0  0
  140.7479   72.6319  225.1654 H   0  0  0  0  0  0  0  0  0  0  0  0
  141.9088   69.6269  225.0803 H   0  0  0  0  0  0  0  0  0  0  0  0
  142.9123   70.5709  225.8117 H   0  0  0  0  0  0  0  0  0  0  0  0
  142.1381   72.7522  220.7711 H   0  0  0  0  0  0  0  0  0  0  0  0
  142.8319   75.1150  220.3377 H   0  0  0  0  0  0  0  0  0  0  0  0
  142.3686   77.4301  220.6153 H   0  0  0  0  0  0  0  0  0  0  0  0
  138.8525   78.6768  222.7745 H   0  0  0  0  0  0  0  0  0  0  0  0
  138.1974   76.2936  223.1818 H   0  0  0  0  0  0  0  0  0  0  0  0
  1  2  2  0
  2  3  1  0
  3  4  1  0
  4  5  1  0
  5  6  2  0
  5  7  1  0
  7  8  1  0
  8  9  1  0
  9 10  1  0
 10 11  1  0
 11 12  1  0
 12 13  1  0
 13 14  1  0
  2 15  1  0
 15 16  2  0
 16 17  1  0
 17 18  2  0
 18 19  1  0
 19 20  2  0
 20 21  1  0
 20 22  1  0
 22 23  2  0
 23 24  1  0
 24 25  2  0
 11  7  1  0
 14 12  1  0
 25 15  1  0
 24 18  1  0
  3 26  1  0
  4 27  1  0
  4 28  1  0
  8 29  1  0
  8 30  1  0
  9 31  1  0
  9 32  1  0
 10 33  1  0
 10 34  1  0
 11 35  1  1
 12 36  1  0
 13 37  1  0
 13 38  1  0
 14 39  1  0
 14 40  1  0
 16 41  1  0
 17 42  1  0
 19 43  1  0
 22 44  1  0
 23 45  1  0
M  END
>  <smiles>  (72) 
O=C(NCC(=O)N1CCCC1C1CC1)c1ccc2cc(Cl)ccc2n1

>  <score_type>  (72) 
oracle

>  <origin>  (72) 
autodockgpu

>  <m_score__min__energy>  (72) 
-7.8499999999999996

>  <m_primary>  (72) 
energy

>  <rmsd>  (72) 
8.500152627562523

>  <m_score__min__rmsd>  (72) 
8.500152627562523

>  <meeko>  (72) 
{"free_energy": -7.3, "intermolecular_energy": -8.79, "internal_energy": -1.59, "cluster_size": 18, "cluster_id": 2, "rank_in_cluster": 17}

>  <energy>  (72) 
-7.57

>  <cluster_rmsd>  (72) 
1.61

>  <cluster>  (72) 
2

$$$$

     RDKit          3D

 45 48  0  0  0  0  0  0  0  0999 V2000
  139.5740   69.4530  222.3570 O   0  0  0  0  0  0  0  0  0  0  0  0
  139.3000   70.5660  222.8570 C   0  0  0  0  0  0  0  0  0  0  0  0
  138.3960   70.7030  223.9690 N   0  0  0  0  0  0  0  0  0  0  0  0
  137.8280   69.4510  224.4660 C   0  0  0  0  0  0  0  0  0  0  0  0
  138.9070   68.5600  224.9150 C   0  0  0  0  0  0  0  0  0  0  0  0
  139.2130   67.4740  224.3260 O   0  0  0  0  0  0  0  0  0  0  0  0
  139.6780   68.8850  226.0600 N   0  0  0  0  0  0  0  0  0  0  0  0
  140.7430   68.0160  226.5810 C   0  0  0  0  0  0  0  0  0  0  0  0
  141.0110   68.4340  227.9860 C   0  0  0  0  0  0  0  0  0  0  0  0
  140.0910   69.6000  228.2770 C   0  0  0  0  0  0  0  0  0  0  0  0
  139.6230   70.0430  226.9270 C   0  0  1  0  0  0  0  0  0  0  0  0
  140.2930   71.2410  226.3640 C   0  0  0  0  0  0  0  0  0  0  0  0
  141.7100   71.0790  225.8230 C   0  0  0  0  0  0  0  0  0  0  0  0
  141.4170   71.9550  227.0090 C   0  0  0  0  0  0  0  0  0  0  0  0
  139.8930   71.8060  222.3280 C   0  0  0  0  0  0  0  0  0  0  0  0
  141.0990   71.7250  221.6610 C   0  0  0  0  0  0  0  0  0  0  0  0
  141.7370   72.8330  221.1270 C   0  0  0  0  0  0  0  0  0  0  0  0
  141.0790   74.0460  221.3060 C   0  0  0  0  0  0  0  0  0  0  0  0
  141.6930   75.1750  220.7820 C   0  0  0  0  0  0  0  0  0  0  0  0
  141.0450   76.3800  220.9570 C   0  0  0  0  0  0  0  0  0  0  0  0
  141.8270   77.8060  220.2920 Cl  0  0  0  0  0  0  0  0  0  0  0  0
  139.8360   76.4630  221.6260 C   0  0  0  0  0  0  0  0  0  0  0  0
  139.2220   75.3310  222.1490 C   0  0  0  0  0  0  0  0  0  0  0  0
  139.8760   74.1300  221.9710 C   0  0  0  0  0  0  0  0  0  0  0  0
  139.3000   73.0040  222.4730 N   0  0  0  0  0  0  0  0  0  0  0  0
  138.1710   71.6320  224.3800 H   0  0  0  0  0  0  0  0  0  0  0  0
  137.1554   69.6644  225.3098 H   0  0  0  0  0  0  0  0  0  0  0  0
  137.2643   68.9613  223.6582 H   0  0  0  0  0  0  0  0  0  0  0  0
  140.4169   66.9657  226.5568 H   0  0  0  0  0  0  0  0  0  0  0  0
  141.6523   68.1059  225.9686 H   0  0  0  0  0  0  0  0  0  0  0  0
  140.7996   67.6033  228.6753 H   0  0  0  0  0  0  0  0  0  0  0  0
  142.0650   68.7193  228.1192 H   0  0  0  0  0  0  0  0  0  0  0  0
  139.2418   69.2812  228.8992 H   0  0  0  0  0  0  0  0  0  0  0  0
  140.5933   70.4046  228.8341 H   0  0  0  0  0  0  0  0  0  0  0  0
  138.5920   70.4138  227.0246 H   0  0  0  0  0  0  0  0  0  0  0  0
  139.3131   71.5825  225.9990 H   0  0  0  0  0  0  0  0  0  0  0  0
  142.2485   70.1290  225.9553 H   0  0  0  0  0  0  0  0  0  0  0  0
  142.1997   71.2139  224.8473 H   0  0  0  0  0  0  0  0  0  0  0  0
  141.7552   71.6493  228.0101 H   0  0  0  0  0  0  0  0  0  0  0  0
  141.6187   73.0078  227.2557 H   0  0  0  0  0  0  0  0  0  0  0  0
  141.5736   70.7390  221.5487 H   0  0  0  0  0  0  0  0  0  0  0  0
  142.6983   72.7588  220.5975 H   0  0  0  0  0  0  0  0  0  0  0  0
  142.6540   75.1116  220.2506 H   0  0  0  0  0  0  0  0  0  0  0  0
  139.3520   77.4435  221.7460 H   0  0  0  0  0  0  0  0  0  0  0  0
  138.2603   75.3903  222.6796 H   0  0  0  0  0  0  0  0  0  0  0  0
  1  2  2  0
  2  3  1  0
  3  4  1  0
  4  5  1  0
  5  6  2  0
  5  7  1  0
  7  8  1  0
  8  9  1  0
  9 10  1  0
 10 11  1  0
 11 12  1  0
 12 13  1  0
 13 14  1  0
  2 15  1  0
 15 16  2  0
 16 17  1  0
 17 18  2  0
 18 19  1  0
 19 20  2  0
 20 21  1  0
 20 22  1  0
 22 23  2  0
 23 24  1  0
 24 25  2  0
 11  7  1  0
 14 12  1  0
 25 15  1  0
 24 18  1  0
  3 26  1  0
  4 27  1  0
  4 28  1  0
  8 29  1  0
  8 30  1  0
  9 31  1  0
  9 32  1  0
 10 33  1  0
 10 34  1  0
 11 35  1  1
 12 36  1  0
 13 37  1  0
 13 38  1  0
 14 39  1  0
 14 40  1  0
 16 41  1  0
 17 42  1  0
 19 43  1  0
 22 44  1  0
 23 45  1  0
M  END
>  <smiles>  (73) 
O=C(NCC(=O)N1CCCC1C1CC1)c1ccc2cc(Cl)ccc2n1

>  <score_type>  (73) 
oracle

>  <origin>  (73) 
autodockgpu

>  <m_score__min__energy>  (73) 
-7.8499999999999996

>  <m_primary>  (73) 
energy

>  <rmsd>  (73) 
8.37621933837839

>  <m_score__min__rmsd>  (73) 
8.37621933837839

>  <meeko>  (73) 
{"free_energy": -7.45, "intermolecular_energy": -8.94, "internal_energy": -1.69, "cluster_size": 18, "cluster_id": 2, "rank_in_cluster": 12}

>  <energy>  (73) 
-7.54

>  <cluster_rmsd>  (73) 
0.86

>  <cluster>  (73) 
2

$$$$

     RDKit          3D

 45 48  0  0  0  0  0  0  0  0999 V2000
  140.8200   72.4780  220.8760 O   0  0  0  0  0  0  0  0  0  0  0  0
  140.3000   72.8160  221.9630 C   0  0  0  0  0  0  0  0  0  0  0  0
  139.7270   74.1200  222.1630 N   0  0  0  0  0  0  0  0  0  0  0  0
  139.7970   75.0150  221.0100 C   0  0  0  0  0  0  0  0  0  0  0  0
  140.8440   76.0240  221.2270 C   0  0  0  0  0  0  0  0  0  0  0  0
  141.0230   76.6230  222.3370 O   0  0  0  0  0  0  0  0  0  0  0  0
  141.7250   76.3830  220.1770 N   0  0  0  0  0  0  0  0  0  0  0  0
  142.0210   77.7790  219.8230 C   0  0  0  0  0  0  0  0  0  0  0  0
  142.5970   77.7760  218.4480 C   0  0  0  0  0  0  0  0  0  0  0  0
  142.6620   76.3310  218.0050 C   0  0  0  0  0  0  0  0  0  0  0  0
  142.4880   75.5510  219.2710 C   0  0  1  0  0  0  0  0  0  0  0  0
  143.7260   74.9970  219.8700 C   0  0  0  0  0  0  0  0  0  0  0  0
  144.2080   73.6350  219.3830 C   0  0  0  0  0  0  0  0  0  0  0  0
  143.7660   73.8490  220.8030 C   0  0  0  0  0  0  0  0  0  0  0  0
  140.2470   71.8860  223.1040 C   0  0  0  0  0  0  0  0  0  0  0  0
  139.7010   70.6330  222.9070 C   0  0  0  0  0  0  0  0  0  0  0  0
  139.6070   69.6880  223.9160 C   0  0  0  0  0  0  0  0  0  0  0  0
  140.1030   70.0840  225.1540 C   0  0  0  0  0  0  0  0  0  0  0  0
  140.0230   69.1590  226.1850 C   0  0  0  0  0  0  0  0  0  0  0  0
  140.5140   69.5460  227.4150 C   0  0  0  0  0  0  0  0  0  0  0  0
  140.4100   68.3710  228.7160 Cl  0  0  0  0  0  0  0  0  0  0  0  0
  141.0620   70.8020  227.6140 C   0  0  0  0  0  0  0  0  0  0  0  0
  141.1420   71.7260  226.5800 C   0  0  0  0  0  0  0  0  0  0  0  0
  140.6490   71.3320  225.3540 C   0  0  0  0  0  0  0  0  0  0  0  0
  140.7120   72.2160  224.3210 N   0  0  0  0  0  0  0  0  0  0  0  0
  139.2960   74.3960  223.0700 H   0  0  0  0  0  0  0  0  0  0  0  0
  140.0334   74.4312  220.1081 H   0  0  0  0  0  0  0  0  0  0  0  0
  138.8276   75.5187  220.8812 H   0  0  0  0  0  0  0  0  0  0  0  0
  141.0974   78.3761  219.8427 H   0  0  0  0  0  0  0  0  0  0  0  0
  142.7285   78.2207  220.5402 H   0  0  0  0  0  0  0  0  0  0  0  0
  141.9539   78.3525  217.7667 H   0  0  0  0  0  0  0  0  0  0  0  0
  143.5954   78.2377  218.4371 H   0  0  0  0  0  0  0  0  0  0  0  0
  141.8547   76.1045  217.2930 H   0  0  0  0  0  0  0  0  0  0  0  0
  143.6026   76.0906  217.4877 H   0  0  0  0  0  0  0  0  0  0  0  0
  141.9440   74.6246  219.0346 H   0  0  0  0  0  0  0  0  0  0  0  0
  144.1155   76.0231  219.9436 H   0  0  0  0  0  0  0  0  0  0  0  0
  143.5890   73.0423  218.6934 H   0  0  0  0  0  0  0  0  0  0  0  0
  145.1137   73.2513  218.8907 H   0  0  0  0  0  0  0  0  0  0  0  0
  142.8261   73.3993  221.1558 H   0  0  0  0  0  0  0  0  0  0  0  0
  144.2263   73.6730  221.7864 H   0  0  0  0  0  0  0  0  0  0  0  0
  139.3247   70.3740  221.9063 H   0  0  0  0  0  0  0  0  0  0  0  0
  139.1699   68.6924  223.7495 H   0  0  0  0  0  0  0  0  0  0  0  0
  139.5873   68.1611  226.0287 H   0  0  0  0  0  0  0  0  0  0  0  0
  141.4413   71.0733  228.6103 H   0  0  0  0  0  0  0  0  0  0  0  0
  141.5779   72.7245  226.7319 H   0  0  0  0  0  0  0  0  0  0  0  0
  1  2  2  0
  2  3  1  0
  3  4  1  0
  4  5  1  0
  5  6  2  0
  5  7  1  0
  7  8  1  0
  8  9  1  0
  9 10  1  0
 10 11  1  0
 11 12  1  0
 12 13  1  0
 13 14  1  0
  2 15  1  0
 15 16  2  0
 16 17  1  0
 17 18  2  0
 18 19  1  0
 19 20  2  0
 20 21  1  0
 20 22  1  0
 22 23  2  0
 23 24  1  0
 24 25  2  0
 11  7  1  0
 14 12  1  0
 25 15  1  0
 24 18  1  0
  3 26  1  0
  4 27  1  0
  4 28  1  0
  8 29  1  0
  8 30  1  0
  9 31  1  0
  9 32  1  0
 10 33  1  0
 10 34  1  0
 11 35  1  6
 12 36  1  0
 13 37  1  0
 13 38  1  0
 14 39  1  0
 14 40  1  0
 16 41  1  0
 17 42  1  0
 19 43  1  0
 22 44  1  0
 23 45  1  0
M  END
>  <smiles>  (74) 
O=C(NCC(=O)N1CCCC1C1CC1)c1ccc2cc(Cl)ccc2n1

>  <score_type>  (74) 
oracle

>  <origin>  (74) 
autodockgpu

>  <m_score__min__energy>  (74) 
-7.8499999999999996

>  <m_primary>  (74) 
energy

>  <rmsd>  (74) 
2.3297010420839928

>  <m_score__min__rmsd>  (74) 
2.3297010420839928

>  <meeko>  (74) 
{"free_energy": -7.2, "intermolecular_energy": -8.69, "internal_energy": -1.47, "cluster_size": 8, "cluster_id": 4, "rank_in_cluster": 5}

>  <energy>  (74) 
-7.5

>  <cluster_rmsd>  (74) 
1.65

>  <cluster>  (74) 
2

$$$$

     RDKit          3D

 45 48  0  0  0  0  0  0  0  0999 V2000
  139.6990   72.0190  220.8140 O   0  0  0  0  0  0  0  0  0  0  0  0
  139.6850   72.4480  221.9900 C   0  0  0  0  0  0  0  0  0  0  0  0
  139.5300   73.8470  222.2910 N   0  0  0  0  0  0  0  0  0  0  0  0
  139.3920   74.7220  221.1290 C   0  0  0  0  0  0  0  0  0  0  0  0
  140.2660   75.8930  221.2830 C   0  0  0  0  0  0  0  0  0  0  0  0
  141.4720   75.9290  220.8770 O   0  0  0  0  0  0  0  0  0  0  0  0
  139.7860   77.0700  221.9120 N   0  0  0  0  0  0  0  0  0  0  0  0
  138.5160   77.1210  222.6520 C   0  0  0  0  0  0  0  0  0  0  0  0
  138.1320   78.5550  222.7770 C   0  0  0  0  0  0  0  0  0  0  0  0
  139.2280   79.3600  222.1140 C   0  0  0  0  0  0  0  0  0  0  0  0
  140.3640   78.3950  221.9830 C   0  0  1  0  0  0  0  0  0  0  0  0
  141.4450   78.5200  222.9910 C   0  0  0  0  0  0  0  0  0  0  0  0
  141.4810   79.7810  223.8480 C   0  0  0  0  0  0  0  0  0  0  0  0
  142.5880   79.4530  222.8860 C   0  0  0  0  0  0  0  0  0  0  0  0
  139.8270   71.5340  223.1350 C   0  0  0  0  0  0  0  0  0  0  0  0
  139.4380   70.2190  222.9800 C   0  0  0  0  0  0  0  0  0  0  0  0
  139.5320   69.2820  223.9970 C   0  0  0  0  0  0  0  0  0  0  0  0
  140.0500   69.7560  225.1990 C   0  0  0  0  0  0  0  0  0  0  0  0
  140.1570   68.8420  226.2380 C   0  0  0  0  0  0  0  0  0  0  0  0
  140.6700   69.3060  227.4320 C   0  0  0  0  0  0  0  0  0  0  0  0
  140.8030   68.1440  228.7430 Cl  0  0  0  0  0  0  0  0  0  0  0  0
  141.0600   70.6240  227.5890 C   0  0  0  0  0  0  0  0  0  0  0  0
  140.9530   71.5380  226.5480 C   0  0  0  0  0  0  0  0  0  0  0  0
  140.4390   71.0670  225.3580 C   0  0  0  0  0  0  0  0  0  0  0  0
  140.3210   71.9380  224.3190 N   0  0  0  0  0  0  0  0  0  0  0  0
  139.5200   74.1980  223.2710 H   0  0  0  0  0  0  0  0  0  0  0  0
  139.6763   74.1707  220.2206 H   0  0  0  0  0  0  0  0  0  0  0  0
  138.3472   75.0561  221.0471 H   0  0  0  0  0  0  0  0  0  0  0  0
  137.7383   76.5698  222.1030 H   0  0  0  0  0  0  0  0  0  0  0  0
  138.6254   76.6597  223.6446 H   0  0  0  0  0  0  0  0  0  0  0  0
  137.1714   78.7353  222.2722 H   0  0  0  0  0  0  0  0  0  0  0  0
  138.0148   78.8418  223.8325 H   0  0  0  0  0  0  0  0  0  0  0  0
  138.9050   79.7189  221.1256 H   0  0  0  0  0  0  0  0  0  0  0  0
  139.5006   80.2560  222.6910 H   0  0  0  0  0  0  0  0  0  0  0  0
  140.9155   78.6340  221.0617 H   0  0  0  0  0  0  0  0  0  0  0  0
  141.3915   77.4315  223.1405 H   0  0  0  0  0  0  0  0  0  0  0  0
  140.7931   80.6134  223.6383 H   0  0  0  0  0  0  0  0  0  0  0  0
  141.4133   80.0036  224.9231 H   0  0  0  0  0  0  0  0  0  0  0  0
  142.7173   80.0575  221.9761 H   0  0  0  0  0  0  0  0  0  0  0  0
  143.6790   79.3456  222.9770 H   0  0  0  0  0  0  0  0  0  0  0  0
  139.0358   69.9006  222.0069 H   0  0  0  0  0  0  0  0  0  0  0  0
  139.2189   68.2360  223.8635 H   0  0  0  0  0  0  0  0  0  0  0  0
  139.8465   67.7939  226.1151 H   0  0  0  0  0  0  0  0  0  0  0  0
  141.4629   70.9551  228.5575 H   0  0  0  0  0  0  0  0  0  0  0  0
  141.2633   72.5866  226.6672 H   0  0  0  0  0  0  0  0  0  0  0  0
  1  2  2  0
  2  3  1  0
  3  4  1  0
  4  5  1  0
  5  6  2  0
  5  7  1  0
  7  8  1  0
  8  9  1  0
  9 10  1  0
 10 11  1  0
 11 12  1  0
 12 13  1  0
 13 14  1  0
  2 15  1  0
 15 16  2  0
 16 17  1  0
 17 18  2  0
 18 19  1  0
 19 20  2  0
 20 21  1  0
 20 22  1  0
 22 23  2  0
 23 24  1  0
 24 25  2  0
 11  7  1  0
 14 12  1  0
 25 15  1  0
 24 18  1  0
  3 26  1  0
  4 27  1  0
  4 28  1  0
  8 29  1  0
  8 30  1  0
  9 31  1  0
  9 32  1  0
 10 33  1  0
 10 34  1  0
 11 35  1  6
 12 36  1  0
 13 37  1  0
 13 38  1  0
 14 39  1  0
 14 40  1  0
 16 41  1  0
 17 42  1  0
 19 43  1  0
 22 44  1  0
 23 45  1  0
M  END
>  <smiles>  (75) 
O=C(NCC(=O)N1CCCC1C1CC1)c1ccc2cc(Cl)ccc2n1

>  <score_type>  (75) 
oracle

>  <origin>  (75) 
autodockgpu

>  <m_score__min__energy>  (75) 
-7.8499999999999996

>  <m_primary>  (75) 
energy

>  <rmsd>  (75) 
2.8153998227415284

>  <m_score__min__rmsd>  (75) 
2.8153998227415284

>  <meeko>  (75) 
{"free_energy": -7.76, "intermolecular_energy": -9.25, "internal_energy": -1.17, "cluster_size": 13, "cluster_id": 1, "rank_in_cluster": 3}

>  <energy>  (75) 
-7.45

>  <cluster_rmsd>  (75) 
1.67

>  <cluster>  (75) 
2

$$$$

     RDKit          3D

 45 48  0  0  0  0  0  0  0  0999 V2000
  135.4640   69.5490  224.5560 O   0  0  0  0  0  0  0  0  0  0  0  0
  135.7730   70.7560  224.6750 C   0  0  0  0  0  0  0  0  0  0  0  0
  137.0420   71.2660  224.2280 N   0  0  0  0  0  0  0  0  0  0  0  0
  137.9350   70.2770  223.6280 C   0  0  0  0  0  0  0  0  0  0  0  0
  139.2770   70.3990  224.2160 C   0  0  0  0  0  0  0  0  0  0  0  0
  140.1860   71.1540  223.7420 O   0  0  0  0  0  0  0  0  0  0  0  0
  139.6250   69.6570  225.3720 N   0  0  0  0  0  0  0  0  0  0  0  0
  139.9070   68.2140  225.3430 C   0  0  0  0  0  0  0  0  0  0  0  0
  139.7910   67.7100  226.7400 C   0  0  0  0  0  0  0  0  0  0  0  0
  139.4600   68.9040  227.6090 C   0  0  0  0  0  0  0  0  0  0  0  0
  139.7790   70.0850  226.7460 C   0  0  1  0  0  0  0  0  0  0  0  0
  141.0710   70.7610  227.0180 C   0  0  0  0  0  0  0  0  0  0  0  0
  141.1630   71.6570  228.2490 C   0  0  0  0  0  0  0  0  0  0  0  0
  141.3090   72.2130  226.8600 C   0  0  0  0  0  0  0  0  0  0  0  0
  134.8460   71.7230  225.2850 C   0  0  0  0  0  0  0  0  0  0  0  0
  133.7060   71.2450  225.9000 C   0  0  0  0  0  0  0  0  0  0  0  0
  132.7730   72.0740  226.5020 C   0  0  0  0  0  0  0  0  0  0  0  0
  133.0600   73.4340  226.4480 C   0  0  0  0  0  0  0  0  0  0  0  0
  132.1440   74.2910  227.0430 C   0  0  0  0  0  0  0  0  0  0  0  0
  132.4240   75.6410  226.9910 C   0  0  0  0  0  0  0  0  0  0  0  0
  131.2610   76.7210  227.7460 Cl  0  0  0  0  0  0  0  0  0  0  0  0
  133.5660   76.1230  226.3750 C   0  0  0  0  0  0  0  0  0  0  0  0
  134.4810   75.2630  225.7810 C   0  0  0  0  0  0  0  0  0  0  0  0
  134.1960   73.9150  225.8350 C   0  0  0  0  0  0  0  0  0  0  0  0
  135.0740   73.0480  225.2610 N   0  0  0  0  0  0  0  0  0  0  0  0
  137.2950   72.2710  224.3300 H   0  0  0  0  0  0  0  0  0  0  0  0
  137.5428   69.2671  223.8186 H   0  0  0  0  0  0  0  0  0  0  0  0
  137.9954   70.4515  222.5436 H   0  0  0  0  0  0  0  0  0  0  0  0
  139.1793   67.7015  224.6966 H   0  0  0  0  0  0  0  0  0  0  0  0
  140.9137   68.0226  224.9431 H   0  0  0  0  0  0  0  0  0  0  0  0
  138.9897   66.9593  226.8066 H   0  0  0  0  0  0  0  0  0  0  0  0
  140.7262   67.2314  227.0661 H   0  0  0  0  0  0  0  0  0  0  0  0
  138.3960   68.9006  227.8880 H   0  0  0  0  0  0  0  0  0  0  0  0
  140.0239   68.9074  228.5535 H   0  0  0  0  0  0  0  0  0  0  0  0
  139.0716   70.8915  226.9891 H   0  0  0  0  0  0  0  0  0  0  0  0
  141.5858   69.8794  226.6085 H   0  0  0  0  0  0  0  0  0  0  0  0
  140.2634   71.8775  228.8424 H   0  0  0  0  0  0  0  0  0  0  0  0
  141.7659   71.6702  229.1689 H   0  0  0  0  0  0  0  0  0  0  0  0
  140.5181   72.8535  226.4425 H   0  0  0  0  0  0  0  0  0  0  0  0
  142.0747   72.8156  226.3496 H   0  0  0  0  0  0  0  0  0  0  0  0
  133.5308   70.1591  225.9126 H   0  0  0  0  0  0  0  0  0  0  0  0
  131.8674   71.6834  226.9892 H   0  0  0  0  0  0  0  0  0  0  0  0
  131.2359   73.9108  227.5338 H   0  0  0  0  0  0  0  0  0  0  0  0
  133.7524   77.2069  226.3555 H   0  0  0  0  0  0  0  0  0  0  0  0
  135.3906   75.6398  225.2904 H   0  0  0  0  0  0  0  0  0  0  0  0
  1  2  2  0
  2  3  1  0
  3  4  1  0
  4  5  1  0
  5  6  2  0
  5  7  1  0
  7  8  1  0
  8  9  1  0
  9 10  1  0
 10 11  1  0
 11 12  1  0
 12 13  1  0
 13 14  1  0
  2 15  1  0
 15 16  2  0
 16 17  1  0
 17 18  2  0
 18 19  1  0
 19 20  2  0
 20 21  1  0
 20 22  1  0
 22 23  2  0
 23 24  1  0
 24 25  2  0
 11  7  1  0
 14 12  1  0
 25 15  1  0
 24 18  1  0
  3 26  1  0
  4 27  1  0
  4 28  1  0
  8 29  1  0
  8 30  1  0
  9 31  1  0
  9 32  1  0
 10 33  1  0
 10 34  1  0
 11 35  1  1
 12 36  1  0
 13 37  1  0
 13 38  1  0
 14 39  1  0
 14 40  1  0
 16 41  1  0
 17 42  1  0
 19 43  1  0
 22 44  1  0
 23 45  1  0
M  END
>  <smiles>  (76) 
O=C(NCC(=O)N1CCCC1C1CC1)c1ccc2cc(Cl)ccc2n1

>  <score_type>  (76) 
oracle

>  <origin>  (76) 
autodockgpu

>  <m_score__min__energy>  (76) 
-7.8499999999999996

>  <m_primary>  (76) 
energy

>  <rmsd>  (76) 
8.462883559623336

>  <m_score__min__rmsd>  (76) 
8.462883559623336

>  <meeko>  (76) 
{"free_energy": -7.35, "intermolecular_energy": -8.84, "internal_energy": -1.43, "cluster_size": 11, "cluster_id": 3, "rank_in_cluster": 10}

>  <energy>  (76) 
-7.43

>  <cluster_rmsd>  (76) 
1.03

>  <cluster>  (76) 
2

$$$$

     RDKit          3D

 45 48  0  0  0  0  0  0  0  0999 V2000
  139.8240   72.1690  220.8350 O   0  0  0  0  0  0  0  0  0  0  0  0
  139.7530   72.5760  222.0170 C   0  0  0  0  0  0  0  0  0  0  0  0
  139.5540   73.9650  222.3350 N   0  0  0  0  0  0  0  0  0  0  0  0
  139.4410   74.8580  221.1840 C   0  0  0  0  0  0  0  0  0  0  0  0
  139.5770   76.2540  221.6240 C   0  0  0  0  0  0  0  0  0  0  0  0
  139.1040   76.6940  222.7220 O   0  0  0  0  0  0  0  0  0  0  0  0
  140.2610   77.1980  220.8180 N   0  0  0  0  0  0  0  0  0  0  0  0
  139.7630   77.6420  219.5080 C   0  0  0  0  0  0  0  0  0  0  0  0
  140.9100   78.2560  218.7810 C   0  0  0  0  0  0  0  0  0  0  0  0
  142.1020   78.1910  219.7120 C   0  0  0  0  0  0  0  0  0  0  0  0
  141.5040   77.9020  221.0530 C   0  0  1  0  0  0  0  0  0  0  0  0
  141.3680   79.0600  221.9700 C   0  0  0  0  0  0  0  0  0  0  0  0
  142.6060   79.5120  222.7380 C   0  0  0  0  0  0  0  0  0  0  0  0
  141.3960   78.9700  223.4470 C   0  0  0  0  0  0  0  0  0  0  0  0
  139.8700   71.6440  223.1510 C   0  0  0  0  0  0  0  0  0  0  0  0
  139.4580   70.3390  222.9760 C   0  0  0  0  0  0  0  0  0  0  0  0
  139.5280   69.3870  223.9810 C   0  0  0  0  0  0  0  0  0  0  0  0
  140.0460   69.8360  225.1930 C   0  0  0  0  0  0  0  0  0  0  0  0
  140.1290   68.9060  226.2200 C   0  0  0  0  0  0  0  0  0  0  0  0
  140.6420   69.3460  227.4230 C   0  0  0  0  0  0  0  0  0  0  0  0
  140.7450   68.1650  228.7200 Cl  0  0  0  0  0  0  0  0  0  0  0  0
  141.0550   70.6550  227.6010 C   0  0  0  0  0  0  0  0  0  0  0  0
  140.9710   71.5830  226.5710 C   0  0  0  0  0  0  0  0  0  0  0  0
  140.4580   71.1380  225.3710 C   0  0  0  0  0  0  0  0  0  0  0  0
  140.3630   72.0240  224.3430 N   0  0  0  0  0  0  0  0  0  0  0  0
  139.4960   74.2980  223.3200 H   0  0  0  0  0  0  0  0  0  0  0  0
  140.2356   74.6238  220.4603 H   0  0  0  0  0  0  0  0  0  0  0  0
  138.4576   74.7196  220.7110 H   0  0  0  0  0  0  0  0  0  0  0  0
  139.3756   76.7822  218.9417 H   0  0  0  0  0  0  0  0  0  0  0  0
  138.9455   78.3681  219.6285 H   0  0  0  0  0  0  0  0  0  0  0  0
  141.1186   77.6940  217.8587 H   0  0  0  0  0  0  0  0  0  0  0  0
  140.6870   79.2949  218.4967 H   0  0  0  0  0  0  0  0  0  0  0  0
  142.7897   77.3874  219.4100 H   0  0  0  0  0  0  0  0  0  0  0  0
  142.6935   79.1184  219.7051 H   0  0  0  0  0  0  0  0  0  0  0  0
  142.2107   77.2764  221.6180 H   0  0  0  0  0  0  0  0  0  0  0  0
  140.6374   79.4919  221.2702 H   0  0  0  0  0  0  0  0  0  0  0  0
  143.5327   78.9210  222.6926 H   0  0  0  0  0  0  0  0  0  0  0  0
  143.2035   80.4338  222.7945 H   0  0  0  0  0  0  0  0  0  0  0  0
  141.4440   77.9843  223.9330 H   0  0  0  0  0  0  0  0  0  0  0  0
  140.7458   79.3421  224.2525 H   0  0  0  0  0  0  0  0  0  0  0  0
  139.0564   70.0410  221.9962 H   0  0  0  0  0  0  0  0  0  0  0  0
  139.1972   68.3486  223.8315 H   0  0  0  0  0  0  0  0  0  0  0  0
  139.8007   67.8654  226.0812 H   0  0  0  0  0  0  0  0  0  0  0  0
  141.4572   70.9662  228.5764 H   0  0  0  0  0  0  0  0  0  0  0  0
  141.2984   72.6244  226.7063 H   0  0  0  0  0  0  0  0  0  0  0  0
  1  2  2  0
  2  3  1  0
  3  4  1  0
  4  5  1  0
  5  6  2  0
  5  7  1  0
  7  8  1  0
  8  9  1  0
  9 10  1  0
 10 11  1  0
 11 12  1  0
 12 13  1  0
 13 14  1  0
  2 15  1  0
 15 16  2  0
 16 17  1  0
 17 18  2  0
 18 19  1  0
 19 20  2  0
 20 21  1  0
 20 22  1  0
 22 23  2  0
 23 24  1  0
 24 25  2  0
 11  7  1  0
 14 12  1  0
 25 15  1  0
 24 18  1  0
  3 26  1  0
  4 27  1  0
  4 28  1  0
  8 29  1  0
  8 30  1  0
  9 31  1  0
  9 32  1  0
 10 33  1  0
 10 34  1  0
 11 35  1  1
 12 36  1  0
 13 37  1  0
 13 38  1  0
 14 39  1  0
 14 40  1  0
 16 41  1  0
 17 42  1  0
 19 43  1  0
 22 44  1  0
 23 45  1  0
M  END
>  <smiles>  (77) 
O=C(NCC(=O)N1CCCC1C1CC1)c1ccc2cc(Cl)ccc2n1

>  <score_type>  (77) 
oracle

>  <origin>  (77) 
autodockgpu

>  <m_score__min__energy>  (77) 
-7.8499999999999996

>  <m_primary>  (77) 
energy

>  <rmsd>  (77) 
1.7983469602966502

>  <m_score__min__rmsd>  (77) 
1.7983469602966502

>  <meeko>  (77) 
{"free_energy": -7.39, "intermolecular_energy": -8.88, "internal_energy": -1.39, "cluster_size": 13, "cluster_id": 1, "rank_in_cluster": 9}

>  <energy>  (77) 
-7.41

>  <cluster_rmsd>  (77) 
1.08

>  <cluster>  (77) 
2

$$$$

     RDKit          3D

 45 48  0  0  0  0  0  0  0  0999 V2000
  139.8420   72.0820  220.5440 O   0  0  0  0  0  0  0  0  0  0  0  0
  140.2800   72.4870  221.6450 C   0  0  0  0  0  0  0  0  0  0  0  0
  140.8730   73.7890  221.7990 N   0  0  0  0  0  0  0  0  0  0  0  0
  140.9240   74.5980  220.5820 C   0  0  0  0  0  0  0  0  0  0  0  0
  142.2430   74.4590  219.9490 C   0  0  0  0  0  0  0  0  0  0  0  0
  142.9230   75.4450  219.5160 O   0  0  0  0  0  0  0  0  0  0  0  0
  142.8320   73.1790  219.7910 N   0  0  0  0  0  0  0  0  0  0  0  0
  142.5120   72.2840  218.6680 C   0  0  0  0  0  0  0  0  0  0  0  0
  142.9480   70.9130  219.0550 C   0  0  0  0  0  0  0  0  0  0  0  0
  143.5660   71.0240  220.4320 C   0  0  0  0  0  0  0  0  0  0  0  0
  143.8070   72.4900  220.6090 C   0  0  1  0  0  0  0  0  0  0  0  0
  145.1990   72.9530  220.3940 C   0  0  0  0  0  0  0  0  0  0  0  0
  146.1190   73.0370  221.6080 C   0  0  0  0  0  0  0  0  0  0  0  0
  145.7260   74.2640  220.8340 C   0  0  0  0  0  0  0  0  0  0  0  0
  140.2100   71.6420  222.8490 C   0  0  0  0  0  0  0  0  0  0  0  0
  139.6130   70.4020  222.7490 C   0  0  0  0  0  0  0  0  0  0  0  0
  139.4990   69.5340  223.8240 C   0  0  0  0  0  0  0  0  0  0  0  0
  140.0300   69.9970  225.0240 C   0  0  0  0  0  0  0  0  0  0  0  0
  139.9310   69.1510  226.1190 C   0  0  0  0  0  0  0  0  0  0  0  0
  140.4560   69.6040  227.3120 C   0  0  0  0  0  0  0  0  0  0  0  0
  140.3280   68.5290  228.6950 Cl  0  0  0  0  0  0  0  0  0  0  0  0
  141.0550   70.8480  227.4140 C   0  0  0  0  0  0  0  0  0  0  0  0
  141.1540   71.6930  226.3150 C   0  0  0  0  0  0  0  0  0  0  0  0
  140.6270   71.2340  225.1270 C   0  0  0  0  0  0  0  0  0  0  0  0
  140.7070   72.0390  224.0340 N   0  0  0  0  0  0  0  0  0  0  0  0
  141.2370   74.1200  222.7160 H   0  0  0  0  0  0  0  0  0  0  0  0
  140.1456   74.2570  219.8835 H   0  0  0  0  0  0  0  0  0  0  0  0
  140.7531   75.6538  220.8393 H   0  0  0  0  0  0  0  0  0  0  0  0
  141.4290   72.2942  218.4755 H   0  0  0  0  0  0  0  0  0  0  0  0
  143.0247   72.6111  217.7514 H   0  0  0  0  0  0  0  0  0  0  0  0
  142.0831   70.2338  219.0815 H   0  0  0  0  0  0  0  0  0  0  0  0
  143.6693   70.5084  218.3297 H   0  0  0  0  0  0  0  0  0  0  0  0
  142.8759   70.6465  221.2009 H   0  0  0  0  0  0  0  0  0  0  0  0
  144.4872   70.4308  220.5295 H   0  0  0  0  0  0  0  0  0  0  0  0
  143.6734   72.7358  221.6728 H   0  0  0  0  0  0  0  0  0  0  0  0
  145.1829   72.4550  219.4133 H   0  0  0  0  0  0  0  0  0  0  0  0
  145.7194   72.8679  222.6188 H   0  0  0  0  0  0  0  0  0  0  0  0
  147.0669   72.5680  221.9105 H   0  0  0  0  0  0  0  0  0  0  0  0
  145.0468   75.0010  221.2874 H   0  0  0  0  0  0  0  0  0  0  0  0
  146.2842   75.0732  220.3403 H   0  0  0  0  0  0  0  0  0  0  0  0
  139.2103   70.0887  221.7745 H   0  0  0  0  0  0  0  0  0  0  0  0
  139.0216   68.5471  223.7345 H   0  0  0  0  0  0  0  0  0  0  0  0
  139.4549   68.1625  226.0397 H   0  0  0  0  0  0  0  0  0  0  0  0
  141.4603   71.1738  228.3833 H   0  0  0  0  0  0  0  0  0  0  0  0
  141.6305   72.6816  226.3898 H   0  0  0  0  0  0  0  0  0  0  0  0
  1  2  2  0
  2  3  1  0
  3  4  1  0
  4  5  1  0
  5  6  2  0
  5  7  1  0
  7  8  1  0
  8  9  1  0
  9 10  1  0
 10 11  1  0
 11 12  1  0
 12 13  1  0
 13 14  1  0
  2 15  1  0
 15 16  2  0
 16 17  1  0
 17 18  2  0
 18 19  1  0
 19 20  2  0
 20 21  1  0
 20 22  1  0
 22 23  2  0
 23 24  1  0
 24 25  2  0
 11  7  1  0
 14 12  1  0
 25 15  1  0
 24 18  1  0
  3 26  1  0
  4 27  1  0
  4 28  1  0
  8 29  1  0
  8 30  1  0
  9 31  1  0
  9 32  1  0
 10 33  1  0
 10 34  1  0
 11 35  1  1
 12 36  1  0
 13 37  1  0
 13 38  1  0
 14 39  1  0
 14 40  1  0
 16 41  1  0
 17 42  1  0
 19 43  1  0
 22 44  1  0
 23 45  1  0
M  END
>  <smiles>  (78) 
O=C(NCC(=O)N1CCCC1C1CC1)c1ccc2cc(Cl)ccc2n1

>  <score_type>  (78) 
oracle

>  <origin>  (78) 
autodockgpu

>  <m_score__min__energy>  (78) 
-7.8499999999999996

>  <m_primary>  (78) 
energy

>  <rmsd>  (78) 
3.708220282328534

>  <m_score__min__rmsd>  (78) 
3.708220282328534

>  <meeko>  (78) 
{"free_energy": -6.48, "intermolecular_energy": -7.97, "internal_energy": -1.87, "cluster_size": 8, "cluster_id": 4, "rank_in_cluster": 7}

>  <energy>  (78) 
-7.36

>  <cluster_rmsd>  (78) 
1.67

>  <cluster>  (78) 
2

$$$$

     RDKit          3D

 45 48  0  0  0  0  0  0  0  0999 V2000
  141.5590   71.5110  221.2540 O   0  0  0  0  0  0  0  0  0  0  0  0
  140.9400   72.3940  221.8900 C   0  0  0  0  0  0  0  0  0  0  0  0
  140.0320   72.0720  222.9580 N   0  0  0  0  0  0  0  0  0  0  0  0
  139.8860   70.6450  223.2430 C   0  0  0  0  0  0  0  0  0  0  0  0
  139.0640   70.4620  224.4470 C   0  0  0  0  0  0  0  0  0  0  0  0
  137.9090   70.9770  224.5950 O   0  0  0  0  0  0  0  0  0  0  0  0
  139.5380   69.6780  225.5280 N   0  0  0  0  0  0  0  0  0  0  0  0
  139.8940   68.2570  225.3910 C   0  0  0  0  0  0  0  0  0  0  0  0
  139.9130   67.6700  226.7610 C   0  0  0  0  0  0  0  0  0  0  0  0
  139.5870   68.7930  227.7220 C   0  0  0  0  0  0  0  0  0  0  0  0
  139.7750   70.0360  226.9100 C   0  0  1  0  0  0  0  0  0  0  0  0
  141.0460   70.7690  227.1260 C   0  0  0  0  0  0  0  0  0  0  0  0
  141.1010   71.7840  228.2630 C   0  0  0  0  0  0  0  0  0  0  0  0
  141.2490   72.2040  226.8280 C   0  0  0  0  0  0  0  0  0  0  0  0
  141.1140   73.8220  221.5740 C   0  0  0  0  0  0  0  0  0  0  0  0
  142.0610   74.1770  220.6340 C   0  0  0  0  0  0  0  0  0  0  0  0
  142.2980   75.4930  220.2680 C   0  0  0  0  0  0  0  0  0  0  0  0
  141.5140   76.4440  220.9140 C   0  0  0  0  0  0  0  0  0  0  0  0
  141.7290   77.7700  220.5690 C   0  0  0  0  0  0  0  0  0  0  0  0
  140.9540   78.7180  221.2070 C   0  0  0  0  0  0  0  0  0  0  0  0
  141.2310   80.3960  220.7660 Cl  0  0  0  0  0  0  0  0  0  0  0  0
  140.0050   78.3630  222.1500 C   0  0  0  0  0  0  0  0  0  0  0  0
  139.7920   77.0340  222.4930 C   0  0  0  0  0  0  0  0  0  0  0  0
  140.5690   76.0930  221.8520 C   0  0  0  0  0  0  0  0  0  0  0  0
  140.3840   74.7820  222.1680 N   0  0  0  0  0  0  0  0  0  0  0  0
  139.5190   72.8100  223.4830 H   0  0  0  0  0  0  0  0  0  0  0  0
  139.3999   70.1496  222.3896 H   0  0  0  0  0  0  0  0  0  0  0  0
  140.8795   70.2033  223.4097 H   0  0  0  0  0  0  0  0  0  0  0  0
  139.1472   67.7401  224.7705 H   0  0  0  0  0  0  0  0  0  0  0  0
  140.8755   68.1467  224.9067 H   0  0  0  0  0  0  0  0  0  0  0  0
  139.1602   66.8720  226.8416 H   0  0  0  0  0  0  0  0  0  0  0  0
  140.8947   67.2286  226.9879 H   0  0  0  0  0  0  0  0  0  0  0  0
  138.5494   68.7128  228.0784 H   0  0  0  0  0  0  0  0  0  0  0  0
  140.2211   68.7764  228.6207 H   0  0  0  0  0  0  0  0  0  0  0  0
  139.0462   70.7854  227.2525 H   0  0  0  0  0  0  0  0  0  0  0  0
  141.5876   69.8651  226.8104 H   0  0  0  0  0  0  0  0  0  0  0  0
  140.1893   72.0381  228.8235 H   0  0  0  0  0  0  0  0  0  0  0  0
  141.6927   71.9037  229.1825 H   0  0  0  0  0  0  0  0  0  0  0  0
  140.4471   72.7793  226.3422 H   0  0  0  0  0  0  0  0  0  0  0  0
  142.0052   72.7734  226.2677 H   0  0  0  0  0  0  0  0  0  0  0  0
  142.6522   73.3823  220.1555 H   0  0  0  0  0  0  0  0  0  0  0  0
  143.0545   75.7668  219.5178 H   0  0  0  0  0  0  0  0  0  0  0  0
  142.4834   78.0538  219.8204 H   0  0  0  0  0  0  0  0  0  0  0  0
  139.4082   79.1483  222.6370 H   0  0  0  0  0  0  0  0  0  0  0  0
  139.0387   76.7460  223.2410 H   0  0  0  0  0  0  0  0  0  0  0  0
  1  2  2  0
  2  3  1  0
  3  4  1  0
  4  5  1  0
  5  6  2  0
  5  7  1  0
  7  8  1  0
  8  9  1  0
  9 10  1  0
 10 11  1  0
 11 12  1  0
 12 13  1  0
 13 14  1  0
  2 15  1  0
 15 16  2  0
 16 17  1  0
 17 18  2  0
 18 19  1  0
 19 20  2  0
 20 21  1  0
 20 22  1  0
 22 23  2  0
 23 24  1  0
 24 25  2  0
 11  7  1  0
 14 12  1  0
 25 15  1  0
 24 18  1  0
  3 26  1  0
  4 27  1  0
  4 28  1  0
  8 29  1  0
  8 30  1  0
  9 31  1  0
  9 32  1  0
 10 33  1  0
 10 34  1  0
 11 35  1  1
 12 36  1  0
 13 37  1  0
 13 38  1  0
 14 39  1  0
 14 40  1  0
 16 41  1  0
 17 42  1  0
 19 43  1  0
 22 44  1  0
 23 45  1  0
M  END
>  <smiles>  (79) 
O=C(NCC(=O)N1CCCC1C1CC1)c1ccc2cc(Cl)ccc2n1

>  <score_type>  (79) 
oracle

>  <origin>  (79) 
autodockgpu

>  <m_score__min__energy>  (79) 
-7.8499999999999996

>  <m_primary>  (79) 
energy

>  <rmsd>  (79) 
8.719280607855813

>  <m_score__min__rmsd>  (79) 
8.719280607855813

>  <meeko>  (79) 
{"free_energy": -7.81, "intermolecular_energy": -9.3, "internal_energy": -1.48, "cluster_size": 18, "cluster_id": 2, "rank_in_cluster": 3}

>  <energy>  (79) 
-7.35

>  <cluster_rmsd>  (79) 
1.15

>  <cluster>  (79) 
2

$$$$

     RDKit          3D

 45 48  0  0  0  0  0  0  0  0999 V2000
  140.1720   74.0170  221.9880 O   0  0  0  0  0  0  0  0  0  0  0  0
  140.0950   72.7760  221.8450 C   0  0  0  0  0  0  0  0  0  0  0  0
  139.9980   72.1620  220.5470 N   0  0  0  0  0  0  0  0  0  0  0  0
  139.9960   73.0890  219.4180 C   0  0  0  0  0  0  0  0  0  0  0  0
  141.3770   73.3560  218.9930 C   0  0  0  0  0  0  0  0  0  0  0  0
  142.0230   72.6100  218.1890 O   0  0  0  0  0  0  0  0  0  0  0  0
  142.0700   74.4930  219.4790 N   0  0  0  0  0  0  0  0  0  0  0  0
  141.3850   75.6830  220.0080 C   0  0  0  0  0  0  0  0  0  0  0  0
  142.3680   76.8030  219.9990 C   0  0  0  0  0  0  0  0  0  0  0  0
  143.6700   76.2360  219.4750 C   0  0  0  0  0  0  0  0  0  0  0  0
  143.4910   74.7540  219.5730 C   0  0  1  0  0  0  0  0  0  0  0  0
  144.1420   74.0930  220.7300 C   0  0  0  0  0  0  0  0  0  0  0  0
  145.6300   73.7730  220.6260 C   0  0  0  0  0  0  0  0  0  0  0  0
  144.6000   72.6860  220.7460 C   0  0  0  0  0  0  0  0  0  0  0  0
  140.1000   71.8740  223.0090 C   0  0  0  0  0  0  0  0  0  0  0  0
  139.5870   70.6010  222.8570 C   0  0  0  0  0  0  0  0  0  0  0  0
  139.5490   69.6790  223.8910 C   0  0  0  0  0  0  0  0  0  0  0  0
  140.0640   70.1210  225.1050 C   0  0  0  0  0  0  0  0  0  0  0  0
  140.0390   69.2200  226.1600 C   0  0  0  0  0  0  0  0  0  0  0  0
  140.5490   69.6530  227.3670 C   0  0  0  0  0  0  0  0  0  0  0  0
  140.5150   68.5080  228.6990 Cl  0  0  0  0  0  0  0  0  0  0  0  0
  141.0630   70.9290  227.5210 C   0  0  0  0  0  0  0  0  0  0  0  0
  141.0880   71.8290  226.4630 C   0  0  0  0  0  0  0  0  0  0  0  0
  140.5760   71.3900  225.2600 C   0  0  0  0  0  0  0  0  0  0  0  0
  140.5860   72.2490  224.2050 N   0  0  0  0  0  0  0  0  0  0  0  0
  139.9330   71.1290  220.4340 H   0  0  0  0  0  0  0  0  0  0  0  0
  139.4355   72.6454  218.5819 H   0  0  0  0  0  0  0  0  0  0  0  0
  139.5201   74.0327  219.7228 H   0  0  0  0  0  0  0  0  0  0  0  0
  140.5228   75.9342  219.3727 H   0  0  0  0  0  0  0  0  0  0  0  0
  141.0159   75.4979  221.0276 H   0  0  0  0  0  0  0  0  0  0  0  0
  142.0152   77.6116  219.3420 H   0  0  0  0  0  0  0  0  0  0  0  0
  142.4973   77.2236  221.0072 H   0  0  0  0  0  0  0  0  0  0  0  0
  143.8361   76.5407  218.4312 H   0  0  0  0  0  0  0  0  0  0  0  0
  144.5430   76.5932  220.0409 H   0  0  0  0  0  0  0  0  0  0  0  0
  144.0339   74.2858  218.7387 H   0  0  0  0  0  0  0  0  0  0  0  0
  143.4719   74.6593  221.3935 H   0  0  0  0  0  0  0  0  0  0  0  0
  146.1649   73.9272  219.6773 H   0  0  0  0  0  0  0  0  0  0  0  0
  146.5369   74.0615  221.1776 H   0  0  0  0  0  0  0  0  0  0  0  0
  144.3914   72.0344  219.8847 H   0  0  0  0  0  0  0  0  0  0  0  0
  144.4538   71.8378  221.4309 H   0  0  0  0  0  0  0  0  0  0  0  0
  139.1918   70.3063  221.8736 H   0  0  0  0  0  0  0  0  0  0  0  0
  139.1394   68.6665  223.7604 H   0  0  0  0  0  0  0  0  0  0  0  0
  139.6308   68.2057  226.0396 H   0  0  0  0  0  0  0  0  0  0  0  0
  141.4593   71.2363  228.5000 H   0  0  0  0  0  0  0  0  0  0  0  0
  141.4967   72.8436  226.5793 H   0  0  0  0  0  0  0  0  0  0  0  0
  1  2  2  0
  2  3  1  0
  3  4  1  0
  4  5  1  0
  5  6  2  0
  5  7  1  0
  7  8  1  0
  8  9  1  0
  9 10  1  0
 10 11  1  0
 11 12  1  0
 12 13  1  0
 13 14  1  0
  2 15  1  0
 15 16  2  0
 16 17  1  0
 17 18  2  0
 18 19  1  0
 19 20  2  0
 20 21  1  0
 20 22  1  0
 22 23  2  0
 23 24  1  0
 24 25  2  0
 11  7  1  0
 14 12  1  0
 25 15  1  0
 24 18  1  0
  3 26  1  0
  4 27  1  0
  4 28  1  0
  8 29  1  0
  8 30  1  0
  9 31  1  0
  9 32  1  0
 10 33  1  0
 10 34  1  0
 11 35  1  6
 12 36  1  0
 13 37  1  0
 13 38  1  0
 14 39  1  0
 14 40  1  0
 16 41  1  0
 17 42  1  0
 19 43  1  0
 22 44  1  0
 23 45  1  0
M  END
>  <smiles>  (80) 
O=C(NCC(=O)N1CCCC1C1CC1)c1ccc2cc(Cl)ccc2n1

>  <score_type>  (80) 
oracle

>  <origin>  (80) 
autodockgpu

>  <m_score__min__energy>  (80) 
-7.8499999999999996

>  <m_primary>  (80) 
energy

>  <rmsd>  (80) 
2.59641678983737

>  <m_score__min__rmsd>  (80) 
2.59641678983737

>  <meeko>  (80) 
{"free_energy": -7.21, "intermolecular_energy": -8.7, "internal_energy": -1.33, "cluster_size": 8, "cluster_id": 4, "rank_in_cluster": 4}

>  <energy>  (80) 
-7.3

>  <cluster_rmsd>  (80) 
0.9

>  <cluster>  (80) 
2

$$$$

     RDKit          3D

 45 48  0  0  0  0  0  0  0  0999 V2000
  139.5860   73.9380  222.3460 O   0  0  0  0  0  0  0  0  0  0  0  0
  140.1680   72.8360  222.2380 C   0  0  0  0  0  0  0  0  0  0  0  0
  140.8570   72.4510  221.0340 N   0  0  0  0  0  0  0  0  0  0  0  0
  140.8250   73.4370  219.9560 C   0  0  0  0  0  0  0  0  0  0  0  0
  142.1160   74.1350  219.8840 C   0  0  0  0  0  0  0  0  0  0  0  0
  142.2510   75.3850  220.0860 O   0  0  0  0  0  0  0  0  0  0  0  0
  143.3020   73.4230  219.5760 N   0  0  0  0  0  0  0  0  0  0  0  0
  143.7600   73.1880  218.1990 C   0  0  0  0  0  0  0  0  0  0  0  0
  144.7430   72.0690  218.2420 C   0  0  0  0  0  0  0  0  0  0  0  0
  144.8800   71.6640  219.6940 C   0  0  0  0  0  0  0  0  0  0  0  0
  144.2750   72.8040  220.4510 C   0  0  1  0  0  0  0  0  0  0  0  0
  145.2300   73.7650  221.0550 C   0  0  0  0  0  0  0  0  0  0  0  0
  146.6620   73.7760  220.5290 C   0  0  0  0  0  0  0  0  0  0  0  0
  146.3480   73.3900  221.9480 C   0  0  0  0  0  0  0  0  0  0  0  0
  140.1790   71.8680  223.3480 C   0  0  0  0  0  0  0  0  0  0  0  0
  139.6920   70.5970  223.1180 C   0  0  0  0  0  0  0  0  0  0  0  0
  139.6600   69.6170  224.0960 C   0  0  0  0  0  0  0  0  0  0  0  0
  140.1550   69.9970  225.3400 C   0  0  0  0  0  0  0  0  0  0  0  0
  140.1370   69.0370  226.3410 C   0  0  0  0  0  0  0  0  0  0  0  0
  140.6260   69.4090  227.5770 C   0  0  0  0  0  0  0  0  0  0  0  0
  140.6000   68.1890  228.8410 Cl  0  0  0  0  0  0  0  0  0  0  0  0
  141.1150   70.6830  227.8090 C   0  0  0  0  0  0  0  0  0  0  0  0
  141.1330   71.6430  226.8050 C   0  0  0  0  0  0  0  0  0  0  0  0
  140.6420   71.2640  225.5730 C   0  0  0  0  0  0  0  0  0  0  0  0
  140.6460   72.1830  224.5690 N   0  0  0  0  0  0  0  0  0  0  0  0
  141.3400   71.5320  220.9500 H   0  0  0  0  0  0  0  0  0  0  0  0
  140.6310   72.9277  219.0005 H   0  0  0  0  0  0  0  0  0  0  0  0
  140.0268   74.1674  220.1543 H   0  0  0  0  0  0  0  0  0  0  0  0
  142.9070   72.9150  217.5604 H   0  0  0  0  0  0  0  0  0  0  0  0
  144.2219   74.0954  217.7828 H   0  0  0  0  0  0  0  0  0  0  0  0
  144.3775   71.2205  217.6449 H   0  0  0  0  0  0  0  0  0  0  0  0
  145.7127   72.3787  217.8251 H   0  0  0  0  0  0  0  0  0  0  0  0
  144.3333   70.7302  219.8919 H   0  0  0  0  0  0  0  0  0  0  0  0
  145.9245   71.4738  219.9819 H   0  0  0  0  0  0  0  0  0  0  0  0
  143.7923   72.4015  221.3538 H   0  0  0  0  0  0  0  0  0  0  0  0
  144.3971   74.4738  221.1725 H   0  0  0  0  0  0  0  0  0  0  0  0
  146.9934   73.0144  219.8078 H   0  0  0  0  0  0  0  0  0  0  0  0
  147.3151   74.5141  220.0406 H   0  0  0  0  0  0  0  0  0  0  0  0
  146.4640   72.3438  222.2674 H   0  0  0  0  0  0  0  0  0  0  0  0
  146.6941   73.7356  222.9333 H   0  0  0  0  0  0  0  0  0  0  0  0
  139.3131   70.3521  222.1148 H   0  0  0  0  0  0  0  0  0  0  0  0
  139.2699   68.6068  223.9027 H   0  0  0  0  0  0  0  0  0  0  0  0
  139.7500   68.0237  226.1579 H   0  0  0  0  0  0  0  0  0  0  0  0
  141.4969   70.9403  228.8080 H   0  0  0  0  0  0  0  0  0  0  0  0
  141.5203   72.6569  226.9840 H   0  0  0  0  0  0  0  0  0  0  0  0
  1  2  2  0
  2  3  1  0
  3  4  1  0
  4  5  1  0
  5  6  2  0
  5  7  1  0
  7  8  1  0
  8  9  1  0
  9 10  1  0
 10 11  1  0
 11 12  1  0
 12 13  1  0
 13 14  1  0
  2 15  1  0
 15 16  2  0
 16 17  1  0
 17 18  2  0
 18 19  1  0
 19 20  2  0
 20 21  1  0
 20 22  1  0
 22 23  2  0
 23 24  1  0
 24 25  2  0
 11  7  1  0
 14 12  1  0
 25 15  1  0
 24 18  1  0
  3 26  1  0
  4 27  1  0
  4 28  1  0
  8 29  1  0
  8 30  1  0
  9 31  1  0
  9 32  1  0
 10 33  1  0
 10 34  1  0
 11 35  1  1
 12 36  1  0
 13 37  1  0
 13 38  1  0
 14 39  1  0
 14 40  1  0
 16 41  1  0
 17 42  1  0
 19 43  1  0
 22 44  1  0
 23 45  1  0
M  END
>  <smiles>  (81) 
O=C(NCC(=O)N1CCCC1C1CC1)c1ccc2cc(Cl)ccc2n1

>  <score_type>  (81) 
oracle

>  <origin>  (81) 
autodockgpu

>  <m_score__min__energy>  (81) 
-7.8499999999999996

>  <m_primary>  (81) 
energy

>  <rmsd>  (81) 
3.7910789828199047

>  <m_score__min__rmsd>  (81) 
3.7910789828199047

>  <meeko>  (81) 
{"free_energy": -7.3, "intermolecular_energy": -8.8, "internal_energy": -1.13, "cluster_size": 8, "cluster_id": 4, "rank_in_cluster": 2}

>  <energy>  (81) 
-7.3

>  <cluster_rmsd>  (81) 
0.89

>  <cluster>  (81) 
2

$$$$

     RDKit          3D

 45 48  0  0  0  0  0  0  0  0999 V2000
  141.1130   72.8420  221.4440 O   0  0  0  0  0  0  0  0  0  0  0  0
  140.2350   72.8640  222.3360 C   0  0  0  0  0  0  0  0  0  0  0  0
  139.1720   73.8350  222.3380 N   0  0  0  0  0  0  0  0  0  0  0  0
  139.1960   74.7860  221.2280 C   0  0  0  0  0  0  0  0  0  0  0  0
  140.2100   75.8200  221.4830 C   0  0  0  0  0  0  0  0  0  0  0  0
  141.4570   75.6440  221.2910 O   0  0  0  0  0  0  0  0  0  0  0  0
  139.8290   77.0960  221.9680 N   0  0  0  0  0  0  0  0  0  0  0  0
  138.5900   77.3270  222.7250 C   0  0  0  0  0  0  0  0  0  0  0  0
  138.3050   78.7890  222.6750 C   0  0  0  0  0  0  0  0  0  0  0  0
  139.4300   79.4260  221.8900 C   0  0  0  0  0  0  0  0  0  0  0  0
  140.4950   78.3760  221.8570 C   0  0  1  0  0  0  0  0  0  0  0  0
  141.6130   78.5510  222.8150 C   0  0  0  0  0  0  0  0  0  0  0  0
  141.4950   79.6580  223.8570 C   0  0  0  0  0  0  0  0  0  0  0  0
  142.5630   79.6850  222.8000 C   0  0  0  0  0  0  0  0  0  0  0  0
  140.2440   71.8880  223.4380 C   0  0  0  0  0  0  0  0  0  0  0  0
  139.7990   70.6060  223.1850 C   0  0  0  0  0  0  0  0  0  0  0  0
  139.7690   69.6160  224.1550 C   0  0  0  0  0  0  0  0  0  0  0  0
  140.2210   70.0000  225.4140 C   0  0  0  0  0  0  0  0  0  0  0  0
  140.2040   69.0310  226.4070 C   0  0  0  0  0  0  0  0  0  0  0  0
  140.6510   69.4060  227.6580 C   0  0  0  0  0  0  0  0  0  0  0  0
  140.6270   68.1750  228.9110 Cl  0  0  0  0  0  0  0  0  0  0  0  0
  141.0980   70.6910  227.9130 C   0  0  0  0  0  0  0  0  0  0  0  0
  141.1150   71.6590  226.9160 C   0  0  0  0  0  0  0  0  0  0  0  0
  140.6660   71.2780  225.6700 C   0  0  0  0  0  0  0  0  0  0  0  0
  140.6700   72.2050  224.6740 N   0  0  0  0  0  0  0  0  0  0  0  0
  138.4450   73.8490  223.0820 H   0  0  0  0  0  0  0  0  0  0  0  0
  139.4417   74.2548  220.2966 H   0  0  0  0  0  0  0  0  0  0  0  0
  138.2080   75.2602  221.1332 H   0  0  0  0  0  0  0  0  0  0  0  0
  137.7606   76.7662  222.2694 H   0  0  0  0  0  0  0  0  0  0  0  0
  138.7008   76.9876  223.7655 H   0  0  0  0  0  0  0  0  0  0  0  0
  137.3429   78.9705  222.1735 H   0  0  0  0  0  0  0  0  0  0  0  0
  138.2400   79.2137  223.6876 H   0  0  0  0  0  0  0  0  0  0  0  0
  139.1004   79.6794  220.8716 H   0  0  0  0  0  0  0  0  0  0  0  0
  139.7792   80.3662  222.3417 H   0  0  0  0  0  0  0  0  0  0  0  0
  141.0319   78.4589  220.9005 H   0  0  0  0  0  0  0  0  0  0  0  0
  141.7631   77.4615  222.7935 H   0  0  0  0  0  0  0  0  0  0  0  0
  140.6574   80.3699  223.8167 H   0  0  0  0  0  0  0  0  0  0  0  0
  141.4745   79.7050  224.9558 H   0  0  0  0  0  0  0  0  0  0  0  0
  142.5120   80.4291  221.9915 H   0  0  0  0  0  0  0  0  0  0  0  0
  143.6596   79.7697  222.8169 H   0  0  0  0  0  0  0  0  0  0  0  0
  139.4534   70.3594  222.1702 H   0  0  0  0  0  0  0  0  0  0  0  0
  139.4124   68.5970  223.9440 H   0  0  0  0  0  0  0  0  0  0  0  0
  139.8499   68.0091  226.2062 H   0  0  0  0  0  0  0  0  0  0  0  0
  141.4462   70.9508  228.9236 H   0  0  0  0  0  0  0  0  0  0  0  0
  141.4702   72.6814  227.1122 H   0  0  0  0  0  0  0  0  0  0  0  0
  1  2  2  0
  2  3  1  0
  3  4  1  0
  4  5  1  0
  5  6  2  0
  5  7  1  0
  7  8  1  0
  8  9  1  0
  9 10  1  0
 10 11  1  0
 11 12  1  0
 12 13  1  0
 13 14  1  0
  2 15  1  0
 15 16  2  0
 16 17  1  0
 17 18  2  0
 18 19  1  0
 19 20  2  0
 20 21  1  0
 20 22  1  0
 22 23  2  0
 23 24  1  0
 24 25  2  0
 11  7  1  0
 14 12  1  0
 25 15  1  0
 24 18  1  0
  3 26  1  0
  4 27  1  0
  4 28  1  0
  8 29  1  0
  8 30  1  0
  9 31  1  0
  9 32  1  0
 10 33  1  0
 10 34  1  0
 11 35  1  6
 12 36  1  0
 13 37  1  0
 13 38  1  0
 14 39  1  0
 14 40  1  0
 16 41  1  0
 17 42  1  0
 19 43  1  0
 22 44  1  0
 23 45  1  0
M  END
>  <smiles>  (82) 
O=C(NCC(=O)N1CCCC1C1CC1)c1ccc2cc(Cl)ccc2n1

>  <score_type>  (82) 
oracle

>  <origin>  (82) 
autodockgpu

>  <m_score__min__energy>  (82) 
-7.8499999999999996

>  <m_primary>  (82) 
energy

>  <rmsd>  (82) 
2.863595363928808

>  <m_score__min__rmsd>  (82) 
2.863595363928808

>  <meeko>  (82) 
{"free_energy": -7.79, "intermolecular_energy": -9.28, "internal_energy": -1.02, "cluster_size": 13, "cluster_id": 1, "rank_in_cluster": 2}

>  <energy>  (82) 
-7.56

>  <cluster_rmsd>  (82) 
0.0

>  <cluster>  (82) 
3

$$$$

     RDKit          3D

 45 48  0  0  0  0  0  0  0  0999 V2000
  135.0160   68.4970  224.8020 O   0  0  0  0  0  0  0  0  0  0  0  0
  135.4660   69.6630  224.7420 C   0  0  0  0  0  0  0  0  0  0  0  0
  136.7080   69.9700  224.0830 N   0  0  0  0  0  0  0  0  0  0  0  0
  137.4000   68.8250  223.4940 C   0  0  0  0  0  0  0  0  0  0  0  0
  138.6530   68.5760  224.2190 C   0  0  0  0  0  0  0  0  0  0  0  0
  139.0850   67.4110  224.4990 O   0  0  0  0  0  0  0  0  0  0  0  0
  139.4600   69.6580  224.6520 N   0  0  0  0  0  0  0  0  0  0  0  0
  139.4540   70.9740  223.9940 C   0  0  0  0  0  0  0  0  0  0  0  0
  140.6970   71.6830  224.4090 C   0  0  0  0  0  0  0  0  0  0  0  0
  141.4290   70.7610  225.3600 C   0  0  0  0  0  0  0  0  0  0  0  0
  140.4040   69.7430  225.7460 C   0  0  1  0  0  0  0  0  0  0  0  0
  139.7640   69.9310  227.0710 C   0  0  0  0  0  0  0  0  0  0  0  0
  140.4660   70.8340  228.0810 C   0  0  0  0  0  0  0  0  0  0  0  0
  140.2760   69.3650  228.3390 C   0  0  0  0  0  0  0  0  0  0  0  0
  134.7390   70.7910  225.3480 C   0  0  0  0  0  0  0  0  0  0  0  0
  133.7400   70.5170  226.2590 C   0  0  0  0  0  0  0  0  0  0  0  0
  133.0000   71.5080  226.8840 C   0  0  0  0  0  0  0  0  0  0  0  0
  133.3300   72.8130  226.5300 C   0  0  0  0  0  0  0  0  0  0  0  0
  132.6070   73.8290  227.1390 C   0  0  0  0  0  0  0  0  0  0  0  0
  132.9310   75.1240  226.7920 C   0  0  0  0  0  0  0  0  0  0  0  0
  132.0110   76.4060  227.5650 Cl  0  0  0  0  0  0  0  0  0  0  0  0
  133.9320   75.4010  225.8770 C   0  0  0  0  0  0  0  0  0  0  0  0
  134.6560   74.3830  225.2700 C   0  0  0  0  0  0  0  0  0  0  0  0
  134.3270   73.0910  225.6210 C   0  0  0  0  0  0  0  0  0  0  0  0
  135.0170   72.0710  225.0420 N   0  0  0  0  0  0  0  0  0  0  0  0
  137.0780   70.9420  224.0370 H   0  0  0  0  0  0  0  0  0  0  0  0
  136.7564   67.9354  223.5603 H   0  0  0  0  0  0  0  0  0  0  0  0
  137.6265   69.0399  222.4392 H   0  0  0  0  0  0  0  0  0  0  0  0
  139.4393   70.8484  222.9013 H   0  0  0  0  0  0  0  0  0  0  0  0
  138.5624   71.5497  224.2832 H   0  0  0  0  0  0  0  0  0  0  0  0
  141.3234   71.8953  223.5300 H   0  0  0  0  0  0  0  0  0  0  0  0
  140.4616   72.6427  224.8923 H   0  0  0  0  0  0  0  0  0  0  0  0
  142.2841   70.2832  224.8594 H   0  0  0  0  0  0  0  0  0  0  0  0
  141.8417   71.2939  226.2293 H   0  0  0  0  0  0  0  0  0  0  0  0
  140.9152   68.7814  225.9010 H   0  0  0  0  0  0  0  0  0  0  0  0
  138.7840   69.8656  226.5757 H   0  0  0  0  0  0  0  0  0  0  0  0
  141.4678   71.2336  227.8646 H   0  0  0  0  0  0  0  0  0  0  0  0
  140.2157   71.7646  228.6113 H   0  0  0  0  0  0  0  0  0  0  0  0
  141.1455   68.6914  228.3242 H   0  0  0  0  0  0  0  0  0  0  0  0
  139.8285   68.7794  229.1556 H   0  0  0  0  0  0  0  0  0  0  0  0
  133.5213   69.4662  226.4998 H   0  0  0  0  0  0  0  0  0  0  0  0
  132.2061   71.2790  227.6102 H   0  0  0  0  0  0  0  0  0  0  0  0
  131.8109   73.6112  227.8662 H   0  0  0  0  0  0  0  0  0  0  0  0
  134.1585   76.4477  225.6257 H   0  0  0  0  0  0  0  0  0  0  0  0
  135.4539   74.5974  224.5438 H   0  0  0  0  0  0  0  0  0  0  0  0
  1  2  2  0
  2  3  1  0
  3  4  1  0
  4  5  1  0
  5  6  2  0
  5  7  1  0
  7  8  1  0
  8  9  1  0
  9 10  1  0
 10 11  1  0
 11 12  1  0
 12 13  1  0
 13 14  1  0
  2 15  1  0
 15 16  2  0
 16 17  1  0
 17 18  2  0
 18 19  1  0
 19 20  2  0
 20 21  1  0
 20 22  1  0
 22 23  2  0
 23 24  1  0
 24 25  2  0
 11  7  1  0
 14 12  1  0
 25 15  1  0
 24 18  1  0
  3 26  1  0
  4 27  1  0
  4 28  1  0
  8 29  1  0
  8 30  1  0
  9 31  1  0
  9 32  1  0
 10 33  1  0
 10 34  1  0
 11 35  1  1
 12 36  1  0
 13 37  1  0
 13 38  1  0
 14 39  1  0
 14 40  1  0
 16 41  1  0
 17 42  1  0
 19 43  1  0
 22 44  1  0
 23 45  1  0
M  END
>  <smiles>  (83) 
O=C(NCC(=O)N1CCCC1C1CC1)c1ccc2cc(Cl)ccc2n1

>  <score_type>  (83) 
oracle

>  <origin>  (83) 
autodockgpu

>  <m_score__min__energy>  (83) 
-7.8499999999999996

>  <m_primary>  (83) 
energy

>  <rmsd>  (83) 
7.533027821217359

>  <m_score__min__rmsd>  (83) 
7.533027821217359

>  <meeko>  (83) 
{"free_energy": -7.52, "intermolecular_energy": -9.01, "internal_energy": -1.4, "cluster_size": 11, "cluster_id": 3, "rank_in_cluster": 5}

>  <energy>  (83) 
-7.55

>  <cluster_rmsd>  (83) 
0.31

>  <cluster>  (83) 
3

$$$$

     RDKit          3D

 45 48  0  0  0  0  0  0  0  0999 V2000
  139.5220   69.4500  222.2670 O   0  0  0  0  0  0  0  0  0  0  0  0
  139.2680   70.5550  222.7970 C   0  0  0  0  0  0  0  0  0  0  0  0
  138.3720   70.6770  223.9170 N   0  0  0  0  0  0  0  0  0  0  0  0
  137.7860   69.4230  224.3860 C   0  0  0  0  0  0  0  0  0  0  0  0
  138.8470   68.5350  224.8830 C   0  0  0  0  0  0  0  0  0  0  0  0
  139.1570   67.4310  224.3300 O   0  0  0  0  0  0  0  0  0  0  0  0
  139.5930   68.8840  226.0370 N   0  0  0  0  0  0  0  0  0  0  0  0
  140.5970   67.9950  226.6400 C   0  0  0  0  0  0  0  0  0  0  0  0
  140.8370   68.4730  228.0310 C   0  0  0  0  0  0  0  0  0  0  0  0
  139.9650   69.6950  228.2280 C   0  0  0  0  0  0  0  0  0  0  0  0
  139.5640   70.0870  226.8410 C   0  0  1  0  0  0  0  0  0  0  0  0
  140.3100   71.2210  226.2430 C   0  0  0  0  0  0  0  0  0  0  0  0
  141.7440   70.9720  225.7870 C   0  0  0  0  0  0  0  0  0  0  0  0
  141.4290   71.9310  226.9010 C   0  0  0  0  0  0  0  0  0  0  0  0
  139.8780   71.7980  222.2970 C   0  0  0  0  0  0  0  0  0  0  0  0
  141.0950   71.7190  221.6490 C   0  0  0  0  0  0  0  0  0  0  0  0
  141.7490   72.8300  221.1420 C   0  0  0  0  0  0  0  0  0  0  0  0
  141.0960   74.0450  221.3290 C   0  0  0  0  0  0  0  0  0  0  0  0
  141.7270   75.1770  220.8320 C   0  0  0  0  0  0  0  0  0  0  0  0
  141.0840   76.3840  221.0150 C   0  0  0  0  0  0  0  0  0  0  0  0
  141.8870   77.8140  220.3840 Cl  0  0  0  0  0  0  0  0  0  0  0  0
  139.8640   76.4650  221.6640 C   0  0  0  0  0  0  0  0  0  0  0  0
  139.2350   75.3300  222.1600 C   0  0  0  0  0  0  0  0  0  0  0  0
  139.8830   74.1270  221.9750 C   0  0  0  0  0  0  0  0  0  0  0  0
  139.2910   72.9980  222.4500 N   0  0  0  0  0  0  0  0  0  0  0  0
  138.1640   71.5990  224.3540 H   0  0  0  0  0  0  0  0  0  0  0  0
  137.0748   69.6332  225.1984 H   0  0  0  0  0  0  0  0  0  0  0  0
  137.2612   68.9324  223.5530 H   0  0  0  0  0  0  0  0  0  0  0  0
  140.2219   66.9611  226.6571 H   0  0  0  0  0  0  0  0  0  0  0  0
  141.5299   68.0108  226.0574 H   0  0  0  0  0  0  0  0  0  0  0  0
  140.5618   67.6905  228.7535 H   0  0  0  0  0  0  0  0  0  0  0  0
  141.8984   68.7150  228.1885 H   0  0  0  0  0  0  0  0  0  0  0  0
  139.0811   69.4498  228.8351 H   0  0  0  0  0  0  0  0  0  0  0  0
  140.4870   70.5038  228.7602 H   0  0  0  0  0  0  0  0  0  0  0  0
  138.5489   70.5088  226.8816 H   0  0  0  0  0  0  0  0  0  0  0  0
  139.3641   71.5760  225.8080 H   0  0  0  0  0  0  0  0  0  0  0  0
  142.2359   70.0124  226.0044 H   0  0  0  0  0  0  0  0  0  0  0  0
  142.2864   71.0269  224.8316 H   0  0  0  0  0  0  0  0  0  0  0  0
  141.7045   71.6760  227.9350 H   0  0  0  0  0  0  0  0  0  0  0  0
  141.6612   72.9888  227.0936 H   0  0  0  0  0  0  0  0  0  0  0  0
  141.5652   70.7316  221.5304 H   0  0  0  0  0  0  0  0  0  0  0  0
  142.7181   72.7570  220.6268 H   0  0  0  0  0  0  0  0  0  0  0  0
  142.6962   75.1147  220.3154 H   0  0  0  0  0  0  0  0  0  0  0  0
  139.3835   77.4465  221.7893 H   0  0  0  0  0  0  0  0  0  0  0  0
  138.2654   75.3882  222.6762 H   0  0  0  0  0  0  0  0  0  0  0  0
  1  2  2  0
  2  3  1  0
  3  4  1  0
  4  5  1  0
  5  6  2  0
  5  7  1  0
  7  8  1  0
  8  9  1  0
  9 10  1  0
 10 11  1  0
 11 12  1  0
 12 13  1  0
 13 14  1  0
  2 15  1  0
 15 16  2  0
 16 17  1  0
 17 18  2  0
 18 19  1  0
 19 20  2  0
 20 21  1  0
 20 22  1  0
 22 23  2  0
 23 24  1  0
 24 25  2  0
 11  7  1  0
 14 12  1  0
 25 15  1  0
 24 18  1  0
  3 26  1  0
  4 27  1  0
  4 28  1  0
  8 29  1  0
  8 30  1  0
  9 31  1  0
  9 32  1  0
 10 33  1  0
 10 34  1  0
 11 35  1  1
 12 36  1  0
 13 37  1  0
 13 38  1  0
 14 39  1  0
 14 40  1  0
 16 41  1  0
 17 42  1  0
 19 43  1  0
 22 44  1  0
 23 45  1  0
M  END
>  <smiles>  (84) 
O=C(NCC(=O)N1CCCC1C1CC1)c1ccc2cc(Cl)ccc2n1

>  <score_type>  (84) 
oracle

>  <origin>  (84) 
autodockgpu

>  <m_score__min__energy>  (84) 
-7.8499999999999996

>  <m_primary>  (84) 
energy

>  <rmsd>  (84) 
8.35250651683844

>  <m_score__min__rmsd>  (84) 
8.35250651683844

>  <meeko>  (84) 
{"free_energy": -7.36, "intermolecular_energy": -8.86, "internal_energy": -1.71, "cluster_size": 18, "cluster_id": 2, "rank_in_cluster": 15}

>  <energy>  (84) 
-7.54

>  <cluster_rmsd>  (84) 
0.07

>  <cluster>  (84) 
3

$$$$

     RDKit          3D

 45 48  0  0  0  0  0  0  0  0999 V2000
  135.5960   69.4790  224.2090 O   0  0  0  0  0  0  0  0  0  0  0  0
  135.8940   70.6850  224.3630 C   0  0  0  0  0  0  0  0  0  0  0  0
  137.1160   71.2410  223.8470 N   0  0  0  0  0  0  0  0  0  0  0  0
  137.9790   70.2990  223.1360 C   0  0  0  0  0  0  0  0  0  0  0  0
  138.6330   69.4030  224.0990 C   0  0  0  0  0  0  0  0  0  0  0  0
  138.4000   68.1530  224.1680 O   0  0  0  0  0  0  0  0  0  0  0  0
  139.5820   69.9100  225.0220 N   0  0  0  0  0  0  0  0  0  0  0  0
  139.7670   71.3470  225.2720 C   0  0  0  0  0  0  0  0  0  0  0  0
  141.0950   71.5180  225.9260 C   0  0  0  0  0  0  0  0  0  0  0  0
  141.6840   70.1330  226.0850 C   0  0  0  0  0  0  0  0  0  0  0  0
  140.5230   69.2140  225.8750 C   0  0  1  0  0  0  0  0  0  0  0  0
  139.9090   68.6480  227.1010 C   0  0  0  0  0  0  0  0  0  0  0  0
  139.5870   69.6040  228.2450 C   0  0  0  0  0  0  0  0  0  0  0  0
  140.6030   68.5070  228.4000 C   0  0  0  0  0  0  0  0  0  0  0  0
  134.9980   71.6040  225.0850 C   0  0  0  0  0  0  0  0  0  0  0  0
  133.9990   71.0670  225.8710 C   0  0  0  0  0  0  0  0  0  0  0  0
  133.1070   71.8480  226.5900 C   0  0  0  0  0  0  0  0  0  0  0  0
  133.2840   73.2230  226.4670 C   0  0  0  0  0  0  0  0  0  0  0  0
  132.4060   74.0320  227.1740 C   0  0  0  0  0  0  0  0  0  0  0  0
  132.5760   75.3960  227.0560 C   0  0  0  0  0  0  0  0  0  0  0  0
  131.4610   76.4150  227.9540 Cl  0  0  0  0  0  0  0  0  0  0  0  0
  133.5770   75.9360  226.2680 C   0  0  0  0  0  0  0  0  0  0  0  0
  134.4550   75.1240  225.5610 C   0  0  0  0  0  0  0  0  0  0  0  0
  134.2790   73.7620  225.6830 C   0  0  0  0  0  0  0  0  0  0  0  0
  135.1230   72.9410  225.0020 N   0  0  0  0  0  0  0  0  0  0  0  0
  137.3590   72.2450  223.9780 H   0  0  0  0  0  0  0  0  0  0  0  0
  137.3731   69.7044  222.4364 H   0  0  0  0  0  0  0  0  0  0  0  0
  138.7458   70.8568  222.5785 H   0  0  0  0  0  0  0  0  0  0  0  0
  139.7419   71.9003  224.3216 H   0  0  0  0  0  0  0  0  0  0  0  0
  138.9641   71.7359  225.9155 H   0  0  0  0  0  0  0  0  0  0  0  0
  141.7501   72.1385  225.2969 H   0  0  0  0  0  0  0  0  0  0  0  0
  140.9944   72.0190  226.9001 H   0  0  0  0  0  0  0  0  0  0  0  0
  142.4654   69.9526  225.3321 H   0  0  0  0  0  0  0  0  0  0  0  0
  142.1634   69.9890  227.0645 H   0  0  0  0  0  0  0  0  0  0  0  0
  140.8918   68.2982  225.3899 H   0  0  0  0  0  0  0  0  0  0  0  0
  139.3767   67.9246  226.4659 H   0  0  0  0  0  0  0  0  0  0  0  0
  139.9090   70.6547  228.1964 H   0  0  0  0  0  0  0  0  0  0  0  0
  138.6763   69.9138  228.7785 H   0  0  0  0  0  0  0  0  0  0  0  0
  141.6708   68.7592  228.4785 H   0  0  0  0  0  0  0  0  0  0  0  0
  140.7395   67.6806  229.1131 H   0  0  0  0  0  0  0  0  0  0  0  0
  133.9063   69.9725  225.9297 H   0  0  0  0  0  0  0  0  0  0  0  0
  132.3140   71.4109  227.2146 H   0  0  0  0  0  0  0  0  0  0  0  0
  131.6095   73.6047  227.8009 H   0  0  0  0  0  0  0  0  0  0  0  0
  133.6795   77.0291  226.2000 H   0  0  0  0  0  0  0  0  0  0  0  0
  135.2529   75.5477  224.9335 H   0  0  0  0  0  0  0  0  0  0  0  0
  1  2  2  0
  2  3  1  0
  3  4  1  0
  4  5  1  0
  5  6  2  0
  5  7  1  0
  7  8  1  0
  8  9  1  0
  9 10  1  0
 10 11  1  0
 11 12  1  0
 12 13  1  0
 13 14  1  0
  2 15  1  0
 15 16  2  0
 16 17  1  0
 17 18  2  0
 18 19  1  0
 19 20  2  0
 20 21  1  0
 20 22  1  0
 22 23  2  0
 23 24  1  0
 24 25  2  0
 11  7  1  0
 14 12  1  0
 25 15  1  0
 24 18  1  0
  3 26  1  0
  4 27  1  0
  4 28  1  0
  8 29  1  0
  8 30  1  0
  9 31  1  0
  9 32  1  0
 10 33  1  0
 10 34  1  0
 11 35  1  6
 12 36  1  0
 13 37  1  0
 13 38  1  0
 14 39  1  0
 14 40  1  0
 16 41  1  0
 17 42  1  0
 19 43  1  0
 22 44  1  0
 23 45  1  0
M  END
>  <smiles>  (85) 
O=C(NCC(=O)N1CCCC1C1CC1)c1ccc2cc(Cl)ccc2n1

>  <score_type>  (85) 
oracle

>  <origin>  (85) 
autodockgpu

>  <m_score__min__energy>  (85) 
-7.8499999999999996

>  <m_primary>  (85) 
energy

>  <rmsd>  (85) 
7.770177375197399

>  <m_score__min__rmsd>  (85) 
7.770177375197399

>  <meeko>  (85) 
{"free_energy": -7.32, "intermolecular_energy": -8.81, "internal_energy": -1.37, "cluster_size": 11, "cluster_id": 3, "rank_in_cluster": 11}

>  <energy>  (85) 
-7.53

>  <cluster_rmsd>  (85) 
0.1

>  <cluster>  (85) 
3

$$$$

     RDKit          3D

 45 48  0  0  0  0  0  0  0  0999 V2000
  140.4250   71.0470  221.5830 O   0  0  0  0  0  0  0  0  0  0  0  0
  139.7770   71.9980  222.0770 C   0  0  0  0  0  0  0  0  0  0  0  0
  138.5960   71.7860  222.8720 N   0  0  0  0  0  0  0  0  0  0  0  0
  138.2130   70.3880  223.0580 C   0  0  0  0  0  0  0  0  0  0  0  0
  138.2530   70.0490  224.4870 C   0  0  0  0  0  0  0  0  0  0  0  0
  137.2430   69.6240  225.1380 O   0  0  0  0  0  0  0  0  0  0  0  0
  139.4550   70.1840  225.2250 N   0  0  0  0  0  0  0  0  0  0  0  0
  140.0440   71.4890  225.5620 C   0  0  0  0  0  0  0  0  0  0  0  0
  141.4700   71.2530  225.9240 C   0  0  0  0  0  0  0  0  0  0  0  0
  141.7060   69.7610  225.8210 C   0  0  0  0  0  0  0  0  0  0  0  0
  140.3290   69.1750  225.7830 C   0  0  1  0  0  0  0  0  0  0  0  0
  139.8330   68.5950  227.0550 C   0  0  0  0  0  0  0  0  0  0  0  0
  139.6010   69.5410  228.2290 C   0  0  0  0  0  0  0  0  0  0  0  0
  140.6410   68.4570  228.2870 C   0  0  0  0  0  0  0  0  0  0  0  0
  140.1950   73.3940  221.8680 C   0  0  0  0  0  0  0  0  0  0  0  0
  141.3500   73.6340  221.1510 C   0  0  0  0  0  0  0  0  0  0  0  0
  141.8260   74.9120  220.9010 C   0  0  0  0  0  0  0  0  0  0  0  0
  141.0580   75.9480  221.4220 C   0  0  0  0  0  0  0  0  0  0  0  0
  141.5090   77.2400  221.1880 C   0  0  0  0  0  0  0  0  0  0  0  0
  140.7510   78.2720  221.7030 C   0  0  0  0  0  0  0  0  0  0  0  0
  141.3270   79.9040  221.4030 Cl  0  0  0  0  0  0  0  0  0  0  0  0
  139.5930   78.0320  222.4210 C   0  0  0  0  0  0  0  0  0  0  0  0
  139.1430   76.7380  222.6540 C   0  0  0  0  0  0  0  0  0  0  0  0
  139.9050   75.7120  222.1370 C   0  0  0  0  0  0  0  0  0  0  0  0
  139.4910   74.4340  222.3490 N   0  0  0  0  0  0  0  0  0  0  0  0
  138.0610   72.5800  223.2800 H   0  0  0  0  0  0  0  0  0  0  0  0
  137.1937   70.2341  222.6742 H   0  0  0  0  0  0  0  0  0  0  0  0
  138.9155   69.7422  222.5108 H   0  0  0  0  0  0  0  0  0  0  0  0
  139.9826   72.1643  224.6959 H   0  0  0  0  0  0  0  0  0  0  0  0
  139.5027   71.9556  226.3982 H   0  0  0  0  0  0  0  0  0  0  0  0
  142.1313   71.7900  225.2280 H   0  0  0  0  0  0  0  0  0  0  0  0
  141.6852   71.6176  226.9393 H   0  0  0  0  0  0  0  0  0  0  0  0
  142.2601   69.5158  224.9029 H   0  0  0  0  0  0  0  0  0  0  0  0
  142.3081   69.3704  226.6546 H   0  0  0  0  0  0  0  0  0  0  0  0
  140.3529   68.2794  225.1449 H   0  0  0  0  0  0  0  0  0  0  0  0
  139.2559   67.8678  226.4650 H   0  0  0  0  0  0  0  0  0  0  0  0
  139.9037   70.5962  228.1586 H   0  0  0  0  0  0  0  0  0  0  0  0
  138.7371   69.8359  228.8428 H   0  0  0  0  0  0  0  0  0  0  0  0
  141.7082   68.7232  228.2724 H   0  0  0  0  0  0  0  0  0  0  0  0
  140.8508   67.6291  228.9802 H   0  0  0  0  0  0  0  0  0  0  0  0
  141.9165   72.7752  220.7617 H   0  0  0  0  0  0  0  0  0  0  0  0
  142.7481   75.0942  220.3296 H   0  0  0  0  0  0  0  0  0  0  0  0
  142.4296   77.4326  220.6175 H   0  0  0  0  0  0  0  0  0  0  0  0
  139.0171   78.8822  222.8152 H   0  0  0  0  0  0  0  0  0  0  0  0
  138.2228   76.5417  223.2238 H   0  0  0  0  0  0  0  0  0  0  0  0
  1  2  2  0
  2  3  1  0
  3  4  1  0
  4  5  1  0
  5  6  2  0
  5  7  1  0
  7  8  1  0
  8  9  1  0
  9 10  1  0
 10 11  1  0
 11 12  1  0
 12 13  1  0
 13 14  1  0
  2 15  1  0
 15 16  2  0
 16 17  1  0
 17 18  2  0
 18 19  1  0
 19 20  2  0
 20 21  1  0
 20 22  1  0
 22 23  2  0
 23 24  1  0
 24 25  2  0
 11  7  1  0
 14 12  1  0
 25 15  1  0
 24 18  1  0
  3 26  1  0
  4 27  1  0
  4 28  1  0
  8 29  1  0
  8 30  1  0
  9 31  1  0
  9 32  1  0
 10 33  1  0
 10 34  1  0
 11 35  1  6
 12 36  1  0
 13 37  1  0
 13 38  1  0
 14 39  1  0
 14 40  1  0
 16 41  1  0
 17 42  1  0
 19 43  1  0
 22 44  1  0
 23 45  1  0
M  END
>  <smiles>  (86) 
O=C(NCC(=O)N1CCCC1C1CC1)c1ccc2cc(Cl)ccc2n1

>  <score_type>  (86) 
oracle

>  <origin>  (86) 
autodockgpu

>  <m_score__min__energy>  (86) 
-7.8499999999999996

>  <m_primary>  (86) 
energy

>  <rmsd>  (86) 
7.832429200229331

>  <m_score__min__rmsd>  (86) 
7.832429200229331

>  <meeko>  (86) 
{"free_energy": -7.41, "intermolecular_energy": -8.9, "internal_energy": -1.55, "cluster_size": 18, "cluster_id": 2, "rank_in_cluster": 14}

>  <energy>  (86) 
-7.52

>  <cluster_rmsd>  (86) 
0.07

>  <cluster>  (86) 
3

$$$$

     RDKit          3D

 45 48  0  0  0  0  0  0  0  0999 V2000
  140.8700   72.5070  220.8690 O   0  0  0  0  0  0  0  0  0  0  0  0
  140.2600   72.8150  221.9180 C   0  0  0  0  0  0  0  0  0  0  0  0
  139.5710   74.0700  222.0600 N   0  0  0  0  0  0  0  0  0  0  0  0
  139.6370   74.9520  220.8970 C   0  0  0  0  0  0  0  0  0  0  0  0
  140.5080   76.0980  221.1920 C   0  0  0  0  0  0  0  0  0  0  0  0
  141.7350   76.1540  220.8550 O   0  0  0  0  0  0  0  0  0  0  0  0
  140.0030   77.2250  221.8870 N   0  0  0  0  0  0  0  0  0  0  0  0
  138.7670   77.1860  222.6840 C   0  0  0  0  0  0  0  0  0  0  0  0
  138.3210   78.5940  222.8820 C   0  0  0  0  0  0  0  0  0  0  0  0
  139.3460   79.4760  222.2020 C   0  0  0  0  0  0  0  0  0  0  0  0
  140.5190   78.5740  221.9840 C   0  0  1  0  0  0  0  0  0  0  0  0
  141.6380   78.7150  222.9470 C   0  0  0  0  0  0  0  0  0  0  0  0
  141.6730   79.9620  223.8250 C   0  0  0  0  0  0  0  0  0  0  0  0
  142.7470   79.6850  222.8110 C   0  0  0  0  0  0  0  0  0  0  0  0
  140.2170   71.8990  223.0690 C   0  0  0  0  0  0  0  0  0  0  0  0
  139.6620   70.6470  222.8940 C   0  0  0  0  0  0  0  0  0  0  0  0
  139.5750   69.7130  223.9150 C   0  0  0  0  0  0  0  0  0  0  0  0
  140.0870   70.1220  225.1420 C   0  0  0  0  0  0  0  0  0  0  0  0
  140.0150   69.2090  226.1850 C   0  0  0  0  0  0  0  0  0  0  0  0
  140.5210   69.6090  227.4050 C   0  0  0  0  0  0  0  0  0  0  0  0
  140.4260   68.4500  228.7220 Cl  0  0  0  0  0  0  0  0  0  0  0  0
  141.0770   70.8640  227.5830 C   0  0  0  0  0  0  0  0  0  0  0  0
  141.1490   71.7760  226.5370 C   0  0  0  0  0  0  0  0  0  0  0  0
  140.6410   71.3700  225.3210 C   0  0  0  0  0  0  0  0  0  0  0  0
  140.6970   72.2420  224.2780 N   0  0  0  0  0  0  0  0  0  0  0  0
  139.0660   74.3210  222.9350 H   0  0  0  0  0  0  0  0  0  0  0  0
  140.0428   74.3958  220.0391 H   0  0  0  0  0  0  0  0  0  0  0  0
  138.6265   75.3151  220.6579 H   0  0  0  0  0  0  0  0  0  0  0  0
  137.9921   76.6177  222.1488 H   0  0  0  0  0  0  0  0  0  0  0  0
  138.9439   76.6944  223.6520 H   0  0  0  0  0  0  0  0  0  0  0  0
  137.3304   78.7450  222.4281 H   0  0  0  0  0  0  0  0  0  0  0  0
  138.2393   78.8358  223.9520 H   0  0  0  0  0  0  0  0  0  0  0  0
  138.9610   79.8539  221.2434 H   0  0  0  0  0  0  0  0  0  0  0  0
  139.6019   80.3630  222.8001 H   0  0  0  0  0  0  0  0  0  0  0  0
  141.0149   78.8742  221.0491 H   0  0  0  0  0  0  0  0  0  0  0  0
  141.6238   77.6230  223.0783 H   0  0  0  0  0  0  0  0  0  0  0  0
  140.9520   80.7762  223.6601 H   0  0  0  0  0  0  0  0  0  0  0  0
  141.6450   80.1639  224.9059 H   0  0  0  0  0  0  0  0  0  0  0  0
  142.8188   80.3088  221.9078 H   0  0  0  0  0  0  0  0  0  0  0  0
  143.8436   79.6099  222.8537 H   0  0  0  0  0  0  0  0  0  0  0  0
  139.2718   70.3788  221.9011 H   0  0  0  0  0  0  0  0  0  0  0  0
  139.1318   68.7175  223.7651 H   0  0  0  0  0  0  0  0  0  0  0  0
  139.5742   68.2109  226.0453 H   0  0  0  0  0  0  0  0  0  0  0  0
  141.4694   71.1449  228.5715 H   0  0  0  0  0  0  0  0  0  0  0  0
  141.5903   72.7744  226.6726 H   0  0  0  0  0  0  0  0  0  0  0  0
  1  2  2  0
  2  3  1  0
  3  4  1  0
  4  5  1  0
  5  6  2  0
  5  7  1  0
  7  8  1  0
  8  9  1  0
  9 10  1  0
 10 11  1  0
 11 12  1  0
 12 13  1  0
 13 14  1  0
  2 15  1  0
 15 16  2  0
 16 17  1  0
 17 18  2  0
 18 19  1  0
 19 20  2  0
 20 21  1  0
 20 22  1  0
 22 23  2  0
 23 24  1  0
 24 25  2  0
 11  7  1  0
 14 12  1  0
 25 15  1  0
 24 18  1  0
  3 26  1  0
  4 27  1  0
  4 28  1  0
  8 29  1  0
  8 30  1  0
  9 31  1  0
  9 32  1  0
 10 33  1  0
 10 34  1  0
 11 35  1  6
 12 36  1  0
 13 37  1  0
 13 38  1  0
 14 39  1  0
 14 40  1  0
 16 41  1  0
 17 42  1  0
 19 43  1  0
 22 44  1  0
 23 45  1  0
M  END
>  <smiles>  (87) 
O=C(NCC(=O)N1CCCC1C1CC1)c1ccc2cc(Cl)ccc2n1

>  <score_type>  (87) 
oracle

>  <origin>  (87) 
autodockgpu

>  <m_score__min__energy>  (87) 
-7.8499999999999996

>  <m_primary>  (87) 
energy

>  <rmsd>  (87) 
2.965829468959388

>  <m_score__min__rmsd>  (87) 
2.965829468959388

>  <meeko>  (87) 
{"free_energy": -7.85, "intermolecular_energy": -9.34, "internal_energy": -1.07, "cluster_size": 13, "cluster_id": 1, "rank_in_cluster": 1}

>  <energy>  (87) 
-7.5

>  <cluster_rmsd>  (87) 
0.09

>  <cluster>  (87) 
3

$$$$

     RDKit          3D

 45 48  0  0  0  0  0  0  0  0999 V2000
  140.5000   71.1930  221.4810 O   0  0  0  0  0  0  0  0  0  0  0  0
  139.8640   72.1120  222.0450 C   0  0  0  0  0  0  0  0  0  0  0  0
  138.7270   71.8480  222.8870 N   0  0  0  0  0  0  0  0  0  0  0  0
  138.3730   70.4370  223.0310 C   0  0  0  0  0  0  0  0  0  0  0  0
  138.3720   70.0700  224.4540 C   0  0  0  0  0  0  0  0  0  0  0  0
  137.3480   69.6200  225.0640 O   0  0  0  0  0  0  0  0  0  0  0  0
  139.5490   70.2050  225.2320 N   0  0  0  0  0  0  0  0  0  0  0  0
  140.0720   71.5080  225.6730 C   0  0  0  0  0  0  0  0  0  0  0  0
  141.4970   71.3080  226.0570 C   0  0  0  0  0  0  0  0  0  0  0  0
  141.8010   69.8380  225.8590 C   0  0  0  0  0  0  0  0  0  0  0  0
  140.4530   69.1980  225.7450 C   0  0  1  0  0  0  0  0  0  0  0  0
  139.9520   68.5110  226.9600 C   0  0  0  0  0  0  0  0  0  0  0  0
  139.7520   69.3450  228.2210 C   0  0  0  0  0  0  0  0  0  0  0  0
  140.7650   68.2360  228.1650 C   0  0  0  0  0  0  0  0  0  0  0  0
  140.2520   73.5220  221.8750 C   0  0  0  0  0  0  0  0  0  0  0  0
  141.4170   73.8060  221.1910 C   0  0  0  0  0  0  0  0  0  0  0  0
  141.8660   75.1000  220.9790 C   0  0  0  0  0  0  0  0  0  0  0  0
  141.0610   76.1060  221.5050 C   0  0  0  0  0  0  0  0  0  0  0  0
  141.4850   77.4130  221.3080 C   0  0  0  0  0  0  0  0  0  0  0  0
  140.6900   78.4140  221.8270 C   0  0  0  0  0  0  0  0  0  0  0  0
  141.2320   80.0670  221.5760 Cl  0  0  0  0  0  0  0  0  0  0  0  0
  139.5220   78.1310  222.5140 C   0  0  0  0  0  0  0  0  0  0  0  0
  139.1000   76.8220  222.7080 C   0  0  0  0  0  0  0  0  0  0  0  0
  139.8990   75.8260  222.1870 C   0  0  0  0  0  0  0  0  0  0  0  0
  139.5120   74.5330  222.3630 N   0  0  0  0  0  0  0  0  0  0  0  0
  138.2010   72.6160  223.3530 H   0  0  0  0  0  0  0  0  0  0  0  0
  137.3719   70.2661  222.6085 H   0  0  0  0  0  0  0  0  0  0  0  0
  139.1097   69.8198  222.4959 H   0  0  0  0  0  0  0  0  0  0  0  0
  140.0023   72.2383  224.8533 H   0  0  0  0  0  0  0  0  0  0  0  0
  139.4904   71.8926  226.5238 H   0  0  0  0  0  0  0  0  0  0  0  0
  142.1509   71.9194  225.4178 H   0  0  0  0  0  0  0  0  0  0  0  0
  141.6708   71.6100  227.1003 H   0  0  0  0  0  0  0  0  0  0  0  0
  142.3867   69.6806  224.9413 H   0  0  0  0  0  0  0  0  0  0  0  0
  142.4000   69.4167  226.6798 H   0  0  0  0  0  0  0  0  0  0  0  0
  140.5324   68.3494  225.0496 H   0  0  0  0  0  0  0  0  0  0  0  0
  139.3528   67.8579  226.3086 H   0  0  0  0  0  0  0  0  0  0  0  0
  140.0803   70.3945  228.2491 H   0  0  0  0  0  0  0  0  0  0  0  0
  138.9001   69.6002  228.8684 H   0  0  0  0  0  0  0  0  0  0  0  0
  141.8384   68.4767  228.1658 H   0  0  0  0  0  0  0  0  0  0  0  0
  140.9592   67.3405  228.7736 H   0  0  0  0  0  0  0  0  0  0  0  0
  142.0141   72.9701  220.7976 H   0  0  0  0  0  0  0  0  0  0  0  0
  142.7954   75.3171  220.4322 H   0  0  0  0  0  0  0  0  0  0  0  0
  142.4129   77.6403  220.7627 H   0  0  0  0  0  0  0  0  0  0  0  0
  138.9169   78.9581  222.9137 H   0  0  0  0  0  0  0  0  0  0  0  0
  138.1721   76.5906  223.2516 H   0  0  0  0  0  0  0  0  0  0  0  0
  1  2  2  0
  2  3  1  0
  3  4  1  0
  4  5  1  0
  5  6  2  0
  5  7  1  0
  7  8  1  0
  8  9  1  0
  9 10  1  0
 10 11  1  0
 11 12  1  0
 12 13  1  0
 13 14  1  0
  2 15  1  0
 15 16  2  0
 16 17  1  0
 17 18  2  0
 18 19  1  0
 19 20  2  0
 20 21  1  0
 20 22  1  0
 22 23  2  0
 23 24  1  0
 24 25  2  0
 11  7  1  0
 14 12  1  0
 25 15  1  0
 24 18  1  0
  3 26  1  0
  4 27  1  0
  4 28  1  0
  8 29  1  0
  8 30  1  0
  9 31  1  0
  9 32  1  0
 10 33  1  0
 10 34  1  0
 11 35  1  6
 12 36  1  0
 13 37  1  0
 13 38  1  0
 14 39  1  0
 14 40  1  0
 16 41  1  0
 17 42  1  0
 19 43  1  0
 22 44  1  0
 23 45  1  0
M  END
>  <smiles>  (88) 
O=C(NCC(=O)N1CCCC1C1CC1)c1ccc2cc(Cl)ccc2n1

>  <score_type>  (88) 
oracle

>  <origin>  (88) 
autodockgpu

>  <m_score__min__energy>  (88) 
-7.8499999999999996

>  <m_primary>  (88) 
energy

>  <rmsd>  (88) 
7.870133424003261

>  <m_score__min__rmsd>  (88) 
7.870133424003261

>  <meeko>  (88) 
{"free_energy": -7.43, "intermolecular_energy": -8.92, "internal_energy": -1.52, "cluster_size": 18, "cluster_id": 2, "rank_in_cluster": 13}

>  <energy>  (88) 
-7.38

>  <cluster_rmsd>  (88) 
0.5

>  <cluster>  (88) 
3

$$$$

     RDKit          3D

 45 48  0  0  0  0  0  0  0  0999 V2000
  135.0390   68.5040  224.8930 O   0  0  0  0  0  0  0  0  0  0  0  0
  135.4520   69.6820  224.8020 C   0  0  0  0  0  0  0  0  0  0  0  0
  136.6680   70.0140  224.1090 N   0  0  0  0  0  0  0  0  0  0  0  0
  137.3810   68.8800  223.5240 C   0  0  0  0  0  0  0  0  0  0  0  0
  138.6010   68.6080  224.2980 C   0  0  0  0  0  0  0  0  0  0  0  0
  138.9740   67.4380  224.6340 O   0  0  0  0  0  0  0  0  0  0  0  0
  139.4390   69.6720  224.7140 N   0  0  0  0  0  0  0  0  0  0  0  0
  139.4320   70.9950  224.0720 C   0  0  0  0  0  0  0  0  0  0  0  0
  140.6990   71.6800  224.4510 C   0  0  0  0  0  0  0  0  0  0  0  0
  141.4500   70.7360  225.3650 C   0  0  0  0  0  0  0  0  0  0  0  0
  140.4220   69.7290  225.7750 C   0  0  1  0  0  0  0  0  0  0  0  0
  139.8320   69.9120  227.1240 C   0  0  0  0  0  0  0  0  0  0  0  0
  140.6220   70.7220  228.1460 C   0  0  0  0  0  0  0  0  0  0  0  0
  140.3330   69.2620  228.3550 C   0  0  0  0  0  0  0  0  0  0  0  0
  134.7050   70.7980  225.4050 C   0  0  0  0  0  0  0  0  0  0  0  0
  133.7020   70.5080  226.3080 C   0  0  0  0  0  0  0  0  0  0  0  0
  132.9430   71.4870  226.9290 C   0  0  0  0  0  0  0  0  0  0  0  0
  133.2600   72.7970  226.5820 C   0  0  0  0  0  0  0  0  0  0  0  0
  132.5170   73.8020  227.1870 C   0  0  0  0  0  0  0  0  0  0  0  0
  132.8270   75.1020  226.8470 C   0  0  0  0  0  0  0  0  0  0  0  0
  131.8840   76.3690  227.6160 Cl  0  0  0  0  0  0  0  0  0  0  0  0
  133.8320   75.3960  225.9420 C   0  0  0  0  0  0  0  0  0  0  0  0
  134.5740   74.3880  225.3370 C   0  0  0  0  0  0  0  0  0  0  0  0
  134.2600   73.0910  225.6820 C   0  0  0  0  0  0  0  0  0  0  0  0
  134.9690   72.0830  225.1060 N   0  0  0  0  0  0  0  0  0  0  0  0
  137.0070   70.9950  224.0370 H   0  0  0  0  0  0  0  0  0  0  0  0
  136.7319   67.9921  223.5409 H   0  0  0  0  0  0  0  0  0  0  0  0
  137.6544   69.1185  222.4856 H   0  0  0  0  0  0  0  0  0  0  0  0
  139.3777   70.8824  222.9791 H   0  0  0  0  0  0  0  0  0  0  0  0
  138.5605   71.5811  224.3990 H   0  0  0  0  0  0  0  0  0  0  0  0
  141.2973   71.8936  223.5530 H   0  0  0  0  0  0  0  0  0  0  0  0
  140.4952   72.6371  224.9534 H   0  0  0  0  0  0  0  0  0  0  0  0
  142.2794   70.2512  224.8292 H   0  0  0  0  0  0  0  0  0  0  0  0
  141.9019   71.2518  226.2251 H   0  0  0  0  0  0  0  0  0  0  0  0
  140.9222   68.7574  225.9005 H   0  0  0  0  0  0  0  0  0  0  0  0
  138.8378   69.9369  226.6539 H   0  0  0  0  0  0  0  0  0  0  0  0
  141.6443   71.0572  227.9168 H   0  0  0  0  0  0  0  0  0  0  0  0
  140.4530   71.6469  228.7170 H   0  0  0  0  0  0  0  0  0  0  0  0
  141.1508   68.5291  228.2912 H   0  0  0  0  0  0  0  0  0  0  0  0
  139.8650   68.6785  229.1615 H   0  0  0  0  0  0  0  0  0  0  0  0
  133.4963   69.4537  226.5450 H   0  0  0  0  0  0  0  0  0  0  0  0
  132.1451   71.2455  227.6466 H   0  0  0  0  0  0  0  0  0  0  0  0
  131.7167   73.5714  227.9056 H   0  0  0  0  0  0  0  0  0  0  0  0
  134.0476   76.4465  225.6969 H   0  0  0  0  0  0  0  0  0  0  0  0
  135.3740   74.6148  224.6169 H   0  0  0  0  0  0  0  0  0  0  0  0
  1  2  2  0
  2  3  1  0
  3  4  1  0
  4  5  1  0
  5  6  2  0
  5  7  1  0
  7  8  1  0
  8  9  1  0
  9 10  1  0
 10 11  1  0
 11 12  1  0
 12 13  1  0
 13 14  1  0
  2 15  1  0
 15 16  2  0
 16 17  1  0
 17 18  2  0
 18 19  1  0
 19 20  2  0
 20 21  1  0
 20 22  1  0
 22 23  2  0
 23 24  1  0
 24 25  2  0
 11  7  1  0
 14 12  1  0
 25 15  1  0
 24 18  1  0
  3 26  1  0
  4 27  1  0
  4 28  1  0
  8 29  1  0
  8 30  1  0
  9 31  1  0
  9 32  1  0
 10 33  1  0
 10 34  1  0
 11 35  1  1
 12 36  1  0
 13 37  1  0
 13 38  1  0
 14 39  1  0
 14 40  1  0
 16 41  1  0
 17 42  1  0
 19 43  1  0
 22 44  1  0
 23 45  1  0
M  END
>  <smiles>  (89) 
O=C(NCC(=O)N1CCCC1C1CC1)c1ccc2cc(Cl)ccc2n1

>  <score_type>  (89) 
oracle

>  <origin>  (89) 
autodockgpu

>  <m_score__min__energy>  (89) 
-7.8499999999999996

>  <m_primary>  (89) 
energy

>  <rmsd>  (89) 
7.568370162054953

>  <m_score__min__rmsd>  (89) 
7.568370162054953

>  <meeko>  (89) 
{"free_energy": -7.53, "intermolecular_energy": -9.02, "internal_energy": -1.39, "cluster_size": 11, "cluster_id": 3, "rank_in_cluster": 4}

>  <energy>  (89) 
-7.36

>  <cluster_rmsd>  (89) 
1.51

>  <cluster>  (89) 
3

$$$$

     RDKit          3D

 45 48  0  0  0  0  0  0  0  0999 V2000
  141.4470   71.5110  221.2490 O   0  0  0  0  0  0  0  0  0  0  0  0
  140.8270   72.3870  221.8920 C   0  0  0  0  0  0  0  0  0  0  0  0
  139.9110   72.0520  222.9500 N   0  0  0  0  0  0  0  0  0  0  0  0
  139.7590   70.6220  223.2140 C   0  0  0  0  0  0  0  0  0  0  0  0
  138.9470   70.4240  224.4230 C   0  0  0  0  0  0  0  0  0  0  0  0
  137.7750   70.9000  224.5690 O   0  0  0  0  0  0  0  0  0  0  0  0
  139.4530   69.6710  225.5120 N   0  0  0  0  0  0  0  0  0  0  0  0
  139.7820   68.2410  225.4120 C   0  0  0  0  0  0  0  0  0  0  0  0
  139.8460   67.7010  226.7990 C   0  0  0  0  0  0  0  0  0  0  0  0
  139.5740   68.8610  227.7320 C   0  0  0  0  0  0  0  0  0  0  0  0
  139.7480   70.0720  226.8710 C   0  0  1  0  0  0  0  0  0  0  0  0
  141.0370   70.7930  227.0120 C   0  0  0  0  0  0  0  0  0  0  0  0
  141.2620   71.6120  228.2790 C   0  0  0  0  0  0  0  0  0  0  0  0
  141.1920   72.2620  226.9260 C   0  0  0  0  0  0  0  0  0  0  0  0
  141.0060   73.8180  221.5970 C   0  0  0  0  0  0  0  0  0  0  0  0
  141.9460   74.1830  220.6540 C   0  0  0  0  0  0  0  0  0  0  0  0
  142.1880   75.5020  220.3060 C   0  0  0  0  0  0  0  0  0  0  0  0
  141.4170   76.4480  220.9760 C   0  0  0  0  0  0  0  0  0  0  0  0
  141.6360   77.7780  220.6490 C   0  0  0  0  0  0  0  0  0  0  0  0
  140.8740   78.7200  221.3100 C   0  0  0  0  0  0  0  0  0  0  0  0
  141.1570   80.4030  220.8930 Cl  0  0  0  0  0  0  0  0  0  0  0  0
  139.9320   78.3560  222.2570 C   0  0  0  0  0  0  0  0  0  0  0  0
  139.7140   77.0230  222.5810 C   0  0  0  0  0  0  0  0  0  0  0  0
  140.4790   76.0870  221.9180 C   0  0  0  0  0  0  0  0  0  0  0  0
  140.2880   74.7730  222.2140 N   0  0  0  0  0  0  0  0  0  0  0  0
  139.3970   72.7840  223.4820 H   0  0  0  0  0  0  0  0  0  0  0  0
  139.2620   70.1430  222.3575 H   0  0  0  0  0  0  0  0  0  0  0  0
  140.7515   70.1723  223.3646 H   0  0  0  0  0  0  0  0  0  0  0  0
  139.0038   67.7152  224.8393 H   0  0  0  0  0  0  0  0  0  0  0  0
  140.7423   68.0984  224.8948 H   0  0  0  0  0  0  0  0  0  0  0  0
  139.0855   66.9182  226.9362 H   0  0  0  0  0  0  0  0  0  0  0  0
  140.8292   67.2521  227.0031 H   0  0  0  0  0  0  0  0  0  0  0  0
  138.5501   68.8094  228.1306 H   0  0  0  0  0  0  0  0  0  0  0  0
  140.2424   68.8652  228.6056 H   0  0  0  0  0  0  0  0  0  0  0  0
  139.0434   70.8432  227.2157 H   0  0  0  0  0  0  0  0  0  0  0  0
  141.5254   69.9662  226.4754 H   0  0  0  0  0  0  0  0  0  0  0  0
  140.4449   71.7491  229.0026 H   0  0  0  0  0  0  0  0  0  0  0  0
  141.9853   71.5963  229.1076 H   0  0  0  0  0  0  0  0  0  0  0  0
  140.3258   72.8879  226.6654 H   0  0  0  0  0  0  0  0  0  0  0  0
  141.8549   72.9333  226.3604 H   0  0  0  0  0  0  0  0  0  0  0  0
  142.5279   73.3925  220.1576 H   0  0  0  0  0  0  0  0  0  0  0  0
  142.9380   75.7826  219.5519 H   0  0  0  0  0  0  0  0  0  0  0  0
  142.3836   78.0690  219.8964 H   0  0  0  0  0  0  0  0  0  0  0  0
  139.3451   79.1371  222.7624 H   0  0  0  0  0  0  0  0  0  0  0  0
  138.9659   76.7279  223.3315 H   0  0  0  0  0  0  0  0  0  0  0  0
  1  2  2  0
  2  3  1  0
  3  4  1  0
  4  5  1  0
  5  6  2  0
  5  7  1  0
  7  8  1  0
  8  9  1  0
  9 10  1  0
 10 11  1  0
 11 12  1  0
 12 13  1  0
 13 14  1  0
  2 15  1  0
 15 16  2  0
 16 17  1  0
 17 18  2  0
 18 19  1  0
 19 20  2  0
 20 21  1  0
 20 22  1  0
 22 23  2  0
 23 24  1  0
 24 25  2  0
 11  7  1  0
 14 12  1  0
 25 15  1  0
 24 18  1  0
  3 26  1  0
  4 27  1  0
  4 28  1  0
  8 29  1  0
  8 30  1  0
  9 31  1  0
  9 32  1  0
 10 33  1  0
 10 34  1  0
 11 35  1  1
 12 36  1  0
 13 37  1  0
 13 38  1  0
 14 39  1  0
 14 40  1  0
 16 41  1  0
 17 42  1  0
 19 43  1  0
 22 44  1  0
 23 45  1  0
M  END
>  <smiles>  (90) 
O=C(NCC(=O)N1CCCC1C1CC1)c1ccc2cc(Cl)ccc2n1

>  <score_type>  (90) 
oracle

>  <origin>  (90) 
autodockgpu

>  <m_score__min__energy>  (90) 
-7.8499999999999996

>  <m_primary>  (90) 
energy

>  <rmsd>  (90) 
8.688374446686515

>  <m_score__min__rmsd>  (90) 
8.688374446686515

>  <meeko>  (90) 
{"free_energy": -7.83, "intermolecular_energy": -9.32, "internal_energy": -1.45, "cluster_size": 18, "cluster_id": 2, "rank_in_cluster": 1}

>  <energy>  (90) 
-7.35

>  <cluster_rmsd>  (90) 
1.36

>  <cluster>  (90) 
3

$$$$

     RDKit          3D

 45 48  0  0  0  0  0  0  0  0999 V2000
  140.2140   73.7310  220.2870 O   0  0  0  0  0  0  0  0  0  0  0  0
  139.8730   73.8240  221.4870 C   0  0  0  0  0  0  0  0  0  0  0  0
  139.5500   75.0880  222.0940 N   0  0  0  0  0  0  0  0  0  0  0  0
  139.6490   76.2470  221.2100 C   0  0  0  0  0  0  0  0  0  0  0  0
  139.5010   77.4820  221.9920 C   0  0  0  0  0  0  0  0  0  0  0  0
  138.7900   77.5660  223.0460 O   0  0  0  0  0  0  0  0  0  0  0  0
  140.1650   78.6690  221.5940 N   0  0  0  0  0  0  0  0  0  0  0  0
  139.4520   79.9110  221.2570 C   0  0  0  0  0  0  0  0  0  0  0  0
  140.3920   80.7670  220.4790 C   0  0  0  0  0  0  0  0  0  0  0  0
  141.6990   80.0090  220.3890 C   0  0  0  0  0  0  0  0  0  0  0  0
  141.5770   78.9430  221.4320 C   0  0  1  0  0  0  0  0  0  0  0  0
  142.2840   79.1970  222.7100 C   0  0  0  0  0  0  0  0  0  0  0  0
  141.4420   79.3830  223.9680 C   0  0  0  0  0  0  0  0  0  0  0  0
  142.2940   80.4940  223.4220 C   0  0  0  0  0  0  0  0  0  0  0  0
  139.7840   72.6320  222.3470 C   0  0  0  0  0  0  0  0  0  0  0  0
  139.1140   71.5240  221.8690 C   0  0  0  0  0  0  0  0  0  0  0  0
  138.9770   70.3550  222.6010 C   0  0  0  0  0  0  0  0  0  0  0  0
  139.5620   70.3690  223.8640 C   0  0  0  0  0  0  0  0  0  0  0  0
  139.4420   69.2130  224.6220 C   0  0  0  0  0  0  0  0  0  0  0  0
  140.0200   69.2210  225.8740 C   0  0  0  0  0  0  0  0  0  0  0  0
  139.8640   67.7550  226.8300 Cl  0  0  0  0  0  0  0  0  0  0  0  0
  140.6920   70.3320  226.3560 C   0  0  0  0  0  0  0  0  0  0  0  0
  140.8120   71.4880  225.5940 C   0  0  0  0  0  0  0  0  0  0  0  0
  140.2310   71.4730  224.3440 C   0  0  0  0  0  0  0  0  0  0  0  0
  140.3310   72.5910  223.5750 N   0  0  0  0  0  0  0  0  0  0  0  0
  139.2680   75.1590  223.0940 H   0  0  0  0  0  0  0  0  0  0  0  0
  140.6303   76.2447  220.7129 H   0  0  0  0  0  0  0  0  0  0  0  0
  138.8512   76.1972  220.4543 H   0  0  0  0  0  0  0  0  0  0  0  0
  138.5630   79.6817  220.6511 H   0  0  0  0  0  0  0  0  0  0  0  0
  139.1199   80.4282  222.1693 H   0  0  0  0  0  0  0  0  0  0  0  0
  139.9909   80.9516  219.4715 H   0  0  0  0  0  0  0  0  0  0  0  0
  140.5337   81.7428  220.9666 H   0  0  0  0  0  0  0  0  0  0  0  0
  141.8248   79.5653  219.3904 H   0  0  0  0  0  0  0  0  0  0  0  0
  142.5738   80.6566  220.5484 H   0  0  0  0  0  0  0  0  0  0  0  0
  142.1129   78.0507  221.0761 H   0  0  0  0  0  0  0  0  0  0  0  0
  143.0942   78.5414  222.3582 H   0  0  0  0  0  0  0  0  0  0  0  0
  140.3457   79.4396  223.8977 H   0  0  0  0  0  0  0  0  0  0  0  0
  141.3475   78.8666  224.9347 H   0  0  0  0  0  0  0  0  0  0  0  0
  141.8170   81.3724  222.9628 H   0  0  0  0  0  0  0  0  0  0  0  0
  143.0836   81.1347  223.8416 H   0  0  0  0  0  0  0  0  0  0  0  0
  138.6696   71.5707  220.8638 H   0  0  0  0  0  0  0  0  0  0  0  0
  138.4426   69.4764  222.2106 H   0  0  0  0  0  0  0  0  0  0  0  0
  138.9093   68.3292  224.2410 H   0  0  0  0  0  0  0  0  0  0  0  0
  141.1390   70.2988  227.3605 H   0  0  0  0  0  0  0  0  0  0  0  0
  141.3454   72.3732  225.9706 H   0  0  0  0  0  0  0  0  0  0  0  0
  1  2  2  0
  2  3  1  0
  3  4  1  0
  4  5  1  0
  5  6  2  0
  5  7  1  0
  7  8  1  0
  8  9  1  0
  9 10  1  0
 10 11  1  0
 11 12  1  0
 12 13  1  0
 13 14  1  0
  2 15  1  0
 15 16  2  0
 16 17  1  0
 17 18  2  0
 18 19  1  0
 19 20  2  0
 20 21  1  0
 20 22  1  0
 22 23  2  0
 23 24  1  0
 24 25  2  0
 11  7  1  0
 14 12  1  0
 25 15  1  0
 24 18  1  0
  3 26  1  0
  4 27  1  0
  4 28  1  0
  8 29  1  0
  8 30  1  0
  9 31  1  0
  9 32  1  0
 10 33  1  0
 10 34  1  0
 11 35  1  6
 12 36  1  0
 13 37  1  0
 13 38  1  0
 14 39  1  0
 14 40  1  0
 16 41  1  0
 17 42  1  0
 19 43  1  0
 22 44  1  0
 23 45  1  0
M  END
>  <smiles>  (91) 
O=C(NCC(=O)N1CCCC1C1CC1)c1ccc2cc(Cl)ccc2n1

>  <score_type>  (91) 
oracle

>  <origin>  (91) 
autodockgpu

>  <m_score__min__energy>  (91) 
-7.8499999999999996

>  <m_primary>  (91) 
energy

>  <rmsd>  (91) 
3.3197467175522983

>  <m_score__min__rmsd>  (91) 
3.3197467175522983

>  <meeko>  (91) 
{"free_energy": -7.12, "intermolecular_energy": -8.61, "internal_energy": -1.36, "cluster_size": 13, "cluster_id": 1, "rank_in_cluster": 11}

>  <energy>  (91) 
-7.35

>  <cluster_rmsd>  (91) 
1.36

>  <cluster>  (91) 
3

$$$$

     RDKit          3D

 45 48  0  0  0  0  0  0  0  0999 V2000
  135.4630   69.5450  224.5850 O   0  0  0  0  0  0  0  0  0  0  0  0
  135.7710   70.7530  224.6980 C   0  0  0  0  0  0  0  0  0  0  0  0
  137.0360   71.2640  224.2400 N   0  0  0  0  0  0  0  0  0  0  0  0
  137.9270   70.2750  223.6380 C   0  0  0  0  0  0  0  0  0  0  0  0
  139.2720   70.4020  224.2170 C   0  0  0  0  0  0  0  0  0  0  0  0
  140.1790   71.1530  223.7310 O   0  0  0  0  0  0  0  0  0  0  0  0
  139.6270   69.6700  225.3780 N   0  0  0  0  0  0  0  0  0  0  0  0
  139.9100   68.2270  225.3580 C   0  0  0  0  0  0  0  0  0  0  0  0
  139.8020   67.7340  226.7600 C   0  0  0  0  0  0  0  0  0  0  0  0
  139.4750   68.9340  227.6210 C   0  0  0  0  0  0  0  0  0  0  0  0
  139.7880   70.1080  226.7480 C   0  0  1  0  0  0  0  0  0  0  0  0
  141.0800   70.7880  227.0070 C   0  0  0  0  0  0  0  0  0  0  0  0
  141.1810   71.6840  228.2370 C   0  0  0  0  0  0  0  0  0  0  0  0
  141.3120   72.2410  226.8470 C   0  0  0  0  0  0  0  0  0  0  0  0
  134.8460   71.7200  225.3100 C   0  0  0  0  0  0  0  0  0  0  0  0
  133.7120   71.2410  225.9360 C   0  0  0  0  0  0  0  0  0  0  0  0
  132.7810   72.0710  226.5420 C   0  0  0  0  0  0  0  0  0  0  0  0
  133.0630   73.4320  226.4780 C   0  0  0  0  0  0  0  0  0  0  0  0
  132.1500   74.2890  227.0750 C   0  0  0  0  0  0  0  0  0  0  0  0
  132.4240   75.6400  227.0150 C   0  0  0  0  0  0  0  0  0  0  0  0
  131.2640   76.7190  227.7730 Cl  0  0  0  0  0  0  0  0  0  0  0  0
  133.5600   76.1210  226.3880 C   0  0  0  0  0  0  0  0  0  0  0  0
  134.4740   75.2620  225.7910 C   0  0  0  0  0  0  0  0  0  0  0  0
  134.1930   73.9130  225.8540 C   0  0  0  0  0  0  0  0  0  0  0  0
  135.0690   73.0460  225.2780 N   0  0  0  0  0  0  0  0  0  0  0  0
  137.2870   72.2700  224.3370 H   0  0  0  0  0  0  0  0  0  0  0  0
  137.5382   69.2650  223.8347 H   0  0  0  0  0  0  0  0  0  0  0  0
  137.9802   70.4457  222.5526 H   0  0  0  0  0  0  0  0  0  0  0  0
  139.1791   67.7090  224.7196 H   0  0  0  0  0  0  0  0  0  0  0  0
  140.9144   68.0330  224.9536 H   0  0  0  0  0  0  0  0  0  0  0  0
  139.0017   66.9833  226.8369 H   0  0  0  0  0  0  0  0  0  0  0  0
  140.7394   67.2588  227.0847 H   0  0  0  0  0  0  0  0  0  0  0  0
  138.4125   68.9319  227.9059 H   0  0  0  0  0  0  0  0  0  0  0  0
  140.0442   68.9451  228.5622 H   0  0  0  0  0  0  0  0  0  0  0  0
  139.0808   70.9151  226.9899 H   0  0  0  0  0  0  0  0  0  0  0  0
  141.5936   69.9082  226.5921 H   0  0  0  0  0  0  0  0  0  0  0  0
  140.2864   71.9015  228.8390 H   0  0  0  0  0  0  0  0  0  0  0  0
  141.7927   71.6988  229.1511 H   0  0  0  0  0  0  0  0  0  0  0  0
  140.5152   72.8791  226.4373 H   0  0  0  0  0  0  0  0  0  0  0  0
  142.0709   72.8461  226.3294 H   0  0  0  0  0  0  0  0  0  0  0  0
  133.5400   70.1547  225.9547 H   0  0  0  0  0  0  0  0  0  0  0  0
  131.8811   71.6801  227.0393 H   0  0  0  0  0  0  0  0  0  0  0  0
  131.2470   73.9081  227.5744 H   0  0  0  0  0  0  0  0  0  0  0  0
  133.7429   77.2054  226.3618 H   0  0  0  0  0  0  0  0  0  0  0  0
  135.3786   75.6395  225.2919 H   0  0  0  0  0  0  0  0  0  0  0  0
  1  2  2  0
  2  3  1  0
  3  4  1  0
  4  5  1  0
  5  6  2  0
  5  7  1  0
  7  8  1  0
  8  9  1  0
  9 10  1  0
 10 11  1  0
 11 12  1  0
 12 13  1  0
 13 14  1  0
  2 15  1  0
 15 16  2  0
 16 17  1  0
 17 18  2  0
 18 19  1  0
 19 20  2  0
 20 21  1  0
 20 22  1  0
 22 23  2  0
 23 24  1  0
 24 25  2  0
 11  7  1  0
 14 12  1  0
 25 15  1  0
 24 18  1  0
  3 26  1  0
  4 27  1  0
  4 28  1  0
  8 29  1  0
  8 30  1  0
  9 31  1  0
  9 32  1  0
 10 33  1  0
 10 34  1  0
 11 35  1  1
 12 36  1  0
 13 37  1  0
 13 38  1  0
 14 39  1  0
 14 40  1  0
 16 41  1  0
 17 42  1  0
 19 43  1  0
 22 44  1  0
 23 45  1  0
M  END
>  <smiles>  (92) 
O=C(NCC(=O)N1CCCC1C1CC1)c1ccc2cc(Cl)ccc2n1

>  <score_type>  (92) 
oracle

>  <origin>  (92) 
autodockgpu

>  <m_score__min__energy>  (92) 
-7.8499999999999996

>  <m_primary>  (92) 
energy

>  <rmsd>  (92) 
8.461942399645709

>  <m_score__min__rmsd>  (92) 
8.461942399645709

>  <meeko>  (92) 
{"free_energy": -7.35, "intermolecular_energy": -8.85, "internal_energy": -1.43, "cluster_size": 11, "cluster_id": 3, "rank_in_cluster": 9}

>  <energy>  (92) 
-7.32

>  <cluster_rmsd>  (92) 
0.94

>  <cluster>  (92) 
3

$$$$

     RDKit          3D

 45 48  0  0  0  0  0  0  0  0999 V2000
  140.2510   70.8850  221.5330 O   0  0  0  0  0  0  0  0  0  0  0  0
  139.6720   71.8370  222.1040 C   0  0  0  0  0  0  0  0  0  0  0  0
  138.5600   71.6320  222.9930 N   0  0  0  0  0  0  0  0  0  0  0  0
  138.1590   70.2380  223.1790 C   0  0  0  0  0  0  0  0  0  0  0  0
  138.2760   69.8740  224.5980 C   0  0  0  0  0  0  0  0  0  0  0  0
  137.3370   69.3300  225.2640 O   0  0  0  0  0  0  0  0  0  0  0  0
  139.4790   70.1210  225.3060 N   0  0  0  0  0  0  0  0  0  0  0  0
  139.9380   71.4730  225.6580 C   0  0  0  0  0  0  0  0  0  0  0  0
  141.3900   71.3810  225.9760 C   0  0  0  0  0  0  0  0  0  0  0  0
  141.7770   69.9250  225.8330 C   0  0  0  0  0  0  0  0  0  0  0  0
  140.4690   69.1980  225.8190 C   0  0  1  0  0  0  0  0  0  0  0  0
  140.0730   68.5440  227.0890 C   0  0  0  0  0  0  0  0  0  0  0  0
  139.8530   69.4310  228.3110 C   0  0  0  0  0  0  0  0  0  0  0  0
  140.9510   68.4050  228.2720 C   0  0  0  0  0  0  0  0  0  0  0  0
  140.1050   73.2280  221.8920 C   0  0  0  0  0  0  0  0  0  0  0  0
  141.2640   73.4550  221.1770 C   0  0  0  0  0  0  0  0  0  0  0  0
  141.7540   74.7270  220.9240 C   0  0  0  0  0  0  0  0  0  0  0  0
  140.9950   75.7730  221.4420 C   0  0  0  0  0  0  0  0  0  0  0  0
  141.4600   77.0590  221.2050 C   0  0  0  0  0  0  0  0  0  0  0  0
  140.7120   78.1000  221.7160 C   0  0  0  0  0  0  0  0  0  0  0  0
  141.3050   79.7260  221.4130 Cl  0  0  0  0  0  0  0  0  0  0  0  0
  139.5500   77.8740  222.4330 C   0  0  0  0  0  0  0  0  0  0  0  0
  139.0860   76.5860  222.6680 C   0  0  0  0  0  0  0  0  0  0  0  0
  139.8390   75.5500  222.1550 C   0  0  0  0  0  0  0  0  0  0  0  0
  139.4110   74.2770  222.3700 N   0  0  0  0  0  0  0  0  0  0  0  0
  138.0810   72.4270  223.4650 H   0  0  0  0  0  0  0  0  0  0  0  0
  137.1159   70.1111  222.8538 H   0  0  0  0  0  0  0  0  0  0  0  0
  138.8142   69.5876  222.5809 H   0  0  0  0  0  0  0  0  0  0  0  0
  139.7812   72.1560  224.8101 H   0  0  0  0  0  0  0  0  0  0  0  0
  139.3754   71.8625  226.5193 H   0  0  0  0  0  0  0  0  0  0  0  0
  141.9711   71.9980  225.2749 H   0  0  0  0  0  0  0  0  0  0  0  0
  141.5954   71.7462  226.9931 H   0  0  0  0  0  0  0  0  0  0  0  0
  142.3266   69.7576  224.8950 H   0  0  0  0  0  0  0  0  0  0  0  0
  142.4405   69.5837  226.6413 H   0  0  0  0  0  0  0  0  0  0  0  0
  140.5680   68.3215  225.1617 H   0  0  0  0  0  0  0  0  0  0  0  0
  139.5056   67.8084  226.5000 H   0  0  0  0  0  0  0  0  0  0  0  0
  140.0947   70.5033  228.2682 H   0  0  0  0  0  0  0  0  0  0  0  0
  139.0082   69.6541  228.9793 H   0  0  0  0  0  0  0  0  0  0  0  0
  142.0002   68.7304  228.2142 H   0  0  0  0  0  0  0  0  0  0  0  0
  141.2410   67.5644  228.9196 H   0  0  0  0  0  0  0  0  0  0  0  0
  141.8227   72.5894  220.7915 H   0  0  0  0  0  0  0  0  0  0  0  0
  142.6787   74.8980  220.3533 H   0  0  0  0  0  0  0  0  0  0  0  0
  142.3834   77.2403  220.6354 H   0  0  0  0  0  0  0  0  0  0  0  0
  138.9827   78.7313  222.8245 H   0  0  0  0  0  0  0  0  0  0  0  0
  138.1623   76.4009  223.2360 H   0  0  0  0  0  0  0  0  0  0  0  0
  1  2  2  0
  2  3  1  0
  3  4  1  0
  4  5  1  0
  5  6  2  0
  5  7  1  0
  7  8  1  0
  8  9  1  0
  9 10  1  0
 10 11  1  0
 11 12  1  0
 12 13  1  0
 13 14  1  0
  2 15  1  0
 15 16  2  0
 16 17  1  0
 17 18  2  0
 18 19  1  0
 19 20  2  0
 20 21  1  0
 20 22  1  0
 22 23  2  0
 23 24  1  0
 24 25  2  0
 11  7  1  0
 14 12  1  0
 25 15  1  0
 24 18  1  0
  3 26  1  0
  4 27  1  0
  4 28  1  0
  8 29  1  0
  8 30  1  0
  9 31  1  0
  9 32  1  0
 10 33  1  0
 10 34  1  0
 11 35  1  6
 12 36  1  0
 13 37  1  0
 13 38  1  0
 14 39  1  0
 14 40  1  0
 16 41  1  0
 17 42  1  0
 19 43  1  0
 22 44  1  0
 23 45  1  0
M  END
>  <smiles>  (93) 
O=C(NCC(=O)N1CCCC1C1CC1)c1ccc2cc(Cl)ccc2n1

>  <score_type>  (93) 
oracle

>  <origin>  (93) 
autodockgpu

>  <m_score__min__energy>  (93) 
-7.8499999999999996

>  <m_primary>  (93) 
energy

>  <rmsd>  (93) 
7.7788692640240145

>  <m_score__min__rmsd>  (93) 
7.7788692640240145

>  <meeko>  (93) 
{"free_energy": -7.35, "intermolecular_energy": -8.84, "internal_energy": -1.55, "cluster_size": 18, "cluster_id": 2, "rank_in_cluster": 16}

>  <energy>  (93) 
-7.32

>  <cluster_rmsd>  (93) 
0.0

>  <cluster>  (93) 
4

$$$$

     RDKit          3D

 45 48  0  0  0  0  0  0  0  0999 V2000
  141.4430   71.5030  221.3040 O   0  0  0  0  0  0  0  0  0  0  0  0
  140.7650   72.3870  221.8750 C   0  0  0  0  0  0  0  0  0  0  0  0
  139.7520   72.0660  222.8450 N   0  0  0  0  0  0  0  0  0  0  0  0
  139.5750   70.6400  223.1120 C   0  0  0  0  0  0  0  0  0  0  0  0
  138.8320   70.4590  224.3670 C   0  0  0  0  0  0  0  0  0  0  0  0
  137.6950   70.9850  224.5940 O   0  0  0  0  0  0  0  0  0  0  0  0
  139.3700   69.6650  225.4110 N   0  0  0  0  0  0  0  0  0  0  0  0
  139.7340   68.2510  225.2360 C   0  0  0  0  0  0  0  0  0  0  0  0
  139.8290   67.6450  226.5940 C   0  0  0  0  0  0  0  0  0  0  0  0
  139.5390   68.7500  227.5860 C   0  0  0  0  0  0  0  0  0  0  0  0
  139.6720   70.0060  226.7850 C   0  0  1  0  0  0  0  0  0  0  0  0
  140.9440   70.7520  226.9480 C   0  0  0  0  0  0  0  0  0  0  0  0
  141.1130   71.6130  228.1950 C   0  0  0  0  0  0  0  0  0  0  0  0
  141.0790   72.2200  226.8210 C   0  0  0  0  0  0  0  0  0  0  0  0
  140.9730   73.8140  221.5790 C   0  0  0  0  0  0  0  0  0  0  0  0
  141.9010   74.1590  220.6170 C   0  0  0  0  0  0  0  0  0  0  0  0
  142.1680   75.4730  220.2680 C   0  0  0  0  0  0  0  0  0  0  0  0
  141.4340   76.4350  220.9550 C   0  0  0  0  0  0  0  0  0  0  0  0
  141.6780   77.7610  220.6270 C   0  0  0  0  0  0  0  0  0  0  0  0
  140.9530   78.7190  221.3060 C   0  0  0  0  0  0  0  0  0  0  0  0
  141.2670   80.3960  220.8870 Cl  0  0  0  0  0  0  0  0  0  0  0  0
  140.0220   78.3750  222.2710 C   0  0  0  0  0  0  0  0  0  0  0  0
  139.7780   77.0470  222.5970 C   0  0  0  0  0  0  0  0  0  0  0  0
  140.5070   76.0950  221.9150 C   0  0  0  0  0  0  0  0  0  0  0  0
  140.2910   74.7850  222.2130 N   0  0  0  0  0  0  0  0  0  0  0  0
  139.1900   72.8050  223.3160 H   0  0  0  0  0  0  0  0  0  0  0  0
  139.0136   70.1802  222.2853 H   0  0  0  0  0  0  0  0  0  0  0  0
  140.5613   70.1610  223.2005 H   0  0  0  0  0  0  0  0  0  0  0  0
  138.9624   67.7341  224.6466 H   0  0  0  0  0  0  0  0  0  0  0  0
  140.6910   68.1591  224.7014 H   0  0  0  0  0  0  0  0  0  0  0  0
  139.0906   66.8367  226.7007 H   0  0  0  0  0  0  0  0  0  0  0  0
  140.8258   67.2124  226.7647 H   0  0  0  0  0  0  0  0  0  0  0  0
  138.5215   68.6523  227.9924 H   0  0  0  0  0  0  0  0  0  0  0  0
  140.2177   68.7282  228.4514 H   0  0  0  0  0  0  0  0  0  0  0  0
  138.9530   70.7414  227.1752 H   0  0  0  0  0  0  0  0  0  0  0  0
  141.4632   69.9169  226.4550 H   0  0  0  0  0  0  0  0  0  0  0  0
  140.2698   71.7587  228.8862 H   0  0  0  0  0  0  0  0  0  0  0  0
  141.8079   71.6348  229.0474 H   0  0  0  0  0  0  0  0  0  0  0  0
  140.2125   72.8231  226.5120 H   0  0  0  0  0  0  0  0  0  0  0  0
  141.7502   72.8845  226.2571 H   0  0  0  0  0  0  0  0  0  0  0  0
  142.4522   73.3562  220.1055 H   0  0  0  0  0  0  0  0  0  0  0  0
  142.9098   75.7377  219.5001 H   0  0  0  0  0  0  0  0  0  0  0  0
  142.4166   78.0364  219.8597 H   0  0  0  0  0  0  0  0  0  0  0  0
  139.4646   79.1688  222.7898 H   0  0  0  0  0  0  0  0  0  0  0  0
  139.0389   76.7678  223.3623 H   0  0  0  0  0  0  0  0  0  0  0  0
  1  2  2  0
  2  3  1  0
  3  4  1  0
  4  5  1  0
  5  6  2  0
  5  7  1  0
  7  8  1  0
  8  9  1  0
  9 10  1  0
 10 11  1  0
 11 12  1  0
 12 13  1  0
 13 14  1  0
  2 15  1  0
 15 16  2  0
 16 17  1  0
 17 18  2  0
 18 19  1  0
 19 20  2  0
 20 21  1  0
 20 22  1  0
 22 23  2  0
 23 24  1  0
 24 25  2  0
 11  7  1  0
 14 12  1  0
 25 15  1  0
 24 18  1  0
  3 26  1  0
  4 27  1  0
  4 28  1  0
  8 29  1  0
  8 30  1  0
  9 31  1  0
  9 32  1  0
 10 33  1  0
 10 34  1  0
 11 35  1  1
 12 36  1  0
 13 37  1  0
 13 38  1  0
 14 39  1  0
 14 40  1  0
 16 41  1  0
 17 42  1  0
 19 43  1  0
 22 44  1  0
 23 45  1  0
M  END
>  <smiles>  (94) 
O=C(NCC(=O)N1CCCC1C1CC1)c1ccc2cc(Cl)ccc2n1

>  <score_type>  (94) 
oracle

>  <origin>  (94) 
autodockgpu

>  <m_score__min__energy>  (94) 
-7.8499999999999996

>  <m_primary>  (94) 
energy

>  <rmsd>  (94) 
8.650346002588563

>  <m_score__min__rmsd>  (94) 
8.650346002588563

>  <meeko>  (94) 
{"free_energy": -7.77, "intermolecular_energy": -9.26, "internal_energy": -1.49, "cluster_size": 18, "cluster_id": 2, "rank_in_cluster": 5}

>  <energy>  (94) 
-7.3

>  <cluster_rmsd>  (94) 
1.68

>  <cluster>  (94) 
4

$$$$

     RDKit          3D

 45 48  0  0  0  0  0  0  0  0999 V2000
  134.7050   68.5360  225.1350 O   0  0  0  0  0  0  0  0  0  0  0  0
  135.1540   69.7040  225.1180 C   0  0  0  0  0  0  0  0  0  0  0  0
  136.4270   70.0240  224.5280 N   0  0  0  0  0  0  0  0  0  0  0  0
  137.1500   68.8920  223.9530 C   0  0  0  0  0  0  0  0  0  0  0  0
  138.4270   68.7100  224.6580 C   0  0  0  0  0  0  0  0  0  0  0  0
  138.8350   67.5860  225.0940 O   0  0  0  0  0  0  0  0  0  0  0  0
  139.2840   69.8150  224.8870 N   0  0  0  0  0  0  0  0  0  0  0  0
  139.1700   71.0830  224.1510 C   0  0  0  0  0  0  0  0  0  0  0  0
  140.4580   71.8130  224.3210 C   0  0  0  0  0  0  0  0  0  0  0  0
  141.3330   70.9540  225.2060 C   0  0  0  0  0  0  0  0  0  0  0  0
  140.3860   69.9680  225.8140 C   0  0  1  0  0  0  0  0  0  0  0  0
  139.9570   70.2480  227.2060 C   0  0  0  0  0  0  0  0  0  0  0  0
  140.9130   69.8770  228.3360 C   0  0  0  0  0  0  0  0  0  0  0  0
  139.5720   69.2130  228.1910 C   0  0  0  0  0  0  0  0  0  0  0  0
  134.3950   70.8190  225.7080 C   0  0  0  0  0  0  0  0  0  0  0  0
  133.3420   70.5260  226.5510 C   0  0  0  0  0  0  0  0  0  0  0  0
  132.5690   71.5050  227.1550 C   0  0  0  0  0  0  0  0  0  0  0  0
  132.9240   72.8170  226.8540 C   0  0  0  0  0  0  0  0  0  0  0  0
  132.1670   73.8200  227.4440 C   0  0  0  0  0  0  0  0  0  0  0  0
  132.5150   75.1220  227.1500 C   0  0  0  0  0  0  0  0  0  0  0  0
  131.5540   76.3880  227.8990 Cl  0  0  0  0  0  0  0  0  0  0  0  0
  133.5700   75.4180  226.3040 C   0  0  0  0  0  0  0  0  0  0  0  0
  134.3260   74.4120  225.7160 C   0  0  0  0  0  0  0  0  0  0  0  0
  133.9740   73.1130  226.0140 C   0  0  0  0  0  0  0  0  0  0  0  0
  134.6950   72.1050  225.4520 N   0  0  0  0  0  0  0  0  0  0  0  0
  136.7960   70.9980  224.5170 H   0  0  0  0  0  0  0  0  0  0  0  0
  136.5428   67.9804  224.0551 H   0  0  0  0  0  0  0  0  0  0  0  0
  137.3462   69.0879  222.8885 H   0  0  0  0  0  0  0  0  0  0  0  0
  138.9884   70.8839  223.0845 H   0  0  0  0  0  0  0  0  0  0  0  0
  138.3304   71.6812  224.5347 H   0  0  0  0  0  0  0  0  0  0  0  0
  140.9398   71.9637  223.3437 H   0  0  0  0  0  0  0  0  0  0  0  0
  140.2941   72.8038  224.7699 H   0  0  0  0  0  0  0  0  0  0  0  0
  142.1030   70.4399  224.6120 H   0  0  0  0  0  0  0  0  0  0  0  0
  141.8719   71.5422  225.9633 H   0  0  0  0  0  0  0  0  0  0  0  0
  140.9208   69.0168  225.9525 H   0  0  0  0  0  0  0  0  0  0  0  0
  139.4377   71.1442  226.8355 H   0  0  0  0  0  0  0  0  0  0  0  0
  141.8349   69.3169  228.1205 H   0  0  0  0  0  0  0  0  0  0  0  0
  141.4382   70.4233  229.1333 H   0  0  0  0  0  0  0  0  0  0  0  0
  139.5156   68.1590  227.8813 H   0  0  0  0  0  0  0  0  0  0  0  0
  138.7091   69.0696  228.8579 H   0  0  0  0  0  0  0  0  0  0  0  0
  133.1063   69.4705  226.7520 H   0  0  0  0  0  0  0  0  0  0  0  0
  131.7322   71.2619  227.8263 H   0  0  0  0  0  0  0  0  0  0  0  0
  131.3276   73.5870  228.1156 H   0  0  0  0  0  0  0  0  0  0  0  0
  133.8142   76.4697  226.0935 H   0  0  0  0  0  0  0  0  0  0  0  0
  135.1662   74.6412  225.0440 H   0  0  0  0  0  0  0  0  0  0  0  0
  1  2  2  0
  2  3  1  0
  3  4  1  0
  4  5  1  0
  5  6  2  0
  5  7  1  0
  7  8  1  0
  8  9  1  0
  9 10  1  0
 10 11  1  0
 11 12  1  0
 12 13  1  0
 13 14  1  0
  2 15  1  0
 15 16  2  0
 16 17  1  0
 17 18  2  0
 18 19  1  0
 19 20  2  0
 20 21  1  0
 20 22  1  0
 22 23  2  0
 23 24  1  0
 24 25  2  0
 11  7  1  0
 14 12  1  0
 25 15  1  0
 24 18  1  0
  3 26  1  0
  4 27  1  0
  4 28  1  0
  8 29  1  0
  8 30  1  0
  9 31  1  0
  9 32  1  0
 10 33  1  0
 10 34  1  0
 11 35  1  1
 12 36  1  0
 13 37  1  0
 13 38  1  0
 14 39  1  0
 14 40  1  0
 16 41  1  0
 17 42  1  0
 19 43  1  0
 22 44  1  0
 23 45  1  0
M  END
>  <smiles>  (95) 
O=C(NCC(=O)N1CCCC1C1CC1)c1ccc2cc(Cl)ccc2n1

>  <score_type>  (95) 
oracle

>  <origin>  (95) 
autodockgpu

>  <m_score__min__energy>  (95) 
-7.8499999999999996

>  <m_primary>  (95) 
energy

>  <rmsd>  (95) 
7.6732771719653785

>  <m_score__min__rmsd>  (95) 
7.6732771719653785

>  <meeko>  (95) 
{"free_energy": -7.38, "intermolecular_energy": -8.88, "internal_energy": -1.39, "cluster_size": 11, "cluster_id": 3, "rank_in_cluster": 7}

>  <energy>  (95) 
-7.22

>  <cluster_rmsd>  (95) 
1.46

>  <cluster>  (95) 
4

$$$$

     RDKit          3D

 45 48  0  0  0  0  0  0  0  0999 V2000
  139.4400   71.9150  220.8350 O   0  0  0  0  0  0  0  0  0  0  0  0
  139.5450   72.3720  221.9950 C   0  0  0  0  0  0  0  0  0  0  0  0
  139.4950   73.7850  222.2670 N   0  0  0  0  0  0  0  0  0  0  0  0
  139.3140   74.6390  221.0950 C   0  0  0  0  0  0  0  0  0  0  0  0
  140.1620   75.8340  221.2160 C   0  0  0  0  0  0  0  0  0  0  0  0
  141.3460   75.9060  220.7550 O   0  0  0  0  0  0  0  0  0  0  0  0
  139.6790   76.9920  221.8740 N   0  0  0  0  0  0  0  0  0  0  0  0
  138.4180   77.0170  222.6300 C   0  0  0  0  0  0  0  0  0  0  0  0
  138.0220   78.4440  222.7890 C   0  0  0  0  0  0  0  0  0  0  0  0
  139.1030   79.2730  222.1290 C   0  0  0  0  0  0  0  0  0  0  0  0
  140.2460   78.3210  221.9660 C   0  0  1  0  0  0  0  0  0  0  0  0
  141.3370   78.4350  222.9630 C   0  0  0  0  0  0  0  0  0  0  0  0
  141.3940   79.6960  223.8190 C   0  0  0  0  0  0  0  0  0  0  0  0
  142.4890   79.3580  222.8470 C   0  0  0  0  0  0  0  0  0  0  0  0
  139.7250   71.4790  223.1520 C   0  0  0  0  0  0  0  0  0  0  0  0
  139.3540   70.1560  223.0260 C   0  0  0  0  0  0  0  0  0  0  0  0
  139.4850   69.2380  224.0550 C   0  0  0  0  0  0  0  0  0  0  0  0
  140.0200   69.7390  225.2380 C   0  0  0  0  0  0  0  0  0  0  0  0
  140.1640   68.8430  226.2890 C   0  0  0  0  0  0  0  0  0  0  0  0
  140.6940   69.3350  227.4640 C   0  0  0  0  0  0  0  0  0  0  0  0
  140.8730   68.1970  228.7900 Cl  0  0  0  0  0  0  0  0  0  0  0  0
  141.0660   70.6620  227.5920 C   0  0  0  0  0  0  0  0  0  0  0  0
  140.9220   71.5560  226.5390 C   0  0  0  0  0  0  0  0  0  0  0  0
  140.3920   71.0590  225.3680 C   0  0  0  0  0  0  0  0  0  0  0  0
  140.2370   71.9110  224.3180 N   0  0  0  0  0  0  0  0  0  0  0  0
  139.5830   74.1600  223.2340 H   0  0  0  0  0  0  0  0  0  0  0  0
  139.5952   74.0814  220.1895 H   0  0  0  0  0  0  0  0  0  0  0  0
  138.2599   74.9460  221.0277 H   0  0  0  0  0  0  0  0  0  0  0  0
  137.6387   76.4697  222.0795 H   0  0  0  0  0  0  0  0  0  0  0  0
  138.5443   76.5374  223.6118 H   0  0  0  0  0  0  0  0  0  0  0  0
  137.0537   78.6252  222.2996 H   0  0  0  0  0  0  0  0  0  0  0  0
  137.9148   78.7082  223.8514 H   0  0  0  0  0  0  0  0  0  0  0  0
  138.7651   79.6482  221.1517 H   0  0  0  0  0  0  0  0  0  0  0  0
  139.3741   80.1603  222.7200 H   0  0  0  0  0  0  0  0  0  0  0  0
  140.7848   78.5841  221.0438 H   0  0  0  0  0  0  0  0  0  0  0  0
  141.2741   77.3471  223.1133 H   0  0  0  0  0  0  0  0  0  0  0  0
  140.7122   80.5349  223.6156 H   0  0  0  0  0  0  0  0  0  0  0  0
  141.3388   79.9192  224.8947 H   0  0  0  0  0  0  0  0  0  0  0  0
  142.6155   79.9612  221.9359 H   0  0  0  0  0  0  0  0  0  0  0  0
  143.5797   79.2405  222.9278 H   0  0  0  0  0  0  0  0  0  0  0  0
  138.9362   69.8156  222.0671 H   0  0  0  0  0  0  0  0  0  0  0  0
  139.1866   68.1850  223.9446 H   0  0  0  0  0  0  0  0  0  0  0  0
  139.8687   67.7881  226.1892 H   0  0  0  0  0  0  0  0  0  0  0  0
  141.4838   71.0154  228.5462 H   0  0  0  0  0  0  0  0  0  0  0  0
  141.2171   72.6113  226.6352 H   0  0  0  0  0  0  0  0  0  0  0  0
  1  2  2  0
  2  3  1  0
  3  4  1  0
  4  5  1  0
  5  6  2  0
  5  7  1  0
  7  8  1  0
  8  9  1  0
  9 10  1  0
 10 11  1  0
 11 12  1  0
 12 13  1  0
 13 14  1  0
  2 15  1  0
 15 16  2  0
 16 17  1  0
 17 18  2  0
 18 19  1  0
 19 20  2  0
 20 21  1  0
 20 22  1  0
 22 23  2  0
 23 24  1  0
 24 25  2  0
 11  7  1  0
 14 12  1  0
 25 15  1  0
 24 18  1  0
  3 26  1  0
  4 27  1  0
  4 28  1  0
  8 29  1  0
  8 30  1  0
  9 31  1  0
  9 32  1  0
 10 33  1  0
 10 34  1  0
 11 35  1  6
 12 36  1  0
 13 37  1  0
 13 38  1  0
 14 39  1  0
 14 40  1  0
 16 41  1  0
 17 42  1  0
 19 43  1  0
 22 44  1  0
 23 45  1  0
M  END
>  <smiles>  (96) 
O=C(NCC(=O)N1CCCC1C1CC1)c1ccc2cc(Cl)ccc2n1

>  <score_type>  (96) 
oracle

>  <origin>  (96) 
autodockgpu

>  <m_score__min__energy>  (96) 
-7.8499999999999996

>  <m_primary>  (96) 
energy

>  <rmsd>  (96) 
2.7890907058102616

>  <m_score__min__rmsd>  (96) 
2.7890907058102616

>  <meeko>  (96) 
{"free_energy": -7.63, "intermolecular_energy": -9.13, "internal_energy": -1.2, "cluster_size": 13, "cluster_id": 1, "rank_in_cluster": 4}

>  <energy>  (96) 
-7.21

>  <cluster_rmsd>  (96) 
1.5

>  <cluster>  (96) 
4

$$$$

     RDKit          3D

 45 48  0  0  0  0  0  0  0  0999 V2000
  141.5210   71.5980  221.2510 O   0  0  0  0  0  0  0  0  0  0  0  0
  140.8980   72.4680  221.8990 C   0  0  0  0  0  0  0  0  0  0  0  0
  139.9990   72.1250  222.9690 N   0  0  0  0  0  0  0  0  0  0  0  0
  139.8690   70.6950  223.2390 C   0  0  0  0  0  0  0  0  0  0  0  0
  139.0360   70.4900  224.4330 C   0  0  0  0  0  0  0  0  0  0  0  0
  137.8690   70.9800  224.5690 O   0  0  0  0  0  0  0  0  0  0  0  0
  139.5150   69.7120  225.5170 N   0  0  0  0  0  0  0  0  0  0  0  0
  139.8620   68.2890  225.3890 C   0  0  0  0  0  0  0  0  0  0  0  0
  139.8880   67.7120  226.7630 C   0  0  0  0  0  0  0  0  0  0  0  0
  139.5740   68.8440  227.7170 C   0  0  0  0  0  0  0  0  0  0  0  0
  139.7620   70.0800  226.8950 C   0  0  1  0  0  0  0  0  0  0  0  0
  141.0380   70.8090  227.0960 C   0  0  0  0  0  0  0  0  0  0  0  0
  141.1400   71.7560  228.2880 C   0  0  0  0  0  0  0  0  0  0  0  0
  141.2210   72.2600  226.8740 C   0  0  0  0  0  0  0  0  0  0  0  0
  141.0560   73.9000  221.5970 C   0  0  0  0  0  0  0  0  0  0  0  0
  141.9660   74.2720  220.6280 C   0  0  0  0  0  0  0  0  0  0  0  0
  142.1860   75.5930  220.2720 C   0  0  0  0  0  0  0  0  0  0  0  0
  141.4240   76.5330  220.9600 C   0  0  0  0  0  0  0  0  0  0  0  0
  141.6220   77.8650  220.6260 C   0  0  0  0  0  0  0  0  0  0  0  0
  140.8690   78.8010  221.3050 C   0  0  0  0  0  0  0  0  0  0  0  0
  141.1240   80.4860  220.8780 Cl  0  0  0  0  0  0  0  0  0  0  0  0
  139.9560   78.4290  222.2780 C   0  0  0  0  0  0  0  0  0  0  0  0
  139.7590   77.0950  222.6100 C   0  0  0  0  0  0  0  0  0  0  0  0
  140.5150   76.1650  221.9270 C   0  0  0  0  0  0  0  0  0  0  0  0
  140.3450   74.8500  222.2310 N   0  0  0  0  0  0  0  0  0  0  0  0
  139.4820   72.8540  223.5050 H   0  0  0  0  0  0  0  0  0  0  0  0
  139.3988   70.2012  222.3759 H   0  0  0  0  0  0  0  0  0  0  0  0
  140.8664   70.2648  223.4124 H   0  0  0  0  0  0  0  0  0  0  0  0
  139.1078   67.7715  224.7779 H   0  0  0  0  0  0  0  0  0  0  0  0
  140.8395   68.1698  224.8988 H   0  0  0  0  0  0  0  0  0  0  0  0
  139.1321   66.9182  226.8550 H   0  0  0  0  0  0  0  0  0  0  0  0
  140.8690   67.2673  226.9865 H   0  0  0  0  0  0  0  0  0  0  0  0
  138.5385   68.7714  228.0811 H   0  0  0  0  0  0  0  0  0  0  0  0
  140.2147   68.8313  228.6111 H   0  0  0  0  0  0  0  0  0  0  0  0
  139.0389   70.8349  227.2374 H   0  0  0  0  0  0  0  0  0  0  0  0
  141.5688   69.9292  226.7032 H   0  0  0  0  0  0  0  0  0  0  0  0
  140.2535   71.9705  228.9029 H   0  0  0  0  0  0  0  0  0  0  0  0
  141.7721   71.8258  229.1855 H   0  0  0  0  0  0  0  0  0  0  0  0
  140.3954   72.8570  226.4593 H   0  0  0  0  0  0  0  0  0  0  0  0
  141.9486   72.8663  226.3145 H   0  0  0  0  0  0  0  0  0  0  0  0
  142.5412   73.4861  220.1165 H   0  0  0  0  0  0  0  0  0  0  0  0
  142.9135   75.8794  219.4982 H   0  0  0  0  0  0  0  0  0  0  0  0
  142.3472   78.1618  219.8540 H   0  0  0  0  0  0  0  0  0  0  0  0
  139.3756   79.2054  222.7979 H   0  0  0  0  0  0  0  0  0  0  0  0
  139.0345   76.7942  223.3811 H   0  0  0  0  0  0  0  0  0  0  0  0
  1  2  2  0
  2  3  1  0
  3  4  1  0
  4  5  1  0
  5  6  2  0
  5  7  1  0
  7  8  1  0
  8  9  1  0
  9 10  1  0
 10 11  1  0
 11 12  1  0
 12 13  1  0
 13 14  1  0
  2 15  1  0
 15 16  2  0
 16 17  1  0
 17 18  2  0
 18 19  1  0
 19 20  2  0
 20 21  1  0
 20 22  1  0
 22 23  2  0
 23 24  1  0
 24 25  2  0
 11  7  1  0
 14 12  1  0
 25 15  1  0
 24 18  1  0
  3 26  1  0
  4 27  1  0
  4 28  1  0
  8 29  1  0
  8 30  1  0
  9 31  1  0
  9 32  1  0
 10 33  1  0
 10 34  1  0
 11 35  1  1
 12 36  1  0
 13 37  1  0
 13 38  1  0
 14 39  1  0
 14 40  1  0
 16 41  1  0
 17 42  1  0
 19 43  1  0
 22 44  1  0
 23 45  1  0
M  END
>  <smiles>  (97) 
O=C(NCC(=O)N1CCCC1C1CC1)c1ccc2cc(Cl)ccc2n1

>  <score_type>  (97) 
oracle

>  <origin>  (97) 
autodockgpu

>  <m_score__min__energy>  (97) 
-7.8499999999999996

>  <m_primary>  (97) 
energy

>  <rmsd>  (97) 
8.708992657811022

>  <m_score__min__rmsd>  (97) 
8.708992657811022

>  <meeko>  (97) 
{"free_energy": -7.82, "intermolecular_energy": -9.31, "internal_energy": -1.47, "cluster_size": 18, "cluster_id": 2, "rank_in_cluster": 2}

>  <energy>  (97) 
-7.2

>  <cluster_rmsd>  (97) 
0.62

>  <cluster>  (97) 
4

$$$$

     RDKit          3D

 45 48  0  0  0  0  0  0  0  0999 V2000
  140.9200   72.6300  221.0040 O   0  0  0  0  0  0  0  0  0  0  0  0
  140.2700   72.8680  222.0470 C   0  0  0  0  0  0  0  0  0  0  0  0
  139.5310   74.0900  222.2230 N   0  0  0  0  0  0  0  0  0  0  0  0
  139.5970   75.0250  221.1010 C   0  0  0  0  0  0  0  0  0  0  0  0
  139.3410   76.3920  221.5790 C   0  0  0  0  0  0  0  0  0  0  0  0
  138.5300   76.6670  222.5210 O   0  0  0  0  0  0  0  0  0  0  0  0
  140.0100   77.4950  220.9920 N   0  0  0  0  0  0  0  0  0  0  0  0
  139.4580   78.2560  219.8610 C   0  0  0  0  0  0  0  0  0  0  0  0
  140.5830   79.0120  219.2430 C   0  0  0  0  0  0  0  0  0  0  0  0
  141.8180   78.7020  220.0590 C   0  0  0  0  0  0  0  0  0  0  0  0
  141.2830   78.1010  221.3200 C   0  0  1  0  0  0  0  0  0  0  0  0
  141.2280   78.9990  222.4990 C   0  0  0  0  0  0  0  0  0  0  0  0
  142.5180   79.6870  222.9330 C   0  0  0  0  0  0  0  0  0  0  0  0
  141.8240   78.6910  223.8180 C   0  0  0  0  0  0  0  0  0  0  0  0
  140.2280   71.9010  223.1550 C   0  0  0  0  0  0  0  0  0  0  0  0
  139.6770   70.6560  222.9220 C   0  0  0  0  0  0  0  0  0  0  0  0
  139.5910   69.6780  223.9000 C   0  0  0  0  0  0  0  0  0  0  0  0
  140.1010   70.0320  225.1460 C   0  0  0  0  0  0  0  0  0  0  0  0
  140.0300   69.0720  226.1460 C   0  0  0  0  0  0  0  0  0  0  0  0
  140.5340   69.4180  227.3830 C   0  0  0  0  0  0  0  0  0  0  0  0
  140.4410   68.2000  228.6460 Cl  0  0  0  0  0  0  0  0  0  0  0  0
  141.0870   70.6650  227.6190 C   0  0  0  0  0  0  0  0  0  0  0  0
  141.1570   71.6230  226.6150 C   0  0  0  0  0  0  0  0  0  0  0  0
  140.6520   71.2720  225.3820 C   0  0  0  0  0  0  0  0  0  0  0  0
  140.7060   72.1900  224.3790 N   0  0  0  0  0  0  0  0  0  0  0  0
  138.9920   74.2840  223.0920 H   0  0  0  0  0  0  0  0  0  0  0  0
  140.5968   74.9785  220.6446 H   0  0  0  0  0  0  0  0  0  0  0  0
  138.8369   74.7520  220.3542 H   0  0  0  0  0  0  0  0  0  0  0  0
  139.0172   77.5683  219.1242 H   0  0  0  0  0  0  0  0  0  0  0  0
  138.6691   78.9425  220.2022 H   0  0  0  0  0  0  0  0  0  0  0  0
  140.7274   78.6913  218.2007 H   0  0  0  0  0  0  0  0  0  0  0  0
  140.3757   80.0923  219.2356 H   0  0  0  0  0  0  0  0  0  0  0  0
  142.4657   77.9872  219.5303 H   0  0  0  0  0  0  0  0  0  0  0  0
  142.4346   79.5936  220.2456 H   0  0  0  0  0  0  0  0  0  0  0  0
  142.0004   77.3453  221.6725 H   0  0  0  0  0  0  0  0  0  0  0  0
  140.2099   79.2861  222.1973 H   0  0  0  0  0  0  0  0  0  0  0  0
  143.4726   79.4293  222.4510 H   0  0  0  0  0  0  0  0  0  0  0  0
  142.8577   80.7281  223.0362 H   0  0  0  0  0  0  0  0  0  0  0  0
  142.2807   77.7059  223.9939 H   0  0  0  0  0  0  0  0  0  0  0  0
  141.4522   78.7102  224.8531 H   0  0  0  0  0  0  0  0  0  0  0  0
  139.2899   70.4312  221.9172 H   0  0  0  0  0  0  0  0  0  0  0  0
  139.1498   68.6894  223.7050 H   0  0  0  0  0  0  0  0  0  0  0  0
  139.5918   68.0802  225.9607 H   0  0  0  0  0  0  0  0  0  0  0  0
  141.4781   70.9017  228.6195 H   0  0  0  0  0  0  0  0  0  0  0  0
  141.5952   72.6155  226.7961 H   0  0  0  0  0  0  0  0  0  0  0  0
  1  2  2  0
  2  3  1  0
  3  4  1  0
  4  5  1  0
  5  6  2  0
  5  7  1  0
  7  8  1  0
  8  9  1  0
  9 10  1  0
 10 11  1  0
 11 12  1  0
 12 13  1  0
 13 14  1  0
  2 15  1  0
 15 16  2  0
 16 17  1  0
 17 18  2  0
 18 19  1  0
 19 20  2  0
 20 21  1  0
 20 22  1  0
 22 23  2  0
 23 24  1  0
 24 25  2  0
 11  7  1  0
 14 12  1  0
 25 15  1  0
 24 18  1  0
  3 26  1  0
  4 27  1  0
  4 28  1  0
  8 29  1  0
  8 30  1  0
  9 31  1  0
  9 32  1  0
 10 33  1  0
 10 34  1  0
 11 35  1  1
 12 36  1  0
 13 37  1  0
 13 38  1  0
 14 39  1  0
 14 40  1  0
 16 41  1  0
 17 42  1  0
 19 43  1  0
 22 44  1  0
 23 45  1  0
M  END
>  <smiles>  (98) 
O=C(NCC(=O)N1CCCC1C1CC1)c1ccc2cc(Cl)ccc2n1

>  <score_type>  (98) 
oracle

>  <origin>  (98) 
autodockgpu

>  <m_score__min__energy>  (98) 
-7.8499999999999996

>  <m_primary>  (98) 
energy

>  <rmsd>  (98) 
2.1661906027295887

>  <m_score__min__rmsd>  (98) 
2.1661906027295887

>  <meeko>  (98) 
{"free_energy": -7.49, "intermolecular_energy": -8.98, "internal_energy": -1.27, "cluster_size": 13, "cluster_id": 1, "rank_in_cluster": 7}

>  <energy>  (98) 
-6.77

>  <cluster_rmsd>  (98) 
1.25

>  <cluster>  (98) 
4

$$$$

     RDKit          3D

 45 48  0  0  0  0  0  0  0  0999 V2000
  140.2890   72.4730  220.8740 O   0  0  0  0  0  0  0  0  0  0  0  0
  139.9960   72.8350  222.0350 C   0  0  0  0  0  0  0  0  0  0  0  0
  139.5970   74.1850  222.3360 N   0  0  0  0  0  0  0  0  0  0  0  0
  139.5600   75.0930  221.1920 C   0  0  0  0  0  0  0  0  0  0  0  0
  139.1560   76.4350  221.6370 C   0  0  0  0  0  0  0  0  0  0  0  0
  138.2460   76.6440  222.5030 O   0  0  0  0  0  0  0  0  0  0  0  0
  139.7830   77.5880  221.1030 N   0  0  0  0  0  0  0  0  0  0  0  0
  139.1710   78.4200  220.0550 C   0  0  0  0  0  0  0  0  0  0  0  0
  140.2580   79.2370  219.4450 C   0  0  0  0  0  0  0  0  0  0  0  0
  141.5330   78.8880  220.1820 C   0  0  0  0  0  0  0  0  0  0  0  0
  141.0620   78.1880  221.4180 C   0  0  1  0  0  0  0  0  0  0  0  0
  141.0490   78.9980  222.6610 C   0  0  0  0  0  0  0  0  0  0  0  0
  142.2870   79.8270  222.9860 C   0  0  0  0  0  0  0  0  0  0  0  0
  141.8470   78.6940  223.8700 C   0  0  0  0  0  0  0  0  0  0  0  0
  140.0450   71.8900  223.1630 C   0  0  0  0  0  0  0  0  0  0  0  0
  139.5810   70.6050  222.9650 C   0  0  0  0  0  0  0  0  0  0  0  0
  139.5860   69.6430  223.9620 C   0  0  0  0  0  0  0  0  0  0  0  0
  140.0920   70.0580  225.1900 C   0  0  0  0  0  0  0  0  0  0  0  0
  140.1100   69.1160  226.2100 C   0  0  0  0  0  0  0  0  0  0  0  0
  140.6110   69.5220  227.4300 C   0  0  0  0  0  0  0  0  0  0  0  0
  140.6300   68.3260  228.7170 Cl  0  0  0  0  0  0  0  0  0  0  0  0
  141.0750   70.8110  227.6300 C   0  0  0  0  0  0  0  0  0  0  0  0
  141.0570   71.7510  226.6070 C   0  0  0  0  0  0  0  0  0  0  0  0
  140.5550   71.3390  225.3910 C   0  0  0  0  0  0  0  0  0  0  0  0
  140.5240   72.2370  224.3700 N   0  0  0  0  0  0  0  0  0  0  0  0
  139.3540   74.4810  223.3040 H   0  0  0  0  0  0  0  0  0  0  0  0
  140.5588   75.1449  220.7340 H   0  0  0  0  0  0  0  0  0  0  0  0
  138.8342   74.7201  220.4544 H   0  0  0  0  0  0  0  0  0  0  0  0
  138.7067   77.7803  219.2900 H   0  0  0  0  0  0  0  0  0  0  0  0
  138.3893   79.0673  220.4792 H   0  0  0  0  0  0  0  0  0  0  0  0
  140.3597   78.9950  218.3768 H   0  0  0  0  0  0  0  0  0  0  0  0
  140.0369   80.3115  219.5256 H   0  0  0  0  0  0  0  0  0  0  0  0
  142.1656   78.2240  219.5746 H   0  0  0  0  0  0  0  0  0  0  0  0
  142.1460   79.7734  220.4066 H   0  0  0  0  0  0  0  0  0  0  0  0
  141.8032   77.4192  221.6820 H   0  0  0  0  0  0  0  0  0  0  0  0
  139.9721   79.1625  222.5088 H   0  0  0  0  0  0  0  0  0  0  0  0
  143.1950   79.7307  222.3726 H   0  0  0  0  0  0  0  0  0  0  0  0
  142.5025   80.8964  223.1270 H   0  0  0  0  0  0  0  0  0  0  0  0
  142.4439   77.7710  223.9122 H   0  0  0  0  0  0  0  0  0  0  0  0
  141.6148   78.5998  224.9411 H   0  0  0  0  0  0  0  0  0  0  0  0
  139.1906   70.3332  221.9732 H   0  0  0  0  0  0  0  0  0  0  0  0
  139.2153   68.6210  223.7943 H   0  0  0  0  0  0  0  0  0  0  0  0
  139.7413   68.0917  226.0525 H   0  0  0  0  0  0  0  0  0  0  0  0
  141.4655   71.0965  228.6180 H   0  0  0  0  0  0  0  0  0  0  0  0
  141.4260   72.7759  226.7602 H   0  0  0  0  0  0  0  0  0  0  0  0
  1  2  2  0
  2  3  1  0
  3  4  1  0
  4  5  1  0
  5  6  2  0
  5  7  1  0
  7  8  1  0
  8  9  1  0
  9 10  1  0
 10 11  1  0
 11 12  1  0
 12 13  1  0
 13 14  1  0
  2 15  1  0
 15 16  2  0
 16 17  1  0
 17 18  2  0
 18 19  1  0
 19 20  2  0
 20 21  1  0
 20 22  1  0
 22 23  2  0
 23 24  1  0
 24 25  2  0
 11  7  1  0
 14 12  1  0
 25 15  1  0
 24 18  1  0
  3 26  1  0
  4 27  1  0
  4 28  1  0
  8 29  1  0
  8 30  1  0
  9 31  1  0
  9 32  1  0
 10 33  1  0
 10 34  1  0
 11 35  1  1
 12 36  1  0
 13 37  1  0
 13 38  1  0
 14 39  1  0
 14 40  1  0
 16 41  1  0
 17 42  1  0
 19 43  1  0
 22 44  1  0
 23 45  1  0
M  END
>  <smiles>  (99) 
O=C(NCC(=O)N1CCCC1C1CC1)c1ccc2cc(Cl)ccc2n1

>  <score_type>  (99) 
oracle

>  <origin>  (99) 
autodockgpu

>  <m_score__min__energy>  (99) 
-7.8499999999999996

>  <m_primary>  (99) 
energy

>  <rmsd>  (99) 
2.2293413760430134

>  <m_score__min__rmsd>  (99) 
2.2293413760430134

>  <meeko>  (99) 
{"free_energy": -7.43, "intermolecular_energy": -8.92, "internal_energy": -1.28, "cluster_size": 13, "cluster_id": 1, "rank_in_cluster": 8}

>  <energy>  (99) 
-6.48

>  <cluster_rmsd>  (99) 
1.44

>  <cluster>  (99) 
4

$$$$

     RDKit          3D

 45 48  0  0  0  0  0  0  0  0999 V2000
  135.0290   68.5190  224.8250 O   0  0  0  0  0  0  0  0  0  0  0  0
  135.4620   69.6910  224.7600 C   0  0  0  0  0  0  0  0  0  0  0  0
  136.6930   70.0140  224.0890 N   0  0  0  0  0  0  0  0  0  0  0  0
  137.3940   68.8790  223.4920 C   0  0  0  0  0  0  0  0  0  0  0  0
  138.6280   68.6080  224.2440 C   0  0  0  0  0  0  0  0  0  0  0  0
  139.0250   67.4360  224.5440 O   0  0  0  0  0  0  0  0  0  0  0  0
  139.4530   69.6750  224.6800 N   0  0  0  0  0  0  0  0  0  0  0  0
  139.4440   71.0030  224.0480 C   0  0  0  0  0  0  0  0  0  0  0  0
  140.7010   71.6940  224.4490 C   0  0  0  0  0  0  0  0  0  0  0  0
  141.4470   70.7480  225.3640 C   0  0  0  0  0  0  0  0  0  0  0  0
  140.4220   69.7300  225.7530 C   0  0  1  0  0  0  0  0  0  0  0  0
  139.8140   69.8970  227.0960 C   0  0  0  0  0  0  0  0  0  0  0  0
  140.5280   70.8010  228.0960 C   0  0  0  0  0  0  0  0  0  0  0  0
  140.3670   69.3270  228.3450 C   0  0  0  0  0  0  0  0  0  0  0  0
  134.7270   70.8100  225.3730 C   0  0  0  0  0  0  0  0  0  0  0  0
  133.7280   70.5210  226.2820 C   0  0  0  0  0  0  0  0  0  0  0  0
  132.9800   71.5030  226.9130 C   0  0  0  0  0  0  0  0  0  0  0  0
  133.3020   72.8120  226.5690 C   0  0  0  0  0  0  0  0  0  0  0  0
  132.5710   73.8180  227.1840 C   0  0  0  0  0  0  0  0  0  0  0  0
  132.8860   75.1190  226.8480 C   0  0  0  0  0  0  0  0  0  0  0  0
  131.9560   76.3880  227.6300 Cl  0  0  0  0  0  0  0  0  0  0  0  0
  133.8870   75.4100  225.9370 C   0  0  0  0  0  0  0  0  0  0  0  0
  134.6180   74.4010  225.3230 C   0  0  0  0  0  0  0  0  0  0  0  0
  134.2980   73.1040  225.6640 C   0  0  0  0  0  0  0  0  0  0  0  0
  134.9970   72.0940  225.0780 N   0  0  0  0  0  0  0  0  0  0  0  0
  137.0500   70.9910  224.0390 H   0  0  0  0  0  0  0  0  0  0  0  0
  136.7450   67.9914  223.5221 H   0  0  0  0  0  0  0  0  0  0  0  0
  137.6478   69.1155  222.4482 H   0  0  0  0  0  0  0  0  0  0  0  0
  139.4047   70.8986  222.9537 H   0  0  0  0  0  0  0  0  0  0  0  0
  138.5638   71.5801  224.3678 H   0  0  0  0  0  0  0  0  0  0  0  0
  141.3090   71.9198  223.5606 H   0  0  0  0  0  0  0  0  0  0  0  0
  140.4838   72.6452  224.9570 H   0  0  0  0  0  0  0  0  0  0  0  0
  142.2865   70.2738  224.8345 H   0  0  0  0  0  0  0  0  0  0  0  0
  141.8841   71.2600  226.2340 H   0  0  0  0  0  0  0  0  0  0  0  0
  140.9281   68.7612  225.8768 H   0  0  0  0  0  0  0  0  0  0  0  0
  138.8226   69.8218  226.6253 H   0  0  0  0  0  0  0  0  0  0  0  0
  141.5177   71.2179  227.8578 H   0  0  0  0  0  0  0  0  0  0  0  0
  140.2774   71.7228  228.6414 H   0  0  0  0  0  0  0  0  0  0  0  0
  141.2458   68.6669  228.3015 H   0  0  0  0  0  0  0  0  0  0  0  0
  139.9497   68.7271  229.1672 H   0  0  0  0  0  0  0  0  0  0  0  0
  133.5169   69.4669  226.5152 H   0  0  0  0  0  0  0  0  0  0  0  0
  132.1863   71.2636  227.6360 H   0  0  0  0  0  0  0  0  0  0  0  0
  131.7751   73.5887  227.9078 H   0  0  0  0  0  0  0  0  0  0  0  0
  134.1076   76.4601  225.6948 H   0  0  0  0  0  0  0  0  0  0  0  0
  135.4147   74.6262  224.5988 H   0  0  0  0  0  0  0  0  0  0  0  0
  1  2  2  0
  2  3  1  0
  3  4  1  0
  4  5  1  0
  5  6  2  0
  5  7  1  0
  7  8  1  0
  8  9  1  0
  9 10  1  0
 10 11  1  0
 11 12  1  0
 12 13  1  0
 13 14  1  0
  2 15  1  0
 15 16  2  0
 16 17  1  0
 17 18  2  0
 18 19  1  0
 19 20  2  0
 20 21  1  0
 20 22  1  0
 22 23  2  0
 23 24  1  0
 24 25  2  0
 11  7  1  0
 14 12  1  0
 25 15  1  0
 24 18  1  0
  3 26  1  0
  4 27  1  0
  4 28  1  0
  8 29  1  0
  8 30  1  0
  9 31  1  0
  9 32  1  0
 10 33  1  0
 10 34  1  0
 11 35  1  1
 12 36  1  0
 13 37  1  0
 13 38  1  0
 14 39  1  0
 14 40  1  0
 16 41  1  0
 17 42  1  0
 19 43  1  0
 22 44  1  0
 23 45  1  0
M  END
>  <smiles>  (100) 
O=C(NCC(=O)N1CCCC1C1CC1)c1ccc2cc(Cl)ccc2n1

>  <score_type>  (100) 
oracle

>  <origin>  (100) 
autodockgpu

>  <m_score__min__energy>  (100) 
-7.8499999999999996

>  <m_primary>  (100) 
energy

>  <rmsd>  (100) 
7.545282445938119

>  <m_score__min__rmsd>  (100) 
7.545282445938119

>  <meeko>  (100) 
{"free_energy": -7.54, "intermolecular_energy": -9.03, "internal_energy": -1.39, "cluster_size": 11, "cluster_id": 3, "rank_in_cluster": 3}

>  <energy>  (100) 
-6.45

>  <cluster_rmsd>  (100) 
1.44

>  <cluster>  (100) 
4

$$$$
