
     RDKit          3D

 40 41  0  0  0  0  0  0  0  0999 V2000
  142.2090   80.8210  222.6860 C   0  0  0  0  0  0  0  0  0  0  0  0
  141.8510   79.3970  222.4820 C   0  0  0  0  0  0  0  0  0  0  0  0
  141.7940   78.6660  223.8400 C   0  0  0  0  0  0  0  0  0  0  0  0
  140.6470   79.0570  221.6780 C   0  0  0  0  0  0  0  0  0  0  0  0
  140.5570   77.7020  221.2420 N   0  0  0  0  0  0  0  0  0  0  0  0
  139.7950   76.6550  221.7690 C   0  0  0  0  0  0  0  0  0  0  0  0
  139.0450   76.7490  222.7630 O   0  0  0  0  0  0  0  0  0  0  0  0
  139.8560   75.3080  221.1210 C   0  0  0  0  0  0  0  0  0  0  0  0
  139.7890   74.2690  222.1310 N   0  0  0  0  0  0  0  0  0  0  0  0
  140.2960   72.9590  221.9190 C   0  0  0  0  0  0  0  0  0  0  0  0
  140.8290   72.6700  220.8150 O   0  0  0  0  0  0  0  0  0  0  0  0
  140.1830   71.9690  223.0040 C   0  0  0  0  0  0  0  0  0  0  0  0
  139.5940   70.7570  222.8310 C   0  0  0  0  0  0  0  0  0  0  0  0
  139.4840   69.8260  223.8410 C   0  0  0  0  0  0  0  0  0  0  0  0
  139.9950   70.1310  225.0920 C   0  0  0  0  0  0  0  0  0  0  0  0
  139.9200   69.2530  226.1360 C   0  0  0  0  0  0  0  0  0  0  0  0
  140.4500   69.6200  227.3580 C   0  0  0  0  0  0  0  0  0  0  0  0
  140.3720   68.5250  228.7130 Cl  0  0  0  0  0  0  0  0  0  0  0  0
  141.0550   70.8520  227.5530 C   0  0  0  0  0  0  0  0  0  0  0  0
  141.1060   71.6970  226.4770 C   0  0  0  0  0  0  0  0  0  0  0  0
  140.5900   71.3670  225.2440 C   0  0  0  0  0  0  0  0  0  0  0  0
  140.6780   72.2450  224.2450 N   0  0  0  0  0  0  0  0  0  0  0  0
  142.2627   81.0348  223.7637 H   0  0  0  0  0  0  0  0  0  0  0  0
  143.1860   81.0234  222.2229 H   0  0  0  0  0  0  0  0  0  0  0  0
  141.4439   81.4614  222.2229 H   0  0  0  0  0  0  0  0  0  0  0  0
  142.6701   79.0473  221.8364 H   0  0  0  0  0  0  0  0  0  0  0  0
  141.8514   79.4021  224.6554 H   0  0  0  0  0  0  0  0  0  0  0  0
  140.8496   78.1072  223.9163 H   0  0  0  0  0  0  0  0  0  0  0  0
  142.6404   77.9676  223.9163 H   0  0  0  0  0  0  0  0  0  0  0  0
  139.7593   79.2748  222.2900 H   0  0  0  0  0  0  0  0  0  0  0  0
  140.7170   79.6626  220.7624 H   0  0  0  0  0  0  0  0  0  0  0  0
  141.1580   77.4480  220.3890 H   0  0  0  0  0  0  0  0  0  0  0  0
  139.0086   75.1981  220.4283 H   0  0  0  0  0  0  0  0  0  0  0  0
  140.8029   75.2150  220.5690 H   0  0  0  0  0  0  0  0  0  0  0  0
  139.3490   74.4700  223.0730 H   0  0  0  0  0  0  0  0  0  0  0  0
  139.1866   70.5076  221.8401 H   0  0  0  0  0  0  0  0  0  0  0  0
  138.9983   68.8564  223.6569 H   0  0  0  0  0  0  0  0  0  0  0  0
  139.4451   68.2694  226.0057 H   0  0  0  0  0  0  0  0  0  0  0  0
  141.4752   71.1378  228.5285 H   0  0  0  0  0  0  0  0  0  0  0  0
  141.5796   72.6818  226.6030 H   0  0  0  0  0  0  0  0  0  0  0  0
  1  2  1  0
  2  3  1  0
  2  4  1  0
  4  5  1  0
  5  6  1  0
  6  7  2  0
  6  8  1  0
  8  9  1  0
  9 10  1  0
 10 11  2  0
 10 12  1  0
 12 13  2  0
 13 14  1  0
 14 15  2  0
 15 16  1  0
 16 17  2  0
 17 18  1  0
 17 19  1  0
 19 20  2  0
 20 21  1  0
 21 22  2  0
 22 12  1  0
 21 15  1  0
  1 23  1  0
  1 24  1  0
  1 25  1  0
  2 26  1  0
  3 27  1  0
  3 28  1  0
  3 29  1  0
  4 30  1  0
  4 31  1  0
  5 32  1  0
  8 33  1  0
  8 34  1  0
  9 35  1  0
 13 36  1  0
 14 37  1  0
 16 38  1  0
 19 39  1  0
 20 40  1  0
M  END
>  <smiles>  (1) 
CC(C)CNC(=O)CNC(=O)c1ccc2cc(Cl)ccc2n1

>  <score_type>  (1) 
oracle

>  <origin>  (1) 
autodockgpu

>  <m_score__min__energy>  (1) 
-7.7000000000000002

>  <m_primary>  (1) 
energy

>  <rmsd>  (1) 
3.5752997814690777

>  <m_score__min__rmsd>  (1) 
3.5752997814690777

>  <meeko>  (1) 
{"free_energy": -7.05, "intermolecular_energy": -8.55, "internal_energy": -1.25, "cluster_size": 33, "cluster_id": 1, "rank_in_cluster": 9}

>  <energy>  (1) 
-7.7

>  <cluster_rmsd>  (1) 
0.0

>  <cluster>  (1) 
1

$$$$

     RDKit          3D

 40 41  0  0  0  0  0  0  0  0999 V2000
  141.7960   79.9950  221.2180 C   0  0  0  0  0  0  0  0  0  0  0  0
  142.1560   79.3040  222.4790 C   0  0  0  0  0  0  0  0  0  0  0  0
  142.6510   80.3290  223.5200 C   0  0  0  0  0  0  0  0  0  0  0  0
  141.1740   78.3820  223.1080 C   0  0  0  0  0  0  0  0  0  0  0  0
  140.9750   77.1390  222.4380 N   0  0  0  0  0  0  0  0  0  0  0  0
  139.8290   76.6550  221.7990 C   0  0  0  0  0  0  0  0  0  0  0  0
  138.7420   77.2650  221.7260 O   0  0  0  0  0  0  0  0  0  0  0  0
  139.8700   75.3090  221.1450 C   0  0  0  0  0  0  0  0  0  0  0  0
  139.8390   74.2670  222.1540 N   0  0  0  0  0  0  0  0  0  0  0  0
  140.1830   72.9170  221.8730 C   0  0  0  0  0  0  0  0  0  0  0  0
  140.5300   72.5940  220.7070 O   0  0  0  0  0  0  0  0  0  0  0  0
  140.1210   71.9270  222.9630 C   0  0  0  0  0  0  0  0  0  0  0  0
  139.6040   70.6830  222.7930 C   0  0  0  0  0  0  0  0  0  0  0  0
  139.5430   69.7520  223.8070 C   0  0  0  0  0  0  0  0  0  0  0  0
  140.0310   70.0920  225.0590 C   0  0  0  0  0  0  0  0  0  0  0  0
  140.0010   69.2150  226.1070 C   0  0  0  0  0  0  0  0  0  0  0  0
  140.5040   69.6180  227.3290 C   0  0  0  0  0  0  0  0  0  0  0  0
  140.4820   68.5270  228.6900 Cl  0  0  0  0  0  0  0  0  0  0  0  0
  141.0360   70.8830  227.5210 C   0  0  0  0  0  0  0  0  0  0  0  0
  141.0430   71.7260  226.4420 C   0  0  0  0  0  0  0  0  0  0  0  0
  140.5520   71.3600  225.2070 C   0  0  0  0  0  0  0  0  0  0  0  0
  140.5950   72.2380  224.2040 N   0  0  0  0  0  0  0  0  0  0  0  0
  141.2993   80.9484  221.4512 H   0  0  0  0  0  0  0  0  0  0  0  0
  142.7073   80.1897  220.6335 H   0  0  0  0  0  0  0  0  0  0  0  0
  141.1142   79.3597  220.6335 H   0  0  0  0  0  0  0  0  0  0  0  0
  142.9441   78.6134  222.1445 H   0  0  0  0  0  0  0  0  0  0  0  0
  142.4643   79.9424  224.5328 H   0  0  0  0  0  0  0  0  0  0  0  0
  143.7296   80.4972  223.3848 H   0  0  0  0  0  0  0  0  0  0  0  0
  142.1121   81.2784  223.3848 H   0  0  0  0  0  0  0  0  0  0  0  0
  141.5212   78.1638  224.1287 H   0  0  0  0  0  0  0  0  0  0  0  0
  140.2058   78.9025  223.0675 H   0  0  0  0  0  0  0  0  0  0  0  0
  141.8230   76.4810  222.4190 H   0  0  0  0  0  0  0  0  0  0  0  0
  138.9996   75.1996  220.4813 H   0  0  0  0  0  0  0  0  0  0  0  0
  140.7977   75.2190  220.5608 H   0  0  0  0  0  0  0  0  0  0  0  0
  139.5530   74.4960  223.1480 H   0  0  0  0  0  0  0  0  0  0  0  0
  139.2165   70.4060  221.8014 H   0  0  0  0  0  0  0  0  0  0  0  0
  139.1141   68.7554  223.6259 H   0  0  0  0  0  0  0  0  0  0  0  0
  139.5834   68.2054  225.9796 H   0  0  0  0  0  0  0  0  0  0  0  0
  141.4350   71.1961  228.4971 H   0  0  0  0  0  0  0  0  0  0  0  0
  141.4577   72.7373  226.5658 H   0  0  0  0  0  0  0  0  0  0  0  0
  1  2  1  0
  2  3  1  0
  2  4  1  0
  4  5  1  0
  5  6  1  0
  6  7  2  0
  6  8  1  0
  8  9  1  0
  9 10  1  0
 10 11  2  0
 10 12  1  0
 12 13  2  0
 13 14  1  0
 14 15  2  0
 15 16  1  0
 16 17  2  0
 17 18  1  0
 17 19  1  0
 19 20  2  0
 20 21  1  0
 21 22  2  0
 22 12  1  0
 21 15  1  0
  1 23  1  0
  1 24  1  0
  1 25  1  0
  2 26  1  0
  3 27  1  0
  3 28  1  0
  3 29  1  0
  4 30  1  0
  4 31  1  0
  5 32  1  0
  8 33  1  0
  8 34  1  0
  9 35  1  0
 13 36  1  0
 14 37  1  0
 16 38  1  0
 19 39  1  0
 20 40  1  0
M  END
>  <smiles>  (2) 
CC(C)CNC(=O)CNC(=O)c1ccc2cc(Cl)ccc2n1

>  <score_type>  (2) 
oracle

>  <origin>  (2) 
autodockgpu

>  <m_score__min__energy>  (2) 
-7.7000000000000002

>  <m_primary>  (2) 
energy

>  <rmsd>  (2) 
3.5166665538934345

>  <m_score__min__rmsd>  (2) 
3.5166665538934345

>  <meeko>  (2) 
{"free_energy": -7.67, "intermolecular_energy": -9.16, "internal_energy": -0.86, "cluster_size": 33, "cluster_id": 1, "rank_in_cluster": 3}

>  <energy>  (2) 
-7.68

>  <cluster_rmsd>  (2) 
0.15

>  <cluster>  (2) 
1

$$$$

     RDKit          3D

 40 41  0  0  0  0  0  0  0  0999 V2000
  140.6850   69.8550  227.9650 C   0  0  0  0  0  0  0  0  0  0  0  0
  140.6540   70.9470  226.9630 C   0  0  0  0  0  0  0  0  0  0  0  0
  141.1440   72.2640  227.6020 C   0  0  0  0  0  0  0  0  0  0  0  0
  141.3200   70.7480  225.6500 C   0  0  0  0  0  0  0  0  0  0  0  0
  140.5350   71.0710  224.5030 N   0  0  0  0  0  0  0  0  0  0  0  0
  139.1960   70.7700  224.2380 C   0  0  0  0  0  0  0  0  0  0  0  0
  138.4450   70.1260  225.0010 O   0  0  0  0  0  0  0  0  0  0  0  0
  138.5810   71.2360  222.9560 C   0  0  0  0  0  0  0  0  0  0  0  0
  139.0670   72.5630  222.6270 N   0  0  0  0  0  0  0  0  0  0  0  0
  140.2830   72.7830  221.9260 C   0  0  0  0  0  0  0  0  0  0  0  0
  140.9810   71.7980  221.5670 O   0  0  0  0  0  0  0  0  0  0  0  0
  140.6960   74.1680  221.6370 C   0  0  0  0  0  0  0  0  0  0  0  0
  141.6660   74.4690  220.7360 C   0  0  0  0  0  0  0  0  0  0  0  0
  142.0570   75.7620  220.4600 C   0  0  0  0  0  0  0  0  0  0  0  0
  141.4370   76.8060  221.1260 C   0  0  0  0  0  0  0  0  0  0  0  0
  141.7760   78.1110  220.8990 C   0  0  0  0  0  0  0  0  0  0  0  0
  141.1180   79.1040  221.5980 C   0  0  0  0  0  0  0  0  0  0  0  0
  141.5250   80.7790  221.3350 Cl  0  0  0  0  0  0  0  0  0  0  0  0
  140.1250   78.8150  222.5210 C   0  0  0  0  0  0  0  0  0  0  0  0
  139.8200   77.4940  222.7140 C   0  0  0  0  0  0  0  0  0  0  0  0
  140.4540   76.4750  222.0360 C   0  0  0  0  0  0  0  0  0  0  0  0
  140.1000   75.2130  222.2800 N   0  0  0  0  0  0  0  0  0  0  0  0
  140.6728   70.2856  228.9771 H   0  0  0  0  0  0  0  0  0  0  0  0
  139.8048   69.2090  227.8307 H   0  0  0  0  0  0  0  0  0  0  0  0
  141.6004   69.2600  227.8307 H   0  0  0  0  0  0  0  0  0  0  0  0
  139.5902   70.9706  226.6843 H   0  0  0  0  0  0  0  0  0  0  0  0
  141.1107   72.1745  228.6978 H   0  0  0  0  0  0  0  0  0  0  0  0
  142.1770   72.4648  227.2818 H   0  0  0  0  0  0  0  0  0  0  0  0
  140.4935   73.0912  227.2818 H   0  0  0  0  0  0  0  0  0  0  0  0
  142.2224   71.3767  225.6300 H   0  0  0  0  0  0  0  0  0  0  0  0
  141.5260   69.6698  225.5785 H   0  0  0  0  0  0  0  0  0  0  0  0
  141.0420   71.6240  223.7350 H   0  0  0  0  0  0  0  0  0  0  0  0
  138.8495   70.5390  222.1485 H   0  0  0  0  0  0  0  0  0  0  0  0
  137.4875   71.2697  223.0709 H   0  0  0  0  0  0  0  0  0  0  0  0
  138.5100   73.4190  222.9090 H   0  0  0  0  0  0  0  0  0  0  0  0
  142.1619   73.6447  220.2025 H   0  0  0  0  0  0  0  0  0  0  0  0
  142.8487   75.9612  219.7227 H   0  0  0  0  0  0  0  0  0  0  0  0
  142.5604   78.3660  220.1712 H   0  0  0  0  0  0  0  0  0  0  0  0
  139.6051   79.6113  223.0738 H   0  0  0  0  0  0  0  0  0  0  0  0
  139.0360   77.2351  223.4408 H   0  0  0  0  0  0  0  0  0  0  0  0
  1  2  1  0
  2  3  1  0
  2  4  1  0
  4  5  1  0
  5  6  1  0
  6  7  2  0
  6  8  1  0
  8  9  1  0
  9 10  1  0
 10 11  2  0
 10 12  1  0
 12 13  2  0
 13 14  1  0
 14 15  2  0
 15 16  1  0
 16 17  2  0
 17 18  1  0
 17 19  1  0
 19 20  2  0
 20 21  1  0
 21 22  2  0
 22 12  1  0
 21 15  1  0
  1 23  1  0
  1 24  1  0
  1 25  1  0
  2 26  1  0
  3 27  1  0
  3 28  1  0
  3 29  1  0
  4 30  1  0
  4 31  1  0
  5 32  1  0
  8 33  1  0
  8 34  1  0
  9 35  1  0
 13 36  1  0
 14 37  1  0
 16 38  1  0
 19 39  1  0
 20 40  1  0
M  END
>  <smiles>  (3) 
CC(C)CNC(=O)CNC(=O)c1ccc2cc(Cl)ccc2n1

>  <score_type>  (3) 
oracle

>  <origin>  (3) 
autodockgpu

>  <m_score__min__energy>  (3) 
-7.7000000000000002

>  <m_primary>  (3) 
energy

>  <rmsd>  (3) 
8.354695107774818

>  <m_score__min__rmsd>  (3) 
8.354695107774818

>  <meeko>  (3) 
{"free_energy": -6.72, "intermolecular_energy": -8.21, "internal_energy": -1.78, "cluster_size": 13, "cluster_id": 2, "rank_in_cluster": 4}

>  <energy>  (3) 
-7.67

>  <cluster_rmsd>  (3) 
0.12

>  <cluster>  (3) 
1

$$$$

     RDKit          3D

 40 41  0  0  0  0  0  0  0  0999 V2000
  142.3930   79.5220  222.3890 C   0  0  0  0  0  0  0  0  0  0  0  0
  141.4000   78.5180  221.9380 C   0  0  0  0  0  0  0  0  0  0  0  0
  141.8310   77.9210  220.5810 C   0  0  0  0  0  0  0  0  0  0  0  0
  140.9990   77.4250  222.8620 C   0  0  0  0  0  0  0  0  0  0  0  0
  140.4200   76.2750  222.2460 N   0  0  0  0  0  0  0  0  0  0  0  0
  139.1240   76.0970  221.7540 C   0  0  0  0  0  0  0  0  0  0  0  0
  138.2220   76.9600  221.7930 O   0  0  0  0  0  0  0  0  0  0  0  0
  138.7520   74.7900  221.1290 C   0  0  0  0  0  0  0  0  0  0  0  0
  138.8570   73.7250  222.1090 N   0  0  0  0  0  0  0  0  0  0  0  0
  140.0650   73.0140  222.3420 C   0  0  0  0  0  0  0  0  0  0  0  0
  141.0960   73.3060  221.6800 O   0  0  0  0  0  0  0  0  0  0  0  0
  140.0760   71.9460  223.3580 C   0  0  0  0  0  0  0  0  0  0  0  0
  139.6270   70.6900  223.1050 C   0  0  0  0  0  0  0  0  0  0  0  0
  139.6350   69.6870  224.0500 C   0  0  0  0  0  0  0  0  0  0  0  0
  140.1220   69.9640  225.3170 C   0  0  0  0  0  0  0  0  0  0  0  0
  140.1580   69.0140  226.3000 C   0  0  0  0  0  0  0  0  0  0  0  0
  140.6560   69.3560  227.5420 C   0  0  0  0  0  0  0  0  0  0  0  0
  140.7170   68.1710  228.8200 Cl  0  0  0  0  0  0  0  0  0  0  0  0
  141.1190   70.6330  227.8180 C   0  0  0  0  0  0  0  0  0  0  0  0
  141.0620   71.5500  226.8020 C   0  0  0  0  0  0  0  0  0  0  0  0
  140.5730   71.2460  225.5510 C   0  0  0  0  0  0  0  0  0  0  0  0
  140.5510   72.1940  224.6130 N   0  0  0  0  0  0  0  0  0  0  0  0
  142.4167   79.5460  223.4885 H   0  0  0  0  0  0  0  0  0  0  0  0
  143.3881   79.2509  222.0066 H   0  0  0  0  0  0  0  0  0  0  0  0
  142.1110   80.5141  222.0066 H   0  0  0  0  0  0  0  0  0  0  0  0
  140.4813   79.1196  221.8745 H   0  0  0  0  0  0  0  0  0  0  0  0
  142.4669   77.0401  220.7533 H   0  0  0  0  0  0  0  0  0  0  0  0
  140.9384   77.6230  220.0114 H   0  0  0  0  0  0  0  0  0  0  0  0
  142.3948   78.6745  220.0114 H   0  0  0  0  0  0  0  0  0  0  0  0
  141.8956   77.0996  223.4098 H   0  0  0  0  0  0  0  0  0  0  0  0
  140.2130   77.8487  223.5044 H   0  0  0  0  0  0  0  0  0  0  0  0
  141.0700   75.4280  222.1440 H   0  0  0  0  0  0  0  0  0  0  0  0
  137.7175   74.8442  220.7590 H   0  0  0  0  0  0  0  0  0  0  0  0
  139.4360   74.5811  220.2932 H   0  0  0  0  0  0  0  0  0  0  0  0
  138.0140   73.4480  222.6880 H   0  0  0  0  0  0  0  0  0  0  0  0
  139.2395   70.4628  222.1009 H   0  0  0  0  0  0  0  0  0  0  0  0
  139.2607   68.6827  223.8023 H   0  0  0  0  0  0  0  0  0  0  0  0
  139.7961   67.9938  226.1046 H   0  0  0  0  0  0  0  0  0  0  0  0
  141.5148   70.8984  228.8094 H   0  0  0  0  0  0  0  0  0  0  0  0
  141.4218   72.5717  226.9933 H   0  0  0  0  0  0  0  0  0  0  0  0
  1  2  1  0
  2  3  1  0
  2  4  1  0
  4  5  1  0
  5  6  1  0
  6  7  2  0
  6  8  1  0
  8  9  1  0
  9 10  1  0
 10 11  2  0
 10 12  1  0
 12 13  2  0
 13 14  1  0
 14 15  2  0
 15 16  1  0
 16 17  2  0
 17 18  1  0
 17 19  1  0
 19 20  2  0
 20 21  1  0
 21 22  2  0
 22 12  1  0
 21 15  1  0
  1 23  1  0
  1 24  1  0
  1 25  1  0
  2 26  1  0
  3 27  1  0
  3 28  1  0
  3 29  1  0
  4 30  1  0
  4 31  1  0
  5 32  1  0
  8 33  1  0
  8 34  1  0
  9 35  1  0
 13 36  1  0
 14 37  1  0
 16 38  1  0
 19 39  1  0
 20 40  1  0
M  END
>  <smiles>  (4) 
CC(C)CNC(=O)CNC(=O)c1ccc2cc(Cl)ccc2n1

>  <score_type>  (4) 
oracle

>  <origin>  (4) 
autodockgpu

>  <m_score__min__energy>  (4) 
-7.7000000000000002

>  <m_primary>  (4) 
energy

>  <rmsd>  (4) 
3.11780817894236

>  <m_score__min__rmsd>  (4) 
3.11780817894236

>  <meeko>  (4) 
{"free_energy": -6.63, "intermolecular_energy": -8.13, "internal_energy": -1.48, "cluster_size": 33, "cluster_id": 1, "rank_in_cluster": 25}

>  <energy>  (4) 
-7.66

>  <cluster_rmsd>  (4) 
0.21

>  <cluster>  (4) 
1

$$$$

     RDKit          3D

 40 41  0  0  0  0  0  0  0  0999 V2000
  141.9060   79.3810  222.7460 C   0  0  0  0  0  0  0  0  0  0  0  0
  140.4970   78.9280  222.6650 C   0  0  0  0  0  0  0  0  0  0  0  0
  139.5980   79.8440  223.5220 C   0  0  0  0  0  0  0  0  0  0  0  0
  139.8750   78.7200  221.3310 C   0  0  0  0  0  0  0  0  0  0  0  0
  139.5240   77.3740  221.0160 N   0  0  0  0  0  0  0  0  0  0  0  0
  139.8680   76.1940  221.6820 C   0  0  0  0  0  0  0  0  0  0  0  0
  140.5840   76.1340  222.7040 O   0  0  0  0  0  0  0  0  0  0  0  0
  139.3590   74.8860  221.1620 C   0  0  0  0  0  0  0  0  0  0  0  0
  139.4890   73.8630  222.1830 N   0  0  0  0  0  0  0  0  0  0  0  0
  139.4890   72.4740  221.8810 C   0  0  0  0  0  0  0  0  0  0  0  0
  139.3710   72.0980  220.6850 O   0  0  0  0  0  0  0  0  0  0  0  0
  139.6260   71.5080  222.9850 C   0  0  0  0  0  0  0  0  0  0  0  0
  139.2110   70.2190  222.8850 C   0  0  0  0  0  0  0  0  0  0  0  0
  139.3360   69.3090  223.9130 C   0  0  0  0  0  0  0  0  0  0  0  0
  139.9100   69.7200  225.1050 C   0  0  0  0  0  0  0  0  0  0  0  0
  140.0650   68.8690  226.1630 C   0  0  0  0  0  0  0  0  0  0  0  0
  140.6450   69.3430  227.3240 C   0  0  0  0  0  0  0  0  0  0  0  0
  140.8570   68.2860  228.6940 Cl  0  0  0  0  0  0  0  0  0  0  0  0
  141.0740   70.6550  227.4440 C   0  0  0  0  0  0  0  0  0  0  0  0
  140.8980   71.4700  226.3580 C   0  0  0  0  0  0  0  0  0  0  0  0
  140.3240   71.0340  225.1830 C   0  0  0  0  0  0  0  0  0  0  0  0
  140.1880   71.8880  224.1690 N   0  0  0  0  0  0  0  0  0  0  0  0
  142.2006   79.4757  223.8016 H   0  0  0  0  0  0  0  0  0  0  0  0
  142.5564   78.6467  222.2483 H   0  0  0  0  0  0  0  0  0  0  0  0
  142.0066   80.3568  222.2483 H   0  0  0  0  0  0  0  0  0  0  0  0
  140.5651   77.9012  223.0537 H   0  0  0  0  0  0  0  0  0  0  0  0
  139.7878   79.6506  224.5881 H   0  0  0  0  0  0  0  0  0  0  0  0
  139.8237   80.8963  223.2944 H   0  0  0  0  0  0  0  0  0  0  0  0
  138.5417   79.6380  223.2944 H   0  0  0  0  0  0  0  0  0  0  0  0
  138.9590   79.3275  221.2866 H   0  0  0  0  0  0  0  0  0  0  0  0
  140.6389   79.0110  220.5950 H   0  0  0  0  0  0  0  0  0  0  0  0
  138.9090   77.2470  220.1460 H   0  0  0  0  0  0  0  0  0  0  0  0
  138.2998   74.9914  220.8844 H   0  0  0  0  0  0  0  0  0  0  0  0
  139.9478   74.5936  220.2801 H   0  0  0  0  0  0  0  0  0  0  0  0
  139.5910   74.1360  223.2010 H   0  0  0  0  0  0  0  0  0  0  0  0
  138.7545   69.8859  221.9412 H   0  0  0  0  0  0  0  0  0  0  0  0
  138.9858   68.2737  223.7888 H   0  0  0  0  0  0  0  0  0  0  0  0
  139.7331   67.8227  226.0914 H   0  0  0  0  0  0  0  0  0  0  0  0
  141.5357   71.0256  228.3711 H   0  0  0  0  0  0  0  0  0  0  0  0
  141.2286   72.5169  226.4260 H   0  0  0  0  0  0  0  0  0  0  0  0
  1  2  1  0
  2  3  1  0
  2  4  1  0
  4  5  1  0
  5  6  1  0
  6  7  2  0
  6  8  1  0
  8  9  1  0
  9 10  1  0
 10 11  2  0
 10 12  1  0
 12 13  2  0
 13 14  1  0
 14 15  2  0
 15 16  1  0
 16 17  2  0
 17 18  1  0
 17 19  1  0
 19 20  2  0
 20 21  1  0
 21 22  2  0
 22 12  1  0
 21 15  1  0
  1 23  1  0
  1 24  1  0
  1 25  1  0
  2 26  1  0
  3 27  1  0
  3 28  1  0
  3 29  1  0
  4 30  1  0
  4 31  1  0
  5 32  1  0
  8 33  1  0
  8 34  1  0
  9 35  1  0
 13 36  1  0
 14 37  1  0
 16 38  1  0
 19 39  1  0
 20 40  1  0
M  END
>  <smiles>  (5) 
CC(C)CNC(=O)CNC(=O)c1ccc2cc(Cl)ccc2n1

>  <score_type>  (5) 
oracle

>  <origin>  (5) 
autodockgpu

>  <m_score__min__energy>  (5) 
-7.7000000000000002

>  <m_primary>  (5) 
energy

>  <rmsd>  (5) 
3.2285250328681645

>  <m_score__min__rmsd>  (5) 
3.2285250328681645

>  <meeko>  (5) 
{"free_energy": -6.63, "intermolecular_energy": -8.12, "internal_energy": -1.42, "cluster_size": 33, "cluster_id": 1, "rank_in_cluster": 26}

>  <energy>  (5) 
-7.63

>  <cluster_rmsd>  (5) 
0.24

>  <cluster>  (5) 
1

$$$$

     RDKit          3D

 40 41  0  0  0  0  0  0  0  0999 V2000
  141.4330   78.4580  222.6690 C   0  0  0  0  0  0  0  0  0  0  0  0
  141.0700   78.4540  221.2320 C   0  0  0  0  0  0  0  0  0  0  0  0
  142.0340   77.5400  220.4460 C   0  0  0  0  0  0  0  0  0  0  0  0
  139.6670   78.1610  220.8360 C   0  0  0  0  0  0  0  0  0  0  0  0
  139.3630   76.7860  220.6090 N   0  0  0  0  0  0  0  0  0  0  0  0
  139.3020   75.7330  221.5270 C   0  0  0  0  0  0  0  0  0  0  0  0
  139.5310   75.8390  222.7500 O   0  0  0  0  0  0  0  0  0  0  0  0
  138.9420   74.3630  221.0450 C   0  0  0  0  0  0  0  0  0  0  0  0
  139.1810   73.3900  222.0940 N   0  0  0  0  0  0  0  0  0  0  0  0
  139.0350   71.9910  221.8910 C   0  0  0  0  0  0  0  0  0  0  0  0
  138.6850   71.5600  220.7610 O   0  0  0  0  0  0  0  0  0  0  0  0
  139.2990   71.0790  223.0180 C   0  0  0  0  0  0  0  0  0  0  0  0
  138.9580   69.7650  222.9910 C   0  0  0  0  0  0  0  0  0  0  0  0
  139.2020   68.9050  224.0400 C   0  0  0  0  0  0  0  0  0  0  0  0
  139.8240   69.3950  225.1770 C   0  0  0  0  0  0  0  0  0  0  0  0
  140.0950   68.5970  226.2530 C   0  0  0  0  0  0  0  0  0  0  0  0
  140.7170   69.1490  227.3550 C   0  0  0  0  0  0  0  0  0  0  0  0
  141.0780   68.1610  228.7460 Cl  0  0  0  0  0  0  0  0  0  0  0  0
  141.0730   70.4880  227.4010 C   0  0  0  0  0  0  0  0  0  0  0  0
  140.7800   71.2480  226.3000 C   0  0  0  0  0  0  0  0  0  0  0  0
  140.1610   70.7330  225.1820 C   0  0  0  0  0  0  0  0  0  0  0  0
  139.9100   71.5370  224.1480 N   0  0  0  0  0  0  0  0  0  0  0  0
  140.5174   78.4479  223.2785 H   0  0  0  0  0  0  0  0  0  0  0  0
  142.0354   77.5664  222.8975 H   0  0  0  0  0  0  0  0  0  0  0  0
  142.0156   79.3626  222.8975 H   0  0  0  0  0  0  0  0  0  0  0  0
  141.1702   79.5176  220.9696 H   0  0  0  0  0  0  0  0  0  0  0  0
  142.6462   76.9595  221.1518 H   0  0  0  0  0  0  0  0  0  0  0  0
  141.4534   76.8528  219.8130 H   0  0  0  0  0  0  0  0  0  0  0  0
  142.6893   78.1563  219.8130 H   0  0  0  0  0  0  0  0  0  0  0  0
  139.0066   78.5255  221.6367 H   0  0  0  0  0  0  0  0  0  0  0  0
  139.5165   78.6650  219.8699 H   0  0  0  0  0  0  0  0  0  0  0  0
  139.1480   76.5200  219.5920 H   0  0  0  0  0  0  0  0  0  0  0  0
  137.8784   74.3430  220.7649 H   0  0  0  0  0  0  0  0  0  0  0  0
  139.5622   74.1126  220.1717 H   0  0  0  0  0  0  0  0  0  0  0  0
  139.4770   73.7100  223.0600 H   0  0  0  0  0  0  0  0  0  0  0  0
  138.4646   69.3689  222.0911 H   0  0  0  0  0  0  0  0  0  0  0  0
  138.9078   67.8470  223.9756 H   0  0  0  0  0  0  0  0  0  0  0  0
  139.8218   67.5315  226.2411 H   0  0  0  0  0  0  0  0  0  0  0  0
  141.5687   70.9207  228.2825 H   0  0  0  0  0  0  0  0  0  0  0  0
  141.0502   72.3143  226.3086 H   0  0  0  0  0  0  0  0  0  0  0  0
  1  2  1  0
  2  3  1  0
  2  4  1  0
  4  5  1  0
  5  6  1  0
  6  7  2  0
  6  8  1  0
  8  9  1  0
  9 10  1  0
 10 11  2  0
 10 12  1  0
 12 13  2  0
 13 14  1  0
 14 15  2  0
 15 16  1  0
 16 17  2  0
 17 18  1  0
 17 19  1  0
 19 20  2  0
 20 21  1  0
 21 22  2  0
 22 12  1  0
 21 15  1  0
  1 23  1  0
  1 24  1  0
  1 25  1  0
  2 26  1  0
  3 27  1  0
  3 28  1  0
  3 29  1  0
  4 30  1  0
  4 31  1  0
  5 32  1  0
  8 33  1  0
  8 34  1  0
  9 35  1  0
 13 36  1  0
 14 37  1  0
 16 38  1  0
 19 39  1  0
 20 40  1  0
M  END
>  <smiles>  (6) 
CC(C)CNC(=O)CNC(=O)c1ccc2cc(Cl)ccc2n1

>  <score_type>  (6) 
oracle

>  <origin>  (6) 
autodockgpu

>  <m_score__min__energy>  (6) 
-7.7000000000000002

>  <m_primary>  (6) 
energy

>  <rmsd>  (6) 
2.5598318139671714

>  <m_score__min__rmsd>  (6) 
2.5598318139671714

>  <meeko>  (6) 
{"free_energy": -6.17, "intermolecular_energy": -7.66, "internal_energy": -1.69, "cluster_size": 33, "cluster_id": 1, "rank_in_cluster": 33}

>  <energy>  (6) 
-7.63

>  <cluster_rmsd>  (6) 
0.2

>  <cluster>  (6) 
1

$$$$

     RDKit          3D

 40 41  0  0  0  0  0  0  0  0999 V2000
  139.1420   78.9640  222.6360 C   0  0  0  0  0  0  0  0  0  0  0  0
  140.4840   79.1250  222.0290 C   0  0  0  0  0  0  0  0  0  0  0  0
  141.5770   78.8780  223.0910 C   0  0  0  0  0  0  0  0  0  0  0  0
  140.8150   78.3810  220.7860 C   0  0  0  0  0  0  0  0  0  0  0  0
  140.1620   77.1220  220.6270 N   0  0  0  0  0  0  0  0  0  0  0  0
  139.9930   76.0930  221.5570 C   0  0  0  0  0  0  0  0  0  0  0  0
  140.4230   76.1140  222.7300 O   0  0  0  0  0  0  0  0  0  0  0  0
  139.2490   74.8580  221.1550 C   0  0  0  0  0  0  0  0  0  0  0  0
  139.3880   73.8400  222.1790 N   0  0  0  0  0  0  0  0  0  0  0  0
  139.2760   72.4510  221.9000 C   0  0  0  0  0  0  0  0  0  0  0  0
  139.0460   72.0700  220.7220 O   0  0  0  0  0  0  0  0  0  0  0  0
  139.4310   71.4900  223.0070 C   0  0  0  0  0  0  0  0  0  0  0  0
  139.0370   70.1950  222.9110 C   0  0  0  0  0  0  0  0  0  0  0  0
  139.1790   69.2900  223.9410 C   0  0  0  0  0  0  0  0  0  0  0  0
  139.7510   69.7130  225.1300 C   0  0  0  0  0  0  0  0  0  0  0  0
  139.9220   68.8670  226.1900 C   0  0  0  0  0  0  0  0  0  0  0  0
  140.4980   69.3530  227.3470 C   0  0  0  0  0  0  0  0  0  0  0  0
  140.7310   68.3030  228.7200 Cl  0  0  0  0  0  0  0  0  0  0  0  0
  140.9070   70.6720  227.4620 C   0  0  0  0  0  0  0  0  0  0  0  0
  140.7150   71.4810  226.3750 C   0  0  0  0  0  0  0  0  0  0  0  0
  140.1440   71.0330  225.2030 C   0  0  0  0  0  0  0  0  0  0  0  0
  139.9910   71.8820  224.1870 N   0  0  0  0  0  0  0  0  0  0  0  0
  139.2317   78.9748  223.7323 H   0  0  0  0  0  0  0  0  0  0  0  0
  138.4920   79.7906  222.3132 H   0  0  0  0  0  0  0  0  0  0  0  0
  138.7060   78.0071  222.3132 H   0  0  0  0  0  0  0  0  0  0  0  0
  140.4502   80.1662  221.6757 H   0  0  0  0  0  0  0  0  0  0  0  0
  141.1407   78.9766  224.0960 H   0  0  0  0  0  0  0  0  0  0  0  0
  141.9865   77.8647  222.9669 H   0  0  0  0  0  0  0  0  0  0  0  0
  142.3825   79.6168  222.9669 H   0  0  0  0  0  0  0  0  0  0  0  0
  140.5410   79.0146  219.9295 H   0  0  0  0  0  0  0  0  0  0  0  0
  141.8900   78.1560  220.8479 H   0  0  0  0  0  0  0  0  0  0  0  0
  139.7390   76.9390  219.6580 H   0  0  0  0  0  0  0  0  0  0  0  0
  138.1840   75.1005  221.0245 H   0  0  0  0  0  0  0  0  0  0  0  0
  139.6635   74.4783  220.2095 H   0  0  0  0  0  0  0  0  0  0  0  0
  139.5820   74.1170  223.1830 H   0  0  0  0  0  0  0  0  0  0  0  0
  138.5840   69.8521  221.9691 H   0  0  0  0  0  0  0  0  0  0  0  0
  138.8438   68.2492  223.8210 H   0  0  0  0  0  0  0  0  0  0  0  0
  139.6057   67.8156  226.1224 H   0  0  0  0  0  0  0  0  0  0  0  0
  141.3659   71.0522  228.3866 H   0  0  0  0  0  0  0  0  0  0  0  0
  141.0296   72.5331  226.4392 H   0  0  0  0  0  0  0  0  0  0  0  0
  1  2  1  0
  2  3  1  0
  2  4  1  0
  4  5  1  0
  5  6  1  0
  6  7  2  0
  6  8  1  0
  8  9  1  0
  9 10  1  0
 10 11  2  0
 10 12  1  0
 12 13  2  0
 13 14  1  0
 14 15  2  0
 15 16  1  0
 16 17  2  0
 17 18  1  0
 17 19  1  0
 19 20  2  0
 20 21  1  0
 21 22  2  0
 22 12  1  0
 21 15  1  0
  1 23  1  0
  1 24  1  0
  1 25  1  0
  2 26  1  0
  3 27  1  0
  3 28  1  0
  3 29  1  0
  4 30  1  0
  4 31  1  0
  5 32  1  0
  8 33  1  0
  8 34  1  0
  9 35  1  0
 13 36  1  0
 14 37  1  0
 16 38  1  0
 19 39  1  0
 20 40  1  0
M  END
>  <smiles>  (7) 
CC(C)CNC(=O)CNC(=O)c1ccc2cc(Cl)ccc2n1

>  <score_type>  (7) 
oracle

>  <origin>  (7) 
autodockgpu

>  <m_score__min__energy>  (7) 
-7.7000000000000002

>  <m_primary>  (7) 
energy

>  <rmsd>  (7) 
3.076107238404955

>  <m_score__min__rmsd>  (7) 
3.076107238404955

>  <meeko>  (7) 
{"free_energy": -6.39, "intermolecular_energy": -7.89, "internal_energy": -1.57, "cluster_size": 33, "cluster_id": 1, "rank_in_cluster": 30}

>  <energy>  (7) 
-7.46

>  <cluster_rmsd>  (7) 
0.59

>  <cluster>  (7) 
1

$$$$

     RDKit          3D

 40 41  0  0  0  0  0  0  0  0999 V2000
  141.8030   80.1120  221.1860 C   0  0  0  0  0  0  0  0  0  0  0  0
  142.1920   79.3800  222.4150 C   0  0  0  0  0  0  0  0  0  0  0  0
  142.7990   80.3590  223.4420 C   0  0  0  0  0  0  0  0  0  0  0  0
  141.1980   78.5020  223.0850 C   0  0  0  0  0  0  0  0  0  0  0  0
  140.9250   77.2650  222.4290 N   0  0  0  0  0  0  0  0  0  0  0  0
  139.6950   76.7270  222.0380 C   0  0  0  0  0  0  0  0  0  0  0  0
  138.5870   77.2710  222.2250 O   0  0  0  0  0  0  0  0  0  0  0  0
  139.6650   75.4020  221.3430 C   0  0  0  0  0  0  0  0  0  0  0  0
  139.7100   74.3290  222.3190 N   0  0  0  0  0  0  0  0  0  0  0  0
  139.9720   72.9790  221.9620 C   0  0  0  0  0  0  0  0  0  0  0  0
  140.1730   72.6820  220.7550 O   0  0  0  0  0  0  0  0  0  0  0  0
  139.9980   71.9570  223.0240 C   0  0  0  0  0  0  0  0  0  0  0  0
  139.5610   70.6860  222.8270 C   0  0  0  0  0  0  0  0  0  0  0  0
  139.5830   69.7250  223.8140 C   0  0  0  0  0  0  0  0  0  0  0  0
  140.0720   70.0610  225.0660 C   0  0  0  0  0  0  0  0  0  0  0  0
  140.1220   69.1550  226.0890 C   0  0  0  0  0  0  0  0  0  0  0  0
  140.6220   69.5560  227.3130 C   0  0  0  0  0  0  0  0  0  0  0  0
  140.7010   68.4280  228.6400 Cl  0  0  0  0  0  0  0  0  0  0  0  0
  141.0730   70.8490  227.5310 C   0  0  0  0  0  0  0  0  0  0  0  0
  141.0020   71.7190  226.4770 C   0  0  0  0  0  0  0  0  0  0  0  0
  140.5110   71.3570  225.2420 C   0  0  0  0  0  0  0  0  0  0  0  0
  140.4750   72.2630  224.2650 N   0  0  0  0  0  0  0  0  0  0  0  0
  141.3033   81.0523  221.4620 H   0  0  0  0  0  0  0  0  0  0  0  0
  142.7016   80.3349  220.5921 H   0  0  0  0  0  0  0  0  0  0  0  0
  141.1154   79.4920  220.5921 H   0  0  0  0  0  0  0  0  0  0  0  0
  142.9201   78.6529  222.0261 H   0  0  0  0  0  0  0  0  0  0  0  0
  142.5795   80.0050  224.4601 H   0  0  0  0  0  0  0  0  0  0  0  0
  143.8884   80.4116  223.2990 H   0  0  0  0  0  0  0  0  0  0  0  0
  142.3617   81.3582  223.2990 H   0  0  0  0  0  0  0  0  0  0  0  0
  141.5735   78.2742  224.0935 H   0  0  0  0  0  0  0  0  0  0  0  0
  140.2507   79.0610  223.0780 H   0  0  0  0  0  0  0  0  0  0  0  0
  141.7830   76.6620  222.2020 H   0  0  0  0  0  0  0  0  0  0  0  0
  138.7395   75.3203  220.7541 H   0  0  0  0  0  0  0  0  0  0  0  0
  140.5380   75.3228  220.6784 H   0  0  0  0  0  0  0  0  0  0  0  0
  139.5470   74.5350  223.3450 H   0  0  0  0  0  0  0  0  0  0  0  0
  139.1722   70.4118  221.8352 H   0  0  0  0  0  0  0  0  0  0  0  0
  139.2181   68.7073  223.6112 H   0  0  0  0  0  0  0  0  0  0  0  0
  139.7698   68.1236  225.9399 H   0  0  0  0  0  0  0  0  0  0  0  0
  141.4703   71.1616  228.5080 H   0  0  0  0  0  0  0  0  0  0  0  0
  141.3520   72.7517  226.6223 H   0  0  0  0  0  0  0  0  0  0  0  0
  1  2  1  0
  2  3  1  0
  2  4  1  0
  4  5  1  0
  5  6  1  0
  6  7  2  0
  6  8  1  0
  8  9  1  0
  9 10  1  0
 10 11  2  0
 10 12  1  0
 12 13  2  0
 13 14  1  0
 14 15  2  0
 15 16  1  0
 16 17  2  0
 17 18  1  0
 17 19  1  0
 19 20  2  0
 20 21  1  0
 21 22  2  0
 22 12  1  0
 21 15  1  0
  1 23  1  0
  1 24  1  0
  1 25  1  0
  2 26  1  0
  3 27  1  0
  3 28  1  0
  3 29  1  0
  4 30  1  0
  4 31  1  0
  5 32  1  0
  8 33  1  0
  8 34  1  0
  9 35  1  0
 13 36  1  0
 14 37  1  0
 16 38  1  0
 19 39  1  0
 20 40  1  0
M  END
>  <smiles>  (8) 
CC(C)CNC(=O)CNC(=O)c1ccc2cc(Cl)ccc2n1

>  <score_type>  (8) 
oracle

>  <origin>  (8) 
autodockgpu

>  <m_score__min__energy>  (8) 
-7.7000000000000002

>  <m_primary>  (8) 
energy

>  <rmsd>  (8) 
3.524275121806009

>  <m_score__min__rmsd>  (8) 
3.524275121806009

>  <meeko>  (8) 
{"free_energy": -7.66, "intermolecular_energy": -9.15, "internal_energy": -0.89, "cluster_size": 33, "cluster_id": 1, "rank_in_cluster": 4}

>  <energy>  (8) 
-7.45

>  <cluster_rmsd>  (8) 
0.58

>  <cluster>  (8) 
1

$$$$

     RDKit          3D

 40 41  0  0  0  0  0  0  0  0999 V2000
  141.7970   80.2300  221.1890 C   0  0  0  0  0  0  0  0  0  0  0  0
  142.1110   79.4550  222.4130 C   0  0  0  0  0  0  0  0  0  0  0  0
  142.6400   80.3990  223.5140 C   0  0  0  0  0  0  0  0  0  0  0  0
  141.0810   78.5470  222.9830 C   0  0  0  0  0  0  0  0  0  0  0  0
  140.9480   77.2820  222.3390 N   0  0  0  0  0  0  0  0  0  0  0  0
  139.8010   76.6700  221.8250 C   0  0  0  0  0  0  0  0  0  0  0  0
  138.6530   77.1590  221.8660 O   0  0  0  0  0  0  0  0  0  0  0  0
  139.9180   75.3290  221.1720 C   0  0  0  0  0  0  0  0  0  0  0  0
  139.8680   74.2830  222.1750 N   0  0  0  0  0  0  0  0  0  0  0  0
  140.2560   72.9420  221.9070 C   0  0  0  0  0  0  0  0  0  0  0  0
  140.6620   72.6310  220.7550 O   0  0  0  0  0  0  0  0  0  0  0  0
  140.1710   71.9470  222.9900 C   0  0  0  0  0  0  0  0  0  0  0  0
  139.6380   70.7120  222.8090 C   0  0  0  0  0  0  0  0  0  0  0  0
  139.5560   69.7750  223.8170 C   0  0  0  0  0  0  0  0  0  0  0  0
  140.0360   70.1020  225.0750 C   0  0  0  0  0  0  0  0  0  0  0  0
  139.9860   69.2200  226.1180 C   0  0  0  0  0  0  0  0  0  0  0  0
  140.4830   69.6090  227.3470 C   0  0  0  0  0  0  0  0  0  0  0  0
  140.4330   68.5110  228.7010 Cl  0  0  0  0  0  0  0  0  0  0  0  0
  141.0300   70.8660  227.5500 C   0  0  0  0  0  0  0  0  0  0  0  0
  141.0590   71.7140  226.4760 C   0  0  0  0  0  0  0  0  0  0  0  0
  140.5740   71.3620  225.2350 C   0  0  0  0  0  0  0  0  0  0  0  0
  140.6380   72.2440  224.2370 N   0  0  0  0  0  0  0  0  0  0  0  0
  141.3978   81.2154  221.4713 H   0  0  0  0  0  0  0  0  0  0  0  0
  142.7125   80.3621  220.5937 H   0  0  0  0  0  0  0  0  0  0  0  0
  141.0477   79.6876  220.5937 H   0  0  0  0  0  0  0  0  0  0  0  0
  142.8700   78.7479  222.0471 H   0  0  0  0  0  0  0  0  0  0  0  0
  142.4041   79.9780  224.5025 H   0  0  0  0  0  0  0  0  0  0  0  0
  143.7299   80.5068  223.4120 H   0  0  0  0  0  0  0  0  0  0  0  0
  142.1629   81.3849  223.4120 H   0  0  0  0  0  0  0  0  0  0  0  0
  141.3373   78.3644  224.0370 H   0  0  0  0  0  0  0  0  0  0  0  0
  140.1178   79.0589  222.8406 H   0  0  0  0  0  0  0  0  0  0  0  0
  141.8560   76.7190  222.2300 H   0  0  0  0  0  0  0  0  0  0  0  0
  139.0869   75.1948  220.4640 H   0  0  0  0  0  0  0  0  0  0  0  0
  140.8772   75.2705  220.6367 H   0  0  0  0  0  0  0  0  0  0  0  0
  139.5340   74.5010  223.1570 H   0  0  0  0  0  0  0  0  0  0  0  0
  139.2540   70.4466  221.8129 H   0  0  0  0  0  0  0  0  0  0  0  0
  139.1170   68.7847  223.6258 H   0  0  0  0  0  0  0  0  0  0  0  0
  139.5569   68.2165  225.9810 H   0  0  0  0  0  0  0  0  0  0  0  0
  141.4237   71.1690  228.5314 H   0  0  0  0  0  0  0  0  0  0  0  0
  141.4873   72.7184  226.6090 H   0  0  0  0  0  0  0  0  0  0  0  0
  1  2  1  0
  2  3  1  0
  2  4  1  0
  4  5  1  0
  5  6  1  0
  6  7  2  0
  6  8  1  0
  8  9  1  0
  9 10  1  0
 10 11  2  0
 10 12  1  0
 12 13  2  0
 13 14  1  0
 14 15  2  0
 15 16  1  0
 16 17  2  0
 17 18  1  0
 17 19  1  0
 19 20  2  0
 20 21  1  0
 21 22  2  0
 22 12  1  0
 21 15  1  0
  1 23  1  0
  1 24  1  0
  1 25  1  0
  2 26  1  0
  3 27  1  0
  3 28  1  0
  3 29  1  0
  4 30  1  0
  4 31  1  0
  5 32  1  0
  8 33  1  0
  8 34  1  0
  9 35  1  0
 13 36  1  0
 14 37  1  0
 16 38  1  0
 19 39  1  0
 20 40  1  0
M  END
>  <smiles>  (9) 
CC(C)CNC(=O)CNC(=O)c1ccc2cc(Cl)ccc2n1

>  <score_type>  (9) 
oracle

>  <origin>  (9) 
autodockgpu

>  <m_score__min__energy>  (9) 
-7.7000000000000002

>  <m_primary>  (9) 
energy

>  <rmsd>  (9) 
3.53751146739742

>  <m_score__min__rmsd>  (9) 
3.53751146739742

>  <meeko>  (9) 
{"free_energy": -7.7, "intermolecular_energy": -9.19, "internal_energy": -0.83, "cluster_size": 33, "cluster_id": 1, "rank_in_cluster": 1}

>  <energy>  (9) 
-7.05

>  <cluster_rmsd>  (9) 
0.7

>  <cluster>  (9) 
1

$$$$

     RDKit          3D

 40 41  0  0  0  0  0  0  0  0999 V2000
  142.2210   80.8340  222.6770 C   0  0  0  0  0  0  0  0  0  0  0  0
  141.8900   79.4030  222.4760 C   0  0  0  0  0  0  0  0  0  0  0  0
  141.8280   78.6780  223.8370 C   0  0  0  0  0  0  0  0  0  0  0  0
  140.7020   79.0390  221.6590 C   0  0  0  0  0  0  0  0  0  0  0  0
  140.6410   77.6810  221.2280 N   0  0  0  0  0  0  0  0  0  0  0  0
  139.8830   76.6250  221.7430 C   0  0  0  0  0  0  0  0  0  0  0  0
  139.1120   76.7120  222.7220 O   0  0  0  0  0  0  0  0  0  0  0  0
  139.9780   75.2760  221.1030 C   0  0  0  0  0  0  0  0  0  0  0  0
  139.9120   74.2400  222.1170 N   0  0  0  0  0  0  0  0  0  0  0  0
  140.2940   72.8950  221.8660 C   0  0  0  0  0  0  0  0  0  0  0  0
  140.7100   72.5700  220.7220 O   0  0  0  0  0  0  0  0  0  0  0  0
  140.1920   71.9120  222.9580 C   0  0  0  0  0  0  0  0  0  0  0  0
  139.6360   70.6850  222.7890 C   0  0  0  0  0  0  0  0  0  0  0  0
  139.5380   69.7590  223.8060 C   0  0  0  0  0  0  0  0  0  0  0  0
  140.0260   70.0880  225.0600 C   0  0  0  0  0  0  0  0  0  0  0  0
  139.9600   69.2170  226.1120 C   0  0  0  0  0  0  0  0  0  0  0  0
  140.4660   69.6080  227.3360 C   0  0  0  0  0  0  0  0  0  0  0  0
  140.3980   68.5230  228.7000 Cl  0  0  0  0  0  0  0  0  0  0  0  0
  141.0370   70.8560  227.5270 C   0  0  0  0  0  0  0  0  0  0  0  0
  141.0800   71.6940  226.4450 C   0  0  0  0  0  0  0  0  0  0  0  0
  140.5870   71.3400  225.2080 C   0  0  0  0  0  0  0  0  0  0  0  0
  140.6660   72.2110  224.2020 N   0  0  0  0  0  0  0  0  0  0  0  0
  142.2712   81.0509  223.7542 H   0  0  0  0  0  0  0  0  0  0  0  0
  143.1937   81.0540  222.2130 H   0  0  0  0  0  0  0  0  0  0  0  0
  141.4437   81.4588  222.2130 H   0  0  0  0  0  0  0  0  0  0  0  0
  142.7231   79.0638  221.8428 H   0  0  0  0  0  0  0  0  0  0  0  0
  141.8912   79.4170  224.6493 H   0  0  0  0  0  0  0  0  0  0  0  0
  140.8794   78.1266  223.9159 H   0  0  0  0  0  0  0  0  0  0  0  0
  142.6692   77.9736  223.9159 H   0  0  0  0  0  0  0  0  0  0  0  0
  139.8033   79.2439  222.2593 H   0  0  0  0  0  0  0  0  0  0  0  0
  140.7724   79.6420  220.7417 H   0  0  0  0  0  0  0  0  0  0  0  0
  141.2620   77.4320  220.3880 H   0  0  0  0  0  0  0  0  0  0  0  0
  139.1443   75.1483  220.3969 H   0  0  0  0  0  0  0  0  0  0  0  0
  140.9357   75.1969  220.5677 H   0  0  0  0  0  0  0  0  0  0  0  0
  139.5690   74.4710  223.0930 H   0  0  0  0  0  0  0  0  0  0  0  0
  139.2461   70.4175  221.7958 H   0  0  0  0  0  0  0  0  0  0  0  0
  139.0800   68.7755  223.6246 H   0  0  0  0  0  0  0  0  0  0  0  0
  139.5111   68.2208  225.9854 H   0  0  0  0  0  0  0  0  0  0  0  0
  141.4382   71.1602  228.5050 H   0  0  0  0  0  0  0  0  0  0  0  0
  141.5268   72.6916  226.5685 H   0  0  0  0  0  0  0  0  0  0  0  0
  1  2  1  0
  2  3  1  0
  2  4  1  0
  4  5  1  0
  5  6  1  0
  6  7  2  0
  6  8  1  0
  8  9  1  0
  9 10  1  0
 10 11  2  0
 10 12  1  0
 12 13  2  0
 13 14  1  0
 14 15  2  0
 15 16  1  0
 16 17  2  0
 17 18  1  0
 17 19  1  0
 19 20  2  0
 20 21  1  0
 21 22  2  0
 22 12  1  0
 21 15  1  0
  1 23  1  0
  1 24  1  0
  1 25  1  0
  2 26  1  0
  3 27  1  0
  3 28  1  0
  3 29  1  0
  4 30  1  0
  4 31  1  0
  5 32  1  0
  8 33  1  0
  8 34  1  0
  9 35  1  0
 13 36  1  0
 14 37  1  0
 16 38  1  0
 19 39  1  0
 20 40  1  0
M  END
>  <smiles>  (10) 
CC(C)CNC(=O)CNC(=O)c1ccc2cc(Cl)ccc2n1

>  <score_type>  (10) 
oracle

>  <origin>  (10) 
autodockgpu

>  <m_score__min__energy>  (10) 
-7.7000000000000002

>  <m_primary>  (10) 
energy

>  <rmsd>  (10) 
3.573393472933166

>  <m_score__min__rmsd>  (10) 
3.573393472933166

>  <meeko>  (10) 
{"free_energy": -7.05, "intermolecular_energy": -8.54, "internal_energy": -1.29, "cluster_size": 33, "cluster_id": 1, "rank_in_cluster": 10}

>  <energy>  (10) 
-7.05

>  <cluster_rmsd>  (10) 
0.69

>  <cluster>  (10) 
1

$$$$

     RDKit          3D

 40 41  0  0  0  0  0  0  0  0999 V2000
  142.6460   79.7690  222.7070 C   0  0  0  0  0  0  0  0  0  0  0  0
  141.4060   78.9750  222.5350 C   0  0  0  0  0  0  0  0  0  0  0  0
  140.3010   79.5150  223.4680 C   0  0  0  0  0  0  0  0  0  0  0  0
  140.8550   78.7720  221.1700 C   0  0  0  0  0  0  0  0  0  0  0  0
  140.5350   77.4250  220.8260 N   0  0  0  0  0  0  0  0  0  0  0  0
  139.9650   76.4250  221.6190 C   0  0  0  0  0  0  0  0  0  0  0  0
  139.6440   76.5610  222.8180 O   0  0  0  0  0  0  0  0  0  0  0  0
  139.7080   75.0770  221.0220 C   0  0  0  0  0  0  0  0  0  0  0  0
  139.7190   74.0650  222.0610 N   0  0  0  0  0  0  0  0  0  0  0  0
  139.9340   72.6870  221.7870 C   0  0  0  0  0  0  0  0  0  0  0  0
  140.1240   72.3110  220.6000 O   0  0  0  0  0  0  0  0  0  0  0  0
  139.9270   71.7300  222.9090 C   0  0  0  0  0  0  0  0  0  0  0  0
  139.4260   70.4740  222.7960 C   0  0  0  0  0  0  0  0  0  0  0  0
  139.4170   69.5740  223.8390 C   0  0  0  0  0  0  0  0  0  0  0  0
  139.9410   69.9600  225.0620 C   0  0  0  0  0  0  0  0  0  0  0  0
  139.9640   69.1170  226.1380 C   0  0  0  0  0  0  0  0  0  0  0  0
  140.5010   69.5660  227.3280 C   0  0  0  0  0  0  0  0  0  0  0  0
  140.5450   68.5180  228.7210 Cl  0  0  0  0  0  0  0  0  0  0  0  0
  141.0170   70.8460  227.4620 C   0  0  0  0  0  0  0  0  0  0  0  0
  140.9730   71.6530  226.3570 C   0  0  0  0  0  0  0  0  0  0  0  0
  140.4450   71.2420  225.1530 C   0  0  0  0  0  0  0  0  0  0  0  0
  140.4380   72.0880  224.1220 N   0  0  0  0  0  0  0  0  0  0  0  0
  142.8514   79.9005  223.7796 H   0  0  0  0  0  0  0  0  0  0  0  0
  143.4877   79.2415  222.2345 H   0  0  0  0  0  0  0  0  0  0  0  0
  142.5190   80.7542  222.2345 H   0  0  0  0  0  0  0  0  0  0  0  0
  141.7441   77.9631  222.8029 H   0  0  0  0  0  0  0  0  0  0  0  0
  140.6017   79.3681  224.5159 H   0  0  0  0  0  0  0  0  0  0  0  0
  140.1513   80.5878  223.2765 H   0  0  0  0  0  0  0  0  0  0  0  0
  139.3626   78.9739  223.2765 H   0  0  0  0  0  0  0  0  0  0  0  0
  139.9359   79.3702  221.0842 H   0  0  0  0  0  0  0  0  0  0  0  0
  141.6523   79.0772  220.4764 H   0  0  0  0  0  0  0  0  0  0  0  0
  140.7620   77.1380  219.8170 H   0  0  0  0  0  0  0  0  0  0  0  0
  138.7262   75.0793  220.5259 H   0  0  0  0  0  0  0  0  0  0  0  0
  140.4957   74.8504  220.2884 H   0  0  0  0  0  0  0  0  0  0  0  0
  139.5640   74.3380  223.0730 H   0  0  0  0  0  0  0  0  0  0  0  0
  139.0082   70.1603  221.8280 H   0  0  0  0  0  0  0  0  0  0  0  0
  139.0005   68.5651  223.7029 H   0  0  0  0  0  0  0  0  0  0  0  0
  139.5609   68.0967  226.0569 H   0  0  0  0  0  0  0  0  0  0  0  0
  141.4426   71.1973  228.4135 H   0  0  0  0  0  0  0  0  0  0  0  0
  141.3766   72.6734  226.4339 H   0  0  0  0  0  0  0  0  0  0  0  0
  1  2  1  0
  2  3  1  0
  2  4  1  0
  4  5  1  0
  5  6  1  0
  6  7  2  0
  6  8  1  0
  8  9  1  0
  9 10  1  0
 10 11  2  0
 10 12  1  0
 12 13  2  0
 13 14  1  0
 14 15  2  0
 15 16  1  0
 16 17  2  0
 17 18  1  0
 17 19  1  0
 19 20  2  0
 20 21  1  0
 21 22  2  0
 22 12  1  0
 21 15  1  0
  1 23  1  0
  1 24  1  0
  1 25  1  0
  2 26  1  0
  3 27  1  0
  3 28  1  0
  3 29  1  0
  4 30  1  0
  4 31  1  0
  5 32  1  0
  8 33  1  0
  8 34  1  0
  9 35  1  0
 13 36  1  0
 14 37  1  0
 16 38  1  0
 19 39  1  0
 20 40  1  0
M  END
>  <smiles>  (11) 
CC(C)CNC(=O)CNC(=O)c1ccc2cc(Cl)ccc2n1

>  <score_type>  (11) 
oracle

>  <origin>  (11) 
autodockgpu

>  <m_score__min__energy>  (11) 
-7.7000000000000002

>  <m_primary>  (11) 
energy

>  <rmsd>  (11) 
3.366568311526087

>  <m_score__min__rmsd>  (11) 
3.366568311526087

>  <meeko>  (11) 
{"free_energy": -6.84, "intermolecular_energy": -8.33, "internal_energy": -1.44, "cluster_size": 33, "cluster_id": 1, "rank_in_cluster": 13}

>  <energy>  (11) 
-6.99

>  <cluster_rmsd>  (11) 
0.73

>  <cluster>  (11) 
1

$$$$

     RDKit          3D

 40 41  0  0  0  0  0  0  0  0999 V2000
  141.1930   67.7610  226.4660 C   0  0  0  0  0  0  0  0  0  0  0  0
  140.2790   68.6350  227.2390 C   0  0  0  0  0  0  0  0  0  0  0  0
  141.0820   69.7600  227.9270 C   0  0  0  0  0  0  0  0  0  0  0  0
  139.0830   69.2100  226.5690 C   0  0  0  0  0  0  0  0  0  0  0  0
  139.2520   69.5650  225.1980 N   0  0  0  0  0  0  0  0  0  0  0  0
  139.7450   70.7530  224.6490 C   0  0  0  0  0  0  0  0  0  0  0  0
  140.1200   71.7430  225.3120 O   0  0  0  0  0  0  0  0  0  0  0  0
  139.8430   70.8850  223.1620 C   0  0  0  0  0  0  0  0  0  0  0  0
  140.1640   72.2550  222.8070 N   0  0  0  0  0  0  0  0  0  0  0  0
  140.7990   72.6020  221.5840 C   0  0  0  0  0  0  0  0  0  0  0  0
  141.1020   71.6970  220.7630 O   0  0  0  0  0  0  0  0  0  0  0  0
  141.0860   74.0210  221.3100 C   0  0  0  0  0  0  0  0  0  0  0  0
  141.8690   74.4230  220.2770 C   0  0  0  0  0  0  0  0  0  0  0  0
  142.1420   75.7480  220.0140 C   0  0  0  0  0  0  0  0  0  0  0  0
  141.5950   76.7200  220.8360 C   0  0  0  0  0  0  0  0  0  0  0  0
  141.8250   78.0520  220.6310 C   0  0  0  0  0  0  0  0  0  0  0  0
  141.2490   78.9690  221.4890 C   0  0  0  0  0  0  0  0  0  0  0  0
  141.5210   80.6760  221.2580 Cl  0  0  0  0  0  0  0  0  0  0  0  0
  140.4470   78.5770  222.5490 C   0  0  0  0  0  0  0  0  0  0  0  0
  140.2460   77.2330  222.7130 C   0  0  0  0  0  0  0  0  0  0  0  0
  140.8020   76.2880  221.8790 C   0  0  0  0  0  0  0  0  0  0  0  0
  140.5590   74.9970  222.1050 N   0  0  0  0  0  0  0  0  0  0  0  0
  141.8100   67.1710  227.1597 H   0  0  0  0  0  0  0  0  0  0  0  0
  140.6029   67.0826  225.8323 H   0  0  0  0  0  0  0  0  0  0  0  0
  141.8444   68.3808  225.8323 H   0  0  0  0  0  0  0  0  0  0  0  0
  139.8306   67.9253  227.9498 H   0  0  0  0  0  0  0  0  0  0  0  0
  141.0042   69.6510  229.0188 H   0  0  0  0  0  0  0  0  0  0  0  0
  142.1380   69.6935  227.6262 H   0  0  0  0  0  0  0  0  0  0  0  0
  140.6759   70.7370  227.6262 H   0  0  0  0  0  0  0  0  0  0  0  0
  138.2731   68.4680  226.6285 H   0  0  0  0  0  0  0  0  0  0  0  0
  138.8668   70.1503  227.0974 H   0  0  0  0  0  0  0  0  0  0  0  0
  138.9630   68.8160  224.4860 H   0  0  0  0  0  0  0  0  0  0  0  0
  140.6327   70.2169  222.7879 H   0  0  0  0  0  0  0  0  0  0  0  0
  138.8784   70.6107  222.7101 H   0  0  0  0  0  0  0  0  0  0  0  0
  139.9250   73.0470  223.4690 H   0  0  0  0  0  0  0  0  0  0  0  0
  142.3056   73.6565  219.6198 H   0  0  0  0  0  0  0  0  0  0  0  0
  142.7834   76.0292  219.1657 H   0  0  0  0  0  0  0  0  0  0  0  0
  142.4582   78.3881  219.7967 H   0  0  0  0  0  0  0  0  0  0  0  0
  139.9922   79.3131  223.2283 H   0  0  0  0  0  0  0  0  0  0  0  0
  139.6135   76.8930  223.5463 H   0  0  0  0  0  0  0  0  0  0  0  0
  1  2  1  0
  2  3  1  0
  2  4  1  0
  4  5  1  0
  5  6  1  0
  6  7  2  0
  6  8  1  0
  8  9  1  0
  9 10  1  0
 10 11  2  0
 10 12  1  0
 12 13  2  0
 13 14  1  0
 14 15  2  0
 15 16  1  0
 16 17  2  0
 17 18  1  0
 17 19  1  0
 19 20  2  0
 20 21  1  0
 21 22  2  0
 22 12  1  0
 21 15  1  0
  1 23  1  0
  1 24  1  0
  1 25  1  0
  2 26  1  0
  3 27  1  0
  3 28  1  0
  3 29  1  0
  4 30  1  0
  4 31  1  0
  5 32  1  0
  8 33  1  0
  8 34  1  0
  9 35  1  0
 13 36  1  0
 14 37  1  0
 16 38  1  0
 19 39  1  0
 20 40  1  0
M  END
>  <smiles>  (12) 
CC(C)CNC(=O)CNC(=O)c1ccc2cc(Cl)ccc2n1

>  <score_type>  (12) 
oracle

>  <origin>  (12) 
autodockgpu

>  <m_score__min__energy>  (12) 
-7.7000000000000002

>  <m_primary>  (12) 
energy

>  <rmsd>  (12) 
8.817365367367055

>  <m_score__min__rmsd>  (12) 
8.817365367367055

>  <meeko>  (12) 
{"free_energy": -6.24, "intermolecular_energy": -7.73, "internal_energy": -1.59, "cluster_size": 13, "cluster_id": 2, "rank_in_cluster": 13}

>  <energy>  (12) 
-6.92

>  <cluster_rmsd>  (12) 
1.06

>  <cluster>  (12) 
1

$$$$

     RDKit          3D

 40 41  0  0  0  0  0  0  0  0999 V2000
  142.5770   79.7810  222.4970 C   0  0  0  0  0  0  0  0  0  0  0  0
  141.3620   78.9480  222.3310 C   0  0  0  0  0  0  0  0  0  0  0  0
  140.2470   79.4460  223.2740 C   0  0  0  0  0  0  0  0  0  0  0  0
  140.8080   78.7330  220.9680 C   0  0  0  0  0  0  0  0  0  0  0  0
  140.3430   77.4130  220.6910 N   0  0  0  0  0  0  0  0  0  0  0  0
  140.1260   76.3510  221.5740 C   0  0  0  0  0  0  0  0  0  0  0  0
  140.3300   76.3950  222.8060 O   0  0  0  0  0  0  0  0  0  0  0  0
  139.6140   75.0490  221.0420 C   0  0  0  0  0  0  0  0  0  0  0  0
  139.6570   74.0380  222.0800 N   0  0  0  0  0  0  0  0  0  0  0  0
  139.8080   72.6530  221.7970 C   0  0  0  0  0  0  0  0  0  0  0  0
  139.9100   72.2710  220.6010 O   0  0  0  0  0  0  0  0  0  0  0  0
  139.8400   71.6980  222.9190 C   0  0  0  0  0  0  0  0  0  0  0  0
  139.3450   70.4380  222.8210 C   0  0  0  0  0  0  0  0  0  0  0  0
  139.3720   69.5390  223.8650 C   0  0  0  0  0  0  0  0  0  0  0  0
  139.9280   69.9300  225.0720 C   0  0  0  0  0  0  0  0  0  0  0  0
  139.9880   69.0880  226.1470 C   0  0  0  0  0  0  0  0  0  0  0  0
  140.5560   69.5420  227.3220 C   0  0  0  0  0  0  0  0  0  0  0  0
  140.6470   68.4960  228.7140 Cl  0  0  0  0  0  0  0  0  0  0  0  0
  141.0670   70.8250  227.4390 C   0  0  0  0  0  0  0  0  0  0  0  0
  140.9850   71.6320  226.3360 C   0  0  0  0  0  0  0  0  0  0  0  0
  140.4260   71.2150  225.1480 C   0  0  0  0  0  0  0  0  0  0  0  0
  140.3830   72.0600  224.1170 N   0  0  0  0  0  0  0  0  0  0  0  0
  142.7817   79.9214  223.5686 H   0  0  0  0  0  0  0  0  0  0  0  0
  143.4333   79.2791  222.0228 H   0  0  0  0  0  0  0  0  0  0  0  0
  142.4175   80.7606  222.0228 H   0  0  0  0  0  0  0  0  0  0  0  0
  141.7349   77.9468  222.5928 H   0  0  0  0  0  0  0  0  0  0  0  0
  140.5608   79.3059  224.3189 H   0  0  0  0  0  0  0  0  0  0  0  0
  140.0589   80.5137  223.0877 H   0  0  0  0  0  0  0  0  0  0  0  0
  139.3264   78.8735  223.0877 H   0  0  0  0  0  0  0  0  0  0  0  0
  139.9630   79.4243  220.8336 H   0  0  0  0  0  0  0  0  0  0  0  0
  141.6427   78.9091  220.2735 H   0  0  0  0  0  0  0  0  0  0  0  0
  140.1280   77.2030  219.6610 H   0  0  0  0  0  0  0  0  0  0  0  0
  138.5760   75.1776  220.7015 H   0  0  0  0  0  0  0  0  0  0  0  0
  140.2459   74.7294  220.2002 H   0  0  0  0  0  0  0  0  0  0  0  0
  139.5760   74.3160  223.0990 H   0  0  0  0  0  0  0  0  0  0  0  0
  138.9025   70.1203  221.8654 H   0  0  0  0  0  0  0  0  0  0  0  0
  138.9586   68.5271  223.7419 H   0  0  0  0  0  0  0  0  0  0  0  0
  139.5903   68.0647  226.0778 H   0  0  0  0  0  0  0  0  0  0  0  0
  141.5188   71.1795  228.3772 H   0  0  0  0  0  0  0  0  0  0  0  0
  141.3820   72.6558  226.4012 H   0  0  0  0  0  0  0  0  0  0  0  0
  1  2  1  0
  2  3  1  0
  2  4  1  0
  4  5  1  0
  5  6  1  0
  6  7  2  0
  6  8  1  0
  8  9  1  0
  9 10  1  0
 10 11  2  0
 10 12  1  0
 12 13  2  0
 13 14  1  0
 14 15  2  0
 15 16  1  0
 16 17  2  0
 17 18  1  0
 17 19  1  0
 19 20  2  0
 20 21  1  0
 21 22  2  0
 22 12  1  0
 21 15  1  0
  1 23  1  0
  1 24  1  0
  1 25  1  0
  2 26  1  0
  3 27  1  0
  3 28  1  0
  3 29  1  0
  4 30  1  0
  4 31  1  0
  5 32  1  0
  8 33  1  0
  8 34  1  0
  9 35  1  0
 13 36  1  0
 14 37  1  0
 16 38  1  0
 19 39  1  0
 20 40  1  0
M  END
>  <smiles>  (13) 
CC(C)CNC(=O)CNC(=O)c1ccc2cc(Cl)ccc2n1

>  <score_type>  (13) 
oracle

>  <origin>  (13) 
autodockgpu

>  <m_score__min__energy>  (13) 
-7.7000000000000002

>  <m_primary>  (13) 
energy

>  <rmsd>  (13) 
3.263433800546253

>  <m_score__min__rmsd>  (13) 
3.263433800546253

>  <meeko>  (13) 
{"free_energy": -6.79, "intermolecular_energy": -8.29, "internal_energy": -1.42, "cluster_size": 33, "cluster_id": 1, "rank_in_cluster": 15}

>  <energy>  (13) 
-6.84

>  <cluster_rmsd>  (13) 
0.89

>  <cluster>  (13) 
1

$$$$

     RDKit          3D

 40 41  0  0  0  0  0  0  0  0999 V2000
  140.0950   80.3450  223.1170 C   0  0  0  0  0  0  0  0  0  0  0  0
  141.2200   79.4880  222.6730 C   0  0  0  0  0  0  0  0  0  0  0  0
  142.5240   80.3110  222.6270 C   0  0  0  0  0  0  0  0  0  0  0  0
  141.4670   78.1950  223.3650 C   0  0  0  0  0  0  0  0  0  0  0  0
  141.0440   77.0280  222.6620 N   0  0  0  0  0  0  0  0  0  0  0  0
  139.8110   76.7580  222.0620 C   0  0  0  0  0  0  0  0  0  0  0  0
  138.8330   77.5340  222.0610 O   0  0  0  0  0  0  0  0  0  0  0  0
  139.6090   75.4510  221.3610 C   0  0  0  0  0  0  0  0  0  0  0  0
  139.6530   74.3630  222.3190 N   0  0  0  0  0  0  0  0  0  0  0  0
  139.9510   73.0240  221.9470 C   0  0  0  0  0  0  0  0  0  0  0  0
  140.1890   72.7530  220.7410 O   0  0  0  0  0  0  0  0  0  0  0  0
  139.9710   71.9840  222.9910 C   0  0  0  0  0  0  0  0  0  0  0  0
  139.5230   70.7210  222.7750 C   0  0  0  0  0  0  0  0  0  0  0  0
  139.5400   69.7430  223.7460 C   0  0  0  0  0  0  0  0  0  0  0  0
  140.0340   70.0550  225.0020 C   0  0  0  0  0  0  0  0  0  0  0  0
  140.0790   69.1320  226.0090 C   0  0  0  0  0  0  0  0  0  0  0  0
  140.5840   69.5090  227.2390 C   0  0  0  0  0  0  0  0  0  0  0  0
  140.6560   68.3580  228.5470 Cl  0  0  0  0  0  0  0  0  0  0  0  0
  141.0460   70.7940  227.4780 C   0  0  0  0  0  0  0  0  0  0  0  0
  140.9800   71.6820  226.4380 C   0  0  0  0  0  0  0  0  0  0  0  0
  140.4840   71.3440  225.1980 C   0  0  0  0  0  0  0  0  0  0  0  0
  140.4530   72.2670  224.2360 N   0  0  0  0  0  0  0  0  0  0  0  0
  140.0638   80.3687  224.2163 H   0  0  0  0  0  0  0  0  0  0  0  0
  140.2374   81.3656  222.7321 H   0  0  0  0  0  0  0  0  0  0  0  0
  139.1489   79.9367  222.7321 H   0  0  0  0  0  0  0  0  0  0  0  0
  140.8789   79.1607  221.6798 H   0  0  0  0  0  0  0  0  0  0  0  0
  142.8601   80.5231  223.6527 H   0  0  0  0  0  0  0  0  0  0  0  0
  143.3002   79.7388  222.0977 H   0  0  0  0  0  0  0  0  0  0  0  0
  142.3415   81.2579  222.0977 H   0  0  0  0  0  0  0  0  0  0  0  0
  142.5489   78.1085  223.5441 H   0  0  0  0  0  0  0  0  0  0  0  0
  140.8645   78.2266  224.2848 H   0  0  0  0  0  0  0  0  0  0  0  0
  141.7750   76.2460  222.5800 H   0  0  0  0  0  0  0  0  0  0  0  0
  138.6306   75.4545  220.8583 H   0  0  0  0  0  0  0  0  0  0  0  0
  140.4089   75.3116  220.6189 H   0  0  0  0  0  0  0  0  0  0  0  0
  139.4590   74.5470  223.3440 H   0  0  0  0  0  0  0  0  0  0  0  0
  139.1286   70.4666  221.7801 H   0  0  0  0  0  0  0  0  0  0  0  0
  139.1674   68.7314  223.5272 H   0  0  0  0  0  0  0  0  0  0  0  0
  139.7191   68.1058  225.8432 H   0  0  0  0  0  0  0  0  0  0  0  0
  141.4476   71.0870  228.4592 H   0  0  0  0  0  0  0  0  0  0  0  0
  141.3384   72.7094  226.5995 H   0  0  0  0  0  0  0  0  0  0  0  0
  1  2  1  0
  2  3  1  0
  2  4  1  0
  4  5  1  0
  5  6  1  0
  6  7  2  0
  6  8  1  0
  8  9  1  0
  9 10  1  0
 10 11  2  0
 10 12  1  0
 12 13  2  0
 13 14  1  0
 14 15  2  0
 15 16  1  0
 16 17  2  0
 17 18  1  0
 17 19  1  0
 19 20  2  0
 20 21  1  0
 21 22  2  0
 22 12  1  0
 21 15  1  0
  1 23  1  0
  1 24  1  0
  1 25  1  0
  2 26  1  0
  3 27  1  0
  3 28  1  0
  3 29  1  0
  4 30  1  0
  4 31  1  0
  5 32  1  0
  8 33  1  0
  8 34  1  0
  9 35  1  0
 13 36  1  0
 14 37  1  0
 16 38  1  0
 19 39  1  0
 20 40  1  0
M  END
>  <smiles>  (14) 
CC(C)CNC(=O)CNC(=O)c1ccc2cc(Cl)ccc2n1

>  <score_type>  (14) 
oracle

>  <origin>  (14) 
autodockgpu

>  <m_score__min__energy>  (14) 
-7.7000000000000002

>  <m_primary>  (14) 
energy

>  <rmsd>  (14) 
3.7219219760059636

>  <m_score__min__rmsd>  (14) 
3.7219219760059636

>  <meeko>  (14) 
{"free_energy": -7.45, "intermolecular_energy": -8.94, "internal_energy": -0.92, "cluster_size": 33, "cluster_id": 1, "rank_in_cluster": 8}

>  <energy>  (14) 
-6.8

>  <cluster_rmsd>  (14) 
0.9

>  <cluster>  (14) 
1

$$$$

     RDKit          3D

 40 41  0  0  0  0  0  0  0  0999 V2000
  141.7430   79.9440  221.1950 C   0  0  0  0  0  0  0  0  0  0  0  0
  142.2170   79.3470  222.4660 C   0  0  0  0  0  0  0  0  0  0  0  0
  142.7070   80.4560  223.4210 C   0  0  0  0  0  0  0  0  0  0  0  0
  141.3330   78.4050  223.2020 C   0  0  0  0  0  0  0  0  0  0  0  0
  141.0080   77.1980  222.5150 N   0  0  0  0  0  0  0  0  0  0  0  0
  139.7690   76.7640  222.0330 C   0  0  0  0  0  0  0  0  0  0  0  0
  138.6980   77.3960  222.1500 O   0  0  0  0  0  0  0  0  0  0  0  0
  139.6800   75.4500  221.3220 C   0  0  0  0  0  0  0  0  0  0  0  0
  139.7160   74.3640  222.2820 N   0  0  0  0  0  0  0  0  0  0  0  0
  139.9710   73.0170  221.9080 C   0  0  0  0  0  0  0  0  0  0  0  0
  140.1760   72.7370  220.6970 O   0  0  0  0  0  0  0  0  0  0  0  0
  139.9880   71.9800  222.9550 C   0  0  0  0  0  0  0  0  0  0  0  0
  139.5400   70.7160  222.7400 C   0  0  0  0  0  0  0  0  0  0  0  0
  139.5520   69.7410  223.7130 C   0  0  0  0  0  0  0  0  0  0  0  0
  140.0440   70.0550  224.9700 C   0  0  0  0  0  0  0  0  0  0  0  0
  140.0860   69.1340  225.9800 C   0  0  0  0  0  0  0  0  0  0  0  0
  140.5880   69.5130  227.2090 C   0  0  0  0  0  0  0  0  0  0  0  0
  140.6560   68.3660  228.5210 Cl  0  0  0  0  0  0  0  0  0  0  0  0
  141.0500   70.7980  227.4470 C   0  0  0  0  0  0  0  0  0  0  0  0
  140.9880   71.6850  226.4050 C   0  0  0  0  0  0  0  0  0  0  0  0
  140.4950   71.3440  225.1640 C   0  0  0  0  0  0  0  0  0  0  0  0
  140.4670   72.2640  224.2000 N   0  0  0  0  0  0  0  0  0  0  0  0
  141.0727   80.7882  221.4140 H   0  0  0  0  0  0  0  0  0  0  0  0
  142.6056   80.3019  220.6138 H   0  0  0  0  0  0  0  0  0  0  0  0
  141.1988   79.1850  220.6138 H   0  0  0  0  0  0  0  0  0  0  0  0
  143.0253   78.6865  222.1191 H   0  0  0  0  0  0  0  0  0  0  0  0
  142.5641   80.1325  224.4626 H   0  0  0  0  0  0  0  0  0  0  0  0
  143.7746   80.6500  223.2405 H   0  0  0  0  0  0  0  0  0  0  0  0
  142.1316   81.3759  223.2405 H   0  0  0  0  0  0  0  0  0  0  0  0
  141.8358   78.1341  224.1421 H   0  0  0  0  0  0  0  0  0  0  0  0
  140.3800   78.9359  223.3432 H   0  0  0  0  0  0  0  0  0  0  0  0
  141.8280   76.5280  222.3400 H   0  0  0  0  0  0  0  0  0  0  0  0
  138.7378   75.4050  220.7561 H   0  0  0  0  0  0  0  0  0  0  0  0
  140.5329   75.3528  220.6342 H   0  0  0  0  0  0  0  0  0  0  0  0
  139.5500   74.5560  223.3110 H   0  0  0  0  0  0  0  0  0  0  0  0
  139.1500   70.4593  221.7440 H   0  0  0  0  0  0  0  0  0  0  0  0
  139.1773   68.7298  223.4959 H   0  0  0  0  0  0  0  0  0  0  0  0
  139.7256   68.1078  225.8159 H   0  0  0  0  0  0  0  0  0  0  0  0
  141.4487   71.0924  228.4290 H   0  0  0  0  0  0  0  0  0  0  0  0
  141.3467   72.7124  226.5654 H   0  0  0  0  0  0  0  0  0  0  0  0
  1  2  1  0
  2  3  1  0
  2  4  1  0
  4  5  1  0
  5  6  1  0
  6  7  2  0
  6  8  1  0
  8  9  1  0
  9 10  1  0
 10 11  2  0
 10 12  1  0
 12 13  2  0
 13 14  1  0
 14 15  2  0
 15 16  1  0
 16 17  2  0
 17 18  1  0
 17 19  1  0
 19 20  2  0
 20 21  1  0
 21 22  2  0
 22 12  1  0
 21 15  1  0
  1 23  1  0
  1 24  1  0
  1 25  1  0
  2 26  1  0
  3 27  1  0
  3 28  1  0
  3 29  1  0
  4 30  1  0
  4 31  1  0
  5 32  1  0
  8 33  1  0
  8 34  1  0
  9 35  1  0
 13 36  1  0
 14 37  1  0
 16 38  1  0
 19 39  1  0
 20 40  1  0
M  END
>  <smiles>  (15) 
CC(C)CNC(=O)CNC(=O)c1ccc2cc(Cl)ccc2n1

>  <score_type>  (15) 
oracle

>  <origin>  (15) 
autodockgpu

>  <m_score__min__energy>  (15) 
-7.7000000000000002

>  <m_primary>  (15) 
energy

>  <rmsd>  (15) 
3.546770342520713

>  <m_score__min__rmsd>  (15) 
3.546770342520713

>  <meeko>  (15) 
{"free_energy": -7.63, "intermolecular_energy": -9.13, "internal_energy": -0.91, "cluster_size": 33, "cluster_id": 1, "rank_in_cluster": 5}

>  <energy>  (15) 
-6.79

>  <cluster_rmsd>  (15) 
1.03

>  <cluster>  (15) 
1

$$$$

     RDKit          3D

 40 41  0  0  0  0  0  0  0  0999 V2000
  141.4840   78.6400  223.4770 C   0  0  0  0  0  0  0  0  0  0  0  0
  140.7160   79.6130  222.6640 C   0  0  0  0  0  0  0  0  0  0  0  0
  141.6830   80.5210  221.8750 C   0  0  0  0  0  0  0  0  0  0  0  0
  139.6420   79.1200  221.7620 C   0  0  0  0  0  0  0  0  0  0  0  0
  139.7710   77.7670  221.3280 N   0  0  0  0  0  0  0  0  0  0  0  0
  139.3590   76.5930  221.9660 C   0  0  0  0  0  0  0  0  0  0  0  0
  138.7960   76.5470  223.0800 O   0  0  0  0  0  0  0  0  0  0  0  0
  139.5940   75.2760  221.2970 C   0  0  0  0  0  0  0  0  0  0  0  0
  139.6430   74.2180  222.2880 N   0  0  0  0  0  0  0  0  0  0  0  0
  139.9410   72.8690  221.9570 C   0  0  0  0  0  0  0  0  0  0  0  0
  140.1740   72.5600  220.7580 O   0  0  0  0  0  0  0  0  0  0  0  0
  139.9680   71.8620  223.0320 C   0  0  0  0  0  0  0  0  0  0  0  0
  139.5310   70.5890  222.8540 C   0  0  0  0  0  0  0  0  0  0  0  0
  139.5540   69.6420  223.8550 C   0  0  0  0  0  0  0  0  0  0  0  0
  140.0420   69.9970  225.1020 C   0  0  0  0  0  0  0  0  0  0  0  0
  140.0930   69.1060  226.1380 C   0  0  0  0  0  0  0  0  0  0  0  0
  140.5910   69.5250  227.3560 C   0  0  0  0  0  0  0  0  0  0  0  0
  140.6700   68.4170  228.7000 Cl  0  0  0  0  0  0  0  0  0  0  0  0
  141.0410   70.8210  227.5560 C   0  0  0  0  0  0  0  0  0  0  0  0
  140.9700   71.6760  226.4900 C   0  0  0  0  0  0  0  0  0  0  0  0
  140.4800   71.2950  225.2600 C   0  0  0  0  0  0  0  0  0  0  0  0
  140.4440   72.1870  224.2690 N   0  0  0  0  0  0  0  0  0  0  0  0
  141.3216   78.8458  224.5453 H   0  0  0  0  0  0  0  0  0  0  0  0
  141.1452   77.6196  223.2445 H   0  0  0  0  0  0  0  0  0  0  0  0
  142.5551   78.7326  223.2445 H   0  0  0  0  0  0  0  0  0  0  0  0
  140.1454   80.1532  223.4338 H   0  0  0  0  0  0  0  0  0  0  0  0
  142.2992   81.0996  222.5789 H   0  0  0  0  0  0  0  0  0  0  0  0
  142.3343   79.9005  221.2419 H   0  0  0  0  0  0  0  0  0  0  0  0
  141.1047   81.2100  221.2419 H   0  0  0  0  0  0  0  0  0  0  0  0
  138.6840   79.2143  222.2942 H   0  0  0  0  0  0  0  0  0  0  0  0
  139.7092   79.7344  220.8521 H   0  0  0  0  0  0  0  0  0  0  0  0
  140.2500   77.6290  220.3780 H   0  0  0  0  0  0  0  0  0  0  0  0
  138.7755   75.0753  220.5901 H   0  0  0  0  0  0  0  0  0  0  0  0
  140.5523   75.3106  220.7581 H   0  0  0  0  0  0  0  0  0  0  0  0
  139.4540   74.4350  223.3080 H   0  0  0  0  0  0  0  0  0  0  0  0
  139.1412   70.3005  221.8667 H   0  0  0  0  0  0  0  0  0  0  0  0
  139.1908   68.6209  223.6669 H   0  0  0  0  0  0  0  0  0  0  0  0
  139.7429   68.0719  226.0034 H   0  0  0  0  0  0  0  0  0  0  0  0
  141.4376   71.1475  228.5287 H   0  0  0  0  0  0  0  0  0  0  0  0
  141.3188   72.7110  226.6206 H   0  0  0  0  0  0  0  0  0  0  0  0
  1  2  1  0
  2  3  1  0
  2  4  1  0
  4  5  1  0
  5  6  1  0
  6  7  2  0
  6  8  1  0
  8  9  1  0
  9 10  1  0
 10 11  2  0
 10 12  1  0
 12 13  2  0
 13 14  1  0
 14 15  2  0
 15 16  1  0
 16 17  2  0
 17 18  1  0
 17 19  1  0
 19 20  2  0
 20 21  1  0
 21 22  2  0
 22 12  1  0
 21 15  1  0
  1 23  1  0
  1 24  1  0
  1 25  1  0
  2 26  1  0
  3 27  1  0
  3 28  1  0
  3 29  1  0
  4 30  1  0
  4 31  1  0
  5 32  1  0
  8 33  1  0
  8 34  1  0
  9 35  1  0
 13 36  1  0
 14 37  1  0
 16 38  1  0
 19 39  1  0
 20 40  1  0
M  END
>  <smiles>  (16) 
CC(C)CNC(=O)CNC(=O)c1ccc2cc(Cl)ccc2n1

>  <score_type>  (16) 
oracle

>  <origin>  (16) 
autodockgpu

>  <m_score__min__energy>  (16) 
-7.7000000000000002

>  <m_primary>  (16) 
energy

>  <rmsd>  (16) 
3.51005083167323

>  <m_score__min__rmsd>  (16) 
3.51005083167323

>  <meeko>  (16) 
{"free_energy": -6.6, "intermolecular_energy": -8.09, "internal_energy": -1.46, "cluster_size": 33, "cluster_id": 1, "rank_in_cluster": 27}

>  <energy>  (16) 
-6.74

>  <cluster_rmsd>  (16) 
0.85

>  <cluster>  (16) 
1

$$$$

     RDKit          3D

 40 41  0  0  0  0  0  0  0  0999 V2000
  142.6200   80.0550  222.7270 C   0  0  0  0  0  0  0  0  0  0  0  0
  141.4630   79.1630  222.4740 C   0  0  0  0  0  0  0  0  0  0  0  0
  140.2810   79.5610  223.3840 C   0  0  0  0  0  0  0  0  0  0  0  0
  140.9820   78.9740  221.0800 C   0  0  0  0  0  0  0  0  0  0  0  0
  140.3840   77.7090  220.8000 N   0  0  0  0  0  0  0  0  0  0  0  0
  140.3580   76.5520  221.5840 C   0  0  0  0  0  0  0  0  0  0  0  0
  140.8970   76.4390  222.7050 O   0  0  0  0  0  0  0  0  0  0  0  0
  139.6450   75.3390  221.0740 C   0  0  0  0  0  0  0  0  0  0  0  0
  139.6710   74.2920  222.0770 N   0  0  0  0  0  0  0  0  0  0  0  0
  139.8380   72.9190  221.7490 C   0  0  0  0  0  0  0  0  0  0  0  0
  139.9700   72.5800  220.5430 O   0  0  0  0  0  0  0  0  0  0  0  0
  139.8510   71.9250  222.8370 C   0  0  0  0  0  0  0  0  0  0  0  0
  139.3300   70.6800  222.6960 C   0  0  0  0  0  0  0  0  0  0  0  0
  139.3390   69.7440  223.7080 C   0  0  0  0  0  0  0  0  0  0  0  0
  139.9040   70.0820  224.9280 C   0  0  0  0  0  0  0  0  0  0  0  0
  139.9470   69.2020  225.9720 C   0  0  0  0  0  0  0  0  0  0  0  0
  140.5250   69.6030  227.1610 C   0  0  0  0  0  0  0  0  0  0  0  0
  140.5960   68.5070  228.5160 Cl  0  0  0  0  0  0  0  0  0  0  0  0
  141.0630   70.8700  227.3230 C   0  0  0  0  0  0  0  0  0  0  0  0
  140.9970   71.7160  226.2480 C   0  0  0  0  0  0  0  0  0  0  0  0
  140.4290   71.3530  225.0470 C   0  0  0  0  0  0  0  0  0  0  0  0
  140.4030   72.2340  224.0460 N   0  0  0  0  0  0  0  0  0  0  0  0
  142.7660   80.1675  223.8115 H   0  0  0  0  0  0  0  0  0  0  0  0
  143.5246   79.6183  222.2786 H   0  0  0  0  0  0  0  0  0  0  0  0
  142.4278   81.0409  222.2786 H   0  0  0  0  0  0  0  0  0  0  0  0
  141.8801   78.1738  222.7139 H   0  0  0  0  0  0  0  0  0  0  0  0
  140.5796   79.4605  224.4379 H   0  0  0  0  0  0  0  0  0  0  0  0
  139.9972   80.6042  223.1812 H   0  0  0  0  0  0  0  0  0  0  0  0
  139.4240   78.9019  223.1812 H   0  0  0  0  0  0  0  0  0  0  0  0
  140.2359   79.7547  220.8707 H   0  0  0  0  0  0  0  0  0  0  0  0
  141.8767   79.0314  220.4427 H   0  0  0  0  0  0  0  0  0  0  0  0
  139.8800   77.6340  219.8550 H   0  0  0  0  0  0  0  0  0  0  0  0
  138.6009   75.5990  220.8454 H   0  0  0  0  0  0  0  0  0  0  0  0
  140.1472   74.9803  220.1635 H   0  0  0  0  0  0  0  0  0  0  0  0
  139.5650   74.5340  223.1030 H   0  0  0  0  0  0  0  0  0  0  0  0
  138.8801   70.4052  221.7305 H   0  0  0  0  0  0  0  0  0  0  0  0
  138.9051   68.7456  223.5501 H   0  0  0  0  0  0  0  0  0  0  0  0
  139.5281   68.1903  225.8676 H   0  0  0  0  0  0  0  0  0  0  0  0
  141.5224   71.1821  228.2725 H   0  0  0  0  0  0  0  0  0  0  0  0
  141.4154   72.7284  226.3481 H   0  0  0  0  0  0  0  0  0  0  0  0
  1  2  1  0
  2  3  1  0
  2  4  1  0
  4  5  1  0
  5  6  1  0
  6  7  2  0
  6  8  1  0
  8  9  1  0
  9 10  1  0
 10 11  2  0
 10 12  1  0
 12 13  2  0
 13 14  1  0
 14 15  2  0
 15 16  1  0
 16 17  2  0
 17 18  1  0
 17 19  1  0
 19 20  2  0
 20 21  1  0
 21 22  2  0
 22 12  1  0
 21 15  1  0
  1 23  1  0
  1 24  1  0
  1 25  1  0
  2 26  1  0
  3 27  1  0
  3 28  1  0
  3 29  1  0
  4 30  1  0
  4 31  1  0
  5 32  1  0
  8 33  1  0
  8 34  1  0
  9 35  1  0
 13 36  1  0
 14 37  1  0
 16 38  1  0
 19 39  1  0
 20 40  1  0
M  END
>  <smiles>  (17) 
CC(C)CNC(=O)CNC(=O)c1ccc2cc(Cl)ccc2n1

>  <score_type>  (17) 
oracle

>  <origin>  (17) 
autodockgpu

>  <m_score__min__energy>  (17) 
-7.7000000000000002

>  <m_primary>  (17) 
energy

>  <rmsd>  (17) 
3.460665484501506

>  <m_score__min__rmsd>  (17) 
3.460665484501506

>  <meeko>  (17) 
{"free_energy": -6.92, "intermolecular_energy": -8.41, "internal_energy": -1.27, "cluster_size": 33, "cluster_id": 1, "rank_in_cluster": 12}

>  <energy>  (17) 
-6.74

>  <cluster_rmsd>  (17) 
0.88

>  <cluster>  (17) 
1

$$$$

     RDKit          3D

 40 41  0  0  0  0  0  0  0  0999 V2000
  142.5700   79.7990  222.7360 C   0  0  0  0  0  0  0  0  0  0  0  0
  141.3260   79.0130  222.5590 C   0  0  0  0  0  0  0  0  0  0  0  0
  140.2180   79.5660  223.4810 C   0  0  0  0  0  0  0  0  0  0  0  0
  140.7840   78.8070  221.1910 C   0  0  0  0  0  0  0  0  0  0  0  0
  140.4890   77.4560  220.8400 N   0  0  0  0  0  0  0  0  0  0  0  0
  139.9630   76.4330  221.6350 C   0  0  0  0  0  0  0  0  0  0  0  0
  139.6670   76.5490  222.8430 O   0  0  0  0  0  0  0  0  0  0  0  0
  139.7240   75.0860  221.0300 C   0  0  0  0  0  0  0  0  0  0  0  0
  139.7190   74.0710  222.0660 N   0  0  0  0  0  0  0  0  0  0  0  0
  139.9410   72.6940  221.7930 C   0  0  0  0  0  0  0  0  0  0  0  0
  140.1520   72.3210  220.6090 O   0  0  0  0  0  0  0  0  0  0  0  0
  139.9170   71.7350  222.9120 C   0  0  0  0  0  0  0  0  0  0  0  0
  139.3900   70.4890  222.7960 C   0  0  0  0  0  0  0  0  0  0  0  0
  139.3640   69.5860  223.8370 C   0  0  0  0  0  0  0  0  0  0  0  0
  139.8980   69.9590  225.0600 C   0  0  0  0  0  0  0  0  0  0  0  0
  139.9050   69.1120  226.1330 C   0  0  0  0  0  0  0  0  0  0  0  0
  140.4530   69.5470  227.3240 C   0  0  0  0  0  0  0  0  0  0  0  0
  140.4780   68.4940  228.7140 Cl  0  0  0  0  0  0  0  0  0  0  0  0
  140.9950   70.8150  227.4610 C   0  0  0  0  0  0  0  0  0  0  0  0
  140.9650   71.6270  226.3580 C   0  0  0  0  0  0  0  0  0  0  0  0
  140.4280   71.2290  225.1540 C   0  0  0  0  0  0  0  0  0  0  0  0
  140.4360   72.0780  224.1260 N   0  0  0  0  0  0  0  0  0  0  0  0
  142.7731   79.9273  223.8094 H   0  0  0  0  0  0  0  0  0  0  0  0
  143.4099   79.2672  222.2649 H   0  0  0  0  0  0  0  0  0  0  0  0
  142.4504   80.7858  222.2649 H   0  0  0  0  0  0  0  0  0  0  0  0
  141.6544   78.0000  222.8347 H   0  0  0  0  0  0  0  0  0  0  0  0
  140.5090   79.4208  224.5318 H   0  0  0  0  0  0  0  0  0  0  0  0
  140.0789   80.6392  223.2841 H   0  0  0  0  0  0  0  0  0  0  0  0
  139.2767   79.0320  223.2841 H   0  0  0  0  0  0  0  0  0  0  0  0
  139.8549   79.3894  221.1042 H   0  0  0  0  0  0  0  0  0  0  0  0
  141.5783   79.1295  220.5018 H   0  0  0  0  0  0  0  0  0  0  0  0
  140.6980   77.1840  219.8230 H   0  0  0  0  0  0  0  0  0  0  0  0
  138.7522   75.0853  220.5146 H   0  0  0  0  0  0  0  0  0  0  0  0
  140.5272   74.8650  220.3117 H   0  0  0  0  0  0  0  0  0  0  0  0
  139.5460   74.3410  223.0760 H   0  0  0  0  0  0  0  0  0  0  0  0
  138.9647   70.1866  221.8277 H   0  0  0  0  0  0  0  0  0  0  0  0
  138.9267   68.5861  223.6992 H   0  0  0  0  0  0  0  0  0  0  0  0
  139.4811   68.1004  226.0493 H   0  0  0  0  0  0  0  0  0  0  0  0
  141.4298   71.1543  228.4127 H   0  0  0  0  0  0  0  0  0  0  0  0
  141.3876   72.6395  226.4374 H   0  0  0  0  0  0  0  0  0  0  0  0
  1  2  1  0
  2  3  1  0
  2  4  1  0
  4  5  1  0
  5  6  1  0
  6  7  2  0
  6  8  1  0
  8  9  1  0
  9 10  1  0
 10 11  2  0
 10 12  1  0
 12 13  2  0
 13 14  1  0
 14 15  2  0
 15 16  1  0
 16 17  2  0
 17 18  1  0
 17 19  1  0
 19 20  2  0
 20 21  1  0
 21 22  2  0
 22 12  1  0
 21 15  1  0
  1 23  1  0
  1 24  1  0
  1 25  1  0
  2 26  1  0
  3 27  1  0
  3 28  1  0
  3 29  1  0
  4 30  1  0
  4 31  1  0
  5 32  1  0
  8 33  1  0
  8 34  1  0
  9 35  1  0
 13 36  1  0
 14 37  1  0
 16 38  1  0
 19 39  1  0
 20 40  1  0
M  END
>  <smiles>  (18) 
CC(C)CNC(=O)CNC(=O)c1ccc2cc(Cl)ccc2n1

>  <score_type>  (18) 
oracle

>  <origin>  (18) 
autodockgpu

>  <m_score__min__energy>  (18) 
-7.7000000000000002

>  <m_primary>  (18) 
energy

>  <rmsd>  (18) 
3.377156089959137

>  <m_score__min__rmsd>  (18) 
3.377156089959137

>  <meeko>  (18) 
{"free_energy": -6.8, "intermolecular_energy": -8.3, "internal_energy": -1.45, "cluster_size": 33, "cluster_id": 1, "rank_in_cluster": 14}

>  <energy>  (18) 
-6.72

>  <cluster_rmsd>  (18) 
0.91

>  <cluster>  (18) 
1

$$$$

     RDKit          3D

 40 41  0  0  0  0  0  0  0  0999 V2000
  139.7210   79.3500  222.8710 C   0  0  0  0  0  0  0  0  0  0  0  0
  141.0220   79.5670  222.1940 C   0  0  0  0  0  0  0  0  0  0  0  0
  142.1780   79.3730  223.1980 C   0  0  0  0  0  0  0  0  0  0  0  0
  141.3200   78.8320  220.9370 C   0  0  0  0  0  0  0  0  0  0  0  0
  140.5690   77.6380  220.7270 N   0  0  0  0  0  0  0  0  0  0  0  0
  140.4120   76.5350  221.5720 C   0  0  0  0  0  0  0  0  0  0  0  0
  140.9440   76.4160  222.6960 O   0  0  0  0  0  0  0  0  0  0  0  0
  139.5510   75.3930  221.1320 C   0  0  0  0  0  0  0  0  0  0  0  0
  139.6130   74.3210  222.1070 N   0  0  0  0  0  0  0  0  0  0  0  0
  139.7400   72.9550  221.7390 C   0  0  0  0  0  0  0  0  0  0  0  0
  139.8020   72.6430  220.5200 O   0  0  0  0  0  0  0  0  0  0  0  0
  139.7940   71.9350  222.8010 C   0  0  0  0  0  0  0  0  0  0  0  0
  139.3330   70.6700  222.6250 C   0  0  0  0  0  0  0  0  0  0  0  0
  139.3810   69.7100  223.6130 C   0  0  0  0  0  0  0  0  0  0  0  0
  139.9220   70.0430  224.8450 C   0  0  0  0  0  0  0  0  0  0  0  0
  140.0010   69.1390  225.8670 C   0  0  0  0  0  0  0  0  0  0  0  0
  140.5520   69.5360  227.0700 C   0  0  0  0  0  0  0  0  0  0  0  0
  140.6670   68.4110  228.3960 Cl  0  0  0  0  0  0  0  0  0  0  0  0
  141.0270   70.8230  227.2670 C   0  0  0  0  0  0  0  0  0  0  0  0
  140.9270   71.6930  226.2140 C   0  0  0  0  0  0  0  0  0  0  0  0
  140.3840   71.3340  225.0000 C   0  0  0  0  0  0  0  0  0  0  0  0
  140.3220   72.2380  224.0220 N   0  0  0  0  0  0  0  0  0  0  0  0
  139.8664   79.3742  223.9611 H   0  0  0  0  0  0  0  0  0  0  0  0
  139.0179   80.1433  222.5771 H   0  0  0  0  0  0  0  0  0  0  0  0
  139.3134   78.3715  222.5771 H   0  0  0  0  0  0  0  0  0  0  0  0
  140.9246   80.6040  221.8403 H   0  0  0  0  0  0  0  0  0  0  0  0
  141.7873   79.4386  224.2242 H   0  0  0  0  0  0  0  0  0  0  0  0
  142.6367   78.3853  223.0427 H   0  0  0  0  0  0  0  0  0  0  0  0
  142.9340   80.1568  223.0427 H   0  0  0  0  0  0  0  0  0  0  0  0
  141.1207   79.5096  220.0937 H   0  0  0  0  0  0  0  0  0  0  0  0
  142.3707   78.5159  221.0158 H   0  0  0  0  0  0  0  0  0  0  0  0
  140.0500   77.5750  219.7900 H   0  0  0  0  0  0  0  0  0  0  0  0
  138.5108   75.7373  221.0348 H   0  0  0  0  0  0  0  0  0  0  0  0
  139.9127   75.0206  220.1622 H   0  0  0  0  0  0  0  0  0  0  0  0
  139.5640   74.5400  223.1430 H   0  0  0  0  0  0  0  0  0  0  0  0
  138.9018   70.3991  221.6500 H   0  0  0  0  0  0  0  0  0  0  0  0
  138.9963   68.6964  223.4268 H   0  0  0  0  0  0  0  0  0  0  0  0
  139.6317   68.1115  225.7337 H   0  0  0  0  0  0  0  0  0  0  0  0
  141.4653   71.1323  228.2274 H   0  0  0  0  0  0  0  0  0  0  0  0
  141.2957   72.7213  226.3431 H   0  0  0  0  0  0  0  0  0  0  0  0
  1  2  1  0
  2  3  1  0
  2  4  1  0
  4  5  1  0
  5  6  1  0
  6  7  2  0
  6  8  1  0
  8  9  1  0
  9 10  1  0
 10 11  2  0
 10 12  1  0
 12 13  2  0
 13 14  1  0
 14 15  2  0
 15 16  1  0
 16 17  2  0
 17 18  1  0
 17 19  1  0
 19 20  2  0
 20 21  1  0
 21 22  2  0
 22 12  1  0
 21 15  1  0
  1 23  1  0
  1 24  1  0
  1 25  1  0
  2 26  1  0
  3 27  1  0
  3 28  1  0
  3 29  1  0
  4 30  1  0
  4 31  1  0
  5 32  1  0
  8 33  1  0
  8 34  1  0
  9 35  1  0
 13 36  1  0
 14 37  1  0
 16 38  1  0
 19 39  1  0
 20 40  1  0
M  END
>  <smiles>  (19) 
CC(C)CNC(=O)CNC(=O)c1ccc2cc(Cl)ccc2n1

>  <score_type>  (19) 
oracle

>  <origin>  (19) 
autodockgpu

>  <m_score__min__energy>  (19) 
-7.7000000000000002

>  <m_primary>  (19) 
energy

>  <rmsd>  (19) 
3.4187818455781116

>  <m_score__min__rmsd>  (19) 
3.4187818455781116

>  <meeko>  (19) 
{"free_energy": -6.71, "intermolecular_energy": -8.2, "internal_energy": -1.34, "cluster_size": 33, "cluster_id": 1, "rank_in_cluster": 19}

>  <energy>  (19) 
-6.71

>  <cluster_rmsd>  (19) 
1.1

>  <cluster>  (19) 
1

$$$$

     RDKit          3D

 40 41  0  0  0  0  0  0  0  0999 V2000
  141.6550   79.8710  221.1740 C   0  0  0  0  0  0  0  0  0  0  0  0
  142.1770   79.2630  222.4210 C   0  0  0  0  0  0  0  0  0  0  0  0
  142.6650   80.3660  223.3830 C   0  0  0  0  0  0  0  0  0  0  0  0
  141.3350   78.2870  223.1620 C   0  0  0  0  0  0  0  0  0  0  0  0
  141.0460   77.0710  222.4740 N   0  0  0  0  0  0  0  0  0  0  0  0
  139.8810   76.6950  221.7990 C   0  0  0  0  0  0  0  0  0  0  0  0
  138.8550   77.4000  221.7010 O   0  0  0  0  0  0  0  0  0  0  0  0
  139.8220   75.3570  221.1330 C   0  0  0  0  0  0  0  0  0  0  0  0
  139.8100   74.3060  222.1330 N   0  0  0  0  0  0  0  0  0  0  0  0
  140.1340   72.9560  221.8320 C   0  0  0  0  0  0  0  0  0  0  0  0
  140.4480   72.6400  220.6530 O   0  0  0  0  0  0  0  0  0  0  0  0
  140.0940   71.9570  222.9140 C   0  0  0  0  0  0  0  0  0  0  0  0
  139.5880   70.7090  222.7400 C   0  0  0  0  0  0  0  0  0  0  0  0
  139.5470   69.7690  223.7470 C   0  0  0  0  0  0  0  0  0  0  0  0
  140.0430   70.1040  224.9970 C   0  0  0  0  0  0  0  0  0  0  0  0
  140.0340   69.2190  226.0380 C   0  0  0  0  0  0  0  0  0  0  0  0
  140.5440   69.6180  227.2580 C   0  0  0  0  0  0  0  0  0  0  0  0
  140.5470   68.5160  228.6100 Cl  0  0  0  0  0  0  0  0  0  0  0  0
  141.0650   70.8870  227.4550 C   0  0  0  0  0  0  0  0  0  0  0  0
  141.0530   71.7380  226.3820 C   0  0  0  0  0  0  0  0  0  0  0  0
  140.5530   71.3770  225.1500 C   0  0  0  0  0  0  0  0  0  0  0  0
  140.5770   72.2630  224.1530 N   0  0  0  0  0  0  0  0  0  0  0  0
  140.9575   80.6834  221.4262 H   0  0  0  0  0  0  0  0  0  0  0  0
  142.4915   80.2755  220.5852 H   0  0  0  0  0  0  0  0  0  0  0  0
  141.1286   79.1054  220.5852 H   0  0  0  0  0  0  0  0  0  0  0  0
  142.9917   78.6289  222.0413 H   0  0  0  0  0  0  0  0  0  0  0  0
  142.5193   80.0368  224.4224 H   0  0  0  0  0  0  0  0  0  0  0  0
  143.7331   80.5604  223.2062 H   0  0  0  0  0  0  0  0  0  0  0  0
  142.0904   81.2872  223.2062 H   0  0  0  0  0  0  0  0  0  0  0  0
  141.8569   78.0310  224.0959 H   0  0  0  0  0  0  0  0  0  0  0  0
  140.3650   78.7829  223.3143 H   0  0  0  0  0  0  0  0  0  0  0  0
  141.8330   76.3420  222.4720 H   0  0  0  0  0  0  0  0  0  0  0  0
  138.9073   75.2924  220.5254 H   0  0  0  0  0  0  0  0  0  0  0  0
  140.7060   75.2340  220.4900 H   0  0  0  0  0  0  0  0  0  0  0  0
  139.5520   74.5280  223.1370 H   0  0  0  0  0  0  0  0  0  0  0  0
  139.1929   70.4359  221.7504 H   0  0  0  0  0  0  0  0  0  0  0  0
  139.1275   68.7692  223.5616 H   0  0  0  0  0  0  0  0  0  0  0  0
  139.6273   68.2054  225.9066 H   0  0  0  0  0  0  0  0  0  0  0  0
  141.4701   71.1969  228.4296 H   0  0  0  0  0  0  0  0  0  0  0  0
  141.4596   72.7522  226.5092 H   0  0  0  0  0  0  0  0  0  0  0  0
  1  2  1  0
  2  3  1  0
  2  4  1  0
  4  5  1  0
  5  6  1  0
  6  7  2  0
  6  8  1  0
  8  9  1  0
  9 10  1  0
 10 11  2  0
 10 12  1  0
 12 13  2  0
 13 14  1  0
 14 15  2  0
 15 16  1  0
 16 17  2  0
 17 18  1  0
 17 19  1  0
 19 20  2  0
 20 21  1  0
 21 22  2  0
 22 12  1  0
 21 15  1  0
  1 23  1  0
  1 24  1  0
  1 25  1  0
  2 26  1  0
  3 27  1  0
  3 28  1  0
  3 29  1  0
  4 30  1  0
  4 31  1  0
  5 32  1  0
  8 33  1  0
  8 34  1  0
  9 35  1  0
 13 36  1  0
 14 37  1  0
 16 38  1  0
 19 39  1  0
 20 40  1  0
M  END
>  <smiles>  (20) 
CC(C)CNC(=O)CNC(=O)c1ccc2cc(Cl)ccc2n1

>  <score_type>  (20) 
oracle

>  <origin>  (20) 
autodockgpu

>  <m_score__min__energy>  (20) 
-7.7000000000000002

>  <m_primary>  (20) 
energy

>  <rmsd>  (20) 
3.5059568791059905

>  <m_score__min__rmsd>  (20) 
3.5059568791059905

>  <meeko>  (20) 
{"free_energy": -7.63, "intermolecular_energy": -9.12, "internal_energy": -0.88, "cluster_size": 33, "cluster_id": 1, "rank_in_cluster": 6}

>  <energy>  (20) 
-6.71

>  <cluster_rmsd>  (20) 
1.27

>  <cluster>  (20) 
1

$$$$

     RDKit          3D

 40 41  0  0  0  0  0  0  0  0999 V2000
  140.7230   70.9190  227.9550 C   0  0  0  0  0  0  0  0  0  0  0  0
  140.7270   69.5960  227.2870 C   0  0  0  0  0  0  0  0  0  0  0  0
  141.0590   68.4890  228.3100 C   0  0  0  0  0  0  0  0  0  0  0  0
  139.5520   69.1890  226.4720 C   0  0  0  0  0  0  0  0  0  0  0  0
  139.5690   69.6110  225.1090 N   0  0  0  0  0  0  0  0  0  0  0  0
  139.8820   70.8660  224.5780 C   0  0  0  0  0  0  0  0  0  0  0  0
  140.1970   71.8670  225.2540 O   0  0  0  0  0  0  0  0  0  0  0  0
  139.8440   71.0620  223.0950 C   0  0  0  0  0  0  0  0  0  0  0  0
  140.1640   72.4390  222.7700 N   0  0  0  0  0  0  0  0  0  0  0  0
  140.7650   72.8160  221.5390 C   0  0  0  0  0  0  0  0  0  0  0  0
  141.0390   71.9330  220.6840 O   0  0  0  0  0  0  0  0  0  0  0  0
  141.0540   74.2410  221.2970 C   0  0  0  0  0  0  0  0  0  0  0  0
  141.8800   74.6620  220.3050 C   0  0  0  0  0  0  0  0  0  0  0  0
  142.1550   75.9920  220.0720 C   0  0  0  0  0  0  0  0  0  0  0  0
  141.5640   76.9500  220.8810 C   0  0  0  0  0  0  0  0  0  0  0  0
  141.7930   78.2860  220.7040 C   0  0  0  0  0  0  0  0  0  0  0  0
  141.1720   79.1880  221.5460 C   0  0  0  0  0  0  0  0  0  0  0  0
  141.4420   80.8990  221.3500 Cl  0  0  0  0  0  0  0  0  0  0  0  0
  140.3250   78.7760  222.5630 C   0  0  0  0  0  0  0  0  0  0  0  0
  140.1270   77.4280  222.7010 C   0  0  0  0  0  0  0  0  0  0  0  0
  140.7280   76.4980  221.8810 C   0  0  0  0  0  0  0  0  0  0  0  0
  140.4840   75.2030  222.0790 N   0  0  0  0  0  0  0  0  0  0  0  0
  140.7234   70.7789  229.0460 H   0  0  0  0  0  0  0  0  0  0  0  0
  141.6195   71.4827  227.6574 H   0  0  0  0  0  0  0  0  0  0  0  0
  139.8232   71.4773  227.6574 H   0  0  0  0  0  0  0  0  0  0  0  0
  141.5076   69.7288  226.5234 H   0  0  0  0  0  0  0  0  0  0  0  0
  140.9404   68.8844  229.3296 H   0  0  0  0  0  0  0  0  0  0  0  0
  140.3763   67.6388  228.1647 H   0  0  0  0  0  0  0  0  0  0  0  0
  142.0969   68.1548  228.1647 H   0  0  0  0  0  0  0  0  0  0  0  0
  139.4956   68.0905  226.4851 H   0  0  0  0  0  0  0  0  0  0  0  0
  138.6833   69.6854  226.9290 H   0  0  0  0  0  0  0  0  0  0  0  0
  139.3080   68.8600  224.3890 H   0  0  0  0  0  0  0  0  0  0  0  0
  140.5787   70.3951  222.6201 H   0  0  0  0  0  0  0  0  0  0  0  0
  138.8350   70.8279  222.7248 H   0  0  0  0  0  0  0  0  0  0  0  0
  139.9500   73.2130  223.4600 H   0  0  0  0  0  0  0  0  0  0  0  0
  142.3510   73.9072  219.6581 H   0  0  0  0  0  0  0  0  0  0  0  0
  142.8323   76.2886  219.2576 H   0  0  0  0  0  0  0  0  0  0  0  0
  142.4611   78.6372  219.9038 H   0  0  0  0  0  0  0  0  0  0  0  0
  139.8336   79.4999  223.2298 H   0  0  0  0  0  0  0  0  0  0  0  0
  139.4600   77.0727  223.5003 H   0  0  0  0  0  0  0  0  0  0  0  0
  1  2  1  0
  2  3  1  0
  2  4  1  0
  4  5  1  0
  5  6  1  0
  6  7  2  0
  6  8  1  0
  8  9  1  0
  9 10  1  0
 10 11  2  0
 10 12  1  0
 12 13  2  0
 13 14  1  0
 14 15  2  0
 15 16  1  0
 16 17  2  0
 17 18  1  0
 17 19  1  0
 19 20  2  0
 20 21  1  0
 21 22  2  0
 22 12  1  0
 21 15  1  0
  1 23  1  0
  1 24  1  0
  1 25  1  0
  2 26  1  0
  3 27  1  0
  3 28  1  0
  3 29  1  0
  4 30  1  0
  4 31  1  0
  5 32  1  0
  8 33  1  0
  8 34  1  0
  9 35  1  0
 13 36  1  0
 14 37  1  0
 16 38  1  0
 19 39  1  0
 20 40  1  0
M  END
>  <smiles>  (21) 
CC(C)CNC(=O)CNC(=O)c1ccc2cc(Cl)ccc2n1

>  <score_type>  (21) 
oracle

>  <origin>  (21) 
autodockgpu

>  <m_score__min__energy>  (21) 
-7.7000000000000002

>  <m_primary>  (21) 
energy

>  <rmsd>  (21) 
8.651040877722643

>  <m_score__min__rmsd>  (21) 
8.651040877722643

>  <meeko>  (21) 
{"free_energy": -6.55, "intermolecular_energy": -8.04, "internal_energy": -1.51, "cluster_size": 13, "cluster_id": 2, "rank_in_cluster": 11}

>  <energy>  (21) 
-6.7

>  <cluster_rmsd>  (21) 
1.07

>  <cluster>  (21) 
1

$$$$

     RDKit          3D

 40 41  0  0  0  0  0  0  0  0999 V2000
  140.6410   69.8810  227.9440 C   0  0  0  0  0  0  0  0  0  0  0  0
  140.6750   70.9790  226.9500 C   0  0  0  0  0  0  0  0  0  0  0  0
  141.2360   72.2620  227.5990 C   0  0  0  0  0  0  0  0  0  0  0  0
  141.3330   70.7520  225.6370 C   0  0  0  0  0  0  0  0  0  0  0  0
  140.5490   71.0730  224.4890 N   0  0  0  0  0  0  0  0  0  0  0  0
  139.2040   70.7890  224.2320 C   0  0  0  0  0  0  0  0  0  0  0  0
  138.4470   70.1660  225.0050 O   0  0  0  0  0  0  0  0  0  0  0  0
  138.5930   71.2480  222.9460 C   0  0  0  0  0  0  0  0  0  0  0  0
  139.0760   72.5750  222.6130 N   0  0  0  0  0  0  0  0  0  0  0  0
  140.2920   72.7960  221.9130 C   0  0  0  0  0  0  0  0  0  0  0  0
  140.9930   71.8110  221.5580 O   0  0  0  0  0  0  0  0  0  0  0  0
  140.7020   74.1800  221.6200 C   0  0  0  0  0  0  0  0  0  0  0  0
  141.6700   74.4810  220.7170 C   0  0  0  0  0  0  0  0  0  0  0  0
  142.0590   75.7740  220.4370 C   0  0  0  0  0  0  0  0  0  0  0  0
  141.4380   76.8190  221.1020 C   0  0  0  0  0  0  0  0  0  0  0  0
  141.7750   78.1230  220.8710 C   0  0  0  0  0  0  0  0  0  0  0  0
  141.1170   79.1170  221.5690 C   0  0  0  0  0  0  0  0  0  0  0  0
  141.5220   80.7920  221.3020 Cl  0  0  0  0  0  0  0  0  0  0  0  0
  140.1260   78.8290  222.4950 C   0  0  0  0  0  0  0  0  0  0  0  0
  139.8240   77.5080  222.6920 C   0  0  0  0  0  0  0  0  0  0  0  0
  140.4570   76.4890  222.0150 C   0  0  0  0  0  0  0  0  0  0  0  0
  140.1060   75.2260  222.2620 N   0  0  0  0  0  0  0  0  0  0  0  0
  140.6541   70.3047  228.9590 H   0  0  0  0  0  0  0  0  0  0  0  0
  139.7241   69.2893  227.8055 H   0  0  0  0  0  0  0  0  0  0  0  0
  141.5195   69.2337  227.8055 H   0  0  0  0  0  0  0  0  0  0  0  0
  139.6150   71.0637  226.6686 H   0  0  0  0  0  0  0  0  0  0  0  0
  141.1946   72.1672  228.6941 H   0  0  0  0  0  0  0  0  0  0  0  0
  142.2795   72.4068  227.2827 H   0  0  0  0  0  0  0  0  0  0  0  0
  140.6337   73.1264  227.2827 H   0  0  0  0  0  0  0  0  0  0  0  0
  142.2455   71.3655  225.6056 H   0  0  0  0  0  0  0  0  0  0  0  0
  141.5213   69.6698  225.5788 H   0  0  0  0  0  0  0  0  0  0  0  0
  141.0610   71.6090  223.7120 H   0  0  0  0  0  0  0  0  0  0  0  0
  138.8668   70.5484  222.1425 H   0  0  0  0  0  0  0  0  0  0  0  0
  137.4990   71.2792  223.0568 H   0  0  0  0  0  0  0  0  0  0  0  0
  138.5170   73.4310  222.8920 H   0  0  0  0  0  0  0  0  0  0  0  0
  142.1664   73.6563  220.1847 H   0  0  0  0  0  0  0  0  0  0  0  0
  142.8492   75.9725  219.6980 H   0  0  0  0  0  0  0  0  0  0  0  0
  142.5576   78.3771  220.1410 H   0  0  0  0  0  0  0  0  0  0  0  0
  139.6058   79.6259  223.0466 H   0  0  0  0  0  0  0  0  0  0  0  0
  139.0427   77.2496  223.4219 H   0  0  0  0  0  0  0  0  0  0  0  0
  1  2  1  0
  2  3  1  0
  2  4  1  0
  4  5  1  0
  5  6  1  0
  6  7  2  0
  6  8  1  0
  8  9  1  0
  9 10  1  0
 10 11  2  0
 10 12  1  0
 12 13  2  0
 13 14  1  0
 14 15  2  0
 15 16  1  0
 16 17  2  0
 17 18  1  0
 17 19  1  0
 19 20  2  0
 20 21  1  0
 21 22  2  0
 22 12  1  0
 21 15  1  0
  1 23  1  0
  1 24  1  0
  1 25  1  0
  2 26  1  0
  3 27  1  0
  3 28  1  0
  3 29  1  0
  4 30  1  0
  4 31  1  0
  5 32  1  0
  8 33  1  0
  8 34  1  0
  9 35  1  0
 13 36  1  0
 14 37  1  0
 16 38  1  0
 19 39  1  0
 20 40  1  0
M  END
>  <smiles>  (22) 
CC(C)CNC(=O)CNC(=O)c1ccc2cc(Cl)ccc2n1

>  <score_type>  (22) 
oracle

>  <origin>  (22) 
autodockgpu

>  <m_score__min__energy>  (22) 
-7.7000000000000002

>  <m_primary>  (22) 
energy

>  <rmsd>  (22) 
8.354156615561354

>  <m_score__min__rmsd>  (22) 
8.354156615561354

>  <meeko>  (22) 
{"free_energy": -6.71, "intermolecular_energy": -8.21, "internal_energy": -1.78, "cluster_size": 13, "cluster_id": 2, "rank_in_cluster": 6}

>  <energy>  (22) 
-6.7

>  <cluster_rmsd>  (22) 
1.34

>  <cluster>  (22) 
1

$$$$

     RDKit          3D

 40 41  0  0  0  0  0  0  0  0999 V2000
  141.4950   78.6390  223.4960 C   0  0  0  0  0  0  0  0  0  0  0  0
  140.8440   79.6130  222.5880 C   0  0  0  0  0  0  0  0  0  0  0  0
  141.9100   80.3380  221.7400 C   0  0  0  0  0  0  0  0  0  0  0  0
  139.7300   79.1600  221.7140 C   0  0  0  0  0  0  0  0  0  0  0  0
  139.7970   77.8030  221.2800 N   0  0  0  0  0  0  0  0  0  0  0  0
  139.3580   76.6460  221.9310 C   0  0  0  0  0  0  0  0  0  0  0  0
  138.8230   76.6230  223.0590 O   0  0  0  0  0  0  0  0  0  0  0  0
  139.5260   75.3200  221.2590 C   0  0  0  0  0  0  0  0  0  0  0  0
  139.5870   74.2650  222.2530 N   0  0  0  0  0  0  0  0  0  0  0  0
  139.9260   72.9230  221.9280 C   0  0  0  0  0  0  0  0  0  0  0  0
  140.1850   72.6200  220.7340 O   0  0  0  0  0  0  0  0  0  0  0  0
  139.9620   71.9190  223.0060 C   0  0  0  0  0  0  0  0  0  0  0  0
  139.5370   70.6420  222.8310 C   0  0  0  0  0  0  0  0  0  0  0  0
  139.5690   69.6970  223.8340 C   0  0  0  0  0  0  0  0  0  0  0  0
  140.0550   70.0590  225.0800 C   0  0  0  0  0  0  0  0  0  0  0  0
  140.1140   69.1710  226.1170 C   0  0  0  0  0  0  0  0  0  0  0  0
  140.6110   69.5960  227.3340 C   0  0  0  0  0  0  0  0  0  0  0  0
  140.7000   68.4910  228.6800 Cl  0  0  0  0  0  0  0  0  0  0  0  0
  141.0490   70.8960  227.5310 C   0  0  0  0  0  0  0  0  0  0  0  0
  140.9700   71.7490  226.4630 C   0  0  0  0  0  0  0  0  0  0  0  0
  140.4820   71.3620  225.2340 C   0  0  0  0  0  0  0  0  0  0  0  0
  140.4370   72.2510  224.2420 N   0  0  0  0  0  0  0  0  0  0  0  0
  141.3030   78.9263  224.5403 H   0  0  0  0  0  0  0  0  0  0  0  0
  141.0858   77.6349  223.3108 H   0  0  0  0  0  0  0  0  0  0  0  0
  142.5793   78.6330  223.3108 H   0  0  0  0  0  0  0  0  0  0  0  0
  140.3295   80.2779  223.2973 H   0  0  0  0  0  0  0  0  0  0  0  0
  142.6346   80.8308  222.4050 H   0  0  0  0  0  0  0  0  0  0  0  0
  142.4328   79.6074  221.1053 H   0  0  0  0  0  0  0  0  0  0  0  0
  141.4226   81.0927  221.1053 H   0  0  0  0  0  0  0  0  0  0  0  0
  138.7897   79.2911  222.2696 H   0  0  0  0  0  0  0  0  0  0  0  0
  139.7976   79.7704  220.8014 H   0  0  0  0  0  0  0  0  0  0  0  0
  140.2460   77.6450  220.3180 H   0  0  0  0  0  0  0  0  0  0  0  0
  138.6724   75.1403  220.5888 H   0  0  0  0  0  0  0  0  0  0  0  0
  140.4607   75.3246  220.6790 H   0  0  0  0  0  0  0  0  0  0  0  0
  139.3770   74.4780  223.2690 H   0  0  0  0  0  0  0  0  0  0  0  0
  139.1496   70.3479  221.8444 H   0  0  0  0  0  0  0  0  0  0  0  0
  139.2145   68.6724  223.6483 H   0  0  0  0  0  0  0  0  0  0  0  0
  139.7712   68.1342  225.9849 H   0  0  0  0  0  0  0  0  0  0  0  0
  141.4429   71.2280  228.5029 H   0  0  0  0  0  0  0  0  0  0  0  0
  141.3105   72.7870  226.5915 H   0  0  0  0  0  0  0  0  0  0  0  0
  1  2  1  0
  2  3  1  0
  2  4  1  0
  4  5  1  0
  5  6  1  0
  6  7  2  0
  6  8  1  0
  8  9  1  0
  9 10  1  0
 10 11  2  0
 10 12  1  0
 12 13  2  0
 13 14  1  0
 14 15  2  0
 15 16  1  0
 16 17  2  0
 17 18  1  0
 17 19  1  0
 19 20  2  0
 20 21  1  0
 21 22  2  0
 22 12  1  0
 21 15  1  0
  1 23  1  0
  1 24  1  0
  1 25  1  0
  2 26  1  0
  3 27  1  0
  3 28  1  0
  3 29  1  0
  4 30  1  0
  4 31  1  0
  5 32  1  0
  8 33  1  0
  8 34  1  0
  9 35  1  0
 13 36  1  0
 14 37  1  0
 16 38  1  0
 19 39  1  0
 20 40  1  0
M  END
>  <smiles>  (23) 
CC(C)CNC(=O)CNC(=O)c1ccc2cc(Cl)ccc2n1

>  <score_type>  (23) 
oracle

>  <origin>  (23) 
autodockgpu

>  <m_score__min__energy>  (23) 
-7.7000000000000002

>  <m_primary>  (23) 
energy

>  <rmsd>  (23) 
3.5087256525596806

>  <m_score__min__rmsd>  (23) 
3.5087256525596806

>  <meeko>  (23) 
{"free_energy": -6.64, "intermolecular_energy": -8.14, "internal_energy": -1.45, "cluster_size": 33, "cluster_id": 1, "rank_in_cluster": 24}

>  <energy>  (23) 
-6.67

>  <cluster_rmsd>  (23) 
1.19

>  <cluster>  (23) 
1

$$$$

     RDKit          3D

 40 41  0  0  0  0  0  0  0  0999 V2000
  142.2780   79.6500  222.4580 C   0  0  0  0  0  0  0  0  0  0  0  0
  141.0740   78.8030  222.2810 C   0  0  0  0  0  0  0  0  0  0  0  0
  139.9270   79.3240  223.1730 C   0  0  0  0  0  0  0  0  0  0  0  0
  140.5640   78.5400  220.9100 C   0  0  0  0  0  0  0  0  0  0  0  0
  140.0320   77.2350  220.6880 N   0  0  0  0  0  0  0  0  0  0  0  0
  139.9960   76.1390  221.5550 C   0  0  0  0  0  0  0  0  0  0  0  0
  140.4610   76.1300  222.7140 O   0  0  0  0  0  0  0  0  0  0  0  0
  139.3630   74.8630  221.0940 C   0  0  0  0  0  0  0  0  0  0  0  0
  139.4790   73.8520  222.1270 N   0  0  0  0  0  0  0  0  0  0  0  0
  139.4590   72.4590  221.8420 C   0  0  0  0  0  0  0  0  0  0  0  0
  139.3360   72.0700  220.6510 O   0  0  0  0  0  0  0  0  0  0  0  0
  139.5840   71.5050  222.9580 C   0  0  0  0  0  0  0  0  0  0  0  0
  139.1410   70.2230  222.8780 C   0  0  0  0  0  0  0  0  0  0  0  0
  139.2550   69.3250  223.9160 C   0  0  0  0  0  0  0  0  0  0  0  0
  139.8450   69.7390  225.0990 C   0  0  0  0  0  0  0  0  0  0  0  0
  139.9900   68.8980  226.1670 C   0  0  0  0  0  0  0  0  0  0  0  0
  140.5880   69.3750  227.3170 C   0  0  0  0  0  0  0  0  0  0  0  0
  140.7870   68.3310  228.7000 Cl  0  0  0  0  0  0  0  0  0  0  0  0
  141.0450   70.6800  227.4180 C   0  0  0  0  0  0  0  0  0  0  0  0
  140.8790   71.4840  226.3220 C   0  0  0  0  0  0  0  0  0  0  0  0
  140.2880   71.0440  225.1580 C   0  0  0  0  0  0  0  0  0  0  0  0
  140.1620   71.8880  224.1330 N   0  0  0  0  0  0  0  0  0  0  0  0
  142.4745   79.7882  223.5314 H   0  0  0  0  0  0  0  0  0  0  0  0
  143.1431   79.1605  221.9869 H   0  0  0  0  0  0  0  0  0  0  0  0
  142.1096   80.6297  221.9869 H   0  0  0  0  0  0  0  0  0  0  0  0
  141.4448   77.8132  222.5856 H   0  0  0  0  0  0  0  0  0  0  0  0
  140.2002   79.1999  224.2313 H   0  0  0  0  0  0  0  0  0  0  0  0
  139.7532   80.3894  222.9617 H   0  0  0  0  0  0  0  0  0  0  0  0
  139.0103   78.7539  222.9617 H   0  0  0  0  0  0  0  0  0  0  0  0
  139.7683   79.2697  220.6996 H   0  0  0  0  0  0  0  0  0  0  0  0
  141.4353   78.6260  220.2441 H   0  0  0  0  0  0  0  0  0  0  0  0
  139.5970   77.0700  219.7210 H   0  0  0  0  0  0  0  0  0  0  0  0
  138.2996   75.0414  220.8763 H   0  0  0  0  0  0  0  0  0  0  0  0
  139.8753   74.5126  220.1858 H   0  0  0  0  0  0  0  0  0  0  0  0
  139.5860   74.1360  223.1420 H   0  0  0  0  0  0  0  0  0  0  0  0
  138.6702   69.8873  221.9422 H   0  0  0  0  0  0  0  0  0  0  0  0
  138.8835   68.2954  223.8074 H   0  0  0  0  0  0  0  0  0  0  0  0
  139.6361   67.8580  226.1114 H   0  0  0  0  0  0  0  0  0  0  0  0
  141.5198   71.0529  228.3375 H   0  0  0  0  0  0  0  0  0  0  0  0
  141.2323   72.5245  226.3732 H   0  0  0  0  0  0  0  0  0  0  0  0
  1  2  1  0
  2  3  1  0
  2  4  1  0
  4  5  1  0
  5  6  1  0
  6  7  2  0
  6  8  1  0
  8  9  1  0
  9 10  1  0
 10 11  2  0
 10 12  1  0
 12 13  2  0
 13 14  1  0
 14 15  2  0
 15 16  1  0
 16 17  2  0
 17 18  1  0
 17 19  1  0
 19 20  2  0
 20 21  1  0
 21 22  2  0
 22 12  1  0
 21 15  1  0
  1 23  1  0
  1 24  1  0
  1 25  1  0
  2 26  1  0
  3 27  1  0
  3 28  1  0
  3 29  1  0
  4 30  1  0
  4 31  1  0
  5 32  1  0
  8 33  1  0
  8 34  1  0
  9 35  1  0
 13 36  1  0
 14 37  1  0
 16 38  1  0
 19 39  1  0
 20 40  1  0
M  END
>  <smiles>  (24) 
CC(C)CNC(=O)CNC(=O)c1ccc2cc(Cl)ccc2n1

>  <score_type>  (24) 
oracle

>  <origin>  (24) 
autodockgpu

>  <m_score__min__energy>  (24) 
-7.7000000000000002

>  <m_primary>  (24) 
energy

>  <rmsd>  (24) 
3.108255300164358

>  <m_score__min__rmsd>  (24) 
3.108255300164358

>  <meeko>  (24) 
{"free_energy": -6.67, "intermolecular_energy": -8.16, "internal_energy": -1.5, "cluster_size": 33, "cluster_id": 1, "rank_in_cluster": 23}

>  <energy>  (24) 
-6.64

>  <cluster_rmsd>  (24) 
0.88

>  <cluster>  (24) 
1

$$$$

     RDKit          3D

 40 41  0  0  0  0  0  0  0  0999 V2000
  140.5720   69.4560  227.7990 C   0  0  0  0  0  0  0  0  0  0  0  0
  140.5120   70.7810  227.1370 C   0  0  0  0  0  0  0  0  0  0  0  0
  141.0480   71.8710  228.0890 C   0  0  0  0  0  0  0  0  0  0  0  0
  141.1160   70.9490  225.7900 C   0  0  0  0  0  0  0  0  0  0  0  0
  140.2180   71.3470  224.7550 N   0  0  0  0  0  0  0  0  0  0  0  0
  139.3770   70.5570  223.9650 C   0  0  0  0  0  0  0  0  0  0  0  0
  139.2900   69.3130  224.0400 O   0  0  0  0  0  0  0  0  0  0  0  0
  138.5050   71.2130  222.9420 C   0  0  0  0  0  0  0  0  0  0  0  0
  139.0170   72.5330  222.6280 N   0  0  0  0  0  0  0  0  0  0  0  0
  140.2040   72.7360  221.8730 C   0  0  0  0  0  0  0  0  0  0  0  0
  140.8510   71.7400  221.4530 O   0  0  0  0  0  0  0  0  0  0  0  0
  140.6480   74.1150  221.6040 C   0  0  0  0  0  0  0  0  0  0  0  0
  141.6410   74.4060  220.7250 C   0  0  0  0  0  0  0  0  0  0  0  0
  142.0610   75.6930  220.4670 C   0  0  0  0  0  0  0  0  0  0  0  0
  141.4470   76.7430  221.1300 C   0  0  0  0  0  0  0  0  0  0  0  0
  141.8150   78.0430  220.9200 C   0  0  0  0  0  0  0  0  0  0  0  0
  141.1610   79.0430  221.6140 C   0  0  0  0  0  0  0  0  0  0  0  0
  141.6050   80.7120  221.3720 Cl  0  0  0  0  0  0  0  0  0  0  0  0
  140.1450   78.7650  222.5150 C   0  0  0  0  0  0  0  0  0  0  0  0
  139.8120   77.4490  222.6910 C   0  0  0  0  0  0  0  0  0  0  0  0
  140.4400   76.4240  222.0170 C   0  0  0  0  0  0  0  0  0  0  0  0
  140.0590   75.1670  222.2430 N   0  0  0  0  0  0  0  0  0  0  0  0
  140.5659   69.5909  228.8907 H   0  0  0  0  0  0  0  0  0  0  0  0
  139.7001   68.8563  227.4988 H   0  0  0  0  0  0  0  0  0  0  0  0
  141.4946   68.9376  227.4988 H   0  0  0  0  0  0  0  0  0  0  0  0
  139.4374   70.8817  226.9248 H   0  0  0  0  0  0  0  0  0  0  0  0
  140.8930   71.5559  229.1314 H   0  0  0  0  0  0  0  0  0  0  0  0
  142.1225   72.0207  227.9071 H   0  0  0  0  0  0  0  0  0  0  0  0
  140.5105   72.8134  227.9071 H   0  0  0  0  0  0  0  0  0  0  0  0
  141.9042   71.7125  225.8658 H   0  0  0  0  0  0  0  0  0  0  0  0
  141.4854   69.9541  225.5006 H   0  0  0  0  0  0  0  0  0  0  0  0
  140.1780   72.4000  224.5540 H   0  0  0  0  0  0  0  0  0  0  0  0
  138.4912   70.6006  222.0283 H   0  0  0  0  0  0  0  0  0  0  0  0
  137.4851   71.3069  223.3432 H   0  0  0  0  0  0  0  0  0  0  0  0
  138.5040   73.3980  222.9620 H   0  0  0  0  0  0  0  0  0  0  0  0
  142.1326   73.5770  220.1948 H   0  0  0  0  0  0  0  0  0  0  0  0
  142.8702   75.8833  219.7466 H   0  0  0  0  0  0  0  0  0  0  0  0
  142.6186   78.2888  220.2102 H   0  0  0  0  0  0  0  0  0  0  0  0
  139.6292   79.5664  223.0643 H   0  0  0  0  0  0  0  0  0  0  0  0
  139.0093   77.1990  223.4003 H   0  0  0  0  0  0  0  0  0  0  0  0
  1  2  1  0
  2  3  1  0
  2  4  1  0
  4  5  1  0
  5  6  1  0
  6  7  2  0
  6  8  1  0
  8  9  1  0
  9 10  1  0
 10 11  2  0
 10 12  1  0
 12 13  2  0
 13 14  1  0
 14 15  2  0
 15 16  1  0
 16 17  2  0
 17 18  1  0
 17 19  1  0
 19 20  2  0
 20 21  1  0
 21 22  2  0
 22 12  1  0
 21 15  1  0
  1 23  1  0
  1 24  1  0
  1 25  1  0
  2 26  1  0
  3 27  1  0
  3 28  1  0
  3 29  1  0
  4 30  1  0
  4 31  1  0
  5 32  1  0
  8 33  1  0
  8 34  1  0
  9 35  1  0
 13 36  1  0
 14 37  1  0
 16 38  1  0
 19 39  1  0
 20 40  1  0
M  END
>  <smiles>  (25) 
CC(C)CNC(=O)CNC(=O)c1ccc2cc(Cl)ccc2n1

>  <score_type>  (25) 
oracle

>  <origin>  (25) 
autodockgpu

>  <m_score__min__energy>  (25) 
-7.7000000000000002

>  <m_primary>  (25) 
energy

>  <rmsd>  (25) 
8.386705016339093

>  <m_score__min__rmsd>  (25) 
8.386705016339093

>  <meeko>  (25) 
{"free_energy": -6.81, "intermolecular_energy": -8.31, "internal_energy": -1.25, "cluster_size": 13, "cluster_id": 2, "rank_in_cluster": 1}

>  <energy>  (25) 
-6.63

>  <cluster_rmsd>  (25) 
0.97

>  <cluster>  (25) 
1

$$$$

     RDKit          3D

 40 41  0  0  0  0  0  0  0  0999 V2000
  142.3160   80.7990  222.6250 C   0  0  0  0  0  0  0  0  0  0  0  0
  141.9110   79.3850  222.4440 C   0  0  0  0  0  0  0  0  0  0  0  0
  141.7820   78.6920  223.8170 C   0  0  0  0  0  0  0  0  0  0  0  0
  140.7210   79.0700  221.6100 C   0  0  0  0  0  0  0  0  0  0  0  0
  140.6060   77.7140  221.1840 N   0  0  0  0  0  0  0  0  0  0  0  0
  139.9000   76.6610  221.7740 C   0  0  0  0  0  0  0  0  0  0  0  0
  139.2370   76.7500  222.8290 O   0  0  0  0  0  0  0  0  0  0  0  0
  139.9180   75.3140  221.1240 C   0  0  0  0  0  0  0  0  0  0  0  0
  139.8380   74.2750  222.1340 N   0  0  0  0  0  0  0  0  0  0  0  0
  140.3140   72.9540  221.9150 C   0  0  0  0  0  0  0  0  0  0  0  0
  140.8290   72.6550  220.8050 O   0  0  0  0  0  0  0  0  0  0  0  0
  140.1900   71.9660  223.0010 C   0  0  0  0  0  0  0  0  0  0  0  0
  139.5910   70.7600  222.8280 C   0  0  0  0  0  0  0  0  0  0  0  0
  139.4710   69.8300  223.8380 C   0  0  0  0  0  0  0  0  0  0  0  0
  139.9840   70.1310  225.0890 C   0  0  0  0  0  0  0  0  0  0  0  0
  139.8990   69.2540  226.1340 C   0  0  0  0  0  0  0  0  0  0  0  0
  140.4310   69.6170  227.3560 C   0  0  0  0  0  0  0  0  0  0  0  0
  140.3410   68.5230  228.7120 Cl  0  0  0  0  0  0  0  0  0  0  0  0
  141.0470   70.8430  227.5520 C   0  0  0  0  0  0  0  0  0  0  0  0
  141.1070   71.6880  226.4760 C   0  0  0  0  0  0  0  0  0  0  0  0
  140.5890   71.3620  225.2410 C   0  0  0  0  0  0  0  0  0  0  0  0
  140.6870   72.2380  224.2420 N   0  0  0  0  0  0  0  0  0  0  0  0
  142.3813   81.0271  223.6991 H   0  0  0  0  0  0  0  0  0  0  0  0
  143.2971   80.9624  222.1551 H   0  0  0  0  0  0  0  0  0  0  0  0
  141.5702   81.4570  222.1551 H   0  0  0  0  0  0  0  0  0  0  0  0
  142.7364   78.9885  221.8345 H   0  0  0  0  0  0  0  0  0  0  0  0
  141.9202   79.4344  224.6169 H   0  0  0  0  0  0  0  0  0  0  0  0
  140.7840   78.2382  223.9064 H   0  0  0  0  0  0  0  0  0  0  0  0
  142.5499   77.9095  223.9064 H   0  0  0  0  0  0  0  0  0  0  0  0
  139.8231   79.3178  222.1951 H   0  0  0  0  0  0  0  0  0  0  0  0
  140.8328   79.6645  220.6913 H   0  0  0  0  0  0  0  0  0  0  0  0
  141.1330   77.4640  220.2830 H   0  0  0  0  0  0  0  0  0  0  0  0
  139.0589   75.2267  220.4426 H   0  0  0  0  0  0  0  0  0  0  0  0
  140.8549   75.1977  220.5594 H   0  0  0  0  0  0  0  0  0  0  0  0
  139.4130   74.4850  223.0810 H   0  0  0  0  0  0  0  0  0  0  0  0
  139.1829   70.5139  221.8366 H   0  0  0  0  0  0  0  0  0  0  0  0
  138.9762   68.8650  223.6538 H   0  0  0  0  0  0  0  0  0  0  0  0
  139.4148   68.2749  226.0039 H   0  0  0  0  0  0  0  0  0  0  0  0
  141.4688   71.1247  228.5281 H   0  0  0  0  0  0  0  0  0  0  0  0
  141.5891   72.6686  226.6027 H   0  0  0  0  0  0  0  0  0  0  0  0
  1  2  1  0
  2  3  1  0
  2  4  1  0
  4  5  1  0
  5  6  1  0
  6  7  2  0
  6  8  1  0
  8  9  1  0
  9 10  1  0
 10 11  2  0
 10 12  1  0
 12 13  2  0
 13 14  1  0
 14 15  2  0
 15 16  1  0
 16 17  2  0
 17 18  1  0
 17 19  1  0
 19 20  2  0
 20 21  1  0
 21 22  2  0
 22 12  1  0
 21 15  1  0
  1 23  1  0
  1 24  1  0
  1 25  1  0
  2 26  1  0
  3 27  1  0
  3 28  1  0
  3 29  1  0
  4 30  1  0
  4 31  1  0
  5 32  1  0
  8 33  1  0
  8 34  1  0
  9 35  1  0
 13 36  1  0
 14 37  1  0
 16 38  1  0
 19 39  1  0
 20 40  1  0
M  END
>  <smiles>  (26) 
CC(C)CNC(=O)CNC(=O)c1ccc2cc(Cl)ccc2n1

>  <score_type>  (26) 
oracle

>  <origin>  (26) 
autodockgpu

>  <m_score__min__energy>  (26) 
-7.7000000000000002

>  <m_primary>  (26) 
energy

>  <rmsd>  (26) 
3.5715943681330917

>  <m_score__min__rmsd>  (26) 
3.5715943681330917

>  <meeko>  (26) 
{"free_energy": -6.99, "intermolecular_energy": -8.48, "internal_energy": -1.29, "cluster_size": 33, "cluster_id": 1, "rank_in_cluster": 11}

>  <energy>  (26) 
-6.63

>  <cluster_rmsd>  (26) 
1.26

>  <cluster>  (26) 
1

$$$$

     RDKit          3D

 40 41  0  0  0  0  0  0  0  0999 V2000
  141.7680   78.6070  223.4670 C   0  0  0  0  0  0  0  0  0  0  0  0
  140.6530   79.5170  223.1100 C   0  0  0  0  0  0  0  0  0  0  0  0
  141.1760   80.9610  222.9620 C   0  0  0  0  0  0  0  0  0  0  0  0
  139.7780   79.1780  221.9570 C   0  0  0  0  0  0  0  0  0  0  0  0
  139.8610   77.8320  221.4920 N   0  0  0  0  0  0  0  0  0  0  0  0
  139.3030   76.6740  222.0410 C   0  0  0  0  0  0  0  0  0  0  0  0
  138.6210   76.6380  223.0870 O   0  0  0  0  0  0  0  0  0  0  0  0
  139.5190   75.3620  221.3550 C   0  0  0  0  0  0  0  0  0  0  0  0
  139.5900   74.2950  222.3360 N   0  0  0  0  0  0  0  0  0  0  0  0
  139.8870   72.9500  221.9860 C   0  0  0  0  0  0  0  0  0  0  0  0
  140.1010   72.6540  220.7810 O   0  0  0  0  0  0  0  0  0  0  0  0
  139.9370   71.9340  223.0520 C   0  0  0  0  0  0  0  0  0  0  0  0
  139.5240   70.6550  222.8630 C   0  0  0  0  0  0  0  0  0  0  0  0
  139.5670   69.6980  223.8550 C   0  0  0  0  0  0  0  0  0  0  0  0
  140.0540   70.0500  225.1040 C   0  0  0  0  0  0  0  0  0  0  0  0
  140.1250   69.1510  226.1310 C   0  0  0  0  0  0  0  0  0  0  0  0
  140.6200   69.5670  227.3510 C   0  0  0  0  0  0  0  0  0  0  0  0
  140.7250   68.4470  228.6840 Cl  0  0  0  0  0  0  0  0  0  0  0  0
  141.0470   70.8690  227.5620 C   0  0  0  0  0  0  0  0  0  0  0  0
  140.9560   71.7330  226.5040 C   0  0  0  0  0  0  0  0  0  0  0  0
  140.4680   71.3550  225.2720 C   0  0  0  0  0  0  0  0  0  0  0  0
  140.4120   72.2560  224.2900 N   0  0  0  0  0  0  0  0  0  0  0  0
  141.8503   78.5399  224.5619 H   0  0  0  0  0  0  0  0  0  0  0  0
  141.5726   77.6072  223.0520 H   0  0  0  0  0  0  0  0  0  0  0  0
  142.7083   78.9989  223.0520 H   0  0  0  0  0  0  0  0  0  0  0  0
  139.9724   79.3894  223.9647 H   0  0  0  0  0  0  0  0  0  0  0  0
  141.3342   81.3977  223.9591 H   0  0  0  0  0  0  0  0  0  0  0  0
  142.1278   80.9515  222.4107 H   0  0  0  0  0  0  0  0  0  0  0  0
  140.4389   81.5632  222.4107 H   0  0  0  0  0  0  0  0  0  0  0  0
  138.7366   79.3688  222.2555 H   0  0  0  0  0  0  0  0  0  0  0  0
  140.1251   79.8053  221.1227 H   0  0  0  0  0  0  0  0  0  0  0  0
  140.4300   77.6860  220.5940 H   0  0  0  0  0  0  0  0  0  0  0  0
  138.6831   75.1689  220.6665 H   0  0  0  0  0  0  0  0  0  0  0  0
  140.4639   75.3995  220.7931 H   0  0  0  0  0  0  0  0  0  0  0  0
  139.4170   74.5020  223.3600 H   0  0  0  0  0  0  0  0  0  0  0  0
  139.1375   70.3688  221.8737 H   0  0  0  0  0  0  0  0  0  0  0  0
  139.2207   68.6726  223.6583 H   0  0  0  0  0  0  0  0  0  0  0  0
  139.7929   68.1121  225.9878 H   0  0  0  0  0  0  0  0  0  0  0  0
  141.4414   71.1934  228.5363 H   0  0  0  0  0  0  0  0  0  0  0  0
  141.2864   72.7729  226.6432 H   0  0  0  0  0  0  0  0  0  0  0  0
  1  2  1  0
  2  3  1  0
  2  4  1  0
  4  5  1  0
  5  6  1  0
  6  7  2  0
  6  8  1  0
  8  9  1  0
  9 10  1  0
 10 11  2  0
 10 12  1  0
 12 13  2  0
 13 14  1  0
 14 15  2  0
 15 16  1  0
 16 17  2  0
 17 18  1  0
 17 19  1  0
 19 20  2  0
 20 21  1  0
 21 22  2  0
 22 12  1  0
 21 15  1  0
  1 23  1  0
  1 24  1  0
  1 25  1  0
  2 26  1  0
  3 27  1  0
  3 28  1  0
  3 29  1  0
  4 30  1  0
  4 31  1  0
  5 32  1  0
  8 33  1  0
  8 34  1  0
  9 35  1  0
 13 36  1  0
 14 37  1  0
 16 38  1  0
 19 39  1  0
 20 40  1  0
M  END
>  <smiles>  (27) 
CC(C)CNC(=O)CNC(=O)c1ccc2cc(Cl)ccc2n1

>  <score_type>  (27) 
oracle

>  <origin>  (27) 
autodockgpu

>  <m_score__min__energy>  (27) 
-7.7000000000000002

>  <m_primary>  (27) 
energy

>  <rmsd>  (27) 
3.6434741438476093

>  <m_score__min__rmsd>  (27) 
3.6434741438476093

>  <meeko>  (27) 
{"free_energy": -6.74, "intermolecular_energy": -8.23, "internal_energy": -1.39, "cluster_size": 33, "cluster_id": 1, "rank_in_cluster": 17}

>  <energy>  (27) 
-6.6

>  <cluster_rmsd>  (27) 
0.88

>  <cluster>  (27) 
1

$$$$

     RDKit          3D

 40 41  0  0  0  0  0  0  0  0999 V2000
  144.5280   74.5260  220.4270 C   0  0  0  0  0  0  0  0  0  0  0  0
  143.6770   73.7390  219.5030 C   0  0  0  0  0  0  0  0  0  0  0  0
  143.2420   72.4220  220.1790 C   0  0  0  0  0  0  0  0  0  0  0  0
  142.5020   74.3870  218.8650 C   0  0  0  0  0  0  0  0  0  0  0  0
  141.2940   74.3620  219.6230 N   0  0  0  0  0  0  0  0  0  0  0  0
  140.9220   75.1510  220.7150 C   0  0  0  0  0  0  0  0  0  0  0  0
  141.6350   76.0380  221.2300 O   0  0  0  0  0  0  0  0  0  0  0  0
  139.5790   74.9460  221.3420 C   0  0  0  0  0  0  0  0  0  0  0  0
  139.6540   73.9000  222.3430 N   0  0  0  0  0  0  0  0  0  0  0  0
  139.8470   72.5320  222.0110 C   0  0  0  0  0  0  0  0  0  0  0  0
  139.9580   72.1960  220.8020 O   0  0  0  0  0  0  0  0  0  0  0  0
  139.9090   71.5380  223.0970 C   0  0  0  0  0  0  0  0  0  0  0  0
  139.4930   70.2560  222.9410 C   0  0  0  0  0  0  0  0  0  0  0  0
  139.5490   69.3210  223.9520 C   0  0  0  0  0  0  0  0  0  0  0  0
  140.0520   69.6990  225.1870 C   0  0  0  0  0  0  0  0  0  0  0  0
  140.1370   68.8210  226.2320 C   0  0  0  0  0  0  0  0  0  0  0  0
  140.6480   69.2630  227.4360 C   0  0  0  0  0  0  0  0  0  0  0  0
  140.7700   68.1720  228.7910 Cl  0  0  0  0  0  0  0  0  0  0  0  0
  141.0780   70.5690  227.6140 C   0  0  0  0  0  0  0  0  0  0  0  0
  140.9740   71.4100  226.5390 C   0  0  0  0  0  0  0  0  0  0  0  0
  140.4700   71.0070  225.3220 C   0  0  0  0  0  0  0  0  0  0  0  0
  140.4010   71.8860  224.3220 N   0  0  0  0  0  0  0  0  0  0  0  0
  144.2639   74.2817  221.4665 H   0  0  0  0  0  0  0  0  0  0  0  0
  145.5856   74.2807  220.2501 H   0  0  0  0  0  0  0  0  0  0  0  0
  144.3660   75.5995  220.2501 H   0  0  0  0  0  0  0  0  0  0  0  0
  144.3517   73.5855  218.6479 H   0  0  0  0  0  0  0  0  0  0  0  0
  143.2811   72.5405  221.2719 H   0  0  0  0  0  0  0  0  0  0  0  0
  142.2145   72.1750  219.8735 H   0  0  0  0  0  0  0  0  0  0  0  0
  143.9202   71.6116  219.8735 H   0  0  0  0  0  0  0  0  0  0  0  0
  142.7590   75.4393  218.6736 H   0  0  0  0  0  0  0  0  0  0  0  0
  142.2965   73.8050  217.9545 H   0  0  0  0  0  0  0  0  0  0  0  0
  140.5660   73.6370  219.3120 H   0  0  0  0  0  0  0  0  0  0  0  0
  139.2521   75.8825  221.8174 H   0  0  0  0  0  0  0  0  0  0  0  0
  138.8586   74.6512  220.5647 H   0  0  0  0  0  0  0  0  0  0  0  0
  139.5650   74.1390  223.3720 H   0  0  0  0  0  0  0  0  0  0  0  0
  139.0929   69.9490  221.9634 H   0  0  0  0  0  0  0  0  0  0  0  0
  139.2003   68.2918  223.7816 H   0  0  0  0  0  0  0  0  0  0  0  0
  139.8036   67.7793  226.1152 H   0  0  0  0  0  0  0  0  0  0  0  0
  141.4846   70.9139  228.5761 H   0  0  0  0  0  0  0  0  0  0  0  0
  141.3071   72.4523  226.6518 H   0  0  0  0  0  0  0  0  0  0  0  0
  1  2  1  0
  2  3  1  0
  2  4  1  0
  4  5  1  0
  5  6  1  0
  6  7  2  0
  6  8  1  0
  8  9  1  0
  9 10  1  0
 10 11  2  0
 10 12  1  0
 12 13  2  0
 13 14  1  0
 14 15  2  0
 15 16  1  0
 16 17  2  0
 17 18  1  0
 17 19  1  0
 19 20  2  0
 20 21  1  0
 21 22  2  0
 22 12  1  0
 21 15  1  0
  1 23  1  0
  1 24  1  0
  1 25  1  0
  2 26  1  0
  3 27  1  0
  3 28  1  0
  3 29  1  0
  4 30  1  0
  4 31  1  0
  5 32  1  0
  8 33  1  0
  8 34  1  0
  9 35  1  0
 13 36  1  0
 14 37  1  0
 16 38  1  0
 19 39  1  0
 20 40  1  0
M  END
>  <smiles>  (28) 
CC(C)CNC(=O)CNC(=O)c1ccc2cc(Cl)ccc2n1

>  <score_type>  (28) 
oracle

>  <origin>  (28) 
autodockgpu

>  <m_score__min__energy>  (28) 
-7.7000000000000002

>  <m_primary>  (28) 
energy

>  <rmsd>  (28) 
2.717691451511663

>  <m_score__min__rmsd>  (28) 
2.717691451511663

>  <meeko>  (28) 
{"free_energy": -5.92, "intermolecular_energy": -7.41, "internal_energy": -1.92, "cluster_size": 4, "cluster_id": 3, "rank_in_cluster": 4}

>  <energy>  (28) 
-6.57

>  <cluster_rmsd>  (28) 
0.99

>  <cluster>  (28) 
1

$$$$

     RDKit          3D

 40 41  0  0  0  0  0  0  0  0999 V2000
  140.7150   69.4430  227.7470 C   0  0  0  0  0  0  0  0  0  0  0  0
  140.5710   70.7480  227.0610 C   0  0  0  0  0  0  0  0  0  0  0  0
  141.0810   71.8840  227.9730 C   0  0  0  0  0  0  0  0  0  0  0  0
  141.1250   70.9160  225.6920 C   0  0  0  0  0  0  0  0  0  0  0  0
  140.1920   71.3210  224.6920 N   0  0  0  0  0  0  0  0  0  0  0  0
  139.1720   70.5820  224.0850 C   0  0  0  0  0  0  0  0  0  0  0  0
  138.9180   69.3840  224.3300 O   0  0  0  0  0  0  0  0  0  0  0  0
  138.3020   71.2390  223.0610 C   0  0  0  0  0  0  0  0  0  0  0  0
  138.8550   72.5300  222.6960 N   0  0  0  0  0  0  0  0  0  0  0  0
  140.0970   72.6690  222.0200 C   0  0  0  0  0  0  0  0  0  0  0  0
  140.7590   71.6410  221.7180 O   0  0  0  0  0  0  0  0  0  0  0  0
  140.5790   74.0220  221.6910 C   0  0  0  0  0  0  0  0  0  0  0  0
  141.5540   74.2490  220.7750 C   0  0  0  0  0  0  0  0  0  0  0  0
  142.0100   75.5110  220.4610 C   0  0  0  0  0  0  0  0  0  0  0  0
  141.4510   76.6040  221.1040 C   0  0  0  0  0  0  0  0  0  0  0  0
  141.8560   77.8820  220.8400 C   0  0  0  0  0  0  0  0  0  0  0  0
  141.2580   78.9270  221.5170 C   0  0  0  0  0  0  0  0  0  0  0  0
  141.7500   80.5710  221.2060 Cl  0  0  0  0  0  0  0  0  0  0  0  0
  140.2600   78.7140  222.4560 C   0  0  0  0  0  0  0  0  0  0  0  0
  139.8890   77.4170  222.6870 C   0  0  0  0  0  0  0  0  0  0  0  0
  140.4610   76.3490  222.0310 C   0  0  0  0  0  0  0  0  0  0  0  0
  140.0440   75.1140  222.3110 N   0  0  0  0  0  0  0  0  0  0  0  0
  140.6980   69.5974  228.8360 H   0  0  0  0  0  0  0  0  0  0  0  0
  139.8842   68.7828  227.4572 H   0  0  0  0  0  0  0  0  0  0  0  0
  141.6697   68.9798  227.4572 H   0  0  0  0  0  0  0  0  0  0  0  0
  139.4867   70.7913  226.8809 H   0  0  0  0  0  0  0  0  0  0  0  0
  140.9512   71.5948  229.0263 H   0  0  0  0  0  0  0  0  0  0  0  0
  142.1470   72.0655  227.7713 H   0  0  0  0  0  0  0  0  0  0  0  0
  140.5083   72.8012  227.7713 H   0  0  0  0  0  0  0  0  0  0  0  0
  141.9197   71.6751  225.7399 H   0  0  0  0  0  0  0  0  0  0  0  0
  141.4773   69.9196  225.3870 H   0  0  0  0  0  0  0  0  0  0  0  0
  140.2820   72.3370  224.3590 H   0  0  0  0  0  0  0  0  0  0  0  0
  138.2457   70.6007  222.1669 H   0  0  0  0  0  0  0  0  0  0  0  0
  137.2952   71.3825  223.4804 H   0  0  0  0  0  0  0  0  0  0  0  0
  138.3300   73.4200  222.9310 H   0  0  0  0  0  0  0  0  0  0  0  0
  142.0009   73.3862  220.2594 H   0  0  0  0  0  0  0  0  0  0  0  0
  142.8043   75.6485  219.7126 H   0  0  0  0  0  0  0  0  0  0  0  0
  142.6462   78.0757  220.0997 H   0  0  0  0  0  0  0  0  0  0  0  0
  139.7874   79.5506  222.9915 H   0  0  0  0  0  0  0  0  0  0  0  0
  139.1006   77.2189  223.4280 H   0  0  0  0  0  0  0  0  0  0  0  0
  1  2  1  0
  2  3  1  0
  2  4  1  0
  4  5  1  0
  5  6  1  0
  6  7  2  0
  6  8  1  0
  8  9  1  0
  9 10  1  0
 10 11  2  0
 10 12  1  0
 12 13  2  0
 13 14  1  0
 14 15  2  0
 15 16  1  0
 16 17  2  0
 17 18  1  0
 17 19  1  0
 19 20  2  0
 20 21  1  0
 21 22  2  0
 22 12  1  0
 21 15  1  0
  1 23  1  0
  1 24  1  0
  1 25  1  0
  2 26  1  0
  3 27  1  0
  3 28  1  0
  3 29  1  0
  4 30  1  0
  4 31  1  0
  5 32  1  0
  8 33  1  0
  8 34  1  0
  9 35  1  0
 13 36  1  0
 14 37  1  0
 16 38  1  0
 19 39  1  0
 20 40  1  0
M  END
>  <smiles>  (29) 
CC(C)CNC(=O)CNC(=O)c1ccc2cc(Cl)ccc2n1

>  <score_type>  (29) 
oracle

>  <origin>  (29) 
autodockgpu

>  <m_score__min__energy>  (29) 
-7.7000000000000002

>  <m_primary>  (29) 
energy

>  <rmsd>  (29) 
8.331168360024142

>  <m_score__min__rmsd>  (29) 
8.331168360024142

>  <meeko>  (29) 
{"free_energy": -6.79, "intermolecular_energy": -8.28, "internal_energy": -1.28, "cluster_size": 13, "cluster_id": 2, "rank_in_cluster": 3}

>  <energy>  (29) 
-6.53

>  <cluster_rmsd>  (29) 
1.4

>  <cluster>  (29) 
1

$$$$

     RDKit          3D

 40 41  0  0  0  0  0  0  0  0999 V2000
  141.8380   79.0730  222.3130 C   0  0  0  0  0  0  0  0  0  0  0  0
  141.0920   79.0280  221.0320 C   0  0  0  0  0  0  0  0  0  0  0  0
  141.8580   78.1670  220.0050 C   0  0  0  0  0  0  0  0  0  0  0  0
  139.6570   78.6430  221.0390 C   0  0  0  0  0  0  0  0  0  0  0  0
  139.3830   77.2710  220.7570 N   0  0  0  0  0  0  0  0  0  0  0  0
  139.5600   76.1510  221.5750 C   0  0  0  0  0  0  0  0  0  0  0  0
  140.0210   76.1810  222.7350 O   0  0  0  0  0  0  0  0  0  0  0  0
  139.1810   74.8000  221.0560 C   0  0  0  0  0  0  0  0  0  0  0  0
  139.3550   73.8030  222.0950 N   0  0  0  0  0  0  0  0  0  0  0  0
  139.2960   72.4060  221.8370 C   0  0  0  0  0  0  0  0  0  0  0  0
  139.0840   72.0000  220.6640 O   0  0  0  0  0  0  0  0  0  0  0  0
  139.4850   71.4680  222.9580 C   0  0  0  0  0  0  0  0  0  0  0  0
  139.0970   70.1690  222.8970 C   0  0  0  0  0  0  0  0  0  0  0  0
  139.2710   69.2850  223.9410 C   0  0  0  0  0  0  0  0  0  0  0  0
  139.8670   69.7350  225.1080 C   0  0  0  0  0  0  0  0  0  0  0  0
  140.0690   68.9120  226.1790 C   0  0  0  0  0  0  0  0  0  0  0  0
  140.6690   69.4240  227.3130 C   0  0  0  0  0  0  0  0  0  0  0  0
  140.9420   68.4030  228.7000 Cl  0  0  0  0  0  0  0  0  0  0  0  0
  141.0710   70.7490  227.3930 C   0  0  0  0  0  0  0  0  0  0  0  0
  140.8470   71.5350  226.2940 C   0  0  0  0  0  0  0  0  0  0  0  0
  140.2530   71.0590  225.1460 C   0  0  0  0  0  0  0  0  0  0  0  0
  140.0690   71.8880  224.1170 N   0  0  0  0  0  0  0  0  0  0  0  0
  141.1283   79.0302  223.1523 H   0  0  0  0  0  0  0  0  0  0  0  0
  142.5236   78.2146  222.3684 H   0  0  0  0  0  0  0  0  0  0  0  0
  142.4154   80.0076  222.3684 H   0  0  0  0  0  0  0  0  0  0  0  0
  141.0468   80.0921  220.7571 H   0  0  0  0  0  0  0  0  0  0  0  0
  142.4986   77.4470  220.5353 H   0  0  0  0  0  0  0  0  0  0  0  0
  141.1396   77.6232  219.3739 H   0  0  0  0  0  0  0  0  0  0  0  0
  142.4817   78.8172  219.3739 H   0  0  0  0  0  0  0  0  0  0  0  0
  139.2508   78.8709  222.0355 H   0  0  0  0  0  0  0  0  0  0  0  0
  139.1889   79.2158  220.2249 H   0  0  0  0  0  0  0  0  0  0  0  0
  138.9850   77.0680  219.7820 H   0  0  0  0  0  0  0  0  0  0  0  0
  138.1282   74.8143  220.7374 H   0  0  0  0  0  0  0  0  0  0  0  0
  139.8259   74.5474  220.2014 H   0  0  0  0  0  0  0  0  0  0  0  0
  139.5360   74.1020  223.0960 H   0  0  0  0  0  0  0  0  0  0  0  0
  138.6226   69.8050  221.9737 H   0  0  0  0  0  0  0  0  0  0  0  0
  138.9419   68.2394  223.8487 H   0  0  0  0  0  0  0  0  0  0  0  0
  139.7586   67.8575  226.1392 H   0  0  0  0  0  0  0  0  0  0  0  0
  141.5485   71.1507  228.2989 H   0  0  0  0  0  0  0  0  0  0  0  0
  141.1543   72.5906  226.3296 H   0  0  0  0  0  0  0  0  0  0  0  0
  1  2  1  0
  2  3  1  0
  2  4  1  0
  4  5  1  0
  5  6  1  0
  6  7  2  0
  6  8  1  0
  8  9  1  0
  9 10  1  0
 10 11  2  0
 10 12  1  0
 12 13  2  0
 13 14  1  0
 14 15  2  0
 15 16  1  0
 16 17  2  0
 17 18  1  0
 17 19  1  0
 19 20  2  0
 20 21  1  0
 21 22  2  0
 22 12  1  0
 21 15  1  0
  1 23  1  0
  1 24  1  0
  1 25  1  0
  2 26  1  0
  3 27  1  0
  3 28  1  0
  3 29  1  0
  4 30  1  0
  4 31  1  0
  5 32  1  0
  8 33  1  0
  8 34  1  0
  9 35  1  0
 13 36  1  0
 14 37  1  0
 16 38  1  0
 19 39  1  0
 20 40  1  0
M  END
>  <smiles>  (30) 
CC(C)CNC(=O)CNC(=O)c1ccc2cc(Cl)ccc2n1

>  <score_type>  (30) 
oracle

>  <origin>  (30) 
autodockgpu

>  <m_score__min__energy>  (30) 
-7.7000000000000002

>  <m_primary>  (30) 
energy

>  <rmsd>  (30) 
2.733954635344514

>  <m_score__min__rmsd>  (30) 
2.733954635344514

>  <meeko>  (30) 
{"free_energy": -6.26, "intermolecular_energy": -7.76, "internal_energy": -1.65, "cluster_size": 33, "cluster_id": 1, "rank_in_cluster": 31}

>  <energy>  (30) 
-6.39

>  <cluster_rmsd>  (30) 
1.28

>  <cluster>  (30) 
1

$$$$

     RDKit          3D

 40 41  0  0  0  0  0  0  0  0999 V2000
  142.2900   79.7410  222.4630 C   0  0  0  0  0  0  0  0  0  0  0  0
  141.1690   78.7850  222.2980 C   0  0  0  0  0  0  0  0  0  0  0  0
  139.9780   79.2090  223.1830 C   0  0  0  0  0  0  0  0  0  0  0  0
  140.6870   78.4580  220.9300 C   0  0  0  0  0  0  0  0  0  0  0  0
  139.9610   77.2360  220.8060 N   0  0  0  0  0  0  0  0  0  0  0  0
  140.1380   76.0320  221.4950 C   0  0  0  0  0  0  0  0  0  0  0  0
  141.0130   75.8280  222.3620 O   0  0  0  0  0  0  0  0  0  0  0  0
  139.2300   74.8800  221.1980 C   0  0  0  0  0  0  0  0  0  0  0  0
  139.3790   73.8570  222.2150 N   0  0  0  0  0  0  0  0  0  0  0  0
  139.2900   72.4680  221.9260 C   0  0  0  0  0  0  0  0  0  0  0  0
  139.0740   72.0920  220.7440 O   0  0  0  0  0  0  0  0  0  0  0  0
  139.4540   71.5020  223.0260 C   0  0  0  0  0  0  0  0  0  0  0  0
  139.0480   70.2090  222.9320 C   0  0  0  0  0  0  0  0  0  0  0  0
  139.1980   69.2990  223.9560 C   0  0  0  0  0  0  0  0  0  0  0  0
  139.7900   69.7130  225.1380 C   0  0  0  0  0  0  0  0  0  0  0  0
  139.9700   68.8620  226.1920 C   0  0  0  0  0  0  0  0  0  0  0  0
  140.5680   69.3390  227.3420 C   0  0  0  0  0  0  0  0  0  0  0  0
  140.8120   68.2820  228.7080 Cl  0  0  0  0  0  0  0  0  0  0  0  0
  140.9890   70.6550  227.4570 C   0  0  0  0  0  0  0  0  0  0  0  0
  140.7870   71.4690  226.3750 C   0  0  0  0  0  0  0  0  0  0  0  0
  140.1960   71.0300  225.2110 C   0  0  0  0  0  0  0  0  0  0  0  0
  140.0340   71.8850  224.2000 N   0  0  0  0  0  0  0  0  0  0  0  0
  142.4794   79.9025  223.5345 H   0  0  0  0  0  0  0  0  0  0  0  0
  143.1940   79.3315  221.9885 H   0  0  0  0  0  0  0  0  0  0  0  0
  142.0284   80.6983  221.9885 H   0  0  0  0  0  0  0  0  0  0  0  0
  141.6290   77.8379  222.6165 H   0  0  0  0  0  0  0  0  0  0  0  0
  140.2553   79.1103  224.2429 H   0  0  0  0  0  0  0  0  0  0  0  0
  139.7161   80.2556  222.9685 H   0  0  0  0  0  0  0  0  0  0  0  0
  139.1136   78.5633  222.9685 H   0  0  0  0  0  0  0  0  0  0  0  0
  140.0309   79.2762  220.5982 H   0  0  0  0  0  0  0  0  0  0  0  0
  141.5906   78.3339  220.3151 H   0  0  0  0  0  0  0  0  0  0  0  0
  139.1670   77.2390  220.0850 H   0  0  0  0  0  0  0  0  0  0  0  0
  138.1878   75.2315  221.1846 H   0  0  0  0  0  0  0  0  0  0  0  0
  139.4929   74.4560  220.2176 H   0  0  0  0  0  0  0  0  0  0  0  0
  139.5620   74.1290  223.2230 H   0  0  0  0  0  0  0  0  0  0  0  0
  138.5781   69.8731  221.9959 H   0  0  0  0  0  0  0  0  0  0  0  0
  138.8534   68.2612  223.8367 H   0  0  0  0  0  0  0  0  0  0  0  0
  139.6438   67.8136  226.1256 H   0  0  0  0  0  0  0  0  0  0  0  0
  141.4640   71.0282  228.3763 H   0  0  0  0  0  0  0  0  0  0  0  0
  141.1105   72.5185  226.4379 H   0  0  0  0  0  0  0  0  0  0  0  0
  1  2  1  0
  2  3  1  0
  2  4  1  0
  4  5  1  0
  5  6  1  0
  6  7  2  0
  6  8  1  0
  8  9  1  0
  9 10  1  0
 10 11  2  0
 10 12  1  0
 12 13  2  0
 13 14  1  0
 14 15  2  0
 15 16  1  0
 16 17  2  0
 17 18  1  0
 17 19  1  0
 19 20  2  0
 20 21  1  0
 21 22  2  0
 22 12  1  0
 21 15  1  0
  1 23  1  0
  1 24  1  0
  1 25  1  0
  2 26  1  0
  3 27  1  0
  3 28  1  0
  3 29  1  0
  4 30  1  0
  4 31  1  0
  5 32  1  0
  8 33  1  0
  8 34  1  0
  9 35  1  0
 13 36  1  0
 14 37  1  0
 16 38  1  0
 19 39  1  0
 20 40  1  0
M  END
>  <smiles>  (31) 
CC(C)CNC(=O)CNC(=O)c1ccc2cc(Cl)ccc2n1

>  <score_type>  (31) 
oracle

>  <origin>  (31) 
autodockgpu

>  <m_score__min__energy>  (31) 
-7.7000000000000002

>  <m_primary>  (31) 
energy

>  <rmsd>  (31) 
3.102026249546316

>  <m_score__min__rmsd>  (31) 
3.102026249546316

>  <meeko>  (31) 
{"free_energy": -6.71, "intermolecular_energy": -8.2, "internal_energy": -1.39, "cluster_size": 33, "cluster_id": 1, "rank_in_cluster": 20}

>  <energy>  (31) 
-6.26

>  <cluster_rmsd>  (31) 
1.36

>  <cluster>  (31) 
1

$$$$

     RDKit          3D

 40 41  0  0  0  0  0  0  0  0999 V2000
  140.6880   69.9050  227.9740 C   0  0  0  0  0  0  0  0  0  0  0  0
  140.6680   70.9020  226.8770 C   0  0  0  0  0  0  0  0  0  0  0  0
  141.1710   72.2660  227.3940 C   0  0  0  0  0  0  0  0  0  0  0  0
  141.3320   70.5780  225.5870 C   0  0  0  0  0  0  0  0  0  0  0  0
  140.5990   70.9190  224.4120 N   0  0  0  0  0  0  0  0  0  0  0  0
  139.2220   70.8490  224.1800 C   0  0  0  0  0  0  0  0  0  0  0  0
  138.3790   70.4420  225.0070 O   0  0  0  0  0  0  0  0  0  0  0  0
  138.6810   71.2840  222.8540 C   0  0  0  0  0  0  0  0  0  0  0  0
  139.1420   72.6240  222.5460 N   0  0  0  0  0  0  0  0  0  0  0  0
  140.3660   72.8780  221.8690 C   0  0  0  0  0  0  0  0  0  0  0  0
  141.0930   71.9120  221.5160 O   0  0  0  0  0  0  0  0  0  0  0  0
  140.7510   74.2750  221.6000 C   0  0  0  0  0  0  0  0  0  0  0  0
  141.7230   74.6070  220.7120 C   0  0  0  0  0  0  0  0  0  0  0  0
  142.0890   75.9100  220.4540 C   0  0  0  0  0  0  0  0  0  0  0  0
  141.4410   76.9340  221.1270 C   0  0  0  0  0  0  0  0  0  0  0  0
  141.7550   78.2470  220.9180 C   0  0  0  0  0  0  0  0  0  0  0  0
  141.0700   79.2190  221.6220 C   0  0  0  0  0  0  0  0  0  0  0  0
  141.4450   80.9050  221.3820 Cl  0  0  0  0  0  0  0  0  0  0  0  0
  140.0750   78.8980  222.5320 C   0  0  0  0  0  0  0  0  0  0  0  0
  139.7970   77.5690  222.7080 C   0  0  0  0  0  0  0  0  0  0  0  0
  140.4570   76.5720  222.0240 C   0  0  0  0  0  0  0  0  0  0  0  0
  140.1280   75.3000  222.2500 N   0  0  0  0  0  0  0  0  0  0  0  0
  140.6776   70.4257  228.9429 H   0  0  0  0  0  0  0  0  0  0  0  0
  139.8027   69.2568  227.8965 H   0  0  0  0  0  0  0  0  0  0  0  0
  141.5986   69.2928  227.8965 H   0  0  0  0  0  0  0  0  0  0  0  0
  139.6044   70.9107  226.5966 H   0  0  0  0  0  0  0  0  0  0  0  0
  141.1703   72.2641  228.4940 H   0  0  0  0  0  0  0  0  0  0  0  0
  142.1933   72.4424  227.0283 H   0  0  0  0  0  0  0  0  0  0  0  0
  140.5080   73.0639  227.0283 H   0  0  0  0  0  0  0  0  0  0  0  0
  142.2907   71.1165  225.5556 H   0  0  0  0  0  0  0  0  0  0  0  0
  141.4350   69.4830  225.5692 H   0  0  0  0  0  0  0  0  0  0  0  0
  141.1850   71.2830  223.5890 H   0  0  0  0  0  0  0  0  0  0  0  0
  139.0283   70.5909  222.0737 H   0  0  0  0  0  0  0  0  0  0  0  0
  137.5817   71.2804  222.8936 H   0  0  0  0  0  0  0  0  0  0  0  0
  138.5600   73.4650  222.8250 H   0  0  0  0  0  0  0  0  0  0  0  0
  142.2415   73.7994  220.1745 H   0  0  0  0  0  0  0  0  0  0  0  0
  142.8825   76.1340  219.7258 H   0  0  0  0  0  0  0  0  0  0  0  0
  142.5408   78.5261  220.2006 H   0  0  0  0  0  0  0  0  0  0  0  0
  139.5326   79.6767  223.0883 H   0  0  0  0  0  0  0  0  0  0  0  0
  139.0134   77.2854  223.4260 H   0  0  0  0  0  0  0  0  0  0  0  0
  1  2  1  0
  2  3  1  0
  2  4  1  0
  4  5  1  0
  5  6  1  0
  6  7  2  0
  6  8  1  0
  8  9  1  0
  9 10  1  0
 10 11  2  0
 10 12  1  0
 12 13  2  0
 13 14  1  0
 14 15  2  0
 15 16  1  0
 16 17  2  0
 17 18  1  0
 17 19  1  0
 19 20  2  0
 20 21  1  0
 21 22  2  0
 22 12  1  0
 21 15  1  0
  1 23  1  0
  1 24  1  0
  1 25  1  0
  2 26  1  0
  3 27  1  0
  3 28  1  0
  3 29  1  0
  4 30  1  0
  4 31  1  0
  5 32  1  0
  8 33  1  0
  8 34  1  0
  9 35  1  0
 13 36  1  0
 14 37  1  0
 16 38  1  0
 19 39  1  0
 20 40  1  0
M  END
>  <smiles>  (32) 
CC(C)CNC(=O)CNC(=O)c1ccc2cc(Cl)ccc2n1

>  <score_type>  (32) 
oracle

>  <origin>  (32) 
autodockgpu

>  <m_score__min__energy>  (32) 
-7.7000000000000002

>  <m_primary>  (32) 
energy

>  <rmsd>  (32) 
8.383085927448576

>  <m_score__min__rmsd>  (32) 
8.383085927448576

>  <meeko>  (32) 
{"free_energy": -6.62, "intermolecular_energy": -8.11, "internal_energy": -1.8, "cluster_size": 13, "cluster_id": 2, "rank_in_cluster": 10}

>  <energy>  (32) 
-6.23

>  <cluster_rmsd>  (32) 
1.18

>  <cluster>  (32) 
1

$$$$

     RDKit          3D

 40 41  0  0  0  0  0  0  0  0999 V2000
  140.4150   70.0250  227.9710 C   0  0  0  0  0  0  0  0  0  0  0  0
  140.6620   71.0850  226.9650 C   0  0  0  0  0  0  0  0  0  0  0  0
  141.4200   72.2630  227.6130 C   0  0  0  0  0  0  0  0  0  0  0  0
  141.3020   70.7270  225.6720 C   0  0  0  0  0  0  0  0  0  0  0  0
  140.5470   71.0340  224.5020 N   0  0  0  0  0  0  0  0  0  0  0  0
  139.2090   70.7450  224.2150 C   0  0  0  0  0  0  0  0  0  0  0  0
  138.4330   70.1290  224.9760 O   0  0  0  0  0  0  0  0  0  0  0  0
  138.6290   71.1890  222.9090 C   0  0  0  0  0  0  0  0  0  0  0  0
  139.1010   72.5220  222.5850 N   0  0  0  0  0  0  0  0  0  0  0  0
  140.3300   72.7590  221.9120 C   0  0  0  0  0  0  0  0  0  0  0  0
  141.0520   71.7830  221.5760 O   0  0  0  0  0  0  0  0  0  0  0  0
  140.7270   74.1480  221.6260 C   0  0  0  0  0  0  0  0  0  0  0  0
  141.6930   74.4630  220.7250 C   0  0  0  0  0  0  0  0  0  0  0  0
  142.0690   75.7600  220.4510 C   0  0  0  0  0  0  0  0  0  0  0  0
  141.4390   76.7960  221.1210 C   0  0  0  0  0  0  0  0  0  0  0  0
  141.7630   78.1050  220.8960 C   0  0  0  0  0  0  0  0  0  0  0  0
  141.0950   79.0890  221.5980 C   0  0  0  0  0  0  0  0  0  0  0  0
  141.4840   80.7690  221.3380 Cl  0  0  0  0  0  0  0  0  0  0  0  0
  140.1070   78.7870  222.5210 C   0  0  0  0  0  0  0  0  0  0  0  0
  139.8170   77.4620  222.7120 C   0  0  0  0  0  0  0  0  0  0  0  0
  140.4600   76.4530  222.0310 C   0  0  0  0  0  0  0  0  0  0  0  0
  140.1210   75.1860  222.2720 N   0  0  0  0  0  0  0  0  0  0  0  0
  140.5136   70.4483  228.9815 H   0  0  0  0  0  0  0  0  0  0  0  0
  139.3993   69.6238  227.8391 H   0  0  0  0  0  0  0  0  0  0  0  0
  141.1487   69.2161  227.8391 H   0  0  0  0  0  0  0  0  0  0  0  0
  139.6394   71.3461  226.6551 H   0  0  0  0  0  0  0  0  0  0  0  0
  141.3645   72.1767  228.7082 H   0  0  0  0  0  0  0  0  0  0  0  0
  142.4732   72.2399  227.2963 H   0  0  0  0  0  0  0  0  0  0  0  0
  140.9626   73.2119  227.2963 H   0  0  0  0  0  0  0  0  0  0  0  0
  142.2587   71.2661  225.6079 H   0  0  0  0  0  0  0  0  0  0  0  0
  141.4065   69.6320  225.6824 H   0  0  0  0  0  0  0  0  0  0  0  0
  141.0770   71.5620  223.7320 H   0  0  0  0  0  0  0  0  0  0  0  0
  138.9375   70.4907  222.1170 H   0  0  0  0  0  0  0  0  0  0  0  0
  137.5318   71.2030  222.9869 H   0  0  0  0  0  0  0  0  0  0  0  0
  138.5240   73.3710  222.8490 H   0  0  0  0  0  0  0  0  0  0  0  0
  142.1982   73.6456  220.1896 H   0  0  0  0  0  0  0  0  0  0  0  0
  142.8566   75.9694  219.7122 H   0  0  0  0  0  0  0  0  0  0  0  0
  142.5433   78.3702  220.1674 H   0  0  0  0  0  0  0  0  0  0  0  0
  139.5788   79.5763  223.0759 H   0  0  0  0  0  0  0  0  0  0  0  0
  139.0376   77.1928  223.4401 H   0  0  0  0  0  0  0  0  0  0  0  0
  1  2  1  0
  2  3  1  0
  2  4  1  0
  4  5  1  0
  5  6  1  0
  6  7  2  0
  6  8  1  0
  8  9  1  0
  9 10  1  0
 10 11  2  0
 10 12  1  0
 12 13  2  0
 13 14  1  0
 14 15  2  0
 15 16  1  0
 16 17  2  0
 17 18  1  0
 17 19  1  0
 19 20  2  0
 20 21  1  0
 21 22  2  0
 22 12  1  0
 21 15  1  0
  1 23  1  0
  1 24  1  0
  1 25  1  0
  2 26  1  0
  3 27  1  0
  3 28  1  0
  3 29  1  0
  4 30  1  0
  4 31  1  0
  5 32  1  0
  8 33  1  0
  8 34  1  0
  9 35  1  0
 13 36  1  0
 14 37  1  0
 16 38  1  0
 19 39  1  0
 20 40  1  0
M  END
>  <smiles>  (33) 
CC(C)CNC(=O)CNC(=O)c1ccc2cc(Cl)ccc2n1

>  <score_type>  (33) 
oracle

>  <origin>  (33) 
autodockgpu

>  <m_score__min__energy>  (33) 
-7.7000000000000002

>  <m_primary>  (33) 
energy

>  <rmsd>  (33) 
8.330427728556547

>  <m_score__min__rmsd>  (33) 
8.330427728556547

>  <meeko>  (33) 
{"free_energy": -6.72, "intermolecular_energy": -8.21, "internal_energy": -1.78, "cluster_size": 13, "cluster_id": 2, "rank_in_cluster": 5}

>  <energy>  (33) 
-6.17

>  <cluster_rmsd>  (33) 
1.52

>  <cluster>  (33) 
1

$$$$

     RDKit          3D

 40 41  0  0  0  0  0  0  0  0999 V2000
  144.9950   73.0940  218.7410 C   0  0  0  0  0  0  0  0  0  0  0  0
  144.5100   73.5880  220.0520 C   0  0  0  0  0  0  0  0  0  0  0  0
  145.6960   73.7630  221.0230 C   0  0  0  0  0  0  0  0  0  0  0  0
  143.6400   74.7930  220.0990 C   0  0  0  0  0  0  0  0  0  0  0  0
  142.2590   74.5490  220.3590 N   0  0  0  0  0  0  0  0  0  0  0  0
  141.2800   75.4310  220.8240 C   0  0  0  0  0  0  0  0  0  0  0  0
  141.4790   76.6310  221.1100 O   0  0  0  0  0  0  0  0  0  0  0  0
  139.8780   74.9390  221.0050 C   0  0  0  0  0  0  0  0  0  0  0  0
  139.8400   73.9250  222.0410 N   0  0  0  0  0  0  0  0  0  0  0  0
  140.1920   72.5690  221.8000 C   0  0  0  0  0  0  0  0  0  0  0  0
  140.5540   72.2160  220.6470 O   0  0  0  0  0  0  0  0  0  0  0  0
  140.1220   71.6080  222.9150 C   0  0  0  0  0  0  0  0  0  0  0  0
  139.5800   70.3700  222.7810 C   0  0  0  0  0  0  0  0  0  0  0  0
  139.5110   69.4660  223.8190 C   0  0  0  0  0  0  0  0  0  0  0  0
  140.0150   69.8280  225.0580 C   0  0  0  0  0  0  0  0  0  0  0  0
  139.9790   68.9780  226.1280 C   0  0  0  0  0  0  0  0  0  0  0  0
  140.5000   69.4020  227.3350 C   0  0  0  0  0  0  0  0  0  0  0  0
  140.4700   68.3460  228.7230 Cl  0  0  0  0  0  0  0  0  0  0  0  0
  141.0570   70.6620  227.4900 C   0  0  0  0  0  0  0  0  0  0  0  0
  141.0700   71.4770  226.3900 C   0  0  0  0  0  0  0  0  0  0  0  0
  140.5620   71.0900  225.1700 C   0  0  0  0  0  0  0  0  0  0  0  0
  140.6120   71.9410  224.1440 N   0  0  0  0  0  0  0  0  0  0  0  0
  145.7574   72.3174  218.9010 H   0  0  0  0  0  0  0  0  0  0  0  0
  144.1528   72.6698  218.1746 H   0  0  0  0  0  0  0  0  0  0  0  0
  145.4346   73.9283  218.1746 H   0  0  0  0  0  0  0  0  0  0  0  0
  143.8181   72.7881  220.3544 H   0  0  0  0  0  0  0  0  0  0  0  0
  145.3321   73.7093  222.0597 H   0  0  0  0  0  0  0  0  0  0  0  0
  146.4319   72.9637  220.8508 H   0  0  0  0  0  0  0  0  0  0  0  0
  146.1696   74.7408  220.8508 H   0  0  0  0  0  0  0  0  0  0  0  0
  144.0213   75.4544  220.8909 H   0  0  0  0  0  0  0  0  0  0  0  0
  143.6823   75.2328  219.0916 H   0  0  0  0  0  0  0  0  0  0  0  0
  141.9220   73.5470  220.1700 H   0  0  0  0  0  0  0  0  0  0  0  0
  139.2309   75.7802  221.2942 H   0  0  0  0  0  0  0  0  0  0  0  0
  139.5223   74.5038  220.0594 H   0  0  0  0  0  0  0  0  0  0  0  0
  139.5420   74.1780  223.0250 H   0  0  0  0  0  0  0  0  0  0  0  0
  139.1781   70.0757  221.8003 H   0  0  0  0  0  0  0  0  0  0  0  0
  139.0630   68.4730  223.6664 H   0  0  0  0  0  0  0  0  0  0  0  0
  139.5424   67.9732  226.0295 H   0  0  0  0  0  0  0  0  0  0  0  0
  141.4703   70.9924  228.4544 H   0  0  0  0  0  0  0  0  0  0  0  0
  141.5045   72.4831  226.4847 H   0  0  0  0  0  0  0  0  0  0  0  0
  1  2  1  0
  2  3  1  0
  2  4  1  0
  4  5  1  0
  5  6  1  0
  6  7  2  0
  6  8  1  0
  8  9  1  0
  9 10  1  0
 10 11  2  0
 10 12  1  0
 12 13  2  0
 13 14  1  0
 14 15  2  0
 15 16  1  0
 16 17  2  0
 17 18  1  0
 17 19  1  0
 19 20  2  0
 20 21  1  0
 21 22  2  0
 22 12  1  0
 21 15  1  0
  1 23  1  0
  1 24  1  0
  1 25  1  0
  2 26  1  0
  3 27  1  0
  3 28  1  0
  3 29  1  0
  4 30  1  0
  4 31  1  0
  5 32  1  0
  8 33  1  0
  8 34  1  0
  9 35  1  0
 13 36  1  0
 14 37  1  0
 16 38  1  0
 19 39  1  0
 20 40  1  0
M  END
>  <smiles>  (34) 
CC(C)CNC(=O)CNC(=O)c1ccc2cc(Cl)ccc2n1

>  <score_type>  (34) 
oracle

>  <origin>  (34) 
autodockgpu

>  <m_score__min__energy>  (34) 
-7.7000000000000002

>  <m_primary>  (34) 
energy

>  <rmsd>  (34) 
3.2889862172708977

>  <m_score__min__rmsd>  (34) 
3.2889862172708977

>  <meeko>  (34) 
{"free_energy": -6.6, "intermolecular_energy": -8.09, "internal_energy": -1.64, "cluster_size": 4, "cluster_id": 3, "rank_in_cluster": 2}

>  <energy>  (34) 
-6.81

>  <cluster_rmsd>  (34) 
0.0

>  <cluster>  (34) 
2

$$$$

     RDKit          3D

 40 41  0  0  0  0  0  0  0  0999 V2000
  140.1790   80.3940  223.1380 C   0  0  0  0  0  0  0  0  0  0  0  0
  141.3130   79.5230  222.7460 C   0  0  0  0  0  0  0  0  0  0  0  0
  142.6310   80.3260  222.7760 C   0  0  0  0  0  0  0  0  0  0  0  0
  141.5040   78.2210  223.4380 C   0  0  0  0  0  0  0  0  0  0  0  0
  141.0700   77.0690  222.7170 N   0  0  0  0  0  0  0  0  0  0  0  0
  139.8240   76.8060  222.1400 C   0  0  0  0  0  0  0  0  0  0  0  0
  138.8430   77.5770  222.1820 O   0  0  0  0  0  0  0  0  0  0  0  0
  139.6120   75.5160  221.4120 C   0  0  0  0  0  0  0  0  0  0  0  0
  139.6660   74.4070  222.3440 N   0  0  0  0  0  0  0  0  0  0  0  0
  139.9100   73.0690  221.9320 C   0  0  0  0  0  0  0  0  0  0  0  0
  140.0890   72.8180  220.7110 O   0  0  0  0  0  0  0  0  0  0  0  0
  139.9460   72.0060  222.9520 C   0  0  0  0  0  0  0  0  0  0  0  0
  139.5080   70.7440  222.7100 C   0  0  0  0  0  0  0  0  0  0  0  0
  139.5390   69.7450  223.6580 C   0  0  0  0  0  0  0  0  0  0  0  0
  140.0370   70.0320  224.9190 C   0  0  0  0  0  0  0  0  0  0  0  0
  140.0970   69.0880  225.9050 C   0  0  0  0  0  0  0  0  0  0  0  0
  140.6050   69.4410  227.1390 C   0  0  0  0  0  0  0  0  0  0  0  0
  140.6950   68.2630  228.4210 Cl  0  0  0  0  0  0  0  0  0  0  0  0
  141.0570   70.7250  227.4050 C   0  0  0  0  0  0  0  0  0  0  0  0
  140.9770   71.6360  226.3860 C   0  0  0  0  0  0  0  0  0  0  0  0
  140.4770   71.3210  225.1420 C   0  0  0  0  0  0  0  0  0  0  0  0
  140.4320   72.2650  224.2000 N   0  0  0  0  0  0  0  0  0  0  0  0
  140.1160   80.4424  224.2351 H   0  0  0  0  0  0  0  0  0  0  0  0
  140.3369   81.4052  222.7349 H   0  0  0  0  0  0  0  0  0  0  0  0
  139.2427   79.9806  222.7349 H   0  0  0  0  0  0  0  0  0  0  0  0
  141.0191   79.2095  221.7334 H   0  0  0  0  0  0  0  0  0  0  0  0
  142.9269   80.5062  223.8200 H   0  0  0  0  0  0  0  0  0  0  0  0
  143.4200   79.7550  222.2647 H   0  0  0  0  0  0  0  0  0  0  0  0
  142.4854   81.2890  222.2647 H   0  0  0  0  0  0  0  0  0  0  0  0
  142.5774   78.1039  223.6481 H   0  0  0  0  0  0  0  0  0  0  0  0
  140.8758   78.2652  224.3399 H   0  0  0  0  0  0  0  0  0  0  0  0
  141.8030   76.2940  222.5970 H   0  0  0  0  0  0  0  0  0  0  0  0
  138.6277   75.5320  220.9213 H   0  0  0  0  0  0  0  0  0  0  0  0
  140.4027   75.3927  220.6573 H   0  0  0  0  0  0  0  0  0  0  0  0
  139.5210   74.5740  223.3810 H   0  0  0  0  0  0  0  0  0  0  0  0
  139.1104   70.5085  221.7118 H   0  0  0  0  0  0  0  0  0  0  0  0
  139.1742   68.7354  223.4179 H   0  0  0  0  0  0  0  0  0  0  0  0
  139.7459   68.0624  225.7183 H   0  0  0  0  0  0  0  0  0  0  0  0
  141.4616   70.9991  228.3905 H   0  0  0  0  0  0  0  0  0  0  0  0
  141.3268   72.6628  226.5686 H   0  0  0  0  0  0  0  0  0  0  0  0
  1  2  1  0
  2  3  1  0
  2  4  1  0
  4  5  1  0
  5  6  1  0
  6  7  2  0
  6  8  1  0
  8  9  1  0
  9 10  1  0
 10 11  2  0
 10 12  1  0
 12 13  2  0
 13 14  1  0
 14 15  2  0
 15 16  1  0
 16 17  2  0
 17 18  1  0
 17 19  1  0
 19 20  2  0
 20 21  1  0
 21 22  2  0
 22 12  1  0
 21 15  1  0
  1 23  1  0
  1 24  1  0
  1 25  1  0
  2 26  1  0
  3 27  1  0
  3 28  1  0
  3 29  1  0
  4 30  1  0
  4 31  1  0
  5 32  1  0
  8 33  1  0
  8 34  1  0
  9 35  1  0
 13 36  1  0
 14 37  1  0
 16 38  1  0
 19 39  1  0
 20 40  1  0
M  END
>  <smiles>  (35) 
CC(C)CNC(=O)CNC(=O)c1ccc2cc(Cl)ccc2n1

>  <score_type>  (35) 
oracle

>  <origin>  (35) 
autodockgpu

>  <m_score__min__energy>  (35) 
-7.7000000000000002

>  <m_primary>  (35) 
energy

>  <rmsd>  (35) 
3.7697568727251833

>  <m_score__min__rmsd>  (35) 
3.7697568727251833

>  <meeko>  (35) 
{"free_energy": -7.46, "intermolecular_energy": -8.95, "internal_energy": -0.94, "cluster_size": 33, "cluster_id": 1, "rank_in_cluster": 7}

>  <energy>  (35) 
-6.81

>  <cluster_rmsd>  (35) 
0.23

>  <cluster>  (35) 
2

$$$$

     RDKit          3D

 40 41  0  0  0  0  0  0  0  0999 V2000
  140.8750   69.8060  227.9660 C   0  0  0  0  0  0  0  0  0  0  0  0
  140.6950   70.9040  226.9870 C   0  0  0  0  0  0  0  0  0  0  0  0
  141.1720   72.2390  227.5970 C   0  0  0  0  0  0  0  0  0  0  0  0
  141.2480   70.7530  225.6150 C   0  0  0  0  0  0  0  0  0  0  0  0
  140.3680   71.1100  224.5510 N   0  0  0  0  0  0  0  0  0  0  0  0
  139.1010   70.6030  224.2470 C   0  0  0  0  0  0  0  0  0  0  0  0
  138.5210   69.7020  224.8880 O   0  0  0  0  0  0  0  0  0  0  0  0
  138.3550   71.1550  223.0730 C   0  0  0  0  0  0  0  0  0  0  0  0
  138.8900   72.4540  222.7130 N   0  0  0  0  0  0  0  0  0  0  0  0
  140.1260   72.6120  222.0280 C   0  0  0  0  0  0  0  0  0  0  0  0
  140.7970   71.5940  221.7130 O   0  0  0  0  0  0  0  0  0  0  0  0
  140.5890   73.9730  221.7040 C   0  0  0  0  0  0  0  0  0  0  0  0
  141.5850   74.2140  220.8130 C   0  0  0  0  0  0  0  0  0  0  0  0
  142.0230   75.4840  220.5040 C   0  0  0  0  0  0  0  0  0  0  0  0
  141.4260   76.5680  221.1260 C   0  0  0  0  0  0  0  0  0  0  0  0
  141.8130   77.8530  220.8650 C   0  0  0  0  0  0  0  0  0  0  0  0
  141.1760   78.8890  221.5200 C   0  0  0  0  0  0  0  0  0  0  0  0
  141.6430   80.5410  221.2130 Cl  0  0  0  0  0  0  0  0  0  0  0  0
  140.1570   78.6620  222.4320 C   0  0  0  0  0  0  0  0  0  0  0  0
  139.8050   77.3580  222.6610 C   0  0  0  0  0  0  0  0  0  0  0  0
  140.4160   76.2990  222.0270 C   0  0  0  0  0  0  0  0  0  0  0  0
  140.0170   75.0570  222.3030 N   0  0  0  0  0  0  0  0  0  0  0  0
  140.8087   70.2104  228.9868 H   0  0  0  0  0  0  0  0  0  0  0  0
  140.0886   69.0510  227.8189 H   0  0  0  0  0  0  0  0  0  0  0  0
  141.8613   69.3416  227.8189 H   0  0  0  0  0  0  0  0  0  0  0  0
  139.6103   70.8735  226.8070 H   0  0  0  0  0  0  0  0  0  0  0  0
  141.1474   72.1702  228.6946 H   0  0  0  0  0  0  0  0  0  0  0  0
  142.2001   72.4470  227.2656 H   0  0  0  0  0  0  0  0  0  0  0  0
  140.5085   73.0514  227.2656 H   0  0  0  0  0  0  0  0  0  0  0  0
  142.1438   71.3870  225.5399 H   0  0  0  0  0  0  0  0  0  0  0  0
  141.4500   69.6790  225.4896 H   0  0  0  0  0  0  0  0  0  0  0  0
  140.7260   71.8760  223.8910 H   0  0  0  0  0  0  0  0  0  0  0  0
  138.4590   70.4687  222.2196 H   0  0  0  0  0  0  0  0  0  0  0  0
  137.2927   71.2622  223.3375 H   0  0  0  0  0  0  0  0  0  0  0  0
  138.3570   73.3370  222.9570 H   0  0  0  0  0  0  0  0  0  0  0  0
  142.0637   73.3576  220.3156 H   0  0  0  0  0  0  0  0  0  0  0  0
  142.8333   75.6341  219.7754 H   0  0  0  0  0  0  0  0  0  0  0  0
  142.6188   78.0586  220.1449 H   0  0  0  0  0  0  0  0  0  0  0  0
  139.6534   79.4921  222.9489 H   0  0  0  0  0  0  0  0  0  0  0  0
  139.0007   77.1480  223.3814 H   0  0  0  0  0  0  0  0  0  0  0  0
  1  2  1  0
  2  3  1  0
  2  4  1  0
  4  5  1  0
  5  6  1  0
  6  7  2  0
  6  8  1  0
  8  9  1  0
  9 10  1  0
 10 11  2  0
 10 12  1  0
 12 13  2  0
 13 14  1  0
 14 15  2  0
 15 16  1  0
 16 17  2  0
 17 18  1  0
 17 19  1  0
 19 20  2  0
 20 21  1  0
 21 22  2  0
 22 12  1  0
 21 15  1  0
  1 23  1  0
  1 24  1  0
  1 25  1  0
  2 26  1  0
  3 27  1  0
  3 28  1  0
  3 29  1  0
  4 30  1  0
  4 31  1  0
  5 32  1  0
  8 33  1  0
  8 34  1  0
  9 35  1  0
 13 36  1  0
 14 37  1  0
 16 38  1  0
 19 39  1  0
 20 40  1  0
M  END
>  <smiles>  (36) 
CC(C)CNC(=O)CNC(=O)c1ccc2cc(Cl)ccc2n1

>  <score_type>  (36) 
oracle

>  <origin>  (36) 
autodockgpu

>  <m_score__min__energy>  (36) 
-7.7000000000000002

>  <m_primary>  (36) 
energy

>  <rmsd>  (36) 
8.292650922358845

>  <m_score__min__rmsd>  (36) 
8.292650922358845

>  <meeko>  (36) 
{"free_energy": -6.69, "intermolecular_energy": -8.18, "internal_energy": -1.67, "cluster_size": 13, "cluster_id": 2, "rank_in_cluster": 9}

>  <energy>  (36) 
-6.79

>  <cluster_rmsd>  (36) 
0.2

>  <cluster>  (36) 
2

$$$$

     RDKit          3D

 40 41  0  0  0  0  0  0  0  0999 V2000
  140.3890   69.1920  228.3490 C   0  0  0  0  0  0  0  0  0  0  0  0
  140.4060   69.0560  226.8730 C   0  0  0  0  0  0  0  0  0  0  0  0
  141.0770   67.7250  226.4740 C   0  0  0  0  0  0  0  0  0  0  0  0
  139.1410   69.2290  226.1120 C   0  0  0  0  0  0  0  0  0  0  0  0
  139.2850   69.6840  224.7680 N   0  0  0  0  0  0  0  0  0  0  0  0
  139.7910   70.9000  224.2980 C   0  0  0  0  0  0  0  0  0  0  0  0
  140.2030   71.8290  225.0250 O   0  0  0  0  0  0  0  0  0  0  0  0
  139.8570   71.1440  222.8230 C   0  0  0  0  0  0  0  0  0  0  0  0
  140.1710   72.5360  222.5650 N   0  0  0  0  0  0  0  0  0  0  0  0
  140.7860   72.9740  221.3610 C   0  0  0  0  0  0  0  0  0  0  0  0
  141.0780   72.1320  220.4710 O   0  0  0  0  0  0  0  0  0  0  0  0
  141.0680   74.4100  221.1880 C   0  0  0  0  0  0  0  0  0  0  0  0
  141.9050   74.8810  220.2280 C   0  0  0  0  0  0  0  0  0  0  0  0
  142.1730   76.2220  220.0600 C   0  0  0  0  0  0  0  0  0  0  0  0
  141.5640   77.1380  220.9030 C   0  0  0  0  0  0  0  0  0  0  0  0
  141.7860   78.4820  220.7900 C   0  0  0  0  0  0  0  0  0  0  0  0
  141.1470   79.3410  221.6630 C   0  0  0  0  0  0  0  0  0  0  0  0
  141.4070   81.0610  221.5490 Cl  0  0  0  0  0  0  0  0  0  0  0  0
  140.2890   78.8780  222.6490 C   0  0  0  0  0  0  0  0  0  0  0  0
  140.0990   77.5240  222.7230 C   0  0  0  0  0  0  0  0  0  0  0  0
  140.7170   76.6360  221.8700 C   0  0  0  0  0  0  0  0  0  0  0  0
  140.4810   75.3310  222.0050 N   0  0  0  0  0  0  0  0  0  0  0  0
  140.5129   68.2010  228.8100 H   0  0  0  0  0  0  0  0  0  0  0  0
  141.2120   69.8494  228.6662 H   0  0  0  0  0  0  0  0  0  0  0  0
  139.4296   69.6266  228.6662 H   0  0  0  0  0  0  0  0  0  0  0  0
  140.9843   69.9408  226.5686 H   0  0  0  0  0  0  0  0  0  0  0  0
  141.3572   67.1693  227.3810 H   0  0  0  0  0  0  0  0  0  0  0  0
  140.3741   67.1241  225.8783 H   0  0  0  0  0  0  0  0  0  0  0  0
  141.9781   67.9328  225.8783 H   0  0  0  0  0  0  0  0  0  0  0  0
  138.6264   68.2571  226.0865 H   0  0  0  0  0  0  0  0  0  0  0  0
  138.5808   70.0168  226.6368 H   0  0  0  0  0  0  0  0  0  0  0  0
  138.9630   68.9980  224.0080 H   0  0  0  0  0  0  0  0  0  0  0  0
  140.6379   70.5066  222.3827 H   0  0  0  0  0  0  0  0  0  0  0  0
  138.8824   70.9039  222.3729 H   0  0  0  0  0  0  0  0  0  0  0  0
  139.9420   73.2770  223.2870 H   0  0  0  0  0  0  0  0  0  0  0  0
  142.3907   74.1597  219.5544 H   0  0  0  0  0  0  0  0  0  0  0  0
  142.8592   76.5601  219.2696 H   0  0  0  0  0  0  0  0  0  0  0  0
  142.4627   78.8734  220.0162 H   0  0  0  0  0  0  0  0  0  0  0  0
  139.7835   79.5677  223.3409 H   0  0  0  0  0  0  0  0  0  0  0  0
  139.4242   77.1284  223.4964 H   0  0  0  0  0  0  0  0  0  0  0  0
  1  2  1  0
  2  3  1  0
  2  4  1  0
  4  5  1  0
  5  6  1  0
  6  7  2  0
  6  8  1  0
  8  9  1  0
  9 10  1  0
 10 11  2  0
 10 12  1  0
 12 13  2  0
 13 14  1  0
 14 15  2  0
 15 16  1  0
 16 17  2  0
 17 18  1  0
 17 19  1  0
 19 20  2  0
 20 21  1  0
 21 22  2  0
 22 12  1  0
 21 15  1  0
  1 23  1  0
  1 24  1  0
  1 25  1  0
  2 26  1  0
  3 27  1  0
  3 28  1  0
  3 29  1  0
  4 30  1  0
  4 31  1  0
  5 32  1  0
  8 33  1  0
  8 34  1  0
  9 35  1  0
 13 36  1  0
 14 37  1  0
 16 38  1  0
 19 39  1  0
 20 40  1  0
M  END
>  <smiles>  (37) 
CC(C)CNC(=O)CNC(=O)c1ccc2cc(Cl)ccc2n1

>  <score_type>  (37) 
oracle

>  <origin>  (37) 
autodockgpu

>  <m_score__min__energy>  (37) 
-7.7000000000000002

>  <m_primary>  (37) 
energy

>  <rmsd>  (37) 
8.789235520461792

>  <m_score__min__rmsd>  (37) 
8.789235520461792

>  <meeko>  (37) 
{"free_energy": -6.32, "intermolecular_energy": -7.81, "internal_energy": -1.53, "cluster_size": 13, "cluster_id": 2, "rank_in_cluster": 12}

>  <energy>  (37) 
-6.72

>  <cluster_rmsd>  (37) 
0.48

>  <cluster>  (37) 
2

$$$$

     RDKit          3D

 40 41  0  0  0  0  0  0  0  0999 V2000
  140.3320   68.5110  228.6670 C   0  0  0  0  0  0  0  0  0  0  0  0
  140.2240   69.4330  227.5120 C   0  0  0  0  0  0  0  0  0  0  0  0
  140.6670   70.8520  227.9260 C   0  0  0  0  0  0  0  0  0  0  0  0
  140.8660   69.0630  226.2230 C   0  0  0  0  0  0  0  0  0  0  0  0
  140.2660   69.6160  225.0520 N   0  0  0  0  0  0  0  0  0  0  0  0
  140.2980   70.9320  224.5820 C   0  0  0  0  0  0  0  0  0  0  0  0
  140.8790   71.8790  225.1530 O   0  0  0  0  0  0  0  0  0  0  0  0
  139.5960   71.2690  223.3040 C   0  0  0  0  0  0  0  0  0  0  0  0
  139.9270   72.6220  222.9000 N   0  0  0  0  0  0  0  0  0  0  0  0
  140.7570   72.9080  221.7820 C   0  0  0  0  0  0  0  0  0  0  0  0
  141.2350   71.9600  221.1050 O   0  0  0  0  0  0  0  0  0  0  0  0
  141.0380   74.3150  221.4480 C   0  0  0  0  0  0  0  0  0  0  0  0
  141.8160   74.6760  220.3950 C   0  0  0  0  0  0  0  0  0  0  0  0
  142.0830   75.9890  220.0750 C   0  0  0  0  0  0  0  0  0  0  0  0
  141.5360   76.9940  220.8580 C   0  0  0  0  0  0  0  0  0  0  0  0
  141.7610   78.3160  220.5960 C   0  0  0  0  0  0  0  0  0  0  0  0
  141.1860   79.2670  221.4160 C   0  0  0  0  0  0  0  0  0  0  0  0
  141.4510   80.9640  221.1120 Cl  0  0  0  0  0  0  0  0  0  0  0  0
  140.3890   78.9180  222.4950 C   0  0  0  0  0  0  0  0  0  0  0  0
  140.1940   77.5810  222.7180 C   0  0  0  0  0  0  0  0  0  0  0  0
  140.7490   76.6040  221.9220 C   0  0  0  0  0  0  0  0  0  0  0  0
  140.5120   75.3220  222.2030 N   0  0  0  0  0  0  0  0  0  0  0  0
  140.2647   69.0857  229.6025 H   0  0  0  0  0  0  0  0  0  0  0  0
  139.5137   67.7769  228.6280 H   0  0  0  0  0  0  0  0  0  0  0  0
  141.2978   67.9859  228.6280 H   0  0  0  0  0  0  0  0  0  0  0  0
  139.1535   69.3674  227.2676 H   0  0  0  0  0  0  0  0  0  0  0  0
  140.6894   70.9236  229.0234 H   0  0  0  0  0  0  0  0  0  0  0  0
  141.6711   71.0543  227.5248 H   0  0  0  0  0  0  0  0  0  0  0  0
  139.9564   71.5896  227.5248 H   0  0  0  0  0  0  0  0  0  0  0  0
  141.9126   69.3997  226.2577 H   0  0  0  0  0  0  0  0  0  0  0  0
  140.7511   67.9728  226.1327 H   0  0  0  0  0  0  0  0  0  0  0  0
  139.7120   68.9250  224.4450 H   0  0  0  0  0  0  0  0  0  0  0  0
  139.9115   70.5665  222.5185 H   0  0  0  0  0  0  0  0  0  0  0  0
  138.5094   71.1927  223.4571 H   0  0  0  0  0  0  0  0  0  0  0  0
  139.5450   73.4490  223.4420 H   0  0  0  0  0  0  0  0  0  0  0  0
  142.2528   73.8839  219.7691 H   0  0  0  0  0  0  0  0  0  0  0  0
  142.7196   76.2360  219.2126 H   0  0  0  0  0  0  0  0  0  0  0  0
  142.3900   78.6180  219.7456 H   0  0  0  0  0  0  0  0  0  0  0  0
  139.9334   79.6810  223.1433 H   0  0  0  0  0  0  0  0  0  0  0  0
  139.5677   77.2746  223.5688 H   0  0  0  0  0  0  0  0  0  0  0  0
  1  2  1  0
  2  3  1  0
  2  4  1  0
  4  5  1  0
  5  6  1  0
  6  7  2  0
  6  8  1  0
  8  9  1  0
  9 10  1  0
 10 11  2  0
 10 12  1  0
 12 13  2  0
 13 14  1  0
 14 15  2  0
 15 16  1  0
 16 17  2  0
 17 18  1  0
 17 19  1  0
 19 20  2  0
 20 21  1  0
 21 22  2  0
 22 12  1  0
 21 15  1  0
  1 23  1  0
  1 24  1  0
  1 25  1  0
  2 26  1  0
  3 27  1  0
  3 28  1  0
  3 29  1  0
  4 30  1  0
  4 31  1  0
  5 32  1  0
  8 33  1  0
  8 34  1  0
  9 35  1  0
 13 36  1  0
 14 37  1  0
 16 38  1  0
 19 39  1  0
 20 40  1  0
M  END
>  <smiles>  (38) 
CC(C)CNC(=O)CNC(=O)c1ccc2cc(Cl)ccc2n1

>  <score_type>  (38) 
oracle

>  <origin>  (38) 
autodockgpu

>  <m_score__min__energy>  (38) 
-7.7000000000000002

>  <m_primary>  (38) 
energy

>  <rmsd>  (38) 
8.934759968990468

>  <m_score__min__rmsd>  (38) 
8.934759968990468

>  <meeko>  (38) 
{"free_energy": -6.69, "intermolecular_energy": -8.18, "internal_energy": -1.19, "cluster_size": 13, "cluster_id": 2, "rank_in_cluster": 8}

>  <energy>  (38) 
-6.72

>  <cluster_rmsd>  (38) 
0.51

>  <cluster>  (38) 
2

$$$$

     RDKit          3D

 40 41  0  0  0  0  0  0  0  0999 V2000
  141.8920   80.5470  221.6550 C   0  0  0  0  0  0  0  0  0  0  0  0
  141.4280   79.1450  221.7820 C   0  0  0  0  0  0  0  0  0  0  0  0
  141.4640   78.7080  223.2610 C   0  0  0  0  0  0  0  0  0  0  0  0
  140.1310   78.7500  221.1730 C   0  0  0  0  0  0  0  0  0  0  0  0
  140.0060   77.3730  220.8240 N   0  0  0  0  0  0  0  0  0  0  0  0
  139.6860   76.2820  221.6370 C   0  0  0  0  0  0  0  0  0  0  0  0
  139.4620   76.3490  222.8640 O   0  0  0  0  0  0  0  0  0  0  0  0
  139.5980   74.9170  221.0300 C   0  0  0  0  0  0  0  0  0  0  0  0
  139.6620   73.9070  222.0690 N   0  0  0  0  0  0  0  0  0  0  0  0
  139.7920   72.5210  221.7850 C   0  0  0  0  0  0  0  0  0  0  0  0
  139.8550   72.1350  220.5870 O   0  0  0  0  0  0  0  0  0  0  0  0
  139.8490   71.5680  222.9070 C   0  0  0  0  0  0  0  0  0  0  0  0
  139.3990   70.2910  222.8060 C   0  0  0  0  0  0  0  0  0  0  0  0
  139.4490   69.3930  223.8510 C   0  0  0  0  0  0  0  0  0  0  0  0
  139.9810   69.8050  225.0620 C   0  0  0  0  0  0  0  0  0  0  0  0
  140.0610   68.9660  226.1380 C   0  0  0  0  0  0  0  0  0  0  0  0
  140.6030   69.4400  227.3170 C   0  0  0  0  0  0  0  0  0  0  0  0
  140.7200   68.3980  228.7100 Cl  0  0  0  0  0  0  0  0  0  0  0  0
  141.0670   70.7400  227.4390 C   0  0  0  0  0  0  0  0  0  0  0  0
  140.9660   71.5430  226.3340 C   0  0  0  0  0  0  0  0  0  0  0  0
  140.4320   71.1060  225.1410 C   0  0  0  0  0  0  0  0  0  0  0  0
  140.3680   71.9490  224.1100 N   0  0  0  0  0  0  0  0  0  0  0  0
  142.0347   80.9782  222.6569 H   0  0  0  0  0  0  0  0  0  0  0  0
  142.8455   80.5694  221.1069 H   0  0  0  0  0  0  0  0  0  0  0  0
  141.1402   81.1338  221.1069 H   0  0  0  0  0  0  0  0  0  0  0  0
  142.1542   78.6076  221.1545 H   0  0  0  0  0  0  0  0  0  0  0  0
  141.3909   79.5951  223.9073 H   0  0  0  0  0  0  0  0  0  0  0  0
  140.6183   78.0349  223.4652 H   0  0  0  0  0  0  0  0  0  0  0  0
  142.4085   78.1824  223.4652 H   0  0  0  0  0  0  0  0  0  0  0  0
  139.3332   78.9905  221.8911 H   0  0  0  0  0  0  0  0  0  0  0  0
  140.0619   79.3068  220.2268 H   0  0  0  0  0  0  0  0  0  0  0  0
  140.1790   77.1390  219.7910 H   0  0  0  0  0  0  0  0  0  0  0  0
  138.6465   74.8207  220.4865 H   0  0  0  0  0  0  0  0  0  0  0  0
  140.4399   74.7753  220.3364 H   0  0  0  0  0  0  0  0  0  0  0  0
  139.6130   74.1890  223.0890 H   0  0  0  0  0  0  0  0  0  0  0  0
  138.9754   69.9578  221.8471 H   0  0  0  0  0  0  0  0  0  0  0  0
  139.0729   68.3670  223.7253 H   0  0  0  0  0  0  0  0  0  0  0  0
  139.6995   67.9296  226.0663 H   0  0  0  0  0  0  0  0  0  0  0  0
  141.4972   71.1105  228.3811 H   0  0  0  0  0  0  0  0  0  0  0  0
  141.3262   72.5802  226.4016 H   0  0  0  0  0  0  0  0  0  0  0  0
  1  2  1  0
  2  3  1  0
  2  4  1  0
  4  5  1  0
  5  6  1  0
  6  7  2  0
  6  8  1  0
  8  9  1  0
  9 10  1  0
 10 11  2  0
 10 12  1  0
 12 13  2  0
 13 14  1  0
 14 15  2  0
 15 16  1  0
 16 17  2  0
 17 18  1  0
 17 19  1  0
 19 20  2  0
 20 21  1  0
 21 22  2  0
 22 12  1  0
 21 15  1  0
  1 23  1  0
  1 24  1  0
  1 25  1  0
  2 26  1  0
  3 27  1  0
  3 28  1  0
  3 29  1  0
  4 30  1  0
  4 31  1  0
  5 32  1  0
  8 33  1  0
  8 34  1  0
  9 35  1  0
 13 36  1  0
 14 37  1  0
 16 38  1  0
 19 39  1  0
 20 40  1  0
M  END
>  <smiles>  (39) 
CC(C)CNC(=O)CNC(=O)c1ccc2cc(Cl)ccc2n1

>  <score_type>  (39) 
oracle

>  <origin>  (39) 
autodockgpu

>  <m_score__min__energy>  (39) 
-7.7000000000000002

>  <m_primary>  (39) 
energy

>  <rmsd>  (39) 
3.0735730501309284

>  <m_score__min__rmsd>  (39) 
3.0735730501309284

>  <meeko>  (39) 
{"free_energy": -6.57, "intermolecular_energy": -8.06, "internal_energy": -1.53, "cluster_size": 33, "cluster_id": 1, "rank_in_cluster": 28}

>  <energy>  (39) 
-6.71

>  <cluster_rmsd>  (39) 
0.5

>  <cluster>  (39) 
2

$$$$

     RDKit          3D

 40 41  0  0  0  0  0  0  0  0999 V2000
  142.2530   80.5340  221.9510 C   0  0  0  0  0  0  0  0  0  0  0  0
  141.6770   79.1690  221.9830 C   0  0  0  0  0  0  0  0  0  0  0  0
  141.4760   78.7150  223.4450 C   0  0  0  0  0  0  0  0  0  0  0  0
  140.4520   78.8770  221.1940 C   0  0  0  0  0  0  0  0  0  0  0  0
  140.2580   77.5090  220.8370 N   0  0  0  0  0  0  0  0  0  0  0  0
  139.8670   76.4350  221.6420 C   0  0  0  0  0  0  0  0  0  0  0  0
  139.6270   76.5110  222.8650 O   0  0  0  0  0  0  0  0  0  0  0  0
  139.7150   75.0790  221.0280 C   0  0  0  0  0  0  0  0  0  0  0  0
  139.7390   74.0610  222.0610 N   0  0  0  0  0  0  0  0  0  0  0  0
  139.9780   72.6890  221.7810 C   0  0  0  0  0  0  0  0  0  0  0  0
  140.1790   72.3220  220.5930 O   0  0  0  0  0  0  0  0  0  0  0  0
  139.9840   71.7270  222.8980 C   0  0  0  0  0  0  0  0  0  0  0  0
  139.5120   70.4600  222.7740 C   0  0  0  0  0  0  0  0  0  0  0  0
  139.5140   69.5540  223.8130 C   0  0  0  0  0  0  0  0  0  0  0  0
  140.0190   69.9460  225.0420 C   0  0  0  0  0  0  0  0  0  0  0  0
  140.0520   69.0980  226.1140 C   0  0  0  0  0  0  0  0  0  0  0  0
  140.5690   69.5520  227.3110 C   0  0  0  0  0  0  0  0  0  0  0  0
  140.6250   68.4980  228.6990 Cl  0  0  0  0  0  0  0  0  0  0  0  0
  141.0550   70.8430  227.4560 C   0  0  0  0  0  0  0  0  0  0  0  0
  141.0010   71.6550  226.3550 C   0  0  0  0  0  0  0  0  0  0  0  0
  140.4940   71.2380  225.1440 C   0  0  0  0  0  0  0  0  0  0  0  0
  140.4760   72.0890  224.1180 N   0  0  0  0  0  0  0  0  0  0  0  0
  142.4042   80.8924  222.9799 H   0  0  0  0  0  0  0  0  0  0  0  0
  143.2187   80.5122  221.4247 H   0  0  0  0  0  0  0  0  0  0  0  0
  141.5637   81.2106  221.4247 H   0  0  0  0  0  0  0  0  0  0  0  0
  142.4425   78.5865  221.4495 H   0  0  0  0  0  0  0  0  0  0  0  0
  141.8258   79.5051  224.1257 H   0  0  0  0  0  0  0  0  0  0  0  0
  140.4082   78.5218  223.6255 H   0  0  0  0  0  0  0  0  0  0  0  0
  142.0507   77.7946  223.6255 H   0  0  0  0  0  0  0  0  0  0  0  0
  139.5832   79.1980  221.7874 H   0  0  0  0  0  0  0  0  0  0  0  0
  140.5694   79.4210  220.2452 H   0  0  0  0  0  0  0  0  0  0  0  0
  140.4350   77.2690  219.8060 H   0  0  0  0  0  0  0  0  0  0  0  0
  138.7574   75.0285  220.4890 H   0  0  0  0  0  0  0  0  0  0  0  0
  140.5462   74.9039  220.3292 H   0  0  0  0  0  0  0  0  0  0  0  0
  139.5760   74.3270  223.0740 H   0  0  0  0  0  0  0  0  0  0  0  0
  139.1099   70.1422  221.8007 H   0  0  0  0  0  0  0  0  0  0  0  0
  139.1212   68.5367  223.6686 H   0  0  0  0  0  0  0  0  0  0  0  0
  139.6724   68.0695  226.0241 H   0  0  0  0  0  0  0  0  0  0  0  0
  141.4654   71.1985  228.4127 H   0  0  0  0  0  0  0  0  0  0  0  0
  141.3787   72.6845  226.4412 H   0  0  0  0  0  0  0  0  0  0  0  0
  1  2  1  0
  2  3  1  0
  2  4  1  0
  4  5  1  0
  5  6  1  0
  6  7  2  0
  6  8  1  0
  8  9  1  0
  9 10  1  0
 10 11  2  0
 10 12  1  0
 12 13  2  0
 13 14  1  0
 14 15  2  0
 15 16  1  0
 16 17  2  0
 17 18  1  0
 17 19  1  0
 19 20  2  0
 20 21  1  0
 21 22  2  0
 22 12  1  0
 21 15  1  0
  1 23  1  0
  1 24  1  0
  1 25  1  0
  2 26  1  0
  3 27  1  0
  3 28  1  0
  3 29  1  0
  4 30  1  0
  4 31  1  0
  5 32  1  0
  8 33  1  0
  8 34  1  0
  9 35  1  0
 13 36  1  0
 14 37  1  0
 16 38  1  0
 19 39  1  0
 20 40  1  0
M  END
>  <smiles>  (40) 
CC(C)CNC(=O)CNC(=O)c1ccc2cc(Cl)ccc2n1

>  <score_type>  (40) 
oracle

>  <origin>  (40) 
autodockgpu

>  <m_score__min__energy>  (40) 
-7.7000000000000002

>  <m_primary>  (40) 
energy

>  <rmsd>  (40) 
3.2373425388725727

>  <m_score__min__rmsd>  (40) 
3.2373425388725727

>  <meeko>  (40) 
{"free_energy": -6.72, "intermolecular_energy": -8.21, "internal_energy": -1.45, "cluster_size": 33, "cluster_id": 1, "rank_in_cluster": 18}

>  <energy>  (40) 
-6.69

>  <cluster_rmsd>  (40) 
0.52

>  <cluster>  (40) 
2

$$$$

     RDKit          3D

 40 41  0  0  0  0  0  0  0  0999 V2000
  142.1430   79.3950  222.6080 C   0  0  0  0  0  0  0  0  0  0  0  0
  140.8060   78.7580  222.5460 C   0  0  0  0  0  0  0  0  0  0  0  0
  139.8260   79.4950  223.4840 C   0  0  0  0  0  0  0  0  0  0  0  0
  140.1650   78.5370  221.2230 C   0  0  0  0  0  0  0  0  0  0  0  0
  139.5600   77.2590  221.0350 N   0  0  0  0  0  0  0  0  0  0  0  0
  139.9240   76.0220  221.5760 C   0  0  0  0  0  0  0  0  0  0  0  0
  140.8960   75.8360  222.3370 O   0  0  0  0  0  0  0  0  0  0  0  0
  139.1140   74.8100  221.2390 C   0  0  0  0  0  0  0  0  0  0  0  0
  139.3120   73.7870  222.2480 N   0  0  0  0  0  0  0  0  0  0  0  0
  139.1460   72.4010  221.9780 C   0  0  0  0  0  0  0  0  0  0  0  0
  138.8150   72.0280  220.8210 O   0  0  0  0  0  0  0  0  0  0  0  0
  139.3690   71.4340  223.0670 C   0  0  0  0  0  0  0  0  0  0  0  0
  138.9880   70.1330  222.9800 C   0  0  0  0  0  0  0  0  0  0  0  0
  139.1920   69.2230  223.9940 C   0  0  0  0  0  0  0  0  0  0  0  0
  139.8150   69.6450  225.1580 C   0  0  0  0  0  0  0  0  0  0  0  0
  140.0490   68.7930  226.2010 C   0  0  0  0  0  0  0  0  0  0  0  0
  140.6740   69.2780  227.3330 C   0  0  0  0  0  0  0  0  0  0  0  0
  140.9880   68.2210  228.6840 Cl  0  0  0  0  0  0  0  0  0  0  0  0
  141.0700   70.6030  227.4390 C   0  0  0  0  0  0  0  0  0  0  0  0
  140.8140   71.4170  226.3690 C   0  0  0  0  0  0  0  0  0  0  0  0
  140.1940   70.9700  225.2230 C   0  0  0  0  0  0  0  0  0  0  0  0
  139.9800   71.8250  224.2230 N   0  0  0  0  0  0  0  0  0  0  0  0
  142.4346   79.5339  223.6595 H   0  0  0  0  0  0  0  0  0  0  0  0
  142.8796   78.7511  222.1052 H   0  0  0  0  0  0  0  0  0  0  0  0
  142.1070   80.3727  222.1052 H   0  0  0  0  0  0  0  0  0  0  0  0
  141.0280   77.7310  222.8717 H   0  0  0  0  0  0  0  0  0  0  0  0
  140.0968   79.2913  224.5305 H   0  0  0  0  0  0  0  0  0  0  0  0
  139.8813   80.5772  223.2949 H   0  0  0  0  0  0  0  0  0  0  0  0
  138.8016   79.1416  223.2949 H   0  0  0  0  0  0  0  0  0  0  0  0
  139.3857   79.3024  221.0929 H   0  0  0  0  0  0  0  0  0  0  0  0
  140.9765   78.5966  220.4828 H   0  0  0  0  0  0  0  0  0  0  0  0
  138.7030   77.2430  220.3890 H   0  0  0  0  0  0  0  0  0  0  0  0
  138.0490   75.0825  221.2001 H   0  0  0  0  0  0  0  0  0  0  0  0
  139.4345   74.4209  220.2613 H   0  0  0  0  0  0  0  0  0  0  0  0
  139.5920   74.0560  223.2330 H   0  0  0  0  0  0  0  0  0  0  0  0
  138.4944   69.7907  222.0585 H   0  0  0  0  0  0  0  0  0  0  0  0
  138.8658   68.1785  223.8817 H   0  0  0  0  0  0  0  0  0  0  0  0
  139.7443   67.7378  226.1397 H   0  0  0  0  0  0  0  0  0  0  0  0
  141.5679   70.9829  228.3433 H   0  0  0  0  0  0  0  0  0  0  0  0
  141.1162   72.4731  226.4266 H   0  0  0  0  0  0  0  0  0  0  0  0
  1  2  1  0
  2  3  1  0
  2  4  1  0
  4  5  1  0
  5  6  1  0
  6  7  2  0
  6  8  1  0
  8  9  1  0
  9 10  1  0
 10 11  2  0
 10 12  1  0
 12 13  2  0
 13 14  1  0
 14 15  2  0
 15 16  1  0
 16 17  2  0
 17 18  1  0
 17 19  1  0
 19 20  2  0
 20 21  1  0
 21 22  2  0
 22 12  1  0
 21 15  1  0
  1 23  1  0
  1 24  1  0
  1 25  1  0
  2 26  1  0
  3 27  1  0
  3 28  1  0
  3 29  1  0
  4 30  1  0
  4 31  1  0
  5 32  1  0
  8 33  1  0
  8 34  1  0
  9 35  1  0
 13 36  1  0
 14 37  1  0
 16 38  1  0
 19 39  1  0
 20 40  1  0
M  END
>  <smiles>  (41) 
CC(C)CNC(=O)CNC(=O)c1ccc2cc(Cl)ccc2n1

>  <score_type>  (41) 
oracle

>  <origin>  (41) 
autodockgpu

>  <m_score__min__energy>  (41) 
-7.7000000000000002

>  <m_primary>  (41) 
energy

>  <rmsd>  (41) 
3.1296029858858065

>  <m_score__min__rmsd>  (41) 
3.1296029858858065

>  <meeko>  (41) 
{"free_energy": -6.7, "intermolecular_energy": -8.19, "internal_energy": -1.41, "cluster_size": 33, "cluster_id": 1, "rank_in_cluster": 22}

>  <energy>  (41) 
-6.69

>  <cluster_rmsd>  (41) 
1.26

>  <cluster>  (41) 
2

$$$$

     RDKit          3D

 40 41  0  0  0  0  0  0  0  0999 V2000
  140.6670   69.4620  227.6760 C   0  0  0  0  0  0  0  0  0  0  0  0
  140.5510   70.7880  227.0230 C   0  0  0  0  0  0  0  0  0  0  0  0
  141.0630   71.8910  227.9730 C   0  0  0  0  0  0  0  0  0  0  0  0
  141.1290   70.9850  225.6680 C   0  0  0  0  0  0  0  0  0  0  0  0
  140.2150   71.4260  224.6640 N   0  0  0  0  0  0  0  0  0  0  0  0
  139.5030   70.6710  223.7270 C   0  0  0  0  0  0  0  0  0  0  0  0
  139.5720   69.4290  223.6110 O   0  0  0  0  0  0  0  0  0  0  0  0
  138.5820   71.3670  222.7760 C   0  0  0  0  0  0  0  0  0  0  0  0
  139.0770   72.7010  222.4930 N   0  0  0  0  0  0  0  0  0  0  0  0
  140.2760   72.9370  221.7670 C   0  0  0  0  0  0  0  0  0  0  0  0
  140.9480   71.9600  221.3440 O   0  0  0  0  0  0  0  0  0  0  0  0
  140.7000   74.3280  221.5290 C   0  0  0  0  0  0  0  0  0  0  0  0
  141.6790   74.6530  220.6460 C   0  0  0  0  0  0  0  0  0  0  0  0
  142.0810   75.9510  220.4180 C   0  0  0  0  0  0  0  0  0  0  0  0
  141.4630   76.9770  221.1150 C   0  0  0  0  0  0  0  0  0  0  0  0
  141.8130   78.2860  220.9350 C   0  0  0  0  0  0  0  0  0  0  0  0
  141.1570   79.2590  221.6630 C   0  0  0  0  0  0  0  0  0  0  0  0
  141.5780   80.9390  221.4600 Cl  0  0  0  0  0  0  0  0  0  0  0  0
  140.1550   78.9460  222.5680 C   0  0  0  0  0  0  0  0  0  0  0  0
  139.8400   77.6210  222.7140 C   0  0  0  0  0  0  0  0  0  0  0  0
  140.4710   76.6220  222.0060 C   0  0  0  0  0  0  0  0  0  0  0  0
  140.1070   75.3550  222.2030 N   0  0  0  0  0  0  0  0  0  0  0  0
  140.6559   69.5891  228.7686 H   0  0  0  0  0  0  0  0  0  0  0  0
  139.8209   68.8283  227.3719 H   0  0  0  0  0  0  0  0  0  0  0  0
  141.6103   68.9848  227.3719 H   0  0  0  0  0  0  0  0  0  0  0  0
  139.4703   70.8516  226.8277 H   0  0  0  0  0  0  0  0  0  0  0  0
  140.9158   71.5740  229.0160 H   0  0  0  0  0  0  0  0  0  0  0  0
  142.1337   72.0645  227.7901 H   0  0  0  0  0  0  0  0  0  0  0  0
  140.5044   72.8208  227.7901 H   0  0  0  0  0  0  0  0  0  0  0  0
  141.9306   71.7340  225.7480 H   0  0  0  0  0  0  0  0  0  0  0  0
  141.4765   69.9933  225.3428 H   0  0  0  0  0  0  0  0  0  0  0  0
  140.0480   72.4850  224.6230 H   0  0  0  0  0  0  0  0  0  0  0  0
  138.5243   70.7934  221.8391 H   0  0  0  0  0  0  0  0  0  0  0  0
  137.5828   71.4413  223.2300 H   0  0  0  0  0  0  0  0  0  0  0  0
  138.5410   73.5510  222.8300 H   0  0  0  0  0  0  0  0  0  0  0  0
  142.1731   73.8441  220.0879 H   0  0  0  0  0  0  0  0  0  0  0  0
  142.8799   76.1694  219.6941 H   0  0  0  0  0  0  0  0  0  0  0  0
  142.6044   78.5599  220.2218 H   0  0  0  0  0  0  0  0  0  0  0  0
  139.6359   79.7268  223.1433 H   0  0  0  0  0  0  0  0  0  0  0  0
  139.0497   77.3429  223.4268 H   0  0  0  0  0  0  0  0  0  0  0  0
  1  2  1  0
  2  3  1  0
  2  4  1  0
  4  5  1  0
  5  6  1  0
  6  7  2  0
  6  8  1  0
  8  9  1  0
  9 10  1  0
 10 11  2  0
 10 12  1  0
 12 13  2  0
 13 14  1  0
 14 15  2  0
 15 16  1  0
 16 17  2  0
 17 18  1  0
 17 19  1  0
 19 20  2  0
 20 21  1  0
 21 22  2  0
 22 12  1  0
 21 15  1  0
  1 23  1  0
  1 24  1  0
  1 25  1  0
  2 26  1  0
  3 27  1  0
  3 28  1  0
  3 29  1  0
  4 30  1  0
  4 31  1  0
  5 32  1  0
  8 33  1  0
  8 34  1  0
  9 35  1  0
 13 36  1  0
 14 37  1  0
 16 38  1  0
 19 39  1  0
 20 40  1  0
M  END
>  <smiles>  (42) 
CC(C)CNC(=O)CNC(=O)c1ccc2cc(Cl)ccc2n1

>  <score_type>  (42) 
oracle

>  <origin>  (42) 
autodockgpu

>  <m_score__min__energy>  (42) 
-7.7000000000000002

>  <m_primary>  (42) 
energy

>  <rmsd>  (42) 
8.418043321125792

>  <m_score__min__rmsd>  (42) 
8.418043321125792

>  <meeko>  (42) 
{"free_energy": -6.81, "intermolecular_energy": -8.3, "internal_energy": -1.21, "cluster_size": 13, "cluster_id": 2, "rank_in_cluster": 2}

>  <energy>  (42) 
-6.69

>  <cluster_rmsd>  (42) 
0.41

>  <cluster>  (42) 
2

$$$$

     RDKit          3D

 40 41  0  0  0  0  0  0  0  0999 V2000
  140.6910   69.4120  227.8270 C   0  0  0  0  0  0  0  0  0  0  0  0
  140.6760   70.6530  227.0170 C   0  0  0  0  0  0  0  0  0  0  0  0
  141.0610   71.8620  227.8960 C   0  0  0  0  0  0  0  0  0  0  0  0
  141.4360   70.6980  225.7400 C   0  0  0  0  0  0  0  0  0  0  0  0
  140.6660   70.9820  224.5730 N   0  0  0  0  0  0  0  0  0  0  0  0
  139.3080   70.7530  224.3340 C   0  0  0  0  0  0  0  0  0  0  0  0
  138.5210   70.2230  225.1460 O   0  0  0  0  0  0  0  0  0  0  0  0
  138.7180   71.1580  223.0200 C   0  0  0  0  0  0  0  0  0  0  0  0
  139.1750   72.4860  222.6600 N   0  0  0  0  0  0  0  0  0  0  0  0
  140.3880   72.7160  221.9550 C   0  0  0  0  0  0  0  0  0  0  0  0
  141.1080   71.7380  221.6220 O   0  0  0  0  0  0  0  0  0  0  0  0
  140.7710   74.1020  221.6330 C   0  0  0  0  0  0  0  0  0  0  0  0
  141.7060   74.4040  220.6960 C   0  0  0  0  0  0  0  0  0  0  0  0
  142.0690   75.6970  220.3890 C   0  0  0  0  0  0  0  0  0  0  0  0
  141.4560   76.7430  221.0610 C   0  0  0  0  0  0  0  0  0  0  0  0
  141.7690   78.0480  220.8050 C   0  0  0  0  0  0  0  0  0  0  0  0
  141.1210   79.0420  221.5110 C   0  0  0  0  0  0  0  0  0  0  0  0
  141.4950   80.7190  221.2110 Cl  0  0  0  0  0  0  0  0  0  0  0  0
  140.1630   78.7530  222.4710 C   0  0  0  0  0  0  0  0  0  0  0  0
  139.8840   77.4310  222.6920 C   0  0  0  0  0  0  0  0  0  0  0  0
  140.5090   76.4120  222.0080 C   0  0  0  0  0  0  0  0  0  0  0  0
  140.1820   75.1480  222.2810 N   0  0  0  0  0  0  0  0  0  0  0  0
  140.6879   69.6718  228.8959 H   0  0  0  0  0  0  0  0  0  0  0  0
  139.8001   68.8107  227.5932 H   0  0  0  0  0  0  0  0  0  0  0  0
  141.5962   68.8324  227.5932 H   0  0  0  0  0  0  0  0  0  0  0  0
  139.6330   70.6853  226.6691 H   0  0  0  0  0  0  0  0  0  0  0  0
  140.9733   71.5864  228.9573 H   0  0  0  0  0  0  0  0  0  0  0  0
  142.0979   72.1580  227.6785 H   0  0  0  0  0  0  0  0  0  0  0  0
  140.3863   72.7031  227.6785 H   0  0  0  0  0  0  0  0  0  0  0  0
  142.2083   71.4758  225.8332 H   0  0  0  0  0  0  0  0  0  0  0  0
  141.8395   69.6850  225.5946 H   0  0  0  0  0  0  0  0  0  0  0  0
  141.2040   71.4380  223.7630 H   0  0  0  0  0  0  0  0  0  0  0  0
  139.0298   70.4427  222.2447 H   0  0  0  0  0  0  0  0  0  0  0  0
  137.6211   71.1635  223.1028 H   0  0  0  0  0  0  0  0  0  0  0  0
  138.5990   73.3370  222.9200 H   0  0  0  0  0  0  0  0  0  0  0  0
  142.1957   73.5791  220.1577 H   0  0  0  0  0  0  0  0  0  0  0  0
  142.8329   75.8961  219.6230 H   0  0  0  0  0  0  0  0  0  0  0  0
  142.5255   78.3028  220.0482 H   0  0  0  0  0  0  0  0  0  0  0  0
  139.6504   79.5499  223.0297 H   0  0  0  0  0  0  0  0  0  0  0  0
  139.1284   77.1716  223.4482 H   0  0  0  0  0  0  0  0  0  0  0  0
  1  2  1  0
  2  3  1  0
  2  4  1  0
  4  5  1  0
  5  6  1  0
  6  7  2  0
  6  8  1  0
  8  9  1  0
  9 10  1  0
 10 11  2  0
 10 12  1  0
 12 13  2  0
 13 14  1  0
 14 15  2  0
 15 16  1  0
 16 17  2  0
 17 18  1  0
 17 19  1  0
 19 20  2  0
 20 21  1  0
 21 22  2  0
 22 12  1  0
 21 15  1  0
  1 23  1  0
  1 24  1  0
  1 25  1  0
  2 26  1  0
  3 27  1  0
  3 28  1  0
  3 29  1  0
  4 30  1  0
  4 31  1  0
  5 32  1  0
  8 33  1  0
  8 34  1  0
  9 35  1  0
 13 36  1  0
 14 37  1  0
 16 38  1  0
 19 39  1  0
 20 40  1  0
M  END
>  <smiles>  (43) 
CC(C)CNC(=O)CNC(=O)c1ccc2cc(Cl)ccc2n1

>  <score_type>  (43) 
oracle

>  <origin>  (43) 
autodockgpu

>  <m_score__min__energy>  (43) 
-7.7000000000000002

>  <m_primary>  (43) 
energy

>  <rmsd>  (43) 
8.417159014360942

>  <m_score__min__rmsd>  (43) 
8.417159014360942

>  <meeko>  (43) 
{"free_energy": -6.69, "intermolecular_energy": -8.19, "internal_energy": -1.74, "cluster_size": 13, "cluster_id": 2, "rank_in_cluster": 7}

>  <energy>  (43) 
-6.62

>  <cluster_rmsd>  (43) 
0.6

>  <cluster>  (43) 
2

$$$$

     RDKit          3D

 40 41  0  0  0  0  0  0  0  0999 V2000
  141.3840   80.9310  222.5980 C   0  0  0  0  0  0  0  0  0  0  0  0
  141.2920   79.4750  222.3360 C   0  0  0  0  0  0  0  0  0  0  0  0
  141.8210   78.6860  223.5520 C   0  0  0  0  0  0  0  0  0  0  0  0
  139.9990   78.8970  221.8860 C   0  0  0  0  0  0  0  0  0  0  0  0
  140.0500   77.5450  221.4340 N   0  0  0  0  0  0  0  0  0  0  0  0
  139.4510   76.4080  221.9850 C   0  0  0  0  0  0  0  0  0  0  0  0
  138.7530   76.4000  223.0200 O   0  0  0  0  0  0  0  0  0  0  0  0
  139.6400   75.0840  221.3120 C   0  0  0  0  0  0  0  0  0  0  0  0
  139.6920   74.0280  222.3050 N   0  0  0  0  0  0  0  0  0  0  0  0
  139.9180   72.6660  221.9650 C   0  0  0  0  0  0  0  0  0  0  0  0
  140.0820   72.3460  220.7580 O   0  0  0  0  0  0  0  0  0  0  0  0
  139.9540   71.6620  223.0430 C   0  0  0  0  0  0  0  0  0  0  0  0
  139.5220   70.3860  222.8690 C   0  0  0  0  0  0  0  0  0  0  0  0
  139.5530   69.4410  223.8710 C   0  0  0  0  0  0  0  0  0  0  0  0
  140.0460   69.8000  225.1150 C   0  0  0  0  0  0  0  0  0  0  0  0
  140.1050   68.9120  226.1520 C   0  0  0  0  0  0  0  0  0  0  0  0
  140.6070   69.3350  227.3670 C   0  0  0  0  0  0  0  0  0  0  0  0
  140.6970   68.2290  228.7130 Cl  0  0  0  0  0  0  0  0  0  0  0  0
  141.0530   70.6330  227.5630 C   0  0  0  0  0  0  0  0  0  0  0  0
  140.9740   71.4860  226.4950 C   0  0  0  0  0  0  0  0  0  0  0  0
  140.4790   71.1010  225.2680 C   0  0  0  0  0  0  0  0  0  0  0  0
  140.4350   71.9910  224.2760 N   0  0  0  0  0  0  0  0  0  0  0  0
  141.3952   81.1082  223.6836 H   0  0  0  0  0  0  0  0  0  0  0  0
  142.3089   81.3260  222.1524 H   0  0  0  0  0  0  0  0  0  0  0  0
  140.5162   81.4393  222.1524 H   0  0  0  0  0  0  0  0  0  0  0  0
  141.9212   79.3640  221.4406 H   0  0  0  0  0  0  0  0  0  0  0  0
  141.4916   79.1773  224.4794 H   0  0  0  0  0  0  0  0  0  0  0  0
  141.4283   77.6589  223.5217 H   0  0  0  0  0  0  0  0  0  0  0  0
  142.9203   78.6593  223.5217 H   0  0  0  0  0  0  0  0  0  0  0  0
  139.2953   78.9449  222.7301 H   0  0  0  0  0  0  0  0  0  0  0  0
  139.6911   79.4932  221.0144 H   0  0  0  0  0  0  0  0  0  0  0  0
  140.6270   77.3750  220.5460 H   0  0  0  0  0  0  0  0  0  0  0  0
  138.7990   74.8996  220.6273 H   0  0  0  0  0  0  0  0  0  0  0  0
  140.5838   75.0965  220.7471 H   0  0  0  0  0  0  0  0  0  0  0  0
  139.5600   74.2540  223.3310 H   0  0  0  0  0  0  0  0  0  0  0  0
  139.1298   70.0941  221.8837 H   0  0  0  0  0  0  0  0  0  0  0  0
  139.1923   68.4184  223.6864 H   0  0  0  0  0  0  0  0  0  0  0  0
  139.7580   67.8764  226.0210 H   0  0  0  0  0  0  0  0  0  0  0  0
  141.4525   70.9628  228.5334 H   0  0  0  0  0  0  0  0  0  0  0  0
  141.3203   72.5224  226.6217 H   0  0  0  0  0  0  0  0  0  0  0  0
  1  2  1  0
  2  3  1  0
  2  4  1  0
  4  5  1  0
  5  6  1  0
  6  7  2  0
  6  8  1  0
  8  9  1  0
  9 10  1  0
 10 11  2  0
 10 12  1  0
 12 13  2  0
 13 14  1  0
 14 15  2  0
 15 16  1  0
 16 17  2  0
 17 18  1  0
 17 19  1  0
 19 20  2  0
 20 21  1  0
 21 22  2  0
 22 12  1  0
 21 15  1  0
  1 23  1  0
  1 24  1  0
  1 25  1  0
  2 26  1  0
  3 27  1  0
  3 28  1  0
  3 29  1  0
  4 30  1  0
  4 31  1  0
  5 32  1  0
  8 33  1  0
  8 34  1  0
  9 35  1  0
 13 36  1  0
 14 37  1  0
 16 38  1  0
 19 39  1  0
 20 40  1  0
M  END
>  <smiles>  (44) 
CC(C)CNC(=O)CNC(=O)c1ccc2cc(Cl)ccc2n1

>  <score_type>  (44) 
oracle

>  <origin>  (44) 
autodockgpu

>  <m_score__min__energy>  (44) 
-7.7000000000000002

>  <m_primary>  (44) 
energy

>  <rmsd>  (44) 
3.3970814162642506

>  <m_score__min__rmsd>  (44) 
3.3970814162642506

>  <meeko>  (44) 
{"free_energy": -6.74, "intermolecular_energy": -8.24, "internal_energy": -1.38, "cluster_size": 33, "cluster_id": 1, "rank_in_cluster": 16}

>  <energy>  (44) 
-6.55

>  <cluster_rmsd>  (44) 
1.27

>  <cluster>  (44) 
2

$$$$

     RDKit          3D

 40 41  0  0  0  0  0  0  0  0999 V2000
  145.7120   74.1110  220.8250 C   0  0  0  0  0  0  0  0  0  0  0  0
  144.4390   73.9370  220.0840 C   0  0  0  0  0  0  0  0  0  0  0  0
  143.6780   72.7080  220.6250 C   0  0  0  0  0  0  0  0  0  0  0  0
  143.5080   75.0880  219.9580 C   0  0  0  0  0  0  0  0  0  0  0  0
  142.1390   74.8110  220.2480 N   0  0  0  0  0  0  0  0  0  0  0  0
  141.2040   75.6000  220.9240 C   0  0  0  0  0  0  0  0  0  0  0  0
  141.4410   76.7230  221.4160 O   0  0  0  0  0  0  0  0  0  0  0  0
  139.8060   75.0940  221.0930 C   0  0  0  0  0  0  0  0  0  0  0  0
  139.7720   74.0650  222.1150 N   0  0  0  0  0  0  0  0  0  0  0  0
  140.1920   72.7290  221.8740 C   0  0  0  0  0  0  0  0  0  0  0  0
  140.6130   72.4070  220.7320 O   0  0  0  0  0  0  0  0  0  0  0  0
  140.1200   71.7520  222.9750 C   0  0  0  0  0  0  0  0  0  0  0  0
  139.5730   70.5180  222.8240 C   0  0  0  0  0  0  0  0  0  0  0  0
  139.5030   69.5990  223.8480 C   0  0  0  0  0  0  0  0  0  0  0  0
  140.0110   69.9410  225.0910 C   0  0  0  0  0  0  0  0  0  0  0  0
  139.9740   69.0760  226.1490 C   0  0  0  0  0  0  0  0  0  0  0  0
  140.4990   69.4800  227.3610 C   0  0  0  0  0  0  0  0  0  0  0  0
  140.4680   68.4040  228.7330 Cl  0  0  0  0  0  0  0  0  0  0  0  0
  141.0610   70.7350  227.5340 C   0  0  0  0  0  0  0  0  0  0  0  0
  141.0750   71.5660  226.4450 C   0  0  0  0  0  0  0  0  0  0  0  0
  140.5630   71.1990  225.2200 C   0  0  0  0  0  0  0  0  0  0  0  0
  140.6140   72.0650  224.2080 N   0  0  0  0  0  0  0  0  0  0  0  0
  145.5134   74.0838  221.9066 H   0  0  0  0  0  0  0  0  0  0  0  0
  146.4050   73.2992  220.5590 H   0  0  0  0  0  0  0  0  0  0  0  0
  146.1618   75.0790  220.5590 H   0  0  0  0  0  0  0  0  0  0  0  0
  144.7921   73.8077  219.0503 H   0  0  0  0  0  0  0  0  0  0  0  0
  143.6886   72.7251  221.7248 H   0  0  0  0  0  0  0  0  0  0  0  0
  142.6379   72.7343  220.2679 H   0  0  0  0  0  0  0  0  0  0  0  0
  144.1651   71.7887  220.2679 H   0  0  0  0  0  0  0  0  0  0  0  0
  143.8473   75.8743  220.6484 H   0  0  0  0  0  0  0  0  0  0  0  0
  143.5364   75.3820  218.8984 H   0  0  0  0  0  0  0  0  0  0  0  0
  141.7730   73.8650  219.8980 H   0  0  0  0  0  0  0  0  0  0  0  0
  139.1509   75.9258  221.3913 H   0  0  0  0  0  0  0  0  0  0  0  0
  139.4578   74.6688  220.1401 H   0  0  0  0  0  0  0  0  0  0  0  0
  139.4240   74.2930  223.0900 H   0  0  0  0  0  0  0  0  0  0  0  0
  139.1677   70.2399  221.8399 H   0  0  0  0  0  0  0  0  0  0  0  0
  139.0513   68.6099  223.6816 H   0  0  0  0  0  0  0  0  0  0  0  0
  139.5332   68.0744  226.0369 H   0  0  0  0  0  0  0  0  0  0  0  0
  141.4772   71.0497  228.5024 H   0  0  0  0  0  0  0  0  0  0  0  0
  141.5137   72.5689  226.5534 H   0  0  0  0  0  0  0  0  0  0  0  0
  1  2  1  0
  2  3  1  0
  2  4  1  0
  4  5  1  0
  5  6  1  0
  6  7  2  0
  6  8  1  0
  8  9  1  0
  9 10  1  0
 10 11  2  0
 10 12  1  0
 12 13  2  0
 13 14  1  0
 14 15  2  0
 15 16  1  0
 16 17  2  0
 17 18  1  0
 17 19  1  0
 19 20  2  0
 20 21  1  0
 21 22  2  0
 22 12  1  0
 21 15  1  0
  1 23  1  0
  1 24  1  0
  1 25  1  0
  2 26  1  0
  3 27  1  0
  3 28  1  0
  3 29  1  0
  4 30  1  0
  4 31  1  0
  5 32  1  0
  8 33  1  0
  8 34  1  0
  9 35  1  0
 13 36  1  0
 14 37  1  0
 16 38  1  0
 19 39  1  0
 20 40  1  0
M  END
>  <smiles>  (45) 
CC(C)CNC(=O)CNC(=O)c1ccc2cc(Cl)ccc2n1

>  <score_type>  (45) 
oracle

>  <origin>  (45) 
autodockgpu

>  <m_score__min__energy>  (45) 
-7.7000000000000002

>  <m_primary>  (45) 
energy

>  <rmsd>  (45) 
3.269682417248345

>  <m_score__min__rmsd>  (45) 
3.269682417248345

>  <meeko>  (45) 
{"free_energy": -6.66, "intermolecular_energy": -8.15, "internal_energy": -1.75, "cluster_size": 4, "cluster_id": 3, "rank_in_cluster": 1}

>  <energy>  (45) 
-6.32

>  <cluster_rmsd>  (45) 
1.4

>  <cluster>  (45) 
2

$$$$

     RDKit          3D

 40 41  0  0  0  0  0  0  0  0999 V2000
  139.1400   78.9600  223.0910 C   0  0  0  0  0  0  0  0  0  0  0  0
  140.3890   79.0380  222.2970 C   0  0  0  0  0  0  0  0  0  0  0  0
  141.5960   78.6330  223.1690 C   0  0  0  0  0  0  0  0  0  0  0  0
  140.4620   78.3430  220.9850 C   0  0  0  0  0  0  0  0  0  0  0  0
  139.7380   77.1170  220.8940 N   0  0  0  0  0  0  0  0  0  0  0  0
  139.9720   75.9050  221.5500 C   0  0  0  0  0  0  0  0  0  0  0  0
  140.9090   75.6950  222.3480 O   0  0  0  0  0  0  0  0  0  0  0  0
  139.0540   74.7500  221.3000 C   0  0  0  0  0  0  0  0  0  0  0  0
  139.2650   73.7230  222.3030 N   0  0  0  0  0  0  0  0  0  0  0  0
  139.0850   72.3390  222.0350 C   0  0  0  0  0  0  0  0  0  0  0  0
  138.7270   71.9710  220.8850 O   0  0  0  0  0  0  0  0  0  0  0  0
  139.3220   71.3690  223.1180 C   0  0  0  0  0  0  0  0  0  0  0  0
  138.9580   70.0640  223.0250 C   0  0  0  0  0  0  0  0  0  0  0  0
  139.1780   69.1510  224.0330 C   0  0  0  0  0  0  0  0  0  0  0  0
  139.7980   69.5740  225.1970 C   0  0  0  0  0  0  0  0  0  0  0  0
  140.0460   68.7200  226.2350 C   0  0  0  0  0  0  0  0  0  0  0  0
  140.6680   69.2070  227.3680 C   0  0  0  0  0  0  0  0  0  0  0  0
  140.9990   68.1470  228.7120 Cl  0  0  0  0  0  0  0  0  0  0  0  0
  141.0470   70.5360  227.4810 C   0  0  0  0  0  0  0  0  0  0  0  0
  140.7770   71.3530  226.4160 C   0  0  0  0  0  0  0  0  0  0  0  0
  140.1590   70.9040  225.2690 C   0  0  0  0  0  0  0  0  0  0  0  0
  139.9310   71.7620  224.2740 N   0  0  0  0  0  0  0  0  0  0  0  0
  139.3855   78.9753  224.1631 H   0  0  0  0  0  0  0  0  0  0  0  0
  138.4977   79.8198  222.8496 H   0  0  0  0  0  0  0  0  0  0  0  0
  138.6097   78.0270  222.8496 H   0  0  0  0  0  0  0  0  0  0  0  0
  140.4045   80.0975  222.0016 H   0  0  0  0  0  0  0  0  0  0  0  0
  141.3272   78.7232  224.2318 H   0  0  0  0  0  0  0  0  0  0  0  0
  141.8749   77.5921  222.9484 H   0  0  0  0  0  0  0  0  0  0  0  0
  142.4463   79.2950  222.9484 H   0  0  0  0  0  0  0  0  0  0  0  0
  140.0679   79.0261  220.2181 H   0  0  0  0  0  0  0  0  0  0  0  0
  141.5202   78.0778  220.8442 H   0  0  0  0  0  0  0  0  0  0  0  0
  138.8940   77.1250  220.2310 H   0  0  0  0  0  0  0  0  0  0  0  0
  138.0111   75.0966  221.3472 H   0  0  0  0  0  0  0  0  0  0  0  0
  139.2630   74.3312  220.3045 H   0  0  0  0  0  0  0  0  0  0  0  0
  139.5670   73.9900  223.2830 H   0  0  0  0  0  0  0  0  0  0  0  0
  138.4653   69.7205  222.1034 H   0  0  0  0  0  0  0  0  0  0  0  0
  138.8662   68.1027  223.9152 H   0  0  0  0  0  0  0  0  0  0  0  0
  139.7548   67.6613  226.1691 H   0  0  0  0  0  0  0  0  0  0  0  0
  141.5426   70.9170  228.3861 H   0  0  0  0  0  0  0  0  0  0  0  0
  141.0656   72.4126  226.4786 H   0  0  0  0  0  0  0  0  0  0  0  0
  1  2  1  0
  2  3  1  0
  2  4  1  0
  4  5  1  0
  5  6  1  0
  6  7  2  0
  6  8  1  0
  8  9  1  0
  9 10  1  0
 10 11  2  0
 10 12  1  0
 12 13  2  0
 13 14  1  0
 14 15  2  0
 15 16  1  0
 16 17  2  0
 17 18  1  0
 17 19  1  0
 19 20  2  0
 20 21  1  0
 21 22  2  0
 22 12  1  0
 21 15  1  0
  1 23  1  0
  1 24  1  0
  1 25  1  0
  2 26  1  0
  3 27  1  0
  3 28  1  0
  3 29  1  0
  4 30  1  0
  4 31  1  0
  5 32  1  0
  8 33  1  0
  8 34  1  0
  9 35  1  0
 13 36  1  0
 14 37  1  0
 16 38  1  0
 19 39  1  0
 20 40  1  0
M  END
>  <smiles>  (46) 
CC(C)CNC(=O)CNC(=O)c1ccc2cc(Cl)ccc2n1

>  <score_type>  (46) 
oracle

>  <origin>  (46) 
autodockgpu

>  <m_score__min__energy>  (46) 
-7.7000000000000002

>  <m_primary>  (46) 
energy

>  <rmsd>  (46) 
3.1182337932756035

>  <m_score__min__rmsd>  (46) 
3.1182337932756035

>  <meeko>  (46) 
{"free_energy": -6.53, "intermolecular_energy": -8.02, "internal_energy": -1.49, "cluster_size": 33, "cluster_id": 1, "rank_in_cluster": 29}

>  <energy>  (46) 
-6.24

>  <cluster_rmsd>  (46) 
1.36

>  <cluster>  (46) 
2

$$$$

     RDKit          3D

 40 41  0  0  0  0  0  0  0  0999 V2000
  141.7900   80.0220  221.1310 C   0  0  0  0  0  0  0  0  0  0  0  0
  142.2110   79.3660  222.3920 C   0  0  0  0  0  0  0  0  0  0  0  0
  142.7470   80.4220  223.3820 C   0  0  0  0  0  0  0  0  0  0  0  0
  141.2640   78.4580  223.0910 C   0  0  0  0  0  0  0  0  0  0  0  0
  140.9980   77.2200  222.4340 N   0  0  0  0  0  0  0  0  0  0  0  0
  139.7800   76.7110  221.9730 C   0  0  0  0  0  0  0  0  0  0  0  0
  138.6780   77.2880  222.0830 O   0  0  0  0  0  0  0  0  0  0  0  0
  139.7550   75.3780  221.2930 C   0  0  0  0  0  0  0  0  0  0  0  0
  139.7680   74.3170  222.2820 N   0  0  0  0  0  0  0  0  0  0  0  0
  140.0810   72.9690  221.9580 C   0  0  0  0  0  0  0  0  0  0  0  0
  140.3620   72.6650  220.7680 O   0  0  0  0  0  0  0  0  0  0  0  0
  140.0680   71.9590  223.0310 C   0  0  0  0  0  0  0  0  0  0  0  0
  139.5910   70.7020  222.8460 C   0  0  0  0  0  0  0  0  0  0  0  0
  139.5760   69.7510  223.8440 C   0  0  0  0  0  0  0  0  0  0  0  0
  140.0680   70.0860  225.0950 C   0  0  0  0  0  0  0  0  0  0  0  0
  140.0830   69.1910  226.1290 C   0  0  0  0  0  0  0  0  0  0  0  0
  140.5890   69.5900  227.3510 C   0  0  0  0  0  0  0  0  0  0  0  0
  140.6220   68.4750  228.6920 Cl  0  0  0  0  0  0  0  0  0  0  0  0
  141.0800   70.8690  227.5580 C   0  0  0  0  0  0  0  0  0  0  0  0
  141.0440   71.7300  226.4930 C   0  0  0  0  0  0  0  0  0  0  0  0
  140.5490   71.3690  225.2590 C   0  0  0  0  0  0  0  0  0  0  0  0
  140.5480   72.2640  224.2710 N   0  0  0  0  0  0  0  0  0  0  0  0
  141.2094   80.9267  221.3644 H   0  0  0  0  0  0  0  0  0  0  0  0
  142.6800   80.2981  220.5465 H   0  0  0  0  0  0  0  0  0  0  0  0
  141.1682   79.3279  220.5465 H   0  0  0  0  0  0  0  0  0  0  0  0
  142.9859   78.6693  222.0395 H   0  0  0  0  0  0  0  0  0  0  0  0
  142.5733   80.0797  224.4129 H   0  0  0  0  0  0  0  0  0  0  0  0
  143.8257   80.5629  223.2193 H   0  0  0  0  0  0  0  0  0  0  0  0
  142.2240   81.3759  223.2193 H   0  0  0  0  0  0  0  0  0  0  0  0
  141.6821   78.2316  224.0830 H   0  0  0  0  0  0  0  0  0  0  0  0
  140.3035   78.9931  223.1245 H   0  0  0  0  0  0  0  0  0  0  0  0
  141.8500   76.5890  222.2690 H   0  0  0  0  0  0  0  0  0  0  0  0
  138.8429   75.2969  220.6835 H   0  0  0  0  0  0  0  0  0  0  0  0
  140.6425   75.2836  220.6500 H   0  0  0  0  0  0  0  0  0  0  0  0
  139.5390   74.5300  223.2950 H   0  0  0  0  0  0  0  0  0  0  0  0
  139.1987   70.4297  221.8551 H   0  0  0  0  0  0  0  0  0  0  0  0
  139.1801   68.7432  223.6502 H   0  0  0  0  0  0  0  0  0  0  0  0
  139.6983   68.1699  225.9899 H   0  0  0  0  0  0  0  0  0  0  0  0
  141.4809   71.1793  228.5342 H   0  0  0  0  0  0  0  0  0  0  0  0
  141.4264   72.7524  226.6288 H   0  0  0  0  0  0  0  0  0  0  0  0
  1  2  1  0
  2  3  1  0
  2  4  1  0
  4  5  1  0
  5  6  1  0
  6  7  2  0
  6  8  1  0
  8  9  1  0
  9 10  1  0
 10 11  2  0
 10 12  1  0
 12 13  2  0
 13 14  1  0
 14 15  2  0
 15 16  1  0
 16 17  2  0
 17 18  1  0
 17 19  1  0
 19 20  2  0
 20 21  1  0
 21 22  2  0
 22 12  1  0
 21 15  1  0
  1 23  1  0
  1 24  1  0
  1 25  1  0
  2 26  1  0
  3 27  1  0
  3 28  1  0
  3 29  1  0
  4 30  1  0
  4 31  1  0
  5 32  1  0
  8 33  1  0
  8 34  1  0
  9 35  1  0
 13 36  1  0
 14 37  1  0
 16 38  1  0
 19 39  1  0
 20 40  1  0
M  END
>  <smiles>  (47) 
CC(C)CNC(=O)CNC(=O)c1ccc2cc(Cl)ccc2n1

>  <score_type>  (47) 
oracle

>  <origin>  (47) 
autodockgpu

>  <m_score__min__energy>  (47) 
-7.7000000000000002

>  <m_primary>  (47) 
energy

>  <rmsd>  (47) 
3.5185599635313167

>  <m_score__min__rmsd>  (47) 
3.5185599635313167

>  <meeko>  (47) 
{"free_energy": -7.68, "intermolecular_energy": -9.17, "internal_energy": -0.87, "cluster_size": 33, "cluster_id": 1, "rank_in_cluster": 2}

>  <energy>  (47) 
-6.66

>  <cluster_rmsd>  (47) 
0.0

>  <cluster>  (47) 
3

$$$$

     RDKit          3D

 40 41  0  0  0  0  0  0  0  0999 V2000
  144.9280   73.3890  218.5230 C   0  0  0  0  0  0  0  0  0  0  0  0
  144.3320   73.8920  219.7830 C   0  0  0  0  0  0  0  0  0  0  0  0
  145.4390   74.1380  220.8290 C   0  0  0  0  0  0  0  0  0  0  0  0
  143.4150   75.0610  219.7390 C   0  0  0  0  0  0  0  0  0  0  0  0
  142.0460   74.7850  220.0310 N   0  0  0  0  0  0  0  0  0  0  0  0
  141.1520   75.5040  220.8290 C   0  0  0  0  0  0  0  0  0  0  0  0
  141.4350   76.5490  221.4540 O   0  0  0  0  0  0  0  0  0  0  0  0
  139.7450   75.0180  220.9730 C   0  0  0  0  0  0  0  0  0  0  0  0
  139.6750   73.9990  222.0030 N   0  0  0  0  0  0  0  0  0  0  0  0
  140.2760   72.7190  221.8580 C   0  0  0  0  0  0  0  0  0  0  0  0
  140.8990   72.4410  220.7990 O   0  0  0  0  0  0  0  0  0  0  0  0
  140.1520   71.7480  222.9590 C   0  0  0  0  0  0  0  0  0  0  0  0
  139.5430   70.5440  222.8070 C   0  0  0  0  0  0  0  0  0  0  0  0
  139.4240   69.6300  223.8320 C   0  0  0  0  0  0  0  0  0  0  0  0
  139.9470   69.9450  225.0760 C   0  0  0  0  0  0  0  0  0  0  0  0
  139.8630   69.0840  226.1340 C   0  0  0  0  0  0  0  0  0  0  0  0
  140.4060   69.4610  227.3470 C   0  0  0  0  0  0  0  0  0  0  0  0
  140.3170   68.3880  228.7190 Cl  0  0  0  0  0  0  0  0  0  0  0  0
  141.0320   70.6860  227.5200 C   0  0  0  0  0  0  0  0  0  0  0  0
  141.0910   71.5140  226.4310 C   0  0  0  0  0  0  0  0  0  0  0  0
  140.5620   71.1730  225.2050 C   0  0  0  0  0  0  0  0  0  0  0  0
  140.6600   72.0350  224.1930 N   0  0  0  0  0  0  0  0  0  0  0  0
  145.7494   72.6958  218.7570 H   0  0  0  0  0  0  0  0  0  0  0  0
  144.1592   72.8625  217.9383 H   0  0  0  0  0  0  0  0  0  0  0  0
  145.3178   74.2353  217.9383 H   0  0  0  0  0  0  0  0  0  0  0  0
  143.6519   73.0717  220.0561 H   0  0  0  0  0  0  0  0  0  0  0  0
  145.0157   74.0439  221.8399 H   0  0  0  0  0  0  0  0  0  0  0  0
  146.2401   73.3960  220.6964 H   0  0  0  0  0  0  0  0  0  0  0  0
  145.8505   75.1495  220.6964 H   0  0  0  0  0  0  0  0  0  0  0  0
  143.7742   75.8000  220.4704 H   0  0  0  0  0  0  0  0  0  0  0  0
  143.4336   75.4175  218.6985 H   0  0  0  0  0  0  0  0  0  0  0  0
  141.6430   73.9020  219.5720 H   0  0  0  0  0  0  0  0  0  0  0  0
  139.0949   75.8611  221.2499 H   0  0  0  0  0  0  0  0  0  0  0  0
  139.4118   74.5883  220.0168 H   0  0  0  0  0  0  0  0  0  0  0  0
  139.1620   74.1920  222.9090 H   0  0  0  0  0  0  0  0  0  0  0  0
  139.1261   70.2865  221.8222 H   0  0  0  0  0  0  0  0  0  0  0  0
  138.9217   68.6657  223.6651 H   0  0  0  0  0  0  0  0  0  0  0  0
  139.3710   68.1066  226.0215 H   0  0  0  0  0  0  0  0  0  0  0  0
  141.4621   70.9796  228.4889 H   0  0  0  0  0  0  0  0  0  0  0  0
  141.5814   72.4927  226.5393 H   0  0  0  0  0  0  0  0  0  0  0  0
  1  2  1  0
  2  3  1  0
  2  4  1  0
  4  5  1  0
  5  6  1  0
  6  7  2  0
  6  8  1  0
  8  9  1  0
  9 10  1  0
 10 11  2  0
 10 12  1  0
 12 13  2  0
 13 14  1  0
 14 15  2  0
 15 16  1  0
 16 17  2  0
 17 18  1  0
 17 19  1  0
 19 20  2  0
 20 21  1  0
 21 22  2  0
 22 12  1  0
 21 15  1  0
  1 23  1  0
  1 24  1  0
  1 25  1  0
  2 26  1  0
  3 27  1  0
  3 28  1  0
  3 29  1  0
  4 30  1  0
  4 31  1  0
  5 32  1  0
  8 33  1  0
  8 34  1  0
  9 35  1  0
 13 36  1  0
 14 37  1  0
 16 38  1  0
 19 39  1  0
 20 40  1  0
M  END
>  <smiles>  (48) 
CC(C)CNC(=O)CNC(=O)c1ccc2cc(Cl)ccc2n1

>  <score_type>  (48) 
oracle

>  <origin>  (48) 
autodockgpu

>  <m_score__min__energy>  (48) 
-7.7000000000000002

>  <m_primary>  (48) 
energy

>  <rmsd>  (48) 
3.1531203392587157

>  <m_score__min__rmsd>  (48) 
3.1531203392587157

>  <meeko>  (48) 
{"free_energy": -6.51, "intermolecular_energy": -8.0, "internal_energy": -1.56, "cluster_size": 4, "cluster_id": 3, "rank_in_cluster": 3}

>  <energy>  (48) 
-6.6

>  <cluster_rmsd>  (48) 
0.41

>  <cluster>  (48) 
3

$$$$

     RDKit          3D

 40 41  0  0  0  0  0  0  0  0999 V2000
  142.3780   79.9230  222.3440 C   0  0  0  0  0  0  0  0  0  0  0  0
  141.1880   79.0390  222.3240 C   0  0  0  0  0  0  0  0  0  0  0  0
  140.2060   79.4500  223.4410 C   0  0  0  0  0  0  0  0  0  0  0  0
  140.4470   78.8450  221.0500 C   0  0  0  0  0  0  0  0  0  0  0  0
  140.0820   77.4990  220.7470 N   0  0  0  0  0  0  0  0  0  0  0  0
  140.0170   76.3900  221.5950 C   0  0  0  0  0  0  0  0  0  0  0  0
  140.2960   76.4070  222.8120 O   0  0  0  0  0  0  0  0  0  0  0  0
  139.5860   75.0690  221.0400 C   0  0  0  0  0  0  0  0  0  0  0  0
  139.6360   74.0560  222.0770 N   0  0  0  0  0  0  0  0  0  0  0  0
  139.7590   72.6700  221.7910 C   0  0  0  0  0  0  0  0  0  0  0  0
  139.8290   72.2860  220.5930 O   0  0  0  0  0  0  0  0  0  0  0  0
  139.8010   71.7140  222.9110 C   0  0  0  0  0  0  0  0  0  0  0  0
  139.3170   70.4490  222.8120 C   0  0  0  0  0  0  0  0  0  0  0  0
  139.3530   69.5490  223.8550 C   0  0  0  0  0  0  0  0  0  0  0  0
  139.9060   69.9440  225.0630 C   0  0  0  0  0  0  0  0  0  0  0  0
  139.9730   69.1010  226.1370 C   0  0  0  0  0  0  0  0  0  0  0  0
  140.5370   69.5590  227.3110 C   0  0  0  0  0  0  0  0  0  0  0  0
  140.6390   68.5120  228.7020 Cl  0  0  0  0  0  0  0  0  0  0  0  0
  141.0360   70.8470  227.4310 C   0  0  0  0  0  0  0  0  0  0  0  0
  140.9460   71.6540  226.3280 C   0  0  0  0  0  0  0  0  0  0  0  0
  140.3910   71.2340  225.1390 C   0  0  0  0  0  0  0  0  0  0  0  0
  140.3400   72.0790  224.1100 N   0  0  0  0  0  0  0  0  0  0  0  0
  142.6611   80.1333  223.3859 H   0  0  0  0  0  0  0  0  0  0  0  0
  143.2135   79.4248  221.8304 H   0  0  0  0  0  0  0  0  0  0  0  0
  142.1424   80.8668  221.8304 H   0  0  0  0  0  0  0  0  0  0  0  0
  141.6376   78.0482  222.4859 H   0  0  0  0  0  0  0  0  0  0  0  0
  140.6652   79.2578  224.4219 H   0  0  0  0  0  0  0  0  0  0  0  0
  139.9731   80.5211  223.3487 H   0  0  0  0  0  0  0  0  0  0  0  0
  139.2796   78.8641  223.3487 H   0  0  0  0  0  0  0  0  0  0  0  0
  139.5247   79.4424  221.1007 H   0  0  0  0  0  0  0  0  0  0  0  0
  141.1359   79.1567  220.2511 H   0  0  0  0  0  0  0  0  0  0  0  0
  139.8190   77.3100  219.7240 H   0  0  0  0  0  0  0  0  0  0  0  0
  138.5569   75.1515  220.6604 H   0  0  0  0  0  0  0  0  0  0  0  0
  140.2631   74.7824  220.2218 H   0  0  0  0  0  0  0  0  0  0  0  0
  139.5810   74.3350  223.0980 H   0  0  0  0  0  0  0  0  0  0  0  0
  138.8765   70.1284  221.8564 H   0  0  0  0  0  0  0  0  0  0  0  0
  138.9493   68.5333  223.7308 H   0  0  0  0  0  0  0  0  0  0  0  0
  139.5839   68.0745  226.0670 H   0  0  0  0  0  0  0  0  0  0  0  0
  141.4840   71.2047  228.3698 H   0  0  0  0  0  0  0  0  0  0  0  0
  141.3334   72.6814  226.3943 H   0  0  0  0  0  0  0  0  0  0  0  0
  1  2  1  0
  2  3  1  0
  2  4  1  0
  4  5  1  0
  5  6  1  0
  6  7  2  0
  6  8  1  0
  8  9  1  0
  9 10  1  0
 10 11  2  0
 10 12  1  0
 12 13  2  0
 13 14  1  0
 14 15  2  0
 15 16  1  0
 16 17  2  0
 17 18  1  0
 17 19  1  0
 19 20  2  0
 20 21  1  0
 21 22  2  0
 22 12  1  0
 21 15  1  0
  1 23  1  0
  1 24  1  0
  1 25  1  0
  2 26  1  0
  3 27  1  0
  3 28  1  0
  3 29  1  0
  4 30  1  0
  4 31  1  0
  5 32  1  0
  8 33  1  0
  8 34  1  0
  9 35  1  0
 13 36  1  0
 14 37  1  0
 16 38  1  0
 19 39  1  0
 20 40  1  0
M  END
>  <smiles>  (49) 
CC(C)CNC(=O)CNC(=O)c1ccc2cc(Cl)ccc2n1

>  <score_type>  (49) 
oracle

>  <origin>  (49) 
autodockgpu

>  <m_score__min__energy>  (49) 
-7.7000000000000002

>  <m_primary>  (49) 
energy

>  <rmsd>  (49) 
3.2539097674863324

>  <m_score__min__rmsd>  (49) 
3.2539097674863324

>  <meeko>  (49) 
{"free_energy": -6.7, "intermolecular_energy": -8.19, "internal_energy": -1.46, "cluster_size": 33, "cluster_id": 1, "rank_in_cluster": 21}

>  <energy>  (49) 
-6.51

>  <cluster_rmsd>  (49) 
0.4

>  <cluster>  (49) 
3

$$$$

     RDKit          3D

 40 41  0  0  0  0  0  0  0  0999 V2000
  140.7590   79.1480  223.4500 C   0  0  0  0  0  0  0  0  0  0  0  0
  140.6090   79.2470  221.9790 C   0  0  0  0  0  0  0  0  0  0  0  0
  141.8480   78.6470  221.2810 C   0  0  0  0  0  0  0  0  0  0  0  0
  139.3720   78.7300  221.3370 C   0  0  0  0  0  0  0  0  0  0  0  0
  139.3970   77.3530  220.9670 N   0  0  0  0  0  0  0  0  0  0  0  0
  139.3550   76.2190  221.7830 C   0  0  0  0  0  0  0  0  0  0  0  0
  139.3000   76.2400  223.0310 O   0  0  0  0  0  0  0  0  0  0  0  0
  139.3780   74.8620  221.1530 C   0  0  0  0  0  0  0  0  0  0  0  0
  139.5120   73.8430  222.1760 N   0  0  0  0  0  0  0  0  0  0  0  0
  139.5760   72.4550  221.8730 C   0  0  0  0  0  0  0  0  0  0  0  0
  139.5160   72.0780  220.6730 O   0  0  0  0  0  0  0  0  0  0  0  0
  139.7110   71.4920  222.9800 C   0  0  0  0  0  0  0  0  0  0  0  0
  139.3370   70.1920  222.8690 C   0  0  0  0  0  0  0  0  0  0  0  0
  139.4610   69.2850  223.8990 C   0  0  0  0  0  0  0  0  0  0  0  0
  139.9910   69.7110  225.1060 C   0  0  0  0  0  0  0  0  0  0  0  0
  140.1420   68.8640  226.1680 C   0  0  0  0  0  0  0  0  0  0  0  0
  140.6780   69.3530  227.3430 C   0  0  0  0  0  0  0  0  0  0  0  0
  140.8840   68.3010  228.7190 Cl  0  0  0  0  0  0  0  0  0  0  0  0
  141.0660   70.6780  227.4750 C   0  0  0  0  0  0  0  0  0  0  0  0
  140.8950   71.4880  226.3850 C   0  0  0  0  0  0  0  0  0  0  0  0
  140.3650   71.0360  225.1960 C   0  0  0  0  0  0  0  0  0  0  0  0
  140.2310   71.8870  224.1780 N   0  0  0  0  0  0  0  0  0  0  0  0
  139.9369   79.6905  223.9397 H   0  0  0  0  0  0  0  0  0  0  0  0
  140.7310   78.0904  223.7511 H   0  0  0  0  0  0  0  0  0  0  0  0
  141.7204   79.5896  223.7511 H   0  0  0  0  0  0  0  0  0  0  0  0
  140.5120   80.3329  221.8323 H   0  0  0  0  0  0  0  0  0  0  0  0
  142.5644   78.3001  222.0402 H   0  0  0  0  0  0  0  0  0  0  0  0
  141.5398   77.7983  220.6527 H   0  0  0  0  0  0  0  0  0  0  0  0
  142.3227   79.4150  220.6527 H   0  0  0  0  0  0  0  0  0  0  0  0
  138.5394   78.8758  222.0410 H   0  0  0  0  0  0  0  0  0  0  0  0
  139.2646   79.2914  220.3971 H   0  0  0  0  0  0  0  0  0  0  0  0
  139.4540   77.1570  219.9130 H   0  0  0  0  0  0  0  0  0  0  0  0
  138.4412   74.7014  220.5993 H   0  0  0  0  0  0  0  0  0  0  0  0
  140.2337   74.7977  220.4647 H   0  0  0  0  0  0  0  0  0  0  0  0
  139.5670   74.1170  223.1980 H   0  0  0  0  0  0  0  0  0  0  0  0
  138.9157   69.8467  221.9133 H   0  0  0  0  0  0  0  0  0  0  0  0
  139.1444   68.2401  223.7650 H   0  0  0  0  0  0  0  0  0  0  0  0
  139.8412   67.8090  226.0880 H   0  0  0  0  0  0  0  0  0  0  0  0
  141.4922   71.0609  228.4140 H   0  0  0  0  0  0  0  0  0  0  0  0
  141.1932   72.5441  226.4613 H   0  0  0  0  0  0  0  0  0  0  0  0
  1  2  1  0
  2  3  1  0
  2  4  1  0
  4  5  1  0
  5  6  1  0
  6  7  2  0
  6  8  1  0
  8  9  1  0
  9 10  1  0
 10 11  2  0
 10 12  1  0
 12 13  2  0
 13 14  1  0
 14 15  2  0
 15 16  1  0
 16 17  2  0
 17 18  1  0
 17 19  1  0
 19 20  2  0
 20 21  1  0
 21 22  2  0
 22 12  1  0
 21 15  1  0
  1 23  1  0
  1 24  1  0
  1 25  1  0
  2 26  1  0
  3 27  1  0
  3 28  1  0
  3 29  1  0
  4 30  1  0
  4 31  1  0
  5 32  1  0
  8 33  1  0
  8 34  1  0
  9 35  1  0
 13 36  1  0
 14 37  1  0
 16 38  1  0
 19 39  1  0
 20 40  1  0
M  END
>  <smiles>  (50) 
CC(C)CNC(=O)CNC(=O)c1ccc2cc(Cl)ccc2n1

>  <score_type>  (50) 
oracle

>  <origin>  (50) 
autodockgpu

>  <m_score__min__energy>  (50) 
-7.7000000000000002

>  <m_primary>  (50) 
energy

>  <rmsd>  (50) 
3.109462517231375

>  <m_score__min__rmsd>  (50) 
3.109462517231375

>  <meeko>  (50) 
{"free_energy": -6.23, "intermolecular_energy": -7.72, "internal_energy": -1.64, "cluster_size": 33, "cluster_id": 1, "rank_in_cluster": 32}

>  <energy>  (50) 
-5.92

>  <cluster_rmsd>  (50) 
0.66

>  <cluster>  (50) 
3

$$$$
