
     RDKit          3D

 73 78  0  0  0  0  0  0  0  0999 V2000
  143.4910   74.9730  220.3890 O   0  0  0  0  0  0  0  0  0  0  0  0
  142.2630   74.7840  220.1880 C   0  0  0  0  0  0  0  0  0  0  0  0
  141.5590   75.3450  219.0770 N   0  0  0  0  0  0  0  0  0  0  0  0
  142.1980   76.1920  218.0860 C   0  0  0  0  0  0  0  0  0  0  0  0
  141.2880   77.2990  217.6750 C   0  0  0  0  0  0  0  0  0  0  0  0
  141.0110   78.3330  218.7160 C   0  0  0  0  0  0  0  0  0  0  0  0
  139.6050   78.7920  218.7910 C   0  0  0  0  0  0  0  0  0  0  0  0
  139.5680   80.2350  219.2250 C   0  0  0  0  0  0  0  0  0  0  0  0
  140.5390   80.3760  220.3160 N   0  0  0  0  0  0  0  0  0  0  0  0
  141.8760   80.4320  219.7530 C   0  0  0  0  0  0  0  0  0  0  0  0
  142.0290   79.4590  218.6050 C   0  0  0  0  0  0  0  0  0  0  0  0
  141.4870   73.9560  221.1130 C   0  0  0  0  0  0  0  0  0  0  0  0
  141.8620   72.6060  221.1560 C   0  0  0  0  0  0  0  0  0  0  0  0
  141.1670   71.8300  221.9980 N   0  0  0  0  0  0  0  0  0  0  0  0
  140.1670   72.2770  222.7690 C   0  0  0  0  0  0  0  0  0  0  0  0
  139.5020   71.3470  223.6430 N   0  0  0  0  0  0  0  0  0  0  0  0
  138.5440   70.3840  223.1680 C   0  0  0  0  0  0  0  0  0  0  0  0
  138.9220   68.9550  223.4740 C   0  0  0  0  0  0  0  0  0  0  0  0
  139.4890   68.8710  224.8360 C   0  0  0  0  0  0  0  0  0  0  0  0
  139.6300   67.6320  225.4220 C   0  0  0  0  0  0  0  0  0  0  0  0
  140.1490   67.5010  226.6960 C   0  0  0  0  0  0  0  0  0  0  0  0
  140.5560   68.5860  227.4530 C   0  0  0  0  0  0  0  0  0  0  0  0
  140.4150   69.8360  226.8600 C   0  0  0  0  0  0  0  0  0  0  0  0
  139.8890   69.9690  225.5740 C   0  0  0  0  0  0  0  0  0  0  0  0
  139.7890   71.3670  225.0660 C   0  0  0  0  0  0  0  0  0  0  0  0
  139.8200   73.5670  222.7160 N   0  0  0  0  0  0  0  0  0  0  0  0
  140.4630   74.4450  221.8920 C   0  0  0  0  0  0  0  0  0  0  0  0
  140.1040   75.8200  221.8320 N   0  0  0  0  0  0  0  0  0  0  0  0
  138.8740   76.3200  221.3080 C   0  0  0  0  0  0  0  0  0  0  0  0
  138.1880   77.3060  222.2270 C   0  0  0  0  0  0  0  0  0  0  0  0
  139.1590   78.3290  222.6650 C   0  0  0  0  0  0  0  0  0  0  0  0
  138.6870   79.5740  223.0360 C   0  0  0  0  0  0  0  0  0  0  0  0
  139.5890   80.5410  223.4590 C   0  0  0  0  0  0  0  0  0  0  0  0
  140.9400   80.3070  223.5240 C   0  0  0  0  0  0  0  0  0  0  0  0
  141.3780   79.0520  223.1450 C   0  0  0  0  0  0  0  0  0  0  0  0
  140.5250   78.0650  222.7210 C   0  0  0  0  0  0  0  0  0  0  0  0
  141.0800   76.7700  222.3430 C   0  0  0  0  0  0  0  0  0  0  0  0
  140.5170   75.1230  218.9860 H   0  0  0  0  0  0  0  0  0  0  0  0
  143.1165   76.6196  218.5144 H   0  0  0  0  0  0  0  0  0  0  0  0
  142.4374   75.5835  217.2015 H   0  0  0  0  0  0  0  0  0  0  0  0
  141.7410   77.8045  216.8094 H   0  0  0  0  0  0  0  0  0  0  0  0
  140.3191   76.8248  217.4597 H   0  0  0  0  0  0  0  0  0  0  0  0
  141.1403   77.8472  219.6944 H   0  0  0  0  0  0  0  0  0  0  0  0
  139.1347   78.6949  217.8014 H   0  0  0  0  0  0  0  0  0  0  0  0
  139.0576   78.1765  219.5201 H   0  0  0  0  0  0  0  0  0  0  0  0
  139.8443   80.8899  218.3855 H   0  0  0  0  0  0  0  0  0  0  0  0
  138.5588   80.5212  219.5561 H   0  0  0  0  0  0  0  0  0  0  0  0
  140.4830   79.4730  220.8520 H   0  0  0  0  0  0  0  0  0  0  0  0
  142.0685   81.4513  219.3871 H   0  0  0  0  0  0  0  0  0  0  0  0
  142.5958   80.1587  220.5387 H   0  0  0  0  0  0  0  0  0  0  0  0
  141.8749   79.9931  217.6558 H   0  0  0  0  0  0  0  0  0  0  0  0
  143.0400   79.0269  218.6395 H   0  0  0  0  0  0  0  0  0  0  0  0
  142.6782   72.2077  220.5354 H   0  0  0  0  0  0  0  0  0  0  0  0
  137.5738   70.5961  223.6409 H   0  0  0  0  0  0  0  0  0  0  0  0
  138.5052   70.4803  222.0729 H   0  0  0  0  0  0  0  0  0  0  0  0
  138.0272   68.3184  223.4104 H   0  0  0  0  0  0  0  0  0  0  0  0
  139.6715   68.6122  222.7454 H   0  0  0  0  0  0  0  0  0  0  0  0
  139.3246   66.7328  224.8669 H   0  0  0  0  0  0  0  0  0  0  0  0
  140.2425   66.4930  227.1262 H   0  0  0  0  0  0  0  0  0  0  0  0
  140.9676   68.4663  228.4661 H   0  0  0  0  0  0  0  0  0  0  0  0
  140.7232   70.7351  227.4138 H   0  0  0  0  0  0  0  0  0  0  0  0
  138.9805   71.8923  225.5955 H   0  0  0  0  0  0  0  0  0  0  0  0
  140.7417   71.8887  225.2399 H   0  0  0  0  0  0  0  0  0  0  0  0
  139.0804   76.8207  220.3506 H   0  0  0  0  0  0  0  0  0  0  0  0
  138.1976   75.4607  221.1895 H   0  0  0  0  0  0  0  0  0  0  0  0
  137.3600   77.7924  221.6904 H   0  0  0  0  0  0  0  0  0  0  0  0
  137.7938   76.7748  223.1059 H   0  0  0  0  0  0  0  0  0  0  0  0
  137.6103   79.7959  222.9966 H   0  0  0  0  0  0  0  0  0  0  0  0
  139.2074   81.5300  223.7525 H   0  0  0  0  0  0  0  0  0  0  0  0
  141.6423   81.0831  223.8624 H   0  0  0  0  0  0  0  0  0  0  0  0
  142.4558   78.8357  223.1851 H   0  0  0  0  0  0  0  0  0  0  0  0
  141.8384   76.9358  221.5637 H   0  0  0  0  0  0  0  0  0  0  0  0
  141.4950   76.3281  223.2609 H   0  0  0  0  0  0  0  0  0  0  0  0
  1  2  2  0
  2  3  1  0
  3  4  1  0
  4  5  1  0
  5  6  1  0
  6  7  1  0
  7  8  1  0
  8  9  1  0
  9 10  1  0
 10 11  1  0
  2 12  1  0
 12 13  2  0
 13 14  1  0
 14 15  2  0
 15 16  1  0
 16 17  1  0
 17 18  1  0
 18 19  1  0
 19 20  2  0
 20 21  1  0
 21 22  2  0
 22 23  1  0
 23 24  2  0
 24 25  1  0
 15 26  1  0
 26 27  2  0
 27 28  1  0
 28 29  1  0
 29 30  1  0
 30 31  1  0
 31 32  2  0
 32 33  1  0
 33 34  2  0
 34 35  1  0
 35 36  2  0
 36 37  1  0
 11  6  1  0
 27 12  1  0
 37 28  1  0
 25 16  1  0
 36 31  1  0
 24 19  1  0
  3 38  1  0
  4 39  1  0
  4 40  1  0
  5 41  1  0
  5 42  1  0
  6 43  1  0
  7 44  1  0
  7 45  1  0
  8 46  1  0
  8 47  1  0
  9 48  1  0
 10 49  1  0
 10 50  1  0
 11 51  1  0
 11 52  1  0
 13 53  1  0
 17 54  1  0
 17 55  1  0
 18 56  1  0
 18 57  1  0
 20 58  1  0
 21 59  1  0
 22 60  1  0
 23 61  1  0
 25 62  1  0
 25 63  1  0
 29 64  1  0
 29 65  1  0
 30 66  1  0
 30 67  1  0
 32 68  1  0
 33 69  1  0
 34 70  1  0
 35 71  1  0
 37 72  1  0
 37 73  1  0
M  END
>  <smiles>  (1) 
O=C(NCCC1CCNCC1)c1cnc(N2CCc3ccccc3C2)nc1N1CCc2ccccc2C1

>  <score_type>  (1) 
oracle

>  <origin>  (1) 
autodockgpu

>  <m_score__min__energy>  (1) 
-10.16

>  <m_primary>  (1) 
energy

>  <rmsd>  (1) 
5.674968524440805

>  <m_score__min__rmsd>  (1) 
5.674968524440805

>  <meeko>  (1) 
{"free_energy": -8.77, "intermolecular_energy": -10.56, "internal_energy": -2.42, "cluster_size": 38, "cluster_id": 1, "rank_in_cluster": 32}

>  <energy>  (1) 
-10.16

>  <cluster_rmsd>  (1) 
0.0

>  <cluster>  (1) 
1

$$$$

     RDKit          3D

 73 78  0  0  0  0  0  0  0  0999 V2000
  141.4480   74.7080  221.9320 O   0  0  0  0  0  0  0  0  0  0  0  0
  140.4950   75.1470  221.2370 C   0  0  0  0  0  0  0  0  0  0  0  0
  140.6600   75.6290  219.9010 N   0  0  0  0  0  0  0  0  0  0  0  0
  141.9480   75.6630  219.2300 C   0  0  0  0  0  0  0  0  0  0  0  0
  142.3770   74.2870  218.8470 C   0  0  0  0  0  0  0  0  0  0  0  0
  143.8370   74.0030  218.9750 C   0  0  0  0  0  0  0  0  0  0  0  0
  144.3380   72.8900  218.1350 C   0  0  0  0  0  0  0  0  0  0  0  0
  145.4820   72.2040  218.8370 C   0  0  0  0  0  0  0  0  0  0  0  0
  146.3320   73.2600  219.3980 N   0  0  0  0  0  0  0  0  0  0  0  0
  145.7120   73.7730  220.6060 C   0  0  0  0  0  0  0  0  0  0  0  0
  144.2130   73.8910  220.4460 C   0  0  0  0  0  0  0  0  0  0  0  0
  139.1400   75.1800  221.7890 C   0  0  0  0  0  0  0  0  0  0  0  0
  138.4880   73.9400  221.8340 C   0  0  0  0  0  0  0  0  0  0  0  0
  137.2470   73.9470  222.3380 N   0  0  0  0  0  0  0  0  0  0  0  0
  136.6290   75.0500  222.7830 C   0  0  0  0  0  0  0  0  0  0  0  0
  135.2980   74.9280  223.3130 N   0  0  0  0  0  0  0  0  0  0  0  0
  134.5130   73.7290  223.1750 C   0  0  0  0  0  0  0  0  0  0  0  0
  134.0840   73.1330  224.4930 C   0  0  0  0  0  0  0  0  0  0  0  0
  133.6860   74.2120  225.4210 C   0  0  0  0  0  0  0  0  0  0  0  0
  132.9920   73.8830  226.5660 C   0  0  0  0  0  0  0  0  0  0  0  0
  132.5920   74.8550  227.4610 C   0  0  0  0  0  0  0  0  0  0  0  0
  132.8570   76.2020  227.2720 C   0  0  0  0  0  0  0  0  0  0  0  0
  133.5580   76.5320  226.1180 C   0  0  0  0  0  0  0  0  0  0  0  0
  133.9610   75.5500  225.2120 C   0  0  0  0  0  0  0  0  0  0  0  0
  134.6980   76.0490  224.0150 C   0  0  0  0  0  0  0  0  0  0  0  0
  137.2640   76.2260  222.7330 N   0  0  0  0  0  0  0  0  0  0  0  0
  138.5310   76.3310  222.2380 C   0  0  0  0  0  0  0  0  0  0  0  0
  139.2160   77.5760  222.1840 N   0  0  0  0  0  0  0  0  0  0  0  0
  138.6590   78.7940  221.6880 C   0  0  0  0  0  0  0  0  0  0  0  0
  138.8560   79.9670  222.6210 C   0  0  0  0  0  0  0  0  0  0  0  0
  140.2720   80.0350  223.0360 C   0  0  0  0  0  0  0  0  0  0  0  0
  140.7920   81.2570  223.4170 C   0  0  0  0  0  0  0  0  0  0  0  0
  142.1190   81.3330  223.8180 C   0  0  0  0  0  0  0  0  0  0  0  0
  142.9390   80.2320  223.8530 C   0  0  0  0  0  0  0  0  0  0  0  0
  142.3870   79.0260  223.4650 C   0  0  0  0  0  0  0  0  0  0  0  0
  141.0810   78.9020  223.0620 C   0  0  0  0  0  0  0  0  0  0  0  0
  140.5860   77.5870  222.6720 C   0  0  0  0  0  0  0  0  0  0  0  0
  139.7900   75.9760  219.3870 H   0  0  0  0  0  0  0  0  0  0  0  0
  141.8674   76.2818  218.3241 H   0  0  0  0  0  0  0  0  0  0  0  0
  142.6944   76.0889  219.9167 H   0  0  0  0  0  0  0  0  0  0  0  0
  141.8370   73.5744  219.4878 H   0  0  0  0  0  0  0  0  0  0  0  0
  142.1461   74.1891  217.7760 H   0  0  0  0  0  0  0  0  0  0  0  0
  144.3709   74.8652  218.5489 H   0  0  0  0  0  0  0  0  0  0  0  0
  143.5271   72.1669  217.9632 H   0  0  0  0  0  0  0  0  0  0  0  0
  144.6862   73.2876  217.1703 H   0  0  0  0  0  0  0  0  0  0  0  0
  145.0998   71.5586  219.6416 H   0  0  0  0  0  0  0  0  0  0  0  0
  146.0495   71.5707  218.1392 H   0  0  0  0  0  0  0  0  0  0  0  0
  146.2990   74.0410  218.6940 H   0  0  0  0  0  0  0  0  0  0  0  0
  145.9308   73.0892  221.4394 H   0  0  0  0  0  0  0  0  0  0  0  0
  146.1198   74.7745  220.8075 H   0  0  0  0  0  0  0  0  0  0  0  0
  143.7326   72.9992  220.8748 H   0  0  0  0  0  0  0  0  0  0  0  0
  143.8713   74.7965  220.9687 H   0  0  0  0  0  0  0  0  0  0  0  0
  138.9669   73.0164  221.4768 H   0  0  0  0  0  0  0  0  0  0  0  0
  133.6116   73.9687  222.5919 H   0  0  0  0  0  0  0  0  0  0  0  0
  135.1485   72.9831  222.6752 H   0  0  0  0  0  0  0  0  0  0  0  0
  133.2307   72.4585  224.3289 H   0  0  0  0  0  0  0  0  0  0  0  0
  134.9222   72.5689  224.9280 H   0  0  0  0  0  0  0  0  0  0  0  0
  132.7531   72.8288  226.7697 H   0  0  0  0  0  0  0  0  0  0  0  0
  132.0401   74.5475  228.3615 H   0  0  0  0  0  0  0  0  0  0  0  0
  132.5314   76.9659  227.9935 H   0  0  0  0  0  0  0  0  0  0  0  0
  133.7994   77.5859  225.9153 H   0  0  0  0  0  0  0  0  0  0  0  0
  133.9984   76.5694  223.3444 H   0  0  0  0  0  0  0  0  0  0  0  0
  135.4869   76.7458  224.3346 H   0  0  0  0  0  0  0  0  0  0  0  0
  139.1368   79.0296  220.7256 H   0  0  0  0  0  0  0  0  0  0  0  0
  137.5749   78.6380  221.5863 H   0  0  0  0  0  0  0  0  0  0  0  0
  138.5808   80.8976  222.1030 H   0  0  0  0  0  0  0  0  0  0  0  0
  138.2198   79.8393  223.5092 H   0  0  0  0  0  0  0  0  0  0  0  0
  140.1623   82.1588  223.4028 H   0  0  0  0  0  0  0  0  0  0  0  0
  142.5278   82.3091  224.1181 H   0  0  0  0  0  0  0  0  0  0  0  0
  143.9880   80.3067  224.1754 H   0  0  0  0  0  0  0  0  0  0  0  0
  143.0212   78.1274  223.4798 H   0  0  0  0  0  0  0  0  0  0  0  0
  141.2371   77.1977  221.8754 H   0  0  0  0  0  0  0  0  0  0  0  0
  140.5982   76.9672  223.5807 H   0  0  0  0  0  0  0  0  0  0  0  0
  1  2  2  0
  2  3  1  0
  3  4  1  0
  4  5  1  0
  5  6  1  0
  6  7  1  0
  7  8  1  0
  8  9  1  0
  9 10  1  0
 10 11  1  0
  2 12  1  0
 12 13  2  0
 13 14  1  0
 14 15  2  0
 15 16  1  0
 16 17  1  0
 17 18  1  0
 18 19  1  0
 19 20  2  0
 20 21  1  0
 21 22  2  0
 22 23  1  0
 23 24  2  0
 24 25  1  0
 15 26  1  0
 26 27  2  0
 27 28  1  0
 28 29  1  0
 29 30  1  0
 30 31  1  0
 31 32  2  0
 32 33  1  0
 33 34  2  0
 34 35  1  0
 35 36  2  0
 36 37  1  0
 11  6  1  0
 27 12  1  0
 37 28  1  0
 25 16  1  0
 36 31  1  0
 24 19  1  0
  3 38  1  0
  4 39  1  0
  4 40  1  0
  5 41  1  0
  5 42  1  0
  6 43  1  0
  7 44  1  0
  7 45  1  0
  8 46  1  0
  8 47  1  0
  9 48  1  0
 10 49  1  0
 10 50  1  0
 11 51  1  0
 11 52  1  0
 13 53  1  0
 17 54  1  0
 17 55  1  0
 18 56  1  0
 18 57  1  0
 20 58  1  0
 21 59  1  0
 22 60  1  0
 23 61  1  0
 25 62  1  0
 25 63  1  0
 29 64  1  0
 29 65  1  0
 30 66  1  0
 30 67  1  0
 32 68  1  0
 33 69  1  0
 34 70  1  0
 35 71  1  0
 37 72  1  0
 37 73  1  0
M  END
>  <smiles>  (2) 
O=C(NCCC1CCNCC1)c1cnc(N2CCc3ccccc3C2)nc1N1CCc2ccccc2C1

>  <score_type>  (2) 
oracle

>  <origin>  (2) 
autodockgpu

>  <m_score__min__energy>  (2) 
-10.16

>  <m_primary>  (2) 
energy

>  <rmsd>  (2) 
5.639673785330169

>  <m_score__min__rmsd>  (2) 
5.639673785330169

>  <meeko>  (2) 
{"free_energy": -9.61, "intermolecular_energy": -11.4, "internal_energy": -0.94, "cluster_size": 2, "cluster_id": 5, "rank_in_cluster": 1}

>  <energy>  (2) 
-10.02

>  <cluster_rmsd>  (2) 
0.86

>  <cluster>  (2) 
1

$$$$

     RDKit          3D

 73 78  0  0  0  0  0  0  0  0999 V2000
  143.2620   75.1070  220.1990 O   0  0  0  0  0  0  0  0  0  0  0  0
  142.0880   74.7130  219.9740 C   0  0  0  0  0  0  0  0  0  0  0  0
  141.3820   75.0120  218.7670 N   0  0  0  0  0  0  0  0  0  0  0  0
  141.9560   75.8080  217.6960 C   0  0  0  0  0  0  0  0  0  0  0  0
  141.2030   77.0830  217.5270 C   0  0  0  0  0  0  0  0  0  0  0  0
  141.5930   78.1950  218.4420 C   0  0  0  0  0  0  0  0  0  0  0  0
  140.6120   78.5090  219.5070 C   0  0  0  0  0  0  0  0  0  0  0  0
  140.6720   79.9800  219.8290 C   0  0  0  0  0  0  0  0  0  0  0  0
  142.0910   80.3480  219.8840 N   0  0  0  0  0  0  0  0  0  0  0  0
  142.5960   80.4790  218.5290 C   0  0  0  0  0  0  0  0  0  0  0  0
  142.0350   79.4020  217.6270 C   0  0  0  0  0  0  0  0  0  0  0  0
  141.3810   73.9070  220.9710 C   0  0  0  0  0  0  0  0  0  0  0  0
  141.7390   72.5520  220.9990 C   0  0  0  0  0  0  0  0  0  0  0  0
  141.1060   71.7970  221.9060 N   0  0  0  0  0  0  0  0  0  0  0  0
  140.1810   72.2670  222.7530 C   0  0  0  0  0  0  0  0  0  0  0  0
  139.5780   71.3580  223.6910 N   0  0  0  0  0  0  0  0  0  0  0  0
  138.6850   70.3040  223.2880 C   0  0  0  0  0  0  0  0  0  0  0  0
  139.1560   68.9270  223.6870 C   0  0  0  0  0  0  0  0  0  0  0  0
  139.7280   68.9730  225.0490 C   0  0  0  0  0  0  0  0  0  0  0  0
  139.9490   67.7880  225.7180 C   0  0  0  0  0  0  0  0  0  0  0  0
  140.4760   67.7790  226.9950 C   0  0  0  0  0  0  0  0  0  0  0  0
  140.8120   68.9370  227.6750 C   0  0  0  0  0  0  0  0  0  0  0  0
  140.5890   70.1320  226.9990 C   0  0  0  0  0  0  0  0  0  0  0  0
  140.0550   70.1420  225.7090 C   0  0  0  0  0  0  0  0  0  0  0  0
  139.8640   71.4940  225.1080 C   0  0  0  0  0  0  0  0  0  0  0  0
  139.8490   73.5620  222.7130 N   0  0  0  0  0  0  0  0  0  0  0  0
  140.4330   74.4200  221.8270 C   0  0  0  0  0  0  0  0  0  0  0  0
  140.0910   75.8000  221.7800 N   0  0  0  0  0  0  0  0  0  0  0  0
  138.8650   76.3190  221.2640 C   0  0  0  0  0  0  0  0  0  0  0  0
  138.1930   77.3050  222.1930 C   0  0  0  0  0  0  0  0  0  0  0  0
  139.1770   78.3130  222.6380 C   0  0  0  0  0  0  0  0  0  0  0  0
  138.7210   79.5600  223.0210 C   0  0  0  0  0  0  0  0  0  0  0  0
  139.6350   80.5130  223.4500 C   0  0  0  0  0  0  0  0  0  0  0  0
  140.9840   80.2620  223.5090 C   0  0  0  0  0  0  0  0  0  0  0  0
  141.4060   79.0050  223.1180 C   0  0  0  0  0  0  0  0  0  0  0  0
  140.5400   78.0320  222.6880 C   0  0  0  0  0  0  0  0  0  0  0  0
  141.0790   76.7340  222.2970 C   0  0  0  0  0  0  0  0  0  0  0  0
  140.3910   74.6280  218.6630 H   0  0  0  0  0  0  0  0  0  0  0  0
  143.0044   76.0369  217.9380 H   0  0  0  0  0  0  0  0  0  0  0  0
  141.8975   75.2353  216.7587 H   0  0  0  0  0  0  0  0  0  0  0  0
  141.3526   77.4285  216.4934 H   0  0  0  0  0  0  0  0  0  0  0  0
  140.1574   76.8467  217.7736 H   0  0  0  0  0  0  0  0  0  0  0  0
  142.4547   77.8416  219.0273 H   0  0  0  0  0  0  0  0  0  0  0  0
  139.6003   78.2505  219.1611 H   0  0  0  0  0  0  0  0  0  0  0  0
  140.8517   77.9267  220.4089 H   0  0  0  0  0  0  0  0  0  0  0  0
  140.1613   80.5595  219.0459 H   0  0  0  0  0  0  0  0  0  0  0  0
  140.1730   80.1937  220.7857 H   0  0  0  0  0  0  0  0  0  0  0  0
  142.5750   79.5110  220.2990 H   0  0  0  0  0  0  0  0  0  0  0  0
  142.3081   81.4640  218.1329 H   0  0  0  0  0  0  0  0  0  0  0  0
  143.6907   80.3749  218.5548 H   0  0  0  0  0  0  0  0  0  0  0  0
  141.1702   79.8041  217.0790 H   0  0  0  0  0  0  0  0  0  0  0  0
  142.8191   79.0859  216.9232 H   0  0  0  0  0  0  0  0  0  0  0  0
  142.4943   72.1341  220.3171 H   0  0  0  0  0  0  0  0  0  0  0  0
  137.7037   70.4836  223.7514 H   0  0  0  0  0  0  0  0  0  0  0  0
  138.6388   70.3231  222.1891 H   0  0  0  0  0  0  0  0  0  0  0  0
  138.3050   68.2302  223.6709 H   0  0  0  0  0  0  0  0  0  0  0  0
  139.9257   68.5853  222.9793 H   0  0  0  0  0  0  0  0  0  0  0  0
  139.7019   66.8350  225.2274 H   0  0  0  0  0  0  0  0  0  0  0  0
  140.6353   66.8109  227.4924 H   0  0  0  0  0  0  0  0  0  0  0  0
  141.2313   68.9135  228.6917 H   0  0  0  0  0  0  0  0  0  0  0  0
  140.8375   71.0850  227.4889 H   0  0  0  0  0  0  0  0  0  0  0  0
  139.0234   72.0006  225.6047 H   0  0  0  0  0  0  0  0  0  0  0  0
  140.7805   72.0874  225.2417 H   0  0  0  0  0  0  0  0  0  0  0  0
  139.0745   76.8254  220.3102 H   0  0  0  0  0  0  0  0  0  0  0  0
  138.1783   75.4686  221.1406 H   0  0  0  0  0  0  0  0  0  0  0  0
  137.3697   77.8058  221.6625 H   0  0  0  0  0  0  0  0  0  0  0  0
  137.7946   76.7707  223.0681 H   0  0  0  0  0  0  0  0  0  0  0  0
  137.6469   79.7947  222.9864 H   0  0  0  0  0  0  0  0  0  0  0  0
  139.2658   81.5038  223.7533 H   0  0  0  0  0  0  0  0  0  0  0  0
  141.6965   81.0267  223.8519 H   0  0  0  0  0  0  0  0  0  0  0  0
  142.4812   78.7755  223.1532 H   0  0  0  0  0  0  0  0  0  0  0  0
  141.8374   76.8980  221.5173 H   0  0  0  0  0  0  0  0  0  0  0  0
  141.4909   76.2792  223.2099 H   0  0  0  0  0  0  0  0  0  0  0  0
  1  2  2  0
  2  3  1  0
  3  4  1  0
  4  5  1  0
  5  6  1  0
  6  7  1  0
  7  8  1  0
  8  9  1  0
  9 10  1  0
 10 11  1  0
  2 12  1  0
 12 13  2  0
 13 14  1  0
 14 15  2  0
 15 16  1  0
 16 17  1  0
 17 18  1  0
 18 19  1  0
 19 20  2  0
 20 21  1  0
 21 22  2  0
 22 23  1  0
 23 24  2  0
 24 25  1  0
 15 26  1  0
 26 27  2  0
 27 28  1  0
 28 29  1  0
 29 30  1  0
 30 31  1  0
 31 32  2  0
 32 33  1  0
 33 34  2  0
 34 35  1  0
 35 36  2  0
 36 37  1  0
 11  6  1  0
 27 12  1  0
 37 28  1  0
 25 16  1  0
 36 31  1  0
 24 19  1  0
  3 38  1  0
  4 39  1  0
  4 40  1  0
  5 41  1  0
  5 42  1  0
  6 43  1  0
  7 44  1  0
  7 45  1  0
  8 46  1  0
  8 47  1  0
  9 48  1  0
 10 49  1  0
 10 50  1  0
 11 51  1  0
 11 52  1  0
 13 53  1  0
 17 54  1  0
 17 55  1  0
 18 56  1  0
 18 57  1  0
 20 58  1  0
 21 59  1  0
 22 60  1  0
 23 61  1  0
 25 62  1  0
 25 63  1  0
 29 64  1  0
 29 65  1  0
 30 66  1  0
 30 67  1  0
 32 68  1  0
 33 69  1  0
 34 70  1  0
 35 71  1  0
 37 72  1  0
 37 73  1  0
M  END
>  <smiles>  (3) 
O=C(NCCC1CCNCC1)c1cnc(N2CCc3ccccc3C2)nc1N1CCc2ccccc2C1

>  <score_type>  (3) 
oracle

>  <origin>  (3) 
autodockgpu

>  <m_score__min__energy>  (3) 
-10.16

>  <m_primary>  (3) 
energy

>  <rmsd>  (3) 
5.859839183058731

>  <m_score__min__rmsd>  (3) 
5.859839183058731

>  <meeko>  (3) 
{"free_energy": -9.4, "intermolecular_energy": -11.19, "internal_energy": -2.16, "cluster_size": 38, "cluster_id": 1, "rank_in_cluster": 10}

>  <energy>  (3) 
-9.75

>  <cluster_rmsd>  (3) 
0.96

>  <cluster>  (3) 
1

$$$$

     RDKit          3D

 73 78  0  0  0  0  0  0  0  0999 V2000
  141.6910   73.4840  218.4070 O   0  0  0  0  0  0  0  0  0  0  0  0
  141.7110   74.0900  219.5100 C   0  0  0  0  0  0  0  0  0  0  0  0
  142.3030   75.3800  219.6810 N   0  0  0  0  0  0  0  0  0  0  0  0
  142.9440   76.1030  218.5960 C   0  0  0  0  0  0  0  0  0  0  0  0
  143.0100   77.5600  218.9030 C   0  0  0  0  0  0  0  0  0  0  0  0
  141.6970   78.2580  219.0290 C   0  0  0  0  0  0  0  0  0  0  0  0
  140.6970   77.9120  217.9920 C   0  0  0  0  0  0  0  0  0  0  0  0
  139.8170   79.1060  217.7220 C   0  0  0  0  0  0  0  0  0  0  0  0
  139.4830   79.6930  219.0250 N   0  0  0  0  0  0  0  0  0  0  0  0
  140.6190   80.4590  219.5030 C   0  0  0  0  0  0  0  0  0  0  0  0
  141.9230   79.7530  219.2030 C   0  0  0  0  0  0  0  0  0  0  0  0
  141.1080   73.4770  220.6950 C   0  0  0  0  0  0  0  0  0  0  0  0
  141.2980   72.0930  220.8070 C   0  0  0  0  0  0  0  0  0  0  0  0
  140.7570   71.5120  221.8860 N   0  0  0  0  0  0  0  0  0  0  0  0
  140.0680   72.1760  222.8230 C   0  0  0  0  0  0  0  0  0  0  0  0
  139.5430   71.4420  223.9430 N   0  0  0  0  0  0  0  0  0  0  0  0
  138.2330   70.8460  223.9380 C   0  0  0  0  0  0  0  0  0  0  0  0
  138.2470   69.3540  224.1650 C   0  0  0  0  0  0  0  0  0  0  0  0
  139.2410   69.0190  225.2060 C   0  0  0  0  0  0  0  0  0  0  0  0
  139.2130   67.7620  225.7720 C   0  0  0  0  0  0  0  0  0  0  0  0
  140.1170   67.4030  226.7530 C   0  0  0  0  0  0  0  0  0  0  0  0
  141.0940   68.2640  227.2230 C   0  0  0  0  0  0  0  0  0  0  0  0
  141.1210   69.5310  226.6510 C   0  0  0  0  0  0  0  0  0  0  0  0
  140.2070   69.8960  225.6610 C   0  0  0  0  0  0  0  0  0  0  0  0
  140.3480   71.2870  225.1420 C   0  0  0  0  0  0  0  0  0  0  0  0
  139.8940   73.4960  222.7010 N   0  0  0  0  0  0  0  0  0  0  0  0
  140.4040   74.1870  221.6410 C   0  0  0  0  0  0  0  0  0  0  0  0
  140.2280   75.5920  221.5040 N   0  0  0  0  0  0  0  0  0  0  0  0
  139.2710   76.2150  220.6470 C   0  0  0  0  0  0  0  0  0  0  0  0
  138.4510   77.2800  221.3390 C   0  0  0  0  0  0  0  0  0  0  0  0
  139.3490   78.1990  222.0690 C   0  0  0  0  0  0  0  0  0  0  0  0
  138.9230   79.4910  222.3070 C   0  0  0  0  0  0  0  0  0  0  0  0
  139.7540   80.3610  223.0000 C   0  0  0  0  0  0  0  0  0  0  0  0
  140.9910   79.9840  223.4610 C   0  0  0  0  0  0  0  0  0  0  0  0
  141.3870   78.6840  223.2050 C   0  0  0  0  0  0  0  0  0  0  0  0
  140.6000   77.7890  222.5250 C   0  0  0  0  0  0  0  0  0  0  0  0
  141.1010   76.4380  222.3030 C   0  0  0  0  0  0  0  0  0  0  0  0
  142.2660   75.8190  220.6550 H   0  0  0  0  0  0  0  0  0  0  0  0
  143.9644   75.7163  218.4571 H   0  0  0  0  0  0  0  0  0  0  0  0
  142.3547   75.9605  217.6782 H   0  0  0  0  0  0  0  0  0  0  0  0
  143.5486   77.6802  219.8545 H   0  0  0  0  0  0  0  0  0  0  0  0
  143.5132   78.0239  218.0419 H   0  0  0  0  0  0  0  0  0  0  0  0
  141.2159   77.8754  219.9412 H   0  0  0  0  0  0  0  0  0  0  0  0
  141.2149   77.6217  217.0660 H   0  0  0  0  0  0  0  0  0  0  0  0
  140.0784   77.0738  218.3453 H   0  0  0  0  0  0  0  0  0  0  0  0
  140.3544   79.8397  217.1032 H   0  0  0  0  0  0  0  0  0  0  0  0
  138.9074   78.8099  217.1789 H   0  0  0  0  0  0  0  0  0  0  0  0
  139.3850   78.8730  219.6770 H   0  0  0  0  0  0  0  0  0  0  0  0
  140.6218   81.4419  219.0092 H   0  0  0  0  0  0  0  0  0  0  0  0
  140.5279   80.5717  220.5934 H   0  0  0  0  0  0  0  0  0  0  0  0
  142.3514   80.1637  218.2768 H   0  0  0  0  0  0  0  0  0  0  0  0
  142.6129   79.9110  220.0451 H   0  0  0  0  0  0  0  0  0  0  0  0
  141.8577   71.5184  220.0543 H   0  0  0  0  0  0  0  0  0  0  0  0
  137.6353   71.3133  224.7345 H   0  0  0  0  0  0  0  0  0  0  0  0
  137.8050   71.0163  222.9391 H   0  0  0  0  0  0  0  0  0  0  0  0
  137.2497   69.0243  224.4917 H   0  0  0  0  0  0  0  0  0  0  0  0
  138.5150   68.8449  223.2274 H   0  0  0  0  0  0  0  0  0  0  0  0
  138.4594   67.0340  225.4373 H   0  0  0  0  0  0  0  0  0  0  0  0
  140.0581   66.3904  227.1786 H   0  0  0  0  0  0  0  0  0  0  0  0
  141.8078   67.9631  228.0040 H   0  0  0  0  0  0  0  0  0  0  0  0
  141.8758   70.2585  226.9844 H   0  0  0  0  0  0  0  0  0  0  0  0
  140.0067   71.9999  225.9071 H   0  0  0  0  0  0  0  0  0  0  0  0
  141.4035   71.4828  224.9020 H   0  0  0  0  0  0  0  0  0  0  0  0
  139.8061   76.6787  219.8052 H   0  0  0  0  0  0  0  0  0  0  0  0
  138.5735   75.4320  220.3147 H   0  0  0  0  0  0  0  0  0  0  0  0
  137.8782   77.8459  220.5896 H   0  0  0  0  0  0  0  0  0  0  0  0
  137.7583   76.8046  222.0490 H   0  0  0  0  0  0  0  0  0  0  0  0
  137.9375   79.8266  221.9519 H   0  0  0  0  0  0  0  0  0  0  0  0
  139.4090   81.3888  223.1863 H   0  0  0  0  0  0  0  0  0  0  0  0
  141.6380   80.6845  224.0093 H   0  0  0  0  0  0  0  0  0  0  0  0
  142.3739   78.3537  223.5613 H   0  0  0  0  0  0  0  0  0  0  0  0
  142.0710   76.5118  221.7896 H   0  0  0  0  0  0  0  0  0  0  0  0
  141.1720   75.9652  223.2936 H   0  0  0  0  0  0  0  0  0  0  0  0
  1  2  2  0
  2  3  1  0
  3  4  1  0
  4  5  1  0
  5  6  1  0
  6  7  1  0
  7  8  1  0
  8  9  1  0
  9 10  1  0
 10 11  1  0
  2 12  1  0
 12 13  2  0
 13 14  1  0
 14 15  2  0
 15 16  1  0
 16 17  1  0
 17 18  1  0
 18 19  1  0
 19 20  2  0
 20 21  1  0
 21 22  2  0
 22 23  1  0
 23 24  2  0
 24 25  1  0
 15 26  1  0
 26 27  2  0
 27 28  1  0
 28 29  1  0
 29 30  1  0
 30 31  1  0
 31 32  2  0
 32 33  1  0
 33 34  2  0
 34 35  1  0
 35 36  2  0
 36 37  1  0
 11  6  1  0
 27 12  1  0
 37 28  1  0
 25 16  1  0
 36 31  1  0
 24 19  1  0
  3 38  1  0
  4 39  1  0
  4 40  1  0
  5 41  1  0
  5 42  1  0
  6 43  1  0
  7 44  1  0
  7 45  1  0
  8 46  1  0
  8 47  1  0
  9 48  1  0
 10 49  1  0
 10 50  1  0
 11 51  1  0
 11 52  1  0
 13 53  1  0
 17 54  1  0
 17 55  1  0
 18 56  1  0
 18 57  1  0
 20 58  1  0
 21 59  1  0
 22 60  1  0
 23 61  1  0
 25 62  1  0
 25 63  1  0
 29 64  1  0
 29 65  1  0
 30 66  1  0
 30 67  1  0
 32 68  1  0
 33 69  1  0
 34 70  1  0
 35 71  1  0
 37 72  1  0
 37 73  1  0
M  END
>  <smiles>  (4) 
O=C(NCCC1CCNCC1)c1cnc(N2CCc3ccccc3C2)nc1N1CCc2ccccc2C1

>  <score_type>  (4) 
oracle

>  <origin>  (4) 
autodockgpu

>  <m_score__min__energy>  (4) 
-10.16

>  <m_primary>  (4) 
energy

>  <rmsd>  (4) 
5.554903069068395

>  <m_score__min__rmsd>  (4) 
5.554903069068395

>  <meeko>  (4) 
{"free_energy": -8.7, "intermolecular_energy": -10.49, "internal_energy": -2.4, "cluster_size": 38, "cluster_id": 1, "rank_in_cluster": 34}

>  <energy>  (4) 
-9.74

>  <cluster_rmsd>  (4) 
1.08

>  <cluster>  (4) 
1

$$$$

     RDKit          3D

 73 78  0  0  0  0  0  0  0  0999 V2000
  143.1690   75.2830  220.0970 O   0  0  0  0  0  0  0  0  0  0  0  0
  142.0320   74.7920  219.8700 C   0  0  0  0  0  0  0  0  0  0  0  0
  141.3490   74.9510  218.6240 N   0  0  0  0  0  0  0  0  0  0  0  0
  141.9030   75.7020  217.5120 C   0  0  0  0  0  0  0  0  0  0  0  0
  141.1400   76.9650  217.3000 C   0  0  0  0  0  0  0  0  0  0  0  0
  141.8950   78.2300  217.5430 C   0  0  0  0  0  0  0  0  0  0  0  0
  142.1550   78.5450  218.9670 C   0  0  0  0  0  0  0  0  0  0  0  0
  142.1790   80.0400  219.1560 C   0  0  0  0  0  0  0  0  0  0  0  0
  142.9450   80.5990  218.0360 N   0  0  0  0  0  0  0  0  0  0  0  0
  142.1030   80.6190  216.8530 C   0  0  0  0  0  0  0  0  0  0  0  0
  141.2580   79.3680  216.7590 C   0  0  0  0  0  0  0  0  0  0  0  0
  141.3490   74.0150  220.9050 C   0  0  0  0  0  0  0  0  0  0  0  0
  141.6930   72.6570  220.9510 C   0  0  0  0  0  0  0  0  0  0  0  0
  141.0810   71.9270  221.8930 N   0  0  0  0  0  0  0  0  0  0  0  0
  140.1880   72.4260  222.7580 C   0  0  0  0  0  0  0  0  0  0  0  0
  139.6060   71.5430  223.7330 N   0  0  0  0  0  0  0  0  0  0  0  0
  138.4560   70.7240  223.4530 C   0  0  0  0  0  0  0  0  0  0  0  0
  138.7040   69.2480  223.6420 C   0  0  0  0  0  0  0  0  0  0  0  0
  139.5260   69.0330  224.8510 C   0  0  0  0  0  0  0  0  0  0  0  0
  139.6270   67.7600  225.3690 C   0  0  0  0  0  0  0  0  0  0  0  0
  140.3770   67.5080  226.5010 C   0  0  0  0  0  0  0  0  0  0  0  0
  141.0670   68.5010  227.1780 C   0  0  0  0  0  0  0  0  0  0  0  0
  140.9660   69.7840  226.6530 C   0  0  0  0  0  0  0  0  0  0  0  0
  140.2060   70.0390  225.5110 C   0  0  0  0  0  0  0  0  0  0  0  0
  140.1820   71.4620  225.0640 C   0  0  0  0  0  0  0  0  0  0  0  0
  139.8690   73.7230  222.7020 N   0  0  0  0  0  0  0  0  0  0  0  0
  140.4340   74.5560  221.7800 C   0  0  0  0  0  0  0  0  0  0  0  0
  140.1050   75.9390  221.7150 N   0  0  0  0  0  0  0  0  0  0  0  0
  138.8240   76.4560  221.3540 C   0  0  0  0  0  0  0  0  0  0  0  0
  138.3050   77.4970  222.3200 C   0  0  0  0  0  0  0  0  0  0  0  0
  139.3540   78.5060  222.5700 C   0  0  0  0  0  0  0  0  0  0  0  0
  138.9720   79.7770  222.9530 C   0  0  0  0  0  0  0  0  0  0  0  0
  139.9500   80.7320  223.2000 C   0  0  0  0  0  0  0  0  0  0  0  0
  141.2900   80.4590  223.0790 C   0  0  0  0  0  0  0  0  0  0  0  0
  141.6370   79.1770  222.6940 C   0  0  0  0  0  0  0  0  0  0  0  0
  140.7070   78.2010  222.4390 C   0  0  0  0  0  0  0  0  0  0  0  0
  141.1680   76.8770  222.0390 C   0  0  0  0  0  0  0  0  0  0  0  0
  140.3890   74.4910  218.5220 H   0  0  0  0  0  0  0  0  0  0  0  0
  142.9535   75.9462  217.7283 H   0  0  0  0  0  0  0  0  0  0  0  0
  141.8347   75.0892  216.6011 H   0  0  0  0  0  0  0  0  0  0  0  0
  140.7895   76.9764  216.2574 H   0  0  0  0  0  0  0  0  0  0  0  0
  140.3305   76.9530  218.0447 H   0  0  0  0  0  0  0  0  0  0  0  0
  142.9137   78.0759  217.1576 H   0  0  0  0  0  0  0  0  0  0  0  0
  141.3596   78.1097  219.5897 H   0  0  0  0  0  0  0  0  0  0  0  0
  143.1264   78.1228  219.2638 H   0  0  0  0  0  0  0  0  0  0  0  0
  141.1538   80.4386  219.1494 H   0  0  0  0  0  0  0  0  0  0  0  0
  142.6377   80.3078  220.1193 H   0  0  0  0  0  0  0  0  0  0  0  0
  143.7040   79.8970  217.8460 H   0  0  0  0  0  0  0  0  0  0  0  0
  141.4408   81.4961  216.8992 H   0  0  0  0  0  0  0  0  0  0  0  0
  142.7515   80.6675  215.9659 H   0  0  0  0  0  0  0  0  0  0  0  0
  140.2589   79.5751  217.1701 H   0  0  0  0  0  0  0  0  0  0  0  0
  141.1813   79.0709  215.7027 H   0  0  0  0  0  0  0  0  0  0  0  0
  142.4222   72.2168  220.2550 H   0  0  0  0  0  0  0  0  0  0  0  0
  137.6405   71.0283  224.1256 H   0  0  0  0  0  0  0  0  0  0  0  0
  138.2033   70.8751  222.3931 H   0  0  0  0  0  0  0  0  0  0  0  0
  137.7419   68.7271  223.7563 H   0  0  0  0  0  0  0  0  0  0  0  0
  139.2358   68.8521  222.7642 H   0  0  0  0  0  0  0  0  0  0  0  0
  139.1016   66.9308  224.8727 H   0  0  0  0  0  0  0  0  0  0  0  0
  140.4288   66.4769  226.8808 H   0  0  0  0  0  0  0  0  0  0  0  0
  141.6604   68.2862  228.0789 H   0  0  0  0  0  0  0  0  0  0  0  0
  141.4945   70.6129  227.1465 H   0  0  0  0  0  0  0  0  0  0  0  0
  139.5744   72.0555  225.7630 H   0  0  0  0  0  0  0  0  0  0  0  0
  141.2086   71.8566  225.0433 H   0  0  0  0  0  0  0  0  0  0  0  0
  138.9005   76.9129  220.3563 H   0  0  0  0  0  0  0  0  0  0  0  0
  138.1163   75.6140  221.3713 H   0  0  0  0  0  0  0  0  0  0  0  0
  137.4200   77.9878  221.8889 H   0  0  0  0  0  0  0  0  0  0  0  0
  138.0309   77.0116  223.2683 H   0  0  0  0  0  0  0  0  0  0  0  0
  137.9069   80.0297  223.0610 H   0  0  0  0  0  0  0  0  0  0  0  0
  139.6398   81.7428  223.5033 H   0  0  0  0  0  0  0  0  0  0  0  0
  142.0532   81.2255  223.2793 H   0  0  0  0  0  0  0  0  0  0  0  0
  142.7035   78.9293  222.5877 H   0  0  0  0  0  0  0  0  0  0  0  0
  141.8083   76.9900  221.1517 H   0  0  0  0  0  0  0  0  0  0  0  0
  141.7013   76.4574  222.9048 H   0  0  0  0  0  0  0  0  0  0  0  0
  1  2  2  0
  2  3  1  0
  3  4  1  0
  4  5  1  0
  5  6  1  0
  6  7  1  0
  7  8  1  0
  8  9  1  0
  9 10  1  0
 10 11  1  0
  2 12  1  0
 12 13  2  0
 13 14  1  0
 14 15  2  0
 15 16  1  0
 16 17  1  0
 17 18  1  0
 18 19  1  0
 19 20  2  0
 20 21  1  0
 21 22  2  0
 22 23  1  0
 23 24  2  0
 24 25  1  0
 15 26  1  0
 26 27  2  0
 27 28  1  0
 28 29  1  0
 29 30  1  0
 30 31  1  0
 31 32  2  0
 32 33  1  0
 33 34  2  0
 34 35  1  0
 35 36  2  0
 36 37  1  0
 11  6  1  0
 27 12  1  0
 37 28  1  0
 25 16  1  0
 36 31  1  0
 24 19  1  0
  3 38  1  0
  4 39  1  0
  4 40  1  0
  5 41  1  0
  5 42  1  0
  6 43  1  0
  7 44  1  0
  7 45  1  0
  8 46  1  0
  8 47  1  0
  9 48  1  0
 10 49  1  0
 10 50  1  0
 11 51  1  0
 11 52  1  0
 13 53  1  0
 17 54  1  0
 17 55  1  0
 18 56  1  0
 18 57  1  0
 20 58  1  0
 21 59  1  0
 22 60  1  0
 23 61  1  0
 25 62  1  0
 25 63  1  0
 29 64  1  0
 29 65  1  0
 30 66  1  0
 30 67  1  0
 32 68  1  0
 33 69  1  0
 34 70  1  0
 35 71  1  0
 37 72  1  0
 37 73  1  0
M  END
>  <smiles>  (5) 
O=C(NCCC1CCNCC1)c1cnc(N2CCc3ccccc3C2)nc1N1CCc2ccccc2C1

>  <score_type>  (5) 
oracle

>  <origin>  (5) 
autodockgpu

>  <m_score__min__energy>  (5) 
-10.16

>  <m_primary>  (5) 
energy

>  <rmsd>  (5) 
6.020440274277044

>  <m_score__min__rmsd>  (5) 
6.020440274277044

>  <meeko>  (5) 
{"free_energy": -9.56, "intermolecular_energy": -11.35, "internal_energy": -1.8, "cluster_size": 38, "cluster_id": 1, "rank_in_cluster": 7}

>  <energy>  (5) 
-9.72

>  <cluster_rmsd>  (5) 
1.1

>  <cluster>  (5) 
1

$$$$

     RDKit          3D

 73 78  0  0  0  0  0  0  0  0999 V2000
  143.4650   74.9220  220.1240 O   0  0  0  0  0  0  0  0  0  0  0  0
  142.2170   74.7950  220.0200 C   0  0  0  0  0  0  0  0  0  0  0  0
  141.4570   75.3950  218.9670 N   0  0  0  0  0  0  0  0  0  0  0  0
  142.0590   76.2130  217.9290 C   0  0  0  0  0  0  0  0  0  0  0  0
  141.1040   77.2610  217.4670 C   0  0  0  0  0  0  0  0  0  0  0  0
  141.2460   78.6000  218.1110 C   0  0  0  0  0  0  0  0  0  0  0  0
  141.9420   79.6220  217.2950 C   0  0  0  0  0  0  0  0  0  0  0  0
  142.6910   80.5660  218.2000 C   0  0  0  0  0  0  0  0  0  0  0  0
  141.7990   80.8770  219.3220 N   0  0  0  0  0  0  0  0  0  0  0  0
  141.8010   79.7610  220.2500 C   0  0  0  0  0  0  0  0  0  0  0  0
  141.8080   78.4380  219.5170 C   0  0  0  0  0  0  0  0  0  0  0  0
  141.4750   74.0020  221.0010 C   0  0  0  0  0  0  0  0  0  0  0  0
  141.8210   72.6450  221.0500 C   0  0  0  0  0  0  0  0  0  0  0  0
  141.1560   71.9010  221.9440 N   0  0  0  0  0  0  0  0  0  0  0  0
  140.2110   72.3850  222.7600 C   0  0  0  0  0  0  0  0  0  0  0  0
  139.5750   71.4880  223.6870 N   0  0  0  0  0  0  0  0  0  0  0  0
  138.4910   70.6190  223.3090 C   0  0  0  0  0  0  0  0  0  0  0  0
  138.7800   69.1570  223.5400 C   0  0  0  0  0  0  0  0  0  0  0  0
  139.4910   68.9870  224.8250 C   0  0  0  0  0  0  0  0  0  0  0  0
  139.5920   67.7240  225.3660 C   0  0  0  0  0  0  0  0  0  0  0  0
  140.2410   67.5140  226.5680 C   0  0  0  0  0  0  0  0  0  0  0  0
  140.8230   68.5400  227.2940 C   0  0  0  0  0  0  0  0  0  0  0  0
  140.7200   69.8140  226.7460 C   0  0  0  0  0  0  0  0  0  0  0  0
  140.0630   70.0270  225.5330 C   0  0  0  0  0  0  0  0  0  0  0  0
  140.0240   71.4430  225.0670 C   0  0  0  0  0  0  0  0  0  0  0  0
  139.8910   73.6820  222.7020 N   0  0  0  0  0  0  0  0  0  0  0  0
  140.5070   74.5290  221.8270 C   0  0  0  0  0  0  0  0  0  0  0  0
  140.1780   75.9110  221.7600 N   0  0  0  0  0  0  0  0  0  0  0  0
  139.0470   76.4480  221.0730 C   0  0  0  0  0  0  0  0  0  0  0  0
  138.2410   77.4150  221.9110 C   0  0  0  0  0  0  0  0  0  0  0  0
  139.1450   78.4080  222.5260 C   0  0  0  0  0  0  0  0  0  0  0  0
  138.6360   79.6470  222.8640 C   0  0  0  0  0  0  0  0  0  0  0  0
  139.4740   80.5860  223.4500 C   0  0  0  0  0  0  0  0  0  0  0  0
  140.7970   80.3280  223.7110 C   0  0  0  0  0  0  0  0  0  0  0  0
  141.2730   79.0790  223.3610 C   0  0  0  0  0  0  0  0  0  0  0  0
  140.4840   78.1190  222.7790 C   0  0  0  0  0  0  0  0  0  0  0  0
  141.0750   76.8280  222.4450 C   0  0  0  0  0  0  0  0  0  0  0  0
  140.4020   75.2250  218.9570 H   0  0  0  0  0  0  0  0  0  0  0  0
  142.9620   76.6976  218.3288 H   0  0  0  0  0  0  0  0  0  0  0  0
  142.3189   75.5690  217.0759 H   0  0  0  0  0  0  0  0  0  0  0  0
  141.2442   77.3911  216.3838 H   0  0  0  0  0  0  0  0  0  0  0  0
  140.1044   76.8989  217.7490 H   0  0  0  0  0  0  0  0  0  0  0  0
  140.2351   79.0263  218.1911 H   0  0  0  0  0  0  0  0  0  0  0  0
  142.6508   79.1271  216.6147 H   0  0  0  0  0  0  0  0  0  0  0  0
  141.2028   80.1871  216.7084 H   0  0  0  0  0  0  0  0  0  0  0  0
  143.6102   80.0873  218.5687 H   0  0  0  0  0  0  0  0  0  0  0  0
  142.9812   81.4806  217.6621 H   0  0  0  0  0  0  0  0  0  0  0  0
  140.8340   80.9110  218.9040 H   0  0  0  0  0  0  0  0  0  0  0  0
  142.6973   79.8240  220.8846 H   0  0  0  0  0  0  0  0  0  0  0  0
  140.8877   79.8152  220.8608 H   0  0  0  0  0  0  0  0  0  0  0  0
  142.8412   78.0662  219.4525 H   0  0  0  0  0  0  0  0  0  0  0  0
  141.1797   77.7237  220.0694 H   0  0  0  0  0  0  0  0  0  0  0  0
  142.5925   72.2162  220.3936 H   0  0  0  0  0  0  0  0  0  0  0  0
  137.6030   70.8950  223.8967 H   0  0  0  0  0  0  0  0  0  0  0  0
  138.3348   70.7499  222.2280 H   0  0  0  0  0  0  0  0  0  0  0  0
  137.8335   68.5972  223.5689 H   0  0  0  0  0  0  0  0  0  0  0  0
  139.4093   68.7762  222.7221 H   0  0  0  0  0  0  0  0  0  0  0  0
  139.1493   66.8696  224.8331 H   0  0  0  0  0  0  0  0  0  0  0  0
  140.2977   66.4895  226.9646 H   0  0  0  0  0  0  0  0  0  0  0  0
  141.3371   68.3576  228.2492 H   0  0  0  0  0  0  0  0  0  0  0  0
  141.1639   70.6686  227.2776 H   0  0  0  0  0  0  0  0  0  0  0  0
  139.3289   72.0171  225.6973 H   0  0  0  0  0  0  0  0  0  0  0  0
  141.0311   71.8796  225.1385 H   0  0  0  0  0  0  0  0  0  0  0  0
  139.4020   76.9758  220.1756 H   0  0  0  0  0  0  0  0  0  0  0  0
  138.3866   75.6043  220.8240 H   0  0  0  0  0  0  0  0  0  0  0  0
  137.5094   77.9316  221.2723 H   0  0  0  0  0  0  0  0  0  0  0  0
  137.7128   76.8619  222.7016 H   0  0  0  0  0  0  0  0  0  0  0  0
  137.5799   79.8866  222.6712 H   0  0  0  0  0  0  0  0  0  0  0  0
  139.0635   81.5716  223.7146 H   0  0  0  0  0  0  0  0  0  0  0  0
  141.4485   81.0815  224.1776 H   0  0  0  0  0  0  0  0  0  0  0  0
  142.3296   78.8442  223.5573 H   0  0  0  0  0  0  0  0  0  0  0  0
  141.9448   77.0065  221.7957 H   0  0  0  0  0  0  0  0  0  0  0  0
  141.3403   76.3501  223.3996 H   0  0  0  0  0  0  0  0  0  0  0  0
  1  2  2  0
  2  3  1  0
  3  4  1  0
  4  5  1  0
  5  6  1  0
  6  7  1  0
  7  8  1  0
  8  9  1  0
  9 10  1  0
 10 11  1  0
  2 12  1  0
 12 13  2  0
 13 14  1  0
 14 15  2  0
 15 16  1  0
 16 17  1  0
 17 18  1  0
 18 19  1  0
 19 20  2  0
 20 21  1  0
 21 22  2  0
 22 23  1  0
 23 24  2  0
 24 25  1  0
 15 26  1  0
 26 27  2  0
 27 28  1  0
 28 29  1  0
 29 30  1  0
 30 31  1  0
 31 32  2  0
 32 33  1  0
 33 34  2  0
 34 35  1  0
 35 36  2  0
 36 37  1  0
 11  6  1  0
 27 12  1  0
 37 28  1  0
 25 16  1  0
 36 31  1  0
 24 19  1  0
  3 38  1  0
  4 39  1  0
  4 40  1  0
  5 41  1  0
  5 42  1  0
  6 43  1  0
  7 44  1  0
  7 45  1  0
  8 46  1  0
  8 47  1  0
  9 48  1  0
 10 49  1  0
 10 50  1  0
 11 51  1  0
 11 52  1  0
 13 53  1  0
 17 54  1  0
 17 55  1  0
 18 56  1  0
 18 57  1  0
 20 58  1  0
 21 59  1  0
 22 60  1  0
 23 61  1  0
 25 62  1  0
 25 63  1  0
 29 64  1  0
 29 65  1  0
 30 66  1  0
 30 67  1  0
 32 68  1  0
 33 69  1  0
 34 70  1  0
 35 71  1  0
 37 72  1  0
 37 73  1  0
M  END
>  <smiles>  (6) 
O=C(NCCC1CCNCC1)c1cnc(N2CCc3ccccc3C2)nc1N1CCc2ccccc2C1

>  <score_type>  (6) 
oracle

>  <origin>  (6) 
autodockgpu

>  <m_score__min__energy>  (6) 
-10.16

>  <m_primary>  (6) 
energy

>  <rmsd>  (6) 
5.669545580126908

>  <m_score__min__rmsd>  (6) 
5.669545580126908

>  <meeko>  (6) 
{"free_energy": -9.22, "intermolecular_energy": -11.01, "internal_energy": -2.03, "cluster_size": 38, "cluster_id": 1, "rank_in_cluster": 14}

>  <energy>  (6) 
-9.59

>  <cluster_rmsd>  (6) 
1.16

>  <cluster>  (6) 
1

$$$$

     RDKit          3D

 73 78  0  0  0  0  0  0  0  0999 V2000
  143.1810   75.2020  220.2600 O   0  0  0  0  0  0  0  0  0  0  0  0
  142.0550   74.7140  219.9800 C   0  0  0  0  0  0  0  0  0  0  0  0
  141.4160   74.9040  218.7150 N   0  0  0  0  0  0  0  0  0  0  0  0
  142.0070   75.6860  217.6430 C   0  0  0  0  0  0  0  0  0  0  0  0
  141.2670   76.9670  217.4580 C   0  0  0  0  0  0  0  0  0  0  0  0
  141.6250   78.0670  218.4010 C   0  0  0  0  0  0  0  0  0  0  0  0
  140.6260   78.3400  219.4600 C   0  0  0  0  0  0  0  0  0  0  0  0
  140.6530   79.8050  219.8120 C   0  0  0  0  0  0  0  0  0  0  0  0
  142.0640   80.1990  219.8920 N   0  0  0  0  0  0  0  0  0  0  0  0
  142.5830   80.3670  218.5460 C   0  0  0  0  0  0  0  0  0  0  0  0
  142.0530   79.2990  217.6160 C   0  0  0  0  0  0  0  0  0  0  0  0
  141.3370   73.9080  220.9680 C   0  0  0  0  0  0  0  0  0  0  0  0
  141.6760   72.5480  220.9830 C   0  0  0  0  0  0  0  0  0  0  0  0
  141.0330   71.7920  221.8830 N   0  0  0  0  0  0  0  0  0  0  0  0
  140.1150   72.2670  222.7350 C   0  0  0  0  0  0  0  0  0  0  0  0
  139.5010   71.3570  223.6640 N   0  0  0  0  0  0  0  0  0  0  0  0
  138.4650   70.4350  223.2790 C   0  0  0  0  0  0  0  0  0  0  0  0
  138.8140   68.9900  223.5400 C   0  0  0  0  0  0  0  0  0  0  0  0
  139.5050   68.8730  224.8420 C   0  0  0  0  0  0  0  0  0  0  0  0
  139.6520   67.6250  225.4060 C   0  0  0  0  0  0  0  0  0  0  0  0
  140.2840   67.4640  226.6240 C   0  0  0  0  0  0  0  0  0  0  0  0
  140.8040   68.5270  227.3440 C   0  0  0  0  0  0  0  0  0  0  0  0
  140.6560   69.7850  226.7720 C   0  0  0  0  0  0  0  0  0  0  0  0
  140.0160   69.9490  225.5430 C   0  0  0  0  0  0  0  0  0  0  0  0
  139.9230   71.3550  225.0530 C   0  0  0  0  0  0  0  0  0  0  0  0
  139.8020   73.5670  222.7080 N   0  0  0  0  0  0  0  0  0  0  0  0
  140.3980   74.4260  221.8310 C   0  0  0  0  0  0  0  0  0  0  0  0
  140.0750   75.8110  221.7980 N   0  0  0  0  0  0  0  0  0  0  0  0
  138.8420   76.3500  221.3210 C   0  0  0  0  0  0  0  0  0  0  0  0
  138.2140   77.3420  222.2740 C   0  0  0  0  0  0  0  0  0  0  0  0
  139.2260   78.3340  222.6910 C   0  0  0  0  0  0  0  0  0  0  0  0
  138.8000   79.5860  223.0920 C   0  0  0  0  0  0  0  0  0  0  0  0
  139.7410   80.5240  223.4950 C   0  0  0  0  0  0  0  0  0  0  0  0
  141.0870   80.2530  223.5120 C   0  0  0  0  0  0  0  0  0  0  0  0
  141.4790   78.9910  223.1050 C   0  0  0  0  0  0  0  0  0  0  0  0
  140.5850   78.0320  222.6990 C   0  0  0  0  0  0  0  0  0  0  0  0
  141.0920   76.7280  222.2870 C   0  0  0  0  0  0  0  0  0  0  0  0
  140.4630   74.4450  218.5660 H   0  0  0  0  0  0  0  0  0  0  0  0
  143.0553   75.9069  217.8924 H   0  0  0  0  0  0  0  0  0  0  0  0
  141.9517   75.1067  216.7096 H   0  0  0  0  0  0  0  0  0  0  0  0
  141.4599   77.3233  216.4353 H   0  0  0  0  0  0  0  0  0  0  0  0
  140.2111   76.7333  217.6593 H   0  0  0  0  0  0  0  0  0  0  0  0
  142.4863   77.7179  218.9895 H   0  0  0  0  0  0  0  0  0  0  0  0
  139.6237   78.0687  219.0970 H   0  0  0  0  0  0  0  0  0  0  0  0
  140.8668   77.7444  220.3529 H   0  0  0  0  0  0  0  0  0  0  0  0
  140.1405   80.3902  219.0343 H   0  0  0  0  0  0  0  0  0  0  0  0
  140.1382   79.9898  220.7664 H   0  0  0  0  0  0  0  0  0  0  0  0
  142.5590   79.3630  220.2950 H   0  0  0  0  0  0  0  0  0  0  0  0
  142.2818   81.3545  218.1664 H   0  0  0  0  0  0  0  0  0  0  0  0
  143.6791   80.2824  218.5833 H   0  0  0  0  0  0  0  0  0  0  0  0
  141.1868   79.6960  217.0664 H   0  0  0  0  0  0  0  0  0  0  0  0
  142.8507   79.0125  216.9149 H   0  0  0  0  0  0  0  0  0  0  0  0
  142.4253   72.1265  220.2967 H   0  0  0  0  0  0  0  0  0  0  0  0
  137.5537   70.6801  223.8443 H   0  0  0  0  0  0  0  0  0  0  0  0
  138.3255   70.5419  222.1931 H   0  0  0  0  0  0  0  0  0  0  0  0
  137.8930   68.3888  223.5592 H   0  0  0  0  0  0  0  0  0  0  0  0
  139.4762   68.6245  222.7413 H   0  0  0  0  0  0  0  0  0  0  0  0
  139.2601   66.7428  224.8785 H   0  0  0  0  0  0  0  0  0  0  0  0
  140.3781   66.4497  227.0391 H   0  0  0  0  0  0  0  0  0  0  0  0
  141.3052   68.3837  228.3126 H   0  0  0  0  0  0  0  0  0  0  0  0
  141.0505   70.6671  227.2976 H   0  0  0  0  0  0  0  0  0  0  0  0
  139.1899   71.9069  225.6596 H   0  0  0  0  0  0  0  0  0  0  0  0
  140.9075   71.8384  225.1376 H   0  0  0  0  0  0  0  0  0  0  0  0
  139.0300   76.8571  220.3631 H   0  0  0  0  0  0  0  0  0  0  0  0
  138.1391   75.5106  221.2148 H   0  0  0  0  0  0  0  0  0  0  0  0
  137.3817   77.8566  221.7715 H   0  0  0  0  0  0  0  0  0  0  0  0
  137.8358   76.8102  223.1595 H   0  0  0  0  0  0  0  0  0  0  0  0
  137.7289   79.8363  223.0919 H   0  0  0  0  0  0  0  0  0  0  0  0
  139.3961   81.5193  223.8118 H   0  0  0  0  0  0  0  0  0  0  0  0
  141.8207   81.0062  223.8350 H   0  0  0  0  0  0  0  0  0  0  0  0
  142.5513   78.7456  223.1067 H   0  0  0  0  0  0  0  0  0  0  0  0
  141.8281   76.8838  221.4846 H   0  0  0  0  0  0  0  0  0  0  0  0
  141.5252   76.2636  223.1851 H   0  0  0  0  0  0  0  0  0  0  0  0
  1  2  2  0
  2  3  1  0
  3  4  1  0
  4  5  1  0
  5  6  1  0
  6  7  1  0
  7  8  1  0
  8  9  1  0
  9 10  1  0
 10 11  1  0
  2 12  1  0
 12 13  2  0
 13 14  1  0
 14 15  2  0
 15 16  1  0
 16 17  1  0
 17 18  1  0
 18 19  1  0
 19 20  2  0
 20 21  1  0
 21 22  2  0
 22 23  1  0
 23 24  2  0
 24 25  1  0
 15 26  1  0
 26 27  2  0
 27 28  1  0
 28 29  1  0
 29 30  1  0
 30 31  1  0
 31 32  2  0
 32 33  1  0
 33 34  2  0
 34 35  1  0
 35 36  2  0
 36 37  1  0
 11  6  1  0
 27 12  1  0
 37 28  1  0
 25 16  1  0
 36 31  1  0
 24 19  1  0
  3 38  1  0
  4 39  1  0
  4 40  1  0
  5 41  1  0
  5 42  1  0
  6 43  1  0
  7 44  1  0
  7 45  1  0
  8 46  1  0
  8 47  1  0
  9 48  1  0
 10 49  1  0
 10 50  1  0
 11 51  1  0
 11 52  1  0
 13 53  1  0
 17 54  1  0
 17 55  1  0
 18 56  1  0
 18 57  1  0
 20 58  1  0
 21 59  1  0
 22 60  1  0
 23 61  1  0
 25 62  1  0
 25 63  1  0
 29 64  1  0
 29 65  1  0
 30 66  1  0
 30 67  1  0
 32 68  1  0
 33 69  1  0
 34 70  1  0
 35 71  1  0
 37 72  1  0
 37 73  1  0
M  END
>  <smiles>  (7) 
O=C(NCCC1CCNCC1)c1cnc(N2CCc3ccccc3C2)nc1N1CCc2ccccc2C1

>  <score_type>  (7) 
oracle

>  <origin>  (7) 
autodockgpu

>  <m_score__min__energy>  (7) 
-10.16

>  <m_primary>  (7) 
energy

>  <rmsd>  (7) 
5.818618101713588

>  <m_score__min__rmsd>  (7) 
5.818618101713588

>  <meeko>  (7) 
{"free_energy": -9.35, "intermolecular_energy": -11.14, "internal_energy": -2.16, "cluster_size": 38, "cluster_id": 1, "rank_in_cluster": 12}

>  <energy>  (7) 
-9.56

>  <cluster_rmsd>  (7) 
0.97

>  <cluster>  (7) 
1

$$$$

     RDKit          3D

 73 78  0  0  0  0  0  0  0  0999 V2000
  143.3810   74.9870  220.1490 O   0  0  0  0  0  0  0  0  0  0  0  0
  142.1320   74.8650  220.0560 C   0  0  0  0  0  0  0  0  0  0  0  0
  141.3590   75.4980  219.0330 N   0  0  0  0  0  0  0  0  0  0  0  0
  141.9490   76.3480  218.0140 C   0  0  0  0  0  0  0  0  0  0  0  0
  142.5830   77.5470  218.6320 C   0  0  0  0  0  0  0  0  0  0  0  0
  141.6480   78.5270  219.2600 C   0  0  0  0  0  0  0  0  0  0  0  0
  140.2190   78.3450  218.9140 C   0  0  0  0  0  0  0  0  0  0  0  0
  139.5280   79.6850  218.9080 C   0  0  0  0  0  0  0  0  0  0  0  0
  140.0030   80.4140  220.0890 N   0  0  0  0  0  0  0  0  0  0  0  0
  141.3290   80.9380  219.8180 C   0  0  0  0  0  0  0  0  0  0  0  0
  142.1660   79.9420  219.0470 C   0  0  0  0  0  0  0  0  0  0  0  0
  141.4020   74.0420  221.0220 C   0  0  0  0  0  0  0  0  0  0  0  0
  141.7630   72.6880  221.0400 C   0  0  0  0  0  0  0  0  0  0  0  0
  141.1090   71.9170  221.9190 N   0  0  0  0  0  0  0  0  0  0  0  0
  140.1610   72.3730  222.7480 C   0  0  0  0  0  0  0  0  0  0  0  0
  139.5370   71.4480  223.6560 N   0  0  0  0  0  0  0  0  0  0  0  0
  138.5060   70.5310  223.2470 C   0  0  0  0  0  0  0  0  0  0  0  0
  138.8530   69.0830  223.4890 C   0  0  0  0  0  0  0  0  0  0  0  0
  139.5310   68.9470  224.7960 C   0  0  0  0  0  0  0  0  0  0  0  0
  139.6720   67.6900  225.3430 C   0  0  0  0  0  0  0  0  0  0  0  0
  140.2920   67.5100  226.5650 C   0  0  0  0  0  0  0  0  0  0  0  0
  140.8040   68.5620  227.3060 C   0  0  0  0  0  0  0  0  0  0  0  0
  140.6610   69.8290  226.7530 C   0  0  0  0  0  0  0  0  0  0  0  0
  140.0330   70.0120  225.5190 C   0  0  0  0  0  0  0  0  0  0  0  0
  139.9440   71.4240  225.0500 C   0  0  0  0  0  0  0  0  0  0  0  0
  139.8260   73.6670  222.7190 N   0  0  0  0  0  0  0  0  0  0  0  0
  140.4300   74.5400  221.8610 C   0  0  0  0  0  0  0  0  0  0  0  0
  140.0840   75.9190  221.8250 N   0  0  0  0  0  0  0  0  0  0  0  0
  138.8360   76.4360  221.3640 C   0  0  0  0  0  0  0  0  0  0  0  0
  138.2070   77.4240  222.3200 C   0  0  0  0  0  0  0  0  0  0  0  0
  139.2090   78.4340  222.7160 C   0  0  0  0  0  0  0  0  0  0  0  0
  138.7690   79.6820  223.1160 C   0  0  0  0  0  0  0  0  0  0  0  0
  139.7010   80.6370  223.4990 C   0  0  0  0  0  0  0  0  0  0  0  0
  141.0510   80.3880  223.4970 C   0  0  0  0  0  0  0  0  0  0  0  0
  141.4570   79.1300  223.0920 C   0  0  0  0  0  0  0  0  0  0  0  0
  140.5730   78.1540  222.7050 C   0  0  0  0  0  0  0  0  0  0  0  0
  141.0940   76.8550  222.2930 C   0  0  0  0  0  0  0  0  0  0  0  0
  140.3040   75.3300  219.0310 H   0  0  0  0  0  0  0  0  0  0  0  0
  142.7131   75.7775  217.4656 H   0  0  0  0  0  0  0  0  0  0  0  0
  141.1563   76.6807  217.3278 H   0  0  0  0  0  0  0  0  0  0  0  0
  143.2779   77.1978  219.4099 H   0  0  0  0  0  0  0  0  0  0  0  0
  143.0694   78.0863  217.8058 H   0  0  0  0  0  0  0  0  0  0  0  0
  141.6451   78.3221  220.3407 H   0  0  0  0  0  0  0  0  0  0  0  0
  140.1387   77.8867  217.9172 H   0  0  0  0  0  0  0  0  0  0  0  0
  139.7423   77.6903  219.6584 H   0  0  0  0  0  0  0  0  0  0  0  0
  139.7845   80.2389  217.9929 H   0  0  0  0  0  0  0  0  0  0  0  0
  138.4349   79.5647  218.9326 H   0  0  0  0  0  0  0  0  0  0  0  0
  140.1220   79.6820  220.8340 H   0  0  0  0  0  0  0  0  0  0  0  0
  141.2357   81.8611  219.2271 H   0  0  0  0  0  0  0  0  0  0  0  0
  141.8259   81.1395  220.7785 H   0  0  0  0  0  0  0  0  0  0  0  0
  142.1214   80.1856  217.9752 H   0  0  0  0  0  0  0  0  0  0  0  0
  143.2038   79.9973  219.4075 H   0  0  0  0  0  0  0  0  0  0  0  0
  142.5373   72.2824  220.3721 H   0  0  0  0  0  0  0  0  0  0  0  0
  137.5890   70.7669  223.8069 H   0  0  0  0  0  0  0  0  0  0  0  0
  138.3776   70.6542  222.1615 H   0  0  0  0  0  0  0  0  0  0  0  0
  137.9323   68.4811  223.4899 H   0  0  0  0  0  0  0  0  0  0  0  0
  139.5231   68.7298  222.6914 H   0  0  0  0  0  0  0  0  0  0  0  0
  139.2850   66.8161  224.7984 H   0  0  0  0  0  0  0  0  0  0  0  0
  140.3825   66.4895  226.9654 H   0  0  0  0  0  0  0  0  0  0  0  0
  141.2959   68.4038  228.2771 H   0  0  0  0  0  0  0  0  0  0  0  0
  141.0492   70.7029  227.2967 H   0  0  0  0  0  0  0  0  0  0  0  0
  139.2038   71.9658  225.6572 H   0  0  0  0  0  0  0  0  0  0  0  0
  140.9273   71.9064  225.1526 H   0  0  0  0  0  0  0  0  0  0  0  0
  139.0016   76.9399  220.4004 H   0  0  0  0  0  0  0  0  0  0  0  0
  138.1447   75.5851  221.2740 H   0  0  0  0  0  0  0  0  0  0  0  0
  137.3595   77.9224  221.8268 H   0  0  0  0  0  0  0  0  0  0  0  0
  137.8504   76.8919  223.2143 H   0  0  0  0  0  0  0  0  0  0  0  0
  137.6941   79.9154  223.1306 H   0  0  0  0  0  0  0  0  0  0  0  0
  139.3450   81.6286  223.8153 H   0  0  0  0  0  0  0  0  0  0  0  0
  141.7772   81.1551  223.8039 H   0  0  0  0  0  0  0  0  0  0  0  0
  142.5330   78.9019  223.0794 H   0  0  0  0  0  0  0  0  0  0  0  0
  141.8153   77.0172  221.4785 H   0  0  0  0  0  0  0  0  0  0  0  0
  141.5478   76.4030  223.1872 H   0  0  0  0  0  0  0  0  0  0  0  0
  1  2  2  0
  2  3  1  0
  3  4  1  0
  4  5  1  0
  5  6  1  0
  6  7  1  0
  7  8  1  0
  8  9  1  0
  9 10  1  0
 10 11  1  0
  2 12  1  0
 12 13  2  0
 13 14  1  0
 14 15  2  0
 15 16  1  0
 16 17  1  0
 17 18  1  0
 18 19  1  0
 19 20  2  0
 20 21  1  0
 21 22  2  0
 22 23  1  0
 23 24  2  0
 24 25  1  0
 15 26  1  0
 26 27  2  0
 27 28  1  0
 28 29  1  0
 29 30  1  0
 30 31  1  0
 31 32  2  0
 32 33  1  0
 33 34  2  0
 34 35  1  0
 35 36  2  0
 36 37  1  0
 11  6  1  0
 27 12  1  0
 37 28  1  0
 25 16  1  0
 36 31  1  0
 24 19  1  0
  3 38  1  0
  4 39  1  0
  4 40  1  0
  5 41  1  0
  5 42  1  0
  6 43  1  0
  7 44  1  0
  7 45  1  0
  8 46  1  0
  8 47  1  0
  9 48  1  0
 10 49  1  0
 10 50  1  0
 11 51  1  0
 11 52  1  0
 13 53  1  0
 17 54  1  0
 17 55  1  0
 18 56  1  0
 18 57  1  0
 20 58  1  0
 21 59  1  0
 22 60  1  0
 23 61  1  0
 25 62  1  0
 25 63  1  0
 29 64  1  0
 29 65  1  0
 30 66  1  0
 30 67  1  0
 32 68  1  0
 33 69  1  0
 34 70  1  0
 35 71  1  0
 37 72  1  0
 37 73  1  0
M  END
>  <smiles>  (8) 
O=C(NCCC1CCNCC1)c1cnc(N2CCc3ccccc3C2)nc1N1CCc2ccccc2C1

>  <score_type>  (8) 
oracle

>  <origin>  (8) 
autodockgpu

>  <m_score__min__energy>  (8) 
-10.16

>  <m_primary>  (8) 
energy

>  <rmsd>  (8) 
5.5832028989002955

>  <m_score__min__rmsd>  (8) 
5.5832028989002955

>  <meeko>  (8) 
{"free_energy": -9.1, "intermolecular_energy": -10.89, "internal_energy": -2.56, "cluster_size": 38, "cluster_id": 1, "rank_in_cluster": 18}

>  <energy>  (8) 
-9.47

>  <cluster_rmsd>  (8) 
1.1

>  <cluster>  (8) 
1

$$$$

     RDKit          3D

 73 78  0  0  0  0  0  0  0  0999 V2000
  141.0400   73.9150  218.3930 O   0  0  0  0  0  0  0  0  0  0  0  0
  141.5250   74.0780  219.5430 C   0  0  0  0  0  0  0  0  0  0  0  0
  142.6450   74.9290  219.8040 N   0  0  0  0  0  0  0  0  0  0  0  0
  143.3290   75.6730  218.7610 C   0  0  0  0  0  0  0  0  0  0  0  0
  143.2890   77.1350  219.0470 C   0  0  0  0  0  0  0  0  0  0  0  0
  141.9310   77.7230  219.2410 C   0  0  0  0  0  0  0  0  0  0  0  0
  140.8800   77.1940  218.3400 C   0  0  0  0  0  0  0  0  0  0  0  0
  139.8690   78.2750  218.0570 C   0  0  0  0  0  0  0  0  0  0  0  0
  139.5960   78.9480  219.3320 N   0  0  0  0  0  0  0  0  0  0  0  0
  140.6910   79.8540  219.6300 C   0  0  0  0  0  0  0  0  0  0  0  0
  142.0250   79.2420  219.2640 C   0  0  0  0  0  0  0  0  0  0  0  0
  140.9410   73.3840  220.6910 C   0  0  0  0  0  0  0  0  0  0  0  0
  141.1720   72.0020  220.7280 C   0  0  0  0  0  0  0  0  0  0  0  0
  140.6480   71.3470  221.7720 N   0  0  0  0  0  0  0  0  0  0  0  0
  139.9390   71.9380  222.7430 C   0  0  0  0  0  0  0  0  0  0  0  0
  139.4370   71.1280  223.8210 N   0  0  0  0  0  0  0  0  0  0  0  0
  138.4760   70.0750  223.6190 C   0  0  0  0  0  0  0  0  0  0  0  0
  138.9610   68.7200  224.0730 C   0  0  0  0  0  0  0  0  0  0  0  0
  139.6980   68.8560  225.3470 C   0  0  0  0  0  0  0  0  0  0  0  0
  139.9730   67.7230  226.0810 C   0  0  0  0  0  0  0  0  0  0  0  0
  140.6540   67.7980  227.2800 C   0  0  0  0  0  0  0  0  0  0  0  0
  141.0990   68.9960  227.8140 C   0  0  0  0  0  0  0  0  0  0  0  0
  140.8220   70.1390  227.0720 C   0  0  0  0  0  0  0  0  0  0  0  0
  140.1320   70.0630  225.8610 C   0  0  0  0  0  0  0  0  0  0  0  0
  139.9000   71.3680  225.1760 C   0  0  0  0  0  0  0  0  0  0  0  0
  139.7260   73.2570  222.6940 N   0  0  0  0  0  0  0  0  0  0  0  0
  140.2160   74.0200  221.6740 C   0  0  0  0  0  0  0  0  0  0  0  0
  139.9980   75.4240  221.6140 N   0  0  0  0  0  0  0  0  0  0  0  0
  138.8280   76.0470  221.0830 C   0  0  0  0  0  0  0  0  0  0  0  0
  138.2390   77.0950  221.9990 C   0  0  0  0  0  0  0  0  0  0  0  0
  139.3050   78.0150  222.4470 C   0  0  0  0  0  0  0  0  0  0  0  0
  138.9590   79.3000  222.8170 C   0  0  0  0  0  0  0  0  0  0  0  0
  139.9500   80.1710  223.2480 C   0  0  0  0  0  0  0  0  0  0  0  0
  141.2710   79.8020  223.3220 C   0  0  0  0  0  0  0  0  0  0  0  0
  141.5830   78.5090  222.9440 C   0  0  0  0  0  0  0  0  0  0  0  0
  140.6370   77.6140  222.5110 C   0  0  0  0  0  0  0  0  0  0  0  0
  141.0610   76.2700  222.1340 C   0  0  0  0  0  0  0  0  0  0  0  0
  142.9820   75.0100  220.8150 H   0  0  0  0  0  0  0  0  0  0  0  0
  144.3772   75.3432  218.7098 H   0  0  0  0  0  0  0  0  0  0  0  0
  142.8237   75.4854  217.8021 H   0  0  0  0  0  0  0  0  0  0  0  0
  143.8688   77.3152  219.9643 H   0  0  0  0  0  0  0  0  0  0  0  0
  143.7014   77.6253  218.1528 H   0  0  0  0  0  0  0  0  0  0  0  0
  141.5736   77.3866  220.2254 H   0  0  0  0  0  0  0  0  0  0  0  0
  141.3384   76.8646  217.3959 H   0  0  0  0  0  0  0  0  0  0  0  0
  140.3794   76.3414  218.8221 H   0  0  0  0  0  0  0  0  0  0  0  0
  140.2764   78.9930  217.3300 H   0  0  0  0  0  0  0  0  0  0  0  0
  138.9480   77.8507  217.6308 H   0  0  0  0  0  0  0  0  0  0  0  0
  139.6370   78.1880  220.0580 H   0  0  0  0  0  0  0  0  0  0  0  0
  140.5536   80.7830  219.0572 H   0  0  0  0  0  0  0  0  0  0  0  0
  140.6877   80.0594  220.7107 H   0  0  0  0  0  0  0  0  0  0  0  0
  142.3259   79.6004  218.2685 H   0  0  0  0  0  0  0  0  0  0  0  0
  142.7694   79.5392  220.0173 H   0  0  0  0  0  0  0  0  0  0  0  0
  141.7491   71.4863  219.9463 H   0  0  0  0  0  0  0  0  0  0  0  0
  137.5637   70.3241  224.1808 H   0  0  0  0  0  0  0  0  0  0  0  0
  138.2946   70.0068  222.5362 H   0  0  0  0  0  0  0  0  0  0  0  0
  138.0986   68.0529  224.2188 H   0  0  0  0  0  0  0  0  0  0  0  0
  139.6297   68.2974  223.3086 H   0  0  0  0  0  0  0  0  0  0  0  0
  139.6447   66.7425  225.7058 H   0  0  0  0  0  0  0  0  0  0  0  0
  140.8511   66.8682  227.8337 H   0  0  0  0  0  0  0  0  0  0  0  0
  141.6406   69.0407  228.7704 H   0  0  0  0  0  0  0  0  0  0  0  0
  141.1522   71.1195  227.4457 H   0  0  0  0  0  0  0  0  0  0  0  0
  139.1399   71.9413  225.7270 H   0  0  0  0  0  0  0  0  0  0  0  0
  140.8399   71.9387  225.1465 H   0  0  0  0  0  0  0  0  0  0  0  0
  139.0906   76.5260  220.1282 H   0  0  0  0  0  0  0  0  0  0  0  0
  138.0691   75.2606  220.9581 H   0  0  0  0  0  0  0  0  0  0  0  0
  137.4682   77.6632  221.4578 H   0  0  0  0  0  0  0  0  0  0  0  0
  137.7874   76.6044  222.8738 H   0  0  0  0  0  0  0  0  0  0  0  0
  137.9104   79.6292  222.7706 H   0  0  0  0  0  0  0  0  0  0  0  0
  139.6675   81.1930  223.5407 H   0  0  0  0  0  0  0  0  0  0  0  0
  142.0455   80.5032  223.6663 H   0  0  0  0  0  0  0  0  0  0  0  0
  142.6329   78.1844  222.9924 H   0  0  0  0  0  0  0  0  0  0  0  0
  141.8379   76.3595  221.3604 H   0  0  0  0  0  0  0  0  0  0  0  0
  141.4223   75.7872  223.0540 H   0  0  0  0  0  0  0  0  0  0  0  0
  1  2  2  0
  2  3  1  0
  3  4  1  0
  4  5  1  0
  5  6  1  0
  6  7  1  0
  7  8  1  0
  8  9  1  0
  9 10  1  0
 10 11  1  0
  2 12  1  0
 12 13  2  0
 13 14  1  0
 14 15  2  0
 15 16  1  0
 16 17  1  0
 17 18  1  0
 18 19  1  0
 19 20  2  0
 20 21  1  0
 21 22  2  0
 22 23  1  0
 23 24  2  0
 24 25  1  0
 15 26  1  0
 26 27  2  0
 27 28  1  0
 28 29  1  0
 29 30  1  0
 30 31  1  0
 31 32  2  0
 32 33  1  0
 33 34  2  0
 34 35  1  0
 35 36  2  0
 36 37  1  0
 11  6  1  0
 27 12  1  0
 37 28  1  0
 25 16  1  0
 36 31  1  0
 24 19  1  0
  3 38  1  0
  4 39  1  0
  4 40  1  0
  5 41  1  0
  5 42  1  0
  6 43  1  0
  7 44  1  0
  7 45  1  0
  8 46  1  0
  8 47  1  0
  9 48  1  0
 10 49  1  0
 10 50  1  0
 11 51  1  0
 11 52  1  0
 13 53  1  0
 17 54  1  0
 17 55  1  0
 18 56  1  0
 18 57  1  0
 20 58  1  0
 21 59  1  0
 22 60  1  0
 23 61  1  0
 25 62  1  0
 25 63  1  0
 29 64  1  0
 29 65  1  0
 30 66  1  0
 30 67  1  0
 32 68  1  0
 33 69  1  0
 34 70  1  0
 35 71  1  0
 37 72  1  0
 37 73  1  0
M  END
>  <smiles>  (9) 
O=C(NCCC1CCNCC1)c1cnc(N2CCc3ccccc3C2)nc1N1CCc2ccccc2C1

>  <score_type>  (9) 
oracle

>  <origin>  (9) 
autodockgpu

>  <m_score__min__energy>  (9) 
-10.16

>  <m_primary>  (9) 
energy

>  <rmsd>  (9) 
5.40093747535341

>  <m_score__min__rmsd>  (9) 
5.40093747535341

>  <meeko>  (9) 
{"free_energy": -8.97, "intermolecular_energy": -10.76, "internal_energy": -2.7, "cluster_size": 38, "cluster_id": 1, "rank_in_cluster": 25}

>  <energy>  (9) 
-9.45

>  <cluster_rmsd>  (9) 
0.97

>  <cluster>  (9) 
1

$$$$

     RDKit          3D

 73 78  0  0  0  0  0  0  0  0999 V2000
  141.2740   73.5470  218.4250 O   0  0  0  0  0  0  0  0  0  0  0  0
  141.6200   73.8890  219.5870 C   0  0  0  0  0  0  0  0  0  0  0  0
  142.5800   74.9160  219.8450 N   0  0  0  0  0  0  0  0  0  0  0  0
  143.2510   75.6510  218.7870 C   0  0  0  0  0  0  0  0  0  0  0  0
  143.2750   77.1090  219.0930 C   0  0  0  0  0  0  0  0  0  0  0  0
  142.0880   77.8900  218.6350 C   0  0  0  0  0  0  0  0  0  0  0  0
  141.8160   79.1300  219.3980 C   0  0  0  0  0  0  0  0  0  0  0  0
  140.3320   79.3910  219.4230 C   0  0  0  0  0  0  0  0  0  0  0  0
  139.8300   79.1310  218.0690 N   0  0  0  0  0  0  0  0  0  0  0  0
  139.7180   77.6970  217.8750 C   0  0  0  0  0  0  0  0  0  0  0  0
  140.8860   76.9660  218.5000 C   0  0  0  0  0  0  0  0  0  0  0  0
  141.0300   73.2280  220.7520 C   0  0  0  0  0  0  0  0  0  0  0  0
  141.2720   71.8500  220.8370 C   0  0  0  0  0  0  0  0  0  0  0  0
  140.7440   71.2250  221.8970 N   0  0  0  0  0  0  0  0  0  0  0  0
  140.0210   71.8420  222.8420 C   0  0  0  0  0  0  0  0  0  0  0  0
  139.5150   71.0640  223.9410 N   0  0  0  0  0  0  0  0  0  0  0  0
  138.6370   69.9380  223.7570 C   0  0  0  0  0  0  0  0  0  0  0  0
  139.1840   68.6480  224.3170 C   0  0  0  0  0  0  0  0  0  0  0  0
  139.8410   68.9080  225.6150 C   0  0  0  0  0  0  0  0  0  0  0  0
  140.1490   67.8400  226.4300 C   0  0  0  0  0  0  0  0  0  0  0  0
  140.7590   68.0320  227.6550 C   0  0  0  0  0  0  0  0  0  0  0  0
  141.0950   69.2860  228.1360 C   0  0  0  0  0  0  0  0  0  0  0  0
  140.7850   70.3620  227.3120 C   0  0  0  0  0  0  0  0  0  0  0  0
  140.1680   70.1700  226.0750 C   0  0  0  0  0  0  0  0  0  0  0  0
  139.8880   71.4130  225.3000 C   0  0  0  0  0  0  0  0  0  0  0  0
  139.7980   73.1570  222.7470 N   0  0  0  0  0  0  0  0  0  0  0  0
  140.2910   73.8900  221.7070 C   0  0  0  0  0  0  0  0  0  0  0  0
  140.0630   75.2900  221.5980 N   0  0  0  0  0  0  0  0  0  0  0  0
  138.9260   75.8850  220.9740 C   0  0  0  0  0  0  0  0  0  0  0  0
  138.2640   76.9470  221.8230 C   0  0  0  0  0  0  0  0  0  0  0  0
  139.2860   77.8900  222.3200 C   0  0  0  0  0  0  0  0  0  0  0  0
  138.9010   79.1790  222.6350 C   0  0  0  0  0  0  0  0  0  0  0  0
  139.8520   80.0720  223.1120 C   0  0  0  0  0  0  0  0  0  0  0  0
  141.1670   79.7210  223.2850 C   0  0  0  0  0  0  0  0  0  0  0  0
  141.5190   78.4240  222.9600 C   0  0  0  0  0  0  0  0  0  0  0  0
  140.6150   77.5070  222.4860 C   0  0  0  0  0  0  0  0  0  0  0  0
  141.0780   76.1600  222.1700 C   0  0  0  0  0  0  0  0  0  0  0  0
  142.8050   75.1420  220.8650 H   0  0  0  0  0  0  0  0  0  0  0  0
  144.2839   75.2849  218.6918 H   0  0  0  0  0  0  0  0  0  0  0  0
  142.7032   75.4958  217.8458 H   0  0  0  0  0  0  0  0  0  0  0  0
  143.3533   77.2233  220.1842 H   0  0  0  0  0  0  0  0  0  0  0  0
  144.1324   77.5162  218.5371 H   0  0  0  0  0  0  0  0  0  0  0  0
  142.3302   78.2882  217.6386 H   0  0  0  0  0  0  0  0  0  0  0  0
  142.1852   79.0149  220.4278 H   0  0  0  0  0  0  0  0  0  0  0  0
  142.3283   79.9759  218.9164 H   0  0  0  0  0  0  0  0  0  0  0  0
  139.8420   78.7195  220.1434 H   0  0  0  0  0  0  0  0  0  0  0  0
  140.1196   80.4259  219.7294 H   0  0  0  0  0  0  0  0  0  0  0  0
  140.5960   79.4560  217.4260 H   0  0  0  0  0  0  0  0  0  0  0  0
  138.7848   77.3443  218.3384 H   0  0  0  0  0  0  0  0  0  0  0  0
  139.7171   77.4913  216.7944 H   0  0  0  0  0  0  0  0  0  0  0  0
  140.5943   76.6048  219.4972 H   0  0  0  0  0  0  0  0  0  0  0  0
  141.1609   76.1197  217.8533 H   0  0  0  0  0  0  0  0  0  0  0  0
  141.8607   71.3139  220.0780 H   0  0  0  0  0  0  0  0  0  0  0  0
  137.6817   70.1566  224.2565 H   0  0  0  0  0  0  0  0  0  0  0  0
  138.5188   69.7947  222.6728 H   0  0  0  0  0  0  0  0  0  0  0  0
  138.3603   67.9333  224.4607 H   0  0  0  0  0  0  0  0  0  0  0  0
  139.9187   68.2281  223.6142 H   0  0  0  0  0  0  0  0  0  0  0  0
  139.9055   66.8192  226.1003 H   0  0  0  0  0  0  0  0  0  0  0  0
  140.9872   67.1517  228.2738 H   0  0  0  0  0  0  0  0  0  0  0  0
  141.5794   69.4231  229.1140 H   0  0  0  0  0  0  0  0  0  0  0  0
  141.0304   71.3826  227.6408 H   0  0  0  0  0  0  0  0  0  0  0  0
  139.0635   71.9638  225.7763 H   0  0  0  0  0  0  0  0  0  0  0  0
  140.7890   72.0438  225.2818 H   0  0  0  0  0  0  0  0  0  0  0  0
  139.2479   76.3450  220.0280 H   0  0  0  0  0  0  0  0  0  0  0  0
  138.1861   75.0864  220.8165 H   0  0  0  0  0  0  0  0  0  0  0  0
  137.5257   77.4928  221.2172 H   0  0  0  0  0  0  0  0  0  0  0  0
  137.7593   76.4710  222.6766 H   0  0  0  0  0  0  0  0  0  0  0  0
  137.8546   79.4941  222.5096 H   0  0  0  0  0  0  0  0  0  0  0  0
  139.5397   81.0972  223.3599 H   0  0  0  0  0  0  0  0  0  0  0  0
  141.9082   80.4394  223.6653 H   0  0  0  0  0  0  0  0  0  0  0  0
  142.5669   78.1145  223.0867 H   0  0  0  0  0  0  0  0  0  0  0  0
  141.9054   76.2417  221.4498 H   0  0  0  0  0  0  0  0  0  0  0  0
  141.3798   75.7022  223.1236 H   0  0  0  0  0  0  0  0  0  0  0  0
  1  2  2  0
  2  3  1  0
  3  4  1  0
  4  5  1  0
  5  6  1  0
  6  7  1  0
  7  8  1  0
  8  9  1  0
  9 10  1  0
 10 11  1  0
  2 12  1  0
 12 13  2  0
 13 14  1  0
 14 15  2  0
 15 16  1  0
 16 17  1  0
 17 18  1  0
 18 19  1  0
 19 20  2  0
 20 21  1  0
 21 22  2  0
 22 23  1  0
 23 24  2  0
 24 25  1  0
 15 26  1  0
 26 27  2  0
 27 28  1  0
 28 29  1  0
 29 30  1  0
 30 31  1  0
 31 32  2  0
 32 33  1  0
 33 34  2  0
 34 35  1  0
 35 36  2  0
 36 37  1  0
 11  6  1  0
 27 12  1  0
 37 28  1  0
 25 16  1  0
 36 31  1  0
 24 19  1  0
  3 38  1  0
  4 39  1  0
  4 40  1  0
  5 41  1  0
  5 42  1  0
  6 43  1  0
  7 44  1  0
  7 45  1  0
  8 46  1  0
  8 47  1  0
  9 48  1  0
 10 49  1  0
 10 50  1  0
 11 51  1  0
 11 52  1  0
 13 53  1  0
 17 54  1  0
 17 55  1  0
 18 56  1  0
 18 57  1  0
 20 58  1  0
 21 59  1  0
 22 60  1  0
 23 61  1  0
 25 62  1  0
 25 63  1  0
 29 64  1  0
 29 65  1  0
 30 66  1  0
 30 67  1  0
 32 68  1  0
 33 69  1  0
 34 70  1  0
 35 71  1  0
 37 72  1  0
 37 73  1  0
M  END
>  <smiles>  (10) 
O=C(NCCC1CCNCC1)c1cnc(N2CCc3ccccc3C2)nc1N1CCc2ccccc2C1

>  <score_type>  (10) 
oracle

>  <origin>  (10) 
autodockgpu

>  <m_score__min__energy>  (10) 
-10.16

>  <m_primary>  (10) 
energy

>  <rmsd>  (10) 
5.298158257206297

>  <m_score__min__rmsd>  (10) 
5.298158257206297

>  <meeko>  (10) 
{"free_energy": -8.95, "intermolecular_energy": -10.74, "internal_energy": -2.48, "cluster_size": 38, "cluster_id": 1, "rank_in_cluster": 27}

>  <energy>  (10) 
-9.4

>  <cluster_rmsd>  (10) 
1.22

>  <cluster>  (10) 
1

$$$$

     RDKit          3D

 73 78  0  0  0  0  0  0  0  0999 V2000
  139.1480   69.7180  221.4210 O   0  0  0  0  0  0  0  0  0  0  0  0
  140.0200   70.4700  220.9110 C   0  0  0  0  0  0  0  0  0  0  0  0
  141.1150   69.9790  220.1340 N   0  0  0  0  0  0  0  0  0  0  0  0
  141.3240   68.5660  219.8720 C   0  0  0  0  0  0  0  0  0  0  0  0
  142.3530   68.3750  218.8100 C   0  0  0  0  0  0  0  0  0  0  0  0
  143.7650   68.2780  219.2830 C   0  0  0  0  0  0  0  0  0  0  0  0
  144.5130   69.5560  219.3030 C   0  0  0  0  0  0  0  0  0  0  0  0
  145.9710   69.2910  219.0270 C   0  0  0  0  0  0  0  0  0  0  0  0
  146.3450   68.1070  219.8090 N   0  0  0  0  0  0  0  0  0  0  0  0
  145.8550   66.9210  219.1300 C   0  0  0  0  0  0  0  0  0  0  0  0
  144.4770   67.1510  218.5480 C   0  0  0  0  0  0  0  0  0  0  0  0
  139.9400   71.9190  221.1000 C   0  0  0  0  0  0  0  0  0  0  0  0
  140.2040   72.6810  219.9540 C   0  0  0  0  0  0  0  0  0  0  0  0
  140.1340   74.0110  220.1030 N   0  0  0  0  0  0  0  0  0  0  0  0
  139.8330   74.6150  221.2610 C   0  0  0  0  0  0  0  0  0  0  0  0
  139.7780   76.0520  221.2930 N   0  0  0  0  0  0  0  0  0  0  0  0
  138.5490   76.7790  221.4780 C   0  0  0  0  0  0  0  0  0  0  0  0
  138.5590   77.6860  222.6840 C   0  0  0  0  0  0  0  0  0  0  0  0
  139.8730   78.3540  222.7920 C   0  0  0  0  0  0  0  0  0  0  0  0
  140.0020   79.4330  223.6400 C   0  0  0  0  0  0  0  0  0  0  0  0
  141.2070   80.0960  223.7720 C   0  0  0  0  0  0  0  0  0  0  0  0
  142.3450   79.7260  223.0740 C   0  0  0  0  0  0  0  0  0  0  0  0
  142.2130   78.6370  222.2200 C   0  0  0  0  0  0  0  0  0  0  0  0
  140.9950   77.9680  222.0850 C   0  0  0  0  0  0  0  0  0  0  0  0
  140.9980   76.8230  221.1300 C   0  0  0  0  0  0  0  0  0  0  0  0
  139.5850   73.8740  222.3460 N   0  0  0  0  0  0  0  0  0  0  0  0
  139.6290   72.5110  222.3030 C   0  0  0  0  0  0  0  0  0  0  0  0
  139.3630   71.7140  223.4510 N   0  0  0  0  0  0  0  0  0  0  0  0
  138.0940   71.1410  223.7700 C   0  0  0  0  0  0  0  0  0  0  0  0
  138.1700   69.6710  224.1130 C   0  0  0  0  0  0  0  0  0  0  0  0
  139.2380   69.4500  225.1080 C   0  0  0  0  0  0  0  0  0  0  0  0
  139.1480   68.3550  225.9450 C   0  0  0  0  0  0  0  0  0  0  0  0
  140.1510   68.1320  226.8790 C   0  0  0  0  0  0  0  0  0  0  0  0
  141.2370   68.9630  227.0030 C   0  0  0  0  0  0  0  0  0  0  0  0
  141.2960   70.0500  226.1500 C   0  0  0  0  0  0  0  0  0  0  0  0
  140.3290   70.3100  225.2120 C   0  0  0  0  0  0  0  0  0  0  0  0
  140.4780   71.4810  224.3550 C   0  0  0  0  0  0  0  0  0  0  0  0
  141.8020   70.6940  219.7360 H   0  0  0  0  0  0  0  0  0  0  0  0
  141.6621   68.0734  220.7956 H   0  0  0  0  0  0  0  0  0  0  0  0
  140.3760   68.1250  219.5302 H   0  0  0  0  0  0  0  0  0  0  0  0
  142.1132   67.4466  218.2710 H   0  0  0  0  0  0  0  0  0  0  0  0
  142.3089   69.2795  218.1855 H   0  0  0  0  0  0  0  0  0  0  0  0
  143.7288   68.0228  220.3524 H   0  0  0  0  0  0  0  0  0  0  0  0
  144.1103   70.2283  218.5311 H   0  0  0  0  0  0  0  0  0  0  0  0
  144.4073   70.0265  220.2916 H   0  0  0  0  0  0  0  0  0  0  0  0
  146.1242   69.0998  217.9546 H   0  0  0  0  0  0  0  0  0  0  0  0
  146.5882   70.1578  219.3058 H   0  0  0  0  0  0  0  0  0  0  0  0
  145.7950   68.1830  220.7020 H   0  0  0  0  0  0  0  0  0  0  0  0
  146.5487   66.6612  218.3168 H   0  0  0  0  0  0  0  0  0  0  0  0
  145.7906   66.1029  219.8626 H   0  0  0  0  0  0  0  0  0  0  0  0
  144.5736   67.4172  217.4851 H   0  0  0  0  0  0  0  0  0  0  0  0
  143.8877   66.2287  218.6579 H   0  0  0  0  0  0  0  0  0  0  0  0
  140.4538   72.2151  218.9893 H   0  0  0  0  0  0  0  0  0  0  0  0
  138.3699   77.3927  220.5829 H   0  0  0  0  0  0  0  0  0  0  0  0
  137.7555   76.0348  221.6408 H   0  0  0  0  0  0  0  0  0  0  0  0
  137.7702   78.4452  222.5775 H   0  0  0  0  0  0  0  0  0  0  0  0
  138.3770   77.0900  223.5904 H   0  0  0  0  0  0  0  0  0  0  0  0
  139.1315   79.7717  224.2210 H   0  0  0  0  0  0  0  0  0  0  0  0
  141.2651   80.9527  224.4595 H   0  0  0  0  0  0  0  0  0  0  0  0
  143.2982   80.2629  223.1889 H   0  0  0  0  0  0  0  0  0  0  0  0
  143.0836   78.2964  221.6403 H   0  0  0  0  0  0  0  0  0  0  0  0
  141.0553   77.2050  220.1001 H   0  0  0  0  0  0  0  0  0  0  0  0
  141.8673   76.1800  221.3320 H   0  0  0  0  0  0  0  0  0  0  0  0
  137.6749   71.6795  224.6328 H   0  0  0  0  0  0  0  0  0  0  0  0
  137.4608   71.2341  222.8754 H   0  0  0  0  0  0  0  0  0  0  0  0
  137.2069   69.3420  224.5304 H   0  0  0  0  0  0  0  0  0  0  0  0
  138.3928   69.0943  223.2032 H   0  0  0  0  0  0  0  0  0  0  0  0
  138.2921   67.6679  225.8726 H   0  0  0  0  0  0  0  0  0  0  0  0
  140.0728   67.2586  227.5431 H   0  0  0  0  0  0  0  0  0  0  0  0
  142.0245   68.7728  227.7471 H   0  0  0  0  0  0  0  0  0  0  0  0
  142.1537   70.7345  226.2267 H   0  0  0  0  0  0  0  0  0  0  0  0
  140.5886   72.3659  224.9990 H   0  0  0  0  0  0  0  0  0  0  0  0
  141.3589   71.2953  223.7229 H   0  0  0  0  0  0  0  0  0  0  0  0
  1  2  2  0
  2  3  1  0
  3  4  1  0
  4  5  1  0
  5  6  1  0
  6  7  1  0
  7  8  1  0
  8  9  1  0
  9 10  1  0
 10 11  1  0
  2 12  1  0
 12 13  2  0
 13 14  1  0
 14 15  2  0
 15 16  1  0
 16 17  1  0
 17 18  1  0
 18 19  1  0
 19 20  2  0
 20 21  1  0
 21 22  2  0
 22 23  1  0
 23 24  2  0
 24 25  1  0
 15 26  1  0
 26 27  2  0
 27 28  1  0
 28 29  1  0
 29 30  1  0
 30 31  1  0
 31 32  2  0
 32 33  1  0
 33 34  2  0
 34 35  1  0
 35 36  2  0
 36 37  1  0
 11  6  1  0
 27 12  1  0
 37 28  1  0
 25 16  1  0
 36 31  1  0
 24 19  1  0
  3 38  1  0
  4 39  1  0
  4 40  1  0
  5 41  1  0
  5 42  1  0
  6 43  1  0
  7 44  1  0
  7 45  1  0
  8 46  1  0
  8 47  1  0
  9 48  1  0
 10 49  1  0
 10 50  1  0
 11 51  1  0
 11 52  1  0
 13 53  1  0
 17 54  1  0
 17 55  1  0
 18 56  1  0
 18 57  1  0
 20 58  1  0
 21 59  1  0
 22 60  1  0
 23 61  1  0
 25 62  1  0
 25 63  1  0
 29 64  1  0
 29 65  1  0
 30 66  1  0
 30 67  1  0
 32 68  1  0
 33 69  1  0
 34 70  1  0
 35 71  1  0
 37 72  1  0
 37 73  1  0
M  END
>  <smiles>  (11) 
O=C(NCCC1CCNCC1)c1cnc(N2CCc3ccccc3C2)nc1N1CCc2ccccc2C1

>  <score_type>  (11) 
oracle

>  <origin>  (11) 
autodockgpu

>  <m_score__min__energy>  (11) 
-10.16

>  <m_primary>  (11) 
energy

>  <rmsd>  (11) 
8.973073537537463

>  <m_score__min__rmsd>  (11) 
8.973073537537463

>  <meeko>  (11) 
{"free_energy": -9.89, "intermolecular_energy": -11.68, "internal_energy": -1.05, "cluster_size": 2, "cluster_id": 4, "rank_in_cluster": 1}

>  <energy>  (11) 
-9.37

>  <cluster_rmsd>  (11) 
0.92

>  <cluster>  (11) 
1

$$$$

     RDKit          3D

 73 78  0  0  0  0  0  0  0  0999 V2000
  140.6910   70.2070  221.5790 O   0  0  0  0  0  0  0  0  0  0  0  0
  140.6850   71.0190  220.6160 C   0  0  0  0  0  0  0  0  0  0  0  0
  140.8240   70.6130  219.2520 N   0  0  0  0  0  0  0  0  0  0  0  0
  140.9940   69.2260  218.8570 C   0  0  0  0  0  0  0  0  0  0  0  0
  142.2650   69.0490  218.0970 C   0  0  0  0  0  0  0  0  0  0  0  0
  143.4730   68.7380  218.9150 C   0  0  0  0  0  0  0  0  0  0  0  0
  144.4330   69.8550  219.0740 C   0  0  0  0  0  0  0  0  0  0  0  0
  145.8320   69.3060  219.1860 C   0  0  0  0  0  0  0  0  0  0  0  0
  145.7640   68.1470  220.0830 N   0  0  0  0  0  0  0  0  0  0  0  0
  145.2270   67.0150  219.3500 C   0  0  0  0  0  0  0  0  0  0  0  0
  144.1030   67.4400  218.4300 C   0  0  0  0  0  0  0  0  0  0  0  0
  140.5290   72.4530  220.8670 C   0  0  0  0  0  0  0  0  0  0  0  0
  140.9410   73.2860  219.8180 C   0  0  0  0  0  0  0  0  0  0  0  0
  140.8040   74.6020  220.0250 N   0  0  0  0  0  0  0  0  0  0  0  0
  140.3100   75.1320  221.1520 C   0  0  0  0  0  0  0  0  0  0  0  0
  140.2020   76.5620  221.2520 N   0  0  0  0  0  0  0  0  0  0  0  0
  138.9530   77.2320  221.5060 C   0  0  0  0  0  0  0  0  0  0  0  0
  138.9670   78.0850  222.7500 C   0  0  0  0  0  0  0  0  0  0  0  0
  140.2580   78.7980  222.8500 C   0  0  0  0  0  0  0  0  0  0  0  0
  140.3740   79.8420  223.7420 C   0  0  0  0  0  0  0  0  0  0  0  0
  141.5570   80.5440  223.8680 C   0  0  0  0  0  0  0  0  0  0  0  0
  142.6850   80.2490  223.1210 C   0  0  0  0  0  0  0  0  0  0  0  0
  142.5670   79.1950  222.2220 C   0  0  0  0  0  0  0  0  0  0  0  0
  141.3720   78.4870  222.0930 C   0  0  0  0  0  0  0  0  0  0  0  0
  141.3870   77.3860  221.0870 C   0  0  0  0  0  0  0  0  0  0  0  0
  139.9220   74.3240  222.1440 N   0  0  0  0  0  0  0  0  0  0  0  0
  140.0180   72.9670  222.0370 C   0  0  0  0  0  0  0  0  0  0  0  0
  139.6040   72.0990  223.0860 N   0  0  0  0  0  0  0  0  0  0  0  0
  138.3390   71.4410  223.1490 C   0  0  0  0  0  0  0  0  0  0  0  0
  138.4460   69.9620  223.4410 C   0  0  0  0  0  0  0  0  0  0  0  0
  139.3340   69.7500  224.6020 C   0  0  0  0  0  0  0  0  0  0  0  0
  139.1680   68.6100  225.3640 C   0  0  0  0  0  0  0  0  0  0  0  0
  140.0030   68.3960  226.4530 C   0  0  0  0  0  0  0  0  0  0  0  0
  140.9950   69.2780  226.8020 C   0  0  0  0  0  0  0  0  0  0  0  0
  141.1340   70.4080  226.0180 C   0  0  0  0  0  0  0  0  0  0  0  0
  140.3330   70.6620  224.9330 C   0  0  0  0  0  0  0  0  0  0  0  0
  140.5560   71.8820  224.1640 C   0  0  0  0  0  0  0  0  0  0  0  0
  140.8000   71.3740  218.5030 H   0  0  0  0  0  0  0  0  0  0  0  0
  141.0200   68.5943  219.7571 H   0  0  0  0  0  0  0  0  0  0  0  0
  140.1516   68.9349  218.2123 H   0  0  0  0  0  0  0  0  0  0  0  0
  142.1194   68.2247  217.3833 H   0  0  0  0  0  0  0  0  0  0  0  0
  142.4674   70.0209  217.6232 H   0  0  0  0  0  0  0  0  0  0  0  0
  143.1298   68.5885  219.9493 H   0  0  0  0  0  0  0  0  0  0  0  0
  144.3693   70.5199  218.2000 H   0  0  0  0  0  0  0  0  0  0  0  0
  144.1881   70.4207  219.9851 H   0  0  0  0  0  0  0  0  0  0  0  0
  146.1976   68.9970  218.1956 H   0  0  0  0  0  0  0  0  0  0  0  0
  146.5236   70.0668  219.5771 H   0  0  0  0  0  0  0  0  0  0  0  0
  145.0420   68.4010  220.8040 H   0  0  0  0  0  0  0  0  0  0  0  0
  146.0303   66.5630  218.7496 H   0  0  0  0  0  0  0  0  0  0  0  0
  144.8279   66.2896  220.0743 H   0  0  0  0  0  0  0  0  0  0  0  0
  144.5030   67.5894  217.4162 H   0  0  0  0  0  0  0  0  0  0  0  0
  143.3337   66.6537  218.4245 H   0  0  0  0  0  0  0  0  0  0  0  0
  141.3523   72.8830  218.8807 H   0  0  0  0  0  0  0  0  0  0  0  0
  138.7229   77.8767  220.6449 H   0  0  0  0  0  0  0  0  0  0  0  0
  138.1935   76.4511  221.6590 H   0  0  0  0  0  0  0  0  0  0  0  0
  138.1476   78.8173  222.7006 H   0  0  0  0  0  0  0  0  0  0  0  0
  138.8356   77.4431  223.6336 H   0  0  0  0  0  0  0  0  0  0  0  0
  139.5105   80.1209  224.3638 H   0  0  0  0  0  0  0  0  0  0  0  0
  141.6049   81.3713  224.5914 H   0  0  0  0  0  0  0  0  0  0  0  0
  143.6209   80.8161  223.2325 H   0  0  0  0  0  0  0  0  0  0  0  0
  143.4310   78.9145  221.6017 H   0  0  0  0  0  0  0  0  0  0  0  0
  141.3969   77.8151  220.0742 H   0  0  0  0  0  0  0  0  0  0  0  0
  142.2857   76.7687  221.2330 H   0  0  0  0  0  0  0  0  0  0  0  0
  137.7407   71.9109  223.9435 H   0  0  0  0  0  0  0  0  0  0  0  0
  137.8698   71.5437  222.1594 H   0  0  0  0  0  0  0  0  0  0  0  0
  137.4471   69.5598  223.6657 H   0  0  0  0  0  0  0  0  0  0  0  0
  138.8617   69.4452  222.5635 H   0  0  0  0  0  0  0  0  0  0  0  0
  138.3842   67.8807  225.1115 H   0  0  0  0  0  0  0  0  0  0  0  0
  139.8644   67.4874  227.0573 H   0  0  0  0  0  0  0  0  0  0  0  0
  141.6498   69.0940  227.6665 H   0  0  0  0  0  0  0  0  0  0  0  0
  141.9196   71.1340  226.2746 H   0  0  0  0  0  0  0  0  0  0  0  0
  140.4960   72.7377  224.8526 H   0  0  0  0  0  0  0  0  0  0  0  0
  141.5441   71.7776  223.6920 H   0  0  0  0  0  0  0  0  0  0  0  0
  1  2  2  0
  2  3  1  0
  3  4  1  0
  4  5  1  0
  5  6  1  0
  6  7  1  0
  7  8  1  0
  8  9  1  0
  9 10  1  0
 10 11  1  0
  2 12  1  0
 12 13  2  0
 13 14  1  0
 14 15  2  0
 15 16  1  0
 16 17  1  0
 17 18  1  0
 18 19  1  0
 19 20  2  0
 20 21  1  0
 21 22  2  0
 22 23  1  0
 23 24  2  0
 24 25  1  0
 15 26  1  0
 26 27  2  0
 27 28  1  0
 28 29  1  0
 29 30  1  0
 30 31  1  0
 31 32  2  0
 32 33  1  0
 33 34  2  0
 34 35  1  0
 35 36  2  0
 36 37  1  0
 11  6  1  0
 27 12  1  0
 37 28  1  0
 25 16  1  0
 36 31  1  0
 24 19  1  0
  3 38  1  0
  4 39  1  0
  4 40  1  0
  5 41  1  0
  5 42  1  0
  6 43  1  0
  7 44  1  0
  7 45  1  0
  8 46  1  0
  8 47  1  0
  9 48  1  0
 10 49  1  0
 10 50  1  0
 11 51  1  0
 11 52  1  0
 13 53  1  0
 17 54  1  0
 17 55  1  0
 18 56  1  0
 18 57  1  0
 20 58  1  0
 21 59  1  0
 22 60  1  0
 23 61  1  0
 25 62  1  0
 25 63  1  0
 29 64  1  0
 29 65  1  0
 30 66  1  0
 30 67  1  0
 32 68  1  0
 33 69  1  0
 34 70  1  0
 35 71  1  0
 37 72  1  0
 37 73  1  0
M  END
>  <smiles>  (12) 
O=C(NCCC1CCNCC1)c1cnc(N2CCc3ccccc3C2)nc1N1CCc2ccccc2C1

>  <score_type>  (12) 
oracle

>  <origin>  (12) 
autodockgpu

>  <m_score__min__energy>  (12) 
-10.16

>  <m_primary>  (12) 
energy

>  <rmsd>  (12) 
8.566512741658826

>  <m_score__min__rmsd>  (12) 
8.566512741658826

>  <meeko>  (12) 
{"free_energy": -9.58, "intermolecular_energy": -11.37, "internal_energy": -1.12, "cluster_size": 2, "cluster_id": 4, "rank_in_cluster": 2}

>  <energy>  (12) 
-9.35

>  <cluster_rmsd>  (12) 
1.24

>  <cluster>  (12) 
1

$$$$

     RDKit          3D

 73 78  0  0  0  0  0  0  0  0999 V2000
  141.1940   74.0990  218.4600 O   0  0  0  0  0  0  0  0  0  0  0  0
  141.5910   74.3020  219.6370 C   0  0  0  0  0  0  0  0  0  0  0  0
  142.6270   75.2330  219.9610 N   0  0  0  0  0  0  0  0  0  0  0  0
  143.3200   76.0220  218.9580 C   0  0  0  0  0  0  0  0  0  0  0  0
  142.9580   77.4630  219.0820 C   0  0  0  0  0  0  0  0  0  0  0  0
  141.4970   77.7680  219.0970 C   0  0  0  0  0  0  0  0  0  0  0  0
  140.7280   77.2280  217.9510 C   0  0  0  0  0  0  0  0  0  0  0  0
  139.5810   78.1520  217.6350 C   0  0  0  0  0  0  0  0  0  0  0  0
  138.9820   78.5430  218.9170 N   0  0  0  0  0  0  0  0  0  0  0  0
  139.8150   79.5580  219.5360 C   0  0  0  0  0  0  0  0  0  0  0  0
  141.2850   79.2540  219.3460 C   0  0  0  0  0  0  0  0  0  0  0  0
  140.9880   73.5690  220.7510 C   0  0  0  0  0  0  0  0  0  0  0  0
  141.2310   72.1890  220.7550 C   0  0  0  0  0  0  0  0  0  0  0  0
  140.6900   71.5000  221.7680 N   0  0  0  0  0  0  0  0  0  0  0  0
  139.9540   72.0570  222.7380 C   0  0  0  0  0  0  0  0  0  0  0  0
  139.4350   71.2120  223.7800 N   0  0  0  0  0  0  0  0  0  0  0  0
  138.3570   70.2830  223.5640 C   0  0  0  0  0  0  0  0  0  0  0  0
  138.7210   68.8520  223.8740 C   0  0  0  0  0  0  0  0  0  0  0  0
  139.5450   68.8030  225.1000 C   0  0  0  0  0  0  0  0  0  0  0  0
  139.7420   67.5880  225.7210 C   0  0  0  0  0  0  0  0  0  0  0  0
  140.4990   67.4910  226.8720 C   0  0  0  0  0  0  0  0  0  0  0  0
  141.1010   68.5870  227.4670 C   0  0  0  0  0  0  0  0  0  0  0  0
  140.9020   69.8120  226.8390 C   0  0  0  0  0  0  0  0  0  0  0  0
  140.1360   69.9110  225.6770 C   0  0  0  0  0  0  0  0  0  0  0  0
  140.0020   71.2860  225.1150 C   0  0  0  0  0  0  0  0  0  0  0  0
  139.7290   73.3750  222.7210 N   0  0  0  0  0  0  0  0  0  0  0  0
  140.2340   74.1710  221.7340 C   0  0  0  0  0  0  0  0  0  0  0  0
  140.0050   75.5740  221.7090 N   0  0  0  0  0  0  0  0  0  0  0  0
  138.8140   76.1980  221.2290 C   0  0  0  0  0  0  0  0  0  0  0  0
  138.2480   77.2240  222.1850 C   0  0  0  0  0  0  0  0  0  0  0  0
  139.3210   78.1430  222.6150 C   0  0  0  0  0  0  0  0  0  0  0  0
  138.9780   79.4180  223.0220 C   0  0  0  0  0  0  0  0  0  0  0  0
  139.9770   80.2880  223.4370 C   0  0  0  0  0  0  0  0  0  0  0  0
  141.3020   79.9280  223.4600 C   0  0  0  0  0  0  0  0  0  0  0  0
  141.6100   78.6450  223.0460 C   0  0  0  0  0  0  0  0  0  0  0  0
  140.6580   77.7510  222.6280 C   0  0  0  0  0  0  0  0  0  0  0  0
  141.0780   76.4180  222.2100 C   0  0  0  0  0  0  0  0  0  0  0  0
  142.8920   75.3420  220.9910 H   0  0  0  0  0  0  0  0  0  0  0  0
  144.4055   75.9088  219.0955 H   0  0  0  0  0  0  0  0  0  0  0  0
  143.0238   75.6664  217.9601 H   0  0  0  0  0  0  0  0  0  0  0  0
  143.3909   77.8399  220.0204 H   0  0  0  0  0  0  0  0  0  0  0  0
  143.3548   77.9490  218.1785 H   0  0  0  0  0  0  0  0  0  0  0  0
  141.0606   77.2128  219.9404 H   0  0  0  0  0  0  0  0  0  0  0  0
  141.3862   77.1473  217.0734 H   0  0  0  0  0  0  0  0  0  0  0  0
  140.3365   76.2329  218.2089 H   0  0  0  0  0  0  0  0  0  0  0  0
  139.9478   79.0416  217.1020 H   0  0  0  0  0  0  0  0  0  0  0  0
  138.8412   77.6548  216.9904 H   0  0  0  0  0  0  0  0  0  0  0  0
  139.0580   77.6890  219.5260 H   0  0  0  0  0  0  0  0  0  0  0  0
  139.5891   80.5335  219.0806 H   0  0  0  0  0  0  0  0  0  0  0  0
  139.6002   79.5728  220.6147 H   0  0  0  0  0  0  0  0  0  0  0  0
  141.6632   79.8226  218.4836 H   0  0  0  0  0  0  0  0  0  0  0  0
  141.8273   79.5414  220.2588 H   0  0  0  0  0  0  0  0  0  0  0  0
  141.8305   71.7006  219.9726 H   0  0  0  0  0  0  0  0  0  0  0  0
  137.5131   70.5741  224.2067 H   0  0  0  0  0  0  0  0  0  0  0  0
  138.1032   70.3267  222.4946 H   0  0  0  0  0  0  0  0  0  0  0  0
  137.8028   68.2658  224.0267 H   0  0  0  0  0  0  0  0  0  0  0  0
  139.2922   68.4307  223.0336 H   0  0  0  0  0  0  0  0  0  0  0  0
  139.2891   66.6815  225.2929 H   0  0  0  0  0  0  0  0  0  0  0  0
  140.6292   66.5019  227.3355 H   0  0  0  0  0  0  0  0  0  0  0  0
  141.7020   68.4941  228.3836 H   0  0  0  0  0  0  0  0  0  0  0  0
  141.3563   70.7183  227.2658 H   0  0  0  0  0  0  0  0  0  0  0  0
  139.3415   71.8830  225.7610 H   0  0  0  0  0  0  0  0  0  0  0  0
  140.9937   71.7594  225.0657 H   0  0  0  0  0  0  0  0  0  0  0  0
  139.0416   76.6975  220.2757 H   0  0  0  0  0  0  0  0  0  0  0  0
  138.0569   75.4084  221.1135 H   0  0  0  0  0  0  0  0  0  0  0  0
  137.4554   77.7965  221.6809 H   0  0  0  0  0  0  0  0  0  0  0  0
  137.8294   76.7130  223.0646 H   0  0  0  0  0  0  0  0  0  0  0  0
  137.9261   79.7398  223.0173 H   0  0  0  0  0  0  0  0  0  0  0  0
  139.6972   81.3020  223.7589 H   0  0  0  0  0  0  0  0  0  0  0  0
  142.0826   80.6281  223.7925 H   0  0  0  0  0  0  0  0  0  0  0  0
  142.6634   78.3282  223.0523 H   0  0  0  0  0  0  0  0  0  0  0  0
  141.8278   76.5289  221.4129 H   0  0  0  0  0  0  0  0  0  0  0  0
  141.4727   75.9199  223.1078 H   0  0  0  0  0  0  0  0  0  0  0  0
  1  2  2  0
  2  3  1  0
  3  4  1  0
  4  5  1  0
  5  6  1  0
  6  7  1  0
  7  8  1  0
  8  9  1  0
  9 10  1  0
 10 11  1  0
  2 12  1  0
 12 13  2  0
 13 14  1  0
 14 15  2  0
 15 16  1  0
 16 17  1  0
 17 18  1  0
 18 19  1  0
 19 20  2  0
 20 21  1  0
 21 22  2  0
 22 23  1  0
 23 24  2  0
 24 25  1  0
 15 26  1  0
 26 27  2  0
 27 28  1  0
 28 29  1  0
 29 30  1  0
 30 31  1  0
 31 32  2  0
 32 33  1  0
 33 34  2  0
 34 35  1  0
 35 36  2  0
 36 37  1  0
 11  6  1  0
 27 12  1  0
 37 28  1  0
 25 16  1  0
 36 31  1  0
 24 19  1  0
  3 38  1  0
  4 39  1  0
  4 40  1  0
  5 41  1  0
  5 42  1  0
  6 43  1  0
  7 44  1  0
  7 45  1  0
  8 46  1  0
  8 47  1  0
  9 48  1  0
 10 49  1  0
 10 50  1  0
 11 51  1  0
 11 52  1  0
 13 53  1  0
 17 54  1  0
 17 55  1  0
 18 56  1  0
 18 57  1  0
 20 58  1  0
 21 59  1  0
 22 60  1  0
 23 61  1  0
 25 62  1  0
 25 63  1  0
 29 64  1  0
 29 65  1  0
 30 66  1  0
 30 67  1  0
 32 68  1  0
 33 69  1  0
 34 70  1  0
 35 71  1  0
 37 72  1  0
 37 73  1  0
M  END
>  <smiles>  (13) 
O=C(NCCC1CCNCC1)c1cnc(N2CCc3ccccc3C2)nc1N1CCc2ccccc2C1

>  <score_type>  (13) 
oracle

>  <origin>  (13) 
autodockgpu

>  <m_score__min__energy>  (13) 
-10.16

>  <m_primary>  (13) 
energy

>  <rmsd>  (13) 
5.196472008558086

>  <m_score__min__rmsd>  (13) 
5.196472008558086

>  <meeko>  (13) 
{"free_energy": -9.11, "intermolecular_energy": -10.9, "internal_energy": -2.58, "cluster_size": 38, "cluster_id": 1, "rank_in_cluster": 17}

>  <energy>  (13) 
-9.27

>  <cluster_rmsd>  (13) 
1.02

>  <cluster>  (13) 
1

$$$$

     RDKit          3D

 73 78  0  0  0  0  0  0  0  0999 V2000
  141.4790   74.0920  218.5460 O   0  0  0  0  0  0  0  0  0  0  0  0
  141.8180   74.3060  219.7390 C   0  0  0  0  0  0  0  0  0  0  0  0
  142.8100   75.2670  220.1080 N   0  0  0  0  0  0  0  0  0  0  0  0
  143.5240   76.0760  219.1360 C   0  0  0  0  0  0  0  0  0  0  0  0
  142.9140   77.4320  219.0310 C   0  0  0  0  0  0  0  0  0  0  0  0
  141.4290   77.4660  218.8850 C   0  0  0  0  0  0  0  0  0  0  0  0
  140.9080   76.9300  217.6060 C   0  0  0  0  0  0  0  0  0  0  0  0
  139.6460   77.6640  217.2290 C   0  0  0  0  0  0  0  0  0  0  0  0
  138.8470   77.7940  218.4520 N   0  0  0  0  0  0  0  0  0  0  0  0
  139.3970   78.8660  219.2630 C   0  0  0  0  0  0  0  0  0  0  0  0
  140.9090   78.8530  219.2370 C   0  0  0  0  0  0  0  0  0  0  0  0
  141.1860   73.5570  220.8270 C   0  0  0  0  0  0  0  0  0  0  0  0
  141.4870   72.1890  220.8560 C   0  0  0  0  0  0  0  0  0  0  0  0
  140.9210   71.4850  221.8450 N   0  0  0  0  0  0  0  0  0  0  0  0
  140.1110   72.0170  222.7700 C   0  0  0  0  0  0  0  0  0  0  0  0
  139.5720   71.1580  223.7910 N   0  0  0  0  0  0  0  0  0  0  0  0
  138.6560   70.0870  223.5020 C   0  0  0  0  0  0  0  0  0  0  0  0
  139.1530   68.7320  223.9400 C   0  0  0  0  0  0  0  0  0  0  0  0
  139.8130   68.8460  225.2580 C   0  0  0  0  0  0  0  0  0  0  0  0
  140.0790   67.6970  225.9700 C   0  0  0  0  0  0  0  0  0  0  0  0
  140.6890   67.7520  227.2090 C   0  0  0  0  0  0  0  0  0  0  0  0
  141.0680   68.9430  227.8050 C   0  0  0  0  0  0  0  0  0  0  0  0
  140.7990   70.1020  227.0840 C   0  0  0  0  0  0  0  0  0  0  0  0
  140.1820   70.0470  225.8340 C   0  0  0  0  0  0  0  0  0  0  0  0
  139.9500   71.3660  225.1770 C   0  0  0  0  0  0  0  0  0  0  0  0
  139.8330   73.3240  222.7280 N   0  0  0  0  0  0  0  0  0  0  0  0
  140.3570   74.1330  221.7620 C   0  0  0  0  0  0  0  0  0  0  0  0
  140.0700   75.5260  221.7120 N   0  0  0  0  0  0  0  0  0  0  0  0
  138.8580   76.0920  221.2130 C   0  0  0  0  0  0  0  0  0  0  0  0
  138.2440   77.1100  222.1470 C   0  0  0  0  0  0  0  0  0  0  0  0
  139.2750   78.0790  222.5680 C   0  0  0  0  0  0  0  0  0  0  0  0
  138.8770   79.3460  222.9510 C   0  0  0  0  0  0  0  0  0  0  0  0
  139.8370   80.2630  223.3580 C   0  0  0  0  0  0  0  0  0  0  0  0
  141.1740   79.9570  223.3970 C   0  0  0  0  0  0  0  0  0  0  0  0
  141.5380   78.6820  223.0080 C   0  0  0  0  0  0  0  0  0  0  0  0
  140.6260   77.7420  222.5980 C   0  0  0  0  0  0  0  0  0  0  0  0
  141.1040   76.4210  222.2060 C   0  0  0  0  0  0  0  0  0  0  0  0
  143.0260   75.3840  221.1480 H   0  0  0  0  0  0  0  0  0  0  0  0
  144.5736   76.1753  219.4498 H   0  0  0  0  0  0  0  0  0  0  0  0
  143.4648   75.5840  218.1539 H   0  0  0  0  0  0  0  0  0  0  0  0
  143.1767   77.9917  219.9408 H   0  0  0  0  0  0  0  0  0  0  0  0
  143.3156   77.8697  218.1052 H   0  0  0  0  0  0  0  0  0  0  0  0
  141.0185   76.7498  219.6120 H   0  0  0  0  0  0  0  0  0  0  0  0
  141.6617   77.0678  216.8168 H   0  0  0  0  0  0  0  0  0  0  0  0
  140.6880   75.8583  217.7206 H   0  0  0  0  0  0  0  0  0  0  0  0
  139.8920   78.6593  216.8304 H   0  0  0  0  0  0  0  0  0  0  0  0
  139.0905   77.1184  216.4520 H   0  0  0  0  0  0  0  0  0  0  0  0
  139.0170   76.9040  218.9870 H   0  0  0  0  0  0  0  0  0  0  0  0
  139.0400   79.8304  218.8724 H   0  0  0  0  0  0  0  0  0  0  0  0
  139.0659   78.7209  220.3019 H   0  0  0  0  0  0  0  0  0  0  0  0
  141.2635   79.5732  218.4849 H   0  0  0  0  0  0  0  0  0  0  0  0
  141.2823   79.1282  220.2344 H   0  0  0  0  0  0  0  0  0  0  0  0
  142.1482   71.7214  220.1116 H   0  0  0  0  0  0  0  0  0  0  0  0
  137.7067   70.2926  224.0182 H   0  0  0  0  0  0  0  0  0  0  0  0
  138.5386   70.0494  222.4089 H   0  0  0  0  0  0  0  0  0  0  0  0
  138.3032   68.0376  224.0153 H   0  0  0  0  0  0  0  0  0  0  0  0
  139.8754   68.3528  223.2022 H   0  0  0  0  0  0  0  0  0  0  0  0
  139.8016   66.7207  225.5459 H   0  0  0  0  0  0  0  0  0  0  0  0
  140.8814   66.8103  227.7440 H   0  0  0  0  0  0  0  0  0  0  0  0
  141.5537   68.9711  228.7915 H   0  0  0  0  0  0  0  0  0  0  0  0
  141.0776   71.0785  227.5068 H   0  0  0  0  0  0  0  0  0  0  0  0
  139.1430   71.8993  225.7008 H   0  0  0  0  0  0  0  0  0  0  0  0
  140.8728   71.9632  225.2191 H   0  0  0  0  0  0  0  0  0  0  0  0
  139.0719   76.5838  220.2526 H   0  0  0  0  0  0  0  0  0  0  0  0
  138.1347   75.2702  221.1061 H   0  0  0  0  0  0  0  0  0  0  0  0
  137.4325   77.6409  221.6278 H   0  0  0  0  0  0  0  0  0  0  0  0
  137.8403   76.5974  223.0326 H   0  0  0  0  0  0  0  0  0  0  0  0
  137.8130   79.6245  222.9336 H   0  0  0  0  0  0  0  0  0  0  0  0
  139.5143   81.2703  223.6598 H   0  0  0  0  0  0  0  0  0  0  0  0
  141.9227   80.6938  223.7234 H   0  0  0  0  0  0  0  0  0  0  0  0
  142.6034   78.4090  223.0278 H   0  0  0  0  0  0  0  0  0  0  0  0
  141.8549   76.5492  221.4124 H   0  0  0  0  0  0  0  0  0  0  0  0
  141.5125   75.9546  223.1146 H   0  0  0  0  0  0  0  0  0  0  0  0
  1  2  2  0
  2  3  1  0
  3  4  1  0
  4  5  1  0
  5  6  1  0
  6  7  1  0
  7  8  1  0
  8  9  1  0
  9 10  1  0
 10 11  1  0
  2 12  1  0
 12 13  2  0
 13 14  1  0
 14 15  2  0
 15 16  1  0
 16 17  1  0
 17 18  1  0
 18 19  1  0
 19 20  2  0
 20 21  1  0
 21 22  2  0
 22 23  1  0
 23 24  2  0
 24 25  1  0
 15 26  1  0
 26 27  2  0
 27 28  1  0
 28 29  1  0
 29 30  1  0
 30 31  1  0
 31 32  2  0
 32 33  1  0
 33 34  2  0
 34 35  1  0
 35 36  2  0
 36 37  1  0
 11  6  1  0
 27 12  1  0
 37 28  1  0
 25 16  1  0
 36 31  1  0
 24 19  1  0
  3 38  1  0
  4 39  1  0
  4 40  1  0
  5 41  1  0
  5 42  1  0
  6 43  1  0
  7 44  1  0
  7 45  1  0
  8 46  1  0
  8 47  1  0
  9 48  1  0
 10 49  1  0
 10 50  1  0
 11 51  1  0
 11 52  1  0
 13 53  1  0
 17 54  1  0
 17 55  1  0
 18 56  1  0
 18 57  1  0
 20 58  1  0
 21 59  1  0
 22 60  1  0
 23 61  1  0
 25 62  1  0
 25 63  1  0
 29 64  1  0
 29 65  1  0
 30 66  1  0
 30 67  1  0
 32 68  1  0
 33 69  1  0
 34 70  1  0
 35 71  1  0
 37 72  1  0
 37 73  1  0
M  END
>  <smiles>  (14) 
O=C(NCCC1CCNCC1)c1cnc(N2CCc3ccccc3C2)nc1N1CCc2ccccc2C1

>  <score_type>  (14) 
oracle

>  <origin>  (14) 
autodockgpu

>  <m_score__min__energy>  (14) 
-10.16

>  <m_primary>  (14) 
energy

>  <rmsd>  (14) 
5.04760184969898

>  <m_score__min__rmsd>  (14) 
5.04760184969898

>  <meeko>  (14) 
{"free_energy": -9.12, "intermolecular_energy": -10.91, "internal_energy": -2.49, "cluster_size": 38, "cluster_id": 1, "rank_in_cluster": 16}

>  <energy>  (14) 
-9.22

>  <cluster_rmsd>  (14) 
1.09

>  <cluster>  (14) 
1

$$$$

     RDKit          3D

 73 78  0  0  0  0  0  0  0  0999 V2000
  143.4410   74.8390  220.2150 O   0  0  0  0  0  0  0  0  0  0  0  0
  142.1850   74.7860  220.1410 C   0  0  0  0  0  0  0  0  0  0  0  0
  141.4300   75.5070  219.1640 N   0  0  0  0  0  0  0  0  0  0  0  0
  142.0460   76.3740  218.1750 C   0  0  0  0  0  0  0  0  0  0  0  0
  142.5190   77.6390  218.8070 C   0  0  0  0  0  0  0  0  0  0  0  0
  141.5610   78.7830  218.7680 C   0  0  0  0  0  0  0  0  0  0  0  0
  142.0580   80.0430  219.3670 C   0  0  0  0  0  0  0  0  0  0  0  0
  140.9050   80.8060  219.9670 C   0  0  0  0  0  0  0  0  0  0  0  0
  139.8000   80.7330  219.0050 N   0  0  0  0  0  0  0  0  0  0  0  0
  139.1730   79.4270  219.1050 C   0  0  0  0  0  0  0  0  0  0  0  0
  140.2040   78.3360  219.2940 C   0  0  0  0  0  0  0  0  0  0  0  0
  141.4290   73.9560  221.0810 C   0  0  0  0  0  0  0  0  0  0  0  0
  141.8020   72.6060  221.1100 C   0  0  0  0  0  0  0  0  0  0  0  0
  141.1250   71.8280  221.9660 N   0  0  0  0  0  0  0  0  0  0  0  0
  140.1440   72.2750  222.7620 C   0  0  0  0  0  0  0  0  0  0  0  0
  139.4980   71.3440  223.6480 N   0  0  0  0  0  0  0  0  0  0  0  0
  138.5130   70.3960  223.1960 C   0  0  0  0  0  0  0  0  0  0  0  0
  138.8840   68.9610  223.4740 C   0  0  0  0  0  0  0  0  0  0  0  0
  139.4950   68.8560  224.8150 C   0  0  0  0  0  0  0  0  0  0  0  0
  139.6400   67.6090  225.3840 C   0  0  0  0  0  0  0  0  0  0  0  0
  140.2000   67.4590  226.6380 C   0  0  0  0  0  0  0  0  0  0  0  0
  140.6450   68.5310  227.3930 C   0  0  0  0  0  0  0  0  0  0  0  0
  140.4990   69.7880  226.8170 C   0  0  0  0  0  0  0  0  0  0  0  0
  139.9320   69.9410  225.5510 C   0  0  0  0  0  0  0  0  0  0  0  0
  139.8320   71.3460  225.0610 C   0  0  0  0  0  0  0  0  0  0  0  0
  139.8000   73.5660  222.7220 N   0  0  0  0  0  0  0  0  0  0  0  0
  140.4250   74.4450  221.8860 C   0  0  0  0  0  0  0  0  0  0  0  0
  140.0690   75.8210  221.8390 N   0  0  0  0  0  0  0  0  0  0  0  0
  138.8100   76.3240  221.3920 C   0  0  0  0  0  0  0  0  0  0  0  0
  138.1890   77.3190  222.3460 C   0  0  0  0  0  0  0  0  0  0  0  0
  139.1900   78.3410  222.7140 C   0  0  0  0  0  0  0  0  0  0  0  0
  138.7480   79.5900  223.1060 C   0  0  0  0  0  0  0  0  0  0  0  0
  139.6790   80.5560  223.4620 C   0  0  0  0  0  0  0  0  0  0  0  0
  141.0310   80.3160  223.4420 C   0  0  0  0  0  0  0  0  0  0  0  0
  141.4390   79.0570  223.0450 C   0  0  0  0  0  0  0  0  0  0  0  0
  140.5560   78.0700  222.6840 C   0  0  0  0  0  0  0  0  0  0  0  0
  141.0800   76.7700  222.2800 C   0  0  0  0  0  0  0  0  0  0  0  0
  140.3680   75.3940  219.1750 H   0  0  0  0  0  0  0  0  0  0  0  0
  142.9029   75.8539  217.7221 H   0  0  0  0  0  0  0  0  0  0  0  0
  141.2996   76.6199  217.4053 H   0  0  0  0  0  0  0  0  0  0  0  0
  142.7460   77.4248  219.8618 H   0  0  0  0  0  0  0  0  0  0  0  0
  143.3907   77.9594  218.2176 H   0  0  0  0  0  0  0  0  0  0  0  0
  141.4439   79.0677  217.7120 H   0  0  0  0  0  0  0  0  0  0  0  0
  142.7917   79.8104  220.1528 H   0  0  0  0  0  0  0  0  0  0  0  0
  142.5353   80.6550  218.5875 H   0  0  0  0  0  0  0  0  0  0  0  0
  140.6058   80.3501  220.9223 H   0  0  0  0  0  0  0  0  0  0  0  0
  141.1852   81.8508  220.1666 H   0  0  0  0  0  0  0  0  0  0  0  0
  140.2570   80.7680  218.0580 H   0  0  0  0  0  0  0  0  0  0  0  0
  138.4862   79.4239  219.9643 H   0  0  0  0  0  0  0  0  0  0  0  0
  138.6272   79.2311  218.1703 H   0  0  0  0  0  0  0  0  0  0  0  0
  140.2908   78.1025  220.3654 H   0  0  0  0  0  0  0  0  0  0  0  0
  139.8833   77.4448  218.7347 H   0  0  0  0  0  0  0  0  0  0  0  0
  142.6024   72.2084  220.4688 H   0  0  0  0  0  0  0  0  0  0  0  0
  137.5619   70.6139  223.7038 H   0  0  0  0  0  0  0  0  0  0  0  0
  138.4385   70.5042  222.1039 H   0  0  0  0  0  0  0  0  0  0  0  0
  137.9802   68.3352  223.4338 H   0  0  0  0  0  0  0  0  0  0  0  0
  139.6047   68.6177  222.7172 H   0  0  0  0  0  0  0  0  0  0  0  0
  139.3046   66.7193  224.8310 H   0  0  0  0  0  0  0  0  0  0  0  0
  140.2964   66.4453  227.0542 H   0  0  0  0  0  0  0  0  0  0  0  0
  141.0883   68.3960  228.3906 H   0  0  0  0  0  0  0  0  0  0  0  0
  140.8364   70.6777  227.3690 H   0  0  0  0  0  0  0  0  0  0  0  0
  139.0477   71.8750  225.6223 H   0  0  0  0  0  0  0  0  0  0  0  0
  140.7959   71.8550  225.2089 H   0  0  0  0  0  0  0  0  0  0  0  0
  138.9567   76.8175  220.4199 H   0  0  0  0  0  0  0  0  0  0  0  0
  138.1234   75.4673  221.3234 H   0  0  0  0  0  0  0  0  0  0  0  0
  137.3302   77.8054  221.8603 H   0  0  0  0  0  0  0  0  0  0  0  0
  137.8504   76.7952  223.2521 H   0  0  0  0  0  0  0  0  0  0  0  0
  137.6719   79.8160  223.1356 H   0  0  0  0  0  0  0  0  0  0  0  0
  139.3211   81.5491  223.7712 H   0  0  0  0  0  0  0  0  0  0  0  0
  141.7566   81.0913  223.7292 H   0  0  0  0  0  0  0  0  0  0  0  0
  142.5163   78.8365  223.0171 H   0  0  0  0  0  0  0  0  0  0  0  0
  141.7875   76.9271  221.4525 H   0  0  0  0  0  0  0  0  0  0  0  0
  141.5510   76.3322  223.1724 H   0  0  0  0  0  0  0  0  0  0  0  0
  1  2  2  0
  2  3  1  0
  3  4  1  0
  4  5  1  0
  5  6  1  0
  6  7  1  0
  7  8  1  0
  8  9  1  0
  9 10  1  0
 10 11  1  0
  2 12  1  0
 12 13  2  0
 13 14  1  0
 14 15  2  0
 15 16  1  0
 16 17  1  0
 17 18  1  0
 18 19  1  0
 19 20  2  0
 20 21  1  0
 21 22  2  0
 22 23  1  0
 23 24  2  0
 24 25  1  0
 15 26  1  0
 26 27  2  0
 27 28  1  0
 28 29  1  0
 29 30  1  0
 30 31  1  0
 31 32  2  0
 32 33  1  0
 33 34  2  0
 34 35  1  0
 35 36  2  0
 36 37  1  0
 11  6  1  0
 27 12  1  0
 37 28  1  0
 25 16  1  0
 36 31  1  0
 24 19  1  0
  3 38  1  0
  4 39  1  0
  4 40  1  0
  5 41  1  0
  5 42  1  0
  6 43  1  0
  7 44  1  0
  7 45  1  0
  8 46  1  0
  8 47  1  0
  9 48  1  0
 10 49  1  0
 10 50  1  0
 11 51  1  0
 11 52  1  0
 13 53  1  0
 17 54  1  0
 17 55  1  0
 18 56  1  0
 18 57  1  0
 20 58  1  0
 21 59  1  0
 22 60  1  0
 23 61  1  0
 25 62  1  0
 25 63  1  0
 29 64  1  0
 29 65  1  0
 30 66  1  0
 30 67  1  0
 32 68  1  0
 33 69  1  0
 34 70  1  0
 35 71  1  0
 37 72  1  0
 37 73  1  0
M  END
>  <smiles>  (15) 
O=C(NCCC1CCNCC1)c1cnc(N2CCc3ccccc3C2)nc1N1CCc2ccccc2C1

>  <score_type>  (15) 
oracle

>  <origin>  (15) 
autodockgpu

>  <m_score__min__energy>  (15) 
-10.16

>  <m_primary>  (15) 
energy

>  <rmsd>  (15) 
5.486076329862813

>  <m_score__min__rmsd>  (15) 
5.486076329862813

>  <meeko>  (15) 
{"free_energy": -9.05, "intermolecular_energy": -10.84, "internal_energy": -2.42, "cluster_size": 38, "cluster_id": 1, "rank_in_cluster": 21}

>  <energy>  (15) 
-9.15

>  <cluster_rmsd>  (15) 
1.37

>  <cluster>  (15) 
1

$$$$

     RDKit          3D

 73 78  0  0  0  0  0  0  0  0999 V2000
  143.6080   74.8330  220.3720 O   0  0  0  0  0  0  0  0  0  0  0  0
  142.3560   74.7890  220.2540 C   0  0  0  0  0  0  0  0  0  0  0  0
  141.6390   75.5320  219.2650 N   0  0  0  0  0  0  0  0  0  0  0  0
  142.2930   76.4130  218.3130 C   0  0  0  0  0  0  0  0  0  0  0  0
  142.4610   77.7770  218.8890 C   0  0  0  0  0  0  0  0  0  0  0  0
  141.2030   78.4720  219.2910 C   0  0  0  0  0  0  0  0  0  0  0  0
  140.0330   78.2120  218.4200 C   0  0  0  0  0  0  0  0  0  0  0  0
  139.1440   79.4290  218.3950 C   0  0  0  0  0  0  0  0  0  0  0  0
  139.0490   79.9170  219.7750 N   0  0  0  0  0  0  0  0  0  0  0  0
  140.2660   80.6380  220.1050 C   0  0  0  0  0  0  0  0  0  0  0  0
  141.4840   79.9480  219.5320 C   0  0  0  0  0  0  0  0  0  0  0  0
  141.5630   73.9480  221.1520 C   0  0  0  0  0  0  0  0  0  0  0  0
  141.9570   72.6040  221.2060 C   0  0  0  0  0  0  0  0  0  0  0  0
  141.2470   71.8170  222.0250 N   0  0  0  0  0  0  0  0  0  0  0  0
  140.2160   72.2470  222.7630 C   0  0  0  0  0  0  0  0  0  0  0  0
  139.5370   71.3060  223.6140 N   0  0  0  0  0  0  0  0  0  0  0  0
  138.6100   70.3280  223.1080 C   0  0  0  0  0  0  0  0  0  0  0  0
  139.0010   68.9060  223.4250 C   0  0  0  0  0  0  0  0  0  0  0  0
  139.5240   68.8290  224.8050 C   0  0  0  0  0  0  0  0  0  0  0  0
  139.6640   67.5910  225.3950 C   0  0  0  0  0  0  0  0  0  0  0  0
  140.1430   67.4670  226.6850 C   0  0  0  0  0  0  0  0  0  0  0  0
  140.5090   68.5580  227.4560 C   0  0  0  0  0  0  0  0  0  0  0  0
  140.3670   69.8060  226.8590 C   0  0  0  0  0  0  0  0  0  0  0  0
  139.8820   69.9320  225.5560 C   0  0  0  0  0  0  0  0  0  0  0  0
  139.7770   71.3300  225.0460 C   0  0  0  0  0  0  0  0  0  0  0  0
  139.8510   73.5320  222.7000 N   0  0  0  0  0  0  0  0  0  0  0  0
  140.5070   74.4200  221.8990 C   0  0  0  0  0  0  0  0  0  0  0  0
  140.1300   75.7900  221.8280 N   0  0  0  0  0  0  0  0  0  0  0  0
  138.9090   76.2720  221.2670 C   0  0  0  0  0  0  0  0  0  0  0  0
  138.1810   77.2470  222.1650 C   0  0  0  0  0  0  0  0  0  0  0  0
  139.1220   78.2840  222.6330 C   0  0  0  0  0  0  0  0  0  0  0  0
  138.6200   79.5210  222.9900 C   0  0  0  0  0  0  0  0  0  0  0  0
  139.4940   80.5010  223.4410 C   0  0  0  0  0  0  0  0  0  0  0  0
  140.8460   80.2880  223.5470 C   0  0  0  0  0  0  0  0  0  0  0  0
  141.3150   79.0400  223.1820 C   0  0  0  0  0  0  0  0  0  0  0  0
  140.4900   78.0400  222.7310 C   0  0  0  0  0  0  0  0  0  0  0  0
  141.0750   76.7540  222.3690 C   0  0  0  0  0  0  0  0  0  0  0  0
  140.5760   75.4250  219.2370 H   0  0  0  0  0  0  0  0  0  0  0  0
  143.2821   76.0027  218.0614 H   0  0  0  0  0  0  0  0  0  0  0  0
  141.6691   76.4843  217.4098 H   0  0  0  0  0  0  0  0  0  0  0  0
  143.0985   77.6904  219.7812 H   0  0  0  0  0  0  0  0  0  0  0  0
  142.8966   78.3890  218.0854 H   0  0  0  0  0  0  0  0  0  0  0  0
  140.8792   78.0245  220.2422 H   0  0  0  0  0  0  0  0  0  0  0  0
  140.3780   77.9891  217.3996 H   0  0  0  0  0  0  0  0  0  0  0  0
  139.4680   77.3535  218.8121 H   0  0  0  0  0  0  0  0  0  0  0  0
  139.5823   80.2042  217.7492 H   0  0  0  0  0  0  0  0  0  0  0  0
  138.1493   79.1813  217.9961 H   0  0  0  0  0  0  0  0  0  0  0  0
  139.0490   79.0510  220.3730 H   0  0  0  0  0  0  0  0  0  0  0  0
  140.2030   81.6557  219.6923 H   0  0  0  0  0  0  0  0  0  0  0  0
  140.3663   80.6685  221.2000 H   0  0  0  0  0  0  0  0  0  0  0  0
  141.7535   80.4246  218.5780 H   0  0  0  0  0  0  0  0  0  0  0  0
  142.3118   80.0374  220.2509 H   0  0  0  0  0  0  0  0  0  0  0  0
  142.7986   72.2187  220.6116 H   0  0  0  0  0  0  0  0  0  0  0  0
  137.6219   70.5239  223.5499 H   0  0  0  0  0  0  0  0  0  0  0  0
  138.6044   70.4248  222.0123 H   0  0  0  0  0  0  0  0  0  0  0  0
  138.1194   68.2548  223.3312 H   0  0  0  0  0  0  0  0  0  0  0  0
  139.7799   68.5769  222.7214 H   0  0  0  0  0  0  0  0  0  0  0  0
  139.3901   66.6878  224.8300 H   0  0  0  0  0  0  0  0  0  0  0  0
  140.2376   66.4601  227.1177 H   0  0  0  0  0  0  0  0  0  0  0  0
  140.8901   68.4438  228.4815 H   0  0  0  0  0  0  0  0  0  0  0  0
  140.6416   70.7095  227.4232 H   0  0  0  0  0  0  0  0  0  0  0  0
  138.9435   71.8422  225.5490 H   0  0  0  0  0  0  0  0  0  0  0  0
  140.7148   71.8668  225.2517 H   0  0  0  0  0  0  0  0  0  0  0  0
  139.1369   76.7764  220.3164 H   0  0  0  0  0  0  0  0  0  0  0  0
  138.2493   75.4028  221.1278 H   0  0  0  0  0  0  0  0  0  0  0  0
  137.3626   77.7213  221.6036 H   0  0  0  0  0  0  0  0  0  0  0  0
  137.7686   76.7090  223.0313 H   0  0  0  0  0  0  0  0  0  0  0  0
  137.5418   79.7266  222.9178 H   0  0  0  0  0  0  0  0  0  0  0  0
  139.0884   81.4837  223.7236 H   0  0  0  0  0  0  0  0  0  0  0  0
  141.5255   81.0750  223.9062 H   0  0  0  0  0  0  0  0  0  0  0  0
  142.3941   78.8400  223.2561 H   0  0  0  0  0  0  0  0  0  0  0  0
  141.8541   76.9320  221.6132 H   0  0  0  0  0  0  0  0  0  0  0  0
  141.4679   76.3173  223.2990 H   0  0  0  0  0  0  0  0  0  0  0  0
  1  2  2  0
  2  3  1  0
  3  4  1  0
  4  5  1  0
  5  6  1  0
  6  7  1  0
  7  8  1  0
  8  9  1  0
  9 10  1  0
 10 11  1  0
  2 12  1  0
 12 13  2  0
 13 14  1  0
 14 15  2  0
 15 16  1  0
 16 17  1  0
 17 18  1  0
 18 19  1  0
 19 20  2  0
 20 21  1  0
 21 22  2  0
 22 23  1  0
 23 24  2  0
 24 25  1  0
 15 26  1  0
 26 27  2  0
 27 28  1  0
 28 29  1  0
 29 30  1  0
 30 31  1  0
 31 32  2  0
 32 33  1  0
 33 34  2  0
 34 35  1  0
 35 36  2  0
 36 37  1  0
 11  6  1  0
 27 12  1  0
 37 28  1  0
 25 16  1  0
 36 31  1  0
 24 19  1  0
  3 38  1  0
  4 39  1  0
  4 40  1  0
  5 41  1  0
  5 42  1  0
  6 43  1  0
  7 44  1  0
  7 45  1  0
  8 46  1  0
  8 47  1  0
  9 48  1  0
 10 49  1  0
 10 50  1  0
 11 51  1  0
 11 52  1  0
 13 53  1  0
 17 54  1  0
 17 55  1  0
 18 56  1  0
 18 57  1  0
 20 58  1  0
 21 59  1  0
 22 60  1  0
 23 61  1  0
 25 62  1  0
 25 63  1  0
 29 64  1  0
 29 65  1  0
 30 66  1  0
 30 67  1  0
 32 68  1  0
 33 69  1  0
 34 70  1  0
 35 71  1  0
 37 72  1  0
 37 73  1  0
M  END
>  <smiles>  (16) 
O=C(NCCC1CCNCC1)c1cnc(N2CCc3ccccc3C2)nc1N1CCc2ccccc2C1

>  <score_type>  (16) 
oracle

>  <origin>  (16) 
autodockgpu

>  <m_score__min__energy>  (16) 
-10.16

>  <m_primary>  (16) 
energy

>  <rmsd>  (16) 
5.429905109830431

>  <m_score__min__rmsd>  (16) 
5.429905109830431

>  <meeko>  (16) 
{"free_energy": -8.78, "intermolecular_energy": -10.57, "internal_energy": -2.59, "cluster_size": 38, "cluster_id": 1, "rank_in_cluster": 31}

>  <energy>  (16) 
-9.12

>  <cluster_rmsd>  (16) 
1.36

>  <cluster>  (16) 
1

$$$$

     RDKit          3D

 73 78  0  0  0  0  0  0  0  0999 V2000
  141.0780   73.8400  221.9120 O   0  0  0  0  0  0  0  0  0  0  0  0
  140.1470   74.2620  221.1780 C   0  0  0  0  0  0  0  0  0  0  0  0
  140.3050   74.5020  219.7770 N   0  0  0  0  0  0  0  0  0  0  0  0
  141.5600   74.2890  219.0780 C   0  0  0  0  0  0  0  0  0  0  0  0
  142.6570   75.0700  219.7180 C   0  0  0  0  0  0  0  0  0  0  0  0
  144.0240   74.4800  219.6100 C   0  0  0  0  0  0  0  0  0  0  0  0
  144.2990   73.7520  218.3490 C   0  0  0  0  0  0  0  0  0  0  0  0
  145.2640   72.6260  218.6170 C   0  0  0  0  0  0  0  0  0  0  0  0
  146.3050   73.1590  219.5030 N   0  0  0  0  0  0  0  0  0  0  0  0
  145.7840   73.2240  220.8570 C   0  0  0  0  0  0  0  0  0  0  0  0
  144.3440   73.6880  220.8690 C   0  0  0  0  0  0  0  0  0  0  0  0
  138.8260   74.5290  221.7490 C   0  0  0  0  0  0  0  0  0  0  0  0
  138.0360   73.3930  221.9700 C   0  0  0  0  0  0  0  0  0  0  0  0
  136.8230   73.6140  222.4960 N   0  0  0  0  0  0  0  0  0  0  0  0
  136.3560   74.8310  222.8050 C   0  0  0  0  0  0  0  0  0  0  0  0
  135.0400   74.9390  223.3750 N   0  0  0  0  0  0  0  0  0  0  0  0
  134.0890   73.8590  223.3480 C   0  0  0  0  0  0  0  0  0  0  0  0
  133.6260   73.4270  224.7170 C   0  0  0  0  0  0  0  0  0  0  0  0
  133.4170   74.6150  225.5700 C   0  0  0  0  0  0  0  0  0  0  0  0
  132.7240   74.4710  226.7530 C   0  0  0  0  0  0  0  0  0  0  0  0
  132.4970   75.5530  227.5810 C   0  0  0  0  0  0  0  0  0  0  0  0
  132.9440   76.8300  227.2850 C   0  0  0  0  0  0  0  0  0  0  0  0
  133.6430   76.9740  226.0920 C   0  0  0  0  0  0  0  0  0  0  0  0
  133.8720   75.8810  225.2530 C   0  0  0  0  0  0  0  0  0  0  0  0
  134.6300   76.1820  224.0050 C   0  0  0  0  0  0  0  0  0  0  0  0
  137.1220   75.9050  222.5880 N   0  0  0  0  0  0  0  0  0  0  0  0
  138.3740   75.7930  222.0560 C   0  0  0  0  0  0  0  0  0  0  0  0
  139.1980   76.9290  221.8250 N   0  0  0  0  0  0  0  0  0  0  0  0
  138.9670   77.9130  220.8170 C   0  0  0  0  0  0  0  0  0  0  0  0
  139.0330   79.3310  221.3370 C   0  0  0  0  0  0  0  0  0  0  0  0
  140.2650   79.5080  222.1320 C   0  0  0  0  0  0  0  0  0  0  0  0
  140.8050   80.7750  222.2450 C   0  0  0  0  0  0  0  0  0  0  0  0
  141.9580   80.9560  222.9960 C   0  0  0  0  0  0  0  0  0  0  0  0
  142.5860   79.9170  223.6380 C   0  0  0  0  0  0  0  0  0  0  0  0
  142.0210   78.6630  223.5040 C   0  0  0  0  0  0  0  0  0  0  0  0
  140.8830   78.4360  222.7720 C   0  0  0  0  0  0  0  0  0  0  0  0
  140.3580   77.0780  222.6890 C   0  0  0  0  0  0  0  0  0  0  0  0
  139.4550   74.8540  219.2340 H   0  0  0  0  0  0  0  0  0  0  0  0
  141.8132   73.2190  219.1079 H   0  0  0  0  0  0  0  0  0  0  0  0
  141.4470   74.6247  218.0366 H   0  0  0  0  0  0  0  0  0  0  0  0
  142.6809   76.0647  219.2491 H   0  0  0  0  0  0  0  0  0  0  0  0
  142.4234   75.0871  220.7928 H   0  0  0  0  0  0  0  0  0  0  0  0
  144.7317   75.3195  219.5435 H   0  0  0  0  0  0  0  0  0  0  0  0
  143.3593   73.3420  217.9503 H   0  0  0  0  0  0  0  0  0  0  0  0
  144.7387   74.4439  217.6155 H   0  0  0  0  0  0  0  0  0  0  0  0
  144.7430   71.7895  219.1058 H   0  0  0  0  0  0  0  0  0  0  0  0
  145.6995   72.2491  217.6798 H   0  0  0  0  0  0  0  0  0  0  0  0
  146.4450   74.1540  219.1940 H   0  0  0  0  0  0  0  0  0  0  0  0
  145.8423   72.2242  221.3120 H   0  0  0  0  0  0  0  0  0  0  0  0
  146.3868   73.9462  221.4272 H   0  0  0  0  0  0  0  0  0  0  0  0
  143.6823   72.8108  220.9218 H   0  0  0  0  0  0  0  0  0  0  0  0
  144.1885   74.3364  221.7439 H   0  0  0  0  0  0  0  0  0  0  0  0
  138.3900   72.3804  221.7264 H   0  0  0  0  0  0  0  0  0  0  0  0
  133.2109   74.1834  222.7703 H   0  0  0  0  0  0  0  0  0  0  0  0
  134.5948   72.9955  222.8914 H   0  0  0  0  0  0  0  0  0  0  0  0
  132.6807   72.8721  224.6250 H   0  0  0  0  0  0  0  0  0  0  0  0
  134.3907   72.7811  225.1731 H   0  0  0  0  0  0  0  0  0  0  0  0
  132.3460   73.4792  227.0420 H   0  0  0  0  0  0  0  0  0  0  0  0
  131.9377   75.3938  228.5147 H   0  0  0  0  0  0  0  0  0  0  0  0
  132.7566   77.6816  227.9556 H   0  0  0  0  0  0  0  0  0  0  0  0
  134.0222   77.9656  225.8038 H   0  0  0  0  0  0  0  0  0  0  0  0
  133.9885   76.7489  223.3142 H   0  0  0  0  0  0  0  0  0  0  0  0
  135.5205   76.7786  224.2521 H   0  0  0  0  0  0  0  0  0  0  0  0
  139.7282   77.7936  220.0320 H   0  0  0  0  0  0  0  0  0  0  0  0
  137.9478   77.7540  220.4350 H   0  0  0  0  0  0  0  0  0  0  0  0
  139.0398   80.0322  220.4895 H   0  0  0  0  0  0  0  0  0  0  0  0
  138.1563   79.5298  221.9710 H   0  0  0  0  0  0  0  0  0  0  0  0
  140.3265   81.6303  221.7454 H   0  0  0  0  0  0  0  0  0  0  0  0
  142.3836   81.9668  223.0799 H   0  0  0  0  0  0  0  0  0  0  0  0
  143.4979   80.0759  224.2323 H   0  0  0  0  0  0  0  0  0  0  0  0
  142.5039   77.8112  224.0052 H   0  0  0  0  0  0  0  0  0  0  0  0
  141.1562   76.4244  222.3074 H   0  0  0  0  0  0  0  0  0  0  0  0
  140.0278   76.8090  223.7032 H   0  0  0  0  0  0  0  0  0  0  0  0
  1  2  2  0
  2  3  1  0
  3  4  1  0
  4  5  1  0
  5  6  1  0
  6  7  1  0
  7  8  1  0
  8  9  1  0
  9 10  1  0
 10 11  1  0
  2 12  1  0
 12 13  2  0
 13 14  1  0
 14 15  2  0
 15 16  1  0
 16 17  1  0
 17 18  1  0
 18 19  1  0
 19 20  2  0
 20 21  1  0
 21 22  2  0
 22 23  1  0
 23 24  2  0
 24 25  1  0
 15 26  1  0
 26 27  2  0
 27 28  1  0
 28 29  1  0
 29 30  1  0
 30 31  1  0
 31 32  2  0
 32 33  1  0
 33 34  2  0
 34 35  1  0
 35 36  2  0
 36 37  1  0
 11  6  1  0
 27 12  1  0
 37 28  1  0
 25 16  1  0
 36 31  1  0
 24 19  1  0
  3 38  1  0
  4 39  1  0
  4 40  1  0
  5 41  1  0
  5 42  1  0
  6 43  1  0
  7 44  1  0
  7 45  1  0
  8 46  1  0
  8 47  1  0
  9 48  1  0
 10 49  1  0
 10 50  1  0
 11 51  1  0
 11 52  1  0
 13 53  1  0
 17 54  1  0
 17 55  1  0
 18 56  1  0
 18 57  1  0
 20 58  1  0
 21 59  1  0
 22 60  1  0
 23 61  1  0
 25 62  1  0
 25 63  1  0
 29 64  1  0
 29 65  1  0
 30 66  1  0
 30 67  1  0
 32 68  1  0
 33 69  1  0
 34 70  1  0
 35 71  1  0
 37 72  1  0
 37 73  1  0
M  END
>  <smiles>  (17) 
O=C(NCCC1CCNCC1)c1cnc(N2CCc3ccccc3C2)nc1N1CCc2ccccc2C1

>  <score_type>  (17) 
oracle

>  <origin>  (17) 
autodockgpu

>  <m_score__min__energy>  (17) 
-10.16

>  <m_primary>  (17) 
energy

>  <rmsd>  (17) 
5.795493251955309

>  <m_score__min__rmsd>  (17) 
5.795493251955309

>  <meeko>  (17) 
{"free_energy": -9.36, "intermolecular_energy": -11.15, "internal_energy": -1.34, "cluster_size": 2, "cluster_id": 5, "rank_in_cluster": 2}

>  <energy>  (17) 
-9.11

>  <cluster_rmsd>  (17) 
1.3

>  <cluster>  (17) 
1

$$$$

     RDKit          3D

 73 78  0  0  0  0  0  0  0  0999 V2000
  141.0000   73.7510  218.2940 O   0  0  0  0  0  0  0  0  0  0  0  0
  141.2800   74.1750  219.4460 C   0  0  0  0  0  0  0  0  0  0  0  0
  142.1030   75.3210  219.6760 N   0  0  0  0  0  0  0  0  0  0  0  0
  142.7000   76.0920  218.6000 C   0  0  0  0  0  0  0  0  0  0  0  0
  142.9450   77.4970  219.0330 C   0  0  0  0  0  0  0  0  0  0  0  0
  141.7280   78.2960  219.3640 C   0  0  0  0  0  0  0  0  0  0  0  0
  140.5260   77.9780  218.5580 C   0  0  0  0  0  0  0  0  0  0  0  0
  139.6900   79.2200  218.3880 C   0  0  0  0  0  0  0  0  0  0  0  0
  139.6520   79.8900  219.6930 N   0  0  0  0  0  0  0  0  0  0  0  0
  140.9060   80.5920  219.8990 C   0  0  0  0  0  0  0  0  0  0  0  0
  142.0790   79.7770  219.4000 C   0  0  0  0  0  0  0  0  0  0  0  0
  140.7520   73.4910  220.6280 C   0  0  0  0  0  0  0  0  0  0  0  0
  140.9000   72.0980  220.6200 C   0  0  0  0  0  0  0  0  0  0  0  0
  140.4260   71.4510  221.6940 N   0  0  0  0  0  0  0  0  0  0  0  0
  139.8410   72.0620  222.7330 C   0  0  0  0  0  0  0  0  0  0  0  0
  139.3820   71.2590  223.8350 N   0  0  0  0  0  0  0  0  0  0  0  0
  138.3650   70.2500  223.6920 C   0  0  0  0  0  0  0  0  0  0  0  0
  138.8230   68.8710  224.0960 C   0  0  0  0  0  0  0  0  0  0  0  0
  139.6540   68.9590  225.3150 C   0  0  0  0  0  0  0  0  0  0  0  0
  139.9320   67.8050  226.0160 C   0  0  0  0  0  0  0  0  0  0  0  0
  140.6990   67.8370  227.1640 C   0  0  0  0  0  0  0  0  0  0  0  0
  141.2310   69.0080  227.6780 C   0  0  0  0  0  0  0  0  0  0  0  0
  140.9500   70.1710  226.9690 C   0  0  0  0  0  0  0  0  0  0  0  0
  140.1740   70.1400  225.8090 C   0  0  0  0  0  0  0  0  0  0  0  0
  139.9490   71.4620  225.1560 C   0  0  0  0  0  0  0  0  0  0  0  0
  139.7070   73.3920  222.7250 N   0  0  0  0  0  0  0  0  0  0  0  0
  140.1540   74.1470  221.6800 C   0  0  0  0  0  0  0  0  0  0  0  0
  140.0210   75.5630  221.6640 N   0  0  0  0  0  0  0  0  0  0  0  0
  138.9460   76.2750  221.0500 C   0  0  0  0  0  0  0  0  0  0  0  0
  138.3250   77.3180  221.9510 C   0  0  0  0  0  0  0  0  0  0  0  0
  139.3880   78.1550  222.5430 C   0  0  0  0  0  0  0  0  0  0  0  0
  139.0770   79.4420  222.9370 C   0  0  0  0  0  0  0  0  0  0  0  0
  140.0660   80.2350  223.5030 C   0  0  0  0  0  0  0  0  0  0  0  0
  141.3490   79.7860  223.6900 C   0  0  0  0  0  0  0  0  0  0  0  0
  141.6280   78.4940  223.2850 C   0  0  0  0  0  0  0  0  0  0  0  0
  140.6840   77.6730  222.7210 C   0  0  0  0  0  0  0  0  0  0  0  0
  141.0700   76.3240  222.3250 C   0  0  0  0  0  0  0  0  0  0  0  0
  142.2790   75.6110  220.6900 H   0  0  0  0  0  0  0  0  0  0  0  0
  143.6563   75.6306  218.3124 H   0  0  0  0  0  0  0  0  0  0  0  0
  142.0084   76.1006  217.7446 H   0  0  0  0  0  0  0  0  0  0  0  0
  143.5835   77.4679  219.9282 H   0  0  0  0  0  0  0  0  0  0  0  0
  143.4070   77.9994  218.1704 H   0  0  0  0  0  0  0  0  0  0  0  0
  141.4094   77.9930  220.3723 H   0  0  0  0  0  0  0  0  0  0  0  0
  140.8353   77.6065  217.5699 H   0  0  0  0  0  0  0  0  0  0  0  0
  139.9344   77.2062  219.0722 H   0  0  0  0  0  0  0  0  0  0  0  0
  140.1444   79.8819  217.6360 H   0  0  0  0  0  0  0  0  0  0  0  0
  138.6757   78.9680  218.0450 H   0  0  0  0  0  0  0  0  0  0  0  0
  139.6300   79.1120  220.4000 H   0  0  0  0  0  0  0  0  0  0  0  0
  140.8757   81.5474  219.3547 H   0  0  0  0  0  0  0  0  0  0  0  0
  141.0355   80.7635  220.9778 H   0  0  0  0  0  0  0  0  0  0  0  0
  142.3448   80.1100  218.3859 H   0  0  0  0  0  0  0  0  0  0  0  0
  142.9279   79.9230  220.0841 H   0  0  0  0  0  0  0  0  0  0  0  0
  141.3765   71.5671  219.7827 H   0  0  0  0  0  0  0  0  0  0  0  0
  137.5067   70.5296  224.3205 H   0  0  0  0  0  0  0  0  0  0  0  0
  138.1037   70.2038  222.6245 H   0  0  0  0  0  0  0  0  0  0  0  0
  137.9456   68.2385  224.2965 H   0  0  0  0  0  0  0  0  0  0  0  0
  139.4171   68.4313  223.2813 H   0  0  0  0  0  0  0  0  0  0  0  0
  139.5368   66.8439  225.6554 H   0  0  0  0  0  0  0  0  0  0  0  0
  140.8957   66.8926  227.6925 H   0  0  0  0  0  0  0  0  0  0  0  0
  141.8403   69.0176  228.5937 H   0  0  0  0  0  0  0  0  0  0  0  0
  141.3462   71.1321  227.3286 H   0  0  0  0  0  0  0  0  0  0  0  0
  139.2543   72.0585  225.7655 H   0  0  0  0  0  0  0  0  0  0  0  0
  140.9074   71.9942  225.0658 H   0  0  0  0  0  0  0  0  0  0  0  0
  139.3293   76.7762  220.1489 H   0  0  0  0  0  0  0  0  0  0  0  0
  138.1619   75.5402  220.8151 H   0  0  0  0  0  0  0  0  0  0  0  0
  137.6444   77.9515  221.3633 H   0  0  0  0  0  0  0  0  0  0  0  0
  137.7617   76.8197  222.7538 H   0  0  0  0  0  0  0  0  0  0  0  0
  138.0578   79.8338  222.8038 H   0  0  0  0  0  0  0  0  0  0  0  0
  139.8121   81.2596  223.8125 H   0  0  0  0  0  0  0  0  0  0  0  0
  142.1213   80.4257  224.1421 H   0  0  0  0  0  0  0  0  0  0  0  0
  142.6491   78.1080  223.4205 H   0  0  0  0  0  0  0  0  0  0  0  0
  141.9245   76.3999  221.6365 H   0  0  0  0  0  0  0  0  0  0  0  0
  141.3097   75.7835  223.2526 H   0  0  0  0  0  0  0  0  0  0  0  0
  1  2  2  0
  2  3  1  0
  3  4  1  0
  4  5  1  0
  5  6  1  0
  6  7  1  0
  7  8  1  0
  8  9  1  0
  9 10  1  0
 10 11  1  0
  2 12  1  0
 12 13  2  0
 13 14  1  0
 14 15  2  0
 15 16  1  0
 16 17  1  0
 17 18  1  0
 18 19  1  0
 19 20  2  0
 20 21  1  0
 21 22  2  0
 22 23  1  0
 23 24  2  0
 24 25  1  0
 15 26  1  0
 26 27  2  0
 27 28  1  0
 28 29  1  0
 29 30  1  0
 30 31  1  0
 31 32  2  0
 32 33  1  0
 33 34  2  0
 34 35  1  0
 35 36  2  0
 36 37  1  0
 11  6  1  0
 27 12  1  0
 37 28  1  0
 25 16  1  0
 36 31  1  0
 24 19  1  0
  3 38  1  0
  4 39  1  0
  4 40  1  0
  5 41  1  0
  5 42  1  0
  6 43  1  0
  7 44  1  0
  7 45  1  0
  8 46  1  0
  8 47  1  0
  9 48  1  0
 10 49  1  0
 10 50  1  0
 11 51  1  0
 11 52  1  0
 13 53  1  0
 17 54  1  0
 17 55  1  0
 18 56  1  0
 18 57  1  0
 20 58  1  0
 21 59  1  0
 22 60  1  0
 23 61  1  0
 25 62  1  0
 25 63  1  0
 29 64  1  0
 29 65  1  0
 30 66  1  0
 30 67  1  0
 32 68  1  0
 33 69  1  0
 34 70  1  0
 35 71  1  0
 37 72  1  0
 37 73  1  0
M  END
>  <smiles>  (18) 
O=C(NCCC1CCNCC1)c1cnc(N2CCc3ccccc3C2)nc1N1CCc2ccccc2C1

>  <score_type>  (18) 
oracle

>  <origin>  (18) 
autodockgpu

>  <m_score__min__energy>  (18) 
-10.16

>  <m_primary>  (18) 
energy

>  <rmsd>  (18) 
5.567900743651216

>  <m_score__min__rmsd>  (18) 
5.567900743651216

>  <meeko>  (18) 
{"free_energy": -8.88, "intermolecular_energy": -10.67, "internal_energy": -2.5, "cluster_size": 38, "cluster_id": 1, "rank_in_cluster": 30}

>  <energy>  (18) 
-9.1

>  <cluster_rmsd>  (18) 
1.4

>  <cluster>  (18) 
1

$$$$

     RDKit          3D

 73 78  0  0  0  0  0  0  0  0999 V2000
  135.8840   72.9280  224.3640 O   0  0  0  0  0  0  0  0  0  0  0  0
  136.3400   72.0100  223.6330 C   0  0  0  0  0  0  0  0  0  0  0  0
  135.7000   70.7410  223.4830 N   0  0  0  0  0  0  0  0  0  0  0  0
  134.4680   70.3930  224.1690 C   0  0  0  0  0  0  0  0  0  0  0  0
  134.6780   70.3740  225.6450 C   0  0  0  0  0  0  0  0  0  0  0  0
  133.6590   71.1040  226.4560 C   0  0  0  0  0  0  0  0  0  0  0  0
  132.3070   70.4970  226.4650 C   0  0  0  0  0  0  0  0  0  0  0  0
  131.2690   71.5810  226.5940 C   0  0  0  0  0  0  0  0  0  0  0  0
  131.7560   72.5190  227.6110 N   0  0  0  0  0  0  0  0  0  0  0  0
  132.7750   73.3680  227.0210 C   0  0  0  0  0  0  0  0  0  0  0  0
  133.6760   72.5820  226.0940 C   0  0  0  0  0  0  0  0  0  0  0  0
  137.5820   72.2170  222.8850 C   0  0  0  0  0  0  0  0  0  0  0  0
  137.4830   73.1110  221.8100 C   0  0  0  0  0  0  0  0  0  0  0  0
  138.6080   73.3170  221.1130 N   0  0  0  0  0  0  0  0  0  0  0  0
  139.7770   72.7260  221.3930 C   0  0  0  0  0  0  0  0  0  0  0  0
  140.9200   73.0380  220.5780 N   0  0  0  0  0  0  0  0  0  0  0  0
  141.0020   74.2300  219.7750 C   0  0  0  0  0  0  0  0  0  0  0  0
  142.1800   75.1080  220.1160 C   0  0  0  0  0  0  0  0  0  0  0  0
  143.3690   74.2690  220.3700 C   0  0  0  0  0  0  0  0  0  0  0  0
  144.6100   74.8680  220.4120 C   0  0  0  0  0  0  0  0  0  0  0  0
  145.7520   74.1260  220.6400 C   0  0  0  0  0  0  0  0  0  0  0  0
  145.7280   72.7560  220.8390 C   0  0  0  0  0  0  0  0  0  0  0  0
  144.4750   72.1530  220.7980 C   0  0  0  0  0  0  0  0  0  0  0  0
  143.3210   72.9020  220.5660 C   0  0  0  0  0  0  0  0  0  0  0  0
  142.0490   72.1240  220.5420 C   0  0  0  0  0  0  0  0  0  0  0  0
  139.8550   71.8760  222.4230 N   0  0  0  0  0  0  0  0  0  0  0  0
  138.7690   71.5940  223.1980 C   0  0  0  0  0  0  0  0  0  0  0  0
  138.8420   70.6940  224.2970 N   0  0  0  0  0  0  0  0  0  0  0  0
  138.2300   69.4050  224.3390 C   0  0  0  0  0  0  0  0  0  0  0  0
  139.1720   68.3090  224.7850 C   0  0  0  0  0  0  0  0  0  0  0  0
  139.8660   68.7270  226.0200 C   0  0  0  0  0  0  0  0  0  0  0  0
  140.3310   67.7520  226.8810 C   0  0  0  0  0  0  0  0  0  0  0  0
  140.9930   68.1320  228.0410 C   0  0  0  0  0  0  0  0  0  0  0  0
  141.2050   69.4480  228.3670 C   0  0  0  0  0  0  0  0  0  0  0  0
  140.7270   70.3990  227.4850 C   0  0  0  0  0  0  0  0  0  0  0  0
  140.0670   70.0710  226.3270 C   0  0  0  0  0  0  0  0  0  0  0  0
  139.5990   71.1430  225.4560 C   0  0  0  0  0  0  0  0  0  0  0  0
  136.1590   70.0260  222.8340 H   0  0  0  0  0  0  0  0  0  0  0  0
  133.6948   71.1358  223.9232 H   0  0  0  0  0  0  0  0  0  0  0  0
  134.1504   69.3917  223.8426 H   0  0  0  0  0  0  0  0  0  0  0  0
  134.6803   69.3237  225.9720 H   0  0  0  0  0  0  0  0  0  0  0  0
  135.6292   70.8987  225.8181 H   0  0  0  0  0  0  0  0  0  0  0  0
  133.9563   71.0051  227.5104 H   0  0  0  0  0  0  0  0  0  0  0  0
  132.1466   69.9459  225.5266 H   0  0  0  0  0  0  0  0  0  0  0  0
  132.2219   69.8056  227.3163 H   0  0  0  0  0  0  0  0  0  0  0  0
  131.1415   72.0989  225.6320 H   0  0  0  0  0  0  0  0  0  0  0  0
  130.2941   71.1602  226.8814 H   0  0  0  0  0  0  0  0  0  0  0  0
  132.2480   71.9210  228.3230 H   0  0  0  0  0  0  0  0  0  0  0  0
  132.2859   74.1708  226.4498 H   0  0  0  0  0  0  0  0  0  0  0  0
  133.3903   73.7862  227.8312 H   0  0  0  0  0  0  0  0  0  0  0  0
  133.3248   72.7046  225.0588 H   0  0  0  0  0  0  0  0  0  0  0  0
  134.7042   72.9598  226.1945 H   0  0  0  0  0  0  0  0  0  0  0  0
  136.5383   73.6131  221.5542 H   0  0  0  0  0  0  0  0  0  0  0  0
  141.0838   73.9330  218.7190 H   0  0  0  0  0  0  0  0  0  0  0  0
  140.0935   74.8170  219.9753 H   0  0  0  0  0  0  0  0  0  0  0  0
  142.3848   75.7877  219.2758 H   0  0  0  0  0  0  0  0  0  0  0  0
  141.9485   75.6944  221.0174 H   0  0  0  0  0  0  0  0  0  0  0  0
  144.6918   75.9546  220.2615 H   0  0  0  0  0  0  0  0  0  0  0  0
  146.7215   74.6451  220.6646 H   0  0  0  0  0  0  0  0  0  0  0  0
  146.6464   72.1779  221.0191 H   0  0  0  0  0  0  0  0  0  0  0  0
  144.3927   71.0668  220.9512 H   0  0  0  0  0  0  0  0  0  0  0  0
  142.0045   71.5227  219.6220 H   0  0  0  0  0  0  0  0  0  0  0  0
  142.0099   71.4592  221.4175 H   0  0  0  0  0  0  0  0  0  0  0  0
  137.3828   69.4435  225.0396 H   0  0  0  0  0  0  0  0  0  0  0  0
  137.9106   69.1628  223.3146 H   0  0  0  0  0  0  0  0  0  0  0  0
  138.5993   67.3902  224.9796 H   0  0  0  0  0  0  0  0  0  0  0  0
  139.9133   68.1193  223.9948 H   0  0  0  0  0  0  0  0  0  0  0  0
  140.1787   66.6873  226.6505 H   0  0  0  0  0  0  0  0  0  0  0  0
  141.3604   67.3506  228.7225 H   0  0  0  0  0  0  0  0  0  0  0  0
  141.7320   69.7335  229.2894 H   0  0  0  0  0  0  0  0  0  0  0  0
  140.8819   71.4622  227.7208 H   0  0  0  0  0  0  0  0  0  0  0  0
  138.9560   71.8105  226.0484 H   0  0  0  0  0  0  0  0  0  0  0  0
  140.4978   71.6438  225.0668 H   0  0  0  0  0  0  0  0  0  0  0  0
  1  2  2  0
  2  3  1  0
  3  4  1  0
  4  5  1  0
  5  6  1  0
  6  7  1  0
  7  8  1  0
  8  9  1  0
  9 10  1  0
 10 11  1  0
  2 12  1  0
 12 13  2  0
 13 14  1  0
 14 15  2  0
 15 16  1  0
 16 17  1  0
 17 18  1  0
 18 19  1  0
 19 20  2  0
 20 21  1  0
 21 22  2  0
 22 23  1  0
 23 24  2  0
 24 25  1  0
 15 26  1  0
 26 27  2  0
 27 28  1  0
 28 29  1  0
 29 30  1  0
 30 31  1  0
 31 32  2  0
 32 33  1  0
 33 34  2  0
 34 35  1  0
 35 36  2  0
 36 37  1  0
 11  6  1  0
 27 12  1  0
 37 28  1  0
 25 16  1  0
 36 31  1  0
 24 19  1  0
  3 38  1  0
  4 39  1  0
  4 40  1  0
  5 41  1  0
  5 42  1  0
  6 43  1  0
  7 44  1  0
  7 45  1  0
  8 46  1  0
  8 47  1  0
  9 48  1  0
 10 49  1  0
 10 50  1  0
 11 51  1  0
 11 52  1  0
 13 53  1  0
 17 54  1  0
 17 55  1  0
 18 56  1  0
 18 57  1  0
 20 58  1  0
 21 59  1  0
 22 60  1  0
 23 61  1  0
 25 62  1  0
 25 63  1  0
 29 64  1  0
 29 65  1  0
 30 66  1  0
 30 67  1  0
 32 68  1  0
 33 69  1  0
 34 70  1  0
 35 71  1  0
 37 72  1  0
 37 73  1  0
M  END
>  <smiles>  (19) 
O=C(NCCC1CCNCC1)c1cnc(N2CCc3ccccc3C2)nc1N1CCc2ccccc2C1

>  <score_type>  (19) 
oracle

>  <origin>  (19) 
autodockgpu

>  <m_score__min__energy>  (19) 
-10.16

>  <m_primary>  (19) 
energy

>  <rmsd>  (19) 
10.423655970045449

>  <m_score__min__rmsd>  (19) 
10.423655970045449

>  <meeko>  (19) 
{"free_energy": -9.48, "intermolecular_energy": -11.27, "internal_energy": -1.28, "cluster_size": 4, "cluster_id": 2, "rank_in_cluster": 3}

>  <energy>  (19) 
-9.09

>  <cluster_rmsd>  (19) 
1.42

>  <cluster>  (19) 
1

$$$$

     RDKit          3D

 73 78  0  0  0  0  0  0  0  0999 V2000
  143.2590   75.2750  220.2800 O   0  0  0  0  0  0  0  0  0  0  0  0
  142.1980   74.6710  219.9700 C   0  0  0  0  0  0  0  0  0  0  0  0
  141.6360   74.7070  218.6560 N   0  0  0  0  0  0  0  0  0  0  0  0
  142.2340   75.4530  217.5630 C   0  0  0  0  0  0  0  0  0  0  0  0
  141.3300   76.5520  217.1200 C   0  0  0  0  0  0  0  0  0  0  0  0
  140.9550   77.5470  218.1680 C   0  0  0  0  0  0  0  0  0  0  0  0
  139.8290   78.4420  217.8140 C   0  0  0  0  0  0  0  0  0  0  0  0
  140.0220   79.7810  218.4770 C   0  0  0  0  0  0  0  0  0  0  0  0
  140.4620   79.5170  219.8510 N   0  0  0  0  0  0  0  0  0  0  0  0
  141.8700   79.1620  219.8360 C   0  0  0  0  0  0  0  0  0  0  0  0
  142.1990   78.2740  218.6570 C   0  0  0  0  0  0  0  0  0  0  0  0
  141.4820   73.8850  220.9750 C   0  0  0  0  0  0  0  0  0  0  0  0
  141.8470   72.5330  221.0400 C   0  0  0  0  0  0  0  0  0  0  0  0
  141.2050   71.7950  221.9550 N   0  0  0  0  0  0  0  0  0  0  0  0
  140.2650   72.2790  222.7770 C   0  0  0  0  0  0  0  0  0  0  0  0
  139.6540   71.3890  223.7270 N   0  0  0  0  0  0  0  0  0  0  0  0
  138.7130   70.3700  223.3440 C   0  0  0  0  0  0  0  0  0  0  0  0
  139.1430   68.9750  223.7260 C   0  0  0  0  0  0  0  0  0  0  0  0
  139.7520   68.9940  225.0730 C   0  0  0  0  0  0  0  0  0  0  0  0
  139.9470   67.7990  225.7310 C   0  0  0  0  0  0  0  0  0  0  0  0
  140.5060   67.7640  226.9940 C   0  0  0  0  0  0  0  0  0  0  0  0
  140.9020   68.9060  227.6690 C   0  0  0  0  0  0  0  0  0  0  0  0
  140.7050   70.1110  227.0030 C   0  0  0  0  0  0  0  0  0  0  0  0
  140.1390   70.1470  225.7280 C   0  0  0  0  0  0  0  0  0  0  0  0
  139.9820   71.5070  225.1370 C   0  0  0  0  0  0  0  0  0  0  0  0
  139.9270   73.5710  222.7030 N   0  0  0  0  0  0  0  0  0  0  0  0
  140.5190   74.4120  221.8060 C   0  0  0  0  0  0  0  0  0  0  0  0
  140.1700   75.7880  221.7210 N   0  0  0  0  0  0  0  0  0  0  0  0
  139.0100   76.2970  221.0620 C   0  0  0  0  0  0  0  0  0  0  0  0
  138.2200   77.2710  221.9070 C   0  0  0  0  0  0  0  0  0  0  0  0
  139.1310   78.2880  222.4710 C   0  0  0  0  0  0  0  0  0  0  0  0
  138.6180   79.5280  222.8000 C   0  0  0  0  0  0  0  0  0  0  0  0
  139.4630   80.4880  223.3390 C   0  0  0  0  0  0  0  0  0  0  0  0
  140.7970   80.2520  223.5610 C   0  0  0  0  0  0  0  0  0  0  0  0
  141.2780   79.0010  223.2200 C   0  0  0  0  0  0  0  0  0  0  0  0
  140.4810   78.0210  222.6850 C   0  0  0  0  0  0  0  0  0  0  0  0
  141.0770   76.7300  222.3570 C   0  0  0  0  0  0  0  0  0  0  0  0
  140.7360   74.1570  218.4860 H   0  0  0  0  0  0  0  0  0  0  0  0
  143.1886   75.8838  217.8993 H   0  0  0  0  0  0  0  0  0  0  0  0
  142.4012   74.7695  216.7175 H   0  0  0  0  0  0  0  0  0  0  0  0
  141.8316   77.0936  216.3045 H   0  0  0  0  0  0  0  0  0  0  0  0
  140.3905   76.0640  216.8214 H   0  0  0  0  0  0  0  0  0  0  0  0
  140.5345   76.9808  219.0122 H   0  0  0  0  0  0  0  0  0  0  0  0
  139.7959   78.5750  216.7226 H   0  0  0  0  0  0  0  0  0  0  0  0
  138.8845   77.9957  218.1586 H   0  0  0  0  0  0  0  0  0  0  0  0
  140.7863   80.3622  217.9402 H   0  0  0  0  0  0  0  0  0  0  0  0
  139.0886   80.3630  218.4676 H   0  0  0  0  0  0  0  0  0  0  0  0
  139.9430   78.6500  220.1430 H   0  0  0  0  0  0  0  0  0  0  0  0
  142.4708   80.0811  219.7713 H   0  0  0  0  0  0  0  0  0  0  0  0
  142.0997   78.6119  220.7604 H   0  0  0  0  0  0  0  0  0  0  0  0
  142.6006   78.8920  217.8404 H   0  0  0  0  0  0  0  0  0  0  0  0
  142.9435   77.5283  218.9726 H   0  0  0  0  0  0  0  0  0  0  0  0
  142.6146   72.1040  220.3792 H   0  0  0  0  0  0  0  0  0  0  0  0
  137.7512   70.5835  223.8333 H   0  0  0  0  0  0  0  0  0  0  0  0
  138.6395   70.3954  222.2467 H   0  0  0  0  0  0  0  0  0  0  0  0
  138.2666   68.3102  223.7300 H   0  0  0  0  0  0  0  0  0  0  0  0
  139.8808   68.6082  222.9972 H   0  0  0  0  0  0  0  0  0  0  0  0
  139.6530   66.8581  225.2429 H   0  0  0  0  0  0  0  0  0  0  0  0
  140.6420   66.7884  227.4835 H   0  0  0  0  0  0  0  0  0  0  0  0
  141.3468   68.8628  228.6741 H   0  0  0  0  0  0  0  0  0  0  0  0
  141.0005   71.0521  227.4898 H   0  0  0  0  0  0  0  0  0  0  0  0
  139.1739   72.0416  225.6576 H   0  0  0  0  0  0  0  0  0  0  0  0
  140.9232   72.0653  225.2483 H   0  0  0  0  0  0  0  0  0  0  0  0
  139.3280   76.8106  220.1427 H   0  0  0  0  0  0  0  0  0  0  0  0
  138.3526   75.4403  220.8524 H   0  0  0  0  0  0  0  0  0  0  0  0
  137.4606   77.7651  221.2831 H   0  0  0  0  0  0  0  0  0  0  0  0
  137.7261   76.7278  222.7261 H   0  0  0  0  0  0  0  0  0  0  0  0
  137.5534   79.7515  222.6368 H   0  0  0  0  0  0  0  0  0  0  0  0
  139.0488   81.4737  223.5977 H   0  0  0  0  0  0  0  0  0  0  0  0
  141.4536   81.0229  223.9906 H   0  0  0  0  0  0  0  0  0  0  0  0
  142.3435   78.7828  223.3845 H   0  0  0  0  0  0  0  0  0  0  0  0
  141.9223   76.9057  221.6754 H   0  0  0  0  0  0  0  0  0  0  0  0
  141.3795   76.2750  223.3117 H   0  0  0  0  0  0  0  0  0  0  0  0
  1  2  2  0
  2  3  1  0
  3  4  1  0
  4  5  1  0
  5  6  1  0
  6  7  1  0
  7  8  1  0
  8  9  1  0
  9 10  1  0
 10 11  1  0
  2 12  1  0
 12 13  2  0
 13 14  1  0
 14 15  2  0
 15 16  1  0
 16 17  1  0
 17 18  1  0
 18 19  1  0
 19 20  2  0
 20 21  1  0
 21 22  2  0
 22 23  1  0
 23 24  2  0
 24 25  1  0
 15 26  1  0
 26 27  2  0
 27 28  1  0
 28 29  1  0
 29 30  1  0
 30 31  1  0
 31 32  2  0
 32 33  1  0
 33 34  2  0
 34 35  1  0
 35 36  2  0
 36 37  1  0
 11  6  1  0
 27 12  1  0
 37 28  1  0
 25 16  1  0
 36 31  1  0
 24 19  1  0
  3 38  1  0
  4 39  1  0
  4 40  1  0
  5 41  1  0
  5 42  1  0
  6 43  1  0
  7 44  1  0
  7 45  1  0
  8 46  1  0
  8 47  1  0
  9 48  1  0
 10 49  1  0
 10 50  1  0
 11 51  1  0
 11 52  1  0
 13 53  1  0
 17 54  1  0
 17 55  1  0
 18 56  1  0
 18 57  1  0
 20 58  1  0
 21 59  1  0
 22 60  1  0
 23 61  1  0
 25 62  1  0
 25 63  1  0
 29 64  1  0
 29 65  1  0
 30 66  1  0
 30 67  1  0
 32 68  1  0
 33 69  1  0
 34 70  1  0
 35 71  1  0
 37 72  1  0
 37 73  1  0
M  END
>  <smiles>  (20) 
O=C(NCCC1CCNCC1)c1cnc(N2CCc3ccccc3C2)nc1N1CCc2ccccc2C1

>  <score_type>  (20) 
oracle

>  <origin>  (20) 
autodockgpu

>  <m_score__min__energy>  (20) 
-10.16

>  <m_primary>  (20) 
energy

>  <rmsd>  (20) 
5.4843899713211375

>  <m_score__min__rmsd>  (20) 
5.4843899713211375

>  <meeko>  (20) 
{"free_energy": -8.58, "intermolecular_energy": -10.37, "internal_energy": -2.48, "cluster_size": 38, "cluster_id": 1, "rank_in_cluster": 36}

>  <energy>  (20) 
-9.08

>  <cluster_rmsd>  (20) 
1.33

>  <cluster>  (20) 
1

$$$$

     RDKit          3D

 73 78  0  0  0  0  0  0  0  0999 V2000
  142.8020   74.2130  219.3450 O   0  0  0  0  0  0  0  0  0  0  0  0
  141.5960   74.4000  219.6550 C   0  0  0  0  0  0  0  0  0  0  0  0
  140.7520   75.3320  218.9740 N   0  0  0  0  0  0  0  0  0  0  0  0
  141.2140   76.1530  217.8700 C   0  0  0  0  0  0  0  0  0  0  0  0
  140.3870   77.3880  217.7520 C   0  0  0  0  0  0  0  0  0  0  0  0
  140.6210   78.4290  218.7960 C   0  0  0  0  0  0  0  0  0  0  0  0
  139.4180   79.1860  219.2120 C   0  0  0  0  0  0  0  0  0  0  0  0
  139.8130   80.5890  219.5970 C   0  0  0  0  0  0  0  0  0  0  0  0
  141.0370   80.4820  220.4000 N   0  0  0  0  0  0  0  0  0  0  0  0
  142.1640   80.2550  219.5140 C   0  0  0  0  0  0  0  0  0  0  0  0
  141.8000   79.3040  218.3950 C   0  0  0  0  0  0  0  0  0  0  0  0
  140.9960   73.6450  220.7560 C   0  0  0  0  0  0  0  0  0  0  0  0
  141.2510   72.2670  220.7370 C   0  0  0  0  0  0  0  0  0  0  0  0
  140.7130   71.5570  221.7380 N   0  0  0  0  0  0  0  0  0  0  0  0
  139.9710   72.0920  222.7160 C   0  0  0  0  0  0  0  0  0  0  0  0
  139.4570   71.2270  223.7440 N   0  0  0  0  0  0  0  0  0  0  0  0
  138.5940   70.1110  223.4600 C   0  0  0  0  0  0  0  0  0  0  0  0
  139.1450   68.7860  223.9280 C   0  0  0  0  0  0  0  0  0  0  0  0
  139.7800   68.9510  225.2520 C   0  0  0  0  0  0  0  0  0  0  0  0
  140.0870   67.8270  225.9870 C   0  0  0  0  0  0  0  0  0  0  0  0
  140.6760   67.9280  227.2320 C   0  0  0  0  0  0  0  0  0  0  0  0
  140.9930   69.1450  227.8140 C   0  0  0  0  0  0  0  0  0  0  0  0
  140.6830   70.2790  227.0710 C   0  0  0  0  0  0  0  0  0  0  0  0
  140.0870   70.1770  225.8130 C   0  0  0  0  0  0  0  0  0  0  0  0
  139.8060   71.4730  225.1320 C   0  0  0  0  0  0  0  0  0  0  0  0
  139.7370   73.4090  222.7200 N   0  0  0  0  0  0  0  0  0  0  0  0
  140.2370   74.2250  221.7470 C   0  0  0  0  0  0  0  0  0  0  0  0
  139.9970   75.6270  221.7450 N   0  0  0  0  0  0  0  0  0  0  0  0
  138.7910   76.2470  221.2980 C   0  0  0  0  0  0  0  0  0  0  0  0
  138.2380   77.2570  222.2780 C   0  0  0  0  0  0  0  0  0  0  0  0
  139.3130   78.1790  222.6970 C   0  0  0  0  0  0  0  0  0  0  0  0
  138.9690   79.4460  223.1270 C   0  0  0  0  0  0  0  0  0  0  0  0
  139.9710   80.3180  223.5310 C   0  0  0  0  0  0  0  0  0  0  0  0
  141.2980   79.9680  223.5220 C   0  0  0  0  0  0  0  0  0  0  0  0
  141.6070   78.6930  223.0860 C   0  0  0  0  0  0  0  0  0  0  0  0
  140.6530   77.7970  222.6770 C   0  0  0  0  0  0  0  0  0  0  0  0
  141.0740   76.4720  222.2340 C   0  0  0  0  0  0  0  0  0  0  0  0
  139.7390   75.4170  219.3040 H   0  0  0  0  0  0  0  0  0  0  0  0
  142.2628   76.4356  218.0439 H   0  0  0  0  0  0  0  0  0  0  0  0
  141.1247   75.5762  216.9376 H   0  0  0  0  0  0  0  0  0  0  0  0
  140.5948   77.8409  216.7713 H   0  0  0  0  0  0  0  0  0  0  0  0
  139.3443   77.0629  217.8829 H   0  0  0  0  0  0  0  0  0  0  0  0
  140.8855   77.9003  219.7236 H   0  0  0  0  0  0  0  0  0  0  0  0
  138.7018   79.2229  218.3779 H   0  0  0  0  0  0  0  0  0  0  0  0
  138.9521   78.6873  220.0747 H   0  0  0  0  0  0  0  0  0  0  0  0
  140.0035   81.1893  218.6952 H   0  0  0  0  0  0  0  0  0  0  0  0
  139.0108   81.0819  220.1657 H   0  0  0  0  0  0  0  0  0  0  0  0
  140.9200   79.5990  220.9600 H   0  0  0  0  0  0  0  0  0  0  0  0
  142.4779   81.2158  219.0800 H   0  0  0  0  0  0  0  0  0  0  0  0
  142.9809   79.8070  220.0988 H   0  0  0  0  0  0  0  0  0  0  0  0
  141.5310   79.8848  217.5004 H   0  0  0  0  0  0  0  0  0  0  0  0
  142.6649   78.6578  218.1841 H   0  0  0  0  0  0  0  0  0  0  0  0
  141.8563   71.7967  219.9480 H   0  0  0  0  0  0  0  0  0  0  0  0
  137.6288   70.2820  223.9592 H   0  0  0  0  0  0  0  0  0  0  0  0
  138.4946   70.0505  222.3662 H   0  0  0  0  0  0  0  0  0  0  0  0
  138.3261   68.0555  224.0036 H   0  0  0  0  0  0  0  0  0  0  0  0
  139.8940   68.4275  223.2066 H   0  0  0  0  0  0  0  0  0  0  0  0
  139.8592   66.8327  225.5754 H   0  0  0  0  0  0  0  0  0  0  0  0
  140.9029   67.0043  227.7845 H   0  0  0  0  0  0  0  0  0  0  0  0
  141.4628   69.2103  228.8065 H   0  0  0  0  0  0  0  0  0  0  0  0
  140.9114   71.2735  227.4818 H   0  0  0  0  0  0  0  0  0  0  0  0
  138.9688   71.9778  225.6363 H   0  0  0  0  0  0  0  0  0  0  0  0
  140.7008   72.1113  225.1766 H   0  0  0  0  0  0  0  0  0  0  0  0
  138.9941   76.7594  220.3461 H   0  0  0  0  0  0  0  0  0  0  0  0
  138.0377   75.4528  221.1893 H   0  0  0  0  0  0  0  0  0  0  0  0
  137.4309   77.8296  221.7976 H   0  0  0  0  0  0  0  0  0  0  0  0
  137.8419   76.7321  223.1598 H   0  0  0  0  0  0  0  0  0  0  0  0
  137.9150   79.7599  223.1490 H   0  0  0  0  0  0  0  0  0  0  0  0
  139.6911   81.3261  223.8707 H   0  0  0  0  0  0  0  0  0  0  0  0
  142.0801   80.6700  223.8469 H   0  0  0  0  0  0  0  0  0  0  0  0
  142.6626   78.3843  223.0664 H   0  0  0  0  0  0  0  0  0  0  0  0
  141.8065   76.5980  221.4230 H   0  0  0  0  0  0  0  0  0  0  0  0
  141.4910   75.9658  223.1171 H   0  0  0  0  0  0  0  0  0  0  0  0
  1  2  2  0
  2  3  1  0
  3  4  1  0
  4  5  1  0
  5  6  1  0
  6  7  1  0
  7  8  1  0
  8  9  1  0
  9 10  1  0
 10 11  1  0
  2 12  1  0
 12 13  2  0
 13 14  1  0
 14 15  2  0
 15 16  1  0
 16 17  1  0
 17 18  1  0
 18 19  1  0
 19 20  2  0
 20 21  1  0
 21 22  2  0
 22 23  1  0
 23 24  2  0
 24 25  1  0
 15 26  1  0
 26 27  2  0
 27 28  1  0
 28 29  1  0
 29 30  1  0
 30 31  1  0
 31 32  2  0
 32 33  1  0
 33 34  2  0
 34 35  1  0
 35 36  2  0
 36 37  1  0
 11  6  1  0
 27 12  1  0
 37 28  1  0
 25 16  1  0
 36 31  1  0
 24 19  1  0
  3 38  1  0
  4 39  1  0
  4 40  1  0
  5 41  1  0
  5 42  1  0
  6 43  1  0
  7 44  1  0
  7 45  1  0
  8 46  1  0
  8 47  1  0
  9 48  1  0
 10 49  1  0
 10 50  1  0
 11 51  1  0
 11 52  1  0
 13 53  1  0
 17 54  1  0
 17 55  1  0
 18 56  1  0
 18 57  1  0
 20 58  1  0
 21 59  1  0
 22 60  1  0
 23 61  1  0
 25 62  1  0
 25 63  1  0
 29 64  1  0
 29 65  1  0
 30 66  1  0
 30 67  1  0
 32 68  1  0
 33 69  1  0
 34 70  1  0
 35 71  1  0
 37 72  1  0
 37 73  1  0
M  END
>  <smiles>  (21) 
O=C(NCCC1CCNCC1)c1cnc(N2CCc3ccccc3C2)nc1N1CCc2ccccc2C1

>  <score_type>  (21) 
oracle

>  <origin>  (21) 
autodockgpu

>  <m_score__min__energy>  (21) 
-10.16

>  <m_primary>  (21) 
energy

>  <rmsd>  (21) 
5.844242938244301

>  <m_score__min__rmsd>  (21) 
5.844242938244301

>  <meeko>  (21) 
{"free_energy": -8.56, "intermolecular_energy": -10.35, "internal_energy": -2.41, "cluster_size": 38, "cluster_id": 1, "rank_in_cluster": 37}

>  <energy>  (21) 
-9.05

>  <cluster_rmsd>  (21) 
1.3

>  <cluster>  (21) 
1

$$$$

     RDKit          3D

 73 78  0  0  0  0  0  0  0  0999 V2000
  142.9830   74.3610  219.4430 O   0  0  0  0  0  0  0  0  0  0  0  0
  141.7770   74.5720  219.7380 C   0  0  0  0  0  0  0  0  0  0  0  0
  140.9730   75.5510  219.0740 N   0  0  0  0  0  0  0  0  0  0  0  0
  141.4790   76.3960  218.0070 C   0  0  0  0  0  0  0  0  0  0  0  0
  142.3410   77.4790  218.5600 C   0  0  0  0  0  0  0  0  0  0  0  0
  141.6250   78.5850  219.2610 C   0  0  0  0  0  0  0  0  0  0  0  0
  140.1480   78.5500  219.1510 C   0  0  0  0  0  0  0  0  0  0  0  0
  139.6080   79.9570  219.1670 C   0  0  0  0  0  0  0  0  0  0  0  0
  140.3380   80.6820  220.2130 N   0  0  0  0  0  0  0  0  0  0  0  0
  141.6520   81.0410  219.7090 C   0  0  0  0  0  0  0  0  0  0  0  0
  142.2460   79.9220  218.8830 C   0  0  0  0  0  0  0  0  0  0  0  0
  141.1350   73.7980  220.8010 C   0  0  0  0  0  0  0  0  0  0  0  0
  141.4310   72.4280  220.7970 C   0  0  0  0  0  0  0  0  0  0  0  0
  140.8550   71.7010  221.7640 N   0  0  0  0  0  0  0  0  0  0  0  0
  140.0410   72.2120  222.6960 C   0  0  0  0  0  0  0  0  0  0  0  0
  139.4920   71.3300  223.6910 N   0  0  0  0  0  0  0  0  0  0  0  0
  138.5910   70.2560  223.3660 C   0  0  0  0  0  0  0  0  0  0  0  0
  139.0940   68.8970  223.7880 C   0  0  0  0  0  0  0  0  0  0  0  0
  139.7280   68.9930  225.1190 C   0  0  0  0  0  0  0  0  0  0  0  0
  139.9920   67.8330  225.8150 C   0  0  0  0  0  0  0  0  0  0  0  0
  140.5790   67.8710  227.0660 C   0  0  0  0  0  0  0  0  0  0  0  0
  140.9350   69.0540  227.6910 C   0  0  0  0  0  0  0  0  0  0  0  0
  140.6690   70.2240  226.9870 C   0  0  0  0  0  0  0  0  0  0  0  0
  140.0750   70.1870  225.7240 C   0  0  0  0  0  0  0  0  0  0  0  0
  139.8420   71.5150  225.0880 C   0  0  0  0  0  0  0  0  0  0  0  0
  139.7680   73.5210  222.6860 N   0  0  0  0  0  0  0  0  0  0  0  0
  140.3020   74.3530  221.7460 C   0  0  0  0  0  0  0  0  0  0  0  0
  140.0210   75.7480  221.7290 N   0  0  0  0  0  0  0  0  0  0  0  0
  138.7820   76.3260  221.3190 C   0  0  0  0  0  0  0  0  0  0  0  0
  138.2380   77.3370  222.3030 C   0  0  0  0  0  0  0  0  0  0  0  0
  139.3010   78.2960  222.6640 C   0  0  0  0  0  0  0  0  0  0  0  0
  138.9380   79.5600  223.0870 C   0  0  0  0  0  0  0  0  0  0  0  0
  139.9280   80.4670  223.4380 C   0  0  0  0  0  0  0  0  0  0  0  0
  141.2640   80.1540  223.3830 C   0  0  0  0  0  0  0  0  0  0  0  0
  141.5930   78.8810  222.9570 C   0  0  0  0  0  0  0  0  0  0  0  0
  140.6490   77.9510  222.5990 C   0  0  0  0  0  0  0  0  0  0  0  0
  141.0920   76.6320  222.1620 C   0  0  0  0  0  0  0  0  0  0  0  0
  139.9570   75.6530  219.3880 H   0  0  0  0  0  0  0  0  0  0  0  0
  142.0702   75.7836  217.3103 H   0  0  0  0  0  0  0  0  0  0  0  0
  140.6272   76.8535  217.4825 H   0  0  0  0  0  0  0  0  0  0  0  0
  143.0395   77.0218  219.2763 H   0  0  0  0  0  0  0  0  0  0  0  0
  142.8310   77.9435  217.6916 H   0  0  0  0  0  0  0  0  0  0  0  0
  141.7736   78.4300  220.3398 H   0  0  0  0  0  0  0  0  0  0  0  0
  139.8623   78.0586  218.2093 H   0  0  0  0  0  0  0  0  0  0  0  0
  139.7310   77.9882  219.9998 H   0  0  0  0  0  0  0  0  0  0  0  0
  139.7715   80.4360  218.1904 H   0  0  0  0  0  0  0  0  0  0  0  0
  138.5263   79.9612  219.3668 H   0  0  0  0  0  0  0  0  0  0  0  0
  140.4980   79.9760  220.9760 H   0  0  0  0  0  0  0  0  0  0  0  0
  141.5624   81.9407  219.0825 H   0  0  0  0  0  0  0  0  0  0  0  0
  142.3142   81.2298  220.5668 H   0  0  0  0  0  0  0  0  0  0  0  0
  142.0562   80.1198  217.8177 H   0  0  0  0  0  0  0  0  0  0  0  0
  143.3279   79.8762  219.0763 H   0  0  0  0  0  0  0  0  0  0  0  0
  142.0958   71.9770  220.0456 H   0  0  0  0  0  0  0  0  0  0  0  0
  137.6309   70.4432  223.8692 H   0  0  0  0  0  0  0  0  0  0  0  0
  138.4925   70.2377  222.2706 H   0  0  0  0  0  0  0  0  0  0  0  0
  138.2502   68.1929  223.8347 H   0  0  0  0  0  0  0  0  0  0  0  0
  139.8335   68.5386  223.0568 H   0  0  0  0  0  0  0  0  0  0  0  0
  139.7316   66.8621  225.3682 H   0  0  0  0  0  0  0  0  0  0  0  0
  140.7713   66.9214  227.5868 H   0  0  0  0  0  0  0  0  0  0  0  0
  141.4014   69.0680  228.6871 H   0  0  0  0  0  0  0  0  0  0  0  0
  140.9311   71.1948  227.4330 H   0  0  0  0  0  0  0  0  0  0  0  0
  139.0200   72.0303  225.6064 H   0  0  0  0  0  0  0  0  0  0  0  0
  140.7578   72.1202  225.1586 H   0  0  0  0  0  0  0  0  0  0  0  0
  138.9339   76.8273  220.3517 H   0  0  0  0  0  0  0  0  0  0  0  0
  138.0482   75.5093  221.2524 H   0  0  0  0  0  0  0  0  0  0  0  0
  137.3967   77.8779  221.8452 H   0  0  0  0  0  0  0  0  0  0  0  0
  137.8915   76.8169  223.2082 H   0  0  0  0  0  0  0  0  0  0  0  0
  137.8769   79.8442  223.1449 H   0  0  0  0  0  0  0  0  0  0  0  0
  139.6320   81.4724  223.7722 H   0  0  0  0  0  0  0  0  0  0  0  0
  142.0374   80.8835  223.6652 H   0  0  0  0  0  0  0  0  0  0  0  0
  142.6555   78.6015  222.9026 H   0  0  0  0  0  0  0  0  0  0  0  0
  141.7887   76.7648  221.3212 H   0  0  0  0  0  0  0  0  0  0  0  0
  141.5581   76.1535  223.0359 H   0  0  0  0  0  0  0  0  0  0  0  0
  1  2  2  0
  2  3  1  0
  3  4  1  0
  4  5  1  0
  5  6  1  0
  6  7  1  0
  7  8  1  0
  8  9  1  0
  9 10  1  0
 10 11  1  0
  2 12  1  0
 12 13  2  0
 13 14  1  0
 14 15  2  0
 15 16  1  0
 16 17  1  0
 17 18  1  0
 18 19  1  0
 19 20  2  0
 20 21  1  0
 21 22  2  0
 22 23  1  0
 23 24  2  0
 24 25  1  0
 15 26  1  0
 26 27  2  0
 27 28  1  0
 28 29  1  0
 29 30  1  0
 30 31  1  0
 31 32  2  0
 32 33  1  0
 33 34  2  0
 34 35  1  0
 35 36  2  0
 36 37  1  0
 11  6  1  0
 27 12  1  0
 37 28  1  0
 25 16  1  0
 36 31  1  0
 24 19  1  0
  3 38  1  0
  4 39  1  0
  4 40  1  0
  5 41  1  0
  5 42  1  0
  6 43  1  0
  7 44  1  0
  7 45  1  0
  8 46  1  0
  8 47  1  0
  9 48  1  0
 10 49  1  0
 10 50  1  0
 11 51  1  0
 11 52  1  0
 13 53  1  0
 17 54  1  0
 17 55  1  0
 18 56  1  0
 18 57  1  0
 20 58  1  0
 21 59  1  0
 22 60  1  0
 23 61  1  0
 25 62  1  0
 25 63  1  0
 29 64  1  0
 29 65  1  0
 30 66  1  0
 30 67  1  0
 32 68  1  0
 33 69  1  0
 34 70  1  0
 35 71  1  0
 37 72  1  0
 37 73  1  0
M  END
>  <smiles>  (22) 
O=C(NCCC1CCNCC1)c1cnc(N2CCc3ccccc3C2)nc1N1CCc2ccccc2C1

>  <score_type>  (22) 
oracle

>  <origin>  (22) 
autodockgpu

>  <m_score__min__energy>  (22) 
-10.16

>  <m_primary>  (22) 
energy

>  <rmsd>  (22) 
5.718523544933836

>  <m_score__min__rmsd>  (22) 
5.718523544933836

>  <meeko>  (22) 
{"free_energy": -8.97, "intermolecular_energy": -10.76, "internal_energy": -2.51, "cluster_size": 38, "cluster_id": 1, "rank_in_cluster": 24}

>  <energy>  (22) 
-9.03

>  <cluster_rmsd>  (22) 
1.26

>  <cluster>  (22) 
1

$$$$

     RDKit          3D

 73 78  0  0  0  0  0  0  0  0999 V2000
  143.3890   74.8020  219.9750 O   0  0  0  0  0  0  0  0  0  0  0  0
  142.1300   74.8160  220.0050 C   0  0  0  0  0  0  0  0  0  0  0  0
  141.3370   75.6050  219.1140 N   0  0  0  0  0  0  0  0  0  0  0  0
  141.9150   76.4690  218.1000 C   0  0  0  0  0  0  0  0  0  0  0  0
  142.4890   77.6960  218.7210 C   0  0  0  0  0  0  0  0  0  0  0  0
  141.5980   78.8930  218.7400 C   0  0  0  0  0  0  0  0  0  0  0  0
  142.1810   80.1040  219.3630 C   0  0  0  0  0  0  0  0  0  0  0  0
  141.0880   80.9120  220.0130 C   0  0  0  0  0  0  0  0  0  0  0  0
  139.9580   80.9310  219.0780 N   0  0  0  0  0  0  0  0  0  0  0  0
  139.2600   79.6610  219.1560 C   0  0  0  0  0  0  0  0  0  0  0  0
  140.2310   78.5080  219.2870 C   0  0  0  0  0  0  0  0  0  0  0  0
  141.4100   73.9980  220.9820 C   0  0  0  0  0  0  0  0  0  0  0  0
  141.7760   72.6460  221.0070 C   0  0  0  0  0  0  0  0  0  0  0  0
  141.1320   71.8790  221.8970 N   0  0  0  0  0  0  0  0  0  0  0  0
  140.1890   72.3370  222.7300 C   0  0  0  0  0  0  0  0  0  0  0  0
  139.5750   71.4170  223.6500 N   0  0  0  0  0  0  0  0  0  0  0  0
  138.6820   70.3720  223.2250 C   0  0  0  0  0  0  0  0  0  0  0  0
  139.1440   68.9880  223.6090 C   0  0  0  0  0  0  0  0  0  0  0  0
  139.7050   69.0120  224.9760 C   0  0  0  0  0  0  0  0  0  0  0  0
  139.9170   67.8170  225.6290 C   0  0  0  0  0  0  0  0  0  0  0  0
  140.4330   67.7870  226.9100 C   0  0  0  0  0  0  0  0  0  0  0  0
  140.7680   68.9350  227.6090 C   0  0  0  0  0  0  0  0  0  0  0  0
  140.5550   70.1400  226.9480 C   0  0  0  0  0  0  0  0  0  0  0  0
  140.0320   70.1710  225.6550 C   0  0  0  0  0  0  0  0  0  0  0  0
  139.8500   71.5310  225.0710 C   0  0  0  0  0  0  0  0  0  0  0  0
  139.8500   73.6300  222.6950 N   0  0  0  0  0  0  0  0  0  0  0  0
  140.4440   74.4990  221.8260 C   0  0  0  0  0  0  0  0  0  0  0  0
  140.0940   75.8770  221.7830 N   0  0  0  0  0  0  0  0  0  0  0  0
  138.8430   76.3870  221.3240 C   0  0  0  0  0  0  0  0  0  0  0  0
  138.2140   77.3780  222.2760 C   0  0  0  0  0  0  0  0  0  0  0  0
  139.2140   78.3940  222.6630 C   0  0  0  0  0  0  0  0  0  0  0  0
  138.7720   79.6420  223.0580 C   0  0  0  0  0  0  0  0  0  0  0  0
  139.7020   80.6030  223.4320 C   0  0  0  0  0  0  0  0  0  0  0  0
  141.0530   80.3580  223.4270 C   0  0  0  0  0  0  0  0  0  0  0  0
  141.4610   79.0990  223.0280 C   0  0  0  0  0  0  0  0  0  0  0  0
  140.5790   78.1180  222.6490 C   0  0  0  0  0  0  0  0  0  0  0  0
  141.1030   76.8190  222.2430 C   0  0  0  0  0  0  0  0  0  0  0  0
  140.2740   75.5460  219.2100 H   0  0  0  0  0  0  0  0  0  0  0  0
  142.7118   75.9243  217.5724 H   0  0  0  0  0  0  0  0  0  0  0  0
  141.1248   76.7653  217.3944 H   0  0  0  0  0  0  0  0  0  0  0  0
  142.7532   77.4556  219.7614 H   0  0  0  0  0  0  0  0  0  0  0  0
  143.3486   77.9739  218.0934 H   0  0  0  0  0  0  0  0  0  0  0  0
  141.4723   79.2163  217.6961 H   0  0  0  0  0  0  0  0  0  0  0  0
  142.9181   79.8062  220.1233 H   0  0  0  0  0  0  0  0  0  0  0  0
  142.6751   80.7114  218.5904 H   0  0  0  0  0  0  0  0  0  0  0  0
  140.7858   80.4450  220.9620 H   0  0  0  0  0  0  0  0  0  0  0  0
  141.4323   81.9329  220.2350 H   0  0  0  0  0  0  0  0  0  0  0  0
  140.3940   80.9690  218.1220 H   0  0  0  0  0  0  0  0  0  0  0  0
  138.5948   79.6708  220.0321 H   0  0  0  0  0  0  0  0  0  0  0  0
  138.6817   79.5249  218.2302 H   0  0  0  0  0  0  0  0  0  0  0  0
  140.3297   78.2375  220.3487 H   0  0  0  0  0  0  0  0  0  0  0  0
  139.8465   77.6538  218.7104 H   0  0  0  0  0  0  0  0  0  0  0  0
  142.5463   72.2383  220.3359 H   0  0  0  0  0  0  0  0  0  0  0  0
  137.6973   70.5490  223.6822 H   0  0  0  0  0  0  0  0  0  0  0  0
  138.6460   70.4062  222.1261 H   0  0  0  0  0  0  0  0  0  0  0  0
  138.2902   68.2952  223.5762 H   0  0  0  0  0  0  0  0  0  0  0  0
  139.9184   68.6533  222.9031 H   0  0  0  0  0  0  0  0  0  0  0  0
  139.6714   66.8722  225.1221 H   0  0  0  0  0  0  0  0  0  0  0  0
  140.5841   66.8113  227.3950 H   0  0  0  0  0  0  0  0  0  0  0  0
  141.1790   68.8958  228.6286 H   0  0  0  0  0  0  0  0  0  0  0  0
  140.8032   71.0850  227.4534 H   0  0  0  0  0  0  0  0  0  0  0  0
  139.0070   72.0332  225.5681 H   0  0  0  0  0  0  0  0  0  0  0  0
  140.7678   72.1188  225.2199 H   0  0  0  0  0  0  0  0  0  0  0  0
  139.0034   76.8859  220.3569 H   0  0  0  0  0  0  0  0  0  0  0  0
  138.1544   75.5332  221.2418 H   0  0  0  0  0  0  0  0  0  0  0  0
  137.3632   77.8706  221.7827 H   0  0  0  0  0  0  0  0  0  0  0  0
  137.8622   76.8498  223.1745 H   0  0  0  0  0  0  0  0  0  0  0  0
  137.6964   79.8716  223.0760 H   0  0  0  0  0  0  0  0  0  0  0  0
  139.3438   81.5954  223.7432 H   0  0  0  0  0  0  0  0  0  0  0  0
  141.7780   81.1289  223.7270 H   0  0  0  0  0  0  0  0  0  0  0  0
  142.5376   78.8739  223.0136 H   0  0  0  0  0  0  0  0  0  0  0  0
  141.8215   76.9789  221.4255 H   0  0  0  0  0  0  0  0  0  0  0  0
  141.5612   76.3734  223.1383 H   0  0  0  0  0  0  0  0  0  0  0  0
  1  2  2  0
  2  3  1  0
  3  4  1  0
  4  5  1  0
  5  6  1  0
  6  7  1  0
  7  8  1  0
  8  9  1  0
  9 10  1  0
 10 11  1  0
  2 12  1  0
 12 13  2  0
 13 14  1  0
 14 15  2  0
 15 16  1  0
 16 17  1  0
 17 18  1  0
 18 19  1  0
 19 20  2  0
 20 21  1  0
 21 22  2  0
 22 23  1  0
 23 24  2  0
 24 25  1  0
 15 26  1  0
 26 27  2  0
 27 28  1  0
 28 29  1  0
 29 30  1  0
 30 31  1  0
 31 32  2  0
 32 33  1  0
 33 34  2  0
 34 35  1  0
 35 36  2  0
 36 37  1  0
 11  6  1  0
 27 12  1  0
 37 28  1  0
 25 16  1  0
 36 31  1  0
 24 19  1  0
  3 38  1  0
  4 39  1  0
  4 40  1  0
  5 41  1  0
  5 42  1  0
  6 43  1  0
  7 44  1  0
  7 45  1  0
  8 46  1  0
  8 47  1  0
  9 48  1  0
 10 49  1  0
 10 50  1  0
 11 51  1  0
 11 52  1  0
 13 53  1  0
 17 54  1  0
 17 55  1  0
 18 56  1  0
 18 57  1  0
 20 58  1  0
 21 59  1  0
 22 60  1  0
 23 61  1  0
 25 62  1  0
 25 63  1  0
 29 64  1  0
 29 65  1  0
 30 66  1  0
 30 67  1  0
 32 68  1  0
 33 69  1  0
 34 70  1  0
 35 71  1  0
 37 72  1  0
 37 73  1  0
M  END
>  <smiles>  (23) 
O=C(NCCC1CCNCC1)c1cnc(N2CCc3ccccc3C2)nc1N1CCc2ccccc2C1

>  <score_type>  (23) 
oracle

>  <origin>  (23) 
autodockgpu

>  <m_score__min__energy>  (23) 
-10.16

>  <m_primary>  (23) 
energy

>  <rmsd>  (23) 
5.545780417262839

>  <m_score__min__rmsd>  (23) 
5.545780417262839

>  <meeko>  (23) 
{"free_energy": -9.03, "intermolecular_energy": -10.82, "internal_energy": -2.44, "cluster_size": 38, "cluster_id": 1, "rank_in_cluster": 22}

>  <energy>  (23) 
-9.02

>  <cluster_rmsd>  (23) 
1.3

>  <cluster>  (23) 
1

$$$$

     RDKit          3D

 73 78  0  0  0  0  0  0  0  0999 V2000
  141.3950   74.4370  218.6230 O   0  0  0  0  0  0  0  0  0  0  0  0
  141.8270   74.4860  219.8050 C   0  0  0  0  0  0  0  0  0  0  0  0
  142.9490   75.2840  220.1930 N   0  0  0  0  0  0  0  0  0  0  0  0
  143.6970   76.1010  219.2530 C   0  0  0  0  0  0  0  0  0  0  0  0
  142.7720   76.8980  218.3980 C   0  0  0  0  0  0  0  0  0  0  0  0
  142.0430   78.0050  219.0850 C   0  0  0  0  0  0  0  0  0  0  0  0
  140.5710   77.8500  219.1420 C   0  0  0  0  0  0  0  0  0  0  0  0
  139.9200   79.2090  219.1070 C   0  0  0  0  0  0  0  0  0  0  0  0
  140.6910   80.0750  220.0060 N   0  0  0  0  0  0  0  0  0  0  0  0
  141.9110   80.4850  219.3340 C   0  0  0  0  0  0  0  0  0  0  0  0
  142.5080   79.3460  218.5370 C   0  0  0  0  0  0  0  0  0  0  0  0
  141.1740   73.7070  220.8580 C   0  0  0  0  0  0  0  0  0  0  0  0
  141.4810   72.3400  220.8590 C   0  0  0  0  0  0  0  0  0  0  0  0
  140.8960   71.6070  221.8170 N   0  0  0  0  0  0  0  0  0  0  0  0
  140.0620   72.1120  222.7350 C   0  0  0  0  0  0  0  0  0  0  0  0
  139.5050   71.2260  223.7210 N   0  0  0  0  0  0  0  0  0  0  0  0
  138.5020   70.2430  223.4050 C   0  0  0  0  0  0  0  0  0  0  0  0
  138.9170   68.8290  223.7310 C   0  0  0  0  0  0  0  0  0  0  0  0
  139.6360   68.8080  225.0220 C   0  0  0  0  0  0  0  0  0  0  0  0
  139.8470   67.5960  225.6450 C   0  0  0  0  0  0  0  0  0  0  0  0
  140.5090   67.5240  226.8560 C   0  0  0  0  0  0  0  0  0  0  0  0
  140.9960   68.6430  227.5110 C   0  0  0  0  0  0  0  0  0  0  0  0
  140.7840   69.8640  226.8800 C   0  0  0  0  0  0  0  0  0  0  0  0
  140.1140   69.9380  225.6580 C   0  0  0  0  0  0  0  0  0  0  0  0
  139.9520   71.3110  225.1000 C   0  0  0  0  0  0  0  0  0  0  0  0
  139.7790   73.4190  222.7210 N   0  0  0  0  0  0  0  0  0  0  0  0
  140.3200   74.2550  221.7880 C   0  0  0  0  0  0  0  0  0  0  0  0
  140.0280   75.6470  221.7660 N   0  0  0  0  0  0  0  0  0  0  0  0
  138.7960   76.2160  221.3230 C   0  0  0  0  0  0  0  0  0  0  0  0
  138.2160   77.2190  222.2930 C   0  0  0  0  0  0  0  0  0  0  0  0
  139.2600   78.1870  222.6860 C   0  0  0  0  0  0  0  0  0  0  0  0
  138.8740   79.4470  223.1000 C   0  0  0  0  0  0  0  0  0  0  0  0
  139.8460   80.3620  223.4810 C   0  0  0  0  0  0  0  0  0  0  0  0
  141.1850   80.0610  223.4630 C   0  0  0  0  0  0  0  0  0  0  0  0
  141.5380   78.7910  223.0440 C   0  0  0  0  0  0  0  0  0  0  0  0
  140.6130   77.8540  222.6580 C   0  0  0  0  0  0  0  0  0  0  0  0
  141.0780   76.5400  222.2310 C   0  0  0  0  0  0  0  0  0  0  0  0
  143.2380   75.2670  221.2210 H   0  0  0  0  0  0  0  0  0  0  0  0
  144.3530   76.7852  219.8111 H   0  0  0  0  0  0  0  0  0  0  0  0
  144.2956   75.4410  218.6080 H   0  0  0  0  0  0  0  0  0  0  0  0
  143.3628   77.3388  217.5815 H   0  0  0  0  0  0  0  0  0  0  0  0
  141.9968   76.1944  218.0604 H   0  0  0  0  0  0  0  0  0  0  0  0
  142.3151   77.9570  220.1497 H   0  0  0  0  0  0  0  0  0  0  0  0
  140.2311   77.2585  218.2791 H   0  0  0  0  0  0  0  0  0  0  0  0
  140.2928   77.3345  220.0730 H   0  0  0  0  0  0  0  0  0  0  0  0
  139.9409   79.6120  218.0837 H   0  0  0  0  0  0  0  0  0  0  0  0
  138.8683   79.1497  219.4240 H   0  0  0  0  0  0  0  0  0  0  0  0
  140.9880   79.4510  220.7990 H   0  0  0  0  0  0  0  0  0  0  0  0
  141.6825   81.3180  218.6529 H   0  0  0  0  0  0  0  0  0  0  0  0
  142.6404   80.7953  220.0967 H   0  0  0  0  0  0  0  0  0  0  0  0
  142.1929   79.4359  217.4869 H   0  0  0  0  0  0  0  0  0  0  0  0
  143.6042   79.3980  218.6121 H   0  0  0  0  0  0  0  0  0  0  0  0
  142.1613   71.8948  220.1181 H   0  0  0  0  0  0  0  0  0  0  0  0
  137.5921   70.4787  223.9764 H   0  0  0  0  0  0  0  0  0  0  0  0
  138.3375   70.2882  222.3183 H   0  0  0  0  0  0  0  0  0  0  0  0
  138.0230   68.1918  223.7996 H   0  0  0  0  0  0  0  0  0  0  0  0
  139.5791   68.4508  222.9382 H   0  0  0  0  0  0  0  0  0  0  0  0
  139.4829   66.6726  225.1709 H   0  0  0  0  0  0  0  0  0  0  0  0
  140.6552   66.5369  227.3189 H   0  0  0  0  0  0  0  0  0  0  0  0
  141.5205   68.5701  228.4752 H   0  0  0  0  0  0  0  0  0  0  0  0
  141.1507   70.7873  227.3522 H   0  0  0  0  0  0  0  0  0  0  0  0
  139.2071   71.8618  225.6931 H   0  0  0  0  0  0  0  0  0  0  0  0
  140.9167   71.8380  225.1398 H   0  0  0  0  0  0  0  0  0  0  0  0
  138.9709   76.7213  220.3617 H   0  0  0  0  0  0  0  0  0  0  0  0
  138.0713   75.3932  221.2340 H   0  0  0  0  0  0  0  0  0  0  0  0
  137.3829   77.7534  221.8130 H   0  0  0  0  0  0  0  0  0  0  0  0
  137.8491   76.6935  223.1870 H   0  0  0  0  0  0  0  0  0  0  0  0
  137.8093   79.7220  223.1275 H   0  0  0  0  0  0  0  0  0  0  0  0
  139.5319   81.3639  223.8090 H   0  0  0  0  0  0  0  0  0  0  0  0
  141.9435   80.7969  223.7682 H   0  0  0  0  0  0  0  0  0  0  0  0
  142.6041   78.5211  223.0192 H   0  0  0  0  0  0  0  0  0  0  0  0
  141.7970   76.6806  221.4105 H   0  0  0  0  0  0  0  0  0  0  0  0
  141.5221   76.0636  223.1174 H   0  0  0  0  0  0  0  0  0  0  0  0
  1  2  2  0
  2  3  1  0
  3  4  1  0
  4  5  1  0
  5  6  1  0
  6  7  1  0
  7  8  1  0
  8  9  1  0
  9 10  1  0
 10 11  1  0
  2 12  1  0
 12 13  2  0
 13 14  1  0
 14 15  2  0
 15 16  1  0
 16 17  1  0
 17 18  1  0
 18 19  1  0
 19 20  2  0
 20 21  1  0
 21 22  2  0
 22 23  1  0
 23 24  2  0
 24 25  1  0
 15 26  1  0
 26 27  2  0
 27 28  1  0
 28 29  1  0
 29 30  1  0
 30 31  1  0
 31 32  2  0
 32 33  1  0
 33 34  2  0
 34 35  1  0
 35 36  2  0
 36 37  1  0
 11  6  1  0
 27 12  1  0
 37 28  1  0
 25 16  1  0
 36 31  1  0
 24 19  1  0
  3 38  1  0
  4 39  1  0
  4 40  1  0
  5 41  1  0
  5 42  1  0
  6 43  1  0
  7 44  1  0
  7 45  1  0
  8 46  1  0
  8 47  1  0
  9 48  1  0
 10 49  1  0
 10 50  1  0
 11 51  1  0
 11 52  1  0
 13 53  1  0
 17 54  1  0
 17 55  1  0
 18 56  1  0
 18 57  1  0
 20 58  1  0
 21 59  1  0
 22 60  1  0
 23 61  1  0
 25 62  1  0
 25 63  1  0
 29 64  1  0
 29 65  1  0
 30 66  1  0
 30 67  1  0
 32 68  1  0
 33 69  1  0
 34 70  1  0
 35 71  1  0
 37 72  1  0
 37 73  1  0
M  END
>  <smiles>  (24) 
O=C(NCCC1CCNCC1)c1cnc(N2CCc3ccccc3C2)nc1N1CCc2ccccc2C1

>  <score_type>  (24) 
oracle

>  <origin>  (24) 
autodockgpu

>  <m_score__min__energy>  (24) 
-10.16

>  <m_primary>  (24) 
energy

>  <rmsd>  (24) 
5.580521805232546

>  <m_score__min__rmsd>  (24) 
5.580521805232546

>  <meeko>  (24) 
{"free_energy": -9.72, "intermolecular_energy": -11.51, "internal_energy": -2.42, "cluster_size": 38, "cluster_id": 1, "rank_in_cluster": 5}

>  <energy>  (24) 
-8.97

>  <cluster_rmsd>  (24) 
1.36

>  <cluster>  (24) 
1

$$$$

     RDKit          3D

 73 78  0  0  0  0  0  0  0  0999 V2000
  141.7890   73.8910  218.5060 O   0  0  0  0  0  0  0  0  0  0  0  0
  141.8990   74.3630  219.6680 C   0  0  0  0  0  0  0  0  0  0  0  0
  142.6360   75.5520  219.9600 N   0  0  0  0  0  0  0  0  0  0  0  0
  143.3350   76.3170  218.9420 C   0  0  0  0  0  0  0  0  0  0  0  0
  142.3640   76.9510  218.0040 C   0  0  0  0  0  0  0  0  0  0  0  0
  142.5570   78.4100  217.7580 C   0  0  0  0  0  0  0  0  0  0  0  0
  142.3510   79.2820  218.9390 C   0  0  0  0  0  0  0  0  0  0  0  0
  141.8120   80.6160  218.4920 C   0  0  0  0  0  0  0  0  0  0  0  0
  142.5770   81.0090  217.3030 N   0  0  0  0  0  0  0  0  0  0  0  0
  142.0830   80.2660  216.1580 C   0  0  0  0  0  0  0  0  0  0  0  0
  141.7680   78.8330  216.5270 C   0  0  0  0  0  0  0  0  0  0  0  0
  141.2520   73.6910  220.7960 C   0  0  0  0  0  0  0  0  0  0  0  0
  141.5090   72.3170  220.8930 C   0  0  0  0  0  0  0  0  0  0  0  0
  140.9300   71.6820  221.9210 N   0  0  0  0  0  0  0  0  0  0  0  0
  140.1450   72.2870  222.8230 C   0  0  0  0  0  0  0  0  0  0  0  0
  139.5880   71.4990  223.8900 N   0  0  0  0  0  0  0  0  0  0  0  0
  138.3860   70.7220  223.7370 C   0  0  0  0  0  0  0  0  0  0  0  0
  138.5790   69.2510  224.0110 C   0  0  0  0  0  0  0  0  0  0  0  0
  139.4670   69.0750  225.1790 C   0  0  0  0  0  0  0  0  0  0  0  0
  139.5420   67.8340  225.7750 C   0  0  0  0  0  0  0  0  0  0  0  0
  140.3530   67.6200  226.8730 C   0  0  0  0  0  0  0  0  0  0  0  0
  141.1300   68.6190  227.4370 C   0  0  0  0  0  0  0  0  0  0  0  0
  141.0530   69.8690  226.8340 C   0  0  0  0  0  0  0  0  0  0  0  0
  140.2330   70.0870  225.7250 C   0  0  0  0  0  0  0  0  0  0  0  0
  140.2450   71.4770  225.1850 C   0  0  0  0  0  0  0  0  0  0  0  0
  139.9090   73.5990  222.7160 N   0  0  0  0  0  0  0  0  0  0  0  0
  140.4500   74.3400  221.7070 C   0  0  0  0  0  0  0  0  0  0  0  0
  140.2080   75.7370  221.5870 N   0  0  0  0  0  0  0  0  0  0  0  0
  139.1880   76.3220  220.7790 C   0  0  0  0  0  0  0  0  0  0  0  0
  138.3550   77.3480  221.5140 C   0  0  0  0  0  0  0  0  0  0  0  0
  139.2450   78.3010  222.2080 C   0  0  0  0  0  0  0  0  0  0  0  0
  138.7750   79.5730  222.4740 C   0  0  0  0  0  0  0  0  0  0  0  0
  139.5990   80.4750  223.1330 C   0  0  0  0  0  0  0  0  0  0  0  0
  140.8710   80.1490  223.5350 C   0  0  0  0  0  0  0  0  0  0  0  0
  141.3090   78.8690  223.2540 C   0  0  0  0  0  0  0  0  0  0  0  0
  140.5310   77.9440  222.6050 C   0  0  0  0  0  0  0  0  0  0  0  0
  141.0800   76.6160  222.3510 C   0  0  0  0  0  0  0  0  0  0  0  0
  142.6670   75.8800  220.9770 H   0  0  0  0  0  0  0  0  0  0  0  0
  143.9343   77.1016  219.4270 H   0  0  0  0  0  0  0  0  0  0  0  0
  143.9869   75.6381  218.3728 H   0  0  0  0  0  0  0  0  0  0  0  0
  142.4412   76.4325  217.0369 H   0  0  0  0  0  0  0  0  0  0  0  0
  141.3791   76.8567  218.4847 H   0  0  0  0  0  0  0  0  0  0  0  0
  143.6265   78.5618  217.5503 H   0  0  0  0  0  0  0  0  0  0  0  0
  141.6329   78.8075  219.6240 H   0  0  0  0  0  0  0  0  0  0  0  0
  143.3102   79.4296  219.4569 H   0  0  0  0  0  0  0  0  0  0  0  0
  140.7442   80.5281  218.2426 H   0  0  0  0  0  0  0  0  0  0  0  0
  141.9107   81.3673  219.2893 H   0  0  0  0  0  0  0  0  0  0  0  0
  143.5550   80.6620  217.4790 H   0  0  0  0  0  0  0  0  0  0  0  0
  141.1680   80.7493  215.7848 H   0  0  0  0  0  0  0  0  0  0  0  0
  142.8643   80.2615  215.3837 H   0  0  0  0  0  0  0  0  0  0  0  0
  140.6923   78.7424  216.7385 H   0  0  0  0  0  0  0  0  0  0  0  0
  142.0471   78.1811  215.6861 H   0  0  0  0  0  0  0  0  0  0  0  0
  142.1480   71.7910  220.1684 H   0  0  0  0  0  0  0  0  0  0  0  0
  137.6300   71.1097  224.4357 H   0  0  0  0  0  0  0  0  0  0  0  0
  138.0724   70.8162  222.6869 H   0  0  0  0  0  0  0  0  0  0  0  0
  137.6038   68.7868  224.2197 H   0  0  0  0  0  0  0  0  0  0  0  0
  139.0346   68.7730  223.1313 H   0  0  0  0  0  0  0  0  0  0  0  0
  138.9473   67.0018  225.3703 H   0  0  0  0  0  0  0  0  0  0  0  0
  140.3830   66.6145  227.3180 H   0  0  0  0  0  0  0  0  0  0  0  0
  141.7709   68.4336  228.3116 H   0  0  0  0  0  0  0  0  0  0  0  0
  141.6485   70.7012  227.2375 H   0  0  0  0  0  0  0  0  0  0  0  0
  139.7117   72.1442  225.8781 H   0  0  0  0  0  0  0  0  0  0  0  0
  141.2848   71.8184  225.0744 H   0  0  0  0  0  0  0  0  0  0  0  0
  139.6641   76.8120  219.9169 H   0  0  0  0  0  0  0  0  0  0  0  0
  138.5101   75.5112  220.4739 H   0  0  0  0  0  0  0  0  0  0  0  0
  137.7252   77.8920  220.7947 H   0  0  0  0  0  0  0  0  0  0  0  0
  137.7158   76.8404  222.2515 H   0  0  0  0  0  0  0  0  0  0  0  0
  137.7604   79.8671  222.1673 H   0  0  0  0  0  0  0  0  0  0  0  0
  139.2198   81.4865  223.3405 H   0  0  0  0  0  0  0  0  0  0  0  0
  141.5123   80.8742  224.0572 H   0  0  0  0  0  0  0  0  0  0  0  0
  142.3241   78.5795  223.5636 H   0  0  0  0  0  0  0  0  0  0  0  0
  142.0212   76.7344  221.7942 H   0  0  0  0  0  0  0  0  0  0  0  0
  141.2175   76.1418  223.3340 H   0  0  0  0  0  0  0  0  0  0  0  0
  1  2  2  0
  2  3  1  0
  3  4  1  0
  4  5  1  0
  5  6  1  0
  6  7  1  0
  7  8  1  0
  8  9  1  0
  9 10  1  0
 10 11  1  0
  2 12  1  0
 12 13  2  0
 13 14  1  0
 14 15  2  0
 15 16  1  0
 16 17  1  0
 17 18  1  0
 18 19  1  0
 19 20  2  0
 20 21  1  0
 21 22  2  0
 22 23  1  0
 23 24  2  0
 24 25  1  0
 15 26  1  0
 26 27  2  0
 27 28  1  0
 28 29  1  0
 29 30  1  0
 30 31  1  0
 31 32  2  0
 32 33  1  0
 33 34  2  0
 34 35  1  0
 35 36  2  0
 36 37  1  0
 11  6  1  0
 27 12  1  0
 37 28  1  0
 25 16  1  0
 36 31  1  0
 24 19  1  0
  3 38  1  0
  4 39  1  0
  4 40  1  0
  5 41  1  0
  5 42  1  0
  6 43  1  0
  7 44  1  0
  7 45  1  0
  8 46  1  0
  8 47  1  0
  9 48  1  0
 10 49  1  0
 10 50  1  0
 11 51  1  0
 11 52  1  0
 13 53  1  0
 17 54  1  0
 17 55  1  0
 18 56  1  0
 18 57  1  0
 20 58  1  0
 21 59  1  0
 22 60  1  0
 23 61  1  0
 25 62  1  0
 25 63  1  0
 29 64  1  0
 29 65  1  0
 30 66  1  0
 30 67  1  0
 32 68  1  0
 33 69  1  0
 34 70  1  0
 35 71  1  0
 37 72  1  0
 37 73  1  0
M  END
>  <smiles>  (25) 
O=C(NCCC1CCNCC1)c1cnc(N2CCc3ccccc3C2)nc1N1CCc2ccccc2C1

>  <score_type>  (25) 
oracle

>  <origin>  (25) 
autodockgpu

>  <m_score__min__energy>  (25) 
-10.16

>  <m_primary>  (25) 
energy

>  <rmsd>  (25) 
6.069132217880843

>  <m_score__min__rmsd>  (25) 
6.069132217880843

>  <meeko>  (25) 
{"free_energy": -10.16, "intermolecular_energy": -11.95, "internal_energy": -1.6, "cluster_size": 38, "cluster_id": 1, "rank_in_cluster": 1}

>  <energy>  (25) 
-8.97

>  <cluster_rmsd>  (25) 
1.2

>  <cluster>  (25) 
1

$$$$

     RDKit          3D

 73 78  0  0  0  0  0  0  0  0999 V2000
  141.2350   73.6310  218.4360 O   0  0  0  0  0  0  0  0  0  0  0  0
  141.6040   73.9330  219.6010 C   0  0  0  0  0  0  0  0  0  0  0  0
  142.5970   74.9260  219.8720 N   0  0  0  0  0  0  0  0  0  0  0  0
  143.2750   75.6680  218.8240 C   0  0  0  0  0  0  0  0  0  0  0  0
  143.2930   77.1250  219.1390 C   0  0  0  0  0  0  0  0  0  0  0  0
  142.1040   77.9030  218.6840 C   0  0  0  0  0  0  0  0  0  0  0  0
  141.8690   79.1760  219.4050 C   0  0  0  0  0  0  0  0  0  0  0  0
  140.3900   79.4580  219.4600 C   0  0  0  0  0  0  0  0  0  0  0  0
  139.8470   79.1540  218.1320 N   0  0  0  0  0  0  0  0  0  0  0  0
  139.7120   77.7150  217.9960 C   0  0  0  0  0  0  0  0  0  0  0  0
  140.8870   76.9920  218.6170 C   0  0  0  0  0  0  0  0  0  0  0  0
  141.0100   73.2590  220.7560 C   0  0  0  0  0  0  0  0  0  0  0  0
  141.2550   71.8810  220.8290 C   0  0  0  0  0  0  0  0  0  0  0  0
  140.7230   71.2440  221.8800 N   0  0  0  0  0  0  0  0  0  0  0  0
  139.9950   71.8500  222.8280 C   0  0  0  0  0  0  0  0  0  0  0  0
  139.4850   71.0600  223.9160 N   0  0  0  0  0  0  0  0  0  0  0  0
  138.5860   69.9540  223.7200 C   0  0  0  0  0  0  0  0  0  0  0  0
  139.1140   68.6440  224.2500 C   0  0  0  0  0  0  0  0  0  0  0  0
  139.7880   68.8670  225.5460 C   0  0  0  0  0  0  0  0  0  0  0  0
  140.0850   67.7790  226.3380 C   0  0  0  0  0  0  0  0  0  0  0  0
  140.7090   67.9360  227.5600 C   0  0  0  0  0  0  0  0  0  0  0  0
  141.0720   69.1740  228.0610 C   0  0  0  0  0  0  0  0  0  0  0  0
  140.7730   70.2720  227.2610 C   0  0  0  0  0  0  0  0  0  0  0  0
  140.1420   70.1140  226.0270 C   0  0  0  0  0  0  0  0  0  0  0  0
  139.8770   71.3760  225.2790 C   0  0  0  0  0  0  0  0  0  0  0  0
  139.7690   73.1660  222.7450 N   0  0  0  0  0  0  0  0  0  0  0  0
  140.2650   73.9100  221.7140 C   0  0  0  0  0  0  0  0  0  0  0  0
  140.0350   75.3100  221.6190 N   0  0  0  0  0  0  0  0  0  0  0  0
  138.8660   75.9090  221.0600 C   0  0  0  0  0  0  0  0  0  0  0  0
  138.2550   76.9720  221.9440 C   0  0  0  0  0  0  0  0  0  0  0  0
  139.3070   77.9130  222.3820 C   0  0  0  0  0  0  0  0  0  0  0  0
  138.9430   79.2020  222.7190 C   0  0  0  0  0  0  0  0  0  0  0  0
  139.9210   80.0930  223.1410 C   0  0  0  0  0  0  0  0  0  0  0  0
  141.2440   79.7390  223.2390 C   0  0  0  0  0  0  0  0  0  0  0  0
  141.5730   78.4410  222.8950 C   0  0  0  0  0  0  0  0  0  0  0  0
  140.6420   77.5260  222.4720 C   0  0  0  0  0  0  0  0  0  0  0  0
  141.0830   76.1790  222.1310 C   0  0  0  0  0  0  0  0  0  0  0  0
  142.8400   75.1190  220.8940 H   0  0  0  0  0  0  0  0  0  0  0  0
  144.3095   75.3047  218.7353 H   0  0  0  0  0  0  0  0  0  0  0  0
  142.7357   75.5169  217.8773 H   0  0  0  0  0  0  0  0  0  0  0  0
  143.3692   77.2332  220.2310 H   0  0  0  0  0  0  0  0  0  0  0  0
  144.1497   77.5391  218.5872 H   0  0  0  0  0  0  0  0  0  0  0  0
  142.3238   78.2583  217.6664 H   0  0  0  0  0  0  0  0  0  0  0  0
  142.2651   79.0962  220.4281 H   0  0  0  0  0  0  0  0  0  0  0  0
  142.3785   79.9954  218.8767 H   0  0  0  0  0  0  0  0  0  0  0  0
  139.9118   78.8211  220.2188 H   0  0  0  0  0  0  0  0  0  0  0  0
  140.1997   80.5068  219.7318 H   0  0  0  0  0  0  0  0  0  0  0  0
  140.5990   79.4440  217.4560 H   0  0  0  0  0  0  0  0  0  0  0  0
  138.7874   77.3928  218.4972 H   0  0  0  0  0  0  0  0  0  0  0  0
  139.6796   77.4688  216.9244 H   0  0  0  0  0  0  0  0  0  0  0  0
  140.6180   76.6732  219.6348 H   0  0  0  0  0  0  0  0  0  0  0  0
  141.1330   76.1179  217.9961 H   0  0  0  0  0  0  0  0  0  0  0  0
  141.8491   71.3539  220.0680 H   0  0  0  0  0  0  0  0  0  0  0  0
  137.6396   70.1803  224.2329 H   0  0  0  0  0  0  0  0  0  0  0  0
  138.4557   69.8333  222.6344 H   0  0  0  0  0  0  0  0  0  0  0  0
  138.2785   67.9420  224.3883 H   0  0  0  0  0  0  0  0  0  0  0  0
  139.8340   68.2241  223.5322 H   0  0  0  0  0  0  0  0  0  0  0  0
  139.8208   66.7691  225.9912 H   0  0  0  0  0  0  0  0  0  0  0  0
  140.9265   67.0400  228.1599 H   0  0  0  0  0  0  0  0  0  0  0  0
  141.5687   69.2835  229.0363 H   0  0  0  0  0  0  0  0  0  0  0  0
  141.0386   71.2817  227.6073 H   0  0  0  0  0  0  0  0  0  0  0  0
  139.0668   71.9318  225.7737 H   0  0  0  0  0  0  0  0  0  0  0  0
  140.7889   71.9910  225.2642 H   0  0  0  0  0  0  0  0  0  0  0  0
  139.1358   76.3685  220.0977 H   0  0  0  0  0  0  0  0  0  0  0  0
  138.1164   75.1123  220.9446 H   0  0  0  0  0  0  0  0  0  0  0  0
  137.4850   77.5193  221.3806 H   0  0  0  0  0  0  0  0  0  0  0  0
  137.7974   76.4978  222.8248 H   0  0  0  0  0  0  0  0  0  0  0  0
  137.8916   79.5189  222.6539 H   0  0  0  0  0  0  0  0  0  0  0  0
  139.6253   81.1188  223.4062 H   0  0  0  0  0  0  0  0  0  0  0  0
  142.0075   80.4556  223.5759 H   0  0  0  0  0  0  0  0  0  0  0  0
  142.6255   78.1286  222.9633 H   0  0  0  0  0  0  0  0  0  0  0  0
  141.8676   76.2587  221.3642 H   0  0  0  0  0  0  0  0  0  0  0  0
  141.4382   75.7213  223.0660 H   0  0  0  0  0  0  0  0  0  0  0  0
  1  2  2  0
  2  3  1  0
  3  4  1  0
  4  5  1  0
  5  6  1  0
  6  7  1  0
  7  8  1  0
  8  9  1  0
  9 10  1  0
 10 11  1  0
  2 12  1  0
 12 13  2  0
 13 14  1  0
 14 15  2  0
 15 16  1  0
 16 17  1  0
 17 18  1  0
 18 19  1  0
 19 20  2  0
 20 21  1  0
 21 22  2  0
 22 23  1  0
 23 24  2  0
 24 25  1  0
 15 26  1  0
 26 27  2  0
 27 28  1  0
 28 29  1  0
 29 30  1  0
 30 31  1  0
 31 32  2  0
 32 33  1  0
 33 34  2  0
 34 35  1  0
 35 36  2  0
 36 37  1  0
 11  6  1  0
 27 12  1  0
 37 28  1  0
 25 16  1  0
 36 31  1  0
 24 19  1  0
  3 38  1  0
  4 39  1  0
  4 40  1  0
  5 41  1  0
  5 42  1  0
  6 43  1  0
  7 44  1  0
  7 45  1  0
  8 46  1  0
  8 47  1  0
  9 48  1  0
 10 49  1  0
 10 50  1  0
 11 51  1  0
 11 52  1  0
 13 53  1  0
 17 54  1  0
 17 55  1  0
 18 56  1  0
 18 57  1  0
 20 58  1  0
 21 59  1  0
 22 60  1  0
 23 61  1  0
 25 62  1  0
 25 63  1  0
 29 64  1  0
 29 65  1  0
 30 66  1  0
 30 67  1  0
 32 68  1  0
 33 69  1  0
 34 70  1  0
 35 71  1  0
 37 72  1  0
 37 73  1  0
M  END
>  <smiles>  (26) 
O=C(NCCC1CCNCC1)c1cnc(N2CCc3ccccc3C2)nc1N1CCc2ccccc2C1

>  <score_type>  (26) 
oracle

>  <origin>  (26) 
autodockgpu

>  <m_score__min__energy>  (26) 
-10.16

>  <m_primary>  (26) 
energy

>  <rmsd>  (26) 
5.29845831308534

>  <m_score__min__rmsd>  (26) 
5.29845831308534

>  <meeko>  (26) 
{"free_energy": -8.97, "intermolecular_energy": -10.76, "internal_energy": -2.48, "cluster_size": 38, "cluster_id": 1, "rank_in_cluster": 26}

>  <energy>  (26) 
-8.97

>  <cluster_rmsd>  (26) 
1.12

>  <cluster>  (26) 
1

$$$$

     RDKit          3D

 73 78  0  0  0  0  0  0  0  0999 V2000
  141.5510   74.0980  218.6400 O   0  0  0  0  0  0  0  0  0  0  0  0
  141.8640   74.3290  219.8380 C   0  0  0  0  0  0  0  0  0  0  0  0
  142.8470   75.2970  220.2140 N   0  0  0  0  0  0  0  0  0  0  0  0
  143.5800   76.0930  219.2450 C   0  0  0  0  0  0  0  0  0  0  0  0
  142.6410   76.7700  218.3050 C   0  0  0  0  0  0  0  0  0  0  0  0
  141.8040   77.8580  218.8920 C   0  0  0  0  0  0  0  0  0  0  0  0
  140.3770   77.8400  218.4940 C   0  0  0  0  0  0  0  0  0  0  0  0
  139.8480   79.2500  218.4550 C   0  0  0  0  0  0  0  0  0  0  0  0
  140.3600   79.9320  219.6480 N   0  0  0  0  0  0  0  0  0  0  0  0
  141.7480   80.2960  219.4240 C   0  0  0  0  0  0  0  0  0  0  0  0
  142.4900   79.2010  218.6900 C   0  0  0  0  0  0  0  0  0  0  0  0
  141.2120   73.5940  220.9220 C   0  0  0  0  0  0  0  0  0  0  0  0
  141.5200   72.2280  220.9810 C   0  0  0  0  0  0  0  0  0  0  0  0
  140.9350   71.5360  221.9680 N   0  0  0  0  0  0  0  0  0  0  0  0
  140.1000   72.0780  222.8650 C   0  0  0  0  0  0  0  0  0  0  0  0
  139.5430   71.2330  223.8870 N   0  0  0  0  0  0  0  0  0  0  0  0
  138.6370   70.1540  223.5940 C   0  0  0  0  0  0  0  0  0  0  0  0
  139.1290   68.8070  224.0640 C   0  0  0  0  0  0  0  0  0  0  0  0
  139.7600   68.9450  225.3930 C   0  0  0  0  0  0  0  0  0  0  0  0
  140.0150   67.8070  226.1290 C   0  0  0  0  0  0  0  0  0  0  0  0
  140.5980   67.8830  227.3790 C   0  0  0  0  0  0  0  0  0  0  0  0
  140.9590   69.0850  227.9650 C   0  0  0  0  0  0  0  0  0  0  0  0
  140.7020   70.2310  227.2210 C   0  0  0  0  0  0  0  0  0  0  0  0
  140.1120   70.1560  225.9590 C   0  0  0  0  0  0  0  0  0  0  0  0
  139.8900   71.4640  225.2780 C   0  0  0  0  0  0  0  0  0  0  0  0
  139.8150   73.3830  222.7950 N   0  0  0  0  0  0  0  0  0  0  0  0
  140.3570   74.1800  221.8290 C   0  0  0  0  0  0  0  0  0  0  0  0
  140.0640   75.5690  221.7480 N   0  0  0  0  0  0  0  0  0  0  0  0
  138.8760   76.1210  221.1800 C   0  0  0  0  0  0  0  0  0  0  0  0
  138.2050   77.1430  222.0700 C   0  0  0  0  0  0  0  0  0  0  0  0
  139.2060   78.1250  222.5350 C   0  0  0  0  0  0  0  0  0  0  0  0
  138.7790   79.3920  222.8830 C   0  0  0  0  0  0  0  0  0  0  0  0
  139.7090   80.3210  223.3310 C   0  0  0  0  0  0  0  0  0  0  0  0
  141.0450   80.0260  223.4430 C   0  0  0  0  0  0  0  0  0  0  0  0
  141.4390   78.7500  223.0870 C   0  0  0  0  0  0  0  0  0  0  0  0
  140.5560   77.7990  222.6390 C   0  0  0  0  0  0  0  0  0  0  0  0
  141.0640   76.4780  222.2870 C   0  0  0  0  0  0  0  0  0  0  0  0
  143.0410   75.4290  221.2560 H   0  0  0  0  0  0  0  0  0  0  0  0
  144.1717   76.8536  219.7754 H   0  0  0  0  0  0  0  0  0  0  0  0
  144.2420   75.4298  218.6690 H   0  0  0  0  0  0  0  0  0  0  0  0
  143.2363   77.2055  217.4890 H   0  0  0  0  0  0  0  0  0  0  0  0
  141.9340   75.9930  217.9786 H   0  0  0  0  0  0  0  0  0  0  0  0
  141.7382   77.6652  219.9730 H   0  0  0  0  0  0  0  0  0  0  0  0
  140.2801   77.3845  217.4975 H   0  0  0  0  0  0  0  0  0  0  0  0
  139.8005   77.2525  219.2237 H   0  0  0  0  0  0  0  0  0  0  0  0
  140.2006   79.7610  217.5470 H   0  0  0  0  0  0  0  0  0  0  0  0
  138.7481   79.2568  218.4400 H   0  0  0  0  0  0  0  0  0  0  0  0
  140.3670   79.1980  220.4020 H   0  0  0  0  0  0  0  0  0  0  0  0
  141.7848   81.2179  218.8250 H   0  0  0  0  0  0  0  0  0  0  0  0
  142.2298   80.4482  220.4011 H   0  0  0  0  0  0  0  0  0  0  0  0
  142.5123   79.4372  217.6159 H   0  0  0  0  0  0  0  0  0  0  0  0
  143.5135   79.1389  219.0883 H   0  0  0  0  0  0  0  0  0  0  0  0
  142.2013   71.7524  220.2601 H   0  0  0  0  0  0  0  0  0  0  0  0
  137.6757   70.3640  224.0857 H   0  0  0  0  0  0  0  0  0  0  0  0
  138.5441   70.0993  222.4993 H   0  0  0  0  0  0  0  0  0  0  0  0
  138.2801   68.1108  224.1325 H   0  0  0  0  0  0  0  0  0  0  0  0
  139.8678   68.4181  223.3478 H   0  0  0  0  0  0  0  0  0  0  0  0
  139.7500   66.8233  225.7142 H   0  0  0  0  0  0  0  0  0  0  0  0
  140.7833   66.9503  227.9319 H   0  0  0  0  0  0  0  0  0  0  0  0
  141.4223   69.1303  228.9616 H   0  0  0  0  0  0  0  0  0  0  0  0
  140.9687   71.2147  227.6349 H   0  0  0  0  0  0  0  0  0  0  0  0
  139.0699   72.0021  225.7760 H   0  0  0  0  0  0  0  0  0  0  0  0
  140.8092   72.0658  225.3314 H   0  0  0  0  0  0  0  0  0  0  0  0
  139.1372   76.6056  220.2276 H   0  0  0  0  0  0  0  0  0  0  0  0
  138.1655   75.2925  221.0431 H   0  0  0  0  0  0  0  0  0  0  0  0
  137.4180   77.6621  221.5033 H   0  0  0  0  0  0  0  0  0  0  0  0
  137.7585   76.6360  222.9381 H   0  0  0  0  0  0  0  0  0  0  0  0
  137.7153   79.6617  222.8062 H   0  0  0  0  0  0  0  0  0  0  0  0
  139.3630   81.3284  223.6057 H   0  0  0  0  0  0  0  0  0  0  0  0
  141.7699   80.7722  223.8003 H   0  0  0  0  0  0  0  0  0  0  0  0
  142.5038   78.4855  223.1659 H   0  0  0  0  0  0  0  0  0  0  0  0
  141.8550   76.6042  221.5331 H   0  0  0  0  0  0  0  0  0  0  0  0
  141.4270   76.0242  223.2210 H   0  0  0  0  0  0  0  0  0  0  0  0
  1  2  2  0
  2  3  1  0
  3  4  1  0
  4  5  1  0
  5  6  1  0
  6  7  1  0
  7  8  1  0
  8  9  1  0
  9 10  1  0
 10 11  1  0
  2 12  1  0
 12 13  2  0
 13 14  1  0
 14 15  2  0
 15 16  1  0
 16 17  1  0
 17 18  1  0
 18 19  1  0
 19 20  2  0
 20 21  1  0
 21 22  2  0
 22 23  1  0
 23 24  2  0
 24 25  1  0
 15 26  1  0
 26 27  2  0
 27 28  1  0
 28 29  1  0
 29 30  1  0
 30 31  1  0
 31 32  2  0
 32 33  1  0
 33 34  2  0
 34 35  1  0
 35 36  2  0
 36 37  1  0
 11  6  1  0
 27 12  1  0
 37 28  1  0
 25 16  1  0
 36 31  1  0
 24 19  1  0
  3 38  1  0
  4 39  1  0
  4 40  1  0
  5 41  1  0
  5 42  1  0
  6 43  1  0
  7 44  1  0
  7 45  1  0
  8 46  1  0
  8 47  1  0
  9 48  1  0
 10 49  1  0
 10 50  1  0
 11 51  1  0
 11 52  1  0
 13 53  1  0
 17 54  1  0
 17 55  1  0
 18 56  1  0
 18 57  1  0
 20 58  1  0
 21 59  1  0
 22 60  1  0
 23 61  1  0
 25 62  1  0
 25 63  1  0
 29 64  1  0
 29 65  1  0
 30 66  1  0
 30 67  1  0
 32 68  1  0
 33 69  1  0
 34 70  1  0
 35 71  1  0
 37 72  1  0
 37 73  1  0
M  END
>  <smiles>  (27) 
O=C(NCCC1CCNCC1)c1cnc(N2CCc3ccccc3C2)nc1N1CCc2ccccc2C1

>  <score_type>  (27) 
oracle

>  <origin>  (27) 
autodockgpu

>  <m_score__min__energy>  (27) 
-10.16

>  <m_primary>  (27) 
energy

>  <rmsd>  (27) 
5.539859556726163

>  <m_score__min__rmsd>  (27) 
5.539859556726163

>  <meeko>  (27) 
{"free_energy": -9.47, "intermolecular_energy": -11.26, "internal_energy": -2.46, "cluster_size": 38, "cluster_id": 1, "rank_in_cluster": 8}

>  <energy>  (27) 
-8.95

>  <cluster_rmsd>  (27) 
1.12

>  <cluster>  (27) 
1

$$$$

     RDKit          3D

 73 78  0  0  0  0  0  0  0  0999 V2000
  143.3000   74.8150  220.0370 O   0  0  0  0  0  0  0  0  0  0  0  0
  142.0430   74.7530  220.0050 C   0  0  0  0  0  0  0  0  0  0  0  0
  141.2510   75.4530  219.0420 N   0  0  0  0  0  0  0  0  0  0  0  0
  141.8280   76.3080  218.0190 C   0  0  0  0  0  0  0  0  0  0  0  0
  142.4370   77.5230  218.6330 C   0  0  0  0  0  0  0  0  0  0  0  0
  141.5570   78.7260  218.7050 C   0  0  0  0  0  0  0  0  0  0  0  0
  142.1770   79.9260  219.3140 C   0  0  0  0  0  0  0  0  0  0  0  0
  141.1200   80.7340  220.0210 C   0  0  0  0  0  0  0  0  0  0  0  0
  139.9490   80.7720  219.1390 N   0  0  0  0  0  0  0  0  0  0  0  0
  139.2460   79.5060  219.2340 C   0  0  0  0  0  0  0  0  0  0  0  0
  140.2130   78.3450  219.3080 C   0  0  0  0  0  0  0  0  0  0  0  0
  141.3240   73.9330  220.9820 C   0  0  0  0  0  0  0  0  0  0  0  0
  141.6710   72.5760  220.9850 C   0  0  0  0  0  0  0  0  0  0  0  0
  141.0280   71.8070  221.8740 N   0  0  0  0  0  0  0  0  0  0  0  0
  140.1020   72.2690  222.7250 C   0  0  0  0  0  0  0  0  0  0  0  0
  139.4870   71.3460  223.6420 N   0  0  0  0  0  0  0  0  0  0  0  0
  138.6480   70.2610  223.2070 C   0  0  0  0  0  0  0  0  0  0  0  0
  139.1450   68.9030  223.6390 C   0  0  0  0  0  0  0  0  0  0  0  0
  139.6520   68.9770  225.0250 C   0  0  0  0  0  0  0  0  0  0  0  0
  139.8810   67.8040  225.7120 C   0  0  0  0  0  0  0  0  0  0  0  0
  140.3500   67.8200  227.0110 C   0  0  0  0  0  0  0  0  0  0  0  0
  140.6160   68.9930  227.6970 C   0  0  0  0  0  0  0  0  0  0  0  0
  140.3850   70.1750  227.0020 C   0  0  0  0  0  0  0  0  0  0  0  0
  139.9110   70.1600  225.6890 C   0  0  0  0  0  0  0  0  0  0  0  0
  139.7030   71.5000  225.0690 C   0  0  0  0  0  0  0  0  0  0  0  0
  139.7810   73.5670  222.7090 N   0  0  0  0  0  0  0  0  0  0  0  0
  140.3770   74.4380  221.8440 C   0  0  0  0  0  0  0  0  0  0  0  0
  140.0460   75.8210  221.8220 N   0  0  0  0  0  0  0  0  0  0  0  0
  138.7830   76.3520  221.4170 C   0  0  0  0  0  0  0  0  0  0  0  0
  138.2100   77.3470  222.4000 C   0  0  0  0  0  0  0  0  0  0  0  0
  139.2400   78.3460  222.7490 C   0  0  0  0  0  0  0  0  0  0  0  0
  138.8340   79.5990  223.1670 C   0  0  0  0  0  0  0  0  0  0  0  0
  139.7940   80.5430  223.5060 C   0  0  0  0  0  0  0  0  0  0  0  0
  141.1390   80.2790  223.4440 C   0  0  0  0  0  0  0  0  0  0  0  0
  141.5110   79.0160  223.0220 C   0  0  0  0  0  0  0  0  0  0  0  0
  140.6000   78.0500  222.6760 C   0  0  0  0  0  0  0  0  0  0  0  0
  141.0860   76.7450  222.2430 C   0  0  0  0  0  0  0  0  0  0  0  0
  140.1910   75.3330  219.0890 H   0  0  0  0  0  0  0  0  0  0  0  0
  142.6047   75.7491  217.4765 H   0  0  0  0  0  0  0  0  0  0  0  0
  141.0317   76.6210  217.3277 H   0  0  0  0  0  0  0  0  0  0  0  0
  142.7417   77.2662  219.6583 H   0  0  0  0  0  0  0  0  0  0  0  0
  143.2722   77.8034  217.9743 H   0  0  0  0  0  0  0  0  0  0  0  0
  141.3870   79.0619  217.6714 H   0  0  0  0  0  0  0  0  0  0  0  0
  142.9452   79.6147  220.0371 H   0  0  0  0  0  0  0  0  0  0  0  0
  142.6409   80.5384  218.5267 H   0  0  0  0  0  0  0  0  0  0  0  0
  140.8574   80.2583  220.9774 H   0  0  0  0  0  0  0  0  0  0  0  0
  141.4817   81.7500  220.2378 H   0  0  0  0  0  0  0  0  0  0  0  0
  140.3420   80.8180  218.1640 H   0  0  0  0  0  0  0  0  0  0  0  0
  138.6210   79.5101  220.1392 H   0  0  0  0  0  0  0  0  0  0  0  0
  138.6258   79.3847  218.3337 H   0  0  0  0  0  0  0  0  0  0  0  0
  140.3569   78.0614  220.3610 H   0  0  0  0  0  0  0  0  0  0  0  0
  139.7965   77.5007  218.7391 H   0  0  0  0  0  0  0  0  0  0  0  0
  142.4264   72.1661  220.2984 H   0  0  0  0  0  0  0  0  0  0  0  0
  137.6410   70.4115  223.6233 H   0  0  0  0  0  0  0  0  0  0  0  0
  138.6515   70.2712  222.1071 H   0  0  0  0  0  0  0  0  0  0  0  0
  138.3188   68.1784  223.5899 H   0  0  0  0  0  0  0  0  0  0  0  0
  139.9573   68.5822  222.9702 H   0  0  0  0  0  0  0  0  0  0  0  0
  139.6872   66.8404  225.2180 H   0  0  0  0  0  0  0  0  0  0  0  0
  140.5193   66.8607  227.5220 H   0  0  0  0  0  0  0  0  0  0  0  0
  140.9885   68.9900  228.7320 H   0  0  0  0  0  0  0  0  0  0  0  0
  140.5791   71.1388  227.4954 H   0  0  0  0  0  0  0  0  0  0  0  0
  138.8241   71.9813  225.5228 H   0  0  0  0  0  0  0  0  0  0  0  0
  140.5925   72.1243  225.2394 H   0  0  0  0  0  0  0  0  0  0  0  0
  138.9102   76.8537  220.4464 H   0  0  0  0  0  0  0  0  0  0  0  0
  138.0787   75.5091  221.3586 H   0  0  0  0  0  0  0  0  0  0  0  0
  137.3463   77.8547  221.9459 H   0  0  0  0  0  0  0  0  0  0  0  0
  137.8893   76.8189  223.3101 H   0  0  0  0  0  0  0  0  0  0  0  0
  137.7638   79.8454  223.2304 H   0  0  0  0  0  0  0  0  0  0  0  0
  139.4642   81.5390  223.8364 H   0  0  0  0  0  0  0  0  0  0  0  0
  141.8872   81.0375  223.7175 H   0  0  0  0  0  0  0  0  0  0  0  0
  142.5826   78.7754  222.9611 H   0  0  0  0  0  0  0  0  0  0  0  0
  141.7721   76.8979  221.3969 H   0  0  0  0  0  0  0  0  0  0  0  0
  141.5735   76.2883  223.1169 H   0  0  0  0  0  0  0  0  0  0  0  0
  1  2  2  0
  2  3  1  0
  3  4  1  0
  4  5  1  0
  5  6  1  0
  6  7  1  0
  7  8  1  0
  8  9  1  0
  9 10  1  0
 10 11  1  0
  2 12  1  0
 12 13  2  0
 13 14  1  0
 14 15  2  0
 15 16  1  0
 16 17  1  0
 17 18  1  0
 18 19  1  0
 19 20  2  0
 20 21  1  0
 21 22  2  0
 22 23  1  0
 23 24  2  0
 24 25  1  0
 15 26  1  0
 26 27  2  0
 27 28  1  0
 28 29  1  0
 29 30  1  0
 30 31  1  0
 31 32  2  0
 32 33  1  0
 33 34  2  0
 34 35  1  0
 35 36  2  0
 36 37  1  0
 11  6  1  0
 27 12  1  0
 37 28  1  0
 25 16  1  0
 36 31  1  0
 24 19  1  0
  3 38  1  0
  4 39  1  0
  4 40  1  0
  5 41  1  0
  5 42  1  0
  6 43  1  0
  7 44  1  0
  7 45  1  0
  8 46  1  0
  8 47  1  0
  9 48  1  0
 10 49  1  0
 10 50  1  0
 11 51  1  0
 11 52  1  0
 13 53  1  0
 17 54  1  0
 17 55  1  0
 18 56  1  0
 18 57  1  0
 20 58  1  0
 21 59  1  0
 22 60  1  0
 23 61  1  0
 25 62  1  0
 25 63  1  0
 29 64  1  0
 29 65  1  0
 30 66  1  0
 30 67  1  0
 32 68  1  0
 33 69  1  0
 34 70  1  0
 35 71  1  0
 37 72  1  0
 37 73  1  0
M  END
>  <smiles>  (28) 
O=C(NCCC1CCNCC1)c1cnc(N2CCc3ccccc3C2)nc1N1CCc2ccccc2C1

>  <score_type>  (28) 
oracle

>  <origin>  (28) 
autodockgpu

>  <m_score__min__energy>  (28) 
-10.16

>  <m_primary>  (28) 
energy

>  <rmsd>  (28) 
5.494395783232838

>  <m_score__min__rmsd>  (28) 
5.494395783232838

>  <meeko>  (28) 
{"free_energy": -9.02, "intermolecular_energy": -10.81, "internal_energy": -2.43, "cluster_size": 38, "cluster_id": 1, "rank_in_cluster": 23}

>  <energy>  (28) 
-8.94

>  <cluster_rmsd>  (28) 
1.13

>  <cluster>  (28) 
1

$$$$

     RDKit          3D

 73 78  0  0  0  0  0  0  0  0999 V2000
  135.8470   70.8090  221.8010 O   0  0  0  0  0  0  0  0  0  0  0  0
  136.4110   71.4880  222.6990 C   0  0  0  0  0  0  0  0  0  0  0  0
  135.8750   71.6380  224.0160 N   0  0  0  0  0  0  0  0  0  0  0  0
  134.6240   71.0280  224.4320 C   0  0  0  0  0  0  0  0  0  0  0  0
  134.5480   70.9470  225.9180 C   0  0  0  0  0  0  0  0  0  0  0  0
  133.8840   72.0980  226.5990 C   0  0  0  0  0  0  0  0  0  0  0  0
  132.5480   71.8080  227.1690 C   0  0  0  0  0  0  0  0  0  0  0  0
  131.6950   73.0490  227.1100 C   0  0  0  0  0  0  0  0  0  0  0  0
  132.5430   74.1700  227.5300 N   0  0  0  0  0  0  0  0  0  0  0  0
  133.4120   74.5430  226.4280 C   0  0  0  0  0  0  0  0  0  0  0  0
  133.9240   73.3230  225.6960 C   0  0  0  0  0  0  0  0  0  0  0  0
  137.6770   72.1670  222.4190 C   0  0  0  0  0  0  0  0  0  0  0  0
  137.6200   73.1290  221.4010 C   0  0  0  0  0  0  0  0  0  0  0  0
  138.7680   73.7650  221.1300 N   0  0  0  0  0  0  0  0  0  0  0  0
  139.9210   73.5260  221.7680 C   0  0  0  0  0  0  0  0  0  0  0  0
  141.0850   74.2830  221.3950 N   0  0  0  0  0  0  0  0  0  0  0  0
  142.2590   73.6740  220.8250 C   0  0  0  0  0  0  0  0  0  0  0  0
  142.6220   74.2180  219.4650 C   0  0  0  0  0  0  0  0  0  0  0  0
  142.4290   75.6830  219.4480 C   0  0  0  0  0  0  0  0  0  0  0  0
  142.9710   76.4130  218.4110 C   0  0  0  0  0  0  0  0  0  0  0  0
  142.8240   77.7850  218.3530 C   0  0  0  0  0  0  0  0  0  0  0  0
  142.1330   78.5050  219.3130 C   0  0  0  0  0  0  0  0  0  0  0  0
  141.5860   77.7680  220.3570 C   0  0  0  0  0  0  0  0  0  0  0  0
  141.7360   76.3820  220.4180 C   0  0  0  0  0  0  0  0  0  0  0  0
  141.1030   75.7210  221.5960 C   0  0  0  0  0  0  0  0  0  0  0  0
  139.9590   72.6050  222.7370 N   0  0  0  0  0  0  0  0  0  0  0  0
  138.8470   71.8990  223.0930 C   0  0  0  0  0  0  0  0  0  0  0  0
  138.8760   70.9210  224.1250 N   0  0  0  0  0  0  0  0  0  0  0  0
  138.2610   69.6340  224.0470 C   0  0  0  0  0  0  0  0  0  0  0  0
  139.1820   68.5050  224.4470 C   0  0  0  0  0  0  0  0  0  0  0  0
  139.8270   68.8270  225.7370 C   0  0  0  0  0  0  0  0  0  0  0  0
  140.2570   67.7890  226.5400 C   0  0  0  0  0  0  0  0  0  0  0  0
  140.8730   68.0790  227.7500 C   0  0  0  0  0  0  0  0  0  0  0  0
  141.0750   69.3670  228.1810 C   0  0  0  0  0  0  0  0  0  0  0  0
  140.6330   70.3820  227.3530 C   0  0  0  0  0  0  0  0  0  0  0  0
  140.0190   70.1430  226.1490 C   0  0  0  0  0  0  0  0  0  0  0  0
  139.5870   71.2790  225.3420 C   0  0  0  0  0  0  0  0  0  0  0  0
  136.4290   72.2290  224.7130 H   0  0  0  0  0  0  0  0  0  0  0  0
  133.7850   71.6342  224.0597 H   0  0  0  0  0  0  0  0  0  0  0  0
  134.5713   70.0101  224.0184 H   0  0  0  0  0  0  0  0  0  0  0  0
  133.9916   70.0344  226.1781 H   0  0  0  0  0  0  0  0  0  0  0  0
  135.5899   70.9521  226.2709 H   0  0  0  0  0  0  0  0  0  0  0  0
  134.4705   72.3184  227.5031 H   0  0  0  0  0  0  0  0  0  0  0  0
  132.0684   71.0058  226.5889 H   0  0  0  0  0  0  0  0  0  0  0  0
  132.6581   71.4889  228.2159 H   0  0  0  0  0  0  0  0  0  0  0  0
  131.3343   73.2115  226.0836 H   0  0  0  0  0  0  0  0  0  0  0  0
  130.8160   72.9538  227.7644 H   0  0  0  0  0  0  0  0  0  0  0  0
  133.1690   73.7750  228.2780 H   0  0  0  0  0  0  0  0  0  0  0  0
  132.8482   75.1729  225.7242 H   0  0  0  0  0  0  0  0  0  0  0  0
  134.2743   75.0912  226.8355 H   0  0  0  0  0  0  0  0  0  0  0  0
  133.2943   73.1412  224.8126 H   0  0  0  0  0  0  0  0  0  0  0  0
  134.9653   73.5042  225.3914 H   0  0  0  0  0  0  0  0  0  0  0  0
  136.6892   73.3486  220.8575 H   0  0  0  0  0  0  0  0  0  0  0  0
  143.1056   73.8465  221.5058 H   0  0  0  0  0  0  0  0  0  0  0  0
  142.0371   72.6044  220.6959 H   0  0  0  0  0  0  0  0  0  0  0  0
  143.6747   73.9851  219.2469 H   0  0  0  0  0  0  0  0  0  0  0  0
  141.9766   73.7562  218.7033 H   0  0  0  0  0  0  0  0  0  0  0  0
  143.5291   75.8943  217.6176 H   0  0  0  0  0  0  0  0  0  0  0  0
  143.2745   78.3283  217.5093 H   0  0  0  0  0  0  0  0  0  0  0  0
  142.0232   79.5979  219.2529 H   0  0  0  0  0  0  0  0  0  0  0  0
  141.0252   78.2863  221.1487 H   0  0  0  0  0  0  0  0  0  0  0  0
  141.6800   75.9570  222.5023 H   0  0  0  0  0  0  0  0  0  0  0  0
  140.0721   76.0872  221.7107 H   0  0  0  0  0  0  0  0  0  0  0  0
  137.3866   69.6241  224.7143 H   0  0  0  0  0  0  0  0  0  0  0  0
  137.9826   69.4697  222.9956 H   0  0  0  0  0  0  0  0  0  0  0  0
  138.6007   67.5768  224.5496 H   0  0  0  0  0  0  0  0  0  0  0  0
  139.9541   68.3715  223.6750 H   0  0  0  0  0  0  0  0  0  0  0  0
  140.1132   66.7450  226.2247 H   0  0  0  0  0  0  0  0  0  0  0  0
  141.2112   67.2476  228.3859 H   0  0  0  0  0  0  0  0  0  0  0  0
  141.5662   69.5815  229.1416 H   0  0  0  0  0  0  0  0  0  0  0  0
  140.7795   71.4244  227.6724 H   0  0  0  0  0  0  0  0  0  0  0  0
  138.9222   71.9036  225.9567 H   0  0  0  0  0  0  0  0  0  0  0  0
  140.5012   71.8031  225.0265 H   0  0  0  0  0  0  0  0  0  0  0  0
  1  2  2  0
  2  3  1  0
  3  4  1  0
  4  5  1  0
  5  6  1  0
  6  7  1  0
  7  8  1  0
  8  9  1  0
  9 10  1  0
 10 11  1  0
  2 12  1  0
 12 13  2  0
 13 14  1  0
 14 15  2  0
 15 16  1  0
 16 17  1  0
 17 18  1  0
 18 19  1  0
 19 20  2  0
 20 21  1  0
 21 22  2  0
 22 23  1  0
 23 24  2  0
 24 25  1  0
 15 26  1  0
 26 27  2  0
 27 28  1  0
 28 29  1  0
 29 30  1  0
 30 31  1  0
 31 32  2  0
 32 33  1  0
 33 34  2  0
 34 35  1  0
 35 36  2  0
 36 37  1  0
 11  6  1  0
 27 12  1  0
 37 28  1  0
 25 16  1  0
 36 31  1  0
 24 19  1  0
  3 38  1  0
  4 39  1  0
  4 40  1  0
  5 41  1  0
  5 42  1  0
  6 43  1  0
  7 44  1  0
  7 45  1  0
  8 46  1  0
  8 47  1  0
  9 48  1  0
 10 49  1  0
 10 50  1  0
 11 51  1  0
 11 52  1  0
 13 53  1  0
 17 54  1  0
 17 55  1  0
 18 56  1  0
 18 57  1  0
 20 58  1  0
 21 59  1  0
 22 60  1  0
 23 61  1  0
 25 62  1  0
 25 63  1  0
 29 64  1  0
 29 65  1  0
 30 66  1  0
 30 67  1  0
 32 68  1  0
 33 69  1  0
 34 70  1  0
 35 71  1  0
 37 72  1  0
 37 73  1  0
M  END
>  <smiles>  (29) 
O=C(NCCC1CCNCC1)c1cnc(N2CCc3ccccc3C2)nc1N1CCc2ccccc2C1

>  <score_type>  (29) 
oracle

>  <origin>  (29) 
autodockgpu

>  <m_score__min__energy>  (29) 
-10.16

>  <m_primary>  (29) 
energy

>  <rmsd>  (29) 
10.115712082778522

>  <m_score__min__rmsd>  (29) 
10.115712082778522

>  <meeko>  (29) 
{"free_energy": -9.76, "intermolecular_energy": -11.55, "internal_energy": -1.04, "cluster_size": 4, "cluster_id": 2, "rank_in_cluster": 2}

>  <energy>  (29) 
-8.9

>  <cluster_rmsd>  (29) 
1.24

>  <cluster>  (29) 
1

$$$$

     RDKit          3D

 73 78  0  0  0  0  0  0  0  0999 V2000
  141.1580   74.5550  218.7600 O   0  0  0  0  0  0  0  0  0  0  0  0
  141.4950   74.7150  219.9620 C   0  0  0  0  0  0  0  0  0  0  0  0
  142.2980   75.8110  220.4080 N   0  0  0  0  0  0  0  0  0  0  0  0
  142.8070   76.8320  219.5090 C   0  0  0  0  0  0  0  0  0  0  0  0
  141.8560   77.9770  219.4250 C   0  0  0  0  0  0  0  0  0  0  0  0
  142.2180   79.0520  218.4540 C   0  0  0  0  0  0  0  0  0  0  0  0
  142.2410   80.4240  219.0110 C   0  0  0  0  0  0  0  0  0  0  0  0
  141.8450   81.4090  217.9420 C   0  0  0  0  0  0  0  0  0  0  0  0
  142.5410   81.0080  216.7140 N   0  0  0  0  0  0  0  0  0  0  0  0
  141.8480   79.8760  216.1270 C   0  0  0  0  0  0  0  0  0  0  0  0
  141.3820   78.9060  217.1900 C   0  0  0  0  0  0  0  0  0  0  0  0
  141.0600   73.7570  220.9800 C   0  0  0  0  0  0  0  0  0  0  0  0
  139.9980   74.1890  221.7850 C   0  0  0  0  0  0  0  0  0  0  0  0
  139.5820   73.3260  222.7210 N   0  0  0  0  0  0  0  0  0  0  0  0
  140.1210   72.1150  222.9100 C   0  0  0  0  0  0  0  0  0  0  0  0
  139.5790   71.2720  223.9420 N   0  0  0  0  0  0  0  0  0  0  0  0
  138.6330   70.2210  223.6720 C   0  0  0  0  0  0  0  0  0  0  0  0
  139.1060   68.8560  224.1070 C   0  0  0  0  0  0  0  0  0  0  0  0
  139.7900   68.9600  225.4130 C   0  0  0  0  0  0  0  0  0  0  0  0
  140.0410   67.8070  226.1250 C   0  0  0  0  0  0  0  0  0  0  0  0
  140.6720   67.8510  227.3540 C   0  0  0  0  0  0  0  0  0  0  0  0
  141.0870   69.0350  227.9390 C   0  0  0  0  0  0  0  0  0  0  0  0
  140.8350   70.1970  227.2190 C   0  0  0  0  0  0  0  0  0  0  0  0
  140.1960   70.1530  225.9790 C   0  0  0  0  0  0  0  0  0  0  0  0
  139.9840   71.4750  225.3220 C   0  0  0  0  0  0  0  0  0  0  0  0
  141.1340   71.7160  222.1340 N   0  0  0  0  0  0  0  0  0  0  0  0
  141.6350   72.5180  221.1490 C   0  0  0  0  0  0  0  0  0  0  0  0
  142.7100   72.1020  220.3160 N   0  0  0  0  0  0  0  0  0  0  0  0
  143.8350   72.9110  219.9700 C   0  0  0  0  0  0  0  0  0  0  0  0
  145.1600   72.2120  220.1730 C   0  0  0  0  0  0  0  0  0  0  0  0
  145.1160   70.8770  219.5440 C   0  0  0  0  0  0  0  0  0  0  0  0
  146.3020   70.3000  219.1320 C   0  0  0  0  0  0  0  0  0  0  0  0
  146.2750   69.0410  218.5470 C   0  0  0  0  0  0  0  0  0  0  0  0
  145.1070   68.3420  218.3620 C   0  0  0  0  0  0  0  0  0  0  0  0
  143.9390   68.9490  218.7850 C   0  0  0  0  0  0  0  0  0  0  0  0
  143.9170   70.1910  219.3680 C   0  0  0  0  0  0  0  0  0  0  0  0
  142.6360   70.7500  219.7840 C   0  0  0  0  0  0  0  0  0  0  0  0
  142.5270   75.8670  221.4510 H   0  0  0  0  0  0  0  0  0  0  0  0
  143.7760   77.1934  219.8837 H   0  0  0  0  0  0  0  0  0  0  0  0
  142.9262   76.3951  218.5066 H   0  0  0  0  0  0  0  0  0  0  0  0
  140.8724   77.5783  219.1360 H   0  0  0  0  0  0  0  0  0  0  0  0
  141.8721   78.4523  220.4169 H   0  0  0  0  0  0  0  0  0  0  0  0
  143.2744   78.9015  218.1869 H   0  0  0  0  0  0  0  0  0  0  0  0
  141.5333   80.4904  219.8505 H   0  0  0  0  0  0  0  0  0  0  0  0
  143.2556   80.6577  219.3660 H   0  0  0  0  0  0  0  0  0  0  0  0
  140.7564   81.3809  217.7862 H   0  0  0  0  0  0  0  0  0  0  0  0
  142.1168   82.4348  218.2316 H   0  0  0  0  0  0  0  0  0  0  0  0
  143.4760   80.6470  217.0340 H   0  0  0  0  0  0  0  0  0  0  0  0
  140.9743   80.2415  215.5675 H   0  0  0  0  0  0  0  0  0  0  0  0
  142.5457   79.3501  215.4586 H   0  0  0  0  0  0  0  0  0  0  0  0
  140.3278   79.1104  217.4285 H   0  0  0  0  0  0  0  0  0  0  0  0
  141.4944   77.8808  216.8076 H   0  0  0  0  0  0  0  0  0  0  0  0
  139.5336   75.1778  221.6561 H   0  0  0  0  0  0  0  0  0  0  0  0
  137.6974   70.4504  224.2031 H   0  0  0  0  0  0  0  0  0  0  0  0
  138.4963   70.1825  222.5812 H   0  0  0  0  0  0  0  0  0  0  0  0
  138.2419   68.1816  224.1992 H   0  0  0  0  0  0  0  0  0  0  0  0
  139.8069   68.4572  223.3588 H   0  0  0  0  0  0  0  0  0  0  0  0
  139.7343   66.8362  225.7086 H   0  0  0  0  0  0  0  0  0  0  0  0
  140.8517   66.9068  227.8890 H   0  0  0  0  0  0  0  0  0  0  0  0
  141.5878   69.0551  228.9182 H   0  0  0  0  0  0  0  0  0  0  0  0
  141.1445   71.1677  227.6336 H   0  0  0  0  0  0  0  0  0  0  0  0
  139.1980   72.0282  225.8570 H   0  0  0  0  0  0  0  0  0  0  0  0
  140.9208   72.0509  225.3476 H   0  0  0  0  0  0  0  0  0  0  0  0
  143.7486   73.1943  218.9106 H   0  0  0  0  0  0  0  0  0  0  0  0
  143.8235   73.7865  220.6358 H   0  0  0  0  0  0  0  0  0  0  0  0
  145.9625   72.8074  219.7130 H   0  0  0  0  0  0  0  0  0  0  0  0
  145.3546   72.1026  221.2501 H   0  0  0  0  0  0  0  0  0  0  0  0
  147.2558   70.8315  219.2658 H   0  0  0  0  0  0  0  0  0  0  0  0
  147.2223   68.5873  218.2202 H   0  0  0  0  0  0  0  0  0  0  0  0
  145.1012   67.3445  217.8983 H   0  0  0  0  0  0  0  0  0  0  0  0
  142.9876   68.4139  218.6485 H   0  0  0  0  0  0  0  0  0  0  0  0
  141.9666   70.7608  218.9112 H   0  0  0  0  0  0  0  0  0  0  0  0
  142.2682   70.1127  220.6016 H   0  0  0  0  0  0  0  0  0  0  0  0
  1  2  2  0
  2  3  1  0
  3  4  1  0
  4  5  1  0
  5  6  1  0
  6  7  1  0
  7  8  1  0
  8  9  1  0
  9 10  1  0
 10 11  1  0
  2 12  1  0
 12 13  2  0
 13 14  1  0
 14 15  2  0
 15 16  1  0
 16 17  1  0
 17 18  1  0
 18 19  1  0
 19 20  2  0
 20 21  1  0
 21 22  2  0
 22 23  1  0
 23 24  2  0
 24 25  1  0
 15 26  1  0
 26 27  2  0
 27 28  1  0
 28 29  1  0
 29 30  1  0
 30 31  1  0
 31 32  2  0
 32 33  1  0
 33 34  2  0
 34 35  1  0
 35 36  2  0
 36 37  1  0
 11  6  1  0
 27 12  1  0
 37 28  1  0
 25 16  1  0
 36 31  1  0
 24 19  1  0
  3 38  1  0
  4 39  1  0
  4 40  1  0
  5 41  1  0
  5 42  1  0
  6 43  1  0
  7 44  1  0
  7 45  1  0
  8 46  1  0
  8 47  1  0
  9 48  1  0
 10 49  1  0
 10 50  1  0
 11 51  1  0
 11 52  1  0
 13 53  1  0
 17 54  1  0
 17 55  1  0
 18 56  1  0
 18 57  1  0
 20 58  1  0
 21 59  1  0
 22 60  1  0
 23 61  1  0
 25 62  1  0
 25 63  1  0
 29 64  1  0
 29 65  1  0
 30 66  1  0
 30 67  1  0
 32 68  1  0
 33 69  1  0
 34 70  1  0
 35 71  1  0
 37 72  1  0
 37 73  1  0
M  END
>  <smiles>  (30) 
O=C(NCCC1CCNCC1)c1cnc(N2CCc3ccccc3C2)nc1N1CCc2ccccc2C1

>  <score_type>  (30) 
oracle

>  <origin>  (30) 
autodockgpu

>  <m_score__min__energy>  (30) 
-10.16

>  <m_primary>  (30) 
energy

>  <rmsd>  (30) 
5.946366890882841

>  <m_score__min__rmsd>  (30) 
5.946366890882841

>  <meeko>  (30) 
{"free_energy": -9.6, "intermolecular_energy": -11.39, "internal_energy": -0.86, "cluster_size": 1, "cluster_id": 6, "rank_in_cluster": 1}

>  <energy>  (30) 
-8.88

>  <cluster_rmsd>  (30) 
1.25

>  <cluster>  (30) 
1

$$$$

     RDKit          3D

 73 78  0  0  0  0  0  0  0  0999 V2000
  139.6760   74.4150  218.2980 O   0  0  0  0  0  0  0  0  0  0  0  0
  140.5550   74.2330  219.1810 C   0  0  0  0  0  0  0  0  0  0  0  0
  141.9170   74.6390  219.0220 N   0  0  0  0  0  0  0  0  0  0  0  0
  142.4100   75.2890  217.8210 C   0  0  0  0  0  0  0  0  0  0  0  0
  143.4540   76.2970  218.1600 C   0  0  0  0  0  0  0  0  0  0  0  0
  142.9540   77.5900  218.7130 C   0  0  0  0  0  0  0  0  0  0  0  0
  141.7180   77.4930  219.5240 C   0  0  0  0  0  0  0  0  0  0  0  0
  140.9140   78.7590  219.3710 C   0  0  0  0  0  0  0  0  0  0  0  0
  141.8610   79.8770  219.4460 N   0  0  0  0  0  0  0  0  0  0  0  0
  142.5530   79.9940  218.1750 C   0  0  0  0  0  0  0  0  0  0  0  0
  142.8930   78.6340  217.6070 C   0  0  0  0  0  0  0  0  0  0  0  0
  140.2020   73.5810  220.4440 C   0  0  0  0  0  0  0  0  0  0  0  0
  140.1940   72.1810  220.4050 C   0  0  0  0  0  0  0  0  0  0  0  0
  139.8760   71.5630  221.5510 N   0  0  0  0  0  0  0  0  0  0  0  0
  139.5780   72.2080  222.6870 C   0  0  0  0  0  0  0  0  0  0  0  0
  139.2630   71.4330  223.8570 N   0  0  0  0  0  0  0  0  0  0  0  0
  138.0070   70.7510  224.0230 C   0  0  0  0  0  0  0  0  0  0  0  0
  138.1490   69.2630  224.2240 C   0  0  0  0  0  0  0  0  0  0  0  0
  139.2980   68.9880  225.1120 C   0  0  0  0  0  0  0  0  0  0  0  0
  139.4310   67.7290  225.6560 C   0  0  0  0  0  0  0  0  0  0  0  0
  140.4840   67.4240  226.4970 C   0  0  0  0  0  0  0  0  0  0  0  0
  141.4590   68.3470  226.8410 C   0  0  0  0  0  0  0  0  0  0  0  0
  141.3230   69.6160  226.2910 C   0  0  0  0  0  0  0  0  0  0  0  0
  140.2590   69.9250  225.4420 C   0  0  0  0  0  0  0  0  0  0  0  0
  140.2360   71.3250  224.9300 C   0  0  0  0  0  0  0  0  0  0  0  0
  139.5890   73.5450  222.7070 N   0  0  0  0  0  0  0  0  0  0  0  0
  139.8990   74.2730  221.5950 C   0  0  0  0  0  0  0  0  0  0  0  0
  139.9180   75.6950  221.6080 N   0  0  0  0  0  0  0  0  0  0  0  0
  138.9290   76.5300  221.0070 C   0  0  0  0  0  0  0  0  0  0  0  0
  138.4200   77.6150  221.9290 C   0  0  0  0  0  0  0  0  0  0  0  0
  139.5650   78.3200  222.5400 C   0  0  0  0  0  0  0  0  0  0  0  0
  139.3920   79.6250  222.9600 C   0  0  0  0  0  0  0  0  0  0  0  0
  140.4580   80.2960  223.5440 C   0  0  0  0  0  0  0  0  0  0  0  0
  141.6850   79.7080  223.7230 C   0  0  0  0  0  0  0  0  0  0  0  0
  141.8250   78.4020  223.2920 C   0  0  0  0  0  0  0  0  0  0  0  0
  140.8000   77.6990  222.7090 C   0  0  0  0  0  0  0  0  0  0  0  0
  141.0410   76.3240  222.2860 C   0  0  0  0  0  0  0  0  0  0  0  0
  142.5890   74.4480  219.8300 H   0  0  0  0  0  0  0  0  0  0  0  0
  142.8433   74.5311  217.1518 H   0  0  0  0  0  0  0  0  0  0  0  0
  141.5716   75.8003  217.3253 H   0  0  0  0  0  0  0  0  0  0  0  0
  144.1264   75.8485  218.9061 H   0  0  0  0  0  0  0  0  0  0  0  0
  143.9454   76.5493  217.2087 H   0  0  0  0  0  0  0  0  0  0  0  0
  143.6879   77.9246  219.4610 H   0  0  0  0  0  0  0  0  0  0  0  0
  141.1205   76.6358  219.1802 H   0  0  0  0  0  0  0  0  0  0  0  0
  141.9845   77.3544  220.5822 H   0  0  0  0  0  0  0  0  0  0  0  0
  140.3984   78.7646  218.3993 H   0  0  0  0  0  0  0  0  0  0  0  0
  140.1493   78.8373  220.1579 H   0  0  0  0  0  0  0  0  0  0  0  0
  142.5840   79.5770  220.1480 H   0  0  0  0  0  0  0  0  0  0  0  0
  141.9067   80.5283  217.4630 H   0  0  0  0  0  0  0  0  0  0  0  0
  143.4903   80.5457  218.3396 H   0  0  0  0  0  0  0  0  0  0  0  0
  142.1218   78.3437  216.8783 H   0  0  0  0  0  0  0  0  0  0  0  0
  143.8770   78.6902  217.1186 H   0  0  0  0  0  0  0  0  0  0  0  0
  140.4343   71.6221  219.4886 H   0  0  0  0  0  0  0  0  0  0  0  0
  137.4956   71.1731  224.9007 H   0  0  0  0  0  0  0  0  0  0  0  0
  137.4355   70.8977  223.0946 H   0  0  0  0  0  0  0  0  0  0  0  0
  137.2304   68.8664  224.6811 H   0  0  0  0  0  0  0  0  0  0  0  0
  138.3163   68.7782  223.2509 H   0  0  0  0  0  0  0  0  0  0  0  0
  138.6872   66.9546  225.4170 H   0  0  0  0  0  0  0  0  0  0  0  0
  140.5512   66.4069  226.9105 H   0  0  0  0  0  0  0  0  0  0  0  0
  142.2927   68.0899  227.5110 H   0  0  0  0  0  0  0  0  0  0  0  0
  142.0669   70.3906  226.5289 H   0  0  0  0  0  0  0  0  0  0  0  0
  139.9594   72.0091  225.7458 H   0  0  0  0  0  0  0  0  0  0  0  0
  141.2327   71.5921  224.5489 H   0  0  0  0  0  0  0  0  0  0  0  0
  139.3676   77.0055  220.1174 H   0  0  0  0  0  0  0  0  0  0  0  0
  138.0716   75.8888  220.7548 H   0  0  0  0  0  0  0  0  0  0  0  0
  137.8138   78.3302  221.3538 H   0  0  0  0  0  0  0  0  0  0  0  0
  137.8030   77.1639  222.7201 H   0  0  0  0  0  0  0  0  0  0  0  0
  138.4211   80.1263  222.8332 H   0  0  0  0  0  0  0  0  0  0  0  0
  140.3140   81.3352  223.8748 H   0  0  0  0  0  0  0  0  0  0  0  0
  142.5201   80.2518  224.1888 H   0  0  0  0  0  0  0  0  0  0  0  0
  142.7980   77.9055  223.4216 H   0  0  0  0  0  0  0  0  0  0  0  0
  141.9013   76.3214  221.6005 H   0  0  0  0  0  0  0  0  0  0  0  0
  141.2188   75.7418  223.2022 H   0  0  0  0  0  0  0  0  0  0  0  0
  1  2  2  0
  2  3  1  0
  3  4  1  0
  4  5  1  0
  5  6  1  0
  6  7  1  0
  7  8  1  0
  8  9  1  0
  9 10  1  0
 10 11  1  0
  2 12  1  0
 12 13  2  0
 13 14  1  0
 14 15  2  0
 15 16  1  0
 16 17  1  0
 17 18  1  0
 18 19  1  0
 19 20  2  0
 20 21  1  0
 21 22  2  0
 22 23  1  0
 23 24  2  0
 24 25  1  0
 15 26  1  0
 26 27  2  0
 27 28  1  0
 28 29  1  0
 29 30  1  0
 30 31  1  0
 31 32  2  0
 32 33  1  0
 33 34  2  0
 34 35  1  0
 35 36  2  0
 36 37  1  0
 11  6  1  0
 27 12  1  0
 37 28  1  0
 25 16  1  0
 36 31  1  0
 24 19  1  0
  3 38  1  0
  4 39  1  0
  4 40  1  0
  5 41  1  0
  5 42  1  0
  6 43  1  0
  7 44  1  0
  7 45  1  0
  8 46  1  0
  8 47  1  0
  9 48  1  0
 10 49  1  0
 10 50  1  0
 11 51  1  0
 11 52  1  0
 13 53  1  0
 17 54  1  0
 17 55  1  0
 18 56  1  0
 18 57  1  0
 20 58  1  0
 21 59  1  0
 22 60  1  0
 23 61  1  0
 25 62  1  0
 25 63  1  0
 29 64  1  0
 29 65  1  0
 30 66  1  0
 30 67  1  0
 32 68  1  0
 33 69  1  0
 34 70  1  0
 35 71  1  0
 37 72  1  0
 37 73  1  0
M  END
>  <smiles>  (31) 
O=C(NCCC1CCNCC1)c1cnc(N2CCc3ccccc3C2)nc1N1CCc2ccccc2C1

>  <score_type>  (31) 
oracle

>  <origin>  (31) 
autodockgpu

>  <m_score__min__energy>  (31) 
-10.16

>  <m_primary>  (31) 
energy

>  <rmsd>  (31) 
5.753177591269449

>  <m_score__min__rmsd>  (31) 
5.753177591269449

>  <meeko>  (31) 
{"free_energy": -8.94, "intermolecular_energy": -10.73, "internal_energy": -1.99, "cluster_size": 38, "cluster_id": 1, "rank_in_cluster": 28}

>  <energy>  (31) 
-8.78

>  <cluster_rmsd>  (31) 
1.54

>  <cluster>  (31) 
1

$$$$

     RDKit          3D

 73 78  0  0  0  0  0  0  0  0999 V2000
  143.5030   74.8990  220.2000 O   0  0  0  0  0  0  0  0  0  0  0  0
  142.2660   74.7140  220.0570 C   0  0  0  0  0  0  0  0  0  0  0  0
  141.5190   75.2500  218.9620 N   0  0  0  0  0  0  0  0  0  0  0  0
  142.1220   76.0650  217.9210 C   0  0  0  0  0  0  0  0  0  0  0  0
  142.7800   75.2060  216.8960 C   0  0  0  0  0  0  0  0  0  0  0  0
  144.0540   74.5530  217.3170 C   0  0  0  0  0  0  0  0  0  0  0  0
  145.1650   74.6500  216.3410 C   0  0  0  0  0  0  0  0  0  0  0  0
  146.0350   73.4240  216.4440 C   0  0  0  0  0  0  0  0  0  0  0  0
  146.2180   73.1510  217.8740 N   0  0  0  0  0  0  0  0  0  0  0  0
  145.0190   72.5170  218.3900 C   0  0  0  0  0  0  0  0  0  0  0  0
  143.7720   73.1380  217.8000 C   0  0  0  0  0  0  0  0  0  0  0  0
  141.5250   73.9170  221.0350 C   0  0  0  0  0  0  0  0  0  0  0  0
  141.8990   72.5680  221.1060 C   0  0  0  0  0  0  0  0  0  0  0  0
  141.2350   71.8200  221.9970 N   0  0  0  0  0  0  0  0  0  0  0  0
  140.2660   72.2940  222.7920 C   0  0  0  0  0  0  0  0  0  0  0  0
  139.6340   71.3940  223.7190 N   0  0  0  0  0  0  0  0  0  0  0  0
  138.5570   70.5170  223.3390 C   0  0  0  0  0  0  0  0  0  0  0  0
  138.8560   69.0560  223.5740 C   0  0  0  0  0  0  0  0  0  0  0  0
  139.5640   68.8950  224.8610 C   0  0  0  0  0  0  0  0  0  0  0  0
  139.6730   67.6330  225.4060 C   0  0  0  0  0  0  0  0  0  0  0  0
  140.3200   67.4310  226.6100 C   0  0  0  0  0  0  0  0  0  0  0  0
  140.8920   68.4620  227.3360 C   0  0  0  0  0  0  0  0  0  0  0  0
  140.7810   69.7340  226.7840 C   0  0  0  0  0  0  0  0  0  0  0  0
  140.1270   69.9400  225.5690 C   0  0  0  0  0  0  0  0  0  0  0  0
  140.0790   71.3550  225.1010 C   0  0  0  0  0  0  0  0  0  0  0  0
  139.9200   73.5830  222.7130 N   0  0  0  0  0  0  0  0  0  0  0  0
  140.5330   74.4330  221.8390 C   0  0  0  0  0  0  0  0  0  0  0  0
  140.1750   75.8070  221.7500 N   0  0  0  0  0  0  0  0  0  0  0  0
  138.9930   76.3030  221.1220 C   0  0  0  0  0  0  0  0  0  0  0  0
  138.2260   77.2840  221.9800 C   0  0  0  0  0  0  0  0  0  0  0  0
  139.1510   78.3110  222.5030 C   0  0  0  0  0  0  0  0  0  0  0  0
  138.6430   79.5520  222.8340 C   0  0  0  0  0  0  0  0  0  0  0  0
  139.5010   80.5220  223.3350 C   0  0  0  0  0  0  0  0  0  0  0  0
  140.8420   80.2940  223.5170 C   0  0  0  0  0  0  0  0  0  0  0  0
  141.3170   79.0410  223.1750 C   0  0  0  0  0  0  0  0  0  0  0  0
  140.5080   78.0510  222.6770 C   0  0  0  0  0  0  0  0  0  0  0  0
  141.0990   76.7590  222.3460 C   0  0  0  0  0  0  0  0  0  0  0  0
  140.4740   75.0340  218.9200 H   0  0  0  0  0  0  0  0  0  0  0  0
  141.3407   76.6701  217.4378 H   0  0  0  0  0  0  0  0  0  0  0  0
  142.8814   76.7171  218.3771 H   0  0  0  0  0  0  0  0  0  0  0  0
  142.0713   74.4132  216.6146 H   0  0  0  0  0  0  0  0  0  0  0  0
  143.0487   75.8799  216.0692 H   0  0  0  0  0  0  0  0  0  0  0  0
  144.4475   75.1335  218.1644 H   0  0  0  0  0  0  0  0  0  0  0  0
  144.7534   74.7227  215.3235 H   0  0  0  0  0  0  0  0  0  0  0  0
  145.7665   75.5448  216.5590 H   0  0  0  0  0  0  0  0  0  0  0  0
  145.5440   72.5695  215.9554 H   0  0  0  0  0  0  0  0  0  0  0  0
  147.0028   73.5847  215.9465 H   0  0  0  0  0  0  0  0  0  0  0  0
  146.2700   74.0980  218.3300 H   0  0  0  0  0  0  0  0  0  0  0  0
  145.0414   71.4471  218.1355 H   0  0  0  0  0  0  0  0  0  0  0  0
  144.9940   72.6569  219.4808 H   0  0  0  0  0  0  0  0  0  0  0  0
  143.4315   72.5275  216.9507 H   0  0  0  0  0  0  0  0  0  0  0  0
  142.9944   73.1774  218.5770 H   0  0  0  0  0  0  0  0  0  0  0  0
  142.6908   72.1485  220.4679 H   0  0  0  0  0  0  0  0  0  0  0  0
  137.6653   70.7879  223.9233 H   0  0  0  0  0  0  0  0  0  0  0  0
  138.4031   70.6449  222.2574 H   0  0  0  0  0  0  0  0  0  0  0  0
  137.9136   68.4894  223.6014 H   0  0  0  0  0  0  0  0  0  0  0  0
  139.4901   68.6775  222.7587 H   0  0  0  0  0  0  0  0  0  0  0  0
  139.2382   66.7740  224.8741 H   0  0  0  0  0  0  0  0  0  0  0  0
  140.3834   66.4078  227.0087 H   0  0  0  0  0  0  0  0  0  0  0  0
  141.4042   68.2855  228.2933 H   0  0  0  0  0  0  0  0  0  0  0  0
  141.2168   70.5931  227.3151 H   0  0  0  0  0  0  0  0  0  0  0  0
  139.3775   71.9248  225.7281 H   0  0  0  0  0  0  0  0  0  0  0  0
  141.0824   71.7996  225.1754 H   0  0  0  0  0  0  0  0  0  0  0  0
  139.2796   76.8067  220.1870 H   0  0  0  0  0  0  0  0  0  0  0  0
  138.3331   75.4413  220.9434 H   0  0  0  0  0  0  0  0  0  0  0  0
  137.4454   77.7680  221.3747 H   0  0  0  0  0  0  0  0  0  0  0  0
  137.7599   76.7489  222.8205 H   0  0  0  0  0  0  0  0  0  0  0  0
  137.5727   79.7691  222.7024 H   0  0  0  0  0  0  0  0  0  0  0  0
  139.0910   81.5089  223.5955 H   0  0  0  0  0  0  0  0  0  0  0  0
  141.5086   81.0724  223.9167 H   0  0  0  0  0  0  0  0  0  0  0  0
  142.3882   78.8292  223.3078 H   0  0  0  0  0  0  0  0  0  0  0  0
  141.9217   76.9295  221.6360 H   0  0  0  0  0  0  0  0  0  0  0  0
  141.4343   76.3164  223.2955 H   0  0  0  0  0  0  0  0  0  0  0  0
  1  2  2  0
  2  3  1  0
  3  4  1  0
  4  5  1  0
  5  6  1  0
  6  7  1  0
  7  8  1  0
  8  9  1  0
  9 10  1  0
 10 11  1  0
  2 12  1  0
 12 13  2  0
 13 14  1  0
 14 15  2  0
 15 16  1  0
 16 17  1  0
 17 18  1  0
 18 19  1  0
 19 20  2  0
 20 21  1  0
 21 22  2  0
 22 23  1  0
 23 24  2  0
 24 25  1  0
 15 26  1  0
 26 27  2  0
 27 28  1  0
 28 29  1  0
 29 30  1  0
 30 31  1  0
 31 32  2  0
 32 33  1  0
 33 34  2  0
 34 35  1  0
 35 36  2  0
 36 37  1  0
 11  6  1  0
 27 12  1  0
 37 28  1  0
 25 16  1  0
 36 31  1  0
 24 19  1  0
  3 38  1  0
  4 39  1  0
  4 40  1  0
  5 41  1  0
  5 42  1  0
  6 43  1  0
  7 44  1  0
  7 45  1  0
  8 46  1  0
  8 47  1  0
  9 48  1  0
 10 49  1  0
 10 50  1  0
 11 51  1  0
 11 52  1  0
 13 53  1  0
 17 54  1  0
 17 55  1  0
 18 56  1  0
 18 57  1  0
 20 58  1  0
 21 59  1  0
 22 60  1  0
 23 61  1  0
 25 62  1  0
 25 63  1  0
 29 64  1  0
 29 65  1  0
 30 66  1  0
 30 67  1  0
 32 68  1  0
 33 69  1  0
 34 70  1  0
 35 71  1  0
 37 72  1  0
 37 73  1  0
M  END
>  <smiles>  (32) 
O=C(NCCC1CCNCC1)c1cnc(N2CCc3ccccc3C2)nc1N1CCc2ccccc2C1

>  <score_type>  (32) 
oracle

>  <origin>  (32) 
autodockgpu

>  <m_score__min__energy>  (32) 
-10.16

>  <m_primary>  (32) 
energy

>  <rmsd>  (32) 
6.15477615354119

>  <m_score__min__rmsd>  (32) 
6.15477615354119

>  <meeko>  (32) 
{"free_energy": -9.9, "intermolecular_energy": -11.69, "internal_energy": -1.34, "cluster_size": 1, "cluster_id": 3, "rank_in_cluster": 1}

>  <energy>  (32) 
-8.77

>  <cluster_rmsd>  (32) 
1.39

>  <cluster>  (32) 
1

$$$$

     RDKit          3D

 73 78  0  0  0  0  0  0  0  0999 V2000
  141.7780   74.1340  218.5380 O   0  0  0  0  0  0  0  0  0  0  0  0
  141.8900   74.5270  219.7290 C   0  0  0  0  0  0  0  0  0  0  0  0
  142.6360   75.6890  220.1000 N   0  0  0  0  0  0  0  0  0  0  0  0
  143.3410   76.5150  219.1350 C   0  0  0  0  0  0  0  0  0  0  0  0
  142.4250   76.9340  218.0350 C   0  0  0  0  0  0  0  0  0  0  0  0
  141.6610   78.1940  218.2700 C   0  0  0  0  0  0  0  0  0  0  0  0
  142.1950   79.0650  219.3420 C   0  0  0  0  0  0  0  0  0  0  0  0
  141.0600   79.8040  220.0040 C   0  0  0  0  0  0  0  0  0  0  0  0
  140.1730   80.2690  218.9320 N   0  0  0  0  0  0  0  0  0  0  0  0
  139.3660   79.1530  218.4710 C   0  0  0  0  0  0  0  0  0  0  0  0
  140.1780   77.8790  218.4040 C   0  0  0  0  0  0  0  0  0  0  0  0
  141.2380   73.7870  220.8110 C   0  0  0  0  0  0  0  0  0  0  0  0
  141.5250   72.4160  220.8470 C   0  0  0  0  0  0  0  0  0  0  0  0
  140.9410   71.7190  221.8300 N   0  0  0  0  0  0  0  0  0  0  0  0
  140.1250   72.2610  222.7440 C   0  0  0  0  0  0  0  0  0  0  0  0
  139.5670   71.4100  223.7600 N   0  0  0  0  0  0  0  0  0  0  0  0
  138.5270   70.4530  223.4880 C   0  0  0  0  0  0  0  0  0  0  0  0
  138.9080   69.0340  223.8310 C   0  0  0  0  0  0  0  0  0  0  0  0
  139.6590   69.0140  225.1030 C   0  0  0  0  0  0  0  0  0  0  0  0
  139.8480   67.8090  225.7440 C   0  0  0  0  0  0  0  0  0  0  0  0
  140.5380   67.7380  226.9390 C   0  0  0  0  0  0  0  0  0  0  0  0
  141.0760   68.8530  227.5600 C   0  0  0  0  0  0  0  0  0  0  0  0
  140.8840   70.0680  226.9120 C   0  0  0  0  0  0  0  0  0  0  0  0
  140.1860   70.1400  225.7060 C   0  0  0  0  0  0  0  0  0  0  0  0
  140.0520   71.5080  225.1260 C   0  0  0  0  0  0  0  0  0  0  0  0
  139.8610   73.5710  222.6970 N   0  0  0  0  0  0  0  0  0  0  0  0
  140.4040   74.3730  221.7350 C   0  0  0  0  0  0  0  0  0  0  0  0
  140.1320   75.7680  221.6780 N   0  0  0  0  0  0  0  0  0  0  0  0
  139.0220   76.3560  221.0000 C   0  0  0  0  0  0  0  0  0  0  0  0
  138.2600   77.3500  221.8470 C   0  0  0  0  0  0  0  0  0  0  0  0
  139.2070   78.3010  222.4650 C   0  0  0  0  0  0  0  0  0  0  0  0
  138.7510   79.5580  222.8120 C   0  0  0  0  0  0  0  0  0  0  0  0
  139.6300   80.4570  223.4020 C   0  0  0  0  0  0  0  0  0  0  0  0
  140.9420   80.1420  223.6560 C   0  0  0  0  0  0  0  0  0  0  0  0
  141.3650   78.8760  223.2960 C   0  0  0  0  0  0  0  0  0  0  0  0
  140.5330   77.9550  222.7110 C   0  0  0  0  0  0  0  0  0  0  0  0
  141.0690   76.6420  222.3660 C   0  0  0  0  0  0  0  0  0  0  0  0
  142.6690   75.9490  221.1360 H   0  0  0  0  0  0  0  0  0  0  0  0
  143.7309   77.4102  219.6416 H   0  0  0  0  0  0  0  0  0  0  0  0
  144.1680   75.9309  218.7050 H   0  0  0  0  0  0  0  0  0  0  0  0
  143.0295   77.0705  217.1261 H   0  0  0  0  0  0  0  0  0  0  0  0
  141.6703   76.1377  217.9554 H   0  0  0  0  0  0  0  0  0  0  0  0
  141.7995   78.8244  217.3793 H   0  0  0  0  0  0  0  0  0  0  0  0
  142.7160   78.4485  220.0893 H   0  0  0  0  0  0  0  0  0  0  0  0
  142.8993   79.7897  218.9076 H   0  0  0  0  0  0  0  0  0  0  0  0
  140.5142   79.1309  220.6815 H   0  0  0  0  0  0  0  0  0  0  0  0
  141.4345   80.6492  220.6002 H   0  0  0  0  0  0  0  0  0  0  0  0
  140.8120   80.5190  218.1350 H   0  0  0  0  0  0  0  0  0  0  0  0
  138.5262   79.0066  219.1662 H   0  0  0  0  0  0  0  0  0  0  0  0
  138.9984   79.3842  217.4603 H   0  0  0  0  0  0  0  0  0  0  0  0
  140.0138   77.2972  219.3230 H   0  0  0  0  0  0  0  0  0  0  0  0
  139.8579   77.3009  217.5246 H   0  0  0  0  0  0  0  0  0  0  0  0
  142.1905   71.9405  220.1115 H   0  0  0  0  0  0  0  0  0  0  0  0
  137.6394   70.7270  224.0772 H   0  0  0  0  0  0  0  0  0  0  0  0
  138.3356   70.4832  222.4052 H   0  0  0  0  0  0  0  0  0  0  0  0
  137.9974   68.4256  223.9343 H   0  0  0  0  0  0  0  0  0  0  0  0
  139.5383   68.6220  223.0292 H   0  0  0  0  0  0  0  0  0  0  0  0
  139.4432   66.8889  225.2973 H   0  0  0  0  0  0  0  0  0  0  0  0
  140.6653   66.7554  227.4168 H   0  0  0  0  0  0  0  0  0  0  0  0
  141.6237   68.7814  228.5112 H   0  0  0  0  0  0  0  0  0  0  0  0
  141.2893   70.9883  227.3577 H   0  0  0  0  0  0  0  0  0  0  0  0
  139.3399   72.0927  225.7268 H   0  0  0  0  0  0  0  0  0  0  0  0
  141.0327   72.0062  225.1318 H   0  0  0  0  0  0  0  0  0  0  0  0
  139.3951   76.8745  220.1045 H   0  0  0  0  0  0  0  0  0  0  0  0
  138.3261   75.5420  220.7490 H   0  0  0  0  0  0  0  0  0  0  0  0
  137.5482   77.9006  221.2144 H   0  0  0  0  0  0  0  0  0  0  0  0
  137.7121   76.8142  222.6361 H   0  0  0  0  0  0  0  0  0  0  0  0
  137.7055   79.8431  222.6235 H   0  0  0  0  0  0  0  0  0  0  0  0
  139.2620   81.4569  223.6755 H   0  0  0  0  0  0  0  0  0  0  0  0
  141.6260   80.8646  224.1250 H   0  0  0  0  0  0  0  0  0  0  0  0
  142.4115   78.5955  223.4864 H   0  0  0  0  0  0  0  0  0  0  0  0
  141.9433   76.7885  221.7147 H   0  0  0  0  0  0  0  0  0  0  0  0
  141.3175   76.1468  223.3163 H   0  0  0  0  0  0  0  0  0  0  0  0
  1  2  2  0
  2  3  1  0
  3  4  1  0
  4  5  1  0
  5  6  1  0
  6  7  1  0
  7  8  1  0
  8  9  1  0
  9 10  1  0
 10 11  1  0
  2 12  1  0
 12 13  2  0
 13 14  1  0
 14 15  2  0
 15 16  1  0
 16 17  1  0
 17 18  1  0
 18 19  1  0
 19 20  2  0
 20 21  1  0
 21 22  2  0
 22 23  1  0
 23 24  2  0
 24 25  1  0
 15 26  1  0
 26 27  2  0
 27 28  1  0
 28 29  1  0
 29 30  1  0
 30 31  1  0
 31 32  2  0
 32 33  1  0
 33 34  2  0
 34 35  1  0
 35 36  2  0
 36 37  1  0
 11  6  1  0
 27 12  1  0
 37 28  1  0
 25 16  1  0
 36 31  1  0
 24 19  1  0
  3 38  1  0
  4 39  1  0
  4 40  1  0
  5 41  1  0
  5 42  1  0
  6 43  1  0
  7 44  1  0
  7 45  1  0
  8 46  1  0
  8 47  1  0
  9 48  1  0
 10 49  1  0
 10 50  1  0
 11 51  1  0
 11 52  1  0
 13 53  1  0
 17 54  1  0
 17 55  1  0
 18 56  1  0
 18 57  1  0
 20 58  1  0
 21 59  1  0
 22 60  1  0
 23 61  1  0
 25 62  1  0
 25 63  1  0
 29 64  1  0
 29 65  1  0
 30 66  1  0
 30 67  1  0
 32 68  1  0
 33 69  1  0
 34 70  1  0
 35 71  1  0
 37 72  1  0
 37 73  1  0
M  END
>  <smiles>  (33) 
O=C(NCCC1CCNCC1)c1cnc(N2CCc3ccccc3C2)nc1N1CCc2ccccc2C1

>  <score_type>  (33) 
oracle

>  <origin>  (33) 
autodockgpu

>  <m_score__min__energy>  (33) 
-10.16

>  <m_primary>  (33) 
energy

>  <rmsd>  (33) 
5.283878568189692

>  <m_score__min__rmsd>  (33) 
5.283878568189692

>  <meeko>  (33) 
{"free_energy": -9.45, "intermolecular_energy": -11.24, "internal_energy": -2.31, "cluster_size": 38, "cluster_id": 1, "rank_in_cluster": 9}

>  <energy>  (33) 
-8.74

>  <cluster_rmsd>  (33) 
1.39

>  <cluster>  (33) 
1

$$$$

     RDKit          3D

 73 78  0  0  0  0  0  0  0  0999 V2000
  142.3140   73.5480  219.0450 O   0  0  0  0  0  0  0  0  0  0  0  0
  141.0830   73.5110  219.3050 C   0  0  0  0  0  0  0  0  0  0  0  0
  140.0830   74.0120  218.4140 N   0  0  0  0  0  0  0  0  0  0  0  0
  140.4010   74.6190  217.1330 C   0  0  0  0  0  0  0  0  0  0  0  0
  140.0930   76.0780  217.1520 C   0  0  0  0  0  0  0  0  0  0  0  0
  140.7700   76.8710  218.2210 C   0  0  0  0  0  0  0  0  0  0  0  0
  140.5480   78.3340  218.1560 C   0  0  0  0  0  0  0  0  0  0  0  0
  141.7640   79.0520  218.6820 C   0  0  0  0  0  0  0  0  0  0  0  0
  142.1910   78.3370  219.8900 N   0  0  0  0  0  0  0  0  0  0  0  0
  142.8970   77.1300  219.4990 C   0  0  0  0  0  0  0  0  0  0  0  0
  142.2340   76.4660  218.3130 C   0  0  0  0  0  0  0  0  0  0  0  0
  140.6150   72.9330  220.5660 C   0  0  0  0  0  0  0  0  0  0  0  0
  140.7670   71.5440  220.6730 C   0  0  0  0  0  0  0  0  0  0  0  0
  140.3480   70.9950  221.8210 N   0  0  0  0  0  0  0  0  0  0  0  0
  139.8120   71.6940  222.8290 C   0  0  0  0  0  0  0  0  0  0  0  0
  139.4100   70.9910  224.0180 N   0  0  0  0  0  0  0  0  0  0  0  0
  138.5480   69.8390  223.9860 C   0  0  0  0  0  0  0  0  0  0  0  0
  139.1660   68.6050  224.5950 C   0  0  0  0  0  0  0  0  0  0  0  0
  139.9140   68.9740  225.8160 C   0  0  0  0  0  0  0  0  0  0  0  0
  140.3080   67.9760  226.6810 C   0  0  0  0  0  0  0  0  0  0  0  0
  141.0040   68.2700  227.8370 C   0  0  0  0  0  0  0  0  0  0  0  0
  141.3460   69.5630  228.1970 C   0  0  0  0  0  0  0  0  0  0  0  0
  140.9480   70.5680  227.3230 C   0  0  0  0  0  0  0  0  0  0  0  0
  140.2430   70.2720  226.1550 C   0  0  0  0  0  0  0  0  0  0  0  0
  139.8760   71.4480  225.3150 C   0  0  0  0  0  0  0  0  0  0  0  0
  139.6730   73.0190  222.7120 N   0  0  0  0  0  0  0  0  0  0  0  0
  140.0670   73.6790  221.5850 C   0  0  0  0  0  0  0  0  0  0  0  0
  139.9280   75.0890  221.4520 N   0  0  0  0  0  0  0  0  0  0  0  0
  138.8770   75.7420  220.7400 C   0  0  0  0  0  0  0  0  0  0  0  0
  138.2140   76.8470  221.5300 C   0  0  0  0  0  0  0  0  0  0  0  0
  139.2480   77.7360  222.0970 C   0  0  0  0  0  0  0  0  0  0  0  0
  138.9150   79.0480  222.3750 C   0  0  0  0  0  0  0  0  0  0  0  0
  139.8760   79.8900  222.9180 C   0  0  0  0  0  0  0  0  0  0  0  0
  141.1530   79.4670  223.1920 C   0  0  0  0  0  0  0  0  0  0  0  0
  141.4530   78.1490  222.9010 C   0  0  0  0  0  0  0  0  0  0  0  0
  140.5370   77.2800  222.3650 C   0  0  0  0  0  0  0  0  0  0  0  0
  140.9450   75.9060  222.0930 C   0  0  0  0  0  0  0  0  0  0  0  0
  139.0610   73.9310  218.7180 H   0  0  0  0  0  0  0  0  0  0  0  0
  141.4714   74.4783  216.9222 H   0  0  0  0  0  0  0  0  0  0  0  0
  139.7928   74.1385  216.3524 H   0  0  0  0  0  0  0  0  0  0  0  0
  140.3906   76.4985  216.1801 H   0  0  0  0  0  0  0  0  0  0  0  0
  139.0157   76.1533  217.3609 H   0  0  0  0  0  0  0  0  0  0  0  0
  140.2820   76.6118  219.1721 H   0  0  0  0  0  0  0  0  0  0  0  0
  140.3698   78.6315  217.1121 H   0  0  0  0  0  0  0  0  0  0  0  0
  139.6732   78.5990  218.7680 H   0  0  0  0  0  0  0  0  0  0  0  0
  142.5668   79.0375  217.9301 H   0  0  0  0  0  0  0  0  0  0  0  0
  141.5338   80.1038  218.9073 H   0  0  0  0  0  0  0  0  0  0  0  0
  141.3000   78.0210  220.3510 H   0  0  0  0  0  0  0  0  0  0  0  0
  143.9317   77.3907  219.2317 H   0  0  0  0  0  0  0  0  0  0  0  0
  142.8792   76.4275  220.3453 H   0  0  0  0  0  0  0  0  0  0  0  0
  142.7520   76.7711  217.3918 H   0  0  0  0  0  0  0  0  0  0  0  0
  142.2926   75.3748  218.4393 H   0  0  0  0  0  0  0  0  0  0  0  0
  141.2039   70.9410  219.8634 H   0  0  0  0  0  0  0  0  0  0  0  0
  137.6284   70.0773  224.5406 H   0  0  0  0  0  0  0  0  0  0  0  0
  138.3515   69.6125  222.9276 H   0  0  0  0  0  0  0  0  0  0  0  0
  138.3727   67.8886  224.8545 H   0  0  0  0  0  0  0  0  0  0  0  0
  139.8546   68.1464  223.8701 H   0  0  0  0  0  0  0  0  0  0  0  0
  140.0643   66.9292  226.4470 H   0  0  0  0  0  0  0  0  0  0  0  0
  141.2990   67.4429  228.4994 H   0  0  0  0  0  0  0  0  0  0  0  0
  141.9006   69.7820  229.1214 H   0  0  0  0  0  0  0  0  0  0  0  0
  141.1929   71.6148  227.5558 H   0  0  0  0  0  0  0  0  0  0  0  0
  139.0769   72.0180  225.8116 H   0  0  0  0  0  0  0  0  0  0  0  0
  140.7577   72.0920  225.1813 H   0  0  0  0  0  0  0  0  0  0  0  0
  139.2956   76.1743  219.8192 H   0  0  0  0  0  0  0  0  0  0  0  0
  138.1069   74.9849  220.5307 H   0  0  0  0  0  0  0  0  0  0  0  0
  137.5552   77.4271  220.8671 H   0  0  0  0  0  0  0  0  0  0  0  0
  137.6201   76.4088  222.3456 H   0  0  0  0  0  0  0  0  0  0  0  0
  137.9008   79.4207  222.1686 H   0  0  0  0  0  0  0  0  0  0  0  0
  139.6046   80.9333  223.1365 H   0  0  0  0  0  0  0  0  0  0  0  0
  141.9034   80.1458  223.6234 H   0  0  0  0  0  0  0  0  0  0  0  0
  142.4690   77.7819  223.1081 H   0  0  0  0  0  0  0  0  0  0  0  0
  141.8272   75.9335  221.4365 H   0  0  0  0  0  0  0  0  0  0  0  0
  141.1484   75.4419  223.0693 H   0  0  0  0  0  0  0  0  0  0  0  0
  1  2  2  0
  2  3  1  0
  3  4  1  0
  4  5  1  0
  5  6  1  0
  6  7  1  0
  7  8  1  0
  8  9  1  0
  9 10  1  0
 10 11  1  0
  2 12  1  0
 12 13  2  0
 13 14  1  0
 14 15  2  0
 15 16  1  0
 16 17  1  0
 17 18  1  0
 18 19  1  0
 19 20  2  0
 20 21  1  0
 21 22  2  0
 22 23  1  0
 23 24  2  0
 24 25  1  0
 15 26  1  0
 26 27  2  0
 27 28  1  0
 28 29  1  0
 29 30  1  0
 30 31  1  0
 31 32  2  0
 32 33  1  0
 33 34  2  0
 34 35  1  0
 35 36  2  0
 36 37  1  0
 11  6  1  0
 27 12  1  0
 37 28  1  0
 25 16  1  0
 36 31  1  0
 24 19  1  0
  3 38  1  0
  4 39  1  0
  4 40  1  0
  5 41  1  0
  5 42  1  0
  6 43  1  0
  7 44  1  0
  7 45  1  0
  8 46  1  0
  8 47  1  0
  9 48  1  0
 10 49  1  0
 10 50  1  0
 11 51  1  0
 11 52  1  0
 13 53  1  0
 17 54  1  0
 17 55  1  0
 18 56  1  0
 18 57  1  0
 20 58  1  0
 21 59  1  0
 22 60  1  0
 23 61  1  0
 25 62  1  0
 25 63  1  0
 29 64  1  0
 29 65  1  0
 30 66  1  0
 30 67  1  0
 32 68  1  0
 33 69  1  0
 34 70  1  0
 35 71  1  0
 37 72  1  0
 37 73  1  0
M  END
>  <smiles>  (34) 
O=C(NCCC1CCNCC1)c1cnc(N2CCc3ccccc3C2)nc1N1CCc2ccccc2C1

>  <score_type>  (34) 
oracle

>  <origin>  (34) 
autodockgpu

>  <m_score__min__energy>  (34) 
-10.16

>  <m_primary>  (34) 
energy

>  <rmsd>  (34) 
5.672030496716636

>  <m_score__min__rmsd>  (34) 
5.672030496716636

>  <meeko>  (34) 
{"free_energy": -7.96, "intermolecular_energy": -9.75, "internal_energy": -2.55, "cluster_size": 38, "cluster_id": 1, "rank_in_cluster": 38}

>  <energy>  (34) 
-8.7

>  <cluster_rmsd>  (34) 
1.17

>  <cluster>  (34) 
1

$$$$

     RDKit          3D

 73 78  0  0  0  0  0  0  0  0999 V2000
  141.2140   74.4480  218.6040 O   0  0  0  0  0  0  0  0  0  0  0  0
  141.7320   74.4120  219.7510 C   0  0  0  0  0  0  0  0  0  0  0  0
  142.9420   75.0990  220.0840 N   0  0  0  0  0  0  0  0  0  0  0  0
  143.6870   75.8920  219.1220 C   0  0  0  0  0  0  0  0  0  0  0  0
  142.7630   76.7300  218.3050 C   0  0  0  0  0  0  0  0  0  0  0  0
  142.5120   78.1090  218.8160 C   0  0  0  0  0  0  0  0  0  0  0  0
  141.2820   78.2670  219.6270 C   0  0  0  0  0  0  0  0  0  0  0  0
  140.7250   79.6540  219.4330 C   0  0  0  0  0  0  0  0  0  0  0  0
  141.8620   80.5800  219.4750 N   0  0  0  0  0  0  0  0  0  0  0  0
  142.5590   80.5280  218.2020 C   0  0  0  0  0  0  0  0  0  0  0  0
  142.6400   79.1110  217.6780 C   0  0  0  0  0  0  0  0  0  0  0  0
  141.0930   73.6430  220.8200 C   0  0  0  0  0  0  0  0  0  0  0  0
  141.3820   72.2720  220.8180 C   0  0  0  0  0  0  0  0  0  0  0  0
  140.8090   71.5490  221.7900 N   0  0  0  0  0  0  0  0  0  0  0  0
  140.0030   72.0670  222.7260 C   0  0  0  0  0  0  0  0  0  0  0  0
  139.4570   71.1890  223.7260 N   0  0  0  0  0  0  0  0  0  0  0  0
  138.4300   70.2230  223.4360 C   0  0  0  0  0  0  0  0  0  0  0  0
  138.8300   68.8030  223.7520 C   0  0  0  0  0  0  0  0  0  0  0  0
  139.5820   68.7690  225.0240 C   0  0  0  0  0  0  0  0  0  0  0  0
  139.7880   67.5550  225.6420 C   0  0  0  0  0  0  0  0  0  0  0  0
  140.4790   67.4710  226.8350 C   0  0  0  0  0  0  0  0  0  0  0  0
  141.0020   68.5810  227.4770 C   0  0  0  0  0  0  0  0  0  0  0  0
  140.7940   69.8060  226.8520 C   0  0  0  0  0  0  0  0  0  0  0  0
  140.0940   69.8910  225.6470 C   0  0  0  0  0  0  0  0  0  0  0  0
  139.9410   71.2670  225.0930 C   0  0  0  0  0  0  0  0  0  0  0  0
  139.7370   73.3770  222.7150 N   0  0  0  0  0  0  0  0  0  0  0  0
  140.2680   74.2040  221.7690 C   0  0  0  0  0  0  0  0  0  0  0  0
  139.9940   75.6000  221.7510 N   0  0  0  0  0  0  0  0  0  0  0  0
  138.7750   76.1870  221.2960 C   0  0  0  0  0  0  0  0  0  0  0  0
  138.1960   77.1930  222.2640 C   0  0  0  0  0  0  0  0  0  0  0  0
  139.2480   78.1450  222.6750 C   0  0  0  0  0  0  0  0  0  0  0  0
  138.8730   79.4080  223.0920 C   0  0  0  0  0  0  0  0  0  0  0  0
  139.8520   80.3080  223.4890 C   0  0  0  0  0  0  0  0  0  0  0  0
  141.1870   79.9890  223.4860 C   0  0  0  0  0  0  0  0  0  0  0  0
  141.5280   78.7180  223.0640 C   0  0  0  0  0  0  0  0  0  0  0  0
  140.5960   77.7950  222.6620 C   0  0  0  0  0  0  0  0  0  0  0  0
  141.0500   76.4760  222.2340 C   0  0  0  0  0  0  0  0  0  0  0  0
  143.3010   75.0150  221.0860 H   0  0  0  0  0  0  0  0  0  0  0  0
  144.3889   76.5466  219.6594 H   0  0  0  0  0  0  0  0  0  0  0  0
  144.2360   75.2135  218.4525 H   0  0  0  0  0  0  0  0  0  0  0  0
  143.1906   76.8172  217.2953 H   0  0  0  0  0  0  0  0  0  0  0  0
  141.7897   76.2185  218.3369 H   0  0  0  0  0  0  0  0  0  0  0  0
  143.2978   78.3255  219.5546 H   0  0  0  0  0  0  0  0  0  0  0  0
  140.5354   77.5245  219.3087 H   0  0  0  0  0  0  0  0  0  0  0  0
  141.5221   78.1144  220.6896 H   0  0  0  0  0  0  0  0  0  0  0  0
  140.2156   79.7244  218.4606 H   0  0  0  0  0  0  0  0  0  0  0  0
  139.9910   79.8963  220.2156 H   0  0  0  0  0  0  0  0  0  0  0  0
  142.5210   80.1730  220.1870 H   0  0  0  0  0  0  0  0  0  0  0  0
  142.0196   81.1497  217.4723 H   0  0  0  0  0  0  0  0  0  0  0  0
  143.5825   80.9026  218.3506 H   0  0  0  0  0  0  0  0  0  0  0  0
  141.8255   78.9453  216.9575 H   0  0  0  0  0  0  0  0  0  0  0  0
  143.6156   78.9694  217.1900 H   0  0  0  0  0  0  0  0  0  0  0  0
  142.0400   71.8163  220.0635 H   0  0  0  0  0  0  0  0  0  0  0  0
  137.5389   70.4737  224.0303 H   0  0  0  0  0  0  0  0  0  0  0  0
  138.2382   70.2710  222.3539 H   0  0  0  0  0  0  0  0  0  0  0  0
  137.9276   68.1807  223.8439 H   0  0  0  0  0  0  0  0  0  0  0  0
  139.4655   68.4146  222.9425 H   0  0  0  0  0  0  0  0  0  0  0  0
  139.3959   66.6380  225.1779 H   0  0  0  0  0  0  0  0  0  0  0  0
  140.6197   66.4814  227.2942 H   0  0  0  0  0  0  0  0  0  0  0  0
  141.5505   68.4986  228.4269 H   0  0  0  0  0  0  0  0  0  0  0  0
  141.1876   70.7230  227.3148 H   0  0  0  0  0  0  0  0  0  0  0  0
  139.2212   71.8304  225.7049 H   0  0  0  0  0  0  0  0  0  0  0  0
  140.9150   71.7779  225.1078 H   0  0  0  0  0  0  0  0  0  0  0  0
  138.9680   76.6945  220.3394 H   0  0  0  0  0  0  0  0  0  0  0  0
  138.0409   75.3741  221.1943 H   0  0  0  0  0  0  0  0  0  0  0  0
  137.3763   77.7409  221.7763 H   0  0  0  0  0  0  0  0  0  0  0  0
  137.8107   76.6681  223.1506 H   0  0  0  0  0  0  0  0  0  0  0  0
  137.8116   79.6964  223.1090 H   0  0  0  0  0  0  0  0  0  0  0  0
  139.5473   81.3125  223.8177 H   0  0  0  0  0  0  0  0  0  0  0  0
  141.9514   80.7128  223.8052 H   0  0  0  0  0  0  0  0  0  0  0  0
  142.5908   78.4346  223.0498 H   0  0  0  0  0  0  0  0  0  0  0  0
  141.7814   76.6111  221.4235 H   0  0  0  0  0  0  0  0  0  0  0  0
  141.4769   75.9892  223.1233 H   0  0  0  0  0  0  0  0  0  0  0  0
  1  2  2  0
  2  3  1  0
  3  4  1  0
  4  5  1  0
  5  6  1  0
  6  7  1  0
  7  8  1  0
  8  9  1  0
  9 10  1  0
 10 11  1  0
  2 12  1  0
 12 13  2  0
 13 14  1  0
 14 15  2  0
 15 16  1  0
 16 17  1  0
 17 18  1  0
 18 19  1  0
 19 20  2  0
 20 21  1  0
 21 22  2  0
 22 23  1  0
 23 24  2  0
 24 25  1  0
 15 26  1  0
 26 27  2  0
 27 28  1  0
 28 29  1  0
 29 30  1  0
 30 31  1  0
 31 32  2  0
 32 33  1  0
 33 34  2  0
 34 35  1  0
 35 36  2  0
 36 37  1  0
 11  6  1  0
 27 12  1  0
 37 28  1  0
 25 16  1  0
 36 31  1  0
 24 19  1  0
  3 38  1  0
  4 39  1  0
  4 40  1  0
  5 41  1  0
  5 42  1  0
  6 43  1  0
  7 44  1  0
  7 45  1  0
  8 46  1  0
  8 47  1  0
  9 48  1  0
 10 49  1  0
 10 50  1  0
 11 51  1  0
 11 52  1  0
 13 53  1  0
 17 54  1  0
 17 55  1  0
 18 56  1  0
 18 57  1  0
 20 58  1  0
 21 59  1  0
 22 60  1  0
 23 61  1  0
 25 62  1  0
 25 63  1  0
 29 64  1  0
 29 65  1  0
 30 66  1  0
 30 67  1  0
 32 68  1  0
 33 69  1  0
 34 70  1  0
 35 71  1  0
 37 72  1  0
 37 73  1  0
M  END
>  <smiles>  (35) 
O=C(NCCC1CCNCC1)c1cnc(N2CCc3ccccc3C2)nc1N1CCc2ccccc2C1

>  <score_type>  (35) 
oracle

>  <origin>  (35) 
autodockgpu

>  <m_score__min__energy>  (35) 
-10.16

>  <m_primary>  (35) 
energy

>  <rmsd>  (35) 
5.830932763817077

>  <m_score__min__rmsd>  (35) 
5.830932763817077

>  <meeko>  (35) 
{"free_energy": -10.02, "intermolecular_energy": -11.81, "internal_energy": -1.98, "cluster_size": 38, "cluster_id": 1, "rank_in_cluster": 2}

>  <energy>  (35) 
-8.64

>  <cluster_rmsd>  (35) 
1.24

>  <cluster>  (35) 
1

$$$$

     RDKit          3D

 73 78  0  0  0  0  0  0  0  0999 V2000
  141.2070   74.5640  218.5860 O   0  0  0  0  0  0  0  0  0  0  0  0
  141.7160   74.5540  219.7370 C   0  0  0  0  0  0  0  0  0  0  0  0
  142.9020   75.2790  220.0720 N   0  0  0  0  0  0  0  0  0  0  0  0
  143.6310   76.0850  219.1080 C   0  0  0  0  0  0  0  0  0  0  0  0
  142.6920   76.9090  218.2950 C   0  0  0  0  0  0  0  0  0  0  0  0
  142.0940   78.0880  218.9890 C   0  0  0  0  0  0  0  0  0  0  0  0
  140.6350   78.0050  219.2310 C   0  0  0  0  0  0  0  0  0  0  0  0
  140.0370   79.3870  219.1830 C   0  0  0  0  0  0  0  0  0  0  0  0
  140.9440   80.2710  219.9230 N   0  0  0  0  0  0  0  0  0  0  0  0
  142.0880   80.5820  219.0850 C   0  0  0  0  0  0  0  0  0  0  0  0
  142.5390   79.3710  218.3000 C   0  0  0  0  0  0  0  0  0  0  0  0
  141.0910   73.7770  220.8090 C   0  0  0  0  0  0  0  0  0  0  0  0
  141.3800   72.4060  220.7920 C   0  0  0  0  0  0  0  0  0  0  0  0
  140.8200   71.6760  221.7660 N   0  0  0  0  0  0  0  0  0  0  0  0
  140.0270   72.1870  222.7170 C   0  0  0  0  0  0  0  0  0  0  0  0
  139.4940   71.3020  223.7180 N   0  0  0  0  0  0  0  0  0  0  0  0
  138.5650   70.2460  223.4080 C   0  0  0  0  0  0  0  0  0  0  0  0
  139.0570   68.8750  223.7990 C   0  0  0  0  0  0  0  0  0  0  0  0
  139.7340   68.9440  225.1110 C   0  0  0  0  0  0  0  0  0  0  0  0
  139.9990   67.7720  225.7860 C   0  0  0  0  0  0  0  0  0  0  0  0
  140.6230   67.7850  227.0180 C   0  0  0  0  0  0  0  0  0  0  0  0
  141.0180   68.9540  227.6450 C   0  0  0  0  0  0  0  0  0  0  0  0
  140.7510   70.1360  226.9630 C   0  0  0  0  0  0  0  0  0  0  0  0
  140.1190   70.1240  225.7190 C   0  0  0  0  0  0  0  0  0  0  0  0
  139.8900   71.4640  225.1060 C   0  0  0  0  0  0  0  0  0  0  0  0
  139.7600   73.4970  222.7200 N   0  0  0  0  0  0  0  0  0  0  0  0
  140.2790   74.3310  221.7730 C   0  0  0  0  0  0  0  0  0  0  0  0
  140.0050   75.7270  221.7690 N   0  0  0  0  0  0  0  0  0  0  0  0
  138.7650   76.3140  221.3740 C   0  0  0  0  0  0  0  0  0  0  0  0
  138.2340   77.3200  222.3700 C   0  0  0  0  0  0  0  0  0  0  0  0
  139.3050   78.2710  222.7290 C   0  0  0  0  0  0  0  0  0  0  0  0
  138.9510   79.5340  223.1640 C   0  0  0  0  0  0  0  0  0  0  0  0
  139.9480   80.4340  223.5130 C   0  0  0  0  0  0  0  0  0  0  0  0
  141.2820   80.1160  223.4450 C   0  0  0  0  0  0  0  0  0  0  0  0
  141.6020   78.8440  223.0060 C   0  0  0  0  0  0  0  0  0  0  0  0
  140.6510   77.9210  222.6500 C   0  0  0  0  0  0  0  0  0  0  0  0
  141.0830   76.6030  222.1990 C   0  0  0  0  0  0  0  0  0  0  0  0
  143.2560   75.2160  221.0780 H   0  0  0  0  0  0  0  0  0  0  0  0
  144.3243   76.7500  219.6438 H   0  0  0  0  0  0  0  0  0  0  0  0
  144.1880   75.4157  218.4358 H   0  0  0  0  0  0  0  0  0  0  0  0
  143.2409   77.2775  217.4159 H   0  0  0  0  0  0  0  0  0  0  0  0
  141.8484   76.2467  218.0506 H   0  0  0  0  0  0  0  0  0  0  0  0
  142.4915   78.0923  220.0146 H   0  0  0  0  0  0  0  0  0  0  0  0
  140.1702   77.3775  218.4562 H   0  0  0  0  0  0  0  0  0  0  0  0
  140.4528   77.5616  220.2210 H   0  0  0  0  0  0  0  0  0  0  0  0
  139.9479   79.7244  218.1398 H   0  0  0  0  0  0  0  0  0  0  0  0
  139.0306   79.3956  219.6269 H   0  0  0  0  0  0  0  0  0  0  0  0
  141.3110   79.6840  220.7160 H   0  0  0  0  0  0  0  0  0  0  0  0
  141.8107   81.3816  218.3824 H   0  0  0  0  0  0  0  0  0  0  0  0
  142.9163   80.9038  219.7334 H   0  0  0  0  0  0  0  0  0  0  0  0
  142.1009   79.4103  217.2918 H   0  0  0  0  0  0  0  0  0  0  0  0
  143.6373   79.3775  218.2388 H   0  0  0  0  0  0  0  0  0  0  0  0
  142.0277   71.9561  220.0251 H   0  0  0  0  0  0  0  0  0  0  0  0
  137.6237   70.4430  223.9420 H   0  0  0  0  0  0  0  0  0  0  0  0
  138.4336   70.2423  222.3159 H   0  0  0  0  0  0  0  0  0  0  0  0
  138.2029   68.1849  223.8641 H   0  0  0  0  0  0  0  0  0  0  0  0
  139.7674   68.5131  223.0411 H   0  0  0  0  0  0  0  0  0  0  0  0
  139.7089   66.8109  225.3363 H   0  0  0  0  0  0  0  0  0  0  0  0
  140.8141   66.8261  227.5221 H   0  0  0  0  0  0  0  0  0  0  0  0
  141.5146   68.9483  228.6265 H   0  0  0  0  0  0  0  0  0  0  0  0
  141.0430   71.0969  227.4118 H   0  0  0  0  0  0  0  0  0  0  0  0
  139.0935   71.9870  225.6556 H   0  0  0  0  0  0  0  0  0  0  0  0
  140.8180   72.0525  225.1555 H   0  0  0  0  0  0  0  0  0  0  0  0
  138.9110   76.8219  220.4092 H   0  0  0  0  0  0  0  0  0  0  0  0
  138.0268   75.5012  221.3077 H   0  0  0  0  0  0  0  0  0  0  0  0
  137.3915   77.8684  221.9233 H   0  0  0  0  0  0  0  0  0  0  0  0
  137.8922   76.7949  223.2741 H   0  0  0  0  0  0  0  0  0  0  0  0
  137.8917   79.8225  223.2328 H   0  0  0  0  0  0  0  0  0  0  0  0
  139.6592   81.4383  223.8565 H   0  0  0  0  0  0  0  0  0  0  0  0
  142.0608   80.8399  223.7269 H   0  0  0  0  0  0  0  0  0  0  0  0
  142.6628   78.5605  222.9395 H   0  0  0  0  0  0  0  0  0  0  0  0
  141.7728   76.7389  221.3530 H   0  0  0  0  0  0  0  0  0  0  0  0
  141.5537   76.1158  223.0656 H   0  0  0  0  0  0  0  0  0  0  0  0
  1  2  2  0
  2  3  1  0
  3  4  1  0
  4  5  1  0
  5  6  1  0
  6  7  1  0
  7  8  1  0
  8  9  1  0
  9 10  1  0
 10 11  1  0
  2 12  1  0
 12 13  2  0
 13 14  1  0
 14 15  2  0
 15 16  1  0
 16 17  1  0
 17 18  1  0
 18 19  1  0
 19 20  2  0
 20 21  1  0
 21 22  2  0
 22 23  1  0
 23 24  2  0
 24 25  1  0
 15 26  1  0
 26 27  2  0
 27 28  1  0
 28 29  1  0
 29 30  1  0
 30 31  1  0
 31 32  2  0
 32 33  1  0
 33 34  2  0
 34 35  1  0
 35 36  2  0
 36 37  1  0
 11  6  1  0
 27 12  1  0
 37 28  1  0
 25 16  1  0
 36 31  1  0
 24 19  1  0
  3 38  1  0
  4 39  1  0
  4 40  1  0
  5 41  1  0
  5 42  1  0
  6 43  1  0
  7 44  1  0
  7 45  1  0
  8 46  1  0
  8 47  1  0
  9 48  1  0
 10 49  1  0
 10 50  1  0
 11 51  1  0
 11 52  1  0
 13 53  1  0
 17 54  1  0
 17 55  1  0
 18 56  1  0
 18 57  1  0
 20 58  1  0
 21 59  1  0
 22 60  1  0
 23 61  1  0
 25 62  1  0
 25 63  1  0
 29 64  1  0
 29 65  1  0
 30 66  1  0
 30 67  1  0
 32 68  1  0
 33 69  1  0
 34 70  1  0
 35 71  1  0
 37 72  1  0
 37 73  1  0
M  END
>  <smiles>  (36) 
O=C(NCCC1CCNCC1)c1cnc(N2CCc3ccccc3C2)nc1N1CCc2ccccc2C1

>  <score_type>  (36) 
oracle

>  <origin>  (36) 
autodockgpu

>  <m_score__min__energy>  (36) 
-10.16

>  <m_primary>  (36) 
energy

>  <rmsd>  (36) 
5.633940776077058

>  <m_score__min__rmsd>  (36) 
5.633940776077058

>  <meeko>  (36) 
{"free_energy": -9.74, "intermolecular_energy": -11.53, "internal_energy": -2.34, "cluster_size": 38, "cluster_id": 1, "rank_in_cluster": 4}

>  <energy>  (36) 
-8.58

>  <cluster_rmsd>  (36) 
1.38

>  <cluster>  (36) 
1

$$$$

     RDKit          3D

 73 78  0  0  0  0  0  0  0  0999 V2000
  143.4030   74.7240  220.0120 O   0  0  0  0  0  0  0  0  0  0  0  0
  142.1460   74.7640  220.0520 C   0  0  0  0  0  0  0  0  0  0  0  0
  141.3630   75.5890  219.1860 N   0  0  0  0  0  0  0  0  0  0  0  0
  141.9520   76.4630  218.1870 C   0  0  0  0  0  0  0  0  0  0  0  0
  142.5310   77.6780  218.8280 C   0  0  0  0  0  0  0  0  0  0  0  0
  141.5460   78.6440  219.3990 C   0  0  0  0  0  0  0  0  0  0  0  0
  140.1440   78.4480  218.9610 C   0  0  0  0  0  0  0  0  0  0  0  0
  139.4400   79.7790  218.9170 C   0  0  0  0  0  0  0  0  0  0  0  0
  139.8290   80.5080  220.1290 N   0  0  0  0  0  0  0  0  0  0  0  0
  141.1640   81.0490  219.9460 C   0  0  0  0  0  0  0  0  0  0  0  0
  142.0600   80.0660  219.2260 C   0  0  0  0  0  0  0  0  0  0  0  0
  141.4160   73.9390  221.0170 C   0  0  0  0  0  0  0  0  0  0  0  0
  141.7850   72.5870  221.0390 C   0  0  0  0  0  0  0  0  0  0  0  0
  141.1320   71.8150  221.9170 N   0  0  0  0  0  0  0  0  0  0  0  0
  140.1770   72.2670  222.7410 C   0  0  0  0  0  0  0  0  0  0  0  0
  139.5540   71.3400  223.6480 N   0  0  0  0  0  0  0  0  0  0  0  0
  138.5410   70.4060  223.2330 C   0  0  0  0  0  0  0  0  0  0  0  0
  138.9050   68.9650  223.4910 C   0  0  0  0  0  0  0  0  0  0  0  0
  139.5670   68.8480  224.8070 C   0  0  0  0  0  0  0  0  0  0  0  0
  139.7190   67.5970  225.3660 C   0  0  0  0  0  0  0  0  0  0  0  0
  140.3260   67.4360  226.5960 C   0  0  0  0  0  0  0  0  0  0  0  0
  140.8140   68.5000  227.3360 C   0  0  0  0  0  0  0  0  0  0  0  0
  140.6600   69.7610  226.7710 C   0  0  0  0  0  0  0  0  0  0  0  0
  140.0460   69.9250  225.5290 C   0  0  0  0  0  0  0  0  0  0  0  0
  139.9440   71.3330  225.0470 C   0  0  0  0  0  0  0  0  0  0  0  0
  139.8350   73.5590  222.7070 N   0  0  0  0  0  0  0  0  0  0  0  0
  140.4380   74.4330  221.8510 C   0  0  0  0  0  0  0  0  0  0  0  0
  140.0850   75.8110  221.8100 N   0  0  0  0  0  0  0  0  0  0  0  0
  138.8450   76.3210  221.3210 C   0  0  0  0  0  0  0  0  0  0  0  0
  138.1870   77.3020  222.2640 C   0  0  0  0  0  0  0  0  0  0  0  0
  139.1730   78.3180  222.6870 C   0  0  0  0  0  0  0  0  0  0  0  0
  138.7170   79.5610  223.0800 C   0  0  0  0  0  0  0  0  0  0  0  0
  139.6330   80.5210  223.4880 C   0  0  0  0  0  0  0  0  0  0  0  0
  140.9840   80.2800  223.5180 C   0  0  0  0  0  0  0  0  0  0  0  0
  141.4070   79.0260  223.1190 C   0  0  0  0  0  0  0  0  0  0  0  0
  140.5390   78.0460  222.7080 C   0  0  0  0  0  0  0  0  0  0  0  0
  141.0770   76.7520  222.3050 C   0  0  0  0  0  0  0  0  0  0  0  0
  140.3000   75.5510  219.2890 H   0  0  0  0  0  0  0  0  0  0  0  0
  142.7480   75.9203  217.6561 H   0  0  0  0  0  0  0  0  0  0  0  0
  141.1675   76.7742  217.4815 H   0  0  0  0  0  0  0  0  0  0  0  0
  143.1909   77.3472  219.6436 H   0  0  0  0  0  0  0  0  0  0  0  0
  143.0501   78.2209  218.0244 H   0  0  0  0  0  0  0  0  0  0  0  0
  141.4762   78.4329  220.4763 H   0  0  0  0  0  0  0  0  0  0  0  0
  140.1331   77.9943  217.9590 H   0  0  0  0  0  0  0  0  0  0  0  0
  139.6281   77.7840  219.6702 H   0  0  0  0  0  0  0  0  0  0  0  0
  139.7483   80.3404  218.0227 H   0  0  0  0  0  0  0  0  0  0  0  0
  138.3491   79.6457  218.8713 H   0  0  0  0  0  0  0  0  0  0  0  0
  139.9090   79.7730  220.8770 H   0  0  0  0  0  0  0  0  0  0  0  0
  141.0980   81.9740  219.3543 H   0  0  0  0  0  0  0  0  0  0  0  0
  141.5959   81.2518  220.9371 H   0  0  0  0  0  0  0  0  0  0  0  0
  142.0814   80.3145  218.1546 H   0  0  0  0  0  0  0  0  0  0  0  0
  143.0717   80.1310  219.6529 H   0  0  0  0  0  0  0  0  0  0  0  0
  142.5641   72.1843  220.3750 H   0  0  0  0  0  0  0  0  0  0  0  0
  137.6137   70.6335  223.7793 H   0  0  0  0  0  0  0  0  0  0  0  0
  138.4246   70.5191  222.1450 H   0  0  0  0  0  0  0  0  0  0  0  0
  137.9928   68.3503  223.4843 H   0  0  0  0  0  0  0  0  0  0  0  0
  139.5908   68.6155  222.7052 H   0  0  0  0  0  0  0  0  0  0  0  0
  139.3511   66.7134  224.8239 H   0  0  0  0  0  0  0  0  0  0  0  0
  140.4261   66.4198  227.0051 H   0  0  0  0  0  0  0  0  0  0  0  0
  141.2957   68.3558  228.3144 H   0  0  0  0  0  0  0  0  0  0  0  0
  141.0286   70.6446  227.3126 H   0  0  0  0  0  0  0  0  0  0  0  0
  139.1892   71.8697  225.6405 H   0  0  0  0  0  0  0  0  0  0  0  0
  140.9193   71.8295  225.1577 H   0  0  0  0  0  0  0  0  0  0  0  0
  139.0301   76.8286  220.3628 H   0  0  0  0  0  0  0  0  0  0  0  0
  138.1617   75.4658  221.2126 H   0  0  0  0  0  0  0  0  0  0  0  0
  137.3483   77.7963  221.7519 H   0  0  0  0  0  0  0  0  0  0  0  0
  137.8126   76.7650  223.1480 H   0  0  0  0  0  0  0  0  0  0  0  0
  137.6406   79.7876  223.0698 H   0  0  0  0  0  0  0  0  0  0  0  0
  139.2632   81.5095  223.7981 H   0  0  0  0  0  0  0  0  0  0  0  0
  141.6980   81.0503  223.8449 H   0  0  0  0  0  0  0  0  0  0  0  0
  142.4844   78.8045  223.1315 H   0  0  0  0  0  0  0  0  0  0  0  0
  141.8168   76.9211  221.5087 H   0  0  0  0  0  0  0  0  0  0  0  0
  141.5113   76.3000  223.2089 H   0  0  0  0  0  0  0  0  0  0  0  0
  1  2  2  0
  2  3  1  0
  3  4  1  0
  4  5  1  0
  5  6  1  0
  6  7  1  0
  7  8  1  0
  8  9  1  0
  9 10  1  0
 10 11  1  0
  2 12  1  0
 12 13  2  0
 13 14  1  0
 14 15  2  0
 15 16  1  0
 16 17  1  0
 17 18  1  0
 18 19  1  0
 19 20  2  0
 20 21  1  0
 21 22  2  0
 22 23  1  0
 23 24  2  0
 24 25  1  0
 15 26  1  0
 26 27  2  0
 27 28  1  0
 28 29  1  0
 29 30  1  0
 30 31  1  0
 31 32  2  0
 32 33  1  0
 33 34  2  0
 34 35  1  0
 35 36  2  0
 36 37  1  0
 11  6  1  0
 27 12  1  0
 37 28  1  0
 25 16  1  0
 36 31  1  0
 24 19  1  0
  3 38  1  0
  4 39  1  0
  4 40  1  0
  5 41  1  0
  5 42  1  0
  6 43  1  0
  7 44  1  0
  7 45  1  0
  8 46  1  0
  8 47  1  0
  9 48  1  0
 10 49  1  0
 10 50  1  0
 11 51  1  0
 11 52  1  0
 13 53  1  0
 17 54  1  0
 17 55  1  0
 18 56  1  0
 18 57  1  0
 20 58  1  0
 21 59  1  0
 22 60  1  0
 23 61  1  0
 25 62  1  0
 25 63  1  0
 29 64  1  0
 29 65  1  0
 30 66  1  0
 30 67  1  0
 32 68  1  0
 33 69  1  0
 34 70  1  0
 35 71  1  0
 37 72  1  0
 37 73  1  0
M  END
>  <smiles>  (37) 
O=C(NCCC1CCNCC1)c1cnc(N2CCc3ccccc3C2)nc1N1CCc2ccccc2C1

>  <score_type>  (37) 
oracle

>  <origin>  (37) 
autodockgpu

>  <m_score__min__energy>  (37) 
-10.16

>  <m_primary>  (37) 
energy

>  <rmsd>  (37) 
5.617835986620454

>  <m_score__min__rmsd>  (37) 
5.617835986620454

>  <meeko>  (37) 
{"free_energy": -9.09, "intermolecular_energy": -10.88, "internal_energy": -2.58, "cluster_size": 38, "cluster_id": 1, "rank_in_cluster": 19}

>  <energy>  (37) 
-8.56

>  <cluster_rmsd>  (37) 
1.42

>  <cluster>  (37) 
1

$$$$

     RDKit          3D

 73 78  0  0  0  0  0  0  0  0999 V2000
  143.3010   74.7010  219.9360 O   0  0  0  0  0  0  0  0  0  0  0  0
  142.0440   74.7350  219.9870 C   0  0  0  0  0  0  0  0  0  0  0  0
  141.2480   75.5360  219.1100 N   0  0  0  0  0  0  0  0  0  0  0  0
  141.8230   76.3910  218.0860 C   0  0  0  0  0  0  0  0  0  0  0  0
  142.5430   77.5400  218.7060 C   0  0  0  0  0  0  0  0  0  0  0  0
  141.6820   78.5850  219.3330 C   0  0  0  0  0  0  0  0  0  0  0  0
  140.2250   78.3980  219.1460 C   0  0  0  0  0  0  0  0  0  0  0  0
  139.5470   79.7430  219.0900 C   0  0  0  0  0  0  0  0  0  0  0  0
  140.1410   80.5650  220.1500 N   0  0  0  0  0  0  0  0  0  0  0  0
  141.4390   81.0410  219.7060 C   0  0  0  0  0  0  0  0  0  0  0  0
  142.1880   79.9680  218.9470 C   0  0  0  0  0  0  0  0  0  0  0  0
  141.3280   73.9280  220.9770 C   0  0  0  0  0  0  0  0  0  0  0  0
  141.6730   72.5700  220.9950 C   0  0  0  0  0  0  0  0  0  0  0  0
  141.0320   71.8130  221.8960 N   0  0  0  0  0  0  0  0  0  0  0  0
  140.1110   72.2860  222.7450 C   0  0  0  0  0  0  0  0  0  0  0  0
  139.4990   71.3750  223.6750 N   0  0  0  0  0  0  0  0  0  0  0  0
  138.4940   70.4220  223.2840 C   0  0  0  0  0  0  0  0  0  0  0  0
  138.8720   68.9910  223.5750 C   0  0  0  0  0  0  0  0  0  0  0  0
  139.5380   68.9100  224.8920 C   0  0  0  0  0  0  0  0  0  0  0  0
  139.7030   67.6740  225.4790 C   0  0  0  0  0  0  0  0  0  0  0  0
  140.3130   67.5470  226.7110 C   0  0  0  0  0  0  0  0  0  0  0  0
  140.7920   68.6330  227.4250 C   0  0  0  0  0  0  0  0  0  0  0  0
  140.6260   69.8790  226.8310 C   0  0  0  0  0  0  0  0  0  0  0  0
  140.0080   70.0080  225.5870 C   0  0  0  0  0  0  0  0  0  0  0  0
  139.8910   71.4040  225.0730 C   0  0  0  0  0  0  0  0  0  0  0  0
  139.7920   73.5840  222.7150 N   0  0  0  0  0  0  0  0  0  0  0  0
  140.3850   74.4430  221.8370 C   0  0  0  0  0  0  0  0  0  0  0  0
  140.0550   75.8270  221.8000 N   0  0  0  0  0  0  0  0  0  0  0  0
  138.8110   76.3580  221.3420 C   0  0  0  0  0  0  0  0  0  0  0  0
  138.1970   77.3540  222.2990 C   0  0  0  0  0  0  0  0  0  0  0  0
  139.2120   78.3530  222.6900 C   0  0  0  0  0  0  0  0  0  0  0  0
  138.7890   79.6060  223.0900 C   0  0  0  0  0  0  0  0  0  0  0  0
  139.7340   80.5510  223.4690 C   0  0  0  0  0  0  0  0  0  0  0  0
  141.0810   80.2850  223.4630 C   0  0  0  0  0  0  0  0  0  0  0  0
  141.4700   79.0220  223.0580 C   0  0  0  0  0  0  0  0  0  0  0  0
  140.5730   78.0570  222.6750 C   0  0  0  0  0  0  0  0  0  0  0  0
  141.0780   76.7520  222.2640 C   0  0  0  0  0  0  0  0  0  0  0  0
  140.1870   75.4940  219.2250 H   0  0  0  0  0  0  0  0  0  0  0  0
  142.5304   75.8050  217.4809 H   0  0  0  0  0  0  0  0  0  0  0  0
  141.0124   76.7803  217.4525 H   0  0  0  0  0  0  0  0  0  0  0  0
  143.2092   77.1401  219.4846 H   0  0  0  0  0  0  0  0  0  0  0  0
  143.0692   78.0425  217.8810 H   0  0  0  0  0  0  0  0  0  0  0  0
  141.7835   78.4736  220.4226 H   0  0  0  0  0  0  0  0  0  0  0  0
  140.0428   77.8565  218.2060 H   0  0  0  0  0  0  0  0  0  0  0  0
  139.8194   77.8186  219.9885 H   0  0  0  0  0  0  0  0  0  0  0  0
  139.7160   80.2111  218.1090 H   0  0  0  0  0  0  0  0  0  0  0  0
  138.4609   79.6423  219.2323 H   0  0  0  0  0  0  0  0  0  0  0  0
  140.3280   79.8970  220.9420 H   0  0  0  0  0  0  0  0  0  0  0  0
  141.2958   81.9112  219.0485 H   0  0  0  0  0  0  0  0  0  0  0  0
  142.0297   81.3158  220.5923 H   0  0  0  0  0  0  0  0  0  0  0  0
  142.0398   80.1187  217.8675 H   0  0  0  0  0  0  0  0  0  0  0  0
  143.2567   80.0370  219.1981 H   0  0  0  0  0  0  0  0  0  0  0  0
  142.4250   72.1505  220.3105 H   0  0  0  0  0  0  0  0  0  0  0  0
  137.5656   70.6535  223.8266 H   0  0  0  0  0  0  0  0  0  0  0  0
  138.3746   70.5085  222.1939 H   0  0  0  0  0  0  0  0  0  0  0  0
  137.9655   68.3680  223.5847 H   0  0  0  0  0  0  0  0  0  0  0  0
  139.5597   68.6301  222.7960 H   0  0  0  0  0  0  0  0  0  0  0  0
  139.3431   66.7747  224.9578 H   0  0  0  0  0  0  0  0  0  0  0  0
  140.4232   66.5416  227.1435 H   0  0  0  0  0  0  0  0  0  0  0  0
  141.2760   68.5163  228.4059 H   0  0  0  0  0  0  0  0  0  0  0  0
  140.9881   70.7783  227.3507 H   0  0  0  0  0  0  0  0  0  0  0  0
  139.1317   71.9465  225.6553 H   0  0  0  0  0  0  0  0  0  0  0  0
  140.8614   71.9127  225.1707 H   0  0  0  0  0  0  0  0  0  0  0  0
  138.9793   76.8590  220.3773 H   0  0  0  0  0  0  0  0  0  0  0  0
  138.1095   75.5152  221.2548 H   0  0  0  0  0  0  0  0  0  0  0  0
  137.3534   77.8615  221.8084 H   0  0  0  0  0  0  0  0  0  0  0  0
  137.8377   76.8270  223.1952 H   0  0  0  0  0  0  0  0  0  0  0  0
  137.7171   79.8523  223.1081 H   0  0  0  0  0  0  0  0  0  0  0  0
  139.3911   81.5473  223.7850 H   0  0  0  0  0  0  0  0  0  0  0  0
  141.8177   81.0432  223.7669 H   0  0  0  0  0  0  0  0  0  0  0  0
  142.5431   78.7806  223.0421 H   0  0  0  0  0  0  0  0  0  0  0  0
  141.7990   76.9044  221.4474 H   0  0  0  0  0  0  0  0  0  0  0  0
  141.5294   76.2961  223.1575 H   0  0  0  0  0  0  0  0  0  0  0  0
  1  2  2  0
  2  3  1  0
  3  4  1  0
  4  5  1  0
  5  6  1  0
  6  7  1  0
  7  8  1  0
  8  9  1  0
  9 10  1  0
 10 11  1  0
  2 12  1  0
 12 13  2  0
 13 14  1  0
 14 15  2  0
 15 16  1  0
 16 17  1  0
 17 18  1  0
 18 19  1  0
 19 20  2  0
 20 21  1  0
 21 22  2  0
 22 23  1  0
 23 24  2  0
 24 25  1  0
 15 26  1  0
 26 27  2  0
 27 28  1  0
 28 29  1  0
 29 30  1  0
 30 31  1  0
 31 32  2  0
 32 33  1  0
 33 34  2  0
 34 35  1  0
 35 36  2  0
 36 37  1  0
 11  6  1  0
 27 12  1  0
 37 28  1  0
 25 16  1  0
 36 31  1  0
 24 19  1  0
  3 38  1  0
  4 39  1  0
  4 40  1  0
  5 41  1  0
  5 42  1  0
  6 43  1  0
  7 44  1  0
  7 45  1  0
  8 46  1  0
  8 47  1  0
  9 48  1  0
 10 49  1  0
 10 50  1  0
 11 51  1  0
 11 52  1  0
 13 53  1  0
 17 54  1  0
 17 55  1  0
 18 56  1  0
 18 57  1  0
 20 58  1  0
 21 59  1  0
 22 60  1  0
 23 61  1  0
 25 62  1  0
 25 63  1  0
 29 64  1  0
 29 65  1  0
 30 66  1  0
 30 67  1  0
 32 68  1  0
 33 69  1  0
 34 70  1  0
 35 71  1  0
 37 72  1  0
 37 73  1  0
M  END
>  <smiles>  (38) 
O=C(NCCC1CCNCC1)c1cnc(N2CCc3ccccc3C2)nc1N1CCc2ccccc2C1

>  <score_type>  (38) 
oracle

>  <origin>  (38) 
autodockgpu

>  <m_score__min__energy>  (38) 
-10.16

>  <m_primary>  (38) 
energy

>  <rmsd>  (38) 
5.639690967071381

>  <m_score__min__rmsd>  (38) 
5.639690967071381

>  <meeko>  (38) 
{"free_energy": -9.15, "intermolecular_energy": -10.94, "internal_energy": -2.54, "cluster_size": 38, "cluster_id": 1, "rank_in_cluster": 15}

>  <energy>  (38) 
-7.96

>  <cluster_rmsd>  (38) 
1.56

>  <cluster>  (38) 
1

$$$$

     RDKit          3D

 73 78  0  0  0  0  0  0  0  0999 V2000
  141.5020   74.3970  218.5410 O   0  0  0  0  0  0  0  0  0  0  0  0
  141.8190   74.5930  219.7440 C   0  0  0  0  0  0  0  0  0  0  0  0
  142.7970   75.5550  220.1460 N   0  0  0  0  0  0  0  0  0  0  0  0
  143.5210   76.3850  219.1990 C   0  0  0  0  0  0  0  0  0  0  0  0
  142.5740   77.0960  218.2930 C   0  0  0  0  0  0  0  0  0  0  0  0
  141.6290   78.0440  218.9540 C   0  0  0  0  0  0  0  0  0  0  0  0
  140.2250   77.9630  218.4870 C   0  0  0  0  0  0  0  0  0  0  0  0
  139.5860   79.3250  218.5760 C   0  0  0  0  0  0  0  0  0  0  0  0
  139.9940   79.9050  219.8610 N   0  0  0  0  0  0  0  0  0  0  0  0
  141.3560   80.3950  219.7450 C   0  0  0  0  0  0  0  0  0  0  0  0
  142.2130   79.4500  218.9330 C   0  0  0  0  0  0  0  0  0  0  0  0
  141.1750   73.8200  220.8080 C   0  0  0  0  0  0  0  0  0  0  0  0
  141.4760   72.4520  220.8110 C   0  0  0  0  0  0  0  0  0  0  0  0
  140.9000   71.7260  221.7780 N   0  0  0  0  0  0  0  0  0  0  0  0
  140.0790   72.2380  222.7050 C   0  0  0  0  0  0  0  0  0  0  0  0
  139.5290   71.3580  223.7010 N   0  0  0  0  0  0  0  0  0  0  0  0
  138.5810   70.3220  223.3850 C   0  0  0  0  0  0  0  0  0  0  0  0
  139.0470   68.9390  223.7680 C   0  0  0  0  0  0  0  0  0  0  0  0
  139.7250   68.9880  225.0810 C   0  0  0  0  0  0  0  0  0  0  0  0
  139.9680   67.8070  225.7480 C   0  0  0  0  0  0  0  0  0  0  0  0
  140.5930   67.8010  226.9800 C   0  0  0  0  0  0  0  0  0  0  0  0
  141.0100   68.9600  227.6140 C   0  0  0  0  0  0  0  0  0  0  0  0
  140.7650   70.1500  226.9390 C   0  0  0  0  0  0  0  0  0  0  0  0
  140.1320   70.1580  225.6950 C   0  0  0  0  0  0  0  0  0  0  0  0
  139.9280   71.5050  225.0890 C   0  0  0  0  0  0  0  0  0  0  0  0
  139.8010   73.5460  222.6880 N   0  0  0  0  0  0  0  0  0  0  0  0
  140.3350   74.3760  221.7460 C   0  0  0  0  0  0  0  0  0  0  0  0
  140.0490   75.7690  221.7220 N   0  0  0  0  0  0  0  0  0  0  0  0
  138.8430   76.3460  221.2220 C   0  0  0  0  0  0  0  0  0  0  0  0
  138.2160   77.3430  222.1700 C   0  0  0  0  0  0  0  0  0  0  0  0
  139.2420   78.3030  222.6250 C   0  0  0  0  0  0  0  0  0  0  0  0
  138.8390   79.5610  223.0310 C   0  0  0  0  0  0  0  0  0  0  0  0
  139.7940   80.4690  223.4690 C   0  0  0  0  0  0  0  0  0  0  0  0
  141.1310   80.1630  223.5170 C   0  0  0  0  0  0  0  0  0  0  0  0
  141.5000   78.8960  223.1050 C   0  0  0  0  0  0  0  0  0  0  0  0
  140.5930   77.9660  222.6640 C   0  0  0  0  0  0  0  0  0  0  0  0
  141.0760   76.6540  222.2490 C   0  0  0  0  0  0  0  0  0  0  0  0
  142.9950   75.6560  221.1910 H   0  0  0  0  0  0  0  0  0  0  0  0
  144.1185   77.1257  219.7506 H   0  0  0  0  0  0  0  0  0  0  0  0
  144.1765   75.7423  218.5930 H   0  0  0  0  0  0  0  0  0  0  0  0
  143.1685   77.6659  217.5637 H   0  0  0  0  0  0  0  0  0  0  0  0
  141.9455   76.3127  217.8442 H   0  0  0  0  0  0  0  0  0  0  0  0
  141.5351   77.7263  220.0029 H   0  0  0  0  0  0  0  0  0  0  0  0
  140.2053   77.6163  217.4432 H   0  0  0  0  0  0  0  0  0  0  0  0
  139.6688   77.2553  219.1193 H   0  0  0  0  0  0  0  0  0  0  0  0
  139.9325   79.9601  217.7474 H   0  0  0  0  0  0  0  0  0  0  0  0
  138.4906   79.2509  218.5079 H   0  0  0  0  0  0  0  0  0  0  0  0
  140.0290   79.0930  220.5290 H   0  0  0  0  0  0  0  0  0  0  0  0
  141.3422   81.3786  219.2528 H   0  0  0  0  0  0  0  0  0  0  0  0
  141.7847   80.4711  220.7552 H   0  0  0  0  0  0  0  0  0  0  0  0
  142.2591   79.8067  217.8935 H   0  0  0  0  0  0  0  0  0  0  0  0
  143.2217   79.4214  219.3708 H   0  0  0  0  0  0  0  0  0  0  0  0
  142.1455   72.0009  220.0638 H   0  0  0  0  0  0  0  0  0  0  0  0
  137.6435   70.5336  223.9201 H   0  0  0  0  0  0  0  0  0  0  0  0
  138.4499   70.3271  222.2928 H   0  0  0  0  0  0  0  0  0  0  0  0
  138.1800   68.2647  223.8290 H   0  0  0  0  0  0  0  0  0  0  0  0
  139.7505   68.5679  223.0081 H   0  0  0  0  0  0  0  0  0  0  0  0
  139.6596   66.8544  225.2925 H   0  0  0  0  0  0  0  0  0  0  0  0
  140.7668   66.8358  227.4783 H   0  0  0  0  0  0  0  0  0  0  0  0
  141.5065   68.9396  228.5953 H   0  0  0  0  0  0  0  0  0  0  0  0
  141.0755   71.1025  227.3932 H   0  0  0  0  0  0  0  0  0  0  0  0
  139.1415   72.0399  225.6415 H   0  0  0  0  0  0  0  0  0  0  0  0
  140.8670   72.0756  225.1412 H   0  0  0  0  0  0  0  0  0  0  0  0
  139.0683   76.8591  220.2754 H   0  0  0  0  0  0  0  0  0  0  0  0
  138.1216   75.5262  221.0893 H   0  0  0  0  0  0  0  0  0  0  0  0
  137.4109   77.8849  221.6522 H   0  0  0  0  0  0  0  0  0  0  0  0
  137.8007   76.8114  223.0388 H   0  0  0  0  0  0  0  0  0  0  0  0
  137.7751   79.8396  223.0075 H   0  0  0  0  0  0  0  0  0  0  0  0
  139.4672   81.4694  223.7889 H   0  0  0  0  0  0  0  0  0  0  0  0
  141.8755   80.8930  223.8675 H   0  0  0  0  0  0  0  0  0  0  0  0
  142.5650   78.6222  223.1319 H   0  0  0  0  0  0  0  0  0  0  0  0
  141.8368   76.7999  221.4681 H   0  0  0  0  0  0  0  0  0  0  0  0
  141.4725   76.1679  223.1526 H   0  0  0  0  0  0  0  0  0  0  0  0
  1  2  2  0
  2  3  1  0
  3  4  1  0
  4  5  1  0
  5  6  1  0
  6  7  1  0
  7  8  1  0
  8  9  1  0
  9 10  1  0
 10 11  1  0
  2 12  1  0
 12 13  2  0
 13 14  1  0
 14 15  2  0
 15 16  1  0
 16 17  1  0
 17 18  1  0
 18 19  1  0
 19 20  2  0
 20 21  1  0
 21 22  2  0
 22 23  1  0
 23 24  2  0
 24 25  1  0
 15 26  1  0
 26 27  2  0
 27 28  1  0
 28 29  1  0
 29 30  1  0
 30 31  1  0
 31 32  2  0
 32 33  1  0
 33 34  2  0
 34 35  1  0
 35 36  2  0
 36 37  1  0
 11  6  1  0
 27 12  1  0
 37 28  1  0
 25 16  1  0
 36 31  1  0
 24 19  1  0
  3 38  1  0
  4 39  1  0
  4 40  1  0
  5 41  1  0
  5 42  1  0
  6 43  1  0
  7 44  1  0
  7 45  1  0
  8 46  1  0
  8 47  1  0
  9 48  1  0
 10 49  1  0
 10 50  1  0
 11 51  1  0
 11 52  1  0
 13 53  1  0
 17 54  1  0
 17 55  1  0
 18 56  1  0
 18 57  1  0
 20 58  1  0
 21 59  1  0
 22 60  1  0
 23 61  1  0
 25 62  1  0
 25 63  1  0
 29 64  1  0
 29 65  1  0
 30 66  1  0
 30 67  1  0
 32 68  1  0
 33 69  1  0
 34 70  1  0
 35 71  1  0
 37 72  1  0
 37 73  1  0
M  END
>  <smiles>  (39) 
O=C(NCCC1CCNCC1)c1cnc(N2CCc3ccccc3C2)nc1N1CCc2ccccc2C1

>  <score_type>  (39) 
oracle

>  <origin>  (39) 
autodockgpu

>  <m_score__min__energy>  (39) 
-10.16

>  <m_primary>  (39) 
energy

>  <rmsd>  (39) 
5.459195149195663

>  <m_score__min__rmsd>  (39) 
5.459195149195663

>  <meeko>  (39) 
{"free_energy": -9.59, "intermolecular_energy": -11.38, "internal_energy": -2.52, "cluster_size": 38, "cluster_id": 1, "rank_in_cluster": 6}

>  <energy>  (39) 
-9.97

>  <cluster_rmsd>  (39) 
0.0

>  <cluster>  (39) 
2

$$$$

     RDKit          3D

 73 78  0  0  0  0  0  0  0  0999 V2000
  136.3000   70.5530  222.0550 O   0  0  0  0  0  0  0  0  0  0  0  0
  136.7110   71.5310  222.7330 C   0  0  0  0  0  0  0  0  0  0  0  0
  135.9820   72.0780  223.8340 N   0  0  0  0  0  0  0  0  0  0  0  0
  134.6950   71.5600  224.2620 C   0  0  0  0  0  0  0  0  0  0  0  0
  134.6760   71.3540  225.7390 C   0  0  0  0  0  0  0  0  0  0  0  0
  133.9470   72.3880  226.5300 C   0  0  0  0  0  0  0  0  0  0  0  0
  132.6810   71.9310  227.1500 C   0  0  0  0  0  0  0  0  0  0  0  0
  131.7100   73.0820  227.2210 C   0  0  0  0  0  0  0  0  0  0  0  0
  132.4700   74.2530  227.6700 N   0  0  0  0  0  0  0  0  0  0  0  0
  133.2320   74.7790  226.5520 C   0  0  0  0  0  0  0  0  0  0  0  0
  133.8140   73.6640  225.7120 C   0  0  0  0  0  0  0  0  0  0  0  0
  137.9920   72.1610  222.4090 C   0  0  0  0  0  0  0  0  0  0  0  0
  137.9640   73.0310  221.3110 C   0  0  0  0  0  0  0  0  0  0  0  0
  139.1250   73.6210  220.9990 N   0  0  0  0  0  0  0  0  0  0  0  0
  140.2670   73.4180  221.6690 C   0  0  0  0  0  0  0  0  0  0  0  0
  141.4500   74.1190  221.2450 N   0  0  0  0  0  0  0  0  0  0  0  0
  142.6450   73.4400  220.8170 C   0  0  0  0  0  0  0  0  0  0  0  0
  143.0690   73.7900  219.4120 C   0  0  0  0  0  0  0  0  0  0  0  0
  142.8810   75.2370  219.1820 C   0  0  0  0  0  0  0  0  0  0  0  0
  143.4700   75.8170  218.0780 C   0  0  0  0  0  0  0  0  0  0  0  0
  143.3300   77.1670  217.8230 C   0  0  0  0  0  0  0  0  0  0  0  0
  142.6000   78.0120  218.6420 C   0  0  0  0  0  0  0  0  0  0  0  0
  142.0060   77.4260  219.7540 C   0  0  0  0  0  0  0  0  0  0  0  0
  142.1490   76.0620  220.0140 C   0  0  0  0  0  0  0  0  0  0  0  0
  141.4630   75.5710  221.2440 C   0  0  0  0  0  0  0  0  0  0  0  0
  140.2790   72.5850  222.7150 N   0  0  0  0  0  0  0  0  0  0  0  0
  139.1500   71.9320  223.1180 C   0  0  0  0  0  0  0  0  0  0  0  0
  139.1510   71.0460  224.2310 N   0  0  0  0  0  0  0  0  0  0  0  0
  138.4780   69.7880  224.2730 C   0  0  0  0  0  0  0  0  0  0  0  0
  139.3530   68.6560  224.7610 C   0  0  0  0  0  0  0  0  0  0  0  0
  140.0320   69.0590  226.0090 C   0  0  0  0  0  0  0  0  0  0  0  0
  140.4270   68.0760  226.8960 C   0  0  0  0  0  0  0  0  0  0  0  0
  141.0730   68.4420  228.0690 C   0  0  0  0  0  0  0  0  0  0  0  0
  141.3390   69.7520  228.3830 C   0  0  0  0  0  0  0  0  0  0  0  0
  140.9300   70.7100  227.4740 C   0  0  0  0  0  0  0  0  0  0  0  0
  140.2880   70.3960  226.3030 C   0  0  0  0  0  0  0  0  0  0  0  0
  139.8950   71.4760  225.4040 C   0  0  0  0  0  0  0  0  0  0  0  0
  136.4150   72.9050  224.3550 H   0  0  0  0  0  0  0  0  0  0  0  0
  133.9074   72.2769  223.9870 H   0  0  0  0  0  0  0  0  0  0  0  0
  134.5199   70.5933  223.7672 H   0  0  0  0  0  0  0  0  0  0  0  0
  134.2026   70.3812  225.9379 H   0  0  0  0  0  0  0  0  0  0  0  0
  135.7255   71.4156  226.0625 H   0  0  0  0  0  0  0  0  0  0  0  0
  134.5636   72.6094  227.4136 H   0  0  0  0  0  0  0  0  0  0  0  0
  132.2470   71.1225  226.5434 H   0  0  0  0  0  0  0  0  0  0  0  0
  132.8839   71.5602  228.1656 H   0  0  0  0  0  0  0  0  0  0  0  0
  131.2745   73.2713  226.2288 H   0  0  0  0  0  0  0  0  0  0  0  0
  130.8848   72.8590  227.9132 H   0  0  0  0  0  0  0  0  0  0  0  0
  133.1750   73.8770  228.3550 H   0  0  0  0  0  0  0  0  0  0  0  0
  132.5697   75.3928  225.9239 H   0  0  0  0  0  0  0  0  0  0  0  0
  134.0605   75.3835  226.9497 H   0  0  0  0  0  0  0  0  0  0  0  0
  133.1524   73.4754  224.8537 H   0  0  0  0  0  0  0  0  0  0  0  0
  134.8127   73.9672  225.3646 H   0  0  0  0  0  0  0  0  0  0  0  0
  137.0431   73.2182  220.7393 H   0  0  0  0  0  0  0  0  0  0  0  0
  143.4618   73.7077  221.5035 H   0  0  0  0  0  0  0  0  0  0  0  0
  142.4249   72.3623  220.8282 H   0  0  0  0  0  0  0  0  0  0  0  0
  144.1297   73.5326  219.2752 H   0  0  0  0  0  0  0  0  0  0  0  0
  142.4565   73.2241  218.6946 H   0  0  0  0  0  0  0  0  0  0  0  0
  144.0606   75.1945  217.3898 H   0  0  0  0  0  0  0  0  0  0  0  0
  143.8187   77.5886  216.9323 H   0  0  0  0  0  0  0  0  0  0  0  0
  142.4961   79.0854  218.4251 H   0  0  0  0  0  0  0  0  0  0  0  0
  141.4131   78.0479  220.4408 H   0  0  0  0  0  0  0  0  0  0  0  0
  142.0004   75.9333  222.1328 H   0  0  0  0  0  0  0  0  0  0  0  0
  140.4293   75.9466  221.2616 H   0  0  0  0  0  0  0  0  0  0  0  0
  137.6140   69.8770  224.9479 H   0  0  0  0  0  0  0  0  0  0  0  0
  138.1772   69.5457  223.2430 H   0  0  0  0  0  0  0  0  0  0  0  0
  138.7315   67.7688  224.9522 H   0  0  0  0  0  0  0  0  0  0  0  0
  140.1060   68.4192  223.9949 H   0  0  0  0  0  0  0  0  0  0  0  0
  140.2320   67.0162  226.6754 H   0  0  0  0  0  0  0  0  0  0  0  0
  141.3828   67.6546  228.7719 H   0  0  0  0  0  0  0  0  0  0  0  0
  141.8541   70.0267  229.3153 H   0  0  0  0  0  0  0  0  0  0  0  0
  141.1276   71.7684  227.6991 H   0  0  0  0  0  0  0  0  0  0  0  0
  139.2677   72.1815  225.9687 H   0  0  0  0  0  0  0  0  0  0  0  0
  140.8268   71.9285  225.0339 H   0  0  0  0  0  0  0  0  0  0  0  0
  1  2  2  0
  2  3  1  0
  3  4  1  0
  4  5  1  0
  5  6  1  0
  6  7  1  0
  7  8  1  0
  8  9  1  0
  9 10  1  0
 10 11  1  0
  2 12  1  0
 12 13  2  0
 13 14  1  0
 14 15  2  0
 15 16  1  0
 16 17  1  0
 17 18  1  0
 18 19  1  0
 19 20  2  0
 20 21  1  0
 21 22  2  0
 22 23  1  0
 23 24  2  0
 24 25  1  0
 15 26  1  0
 26 27  2  0
 27 28  1  0
 28 29  1  0
 29 30  1  0
 30 31  1  0
 31 32  2  0
 32 33  1  0
 33 34  2  0
 34 35  1  0
 35 36  2  0
 36 37  1  0
 11  6  1  0
 27 12  1  0
 37 28  1  0
 25 16  1  0
 36 31  1  0
 24 19  1  0
  3 38  1  0
  4 39  1  0
  4 40  1  0
  5 41  1  0
  5 42  1  0
  6 43  1  0
  7 44  1  0
  7 45  1  0
  8 46  1  0
  8 47  1  0
  9 48  1  0
 10 49  1  0
 10 50  1  0
 11 51  1  0
 11 52  1  0
 13 53  1  0
 17 54  1  0
 17 55  1  0
 18 56  1  0
 18 57  1  0
 20 58  1  0
 21 59  1  0
 22 60  1  0
 23 61  1  0
 25 62  1  0
 25 63  1  0
 29 64  1  0
 29 65  1  0
 30 66  1  0
 30 67  1  0
 32 68  1  0
 33 69  1  0
 34 70  1  0
 35 71  1  0
 37 72  1  0
 37 73  1  0
M  END
>  <smiles>  (40) 
O=C(NCCC1CCNCC1)c1cnc(N2CCc3ccccc3C2)nc1N1CCc2ccccc2C1

>  <score_type>  (40) 
oracle

>  <origin>  (40) 
autodockgpu

>  <m_score__min__energy>  (40) 
-10.16

>  <m_primary>  (40) 
energy

>  <rmsd>  (40) 
9.992267605464562

>  <m_score__min__rmsd>  (40) 
9.992267605464562

>  <meeko>  (40) 
{"free_energy": -9.97, "intermolecular_energy": -11.76, "internal_energy": -0.98, "cluster_size": 4, "cluster_id": 2, "rank_in_cluster": 1}

>  <energy>  (40) 
-9.76

>  <cluster_rmsd>  (40) 
0.49

>  <cluster>  (40) 
2

$$$$

     RDKit          3D

 73 78  0  0  0  0  0  0  0  0999 V2000
  143.4570   75.0110  220.3790 O   0  0  0  0  0  0  0  0  0  0  0  0
  142.2450   74.7580  220.1510 C   0  0  0  0  0  0  0  0  0  0  0  0
  141.5530   75.2360  218.9940 N   0  0  0  0  0  0  0  0  0  0  0  0
  142.1860   76.0650  217.9840 C   0  0  0  0  0  0  0  0  0  0  0  0
  141.2800   77.1760  217.5720 C   0  0  0  0  0  0  0  0  0  0  0  0
  140.9860   78.1970  218.6200 C   0  0  0  0  0  0  0  0  0  0  0  0
  139.6070   78.7390  218.6030 C   0  0  0  0  0  0  0  0  0  0  0  0
  139.6220   80.1690  219.0780 C   0  0  0  0  0  0  0  0  0  0  0  0
  140.5130   80.2230  220.2420 N   0  0  0  0  0  0  0  0  0  0  0  0
  141.8900   80.2120  219.7830 C   0  0  0  0  0  0  0  0  0  0  0  0
  142.0740   79.2620  218.6200 C   0  0  0  0  0  0  0  0  0  0  0  0
  141.4770   73.9390  221.0890 C   0  0  0  0  0  0  0  0  0  0  0  0
  141.8490   72.5890  221.1390 C   0  0  0  0  0  0  0  0  0  0  0  0
  141.1610   71.8210  221.9940 N   0  0  0  0  0  0  0  0  0  0  0  0
  140.1700   72.2760  222.7720 C   0  0  0  0  0  0  0  0  0  0  0  0
  139.5120   71.3550  223.6590 N   0  0  0  0  0  0  0  0  0  0  0  0
  138.5080   70.4260  223.2110 C   0  0  0  0  0  0  0  0  0  0  0  0
  138.8540   68.9830  223.4840 C   0  0  0  0  0  0  0  0  0  0  0  0
  139.4710   68.8640  224.8220 C   0  0  0  0  0  0  0  0  0  0  0  0
  139.5970   67.6130  225.3870 C   0  0  0  0  0  0  0  0  0  0  0  0
  140.1610   67.4500  226.6370 C   0  0  0  0  0  0  0  0  0  0  0  0
  140.6300   68.5130  227.3920 C   0  0  0  0  0  0  0  0  0  0  0  0
  140.5030   69.7740  226.8200 C   0  0  0  0  0  0  0  0  0  0  0  0
  139.9320   69.9400  225.5570 C   0  0  0  0  0  0  0  0  0  0  0  0
  139.8550   71.3470  225.0710 C   0  0  0  0  0  0  0  0  0  0  0  0
  139.8260   73.5670  222.7130 N   0  0  0  0  0  0  0  0  0  0  0  0
  140.4630   74.4360  221.8760 C   0  0  0  0  0  0  0  0  0  0  0  0
  140.1080   75.8120  221.8090 N   0  0  0  0  0  0  0  0  0  0  0  0
  138.8870   76.3150  221.2640 C   0  0  0  0  0  0  0  0  0  0  0  0
  138.1870   77.3010  222.1710 C   0  0  0  0  0  0  0  0  0  0  0  0
  139.1510   78.3230  222.6260 C   0  0  0  0  0  0  0  0  0  0  0  0
  138.6750   79.5680  222.9890 C   0  0  0  0  0  0  0  0  0  0  0  0
  139.5710   80.5340  223.4280 C   0  0  0  0  0  0  0  0  0  0  0  0
  140.9200   80.2980  223.5170 C   0  0  0  0  0  0  0  0  0  0  0  0
  141.3630   79.0420  223.1460 C   0  0  0  0  0  0  0  0  0  0  0  0
  140.5160   78.0560  222.7070 C   0  0  0  0  0  0  0  0  0  0  0  0
  141.0750   76.7610  222.3380 C   0  0  0  0  0  0  0  0  0  0  0  0
  140.5250   74.9640  218.8830 H   0  0  0  0  0  0  0  0  0  0  0  0
  143.1143   76.4891  218.3944 H   0  0  0  0  0  0  0  0  0  0  0  0
  142.4076   75.4437  217.1037 H   0  0  0  0  0  0  0  0  0  0  0  0
  141.7451   77.6921  216.7191 H   0  0  0  0  0  0  0  0  0  0  0  0
  140.3151   76.7030  217.3368 H   0  0  0  0  0  0  0  0  0  0  0  0
  141.0118   77.6790  219.5900 H   0  0  0  0  0  0  0  0  0  0  0  0
  139.2096   78.6975  217.5781 H   0  0  0  0  0  0  0  0  0  0  0  0
  138.9695   78.1387  219.2688 H   0  0  0  0  0  0  0  0  0  0  0  0
  139.9994   80.8279  218.2821 H   0  0  0  0  0  0  0  0  0  0  0  0
  138.6089   80.5064  219.3422 H   0  0  0  0  0  0  0  0  0  0  0  0
  140.3630   79.3110  220.7440 H   0  0  0  0  0  0  0  0  0  0  0  0
  142.1696   81.2270  219.4643 H   0  0  0  0  0  0  0  0  0  0  0  0
  142.5296   79.8743  220.6118 H   0  0  0  0  0  0  0  0  0  0  0  0
  142.0246   79.8291  217.6788 H   0  0  0  0  0  0  0  0  0  0  0  0
  143.0526   78.7689  218.7166 H   0  0  0  0  0  0  0  0  0  0  0  0
  142.6580   72.1840  220.5133 H   0  0  0  0  0  0  0  0  0  0  0  0
  137.5639   70.6602  223.7246 H   0  0  0  0  0  0  0  0  0  0  0  0
  138.4300   70.5376  222.1195 H   0  0  0  0  0  0  0  0  0  0  0  0
  137.9386   68.3742  223.4478 H   0  0  0  0  0  0  0  0  0  0  0  0
  139.5637   68.6278  222.7223 H   0  0  0  0  0  0  0  0  0  0  0  0
  139.2428   66.7308  224.8336 H   0  0  0  0  0  0  0  0  0  0  0  0
  140.2413   66.4339  227.0505 H   0  0  0  0  0  0  0  0  0  0  0  0
  141.0770   68.3677  228.3865 H   0  0  0  0  0  0  0  0  0  0  0  0
  140.8587   70.6562  227.3724 H   0  0  0  0  0  0  0  0  0  0  0  0
  139.0841   71.8890  225.6384 H   0  0  0  0  0  0  0  0  0  0  0  0
  140.8292   71.8375  225.2139 H   0  0  0  0  0  0  0  0  0  0  0  0
  139.1108   76.8160  220.3107 H   0  0  0  0  0  0  0  0  0  0  0  0
  138.2113   75.4569  221.1336 H   0  0  0  0  0  0  0  0  0  0  0  0
  137.3688   77.7883  221.6205 H   0  0  0  0  0  0  0  0  0  0  0  0
  137.7776   76.7698  223.0429 H   0  0  0  0  0  0  0  0  0  0  0  0
  137.5995   79.7915  222.9310 H   0  0  0  0  0  0  0  0  0  0  0  0
  139.1857   81.5236  223.7146 H   0  0  0  0  0  0  0  0  0  0  0  0
  141.6173   81.0731  223.8677 H   0  0  0  0  0  0  0  0  0  0  0  0
  142.4396   78.8241  223.2053 H   0  0  0  0  0  0  0  0  0  0  0  0
  141.8474   76.9264  221.5724 H   0  0  0  0  0  0  0  0  0  0  0  0
  141.4720   76.3181  223.2633 H   0  0  0  0  0  0  0  0  0  0  0  0
  1  2  2  0
  2  3  1  0
  3  4  1  0
  4  5  1  0
  5  6  1  0
  6  7  1  0
  7  8  1  0
  8  9  1  0
  9 10  1  0
 10 11  1  0
  2 12  1  0
 12 13  2  0
 13 14  1  0
 14 15  2  0
 15 16  1  0
 16 17  1  0
 17 18  1  0
 18 19  1  0
 19 20  2  0
 20 21  1  0
 21 22  2  0
 22 23  1  0
 23 24  2  0
 24 25  1  0
 15 26  1  0
 26 27  2  0
 27 28  1  0
 28 29  1  0
 29 30  1  0
 30 31  1  0
 31 32  2  0
 32 33  1  0
 33 34  2  0
 34 35  1  0
 35 36  2  0
 36 37  1  0
 11  6  1  0
 27 12  1  0
 37 28  1  0
 25 16  1  0
 36 31  1  0
 24 19  1  0
  3 38  1  0
  4 39  1  0
  4 40  1  0
  5 41  1  0
  5 42  1  0
  6 43  1  0
  7 44  1  0
  7 45  1  0
  8 46  1  0
  8 47  1  0
  9 48  1  0
 10 49  1  0
 10 50  1  0
 11 51  1  0
 11 52  1  0
 13 53  1  0
 17 54  1  0
 17 55  1  0
 18 56  1  0
 18 57  1  0
 20 58  1  0
 21 59  1  0
 22 60  1  0
 23 61  1  0
 25 62  1  0
 25 63  1  0
 29 64  1  0
 29 65  1  0
 30 66  1  0
 30 67  1  0
 32 68  1  0
 33 69  1  0
 34 70  1  0
 35 71  1  0
 37 72  1  0
 37 73  1  0
M  END
>  <smiles>  (41) 
O=C(NCCC1CCNCC1)c1cnc(N2CCc3ccccc3C2)nc1N1CCc2ccccc2C1

>  <score_type>  (41) 
oracle

>  <origin>  (41) 
autodockgpu

>  <m_score__min__energy>  (41) 
-10.16

>  <m_primary>  (41) 
energy

>  <rmsd>  (41) 
5.6386226952999055

>  <m_score__min__rmsd>  (41) 
5.6386226952999055

>  <meeko>  (41) 
{"free_energy": -8.74, "intermolecular_energy": -10.53, "internal_energy": -2.44, "cluster_size": 38, "cluster_id": 1, "rank_in_cluster": 33}

>  <energy>  (41) 
-9.48

>  <cluster_rmsd>  (41) 
1.73

>  <cluster>  (41) 
2

$$$$

     RDKit          3D

 73 78  0  0  0  0  0  0  0  0999 V2000
  141.1150   74.3310  218.5110 O   0  0  0  0  0  0  0  0  0  0  0  0
  141.5770   74.4440  219.6770 C   0  0  0  0  0  0  0  0  0  0  0  0
  142.6820   75.2910  219.9990 N   0  0  0  0  0  0  0  0  0  0  0  0
  143.3780   76.0910  219.0070 C   0  0  0  0  0  0  0  0  0  0  0  0
  142.9390   77.5140  219.0770 C   0  0  0  0  0  0  0  0  0  0  0  0
  141.4640   77.7420  219.0410 C   0  0  0  0  0  0  0  0  0  0  0  0
  140.7860   77.2860  217.8050 C   0  0  0  0  0  0  0  0  0  0  0  0
  139.6060   78.1790  217.5200 C   0  0  0  0  0  0  0  0  0  0  0  0
  138.9220   78.4040  218.7980 N   0  0  0  0  0  0  0  0  0  0  0  0
  139.6640   79.3900  219.5630 C   0  0  0  0  0  0  0  0  0  0  0  0
  141.1560   79.1820  219.4260 C   0  0  0  0  0  0  0  0  0  0  0  0
  140.9780   73.6890  220.7790 C   0  0  0  0  0  0  0  0  0  0  0  0
  141.2370   72.3120  220.7630 C   0  0  0  0  0  0  0  0  0  0  0  0
  140.7010   71.6020  221.7640 N   0  0  0  0  0  0  0  0  0  0  0  0
  139.9560   72.1360  222.7410 C   0  0  0  0  0  0  0  0  0  0  0  0
  139.4440   71.2710  223.7690 N   0  0  0  0  0  0  0  0  0  0  0  0
  138.5190   70.2030  223.4970 C   0  0  0  0  0  0  0  0  0  0  0  0
  139.0260   68.8440  223.9120 C   0  0  0  0  0  0  0  0  0  0  0  0
  139.7210   68.9480  225.2120 C   0  0  0  0  0  0  0  0  0  0  0  0
  140.0040   67.7930  225.9090 C   0  0  0  0  0  0  0  0  0  0  0  0
  140.6470   67.8380  227.1310 C   0  0  0  0  0  0  0  0  0  0  0  0
  141.0430   69.0240  227.7260 C   0  0  0  0  0  0  0  0  0  0  0  0
  140.7570   70.1890  227.0210 C   0  0  0  0  0  0  0  0  0  0  0  0
  140.1060   70.1440  225.7870 C   0  0  0  0  0  0  0  0  0  0  0  0
  139.8590   71.4680  225.1470 C   0  0  0  0  0  0  0  0  0  0  0  0
  139.7180   73.4520  222.7420 N   0  0  0  0  0  0  0  0  0  0  0  0
  140.2160   74.2680  221.7690 C   0  0  0  0  0  0  0  0  0  0  0  0
  139.9720   75.6690  221.7630 N   0  0  0  0  0  0  0  0  0  0  0  0
  138.7530   76.2830  221.3440 C   0  0  0  0  0  0  0  0  0  0  0  0
  138.2220   77.2970  222.3310 C   0  0  0  0  0  0  0  0  0  0  0  0
  139.3050   78.2250  222.7160 C   0  0  0  0  0  0  0  0  0  0  0  0
  138.9680   79.4940  223.1470 C   0  0  0  0  0  0  0  0  0  0  0  0
  139.9770   80.3720  223.5210 C   0  0  0  0  0  0  0  0  0  0  0  0
  141.3050   80.0250  223.4790 C   0  0  0  0  0  0  0  0  0  0  0  0
  141.6070   78.7490  223.0430 C   0  0  0  0  0  0  0  0  0  0  0  0
  140.6450   77.8470  222.6650 C   0  0  0  0  0  0  0  0  0  0  0  0
  141.0590   76.5210  222.2190 C   0  0  0  0  0  0  0  0  0  0  0  0
  143.0000   75.3270  221.0190 H   0  0  0  0  0  0  0  0  0  0  0  0
  144.4606   76.0372  219.1943 H   0  0  0  0  0  0  0  0  0  0  0  0
  143.1443   75.6970  218.0069 H   0  0  0  0  0  0  0  0  0  0  0  0
  143.3234   77.9399  220.0155 H   0  0  0  0  0  0  0  0  0  0  0  0
  143.3375   77.9942  218.1711 H   0  0  0  0  0  0  0  0  0  0  0  0
  141.0178   77.0814  219.7989 H   0  0  0  0  0  0  0  0  0  0  0  0
  141.4914   77.3306  216.9622 H   0  0  0  0  0  0  0  0  0  0  0  0
  140.4384   76.2509  217.9383 H   0  0  0  0  0  0  0  0  0  0  0  0
  139.9490   79.1365  217.1011 H   0  0  0  0  0  0  0  0  0  0  0  0
  138.9290   77.7144  216.7881 H   0  0  0  0  0  0  0  0  0  0  0  0
  139.0140   77.4960  219.3220 H   0  0  0  0  0  0  0  0  0  0  0  0
  139.4071   80.3950  219.1970 H   0  0  0  0  0  0  0  0  0  0  0  0
  139.3941   79.2817  220.6239 H   0  0  0  0  0  0  0  0  0  0  0  0
  141.5447   79.8552  218.6477 H   0  0  0  0  0  0  0  0  0  0  0  0
  141.6343   79.4004  220.3922 H   0  0  0  0  0  0  0  0  0  0  0  0
  141.8443   71.8423  219.9753 H   0  0  0  0  0  0  0  0  0  0  0  0
  137.5841   70.4060  224.0399 H   0  0  0  0  0  0  0  0  0  0  0  0
  138.3722   70.1734  222.4072 H   0  0  0  0  0  0  0  0  0  0  0  0
  138.1777   68.1500  224.0053 H   0  0  0  0  0  0  0  0  0  0  0  0
  139.7278   68.4692  223.1524 H   0  0  0  0  0  0  0  0  0  0  0  0
  139.7133   66.8202  225.4857 H   0  0  0  0  0  0  0  0  0  0  0  0
  140.8530   66.8920  227.6532 H   0  0  0  0  0  0  0  0  0  0  0  0
  141.5542   69.0440  228.6998 H   0  0  0  0  0  0  0  0  0  0  0  0
  141.0488   71.1619  227.4432 H   0  0  0  0  0  0  0  0  0  0  0  0
  139.0670   71.9983  225.6960 H   0  0  0  0  0  0  0  0  0  0  0  0
  140.7834   72.0637  225.1694 H   0  0  0  0  0  0  0  0  0  0  0  0
  138.9299   76.7902  220.3841 H   0  0  0  0  0  0  0  0  0  0  0  0
  137.9997   75.4858  221.2601 H   0  0  0  0  0  0  0  0  0  0  0  0
  137.4009   77.8639  221.8680 H   0  0  0  0  0  0  0  0  0  0  0  0
  137.8500   76.7768  223.2260 H   0  0  0  0  0  0  0  0  0  0  0  0
  137.9138   79.8048  223.1933 H   0  0  0  0  0  0  0  0  0  0  0  0
  139.7027   81.3809  223.8629 H   0  0  0  0  0  0  0  0  0  0  0  0
  142.0932   80.7312  223.7790 H   0  0  0  0  0  0  0  0  0  0  0  0
  142.6628   78.4438  222.9971 H   0  0  0  0  0  0  0  0  0  0  0  0
  141.7696   76.6447  221.3885 H   0  0  0  0  0  0  0  0  0  0  0  0
  141.5007   76.0215  223.0939 H   0  0  0  0  0  0  0  0  0  0  0  0
  1  2  2  0
  2  3  1  0
  3  4  1  0
  4  5  1  0
  5  6  1  0
  6  7  1  0
  7  8  1  0
  8  9  1  0
  9 10  1  0
 10 11  1  0
  2 12  1  0
 12 13  2  0
 13 14  1  0
 14 15  2  0
 15 16  1  0
 16 17  1  0
 17 18  1  0
 18 19  1  0
 19 20  2  0
 20 21  1  0
 21 22  2  0
 22 23  1  0
 23 24  2  0
 24 25  1  0
 15 26  1  0
 26 27  2  0
 27 28  1  0
 28 29  1  0
 29 30  1  0
 30 31  1  0
 31 32  2  0
 32 33  1  0
 33 34  2  0
 34 35  1  0
 35 36  2  0
 36 37  1  0
 11  6  1  0
 27 12  1  0
 37 28  1  0
 25 16  1  0
 36 31  1  0
 24 19  1  0
  3 38  1  0
  4 39  1  0
  4 40  1  0
  5 41  1  0
  5 42  1  0
  6 43  1  0
  7 44  1  0
  7 45  1  0
  8 46  1  0
  8 47  1  0
  9 48  1  0
 10 49  1  0
 10 50  1  0
 11 51  1  0
 11 52  1  0
 13 53  1  0
 17 54  1  0
 17 55  1  0
 18 56  1  0
 18 57  1  0
 20 58  1  0
 21 59  1  0
 22 60  1  0
 23 61  1  0
 25 62  1  0
 25 63  1  0
 29 64  1  0
 29 65  1  0
 30 66  1  0
 30 67  1  0
 32 68  1  0
 33 69  1  0
 34 70  1  0
 35 71  1  0
 37 72  1  0
 37 73  1  0
M  END
>  <smiles>  (42) 
O=C(NCCC1CCNCC1)c1cnc(N2CCc3ccccc3C2)nc1N1CCc2ccccc2C1

>  <score_type>  (42) 
oracle

>  <origin>  (42) 
autodockgpu

>  <m_score__min__energy>  (42) 
-10.16

>  <m_primary>  (42) 
energy

>  <rmsd>  (42) 
5.130408837423326

>  <m_score__min__rmsd>  (42) 
5.130408837423326

>  <meeko>  (42) 
{"free_energy": -9.08, "intermolecular_energy": -10.87, "internal_energy": -2.55, "cluster_size": 38, "cluster_id": 1, "rank_in_cluster": 20}

>  <energy>  (42) 
-9.11

>  <cluster_rmsd>  (42) 
1.68

>  <cluster>  (42) 
2

$$$$

     RDKit          3D

 73 78  0  0  0  0  0  0  0  0999 V2000
  140.3570   70.2750  221.3270 O   0  0  0  0  0  0  0  0  0  0  0  0
  139.7070   70.9080  222.1990 C   0  0  0  0  0  0  0  0  0  0  0  0
  139.0610   70.2720  223.3050 N   0  0  0  0  0  0  0  0  0  0  0  0
  139.0900   68.8350  223.5140 C   0  0  0  0  0  0  0  0  0  0  0  0
  138.7850   68.5050  224.9360 C   0  0  0  0  0  0  0  0  0  0  0  0
  139.8220   68.9040  225.9320 C   0  0  0  0  0  0  0  0  0  0  0  0
  139.8780   68.0670  227.1530 C   0  0  0  0  0  0  0  0  0  0  0  0
  140.3130   68.9110  228.3230 C   0  0  0  0  0  0  0  0  0  0  0  0
  141.4170   69.7550  227.8530 N   0  0  0  0  0  0  0  0  0  0  0  0
  140.8730   70.8560  227.0790 C   0  0  0  0  0  0  0  0  0  0  0  0
  139.7260   70.3980  226.2050 C   0  0  0  0  0  0  0  0  0  0  0  0
  139.5860   72.3640  222.1110 C   0  0  0  0  0  0  0  0  0  0  0  0
  140.8000   73.0520  221.9870 C   0  0  0  0  0  0  0  0  0  0  0  0
  140.7130   74.3860  221.9020 N   0  0  0  0  0  0  0  0  0  0  0  0
  139.5560   75.0600  221.9310 C   0  0  0  0  0  0  0  0  0  0  0  0
  139.5900   76.4940  221.8200 N   0  0  0  0  0  0  0  0  0  0  0  0
  138.4180   77.3150  221.9760 C   0  0  0  0  0  0  0  0  0  0  0  0
  138.5370   78.3340  223.0820 C   0  0  0  0  0  0  0  0  0  0  0  0
  139.8930   78.9220  223.0730 C   0  0  0  0  0  0  0  0  0  0  0  0
  140.1260   80.0680  223.8010 C   0  0  0  0  0  0  0  0  0  0  0  0
  141.3740   80.6600  223.8200 C   0  0  0  0  0  0  0  0  0  0  0  0
  142.4550   80.1490  223.1210 C   0  0  0  0  0  0  0  0  0  0  0  0
  142.2190   78.9920  222.3870 C   0  0  0  0  0  0  0  0  0  0  0  0
  140.9580   78.3940  222.3670 C   0  0  0  0  0  0  0  0  0  0  0  0
  140.8470   77.1630  221.5330 C   0  0  0  0  0  0  0  0  0  0  0  0
  138.4050   74.3890  222.0500 N   0  0  0  0  0  0  0  0  0  0  0  0
  138.3810   73.0280  222.1440 C   0  0  0  0  0  0  0  0  0  0  0  0
  137.1620   72.3050  222.2670 N   0  0  0  0  0  0  0  0  0  0  0  0
  136.4830   71.6600  221.1890 C   0  0  0  0  0  0  0  0  0  0  0  0
  136.0940   70.2320  221.4950 C   0  0  0  0  0  0  0  0  0  0  0  0
  135.4120   70.1750  222.8040 C   0  0  0  0  0  0  0  0  0  0  0  0
  134.5230   69.1450  223.0440 C   0  0  0  0  0  0  0  0  0  0  0  0
  133.8820   69.0770  224.2740 C   0  0  0  0  0  0  0  0  0  0  0  0
  134.1010   69.9980  225.2680 C   0  0  0  0  0  0  0  0  0  0  0  0
  134.9960   71.0160  224.9950 C   0  0  0  0  0  0  0  0  0  0  0  0
  135.6520   71.1240  223.7950 C   0  0  0  0  0  0  0  0  0  0  0  0
  136.5800   72.2320  223.5980 C   0  0  0  0  0  0  0  0  0  0  0  0
  138.5370   70.8930  223.9990 H   0  0  0  0  0  0  0  0  0  0  0  0
  138.3405   68.3600  222.8639 H   0  0  0  0  0  0  0  0  0  0  0  0
  140.0958   68.4616  223.2712 H   0  0  0  0  0  0  0  0  0  0  0  0
  137.8459   69.0102  225.2058 H   0  0  0  0  0  0  0  0  0  0  0  0
  138.7321   67.4073  224.9832 H   0  0  0  0  0  0  0  0  0  0  0  0
  140.8017   68.7009  225.4748 H   0  0  0  0  0  0  0  0  0  0  0  0
  138.8818   67.6465  227.3549 H   0  0  0  0  0  0  0  0  0  0  0  0
  140.5986   67.2494  227.0035 H   0  0  0  0  0  0  0  0  0  0  0  0
  139.4779   69.5382  228.6681 H   0  0  0  0  0  0  0  0  0  0  0  0
  140.6311   68.2805  229.1664 H   0  0  0  0  0  0  0  0  0  0  0  0
  141.9520   69.1540  227.1750 H   0  0  0  0  0  0  0  0  0  0  0  0
  140.5108   71.6338  227.7674 H   0  0  0  0  0  0  0  0  0  0  0  0
  141.6684   71.2513  226.4300 H   0  0  0  0  0  0  0  0  0  0  0  0
  138.7753   70.6116  226.7154 H   0  0  0  0  0  0  0  0  0  0  0  0
  139.7739   70.9367  225.2471 H   0  0  0  0  0  0  0  0  0  0  0  0
  141.7669   72.5281  221.9610 H   0  0  0  0  0  0  0  0  0  0  0  0
  138.2381   77.8475  221.0304 H   0  0  0  0  0  0  0  0  0  0  0  0
  137.5879   76.6446  222.2432 H   0  0  0  0  0  0  0  0  0  0  0  0
  137.7925   79.1291  222.9284 H   0  0  0  0  0  0  0  0  0  0  0  0
  138.3588   77.8435  224.0503 H   0  0  0  0  0  0  0  0  0  0  0  0
  139.3046   80.5193  224.3768 H   0  0  0  0  0  0  0  0  0  0  0  0
  141.5150   81.5746  224.4146 H   0  0  0  0  0  0  0  0  0  0  0  0
  143.4435   80.6309  223.1452 H   0  0  0  0  0  0  0  0  0  0  0  0
  143.0405   78.5400  221.8119 H   0  0  0  0  0  0  0  0  0  0  0  0
  140.8814   77.4374  220.4683 H   0  0  0  0  0  0  0  0  0  0  0  0
  141.6830   76.4868  221.7652 H   0  0  0  0  0  0  0  0  0  0  0  0
  135.5697   72.2293  220.9614 H   0  0  0  0  0  0  0  0  0  0  0  0
  137.1781   71.6323  220.3369 H   0  0  0  0  0  0  0  0  0  0  0  0
  135.4159   69.8613  220.7122 H   0  0  0  0  0  0  0  0  0  0  0  0
  136.9975   69.6053  221.5257 H   0  0  0  0  0  0  0  0  0  0  0  0
  134.3254   68.3883  222.2705 H   0  0  0  0  0  0  0  0  0  0  0  0
  133.1736   68.2559  224.4583 H   0  0  0  0  0  0  0  0  0  0  0  0
  133.5875   69.9293  226.2383 H   0  0  0  0  0  0  0  0  0  0  0  0
  135.1900   71.7702  225.7719 H   0  0  0  0  0  0  0  0  0  0  0  0
  136.0388   73.1707  223.7878 H   0  0  0  0  0  0  0  0  0  0  0  0
  137.4150   72.0669  224.2948 H   0  0  0  0  0  0  0  0  0  0  0  0
  1  2  2  0
  2  3  1  0
  3  4  1  0
  4  5  1  0
  5  6  1  0
  6  7  1  0
  7  8  1  0
  8  9  1  0
  9 10  1  0
 10 11  1  0
  2 12  1  0
 12 13  2  0
 13 14  1  0
 14 15  2  0
 15 16  1  0
 16 17  1  0
 17 18  1  0
 18 19  1  0
 19 20  2  0
 20 21  1  0
 21 22  2  0
 22 23  1  0
 23 24  2  0
 24 25  1  0
 15 26  1  0
 26 27  2  0
 27 28  1  0
 28 29  1  0
 29 30  1  0
 30 31  1  0
 31 32  2  0
 32 33  1  0
 33 34  2  0
 34 35  1  0
 35 36  2  0
 36 37  1  0
 11  6  1  0
 27 12  1  0
 37 28  1  0
 25 16  1  0
 36 31  1  0
 24 19  1  0
  3 38  1  0
  4 39  1  0
  4 40  1  0
  5 41  1  0
  5 42  1  0
  6 43  1  0
  7 44  1  0
  7 45  1  0
  8 46  1  0
  8 47  1  0
  9 48  1  0
 10 49  1  0
 10 50  1  0
 11 51  1  0
 11 52  1  0
 13 53  1  0
 17 54  1  0
 17 55  1  0
 18 56  1  0
 18 57  1  0
 20 58  1  0
 21 59  1  0
 22 60  1  0
 23 61  1  0
 25 62  1  0
 25 63  1  0
 29 64  1  0
 29 65  1  0
 30 66  1  0
 30 67  1  0
 32 68  1  0
 33 69  1  0
 34 70  1  0
 35 71  1  0
 37 72  1  0
 37 73  1  0
M  END
>  <smiles>  (43) 
O=C(NCCC1CCNCC1)c1cnc(N2CCc3ccccc3C2)nc1N1CCc2ccccc2C1

>  <score_type>  (43) 
oracle

>  <origin>  (43) 
autodockgpu

>  <m_score__min__energy>  (43) 
-10.16

>  <m_primary>  (43) 
energy

>  <rmsd>  (43) 
9.690140738565729

>  <m_score__min__rmsd>  (43) 
9.690140738565729

>  <meeko>  (43) 
{"free_energy": -8.49, "intermolecular_energy": -10.28, "internal_energy": -1.82, "cluster_size": 1, "cluster_id": 8, "rank_in_cluster": 1}

>  <energy>  (43) 
-9.9

>  <cluster_rmsd>  (43) 
0.0

>  <cluster>  (43) 
3

$$$$

     RDKit          3D

 73 78  0  0  0  0  0  0  0  0999 V2000
  140.8030   74.2110  218.5560 O   0  0  0  0  0  0  0  0  0  0  0  0
  141.5580   73.8230  219.4860 C   0  0  0  0  0  0  0  0  0  0  0  0
  142.9780   73.9820  219.4550 N   0  0  0  0  0  0  0  0  0  0  0  0
  143.6780   74.5980  218.3420 C   0  0  0  0  0  0  0  0  0  0  0  0
  142.7770   75.5320  217.6070 C   0  0  0  0  0  0  0  0  0  0  0  0
  142.7870   76.9490  218.0770 C   0  0  0  0  0  0  0  0  0  0  0  0
  142.3730   77.1490  219.4850 C   0  0  0  0  0  0  0  0  0  0  0  0
  141.6930   78.4870  219.6240 C   0  0  0  0  0  0  0  0  0  0  0  0
  142.4870   79.4520  218.8550 N   0  0  0  0  0  0  0  0  0  0  0  0
  142.1900   79.2880  217.4440 C   0  0  0  0  0  0  0  0  0  0  0  0
  142.0470   77.8270  217.0780 C   0  0  0  0  0  0  0  0  0  0  0  0
  140.9900   73.1760  220.6700 C   0  0  0  0  0  0  0  0  0  0  0  0
  141.1960   71.7920  220.7450 C   0  0  0  0  0  0  0  0  0  0  0  0
  140.6870   71.1800  221.8220 N   0  0  0  0  0  0  0  0  0  0  0  0
  140.0150   71.8150  222.7920 C   0  0  0  0  0  0  0  0  0  0  0  0
  139.5260   71.0490  223.9070 N   0  0  0  0  0  0  0  0  0  0  0  0
  138.6490   69.9190  223.7490 C   0  0  0  0  0  0  0  0  0  0  0  0
  139.2060   68.6380  224.3180 C   0  0  0  0  0  0  0  0  0  0  0  0
  139.8790   68.9160  225.6040 C   0  0  0  0  0  0  0  0  0  0  0  0
  140.2010   67.8590  226.4280 C   0  0  0  0  0  0  0  0  0  0  0  0
  140.8250   68.0680  227.6430 C   0  0  0  0  0  0  0  0  0  0  0  0
  141.1640   69.3290  228.1040 C   0  0  0  0  0  0  0  0  0  0  0  0
  140.8400   70.3940  227.2700 C   0  0  0  0  0  0  0  0  0  0  0  0
  140.2080   70.1840  226.0440 C   0  0  0  0  0  0  0  0  0  0  0  0
  139.9140   71.4170  225.2570 C   0  0  0  0  0  0  0  0  0  0  0  0
  139.8260   73.1360  222.7060 N   0  0  0  0  0  0  0  0  0  0  0  0
  140.3030   73.8570  221.6500 C   0  0  0  0  0  0  0  0  0  0  0  0
  140.1120   75.2630  221.5510 N   0  0  0  0  0  0  0  0  0  0  0  0
  139.0480   75.8930  220.8380 C   0  0  0  0  0  0  0  0  0  0  0  0
  138.3290   76.9510  221.6440 C   0  0  0  0  0  0  0  0  0  0  0  0
  139.3180   77.8640  222.2540 C   0  0  0  0  0  0  0  0  0  0  0  0
  138.9290   79.1540  222.5600 C   0  0  0  0  0  0  0  0  0  0  0  0
  139.8470   80.0180  223.1410 C   0  0  0  0  0  0  0  0  0  0  0  0
  141.1350   79.6370  223.4260 C   0  0  0  0  0  0  0  0  0  0  0  0
  141.4920   78.3400  223.1070 C   0  0  0  0  0  0  0  0  0  0  0  0
  140.6190   77.4510  222.5320 C   0  0  0  0  0  0  0  0  0  0  0  0
  141.0850   76.1020  222.2320 C   0  0  0  0  0  0  0  0  0  0  0  0
  143.5360   73.6270  220.2950 H   0  0  0  0  0  0  0  0  0  0  0  0
  144.5441   75.1577  218.7249 H   0  0  0  0  0  0  0  0  0  0  0  0
  144.0099   73.8087  217.6514 H   0  0  0  0  0  0  0  0  0  0  0  0
  143.0753   75.5255  216.5482 H   0  0  0  0  0  0  0  0  0  0  0  0
  141.7557   75.1650  217.7863 H   0  0  0  0  0  0  0  0  0  0  0  0
  143.8382   77.2718  218.1050 H   0  0  0  0  0  0  0  0  0  0  0  0
  141.6753   76.3509  219.7789 H   0  0  0  0  0  0  0  0  0  0  0  0
  143.2596   77.1192  220.1355 H   0  0  0  0  0  0  0  0  0  0  0  0
  140.6699   78.4346  219.2232 H   0  0  0  0  0  0  0  0  0  0  0  0
  141.6260   78.7861  220.6804 H   0  0  0  0  0  0  0  0  0  0  0  0
  143.4860   79.1470  218.9830 H   0  0  0  0  0  0  0  0  0  0  0  0
  141.2491   79.8089  217.2131 H   0  0  0  0  0  0  0  0  0  0  0  0
  143.0224   79.7114  216.8627 H   0  0  0  0  0  0  0  0  0  0  0  0
  140.9807   77.5567  217.0797 H   0  0  0  0  0  0  0  0  0  0  0  0
  142.4786   77.6681  216.0788 H   0  0  0  0  0  0  0  0  0  0  0  0
  141.7431   71.2411  219.9658 H   0  0  0  0  0  0  0  0  0  0  0  0
  137.6997   70.1418  224.2580 H   0  0  0  0  0  0  0  0  0  0  0  0
  138.5174   69.7615  222.6683 H   0  0  0  0  0  0  0  0  0  0  0  0
  138.3859   67.9233  224.4814 H   0  0  0  0  0  0  0  0  0  0  0  0
  139.9326   68.2108  223.6112 H   0  0  0  0  0  0  0  0  0  0  0  0
  139.9575   66.8334  226.1135 H   0  0  0  0  0  0  0  0  0  0  0  0
  141.0624   67.1962  228.2703 H   0  0  0  0  0  0  0  0  0  0  0  0
  141.6608   69.4798  229.0738 H   0  0  0  0  0  0  0  0  0  0  0  0
  141.0863   71.4195  227.5825 H   0  0  0  0  0  0  0  0  0  0  0  0
  139.0932   71.9708  225.7362 H   0  0  0  0  0  0  0  0  0  0  0  0
  140.8121   72.0511  225.2202 H   0  0  0  0  0  0  0  0  0  0  0  0
  139.4642   76.3649  219.9357 H   0  0  0  0  0  0  0  0  0  0  0  0
  138.3117   75.1122  220.5968 H   0  0  0  0  0  0  0  0  0  0  0  0
  137.6604   77.5231  220.9840 H   0  0  0  0  0  0  0  0  0  0  0  0
  137.7381   76.4688  222.4367 H   0  0  0  0  0  0  0  0  0  0  0  0
  137.9044   79.4922  222.3458 H   0  0  0  0  0  0  0  0  0  0  0  0
  139.5315   81.0440  223.3816 H   0  0  0  0  0  0  0  0  0  0  0  0
  141.8510   80.3328  223.8876 H   0  0  0  0  0  0  0  0  0  0  0  0
  142.5179   78.0070  223.3230 H   0  0  0  0  0  0  0  0  0  0  0  0
  141.9768   76.1812  221.5929 H   0  0  0  0  0  0  0  0  0  0  0  0
  141.2891   75.6203  223.1996 H   0  0  0  0  0  0  0  0  0  0  0  0
  1  2  2  0
  2  3  1  0
  3  4  1  0
  4  5  1  0
  5  6  1  0
  6  7  1  0
  7  8  1  0
  8  9  1  0
  9 10  1  0
 10 11  1  0
  2 12  1  0
 12 13  2  0
 13 14  1  0
 14 15  2  0
 15 16  1  0
 16 17  1  0
 17 18  1  0
 18 19  1  0
 19 20  2  0
 20 21  1  0
 21 22  2  0
 22 23  1  0
 23 24  2  0
 24 25  1  0
 15 26  1  0
 26 27  2  0
 27 28  1  0
 28 29  1  0
 29 30  1  0
 30 31  1  0
 31 32  2  0
 32 33  1  0
 33 34  2  0
 34 35  1  0
 35 36  2  0
 36 37  1  0
 11  6  1  0
 27 12  1  0
 37 28  1  0
 25 16  1  0
 36 31  1  0
 24 19  1  0
  3 38  1  0
  4 39  1  0
  4 40  1  0
  5 41  1  0
  5 42  1  0
  6 43  1  0
  7 44  1  0
  7 45  1  0
  8 46  1  0
  8 47  1  0
  9 48  1  0
 10 49  1  0
 10 50  1  0
 11 51  1  0
 11 52  1  0
 13 53  1  0
 17 54  1  0
 17 55  1  0
 18 56  1  0
 18 57  1  0
 20 58  1  0
 21 59  1  0
 22 60  1  0
 23 61  1  0
 25 62  1  0
 25 63  1  0
 29 64  1  0
 29 65  1  0
 30 66  1  0
 30 67  1  0
 32 68  1  0
 33 69  1  0
 34 70  1  0
 35 71  1  0
 37 72  1  0
 37 73  1  0
M  END
>  <smiles>  (44) 
O=C(NCCC1CCNCC1)c1cnc(N2CCc3ccccc3C2)nc1N1CCc2ccccc2C1

>  <score_type>  (44) 
oracle

>  <origin>  (44) 
autodockgpu

>  <m_score__min__energy>  (44) 
-10.16

>  <m_primary>  (44) 
energy

>  <rmsd>  (44) 
5.846825127256329

>  <m_score__min__rmsd>  (44) 
5.846825127256329

>  <meeko>  (44) 
{"free_energy": -9.27, "intermolecular_energy": -11.06, "internal_energy": -1.71, "cluster_size": 38, "cluster_id": 1, "rank_in_cluster": 13}

>  <energy>  (44) 
-9.89

>  <cluster_rmsd>  (44) 
0.0

>  <cluster>  (44) 
4

$$$$

     RDKit          3D

 73 78  0  0  0  0  0  0  0  0999 V2000
  141.6980   73.9560  218.5170 O   0  0  0  0  0  0  0  0  0  0  0  0
  141.8380   74.3570  219.7030 C   0  0  0  0  0  0  0  0  0  0  0  0
  142.6000   75.5160  220.0500 N   0  0  0  0  0  0  0  0  0  0  0  0
  143.2910   76.3290  219.0640 C   0  0  0  0  0  0  0  0  0  0  0  0
  142.3320   76.8450  218.0460 C   0  0  0  0  0  0  0  0  0  0  0  0
  141.7520   78.1920  218.3230 C   0  0  0  0  0  0  0  0  0  0  0  0
  142.1700   78.8070  219.6050 C   0  0  0  0  0  0  0  0  0  0  0  0
  141.0530   79.6670  220.1380 C   0  0  0  0  0  0  0  0  0  0  0  0
  140.5150   80.4210  219.0010 N   0  0  0  0  0  0  0  0  0  0  0  0
  139.6590   79.5480  218.2180 C   0  0  0  0  0  0  0  0  0  0  0  0
  140.2460   78.1580  218.1100 C   0  0  0  0  0  0  0  0  0  0  0  0
  141.2030   73.6290  220.8030 C   0  0  0  0  0  0  0  0  0  0  0  0
  141.4780   72.2550  220.8410 C   0  0  0  0  0  0  0  0  0  0  0  0
  140.9090   71.5700  221.8410 N   0  0  0  0  0  0  0  0  0  0  0  0
  140.1180   72.1250  222.7690 C   0  0  0  0  0  0  0  0  0  0  0  0
  139.5740   71.2860  223.8030 N   0  0  0  0  0  0  0  0  0  0  0  0
  138.6470   70.2190  223.5300 C   0  0  0  0  0  0  0  0  0  0  0  0
  139.1330   68.8650  223.9860 C   0  0  0  0  0  0  0  0  0  0  0  0
  139.7970   68.9920  225.3010 C   0  0  0  0  0  0  0  0  0  0  0  0
  140.0540   67.8500  226.0290 C   0  0  0  0  0  0  0  0  0  0  0  0
  140.6660   67.9160  227.2650 C   0  0  0  0  0  0  0  0  0  0  0  0
  141.0570   69.1120  227.8440 C   0  0  0  0  0  0  0  0  0  0  0  0
  140.7970   70.2630  227.1080 C   0  0  0  0  0  0  0  0  0  0  0  0
  140.1780   70.1970  225.8600 C   0  0  0  0  0  0  0  0  0  0  0  0
  139.9560   71.5090  225.1860 C   0  0  0  0  0  0  0  0  0  0  0  0
  139.8650   73.4370  222.7190 N   0  0  0  0  0  0  0  0  0  0  0  0
  140.3940   74.2290  221.7420 C   0  0  0  0  0  0  0  0  0  0  0  0
  140.1340   75.6260  221.6820 N   0  0  0  0  0  0  0  0  0  0  0  0
  139.0390   76.2230  220.9870 C   0  0  0  0  0  0  0  0  0  0  0  0
  138.2720   77.2220  221.8230 C   0  0  0  0  0  0  0  0  0  0  0  0
  139.2160   78.1640  222.4570 C   0  0  0  0  0  0  0  0  0  0  0  0
  138.7650   79.4250  222.7990 C   0  0  0  0  0  0  0  0  0  0  0  0
  139.6410   80.3160  223.4030 C   0  0  0  0  0  0  0  0  0  0  0  0
  140.9460   79.9910  223.6780 C   0  0  0  0  0  0  0  0  0  0  0  0
  141.3650   78.7220  223.3230 C   0  0  0  0  0  0  0  0  0  0  0  0
  140.5360   77.8080  222.7240 C   0  0  0  0  0  0  0  0  0  0  0  0
  141.0660   76.4920  222.3860 C   0  0  0  0  0  0  0  0  0  0  0  0
  142.6560   75.7820  221.0830 H   0  0  0  0  0  0  0  0  0  0  0  0
  143.7736   77.1784  219.5696 H   0  0  0  0  0  0  0  0  0  0  0  0
  144.0460   75.7089  218.5585 H   0  0  0  0  0  0  0  0  0  0  0  0
  142.8588   76.8963  217.0817 H   0  0  0  0  0  0  0  0  0  0  0  0
  141.4823   76.1465  218.0554 H   0  0  0  0  0  0  0  0  0  0  0  0
  142.1866   78.8862  217.5887 H   0  0  0  0  0  0  0  0  0  0  0  0
  142.4024   78.0155  220.3327 H   0  0  0  0  0  0  0  0  0  0  0  0
  143.0632   79.4274  219.4398 H   0  0  0  0  0  0  0  0  0  0  0  0
  140.2673   79.0359  220.5789 H   0  0  0  0  0  0  0  0  0  0  0  0
  141.4192   80.3458  220.9223 H   0  0  0  0  0  0  0  0  0  0  0  0
  141.3480   80.6370  218.3960 H   0  0  0  0  0  0  0  0  0  0  0  0
  138.6731   79.4844  218.7017 H   0  0  0  0  0  0  0  0  0  0  0  0
  139.5682   79.9670  217.2050 H   0  0  0  0  0  0  0  0  0  0  0  0
  139.7878   77.5123  218.8736 H   0  0  0  0  0  0  0  0  0  0  0  0
  140.0400   77.7644  217.1037 H   0  0  0  0  0  0  0  0  0  0  0  0
  142.1226   71.7686  220.0941 H   0  0  0  0  0  0  0  0  0  0  0  0
  137.7005   70.4403  224.0450 H   0  0  0  0  0  0  0  0  0  0  0  0
  138.5269   70.1676  222.4378 H   0  0  0  0  0  0  0  0  0  0  0  0
  138.2772   68.1794  224.0730 H   0  0  0  0  0  0  0  0  0  0  0  0
  139.8501   68.4686  223.2520 H   0  0  0  0  0  0  0  0  0  0  0  0
  139.7670   66.8705  225.6188 H   0  0  0  0  0  0  0  0  0  0  0  0
  140.8507   66.9800  227.8125 H   0  0  0  0  0  0  0  0  0  0  0  0
  141.5450   69.1493  228.8291 H   0  0  0  0  0  0  0  0  0  0  0  0
  141.0846   71.2426  227.5174 H   0  0  0  0  0  0  0  0  0  0  0  0
  139.1543   72.0559  225.7039 H   0  0  0  0  0  0  0  0  0  0  0  0
  140.8839   72.0989  225.2188 H   0  0  0  0  0  0  0  0  0  0  0  0
  139.4299   76.7392  220.0978 H   0  0  0  0  0  0  0  0  0  0  0  0
  138.3408   75.4146  220.7242 H   0  0  0  0  0  0  0  0  0  0  0  0
  137.5749   77.7792  221.1799 H   0  0  0  0  0  0  0  0  0  0  0  0
  137.7074   76.6896  222.6026 H   0  0  0  0  0  0  0  0  0  0  0  0
  137.7247   79.7187  222.5950 H   0  0  0  0  0  0  0  0  0  0  0  0
  139.2765   81.3187  223.6710 H   0  0  0  0  0  0  0  0  0  0  0  0
  141.6277   80.7078  224.1591 H   0  0  0  0  0  0  0  0  0  0  0  0
  142.4062   78.4335  223.5295 H   0  0  0  0  0  0  0  0  0  0  0  0
  141.9518   76.6322  221.7491 H   0  0  0  0  0  0  0  0  0  0  0  0
  141.2944   75.9938  223.3398 H   0  0  0  0  0  0  0  0  0  0  0  0
  1  2  2  0
  2  3  1  0
  3  4  1  0
  4  5  1  0
  5  6  1  0
  6  7  1  0
  7  8  1  0
  8  9  1  0
  9 10  1  0
 10 11  1  0
  2 12  1  0
 12 13  2  0
 13 14  1  0
 14 15  2  0
 15 16  1  0
 16 17  1  0
 17 18  1  0
 18 19  1  0
 19 20  2  0
 20 21  1  0
 21 22  2  0
 22 23  1  0
 23 24  2  0
 24 25  1  0
 15 26  1  0
 26 27  2  0
 27 28  1  0
 28 29  1  0
 29 30  1  0
 30 31  1  0
 31 32  2  0
 32 33  1  0
 33 34  2  0
 34 35  1  0
 35 36  2  0
 36 37  1  0
 11  6  1  0
 27 12  1  0
 37 28  1  0
 25 16  1  0
 36 31  1  0
 24 19  1  0
  3 38  1  0
  4 39  1  0
  4 40  1  0
  5 41  1  0
  5 42  1  0
  6 43  1  0
  7 44  1  0
  7 45  1  0
  8 46  1  0
  8 47  1  0
  9 48  1  0
 10 49  1  0
 10 50  1  0
 11 51  1  0
 11 52  1  0
 13 53  1  0
 17 54  1  0
 17 55  1  0
 18 56  1  0
 18 57  1  0
 20 58  1  0
 21 59  1  0
 22 60  1  0
 23 61  1  0
 25 62  1  0
 25 63  1  0
 29 64  1  0
 29 65  1  0
 30 66  1  0
 30 67  1  0
 32 68  1  0
 33 69  1  0
 34 70  1  0
 35 71  1  0
 37 72  1  0
 37 73  1  0
M  END
>  <smiles>  (45) 
O=C(NCCC1CCNCC1)c1cnc(N2CCc3ccccc3C2)nc1N1CCc2ccccc2C1

>  <score_type>  (45) 
oracle

>  <origin>  (45) 
autodockgpu

>  <m_score__min__energy>  (45) 
-10.16

>  <m_primary>  (45) 
energy

>  <rmsd>  (45) 
5.400728817113996

>  <m_score__min__rmsd>  (45) 
5.400728817113996

>  <meeko>  (45) 
{"free_energy": -9.37, "intermolecular_energy": -11.16, "internal_energy": -2.26, "cluster_size": 38, "cluster_id": 1, "rank_in_cluster": 11}

>  <energy>  (45) 
-9.58

>  <cluster_rmsd>  (45) 
0.78

>  <cluster>  (45) 
4

$$$$

     RDKit          3D

 73 78  0  0  0  0  0  0  0  0999 V2000
  142.0500   74.2090  218.5530 O   0  0  0  0  0  0  0  0  0  0  0  0
  142.0270   74.6800  219.7200 C   0  0  0  0  0  0  0  0  0  0  0  0
  142.6240   75.9310  220.0690 N   0  0  0  0  0  0  0  0  0  0  0  0
  143.3210   76.7670  219.1070 C   0  0  0  0  0  0  0  0  0  0  0  0
  142.4960   76.9530  217.8790 C   0  0  0  0  0  0  0  0  0  0  0  0
  142.5390   78.3140  217.2680 C   0  0  0  0  0  0  0  0  0  0  0  0
  142.9500   79.4040  218.1830 C   0  0  0  0  0  0  0  0  0  0  0  0
  142.2590   80.6830  217.7860 C   0  0  0  0  0  0  0  0  0  0  0  0
  142.3270   80.7680  216.3230 N   0  0  0  0  0  0  0  0  0  0  0  0
  141.3270   79.8830  215.7520 C   0  0  0  0  0  0  0  0  0  0  0  0
  141.2410   78.5840  216.5210 C   0  0  0  0  0  0  0  0  0  0  0  0
  141.3640   73.9410  220.7960 C   0  0  0  0  0  0  0  0  0  0  0  0
  141.6730   72.5750  220.8540 C   0  0  0  0  0  0  0  0  0  0  0  0
  141.0790   71.8800  221.8330 N   0  0  0  0  0  0  0  0  0  0  0  0
  140.2350   72.4180  222.7230 C   0  0  0  0  0  0  0  0  0  0  0  0
  139.6690   71.5700  223.7370 N   0  0  0  0  0  0  0  0  0  0  0  0
  138.4570   70.8200  223.5360 C   0  0  0  0  0  0  0  0  0  0  0  0
  138.6310   69.3320  223.7120 C   0  0  0  0  0  0  0  0  0  0  0  0
  139.5170   69.0680  224.8650 C   0  0  0  0  0  0  0  0  0  0  0  0
  139.5770   67.7900  225.3780 C   0  0  0  0  0  0  0  0  0  0  0  0
  140.3860   67.4940  226.4590 C   0  0  0  0  0  0  0  0  0  0  0  0
  141.1760   68.4430  227.0850 C   0  0  0  0  0  0  0  0  0  0  0  0
  141.1150   69.7310  226.5650 C   0  0  0  0  0  0  0  0  0  0  0  0
  140.2970   70.0320  225.4750 C   0  0  0  0  0  0  0  0  0  0  0  0
  140.3260   71.4540  225.0270 C   0  0  0  0  0  0  0  0  0  0  0  0
  139.9500   73.7230  222.6550 N   0  0  0  0  0  0  0  0  0  0  0  0
  140.5000   74.5230  221.6960 C   0  0  0  0  0  0  0  0  0  0  0  0
  140.2060   75.9130  221.6170 N   0  0  0  0  0  0  0  0  0  0  0  0
  140.6650   76.8980  222.5430 C   0  0  0  0  0  0  0  0  0  0  0  0
  141.2870   78.1040  221.8750 C   0  0  0  0  0  0  0  0  0  0  0  0
  140.3890   78.5970  220.8110 C   0  0  0  0  0  0  0  0  0  0  0  0
  140.4600   79.9280  220.4490 C   0  0  0  0  0  0  0  0  0  0  0  0
  139.6270   80.4010  219.4440 C   0  0  0  0  0  0  0  0  0  0  0  0
  138.7310   79.5920  218.7900 C   0  0  0  0  0  0  0  0  0  0  0  0
  138.6860   78.2650  219.1770 C   0  0  0  0  0  0  0  0  0  0  0  0
  139.4890   77.7530  220.1650 C   0  0  0  0  0  0  0  0  0  0  0  0
  139.3720   76.3390  220.5050 C   0  0  0  0  0  0  0  0  0  0  0  0
  142.5470   76.2520  221.0850 H   0  0  0  0  0  0  0  0  0  0  0  0
  143.5217   77.7491  219.5599 H   0  0  0  0  0  0  0  0  0  0  0  0
  144.2654   76.2762  218.8290 H   0  0  0  0  0  0  0  0  0  0  0  0
  142.8464   76.2331  217.1247 H   0  0  0  0  0  0  0  0  0  0  0  0
  141.4532   76.7993  218.1934 H   0  0  0  0  0  0  0  0  0  0  0  0
  143.3618   78.3122  216.5379 H   0  0  0  0  0  0  0  0  0  0  0  0
  142.6708   79.1416  219.2141 H   0  0  0  0  0  0  0  0  0  0  0  0
  144.0395   79.5423  218.1211 H   0  0  0  0  0  0  0  0  0  0  0  0
  141.2097   80.6640  218.1154 H   0  0  0  0  0  0  0  0  0  0  0  0
  142.7426   81.5532  218.2537 H   0  0  0  0  0  0  0  0  0  0  0  0
  143.2620   80.3590  216.0680 H   0  0  0  0  0  0  0  0  0  0  0  0
  140.3474   80.3826  215.7814 H   0  0  0  0  0  0  0  0  0  0  0  0
  141.6160   79.6548  214.7154 H   0  0  0  0  0  0  0  0  0  0  0  0
  140.4145   78.6466  217.2442 H   0  0  0  0  0  0  0  0  0  0  0  0
  141.0649   77.7633  215.8101 H   0  0  0  0  0  0  0  0  0  0  0  0
  142.3619   72.1022  220.1386 H   0  0  0  0  0  0  0  0  0  0  0  0
  137.7071   71.1705  224.2604 H   0  0  0  0  0  0  0  0  0  0  0  0
  138.1434   70.9870  222.4950 H   0  0  0  0  0  0  0  0  0  0  0  0
  137.6500   68.8676  223.8906 H   0  0  0  0  0  0  0  0  0  0  0  0
  139.0801   68.9072  222.8022 H   0  0  0  0  0  0  0  0  0  0  0  0
  138.9719   66.9936  224.9202 H   0  0  0  0  0  0  0  0  0  0  0  0
  140.4028   66.4614  226.8376 H   0  0  0  0  0  0  0  0  0  0  0  0
  141.8152   68.1924  227.9444 H   0  0  0  0  0  0  0  0  0  0  0  0
  141.7223   70.5269  227.0208 H   0  0  0  0  0  0  0  0  0  0  0  0
  139.8014   72.0809  225.7631 H   0  0  0  0  0  0  0  0  0  0  0  0
  141.3701   71.7884  224.9374 H   0  0  0  0  0  0  0  0  0  0  0  0
  139.8093   77.2357  223.1461 H   0  0  0  0  0  0  0  0  0  0  0  0
  141.4461   76.4276  223.1582 H   0  0  0  0  0  0  0  0  0  0  0  0
  141.4411   78.8974  222.6212 H   0  0  0  0  0  0  0  0  0  0  0  0
  142.2545   77.8204  221.4352 H   0  0  0  0  0  0  0  0  0  0  0  0
  141.1675   80.6047  220.9506 H   0  0  0  0  0  0  0  0  0  0  0  0
  139.6871   81.4624  219.1615 H   0  0  0  0  0  0  0  0  0  0  0  0
  138.0787   79.9815  217.9945 H   0  0  0  0  0  0  0  0  0  0  0  0
  137.9773   77.5922  218.6720 H   0  0  0  0  0  0  0  0  0  0  0  0
  138.3229   76.1342  220.7648 H   0  0  0  0  0  0  0  0  0  0  0  0
  139.7159   75.7770  219.6242 H   0  0  0  0  0  0  0  0  0  0  0  0
  1  2  2  0
  2  3  1  0
  3  4  1  0
  4  5  1  0
  5  6  1  0
  6  7  1  0
  7  8  1  0
  8  9  1  0
  9 10  1  0
 10 11  1  0
  2 12  1  0
 12 13  2  0
 13 14  1  0
 14 15  2  0
 15 16  1  0
 16 17  1  0
 17 18  1  0
 18 19  1  0
 19 20  2  0
 20 21  1  0
 21 22  2  0
 22 23  1  0
 23 24  2  0
 24 25  1  0
 15 26  1  0
 26 27  2  0
 27 28  1  0
 28 29  1  0
 29 30  1  0
 30 31  1  0
 31 32  2  0
 32 33  1  0
 33 34  2  0
 34 35  1  0
 35 36  2  0
 36 37  1  0
 11  6  1  0
 27 12  1  0
 37 28  1  0
 25 16  1  0
 36 31  1  0
 24 19  1  0
  3 38  1  0
  4 39  1  0
  4 40  1  0
  5 41  1  0
  5 42  1  0
  6 43  1  0
  7 44  1  0
  7 45  1  0
  8 46  1  0
  8 47  1  0
  9 48  1  0
 10 49  1  0
 10 50  1  0
 11 51  1  0
 11 52  1  0
 13 53  1  0
 17 54  1  0
 17 55  1  0
 18 56  1  0
 18 57  1  0
 20 58  1  0
 21 59  1  0
 22 60  1  0
 23 61  1  0
 25 62  1  0
 25 63  1  0
 29 64  1  0
 29 65  1  0
 30 66  1  0
 30 67  1  0
 32 68  1  0
 33 69  1  0
 34 70  1  0
 35 71  1  0
 37 72  1  0
 37 73  1  0
M  END
>  <smiles>  (46) 
O=C(NCCC1CCNCC1)c1cnc(N2CCc3ccccc3C2)nc1N1CCc2ccccc2C1

>  <score_type>  (46) 
oracle

>  <origin>  (46) 
autodockgpu

>  <m_score__min__energy>  (46) 
-10.16

>  <m_primary>  (46) 
energy

>  <rmsd>  (46) 
5.977873342671732

>  <m_score__min__rmsd>  (46) 
5.977873342671732

>  <meeko>  (46) 
{"free_energy": -8.64, "intermolecular_energy": -10.43, "internal_energy": -2.32, "cluster_size": 38, "cluster_id": 1, "rank_in_cluster": 35}

>  <energy>  (46) 
-9.61

>  <cluster_rmsd>  (46) 
0.0

>  <cluster>  (46) 
5

$$$$

     RDKit          3D

 73 78  0  0  0  0  0  0  0  0999 V2000
  136.0410   72.6380  224.5990 O   0  0  0  0  0  0  0  0  0  0  0  0
  136.3350   71.9090  223.6150 C   0  0  0  0  0  0  0  0  0  0  0  0
  135.5020   70.8390  223.1610 N   0  0  0  0  0  0  0  0  0  0  0  0
  134.2450   70.4920  223.8020 C   0  0  0  0  0  0  0  0  0  0  0  0
  133.3290   71.6670  223.8310 C   0  0  0  0  0  0  0  0  0  0  0  0
  133.2360   72.3860  225.1360 C   0  0  0  0  0  0  0  0  0  0  0  0
  132.0990   71.9850  225.9980 C   0  0  0  0  0  0  0  0  0  0  0  0
  131.6410   73.1690  226.8100 C   0  0  0  0  0  0  0  0  0  0  0  0
  132.8480   73.8420  227.3010 N   0  0  0  0  0  0  0  0  0  0  0  0
  133.4230   74.6250  226.2230 C   0  0  0  0  0  0  0  0  0  0  0  0
  133.3430   73.8870  224.9050 C   0  0  0  0  0  0  0  0  0  0  0  0
  137.5770   72.1390  222.8770 C   0  0  0  0  0  0  0  0  0  0  0  0
  137.4670   73.0200  221.7930 C   0  0  0  0  0  0  0  0  0  0  0  0
  138.5940   73.2480  221.1040 N   0  0  0  0  0  0  0  0  0  0  0  0
  139.7740   72.6870  221.4000 C   0  0  0  0  0  0  0  0  0  0  0  0
  140.9170   73.0180  220.5920 N   0  0  0  0  0  0  0  0  0  0  0  0
  140.9960   74.2280  219.8160 C   0  0  0  0  0  0  0  0  0  0  0  0
  142.1720   75.1010  220.1760 C   0  0  0  0  0  0  0  0  0  0  0  0
  143.3630   74.2590  220.4130 C   0  0  0  0  0  0  0  0  0  0  0  0
  144.6020   74.8600  220.4680 C   0  0  0  0  0  0  0  0  0  0  0  0
  145.7460   74.1150  220.6800 C   0  0  0  0  0  0  0  0  0  0  0  0
  145.7240   72.7410  220.8500 C   0  0  0  0  0  0  0  0  0  0  0  0
  144.4740   72.1360  220.7950 C   0  0  0  0  0  0  0  0  0  0  0  0
  143.3170   72.8880  220.5790 C   0  0  0  0  0  0  0  0  0  0  0  0
  142.0470   72.1080  220.5380 C   0  0  0  0  0  0  0  0  0  0  0  0
  139.8630   71.8470  222.4380 N   0  0  0  0  0  0  0  0  0  0  0  0
  138.7760   71.5470  223.2060 C   0  0  0  0  0  0  0  0  0  0  0  0
  138.8600   70.6580  224.3130 N   0  0  0  0  0  0  0  0  0  0  0  0
  138.2650   69.3620  224.3670 C   0  0  0  0  0  0  0  0  0  0  0  0
  139.2200   68.2820  224.8240 C   0  0  0  0  0  0  0  0  0  0  0  0
  139.9080   68.7200  226.0550 C   0  0  0  0  0  0  0  0  0  0  0  0
  140.3860   67.7590  226.9250 C   0  0  0  0  0  0  0  0  0  0  0  0
  141.0420   68.1590  228.0810 C   0  0  0  0  0  0  0  0  0  0  0  0
  141.2380   69.4810  228.3950 C   0  0  0  0  0  0  0  0  0  0  0  0
  140.7480   70.4160  227.5040 C   0  0  0  0  0  0  0  0  0  0  0  0
  140.0930   70.0690  226.3490 C   0  0  0  0  0  0  0  0  0  0  0  0
  139.6110   71.1270  225.4680 C   0  0  0  0  0  0  0  0  0  0  0  0
  135.8310   70.2790  222.3120 H   0  0  0  0  0  0  0  0  0  0  0  0
  133.7671   69.6748  223.2418 H   0  0  0  0  0  0  0  0  0  0  0  0
  134.4494   70.1762  224.8357 H   0  0  0  0  0  0  0  0  0  0  0  0
  133.6772   72.3852  223.0740 H   0  0  0  0  0  0  0  0  0  0  0  0
  132.3229   71.2664  223.6382 H   0  0  0  0  0  0  0  0  0  0  0  0
  134.0987   72.0682  225.7400 H   0  0  0  0  0  0  0  0  0  0  0  0
  131.2698   71.6292  225.3689 H   0  0  0  0  0  0  0  0  0  0  0  0
  132.4188   71.1786  226.6744 H   0  0  0  0  0  0  0  0  0  0  0  0
  131.0549   73.8551  226.1809 H   0  0  0  0  0  0  0  0  0  0  0  0
  131.0012   72.8492  227.6457 H   0  0  0  0  0  0  0  0  0  0  0  0
  133.5320   73.0680  227.5000 H   0  0  0  0  0  0  0  0  0  0  0  0
  132.8732   75.5738  226.1364 H   0  0  0  0  0  0  0  0  0  0  0  0
  134.4825   74.8091  226.4543 H   0  0  0  0  0  0  0  0  0  0  0  0
  132.4572   74.2314  224.3512 H   0  0  0  0  0  0  0  0  0  0  0  0
  134.2567   74.0924  224.3279 H   0  0  0  0  0  0  0  0  0  0  0  0
  136.5127   73.4961  221.5235 H   0  0  0  0  0  0  0  0  0  0  0  0
  141.0780   73.9549  218.7536 H   0  0  0  0  0  0  0  0  0  0  0  0
  140.0863   74.8082  220.0300 H   0  0  0  0  0  0  0  0  0  0  0  0
  142.3758   75.7987  219.3503 H   0  0  0  0  0  0  0  0  0  0  0  0
  141.9389   75.6678  221.0894 H   0  0  0  0  0  0  0  0  0  0  0  0
  144.6813   75.9498  220.3412 H   0  0  0  0  0  0  0  0  0  0  0  0
  146.7147   74.6350  220.7152 H   0  0  0  0  0  0  0  0  0  0  0  0
  146.6435   72.1613  221.0190 H   0  0  0  0  0  0  0  0  0  0  0  0
  144.3945   71.0465  220.9238 H   0  0  0  0  0  0  0  0  0  0  0  0
  142.0044   71.5258  219.6057 H   0  0  0  0  0  0  0  0  0  0  0  0
  142.0087   71.4251  221.3995 H   0  0  0  0  0  0  0  0  0  0  0  0
  137.4168   69.3965  225.0666 H   0  0  0  0  0  0  0  0  0  0  0  0
  137.9501   69.1061  223.3446 H   0  0  0  0  0  0  0  0  0  0  0  0
  138.6584   67.3582  225.0271 H   0  0  0  0  0  0  0  0  0  0  0  0
  139.9641   68.0939  224.0360 H   0  0  0  0  0  0  0  0  0  0  0  0
  140.2484   66.6902  226.7043 H   0  0  0  0  0  0  0  0  0  0  0  0
  141.4184   67.3889  228.7704 H   0  0  0  0  0  0  0  0  0  0  0  0
  141.7615   69.7821  229.3144 H   0  0  0  0  0  0  0  0  0  0  0  0
  140.8887   71.4834  227.7297 H   0  0  0  0  0  0  0  0  0  0  0  0
  138.9593   71.7914  226.0543 H   0  0  0  0  0  0  0  0  0  0  0  0
  140.5033   71.6356  225.0742 H   0  0  0  0  0  0  0  0  0  0  0  0
  1  2  2  0
  2  3  1  0
  3  4  1  0
  4  5  1  0
  5  6  1  0
  6  7  1  0
  7  8  1  0
  8  9  1  0
  9 10  1  0
 10 11  1  0
  2 12  1  0
 12 13  2  0
 13 14  1  0
 14 15  2  0
 15 16  1  0
 16 17  1  0
 17 18  1  0
 18 19  1  0
 19 20  2  0
 20 21  1  0
 21 22  2  0
 22 23  1  0
 23 24  2  0
 24 25  1  0
 15 26  1  0
 26 27  2  0
 27 28  1  0
 28 29  1  0
 29 30  1  0
 30 31  1  0
 31 32  2  0
 32 33  1  0
 33 34  2  0
 34 35  1  0
 35 36  2  0
 36 37  1  0
 11  6  1  0
 27 12  1  0
 37 28  1  0
 25 16  1  0
 36 31  1  0
 24 19  1  0
  3 38  1  0
  4 39  1  0
  4 40  1  0
  5 41  1  0
  5 42  1  0
  6 43  1  0
  7 44  1  0
  7 45  1  0
  8 46  1  0
  8 47  1  0
  9 48  1  0
 10 49  1  0
 10 50  1  0
 11 51  1  0
 11 52  1  0
 13 53  1  0
 17 54  1  0
 17 55  1  0
 18 56  1  0
 18 57  1  0
 20 58  1  0
 21 59  1  0
 22 60  1  0
 23 61  1  0
 25 62  1  0
 25 63  1  0
 29 64  1  0
 29 65  1  0
 30 66  1  0
 30 67  1  0
 32 68  1  0
 33 69  1  0
 34 70  1  0
 35 71  1  0
 37 72  1  0
 37 73  1  0
M  END
>  <smiles>  (47) 
O=C(NCCC1CCNCC1)c1cnc(N2CCc3ccccc3C2)nc1N1CCc2ccccc2C1

>  <score_type>  (47) 
oracle

>  <origin>  (47) 
autodockgpu

>  <m_score__min__energy>  (47) 
-10.16

>  <m_primary>  (47) 
energy

>  <rmsd>  (47) 
9.919329451468913

>  <m_score__min__rmsd>  (47) 
9.919329451468913

>  <meeko>  (47) 
{"free_energy": -9.11, "intermolecular_energy": -10.9, "internal_energy": -1.2, "cluster_size": 4, "cluster_id": 2, "rank_in_cluster": 4}

>  <energy>  (47) 
-9.36

>  <cluster_rmsd>  (47) 
0.73

>  <cluster>  (47) 
5

$$$$

     RDKit          3D

 73 78  0  0  0  0  0  0  0  0999 V2000
  140.8880   74.6960  218.6220 O   0  0  0  0  0  0  0  0  0  0  0  0
  141.5830   74.3950  219.6270 C   0  0  0  0  0  0  0  0  0  0  0  0
  142.9610   74.7530  219.7590 N   0  0  0  0  0  0  0  0  0  0  0  0
  143.6850   75.4900  218.7380 C   0  0  0  0  0  0  0  0  0  0  0  0
  142.7770   76.4390  218.0320 C   0  0  0  0  0  0  0  0  0  0  0  0
  142.5660   77.7560  218.7030 C   0  0  0  0  0  0  0  0  0  0  0  0
  141.3590   77.8420  219.5580 C   0  0  0  0  0  0  0  0  0  0  0  0
  140.8260   79.2510  219.5360 C   0  0  0  0  0  0  0  0  0  0  0  0
  141.9820   80.1470  219.6530 N   0  0  0  0  0  0  0  0  0  0  0  0
  142.6480   80.2270  218.3650 C   0  0  0  0  0  0  0  0  0  0  0  0
  142.6880   78.8780  217.6820 C   0  0  0  0  0  0  0  0  0  0  0  0
  140.9860   73.6450  220.7340 C   0  0  0  0  0  0  0  0  0  0  0  0
  141.2230   72.2640  220.7090 C   0  0  0  0  0  0  0  0  0  0  0  0
  140.6880   71.5580  221.7150 N   0  0  0  0  0  0  0  0  0  0  0  0
  139.9640   72.1010  222.7020 C   0  0  0  0  0  0  0  0  0  0  0  0
  139.4510   71.2400  223.7340 N   0  0  0  0  0  0  0  0  0  0  0  0
  138.5130   70.1810  223.4670 C   0  0  0  0  0  0  0  0  0  0  0  0
  139.0090   68.8160  223.8770 C   0  0  0  0  0  0  0  0  0  0  0  0
  139.7150   68.9120  225.1720 C   0  0  0  0  0  0  0  0  0  0  0  0
  139.9920   67.7540  225.8660 C   0  0  0  0  0  0  0  0  0  0  0  0
  140.6440   67.7910  227.0830 C   0  0  0  0  0  0  0  0  0  0  0  0
  141.0560   68.9720  227.6760 C   0  0  0  0  0  0  0  0  0  0  0  0
  140.7770   70.1400  226.9740 C   0  0  0  0  0  0  0  0  0  0  0  0
  140.1170   70.1040  225.7450 C   0  0  0  0  0  0  0  0  0  0  0  0
  139.8780   71.4310  225.1090 C   0  0  0  0  0  0  0  0  0  0  0  0
  139.7460   73.4200  222.7120 N   0  0  0  0  0  0  0  0  0  0  0  0
  140.2460   74.2320  221.7350 C   0  0  0  0  0  0  0  0  0  0  0  0
  140.0230   75.6370  221.7380 N   0  0  0  0  0  0  0  0  0  0  0  0
  138.8430   76.2770  221.2520 C   0  0  0  0  0  0  0  0  0  0  0  0
  138.2660   77.2840  222.2210 C   0  0  0  0  0  0  0  0  0  0  0  0
  139.3360   78.1870  222.6910 C   0  0  0  0  0  0  0  0  0  0  0  0
  138.9910   79.4540  223.1210 C   0  0  0  0  0  0  0  0  0  0  0  0
  139.9870   80.3100  223.5720 C   0  0  0  0  0  0  0  0  0  0  0  0
  141.3090   79.9430  223.6100 C   0  0  0  0  0  0  0  0  0  0  0  0
  141.6190   78.6680  223.1720 C   0  0  0  0  0  0  0  0  0  0  0  0
  140.6700   77.7890  222.7180 C   0  0  0  0  0  0  0  0  0  0  0  0
  141.0910   76.4640  222.2770 C   0  0  0  0  0  0  0  0  0  0  0  0
  143.4680   74.4600  220.6530 H   0  0  0  0  0  0  0  0  0  0  0  0
  144.5016   76.0552  219.2109 H   0  0  0  0  0  0  0  0  0  0  0  0
  144.0903   74.7761  218.0058 H   0  0  0  0  0  0  0  0  0  0  0  0
  143.1994   76.6319  217.0348 H   0  0  0  0  0  0  0  0  0  0  0  0
  141.7911   75.9516  218.0130 H   0  0  0  0  0  0  0  0  0  0  0  0
  143.3725   77.8740  219.4416 H   0  0  0  0  0  0  0  0  0  0  0  0
  140.5903   77.1534  219.1772 H   0  0  0  0  0  0  0  0  0  0  0  0
  141.6208   77.5656  220.5900 H   0  0  0  0  0  0  0  0  0  0  0  0
  140.2954   79.4398  218.5911 H   0  0  0  0  0  0  0  0  0  0  0  0
  140.1158   79.4157  220.3597 H   0  0  0  0  0  0  0  0  0  0  0  0
  142.6480   79.6510  220.2980 H   0  0  0  0  0  0  0  0  0  0  0  0
  142.1047   80.9370  217.7242 H   0  0  0  0  0  0  0  0  0  0  0  0
  143.6822   80.5636  218.5294 H   0  0  0  0  0  0  0  0  0  0  0  0
  141.8538   78.8094  216.9683 H   0  0  0  0  0  0  0  0  0  0  0  0
  143.6487   78.7755  217.1560 H   0  0  0  0  0  0  0  0  0  0  0  0
  141.8127   71.7880  219.9117 H   0  0  0  0  0  0  0  0  0  0  0  0
  137.5839   70.3928  224.0165 H   0  0  0  0  0  0  0  0  0  0  0  0
  138.3587   70.1541  222.3782 H   0  0  0  0  0  0  0  0  0  0  0  0
  138.1543   68.1307  223.9762 H   0  0  0  0  0  0  0  0  0  0  0  0
  139.7009   68.4343  223.1118 H   0  0  0  0  0  0  0  0  0  0  0  0
  139.6889   66.7845  225.4438 H   0  0  0  0  0  0  0  0  0  0  0  0
  140.8442   66.8424  227.6027 H   0  0  0  0  0  0  0  0  0  0  0  0
  141.5741   68.9860  228.6463 H   0  0  0  0  0  0  0  0  0  0  0  0
  141.0820   71.1093  227.3952 H   0  0  0  0  0  0  0  0  0  0  0  0
  139.0952   71.9681  225.6646 H   0  0  0  0  0  0  0  0  0  0  0  0
  140.8082   72.0179  225.1255 H   0  0  0  0  0  0  0  0  0  0  0  0
  139.0887   76.7963  220.3140 H   0  0  0  0  0  0  0  0  0  0  0  0
  138.0844   75.4939  221.1061 H   0  0  0  0  0  0  0  0  0  0  0  0
  137.4855   77.8724  221.7163 H   0  0  0  0  0  0  0  0  0  0  0  0
  137.8294   76.7553  223.0812 H   0  0  0  0  0  0  0  0  0  0  0  0
  137.9406   79.7804  223.1062 H   0  0  0  0  0  0  0  0  0  0  0  0
  139.7065   81.3182  223.9109 H   0  0  0  0  0  0  0  0  0  0  0  0
  142.0867   80.6315  223.9723 H   0  0  0  0  0  0  0  0  0  0  0  0
  142.6707   78.3461  223.1887 H   0  0  0  0  0  0  0  0  0  0  0  0
  141.8553   76.5893  221.4958 H   0  0  0  0  0  0  0  0  0  0  0  0
  141.4675   75.9435  223.1699 H   0  0  0  0  0  0  0  0  0  0  0  0
  1  2  2  0
  2  3  1  0
  3  4  1  0
  4  5  1  0
  5  6  1  0
  6  7  1  0
  7  8  1  0
  8  9  1  0
  9 10  1  0
 10 11  1  0
  2 12  1  0
 12 13  2  0
 13 14  1  0
 14 15  2  0
 15 16  1  0
 16 17  1  0
 17 18  1  0
 18 19  1  0
 19 20  2  0
 20 21  1  0
 21 22  2  0
 22 23  1  0
 23 24  2  0
 24 25  1  0
 15 26  1  0
 26 27  2  0
 27 28  1  0
 28 29  1  0
 29 30  1  0
 30 31  1  0
 31 32  2  0
 32 33  1  0
 33 34  2  0
 34 35  1  0
 35 36  2  0
 36 37  1  0
 11  6  1  0
 27 12  1  0
 37 28  1  0
 25 16  1  0
 36 31  1  0
 24 19  1  0
  3 38  1  0
  4 39  1  0
  4 40  1  0
  5 41  1  0
  5 42  1  0
  6 43  1  0
  7 44  1  0
  7 45  1  0
  8 46  1  0
  8 47  1  0
  9 48  1  0
 10 49  1  0
 10 50  1  0
 11 51  1  0
 11 52  1  0
 13 53  1  0
 17 54  1  0
 17 55  1  0
 18 56  1  0
 18 57  1  0
 20 58  1  0
 21 59  1  0
 22 60  1  0
 23 61  1  0
 25 62  1  0
 25 63  1  0
 29 64  1  0
 29 65  1  0
 30 66  1  0
 30 67  1  0
 32 68  1  0
 33 69  1  0
 34 70  1  0
 35 71  1  0
 37 72  1  0
 37 73  1  0
M  END
>  <smiles>  (48) 
O=C(NCCC1CCNCC1)c1cnc(N2CCc3ccccc3C2)nc1N1CCc2ccccc2C1

>  <score_type>  (48) 
oracle

>  <origin>  (48) 
autodockgpu

>  <m_score__min__energy>  (48) 
-10.16

>  <m_primary>  (48) 
energy

>  <rmsd>  (48) 
5.78276235015924

>  <m_score__min__rmsd>  (48) 
5.78276235015924

>  <meeko>  (48) 
{"free_energy": -9.75, "intermolecular_energy": -11.54, "internal_energy": -1.9, "cluster_size": 38, "cluster_id": 1, "rank_in_cluster": 3}

>  <energy>  (48) 
-9.6

>  <cluster_rmsd>  (48) 
0.0

>  <cluster>  (48) 
6

$$$$

     RDKit          3D

 73 78  0  0  0  0  0  0  0  0999 V2000
  140.8350   74.1580  218.4000 O   0  0  0  0  0  0  0  0  0  0  0  0
  141.3690   74.2600  219.5360 C   0  0  0  0  0  0  0  0  0  0  0  0
  142.5300   75.0560  219.7830 N   0  0  0  0  0  0  0  0  0  0  0  0
  143.2050   75.8110  218.7420 C   0  0  0  0  0  0  0  0  0  0  0  0
  143.1330   77.2730  219.0220 C   0  0  0  0  0  0  0  0  0  0  0  0
  141.7640   77.8260  219.2420 C   0  0  0  0  0  0  0  0  0  0  0  0
  140.7290   77.3420  218.2990 C   0  0  0  0  0  0  0  0  0  0  0  0
  139.7030   78.4240  218.0780 C   0  0  0  0  0  0  0  0  0  0  0  0
  139.4100   79.0080  219.3920 N   0  0  0  0  0  0  0  0  0  0  0  0
  140.4890   79.9090  219.7580 C   0  0  0  0  0  0  0  0  0  0  0  0
  141.8350   79.3420  219.3650 C   0  0  0  0  0  0  0  0  0  0  0  0
  140.7990   73.5470  220.6800 C   0  0  0  0  0  0  0  0  0  0  0  0
  141.0070   72.1610  220.6780 C   0  0  0  0  0  0  0  0  0  0  0  0
  140.4960   71.4890  221.7180 N   0  0  0  0  0  0  0  0  0  0  0  0
  139.8210   72.0680  222.7200 C   0  0  0  0  0  0  0  0  0  0  0  0
  139.3300   71.2400  223.7890 N   0  0  0  0  0  0  0  0  0  0  0  0
  138.2190   70.3400  223.6280 C   0  0  0  0  0  0  0  0  0  0  0  0
  138.5590   68.9010  223.9260 C   0  0  0  0  0  0  0  0  0  0  0  0
  139.4390   68.8330  225.1110 C   0  0  0  0  0  0  0  0  0  0  0  0
  139.6330   67.6150  225.7260 C   0  0  0  0  0  0  0  0  0  0  0  0
  140.4420   67.5000  226.8400 C   0  0  0  0  0  0  0  0  0  0  0  0
  141.1000   68.5810  227.4020 C   0  0  0  0  0  0  0  0  0  0  0  0
  140.9040   69.8090  226.7800 C   0  0  0  0  0  0  0  0  0  0  0  0
  140.0860   69.9260  225.6550 C   0  0  0  0  0  0  0  0  0  0  0  0
  139.9630   71.3030  225.0950 C   0  0  0  0  0  0  0  0  0  0  0  0
  139.6310   73.3920  222.7080 N   0  0  0  0  0  0  0  0  0  0  0  0
  140.1090   74.1710  221.6960 C   0  0  0  0  0  0  0  0  0  0  0  0
  139.9160   75.5800  221.6750 N   0  0  0  0  0  0  0  0  0  0  0  0
  138.7340   76.2350  221.2150 C   0  0  0  0  0  0  0  0  0  0  0  0
  138.2090   77.2740  222.1800 C   0  0  0  0  0  0  0  0  0  0  0  0
  139.3130   78.1640  222.5950 C   0  0  0  0  0  0  0  0  0  0  0  0
  139.0090   79.4470  223.0080 C   0  0  0  0  0  0  0  0  0  0  0  0
  140.0360   80.2900  223.4090 C   0  0  0  0  0  0  0  0  0  0  0  0
  141.3510   79.8960  223.4120 C   0  0  0  0  0  0  0  0  0  0  0  0
  141.6200   78.6070  222.9920 C   0  0  0  0  0  0  0  0  0  0  0  0
  140.6380   77.7380  222.5870 C   0  0  0  0  0  0  0  0  0  0  0  0
  141.0180   76.3950  222.1620 C   0  0  0  0  0  0  0  0  0  0  0  0
  142.9070   75.0880  220.7830 H   0  0  0  0  0  0  0  0  0  0  0  0
  144.2601   75.5030  218.6988 H   0  0  0  0  0  0  0  0  0  0  0  0
  142.7095   75.6098  217.7808 H   0  0  0  0  0  0  0  0  0  0  0  0
  143.7270   77.4731  219.9259 H   0  0  0  0  0  0  0  0  0  0  0  0
  143.5137   77.7694  218.1172 H   0  0  0  0  0  0  0  0  0  0  0  0
  141.4034   77.4199  220.1986 H   0  0  0  0  0  0  0  0  0  0  0  0
  141.2002   77.0824  217.3395 H   0  0  0  0  0  0  0  0  0  0  0  0
  140.2378   76.4522  218.7198 H   0  0  0  0  0  0  0  0  0  0  0  0
  140.1046   79.1940  217.4028 H   0  0  0  0  0  0  0  0  0  0  0  0
  138.7920   78.0147  217.6169 H   0  0  0  0  0  0  0  0  0  0  0  0
  139.4570   78.2030  220.0670 H   0  0  0  0  0  0  0  0  0  0  0  0
  140.3419   80.8711  219.2455 H   0  0  0  0  0  0  0  0  0  0  0  0
  140.4740   80.0435  220.8496 H   0  0  0  0  0  0  0  0  0  0  0  0
  142.1385   79.7691  218.3978 H   0  0  0  0  0  0  0  0  0  0  0  0
  142.5688   79.6002  220.1428 H   0  0  0  0  0  0  0  0  0  0  0  0
  141.5570   71.6553  219.8707 H   0  0  0  0  0  0  0  0  0  0  0  0
  137.4146   70.6554  224.3088 H   0  0  0  0  0  0  0  0  0  0  0  0
  137.9160   70.3876  222.5716 H   0  0  0  0  0  0  0  0  0  0  0  0
  137.6338   68.3402  224.1248 H   0  0  0  0  0  0  0  0  0  0  0  0
  139.0779   68.4623  223.0609 H   0  0  0  0  0  0  0  0  0  0  0  0
  139.1358   66.7201  225.3235 H   0  0  0  0  0  0  0  0  0  0  0  0
  140.5687   66.5086  227.2995 H   0  0  0  0  0  0  0  0  0  0  0  0
  141.7410   68.4744  228.2896 H   0  0  0  0  0  0  0  0  0  0  0  0
  141.4022   70.7038  227.1814 H   0  0  0  0  0  0  0  0  0  0  0  0
  139.3511   71.9199  225.7696 H   0  0  0  0  0  0  0  0  0  0  0  0
  140.9635   71.7494  224.9963 H   0  0  0  0  0  0  0  0  0  0  0  0
  138.9592   76.7296  220.2586 H   0  0  0  0  0  0  0  0  0  0  0  0
  137.9553   75.4649  221.1116 H   0  0  0  0  0  0  0  0  0  0  0  0
  137.4245   77.8679  221.6881 H   0  0  0  0  0  0  0  0  0  0  0  0
  137.7896   76.7733  223.0651 H   0  0  0  0  0  0  0  0  0  0  0  0
  137.9659   79.7960  223.0188 H   0  0  0  0  0  0  0  0  0  0  0  0
  139.7874   81.3104  223.7361 H   0  0  0  0  0  0  0  0  0  0  0  0
  142.1541   80.5753  223.7340 H   0  0  0  0  0  0  0  0  0  0  0  0
  142.6649   78.2633  222.9819 H   0  0  0  0  0  0  0  0  0  0  0  0
  141.7594   76.4874  221.3547 H   0  0  0  0  0  0  0  0  0  0  0  0
  141.4126   75.8856  223.0535 H   0  0  0  0  0  0  0  0  0  0  0  0
  1  2  2  0
  2  3  1  0
  3  4  1  0
  4  5  1  0
  5  6  1  0
  6  7  1  0
  7  8  1  0
  8  9  1  0
  9 10  1  0
 10 11  1  0
  2 12  1  0
 12 13  2  0
 13 14  1  0
 14 15  2  0
 15 16  1  0
 16 17  1  0
 17 18  1  0
 18 19  1  0
 19 20  2  0
 20 21  1  0
 21 22  2  0
 22 23  1  0
 23 24  2  0
 24 25  1  0
 15 26  1  0
 26 27  2  0
 27 28  1  0
 28 29  1  0
 29 30  1  0
 30 31  1  0
 31 32  2  0
 32 33  1  0
 33 34  2  0
 34 35  1  0
 35 36  2  0
 36 37  1  0
 11  6  1  0
 27 12  1  0
 37 28  1  0
 25 16  1  0
 36 31  1  0
 24 19  1  0
  3 38  1  0
  4 39  1  0
  4 40  1  0
  5 41  1  0
  5 42  1  0
  6 43  1  0
  7 44  1  0
  7 45  1  0
  8 46  1  0
  8 47  1  0
  9 48  1  0
 10 49  1  0
 10 50  1  0
 11 51  1  0
 11 52  1  0
 13 53  1  0
 17 54  1  0
 17 55  1  0
 18 56  1  0
 18 57  1  0
 20 58  1  0
 21 59  1  0
 22 60  1  0
 23 61  1  0
 25 62  1  0
 25 63  1  0
 29 64  1  0
 29 65  1  0
 30 66  1  0
 30 67  1  0
 32 68  1  0
 33 69  1  0
 34 70  1  0
 35 71  1  0
 37 72  1  0
 37 73  1  0
M  END
>  <smiles>  (49) 
O=C(NCCC1CCNCC1)c1cnc(N2CCc3ccccc3C2)nc1N1CCc2ccccc2C1

>  <score_type>  (49) 
oracle

>  <origin>  (49) 
autodockgpu

>  <m_score__min__energy>  (49) 
-10.16

>  <m_primary>  (49) 
energy

>  <rmsd>  (49) 
5.336223955438627

>  <m_score__min__rmsd>  (49) 
5.336223955438627

>  <meeko>  (49) 
{"free_energy": -8.9, "intermolecular_energy": -10.68, "internal_energy": -2.68, "cluster_size": 38, "cluster_id": 1, "rank_in_cluster": 29}

>  <energy>  (49) 
-9.36

>  <cluster_rmsd>  (49) 
0.0

>  <cluster>  (49) 
7

$$$$

     RDKit          3D

 73 78  0  0  0  0  0  0  0  0999 V2000
  139.6590   70.9970  220.3450 O   0  0  0  0  0  0  0  0  0  0  0  0
  139.6380   71.7490  221.3550 C   0  0  0  0  0  0  0  0  0  0  0  0
  140.8040   72.3950  221.8720 N   0  0  0  0  0  0  0  0  0  0  0  0
  142.1210   72.2320  221.2820 C   0  0  0  0  0  0  0  0  0  0  0  0
  142.3590   73.2650  220.2340 C   0  0  0  0  0  0  0  0  0  0  0  0
  143.7590   73.3680  219.7280 C   0  0  0  0  0  0  0  0  0  0  0  0
  144.0480   72.5800  218.5080 C   0  0  0  0  0  0  0  0  0  0  0  0
  145.4850   72.1250  218.5300 C   0  0  0  0  0  0  0  0  0  0  0  0
  146.2870   73.2680  218.9800 N   0  0  0  0  0  0  0  0  0  0  0  0
  146.1570   73.3970  220.4210 C   0  0  0  0  0  0  0  0  0  0  0  0
  144.7380   73.1300  220.8700 C   0  0  0  0  0  0  0  0  0  0  0  0
  138.3780   71.9980  222.0560 C   0  0  0  0  0  0  0  0  0  0  0  0
  137.3980   72.6540  221.2990 C   0  0  0  0  0  0  0  0  0  0  0  0
  136.2350   72.8900  221.9210 N   0  0  0  0  0  0  0  0  0  0  0  0
  135.9830   72.5380  223.1890 C   0  0  0  0  0  0  0  0  0  0  0  0
  134.6900   72.8370  223.7430 N   0  0  0  0  0  0  0  0  0  0  0  0
  133.6820   71.8310  223.9510 C   0  0  0  0  0  0  0  0  0  0  0  0
  133.2320   71.7140  225.3860 C   0  0  0  0  0  0  0  0  0  0  0  0
  133.1090   73.0610  225.9810 C   0  0  0  0  0  0  0  0  0  0  0  0
  132.4400   73.2010  227.1780 C   0  0  0  0  0  0  0  0  0  0  0  0
  132.2940   74.4400  227.7710 C   0  0  0  0  0  0  0  0  0  0  0  0
  132.8010   75.6020  227.2140 C   0  0  0  0  0  0  0  0  0  0  0  0
  133.4760   75.4590  226.0070 C   0  0  0  0  0  0  0  0  0  0  0  0
  133.6240   74.2080  225.4060 C   0  0  0  0  0  0  0  0  0  0  0  0
  134.3650   74.2030  224.1120 C   0  0  0  0  0  0  0  0  0  0  0  0
  136.9290   71.9130  223.8990 N   0  0  0  0  0  0  0  0  0  0  0  0
  138.1490   71.6240  223.3620 C   0  0  0  0  0  0  0  0  0  0  0  0
  139.1600   70.9560  224.1070 N   0  0  0  0  0  0  0  0  0  0  0  0
  140.3220   71.5830  224.6510 C   0  0  0  0  0  0  0  0  0  0  0  0
  140.5570   71.2500  226.1070 C   0  0  0  0  0  0  0  0  0  0  0  0
  140.4710   69.7880  226.2980 C   0  0  0  0  0  0  0  0  0  0  0  0
  141.1520   69.2180  227.3570 C   0  0  0  0  0  0  0  0  0  0  0  0
  141.0720   67.8460  227.5530 C   0  0  0  0  0  0  0  0  0  0  0  0
  140.3370   67.0280  226.7310 C   0  0  0  0  0  0  0  0  0  0  0  0
  139.6680   67.6310  225.6810 C   0  0  0  0  0  0  0  0  0  0  0  0
  139.7170   68.9820  225.4480 C   0  0  0  0  0  0  0  0  0  0  0  0
  138.9780   69.5290  224.3160 C   0  0  0  0  0  0  0  0  0  0  0  0
  140.6860   73.0210  222.7300 H   0  0  0  0  0  0  0  0  0  0  0  0
  142.8840   72.3323  222.0680 H   0  0  0  0  0  0  0  0  0  0  0  0
  142.1805   71.2364  220.8180 H   0  0  0  0  0  0  0  0  0  0  0  0
  141.7073   73.0338  219.3785 H   0  0  0  0  0  0  0  0  0  0  0  0
  142.1433   74.2313  220.7134 H   0  0  0  0  0  0  0  0  0  0  0  0
  143.8953   74.3982  219.3674 H   0  0  0  0  0  0  0  0  0  0  0  0
  143.3862   71.7020  218.4737 H   0  0  0  0  0  0  0  0  0  0  0  0
  143.8758   73.2051  217.6194 H   0  0  0  0  0  0  0  0  0  0  0  0
  145.6042   71.2818  219.2262 H   0  0  0  0  0  0  0  0  0  0  0  0
  145.8061   71.7865  217.5339 H   0  0  0  0  0  0  0  0  0  0  0  0
  145.8170   74.1130  218.5660 H   0  0  0  0  0  0  0  0  0  0  0  0
  146.8289   72.6746  220.9076 H   0  0  0  0  0  0  0  0  0  0  0  0
  146.4229   74.4264  220.7031 H   0  0  0  0  0  0  0  0  0  0  0  0
  144.6555   72.0854  221.2047 H   0  0  0  0  0  0  0  0  0  0  0  0
  144.4929   73.8152  221.6949 H   0  0  0  0  0  0  0  0  0  0  0  0
  137.5731   72.9571  220.2562 H   0  0  0  0  0  0  0  0  0  0  0  0
  132.8080   72.0814  223.3319 H   0  0  0  0  0  0  0  0  0  0  0  0
  134.1287   70.8649  223.6734 H   0  0  0  0  0  0  0  0  0  0  0  0
  132.2563   71.2075  225.4230 H   0  0  0  0  0  0  0  0  0  0  0  0
  133.9725   71.1314  225.9536 H   0  0  0  0  0  0  0  0  0  0  0  0
  132.0159   72.3125  227.6685 H   0  0  0  0  0  0  0  0  0  0  0  0
  131.7521   74.5064  228.7260 H   0  0  0  0  0  0  0  0  0  0  0  0
  132.6768   76.5817  227.6986 H   0  0  0  0  0  0  0  0  0  0  0  0
  133.9009   76.3475  225.5170 H   0  0  0  0  0  0  0  0  0  0  0  0
  133.7379   74.6545  223.3291 H   0  0  0  0  0  0  0  0  0  0  0  0
  135.2932   74.7833  224.2200 H   0  0  0  0  0  0  0  0  0  0  0  0
  141.1983   71.2554  224.0724 H   0  0  0  0  0  0  0  0  0  0  0  0
  140.1649   72.6699  224.5874 H   0  0  0  0  0  0  0  0  0  0  0  0
  141.5555   71.6008  226.4068 H   0  0  0  0  0  0  0  0  0  0  0  0
  139.7934   71.7459  226.7243 H   0  0  0  0  0  0  0  0  0  0  0  0
  141.7499   69.8436  228.0360 H   0  0  0  0  0  0  0  0  0  0  0  0
  141.6170   67.3982  228.3971 H   0  0  0  0  0  0  0  0  0  0  0  0
  140.2826   65.9424  226.8997 H   0  0  0  0  0  0  0  0  0  0  0  0
  139.0718   67.0008  225.0046 H   0  0  0  0  0  0  0  0  0  0  0  0
  139.3060   69.0045  223.4064 H   0  0  0  0  0  0  0  0  0  0  0  0
  137.9112   69.3802  224.5390 H   0  0  0  0  0  0  0  0  0  0  0  0
  1  2  2  0
  2  3  1  0
  3  4  1  0
  4  5  1  0
  5  6  1  0
  6  7  1  0
  7  8  1  0
  8  9  1  0
  9 10  1  0
 10 11  1  0
  2 12  1  0
 12 13  2  0
 13 14  1  0
 14 15  2  0
 15 16  1  0
 16 17  1  0
 17 18  1  0
 18 19  1  0
 19 20  2  0
 20 21  1  0
 21 22  2  0
 22 23  1  0
 23 24  2  0
 24 25  1  0
 15 26  1  0
 26 27  2  0
 27 28  1  0
 28 29  1  0
 29 30  1  0
 30 31  1  0
 31 32  2  0
 32 33  1  0
 33 34  2  0
 34 35  1  0
 35 36  2  0
 36 37  1  0
 11  6  1  0
 27 12  1  0
 37 28  1  0
 25 16  1  0
 36 31  1  0
 24 19  1  0
  3 38  1  0
  4 39  1  0
  4 40  1  0
  5 41  1  0
  5 42  1  0
  6 43  1  0
  7 44  1  0
  7 45  1  0
  8 46  1  0
  8 47  1  0
  9 48  1  0
 10 49  1  0
 10 50  1  0
 11 51  1  0
 11 52  1  0
 13 53  1  0
 17 54  1  0
 17 55  1  0
 18 56  1  0
 18 57  1  0
 20 58  1  0
 21 59  1  0
 22 60  1  0
 23 61  1  0
 25 62  1  0
 25 63  1  0
 29 64  1  0
 29 65  1  0
 30 66  1  0
 30 67  1  0
 32 68  1  0
 33 69  1  0
 34 70  1  0
 35 71  1  0
 37 72  1  0
 37 73  1  0
M  END
>  <smiles>  (50) 
O=C(NCCC1CCNCC1)c1cnc(N2CCc3ccccc3C2)nc1N1CCc2ccccc2C1

>  <score_type>  (50) 
oracle

>  <origin>  (50) 
autodockgpu

>  <m_score__min__energy>  (50) 
-10.16

>  <m_primary>  (50) 
energy

>  <rmsd>  (50) 
6.787438007104308

>  <m_score__min__rmsd>  (50) 
6.787438007104308

>  <meeko>  (50) 
{"free_energy": -9.36, "intermolecular_energy": -11.15, "internal_energy": -1.03, "cluster_size": 1, "cluster_id": 7, "rank_in_cluster": 1}

>  <energy>  (50) 
-8.49

>  <cluster_rmsd>  (50) 
0.0

>  <cluster>  (50) 
8

$$$$
