
     RDKit          3D

 48 51  0  0  0  0  0  0  0  0999 V2000
  139.7220   71.1690  221.1460 O   0  0  0  0  0  0  0  0  0  0  0  0
  139.3960   71.7430  222.2190 C   0  0  0  0  0  0  0  0  0  0  0  0
  138.8030   73.0660  222.1020 N   0  0  0  0  0  0  0  0  0  0  0  0
  138.6540   73.5680  220.7880 C   0  0  0  0  0  0  0  0  0  0  0  0
  139.7890   74.0810  220.0550 C   0  0  0  0  0  0  0  0  0  0  0  0
  139.4690   74.7430  218.9750 O   0  0  0  0  0  0  0  0  0  0  0  0
  141.1790   73.9770  220.3290 N   0  0  0  0  0  0  0  0  0  0  0  0
  142.0620   72.8220  220.1700 C   0  0  0  0  0  0  0  0  0  0  0  0
  143.4610   73.4660  220.1950 C   0  0  0  0  0  0  0  0  0  0  0  0
  143.1640   74.9670  219.9650 C   0  0  0  0  0  0  0  0  0  0  0  0
  141.9790   75.0530  220.8790 C   0  0  1  0  0  0  0  0  0  0  0  0
  141.4560   76.3000  221.2490 C   0  0  0  0  0  0  0  0  0  0  0  0
  141.8040   77.4620  220.5420 C   0  0  0  0  0  0  0  0  0  0  0  0
  141.3340   78.7040  220.9070 C   0  0  0  0  0  0  0  0  0  0  0  0
  140.4940   78.8620  221.9890 C   0  0  0  0  0  0  0  0  0  0  0  0
  139.8780   80.4160  222.4810 Cl  0  0  0  0  0  0  0  0  0  0  0  0
  140.1470   77.7270  222.6900 C   0  0  0  0  0  0  0  0  0  0  0  0
  140.6170   76.4900  222.3260 C   0  0  0  0  0  0  0  0  0  0  0  0
  139.5860   71.1500  223.5350 C   0  0  0  0  0  0  0  0  0  0  0  0
  139.0780   69.8820  223.7270 C   0  0  0  0  0  0  0  0  0  0  0  0
  139.2330   69.2660  224.9690 C   0  0  0  0  0  0  0  0  0  0  0  0
  139.8970   69.9470  225.9880 C   0  0  0  0  0  0  0  0  0  0  0  0
  140.0260   69.3120  227.1860 C   0  0  0  0  0  0  0  0  0  0  0  0
  140.6890   69.9820  228.2150 C   0  0  0  0  0  0  0  0  0  0  0  0
  141.1790   71.2500  227.9710 C   0  0  0  0  0  0  0  0  0  0  0  0
  141.8210   71.8950  228.9730 F   0  0  0  0  0  0  0  0  0  0  0  0
  141.0340   71.8650  226.7530 C   0  0  0  0  0  0  0  0  0  0  0  0
  140.3740   71.2110  225.7140 C   0  0  0  0  0  0  0  0  0  0  0  0
  140.2310   71.8140  224.5190 N   0  0  0  0  0  0  0  0  0  0  0  0
  138.5390   73.4850  223.0050 H   0  0  0  0  0  0  0  0  0  0  0  0
  138.2369   72.7479  220.1851 H   0  0  0  0  0  0  0  0  0  0  0  0
  138.0377   74.4663  220.9402 H   0  0  0  0  0  0  0  0  0  0  0  0
  141.9375   72.1094  220.9987 H   0  0  0  0  0  0  0  0  0  0  0  0
  141.8632   72.2403  219.2578 H   0  0  0  0  0  0  0  0  0  0  0  0
  143.9517   73.3054  221.1663 H   0  0  0  0  0  0  0  0  0  0  0  0
  144.1444   73.0418  219.4447 H   0  0  0  0  0  0  0  0  0  0  0  0
  143.9926   75.6152  220.2862 H   0  0  0  0  0  0  0  0  0  0  0  0
  143.0106   75.2875  218.9240 H   0  0  0  0  0  0  0  0  0  0  0  0
  142.1782   74.9203  221.9526 H   0  0  0  0  0  0  0  0  0  0  0  0
  142.4712   77.3780  219.6715 H   0  0  0  0  0  0  0  0  0  0  0  0
  141.6345   79.5871  220.3240 H   0  0  0  0  0  0  0  0  0  0  0  0
  139.4792   77.8146  223.5597 H   0  0  0  0  0  0  0  0  0  0  0  0
  140.3117   75.6145  222.9179 H   0  0  0  0  0  0  0  0  0  0  0  0
  138.5564   69.3623  222.9098 H   0  0  0  0  0  0  0  0  0  0  0  0
  138.8360   68.2549  225.1421 H   0  0  0  0  0  0  0  0  0  0  0  0
  139.6197   68.3011  227.3379 H   0  0  0  0  0  0  0  0  0  0  0  0
  140.8187   69.5100  229.2001 H   0  0  0  0  0  0  0  0  0  0  0  0
  141.4392   72.8756  226.5963 H   0  0  0  0  0  0  0  0  0  0  0  0
  1  2  2  0
  2  3  1  0
  3  4  1  0
  4  5  1  0
  5  6  2  0
  5  7  1  0
  7  8  1  0
  8  9  1  0
  9 10  1  0
 10 11  1  0
 11 12  1  0
 12 13  2  0
 13 14  1  0
 14 15  2  0
 15 16  1  0
 15 17  1  0
 17 18  2  0
  2 19  1  0
 19 20  2  0
 20 21  1  0
 21 22  2  0
 22 23  1  0
 23 24  2  0
 24 25  1  0
 25 26  1  0
 25 27  2  0
 27 28  1  0
 28 29  2  0
 11  7  1  0
 18 12  1  0
 29 19  1  0
 28 22  1  0
  3 30  1  0
  4 31  1  0
  4 32  1  0
  8 33  1  0
  8 34  1  0
  9 35  1  0
  9 36  1  0
 10 37  1  0
 10 38  1  0
 11 39  1  1
 13 40  1  0
 14 41  1  0
 17 42  1  0
 18 43  1  0
 20 44  1  0
 21 45  1  0
 23 46  1  0
 24 47  1  0
 27 48  1  0
M  END
>  <smiles>  (1) 
O=C(NCC(=O)N1CCC[C@H]1c1ccc(Cl)cc1)c1ccc2ccc(F)cc2n1

>  <score_type>  (1) 
oracle

>  <origin>  (1) 
autodockgpu

>  <m_score__min__energy>  (1) 
-8.5299999999999994

>  <m_primary>  (1) 
energy

>  <rmsd>  (1) 
2.416103617146186

>  <m_score__min__rmsd>  (1) 
2.416103617146186

>  <meeko>  (1) 
{"free_energy": -7.82, "intermolecular_energy": -9.31, "internal_energy": -1.67, "cluster_size": 16, "cluster_id": 1, "rank_in_cluster": 9}

>  <energy>  (1) 
-8.53

>  <cluster_rmsd>  (1) 
0.0

>  <cluster>  (1) 
1

$$$$

     RDKit          3D

 48 51  0  0  0  0  0  0  0  0999 V2000
  140.7310   74.2350  221.3890 O   0  0  0  0  0  0  0  0  0  0  0  0
  139.7980   74.8420  221.9770 C   0  0  0  0  0  0  0  0  0  0  0  0
  138.6050   74.0700  222.2900 N   0  0  0  0  0  0  0  0  0  0  0  0
  138.6230   72.7100  221.8970 C   0  0  0  0  0  0  0  0  0  0  0  0
  137.8000   71.7320  222.5710 C   0  0  0  0  0  0  0  0  0  0  0  0
  136.8930   72.2500  223.3550 O   0  0  0  0  0  0  0  0  0  0  0  0
  137.8280   70.3120  222.5090 N   0  0  0  0  0  0  0  0  0  0  0  0
  137.2030   69.4250  221.5290 C   0  0  0  0  0  0  0  0  0  0  0  0
  137.9610   68.1020  221.7480 C   0  0  0  0  0  0  0  0  0  0  0  0
  139.2030   68.5350  222.5630 C   0  0  0  0  0  0  0  0  0  0  0  0
  138.4860   69.4720  223.4890 C   0  0  1  0  0  0  0  0  0  0  0  0
  139.1250   69.9660  224.6350 C   0  0  0  0  0  0  0  0  0  0  0  0
  140.0390   71.0280  224.5440 C   0  0  0  0  0  0  0  0  0  0  0  0
  140.7070   71.5090  225.6480 C   0  0  0  0  0  0  0  0  0  0  0  0
  140.5060   70.9650  226.9000 C   0  0  0  0  0  0  0  0  0  0  0  0
  141.3310   71.5470  228.3200 Cl  0  0  0  0  0  0  0  0  0  0  0  0
  139.6110   69.9220  226.9990 C   0  0  0  0  0  0  0  0  0  0  0  0
  138.9460   69.4440  225.8970 C   0  0  0  0  0  0  0  0  0  0  0  0
  139.8650   76.2490  222.3460 C   0  0  0  0  0  0  0  0  0  0  0  0
  138.6700   76.9350  222.4120 C   0  0  0  0  0  0  0  0  0  0  0  0
  138.6760   78.2850  222.7610 C   0  0  0  0  0  0  0  0  0  0  0  0
  139.8920   78.9110  223.0340 C   0  0  0  0  0  0  0  0  0  0  0  0
  139.8570   80.2310  223.3690 C   0  0  0  0  0  0  0  0  0  0  0  0
  141.0660   80.8700  223.6450 C   0  0  0  0  0  0  0  0  0  0  0  0
  142.2340   80.1380  223.5650 C   0  0  0  0  0  0  0  0  0  0  0  0
  143.4040   80.7630  223.8340 F   0  0  0  0  0  0  0  0  0  0  0  0
  142.2400   78.8090  223.2240 C   0  0  0  0  0  0  0  0  0  0  0  0
  141.0410   78.1540  222.9440 C   0  0  0  0  0  0  0  0  0  0  0  0
  141.0450   76.8510  222.6090 N   0  0  0  0  0  0  0  0  0  0  0  0
  137.8800   74.6070  222.7860 H   0  0  0  0  0  0  0  0  0  0  0  0
  138.3323   72.6865  220.8364 H   0  0  0  0  0  0  0  0  0  0  0  0
  139.6427   72.3938  222.1622 H   0  0  0  0  0  0  0  0  0  0  0  0
  136.1280   69.3054  221.7293 H   0  0  0  0  0  0  0  0  0  0  0  0
  137.2629   69.7997  220.4965 H   0  0  0  0  0  0  0  0  0  0  0  0
  137.3479   67.3856  222.3145 H   0  0  0  0  0  0  0  0  0  0  0  0
  138.2189   67.5926  220.8078 H   0  0  0  0  0  0  0  0  0  0  0  0
  139.6735   67.6944  223.0941 H   0  0  0  0  0  0  0  0  0  0  0  0
  140.0482   68.9505  221.9947 H   0  0  0  0  0  0  0  0  0  0  0  0
  137.7756   69.0167  224.1947 H   0  0  0  0  0  0  0  0  0  0  0  0
  140.2268   71.4889  223.5630 H   0  0  0  0  0  0  0  0  0  0  0  0
  141.4144   72.3430  225.5294 H   0  0  0  0  0  0  0  0  0  0  0  0
  139.4255   69.4628  227.9812 H   0  0  0  0  0  0  0  0  0  0  0  0
  138.2411   68.6096  226.0274 H   0  0  0  0  0  0  0  0  0  0  0  0
  137.7221   76.4223  222.1916 H   0  0  0  0  0  0  0  0  0  0  0  0
  137.7335   78.8491  222.8203 H   0  0  0  0  0  0  0  0  0  0  0  0
  138.9034   80.7770  223.4204 H   0  0  0  0  0  0  0  0  0  0  0  0
  141.0883   81.9347  223.9206 H   0  0  0  0  0  0  0  0  0  0  0  0
  143.1915   78.2596  223.1714 H   0  0  0  0  0  0  0  0  0  0  0  0
  1  2  2  0
  2  3  1  0
  3  4  1  0
  4  5  1  0
  5  6  2  0
  5  7  1  0
  7  8  1  0
  8  9  1  0
  9 10  1  0
 10 11  1  0
 11 12  1  0
 12 13  2  0
 13 14  1  0
 14 15  2  0
 15 16  1  0
 15 17  1  0
 17 18  2  0
  2 19  1  0
 19 20  2  0
 20 21  1  0
 21 22  2  0
 22 23  1  0
 23 24  2  0
 24 25  1  0
 25 26  1  0
 25 27  2  0
 27 28  1  0
 28 29  2  0
 11  7  1  0
 18 12  1  0
 29 19  1  0
 28 22  1  0
  3 30  1  0
  4 31  1  0
  4 32  1  0
  8 33  1  0
  8 34  1  0
  9 35  1  0
  9 36  1  0
 10 37  1  0
 10 38  1  0
 11 39  1  1
 13 40  1  0
 14 41  1  0
 17 42  1  0
 18 43  1  0
 20 44  1  0
 21 45  1  0
 23 46  1  0
 24 47  1  0
 27 48  1  0
M  END
>  <smiles>  (2) 
O=C(NCC(=O)N1CCC[C@H]1c1ccc(Cl)cc1)c1ccc2ccc(F)cc2n1

>  <score_type>  (2) 
oracle

>  <origin>  (2) 
autodockgpu

>  <m_score__min__energy>  (2) 
-8.5299999999999994

>  <m_primary>  (2) 
energy

>  <rmsd>  (2) 
8.07335164236035

>  <m_score__min__rmsd>  (2) 
8.07335164236035

>  <meeko>  (2) 
{"free_energy": -8.17, "intermolecular_energy": -9.66, "internal_energy": -1.35, "cluster_size": 1, "cluster_id": 2, "rank_in_cluster": 1}

>  <energy>  (2) 
-8.51

>  <cluster_rmsd>  (2) 
0.17

>  <cluster>  (2) 
1

$$$$

     RDKit          3D

 48 51  0  0  0  0  0  0  0  0999 V2000
  137.1690   70.9530  221.4160 O   0  0  0  0  0  0  0  0  0  0  0  0
  137.7290   71.7500  222.2160 C   0  0  0  0  0  0  0  0  0  0  0  0
  137.2080   71.7920  223.5730 N   0  0  0  0  0  0  0  0  0  0  0  0
  136.1230   70.9280  223.8520 C   0  0  0  0  0  0  0  0  0  0  0  0
  136.3070   69.4950  223.8950 C   0  0  0  0  0  0  0  0  0  0  0  0
  135.4680   68.8760  224.6810 O   0  0  0  0  0  0  0  0  0  0  0  0
  137.2470   68.6710  223.2190 N   0  0  0  0  0  0  0  0  0  0  0  0
  137.0110   67.6830  222.1670 C   0  0  0  0  0  0  0  0  0  0  0  0
  138.4170   67.4890  221.5710 C   0  0  0  0  0  0  0  0  0  0  0  0
  139.2040   68.7060  222.1140 C   0  0  0  0  0  0  0  0  0  0  0  0
  138.6650   68.6520  223.5130 C   0  0  1  0  0  0  0  0  0  0  0  0
  139.2590   69.4080  224.5320 C   0  0  0  0  0  0  0  0  0  0  0  0
  139.1090   69.0390  225.8790 C   0  0  0  0  0  0  0  0  0  0  0  0
  139.6520   69.7850  226.9020 C   0  0  0  0  0  0  0  0  0  0  0  0
  140.3720   70.9330  226.6470 C   0  0  0  0  0  0  0  0  0  0  0  0
  141.0740   71.9010  227.9140 Cl  0  0  0  0  0  0  0  0  0  0  0  0
  140.5240   71.3040  225.3290 C   0  0  0  0  0  0  0  0  0  0  0  0
  139.9830   70.5600  224.3100 C   0  0  0  0  0  0  0  0  0  0  0  0
  138.8450   72.6070  221.8420 C   0  0  0  0  0  0  0  0  0  0  0  0
  138.6180   73.9670  221.8510 C   0  0  0  0  0  0  0  0  0  0  0  0
  139.6530   74.8350  221.5020 C   0  0  0  0  0  0  0  0  0  0  0  0
  140.8940   74.3050  221.1510 C   0  0  0  0  0  0  0  0  0  0  0  0
  141.8790   75.1840  220.8160 C   0  0  0  0  0  0  0  0  0  0  0  0
  143.1260   74.6680  220.4620 C   0  0  0  0  0  0  0  0  0  0  0  0
  143.3020   73.2990  220.4690 C   0  0  0  0  0  0  0  0  0  0  0  0
  144.5140   72.8040  220.1250 F   0  0  0  0  0  0  0  0  0  0  0  0
  142.2910   72.4360  220.8110 C   0  0  0  0  0  0  0  0  0  0  0  0
  141.0380   72.9340  221.1670 C   0  0  0  0  0  0  0  0  0  0  0  0
  140.0450   72.0890  221.5030 N   0  0  0  0  0  0  0  0  0  0  0  0
  137.7100   72.4450  224.1910 H   0  0  0  0  0  0  0  0  0  0  0  0
  135.7328   71.2233  224.8372 H   0  0  0  0  0  0  0  0  0  0  0  0
  135.4731   71.0632  222.9749 H   0  0  0  0  0  0  0  0  0  0  0  0
  136.6231   66.7423  222.5849 H   0  0  0  0  0  0  0  0  0  0  0  0
  136.2611   68.0004  221.4275 H   0  0  0  0  0  0  0  0  0  0  0  0
  138.8643   66.5449  221.9153 H   0  0  0  0  0  0  0  0  0  0  0  0
  138.4152   67.4325  220.4725 H   0  0  0  0  0  0  0  0  0  0  0  0
  140.2930   68.5560  222.0751 H   0  0  0  0  0  0  0  0  0  0  0  0
  139.0829   69.6559  221.5727 H   0  0  0  0  0  0  0  0  0  0  0  0
  138.9550   67.7800  224.1176 H   0  0  0  0  0  0  0  0  0  0  0  0
  138.5420   68.1288  226.1239 H   0  0  0  0  0  0  0  0  0  0  0  0
  139.5084   69.4585  227.9425 H   0  0  0  0  0  0  0  0  0  0  0  0
  141.0907   72.2155  225.0881 H   0  0  0  0  0  0  0  0  0  0  0  0
  140.1334   70.8969  223.2737 H   0  0  0  0  0  0  0  0  0  0  0  0
  137.6308   74.3636  222.1305 H   0  0  0  0  0  0  0  0  0  0  0  0
  139.4921   75.9232  221.5037 H   0  0  0  0  0  0  0  0  0  0  0  0
  141.6967   76.2688  220.8243 H   0  0  0  0  0  0  0  0  0  0  0  0
  143.9521   75.3386  220.1830 H   0  0  0  0  0  0  0  0  0  0  0  0
  142.4693   71.3506  220.8043 H   0  0  0  0  0  0  0  0  0  0  0  0
  1  2  2  0
  2  3  1  0
  3  4  1  0
  4  5  1  0
  5  6  2  0
  5  7  1  0
  7  8  1  0
  8  9  1  0
  9 10  1  0
 10 11  1  0
 11 12  1  0
 12 13  2  0
 13 14  1  0
 14 15  2  0
 15 16  1  0
 15 17  1  0
 17 18  2  0
  2 19  1  0
 19 20  2  0
 20 21  1  0
 21 22  2  0
 22 23  1  0
 23 24  2  0
 24 25  1  0
 25 26  1  0
 25 27  2  0
 27 28  1  0
 28 29  2  0
 11  7  1  0
 18 12  1  0
 29 19  1  0
 28 22  1  0
  3 30  1  0
  4 31  1  0
  4 32  1  0
  8 33  1  0
  8 34  1  0
  9 35  1  0
  9 36  1  0
 10 37  1  0
 10 38  1  0
 11 39  1  1
 13 40  1  0
 14 41  1  0
 17 42  1  0
 18 43  1  0
 20 44  1  0
 21 45  1  0
 23 46  1  0
 24 47  1  0
 27 48  1  0
M  END
>  <smiles>  (3) 
O=C(NCC(=O)N1CCC[C@H]1c1ccc(Cl)cc1)c1ccc2ccc(F)cc2n1

>  <score_type>  (3) 
oracle

>  <origin>  (3) 
autodockgpu

>  <m_score__min__energy>  (3) 
-8.5299999999999994

>  <m_primary>  (3) 
energy

>  <rmsd>  (3) 
7.373846840305981

>  <m_score__min__rmsd>  (3) 
7.373846840305981

>  <meeko>  (3) 
{"free_energy": -7.13, "intermolecular_energy": -8.62, "internal_energy": -2.34, "cluster_size": 4, "cluster_id": 9, "rank_in_cluster": 1}

>  <energy>  (3) 
-8.48

>  <cluster_rmsd>  (3) 
0.19

>  <cluster>  (3) 
1

$$$$

     RDKit          3D

 48 51  0  0  0  0  0  0  0  0999 V2000
  136.5550   77.2730  222.6310 O   0  0  0  0  0  0  0  0  0  0  0  0
  136.5170   76.1080  223.1080 C   0  0  0  0  0  0  0  0  0  0  0  0
  137.5270   75.1720  222.6380 N   0  0  0  0  0  0  0  0  0  0  0  0
  138.4480   75.6750  221.6890 C   0  0  0  0  0  0  0  0  0  0  0  0
  139.8270   75.2410  221.6910 C   0  0  0  0  0  0  0  0  0  0  0  0
  140.0290   74.1150  222.3200 O   0  0  0  0  0  0  0  0  0  0  0  0
  140.9780   75.8460  221.1170 N   0  0  0  0  0  0  0  0  0  0  0  0
  142.0540   75.2240  220.3470 C   0  0  0  0  0  0  0  0  0  0  0  0
  142.7130   76.4330  219.6590 C   0  0  0  0  0  0  0  0  0  0  0  0
  141.6590   77.5540  219.8240 C   0  0  0  0  0  0  0  0  0  0  0  0
  141.3050   77.2520  221.2500 C   0  0  1  0  0  0  0  0  0  0  0  0
  140.5470   78.1600  222.0010 C   0  0  0  0  0  0  0  0  0  0  0  0
  140.9760   78.5710  223.2740 C   0  0  0  0  0  0  0  0  0  0  0  0
  140.2320   79.4340  224.0480 C   0  0  0  0  0  0  0  0  0  0  0  0
  139.0270   79.9360  223.6050 C   0  0  0  0  0  0  0  0  0  0  0  0
  138.0590   81.0300  224.5540 Cl  0  0  0  0  0  0  0  0  0  0  0  0
  138.5980   79.5380  222.3570 C   0  0  0  0  0  0  0  0  0  0  0  0
  139.3400   78.6780  221.5870 C   0  0  0  0  0  0  0  0  0  0  0  0
  135.5290   75.6740  224.0860 C   0  0  0  0  0  0  0  0  0  0  0  0
  134.7230   76.6500  224.6330 C   0  0  0  0  0  0  0  0  0  0  0  0
  133.7590   76.2910  225.5750 C   0  0  0  0  0  0  0  0  0  0  0  0
  133.6330   74.9510  225.9410 C   0  0  0  0  0  0  0  0  0  0  0  0
  132.6810   74.6400  226.8640 C   0  0  0  0  0  0  0  0  0  0  0  0
  132.5440   73.3040  227.2400 C   0  0  0  0  0  0  0  0  0  0  0  0
  133.3760   72.3650  226.6630 C   0  0  0  0  0  0  0  0  0  0  0  0
  133.2390   71.0700  227.0310 F   0  0  0  0  0  0  0  0  0  0  0  0
  134.3270   72.7080  225.7350 C   0  0  0  0  0  0  0  0  0  0  0  0
  134.4790   74.0390  225.3480 C   0  0  0  0  0  0  0  0  0  0  0  0
  135.4110   74.3760  224.4380 N   0  0  0  0  0  0  0  0  0  0  0  0
  137.4640   74.2400  223.0710 H   0  0  0  0  0  0  0  0  0  0  0  0
  138.0428   75.4266  220.6970 H   0  0  0  0  0  0  0  0  0  0  0  0
  138.5268   76.7367  221.9657 H   0  0  0  0  0  0  0  0  0  0  0  0
  142.7656   74.7049  221.0059 H   0  0  0  0  0  0  0  0  0  0  0  0
  141.7018   74.4565  219.6421 H   0  0  0  0  0  0  0  0  0  0  0  0
  143.6566   76.7030  220.1556 H   0  0  0  0  0  0  0  0  0  0  0  0
  142.9758   76.2402  218.6084 H   0  0  0  0  0  0  0  0  0  0  0  0
  142.0885   78.5590  219.6994 H   0  0  0  0  0  0  0  0  0  0  0  0
  140.8310   77.5660  219.0999 H   0  0  0  0  0  0  0  0  0  0  0  0
  142.0902   77.4303  221.9994 H   0  0  0  0  0  0  0  0  0  0  0  0
  141.9328   78.1931  223.6636 H   0  0  0  0  0  0  0  0  0  0  0  0
  140.6069   79.7285  225.0394 H   0  0  0  0  0  0  0  0  0  0  0  0
  137.6408   79.9177  221.9702 H   0  0  0  0  0  0  0  0  0  0  0  0
  138.9546   78.3903  220.5977 H   0  0  0  0  0  0  0  0  0  0  0  0
  134.8391   77.7009  224.3296 H   0  0  0  0  0  0  0  0  0  0  0  0
  133.1066   77.0548  226.0234 H   0  0  0  0  0  0  0  0  0  0  0  0
  132.0391   75.4196  227.3001 H   0  0  0  0  0  0  0  0  0  0  0  0
  131.7885   73.0043  227.9812 H   0  0  0  0  0  0  0  0  0  0  0  0
  134.9705   71.9316  225.2956 H   0  0  0  0  0  0  0  0  0  0  0  0
  1  2  2  0
  2  3  1  0
  3  4  1  0
  4  5  1  0
  5  6  2  0
  5  7  1  0
  7  8  1  0
  8  9  1  0
  9 10  1  0
 10 11  1  0
 11 12  1  0
 12 13  2  0
 13 14  1  0
 14 15  2  0
 15 16  1  0
 15 17  1  0
 17 18  2  0
  2 19  1  0
 19 20  2  0
 20 21  1  0
 21 22  2  0
 22 23  1  0
 23 24  2  0
 24 25  1  0
 25 26  1  0
 25 27  2  0
 27 28  1  0
 28 29  2  0
 11  7  1  0
 18 12  1  0
 29 19  1  0
 28 22  1  0
  3 30  1  0
  4 31  1  0
  4 32  1  0
  8 33  1  0
  8 34  1  0
  9 35  1  0
  9 36  1  0
 10 37  1  0
 10 38  1  0
 11 39  1  1
 13 40  1  0
 14 41  1  0
 17 42  1  0
 18 43  1  0
 20 44  1  0
 21 45  1  0
 23 46  1  0
 24 47  1  0
 27 48  1  0
M  END
>  <smiles>  (4) 
O=C(NCC(=O)N1CCC[C@H]1c1ccc(Cl)cc1)c1ccc2ccc(F)cc2n1

>  <score_type>  (4) 
oracle

>  <origin>  (4) 
autodockgpu

>  <m_score__min__energy>  (4) 
-8.5299999999999994

>  <m_primary>  (4) 
energy

>  <rmsd>  (4) 
5.906943123248101

>  <m_score__min__rmsd>  (4) 
5.906943123248101

>  <meeko>  (4) 
{"free_energy": -7.38, "intermolecular_energy": -8.87, "internal_energy": -1.98, "cluster_size": 4, "cluster_id": 8, "rank_in_cluster": 1}

>  <energy>  (4) 
-8.42

>  <cluster_rmsd>  (4) 
0.38

>  <cluster>  (4) 
1

$$$$

     RDKit          3D

 48 51  0  0  0  0  0  0  0  0999 V2000
  139.2140   71.1980  221.2480 O   0  0  0  0  0  0  0  0  0  0  0  0
  139.3520   71.8350  222.3260 C   0  0  0  0  0  0  0  0  0  0  0  0
  139.2310   73.2820  222.2540 N   0  0  0  0  0  0  0  0  0  0  0  0
  138.9690   73.8230  220.9730 C   0  0  0  0  0  0  0  0  0  0  0  0
  140.0370   74.0300  220.0220 C   0  0  0  0  0  0  0  0  0  0  0  0
  139.6300   74.1660  218.7880 O   0  0  0  0  0  0  0  0  0  0  0  0
  141.4420   74.1080  220.2240 N   0  0  0  0  0  0  0  0  0  0  0  0
  142.4600   73.0840  219.9950 C   0  0  0  0  0  0  0  0  0  0  0  0
  143.7600   73.9080  219.9640 C   0  0  0  0  0  0  0  0  0  0  0  0
  143.2560   75.3600  219.7830 C   0  0  0  0  0  0  0  0  0  0  0  0
  142.1190   75.2730  220.7570 C   0  0  1  0  0  0  0  0  0  0  0  0
  141.4560   76.4330  221.1810 C   0  0  0  0  0  0  0  0  0  0  0  0
  140.5750   76.3960  222.2730 C   0  0  0  0  0  0  0  0  0  0  0  0
  139.8840   77.5130  222.6880 C   0  0  0  0  0  0  0  0  0  0  0  0
  140.0280   78.7240  222.0450 C   0  0  0  0  0  0  0  0  0  0  0  0
  139.1720   80.1590  222.5400 Cl  0  0  0  0  0  0  0  0  0  0  0  0
  140.8910   78.7700  220.9710 C   0  0  0  0  0  0  0  0  0  0  0  0
  141.5790   77.6560  220.5590 C   0  0  0  0  0  0  0  0  0  0  0  0
  139.6200   71.1940  223.6060 C   0  0  0  0  0  0  0  0  0  0  0  0
  139.2600   69.8680  223.7280 C   0  0  0  0  0  0  0  0  0  0  0  0
  139.4950   69.2050  224.9320 C   0  0  0  0  0  0  0  0  0  0  0  0
  140.0880   69.8990  225.9860 C   0  0  0  0  0  0  0  0  0  0  0  0
  140.2990   69.2170  227.1460 C   0  0  0  0  0  0  0  0  0  0  0  0
  140.8920   69.9000  228.2090 C   0  0  0  0  0  0  0  0  0  0  0  0
  141.2330   71.2260  228.0360 C   0  0  0  0  0  0  0  0  0  0  0  0
  141.8070   71.8830  229.0710 F   0  0  0  0  0  0  0  0  0  0  0  0
  141.0070   71.8880  226.8550 C   0  0  0  0  0  0  0  0  0  0  0  0
  140.4160   71.2220  225.7820 C   0  0  0  0  0  0  0  0  0  0  0  0
  140.1940   71.8710  224.6240 N   0  0  0  0  0  0  0  0  0  0  0  0
  139.3330   73.7540  223.1640 H   0  0  0  0  0  0  0  0  0  0  0  0
  138.2461   73.1489  220.4903 H   0  0  0  0  0  0  0  0  0  0  0  0
  138.6472   74.8492  221.2040 H   0  0  0  0  0  0  0  0  0  0  0  0
  142.4750   72.3484  220.8127 H   0  0  0  0  0  0  0  0  0  0  0  0
  142.2920   72.4952  219.0812 H   0  0  0  0  0  0  0  0  0  0  0  0
  144.3183   73.7990  220.9055 H   0  0  0  0  0  0  0  0  0  0  0  0
  144.4525   73.5904  219.1706 H   0  0  0  0  0  0  0  0  0  0  0  0
  144.0075   76.1074  220.0772 H   0  0  0  0  0  0  0  0  0  0  0  0
  143.0075   75.6739  218.7584 H   0  0  0  0  0  0  0  0  0  0  0  0
  142.3888   75.1521  221.8165 H   0  0  0  0  0  0  0  0  0  0  0  0
  140.4323   75.4482  222.8127 H   0  0  0  0  0  0  0  0  0  0  0  0
  139.2040   77.4373  223.5493 H   0  0  0  0  0  0  0  0  0  0  0  0
  141.0312   79.7192  220.4330 H   0  0  0  0  0  0  0  0  0  0  0  0
  142.2564   77.7434  219.6967 H   0  0  0  0  0  0  0  0  0  0  0  0
  138.7924   69.3391  222.8844 H   0  0  0  0  0  0  0  0  0  0  0  0
  139.2160   68.1474  225.0489 H   0  0  0  0  0  0  0  0  0  0  0  0
  140.0107   68.1598  227.2421 H   0  0  0  0  0  0  0  0  0  0  0  0
  141.0837   69.3916  229.1654 H   0  0  0  0  0  0  0  0  0  0  0  0
  141.2926   72.9456  226.7549 H   0  0  0  0  0  0  0  0  0  0  0  0
  1  2  2  0
  2  3  1  0
  3  4  1  0
  4  5  1  0
  5  6  2  0
  5  7  1  0
  7  8  1  0
  8  9  1  0
  9 10  1  0
 10 11  1  0
 11 12  1  0
 12 13  2  0
 13 14  1  0
 14 15  2  0
 15 16  1  0
 15 17  1  0
 17 18  2  0
  2 19  1  0
 19 20  2  0
 20 21  1  0
 21 22  2  0
 22 23  1  0
 23 24  2  0
 24 25  1  0
 25 26  1  0
 25 27  2  0
 27 28  1  0
 28 29  2  0
 11  7  1  0
 18 12  1  0
 29 19  1  0
 28 22  1  0
  3 30  1  0
  4 31  1  0
  4 32  1  0
  8 33  1  0
  8 34  1  0
  9 35  1  0
  9 36  1  0
 10 37  1  0
 10 38  1  0
 11 39  1  1
 13 40  1  0
 14 41  1  0
 17 42  1  0
 18 43  1  0
 20 44  1  0
 21 45  1  0
 23 46  1  0
 24 47  1  0
 27 48  1  0
M  END
>  <smiles>  (5) 
O=C(NCC(=O)N1CCC[C@H]1c1ccc(Cl)cc1)c1ccc2ccc(F)cc2n1

>  <score_type>  (5) 
oracle

>  <origin>  (5) 
autodockgpu

>  <m_score__min__energy>  (5) 
-8.5299999999999994

>  <m_primary>  (5) 
energy

>  <rmsd>  (5) 
2.4037941954552267

>  <m_score__min__rmsd>  (5) 
2.4037941954552267

>  <meeko>  (5) 
{"free_energy": -7.65, "intermolecular_energy": -9.14, "internal_energy": -1.76, "cluster_size": 16, "cluster_id": 1, "rank_in_cluster": 15}

>  <energy>  (5) 
-8.41

>  <cluster_rmsd>  (5) 
0.22

>  <cluster>  (5) 
1

$$$$

     RDKit          3D

 48 51  0  0  0  0  0  0  0  0999 V2000
  139.0700   70.9250  221.0090 O   0  0  0  0  0  0  0  0  0  0  0  0
  139.0110   71.5550  222.0980 C   0  0  0  0  0  0  0  0  0  0  0  0
  138.5840   72.9430  222.0310 N   0  0  0  0  0  0  0  0  0  0  0  0
  138.2790   73.4410  220.7420 C   0  0  0  0  0  0  0  0  0  0  0  0
  139.0000   74.5630  220.1890 C   0  0  0  0  0  0  0  0  0  0  0  0
  139.2800   74.4410  218.9190 O   0  0  0  0  0  0  0  0  0  0  0  0
  139.4430   75.7640  220.8090 N   0  0  0  0  0  0  0  0  0  0  0  0
  138.6560   76.9210  221.2330 C   0  0  0  0  0  0  0  0  0  0  0  0
  139.6160   77.6390  222.2010 C   0  0  0  0  0  0  0  0  0  0  0  0
  140.6850   76.5620  222.5030 C   0  0  0  0  0  0  0  0  0  0  0  0
  140.8320   76.0610  221.0970 C   0  0  1  0  0  0  0  0  0  0  0  0
  141.8970   75.2190  220.7500 C   0  0  0  0  0  0  0  0  0  0  0  0
  141.8970   73.8680  221.1340 C   0  0  0  0  0  0  0  0  0  0  0  0
  142.9470   73.0270  220.8370 C   0  0  0  0  0  0  0  0  0  0  0  0
  144.0510   73.4780  220.1450 C   0  0  0  0  0  0  0  0  0  0  0  0
  145.3970   72.4450  219.7500 Cl  0  0  0  0  0  0  0  0  0  0  0  0
  144.0600   74.8020  219.7640 C   0  0  0  0  0  0  0  0  0  0  0  0
  143.0130   75.6390  220.0600 C   0  0  0  0  0  0  0  0  0  0  0  0
  139.3440   70.9620  223.3850 C   0  0  0  0  0  0  0  0  0  0  0  0
  139.0400   69.6270  223.5550 C   0  0  0  0  0  0  0  0  0  0  0  0
  139.3380   69.0080  224.7690 C   0  0  0  0  0  0  0  0  0  0  0  0
  139.9360   69.7540  225.7830 C   0  0  0  0  0  0  0  0  0  0  0  0
  140.2110   69.1140  226.9540 C   0  0  0  0  0  0  0  0  0  0  0  0
  140.8090   69.8480  227.9780 C   0  0  0  0  0  0  0  0  0  0  0  0
  141.0930   71.1810  227.7570 C   0  0  0  0  0  0  0  0  0  0  0  0
  141.6740   71.8890  228.7540 F   0  0  0  0  0  0  0  0  0  0  0  0
  140.8050   71.8000  226.5670 C   0  0  0  0  0  0  0  0  0  0  0  0
  140.2070   71.0820  225.5330 C   0  0  0  0  0  0  0  0  0  0  0  0
  139.9240   71.6880  224.3650 N   0  0  0  0  0  0  0  0  0  0  0  0
  138.5340   73.4080  222.9490 H   0  0  0  0  0  0  0  0  0  0  0  0
  138.4185   72.6039  220.0422 H   0  0  0  0  0  0  0  0  0  0  0  0
  137.2645   73.8457  220.8726 H   0  0  0  0  0  0  0  0  0  0  0  0
  138.4001   77.5632  220.3773 H   0  0  0  0  0  0  0  0  0  0  0  0
  137.6918   76.6527  221.6894 H   0  0  0  0  0  0  0  0  0  0  0  0
  140.0687   78.5215  221.7253 H   0  0  0  0  0  0  0  0  0  0  0  0
  139.1151   78.0149  223.1053 H   0  0  0  0  0  0  0  0  0  0  0  0
  141.6175   76.9920  222.8974 H   0  0  0  0  0  0  0  0  0  0  0  0
  140.4324   75.8155  223.2705 H   0  0  0  0  0  0  0  0  0  0  0  0
  141.2710   76.7597  220.3696 H   0  0  0  0  0  0  0  0  0  0  0  0
  141.0339   73.4700  221.6878 H   0  0  0  0  0  0  0  0  0  0  0  0
  142.9038   71.9758  221.1580 H   0  0  0  0  0  0  0  0  0  0  0  0
  144.9248   75.1969  219.2107 H   0  0  0  0  0  0  0  0  0  0  0  0
  143.0673   76.6878  219.7329 H   0  0  0  0  0  0  0  0  0  0  0  0
  138.5675   69.0567  222.7416 H   0  0  0  0  0  0  0  0  0  0  0  0
  139.1039   67.9444  224.9241 H   0  0  0  0  0  0  0  0  0  0  0  0
  139.9684   68.0495  227.0878 H   0  0  0  0  0  0  0  0  0  0  0  0
  141.0494   69.3749  228.9415 H   0  0  0  0  0  0  0  0  0  0  0  0
  141.0463   72.8643  226.4288 H   0  0  0  0  0  0  0  0  0  0  0  0
  1  2  2  0
  2  3  1  0
  3  4  1  0
  4  5  1  0
  5  6  2  0
  5  7  1  0
  7  8  1  0
  8  9  1  0
  9 10  1  0
 10 11  1  0
 11 12  1  0
 12 13  2  0
 13 14  1  0
 14 15  2  0
 15 16  1  0
 15 17  1  0
 17 18  2  0
  2 19  1  0
 19 20  2  0
 20 21  1  0
 21 22  2  0
 22 23  1  0
 23 24  2  0
 24 25  1  0
 25 26  1  0
 25 27  2  0
 27 28  1  0
 28 29  2  0
 11  7  1  0
 18 12  1  0
 29 19  1  0
 28 22  1  0
  3 30  1  0
  4 31  1  0
  4 32  1  0
  8 33  1  0
  8 34  1  0
  9 35  1  0
  9 36  1  0
 10 37  1  0
 10 38  1  0
 11 39  1  6
 13 40  1  0
 14 41  1  0
 17 42  1  0
 18 43  1  0
 20 44  1  0
 21 45  1  0
 23 46  1  0
 24 47  1  0
 27 48  1  0
M  END
>  <smiles>  (6) 
O=C(NCC(=O)N1CCC[C@H]1c1ccc(Cl)cc1)c1ccc2ccc(F)cc2n1

>  <score_type>  (6) 
oracle

>  <origin>  (6) 
autodockgpu

>  <m_score__min__energy>  (6) 
-8.5299999999999994

>  <m_primary>  (6) 
energy

>  <rmsd>  (6) 
2.4004410339672697

>  <m_score__min__rmsd>  (6) 
2.4004410339672697

>  <meeko>  (6) 
{"free_energy": -7.72, "intermolecular_energy": -9.21, "internal_energy": -1.77, "cluster_size": 4, "cluster_id": 5, "rank_in_cluster": 3}

>  <energy>  (6) 
-8.37

>  <cluster_rmsd>  (6) 
0.2

>  <cluster>  (6) 
1

$$$$

     RDKit          3D

 48 51  0  0  0  0  0  0  0  0999 V2000
  139.5050   71.0060  221.0830 O   0  0  0  0  0  0  0  0  0  0  0  0
  140.1880   71.4660  222.0360 C   0  0  0  0  0  0  0  0  0  0  0  0
  141.1430   72.5140  221.7140 N   0  0  0  0  0  0  0  0  0  0  0  0
  141.2030   72.9080  220.3570 C   0  0  0  0  0  0  0  0  0  0  0  0
  142.4290   72.7880  219.6020 C   0  0  0  0  0  0  0  0  0  0  0  0
  142.3040   72.1160  218.4890 O   0  0  0  0  0  0  0  0  0  0  0  0
  143.7300   73.2860  219.8820 N   0  0  0  0  0  0  0  0  0  0  0  0
  144.1560   74.6670  220.1060 C   0  0  0  0  0  0  0  0  0  0  0  0
  145.5270   74.4880  220.7830 C   0  0  0  0  0  0  0  0  0  0  0  0
  145.5180   73.0020  221.2150 C   0  0  0  0  0  0  0  0  0  0  0  0
  144.9160   72.4570  219.9540 C   0  0  1  0  0  0  0  0  0  0  0  0
  144.9180   71.0780  219.7040 C   0  0  0  0  0  0  0  0  0  0  0  0
  145.9610   70.4820  218.9770 C   0  0  0  0  0  0  0  0  0  0  0  0
  145.9690   69.1360  218.6860 C   0  0  0  0  0  0  0  0  0  0  0  0
  144.9470   68.3080  219.1000 C   0  0  0  0  0  0  0  0  0  0  0  0
  144.9220   66.6010  218.7530 Cl  0  0  0  0  0  0  0  0  0  0  0  0
  143.9180   68.8830  219.8140 C   0  0  0  0  0  0  0  0  0  0  0  0
  143.9120   70.2250  220.1030 C   0  0  0  0  0  0  0  0  0  0  0  0
  140.0600   71.0000  223.4100 C   0  0  0  0  0  0  0  0  0  0  0  0
  139.2500   69.9050  223.6250 C   0  0  0  0  0  0  0  0  0  0  0  0
  139.0920   69.4160  224.9220 C   0  0  0  0  0  0  0  0  0  0  0  0
  139.7580   70.0480  225.9710 C   0  0  0  0  0  0  0  0  0  0  0  0
  139.5770   69.5420  227.2230 C   0  0  0  0  0  0  0  0  0  0  0  0
  140.2370   70.1650  228.2830 C   0  0  0  0  0  0  0  0  0  0  0  0
  141.0370   71.2580  228.0150 C   0  0  0  0  0  0  0  0  0  0  0  0
  141.6750   71.8570  229.0470 F   0  0  0  0  0  0  0  0  0  0  0  0
  141.2000   71.7460  226.7430 C   0  0  0  0  0  0  0  0  0  0  0  0
  140.5480   71.1370  225.6710 C   0  0  0  0  0  0  0  0  0  0  0  0
  140.7070   71.6160  224.4230 N   0  0  0  0  0  0  0  0  0  0  0  0
  141.6620   72.8680  222.5300 H   0  0  0  0  0  0  0  0  0  0  0  0
  140.4477   72.3116  219.8242 H   0  0  0  0  0  0  0  0  0  0  0  0
  141.0590   73.9970  220.4141 H   0  0  0  0  0  0  0  0  0  0  0  0
  144.2503   75.2129  219.1557 H   0  0  0  0  0  0  0  0  0  0  0  0
  143.4443   75.2533  220.7058 H   0  0  0  0  0  0  0  0  0  0  0  0
  146.3452   74.6880  220.0755 H   0  0  0  0  0  0  0  0  0  0  0  0
  145.6864   75.1800  221.6231 H   0  0  0  0  0  0  0  0  0  0  0  0
  146.5288   72.6111  221.4034 H   0  0  0  0  0  0  0  0  0  0  0  0
  144.9994   72.7627  222.1551 H   0  0  0  0  0  0  0  0  0  0  0  0
  145.5324   72.5287  219.0458 H   0  0  0  0  0  0  0  0  0  0  0  0
  146.7959   71.1084  218.6298 H   0  0  0  0  0  0  0  0  0  0  0  0
  146.8068   68.7132  218.1122 H   0  0  0  0  0  0  0  0  0  0  0  0
  143.0845   68.2538  220.1594 H   0  0  0  0  0  0  0  0  0  0  0  0
  143.0688   70.6366  220.6771 H   0  0  0  0  0  0  0  0  0  0  0  0
  138.7336   69.4219  222.7824 H   0  0  0  0  0  0  0  0  0  0  0  0
  138.4505   68.5434  225.1144 H   0  0  0  0  0  0  0  0  0  0  0  0
  138.9301   68.6687  227.3931 H   0  0  0  0  0  0  0  0  0  0  0  0
  140.1222   69.7927  229.3117 H   0  0  0  0  0  0  0  0  0  0  0  0
  141.8460   72.6190  226.5684 H   0  0  0  0  0  0  0  0  0  0  0  0
  1  2  2  0
  2  3  1  0
  3  4  1  0
  4  5  1  0
  5  6  2  0
  5  7  1  0
  7  8  1  0
  8  9  1  0
  9 10  1  0
 10 11  1  0
 11 12  1  0
 12 13  2  0
 13 14  1  0
 14 15  2  0
 15 16  1  0
 15 17  1  0
 17 18  2  0
  2 19  1  0
 19 20  2  0
 20 21  1  0
 21 22  2  0
 22 23  1  0
 23 24  2  0
 24 25  1  0
 25 26  1  0
 25 27  2  0
 27 28  1  0
 28 29  2  0
 11  7  1  0
 18 12  1  0
 29 19  1  0
 28 22  1  0
  3 30  1  0
  4 31  1  0
  4 32  1  0
  8 33  1  0
  8 34  1  0
  9 35  1  0
  9 36  1  0
 10 37  1  0
 10 38  1  0
 11 39  1  6
 13 40  1  0
 14 41  1  0
 17 42  1  0
 18 43  1  0
 20 44  1  0
 21 45  1  0
 23 46  1  0
 24 47  1  0
 27 48  1  0
M  END
>  <smiles>  (7) 
O=C(NCC(=O)N1CCC[C@H]1c1ccc(Cl)cc1)c1ccc2ccc(F)cc2n1

>  <score_type>  (7) 
oracle

>  <origin>  (7) 
autodockgpu

>  <m_score__min__energy>  (7) 
-8.5299999999999994

>  <m_primary>  (7) 
energy

>  <rmsd>  (7) 
4.123940219623379

>  <m_score__min__rmsd>  (7) 
4.123940219623379

>  <meeko>  (7) 
{"free_energy": -7.71, "intermolecular_energy": -9.2, "internal_energy": -1.58, "cluster_size": 2, "cluster_id": 6, "rank_in_cluster": 1}

>  <energy>  (7) 
-7.88

>  <cluster_rmsd>  (7) 
1.62

>  <cluster>  (7) 
1

$$$$

     RDKit          3D

 48 51  0  0  0  0  0  0  0  0999 V2000
  139.2570   71.0840  221.2330 O   0  0  0  0  0  0  0  0  0  0  0  0
  139.3810   71.7380  222.3030 C   0  0  0  0  0  0  0  0  0  0  0  0
  139.2630   73.1840  222.2070 N   0  0  0  0  0  0  0  0  0  0  0  0
  139.0190   73.7050  220.9140 C   0  0  0  0  0  0  0  0  0  0  0  0
  140.0900   73.8410  219.9530 C   0  0  0  0  0  0  0  0  0  0  0  0
  139.6840   74.0800  218.7350 O   0  0  0  0  0  0  0  0  0  0  0  0
  141.4980   73.7570  220.1320 N   0  0  0  0  0  0  0  0  0  0  0  0
  142.3730   72.5950  219.9830 C   0  0  0  0  0  0  0  0  0  0  0  0
  143.7660   73.2410  219.8660 C   0  0  0  0  0  0  0  0  0  0  0  0
  143.4450   74.7240  219.5630 C   0  0  0  0  0  0  0  0  0  0  0  0
  142.3280   74.8670  220.5540 C   0  0  1  0  0  0  0  0  0  0  0  0
  141.8260   76.1330  220.8820 C   0  0  0  0  0  0  0  0  0  0  0  0
  141.0160   76.3120  222.0150 C   0  0  0  0  0  0  0  0  0  0  0  0
  140.4800   77.5390  222.3400 C   0  0  0  0  0  0  0  0  0  0  0  0
  140.7180   78.6520  221.5630 C   0  0  0  0  0  0  0  0  0  0  0  0
  140.0590   80.2200  221.9420 Cl  0  0  0  0  0  0  0  0  0  0  0  0
  141.5120   78.4870  220.4490 C   0  0  0  0  0  0  0  0  0  0  0  0
  142.0450   77.2640  220.1260 C   0  0  0  0  0  0  0  0  0  0  0  0
  139.6320   71.1170  223.5960 C   0  0  0  0  0  0  0  0  0  0  0  0
  139.2390   69.8040  223.7450 C   0  0  0  0  0  0  0  0  0  0  0  0
  139.4550   69.1600  224.9630 C   0  0  0  0  0  0  0  0  0  0  0  0
  140.0630   69.8600  226.0030 C   0  0  0  0  0  0  0  0  0  0  0  0
  140.2560   69.1970  227.1770 C   0  0  0  0  0  0  0  0  0  0  0  0
  140.8640   69.8870  228.2270 C   0  0  0  0  0  0  0  0  0  0  0  0
  141.2390   71.2000  228.0270 C   0  0  0  0  0  0  0  0  0  0  0  0
  141.8280   71.8640  229.0500 F   0  0  0  0  0  0  0  0  0  0  0  0
  141.0310   71.8430  226.8330 C   0  0  0  0  0  0  0  0  0  0  0  0
  140.4250   71.1700  225.7730 C   0  0  0  0  0  0  0  0  0  0  0  0
  140.2210   71.8000  224.6010 N   0  0  0  0  0  0  0  0  0  0  0  0
  139.3540   73.6700  223.1100 H   0  0  0  0  0  0  0  0  0  0  0  0
  138.2641   73.0525  220.4510 H   0  0  0  0  0  0  0  0  0  0  0  0
  138.7453   74.7500  221.1214 H   0  0  0  0  0  0  0  0  0  0  0  0
  142.3126   71.9364  220.8619 H   0  0  0  0  0  0  0  0  0  0  0  0
  142.1121   71.9560  219.1265 H   0  0  0  0  0  0  0  0  0  0  0  0
  144.3262   73.1433  220.8076 H   0  0  0  0  0  0  0  0  0  0  0  0
  144.3959   72.7706  219.0966 H   0  0  0  0  0  0  0  0  0  0  0  0
  144.2911   75.3922  219.7813 H   0  0  0  0  0  0  0  0  0  0  0  0
  143.2151   74.9774  218.5176 H   0  0  0  0  0  0  0  0  0  0  0  0
  142.6043   74.8044  221.6169 H   0  0  0  0  0  0  0  0  0  0  0  0
  140.8033   75.4479  222.6616 H   0  0  0  0  0  0  0  0  0  0  0  0
  139.8500   77.6320  223.2369 H   0  0  0  0  0  0  0  0  0  0  0  0
  141.7231   79.3535  219.8051 H   0  0  0  0  0  0  0  0  0  0  0  0
  142.6729   77.1835  219.2264 H   0  0  0  0  0  0  0  0  0  0  0  0
  138.7598   69.2696  222.9114 H   0  0  0  0  0  0  0  0  0  0  0  0
  139.1492   68.1124  225.1009 H   0  0  0  0  0  0  0  0  0  0  0  0
  139.9421   68.1493  227.2942 H   0  0  0  0  0  0  0  0  0  0  0  0
  141.0407   69.3942  229.1944 H   0  0  0  0  0  0  0  0  0  0  0  0
  141.3428   72.8909  226.7119 H   0  0  0  0  0  0  0  0  0  0  0  0
  1  2  2  0
  2  3  1  0
  3  4  1  0
  4  5  1  0
  5  6  2  0
  5  7  1  0
  7  8  1  0
  8  9  1  0
  9 10  1  0
 10 11  1  0
 11 12  1  0
 12 13  2  0
 13 14  1  0
 14 15  2  0
 15 16  1  0
 15 17  1  0
 17 18  2  0
  2 19  1  0
 19 20  2  0
 20 21  1  0
 21 22  2  0
 22 23  1  0
 23 24  2  0
 24 25  1  0
 25 26  1  0
 25 27  2  0
 27 28  1  0
 28 29  2  0
 11  7  1  0
 18 12  1  0
 29 19  1  0
 28 22  1  0
  3 30  1  0
  4 31  1  0
  4 32  1  0
  8 33  1  0
  8 34  1  0
  9 35  1  0
  9 36  1  0
 10 37  1  0
 10 38  1  0
 11 39  1  1
 13 40  1  0
 14 41  1  0
 17 42  1  0
 18 43  1  0
 20 44  1  0
 21 45  1  0
 23 46  1  0
 24 47  1  0
 27 48  1  0
M  END
>  <smiles>  (8) 
O=C(NCC(=O)N1CCC[C@H]1c1ccc(Cl)cc1)c1ccc2ccc(F)cc2n1

>  <score_type>  (8) 
oracle

>  <origin>  (8) 
autodockgpu

>  <m_score__min__energy>  (8) 
-8.5299999999999994

>  <m_primary>  (8) 
energy

>  <rmsd>  (8) 
2.5467941088344004

>  <m_score__min__rmsd>  (8) 
2.5467941088344004

>  <meeko>  (8) 
{"free_energy": -7.62, "intermolecular_energy": -9.11, "internal_energy": -1.79, "cluster_size": 16, "cluster_id": 1, "rank_in_cluster": 16}

>  <energy>  (8) 
-7.82

>  <cluster_rmsd>  (8) 
1.58

>  <cluster>  (8) 
1

$$$$

     RDKit          3D

 48 51  0  0  0  0  0  0  0  0999 V2000
  136.8360   77.0080  222.4350 O   0  0  0  0  0  0  0  0  0  0  0  0
  136.7780   75.8280  222.8720 C   0  0  0  0  0  0  0  0  0  0  0  0
  137.7510   74.8840  222.3460 N   0  0  0  0  0  0  0  0  0  0  0  0
  138.6650   75.3960  221.3940 C   0  0  0  0  0  0  0  0  0  0  0  0
  140.0820   75.1420  221.5140 C   0  0  0  0  0  0  0  0  0  0  0  0
  140.3770   74.1190  222.2700 O   0  0  0  0  0  0  0  0  0  0  0  0
  141.1870   75.8270  220.9400 N   0  0  0  0  0  0  0  0  0  0  0  0
  142.2740   75.2910  220.1220 C   0  0  0  0  0  0  0  0  0  0  0  0
  142.8550   76.5590  219.4680 C   0  0  0  0  0  0  0  0  0  0  0  0
  141.7490   77.6160  219.7010 C   0  0  0  0  0  0  0  0  0  0  0  0
  141.4450   77.2420  221.1210 C   0  0  1  0  0  0  0  0  0  0  0  0
  140.6600   78.0800  221.9250 C   0  0  0  0  0  0  0  0  0  0  0  0
  139.4120   78.5400  221.4760 C   0  0  0  0  0  0  0  0  0  0  0  0
  138.6370   79.3930  222.2300 C   0  0  0  0  0  0  0  0  0  0  0  0
  139.0550   79.8340  223.4680 C   0  0  0  0  0  0  0  0  0  0  0  0
  138.1030   80.9120  224.4520 Cl  0  0  0  0  0  0  0  0  0  0  0  0
  140.2790   79.3880  223.9180 C   0  0  0  0  0  0  0  0  0  0  0  0
  141.0500   78.5380  223.1640 C   0  0  0  0  0  0  0  0  0  0  0  0
  135.8000   75.3870  223.8570 C   0  0  0  0  0  0  0  0  0  0  0  0
  135.0640   76.3660  224.4890 C   0  0  0  0  0  0  0  0  0  0  0  0
  134.1130   75.9990  225.4410 C   0  0  0  0  0  0  0  0  0  0  0  0
  133.9300   74.6480  225.7320 C   0  0  0  0  0  0  0  0  0  0  0  0
  132.9930   74.3300  226.6680 C   0  0  0  0  0  0  0  0  0  0  0  0
  132.7980   72.9810  226.9690 C   0  0  0  0  0  0  0  0  0  0  0  0
  133.5610   72.0390  226.3080 C   0  0  0  0  0  0  0  0  0  0  0  0
  133.3680   70.7330  226.6040 F   0  0  0  0  0  0  0  0  0  0  0  0
  134.4990   72.3890  225.3690 C   0  0  0  0  0  0  0  0  0  0  0  0
  134.7070   73.7320  225.0560 C   0  0  0  0  0  0  0  0  0  0  0  0
  135.6260   74.0770  224.1350 N   0  0  0  0  0  0  0  0  0  0  0  0
  137.6730   73.9400  222.7480 H   0  0  0  0  0  0  0  0  0  0  0  0
  138.3567   74.9954  220.4170 H   0  0  0  0  0  0  0  0  0  0  0  0
  138.5987   76.4823  221.5537 H   0  0  0  0  0  0  0  0  0  0  0  0
  143.0265   74.7838  220.7436 H   0  0  0  0  0  0  0  0  0  0  0  0
  141.9439   74.5344  219.3950 H   0  0  0  0  0  0  0  0  0  0  0  0
  143.7952   76.8582  219.9543 H   0  0  0  0  0  0  0  0  0  0  0  0
  143.1028   76.4212  218.4052 H   0  0  0  0  0  0  0  0  0  0  0  0
  142.1232   78.6461  219.6068 H   0  0  0  0  0  0  0  0  0  0  0  0
  140.9043   77.6120  218.9964 H   0  0  0  0  0  0  0  0  0  0  0  0
  142.2380   77.4329  221.8591 H   0  0  0  0  0  0  0  0  0  0  0  0
  139.0426   78.2097  220.4939 H   0  0  0  0  0  0  0  0  0  0  0  0
  137.6660   79.7290  221.8372 H   0  0  0  0  0  0  0  0  0  0  0  0
  140.6455   79.7196  224.9007 H   0  0  0  0  0  0  0  0  0  0  0  0
  142.0195   78.2091  223.5663 H   0  0  0  0  0  0  0  0  0  0  0  0
  135.2250   77.4264  224.2450 H   0  0  0  0  0  0  0  0  0  0  0  0
  133.5151   76.7657  225.9555 H   0  0  0  0  0  0  0  0  0  0  0  0
  132.4073   75.1130  227.1718 H   0  0  0  0  0  0  0  0  0  0  0  0
  132.0520   72.6748  227.7172 H   0  0  0  0  0  0  0  0  0  0  0  0
  135.0872   71.6094  224.8629 H   0  0  0  0  0  0  0  0  0  0  0  0
  1  2  2  0
  2  3  1  0
  3  4  1  0
  4  5  1  0
  5  6  2  0
  5  7  1  0
  7  8  1  0
  8  9  1  0
  9 10  1  0
 10 11  1  0
 11 12  1  0
 12 13  2  0
 13 14  1  0
 14 15  2  0
 15 16  1  0
 15 17  1  0
 17 18  2  0
  2 19  1  0
 19 20  2  0
 20 21  1  0
 21 22  2  0
 22 23  1  0
 23 24  2  0
 24 25  1  0
 25 26  1  0
 25 27  2  0
 27 28  1  0
 28 29  2  0
 11  7  1  0
 18 12  1  0
 29 19  1  0
 28 22  1  0
  3 30  1  0
  4 31  1  0
  4 32  1  0
  8 33  1  0
  8 34  1  0
  9 35  1  0
  9 36  1  0
 10 37  1  0
 10 38  1  0
 11 39  1  1
 13 40  1  0
 14 41  1  0
 17 42  1  0
 18 43  1  0
 20 44  1  0
 21 45  1  0
 23 46  1  0
 24 47  1  0
 27 48  1  0
M  END
>  <smiles>  (9) 
O=C(NCC(=O)N1CCC[C@H]1c1ccc(Cl)cc1)c1ccc2ccc(F)cc2n1

>  <score_type>  (9) 
oracle

>  <origin>  (9) 
autodockgpu

>  <m_score__min__energy>  (9) 
-8.5299999999999994

>  <m_primary>  (9) 
energy

>  <rmsd>  (9) 
5.658460646837418

>  <m_score__min__rmsd>  (9) 
5.658460646837418

>  <meeko>  (9) 
{"free_energy": -7.35, "intermolecular_energy": -8.84, "internal_energy": -1.99, "cluster_size": 4, "cluster_id": 8, "rank_in_cluster": 3}

>  <energy>  (9) 
-7.82

>  <cluster_rmsd>  (9) 
1.71

>  <cluster>  (9) 
1

$$$$

     RDKit          3D

 48 51  0  0  0  0  0  0  0  0999 V2000
  133.7460   70.0820  226.7780 O   0  0  0  0  0  0  0  0  0  0  0  0
  134.0150   71.2080  226.2800 C   0  0  0  0  0  0  0  0  0  0  0  0
  135.0480   71.2430  225.2570 N   0  0  0  0  0  0  0  0  0  0  0  0
  135.6430   70.0020  224.9280 C   0  0  0  0  0  0  0  0  0  0  0  0
  136.3420   69.8210  223.6760 C   0  0  0  0  0  0  0  0  0  0  0  0
  136.1870   70.8080  222.8340 O   0  0  0  0  0  0  0  0  0  0  0  0
  137.1600   68.7480  223.2300 N   0  0  0  0  0  0  0  0  0  0  0  0
  136.8390   67.6810  222.2830 C   0  0  0  0  0  0  0  0  0  0  0  0
  138.2320   67.1460  221.9010 C   0  0  0  0  0  0  0  0  0  0  0  0
  139.1870   68.2600  222.3900 C   0  0  0  0  0  0  0  0  0  0  0  0
  138.5090   68.5080  223.7040 C   0  0  1  0  0  0  0  0  0  0  0  0
  139.1350   69.2790  224.6930 C   0  0  0  0  0  0  0  0  0  0  0  0
  139.1670   68.8430  226.0280 C   0  0  0  0  0  0  0  0  0  0  0  0
  139.7450   69.5980  227.0250 C   0  0  0  0  0  0  0  0  0  0  0  0
  140.3200   70.8210  226.7550 C   0  0  0  0  0  0  0  0  0  0  0  0
  141.0610   71.8040  227.9890 Cl  0  0  0  0  0  0  0  0  0  0  0  0
  140.2940   71.2570  225.4480 C   0  0  0  0  0  0  0  0  0  0  0  0
  139.7180   70.5040  224.4550 C   0  0  0  0  0  0  0  0  0  0  0  0
  133.3500   72.4400  226.6780 C   0  0  0  0  0  0  0  0  0  0  0  0
  132.1290   72.3140  227.3080 C   0  0  0  0  0  0  0  0  0  0  0  0
  131.4480   73.4620  227.7120 C   0  0  0  0  0  0  0  0  0  0  0  0
  132.0170   74.7110  227.4690 C   0  0  0  0  0  0  0  0  0  0  0  0
  131.3210   75.8080  227.8770 C   0  0  0  0  0  0  0  0  0  0  0  0
  131.8790   77.0650  227.6390 C   0  0  0  0  0  0  0  0  0  0  0  0
  133.1030   77.1360  227.0050 C   0  0  0  0  0  0  0  0  0  0  0  0
  133.6400   78.3580  226.7780 F   0  0  0  0  0  0  0  0  0  0  0  0
  133.7820   76.0130  226.6040 C   0  0  0  0  0  0  0  0  0  0  0  0
  133.2400   74.7500  226.8330 C   0  0  0  0  0  0  0  0  0  0  0  0
  133.9050   73.6470  226.4400 N   0  0  0  0  0  0  0  0  0  0  0  0
  135.2180   72.1820  224.8690 H   0  0  0  0  0  0  0  0  0  0  0  0
  136.3676   69.7812  225.7256 H   0  0  0  0  0  0  0  0  0  0  0  0
  134.7730   69.3379  224.8179 H   0  0  0  0  0  0  0  0  0  0  0  0
  136.2287   66.8984  222.7575 H   0  0  0  0  0  0  0  0  0  0  0  0
  136.2482   68.0227  221.4203 H   0  0  0  0  0  0  0  0  0  0  0  0
  138.4423   66.1945  222.4113 H   0  0  0  0  0  0  0  0  0  0  0  0
  138.3320   66.9342  220.8262 H   0  0  0  0  0  0  0  0  0  0  0  0
  140.2218   67.9065  222.5092 H   0  0  0  0  0  0  0  0  0  0  0  0
  139.3148   69.1286  221.7272 H   0  0  0  0  0  0  0  0  0  0  0  0
  138.5558   67.6930  224.4413 H   0  0  0  0  0  0  0  0  0  0  0  0
  138.7182   67.8720  226.2844 H   0  0  0  0  0  0  0  0  0  0  0  0
  139.7476   69.2171  228.0569 H   0  0  0  0  0  0  0  0  0  0  0  0
  140.7440   72.2284  225.1951 H   0  0  0  0  0  0  0  0  0  0  0  0
  139.7223   70.8951  223.4269 H   0  0  0  0  0  0  0  0  0  0  0  0
  131.6973   71.3187  227.4897 H   0  0  0  0  0  0  0  0  0  0  0  0
  130.4736   73.3828  228.2163 H   0  0  0  0  0  0  0  0  0  0  0  0
  130.3477   75.7065  228.3793 H   0  0  0  0  0  0  0  0  0  0  0  0
  131.3541   77.9802  227.9503 H   0  0  0  0  0  0  0  0  0  0  0  0
  134.7555   76.1100  226.1011 H   0  0  0  0  0  0  0  0  0  0  0  0
  1  2  2  0
  2  3  1  0
  3  4  1  0
  4  5  1  0
  5  6  2  0
  5  7  1  0
  7  8  1  0
  8  9  1  0
  9 10  1  0
 10 11  1  0
 11 12  1  0
 12 13  2  0
 13 14  1  0
 14 15  2  0
 15 16  1  0
 15 17  1  0
 17 18  2  0
  2 19  1  0
 19 20  2  0
 20 21  1  0
 21 22  2  0
 22 23  1  0
 23 24  2  0
 24 25  1  0
 25 26  1  0
 25 27  2  0
 27 28  1  0
 28 29  2  0
 11  7  1  0
 18 12  1  0
 29 19  1  0
 28 22  1  0
  3 30  1  0
  4 31  1  0
  4 32  1  0
  8 33  1  0
  8 34  1  0
  9 35  1  0
  9 36  1  0
 10 37  1  0
 10 38  1  0
 11 39  1  1
 13 40  1  0
 14 41  1  0
 17 42  1  0
 18 43  1  0
 20 44  1  0
 21 45  1  0
 23 46  1  0
 24 47  1  0
 27 48  1  0
M  END
>  <smiles>  (10) 
O=C(NCC(=O)N1CCC[C@H]1c1ccc(Cl)cc1)c1ccc2ccc(F)cc2n1

>  <score_type>  (10) 
oracle

>  <origin>  (10) 
autodockgpu

>  <m_score__min__energy>  (10) 
-8.5299999999999994

>  <m_primary>  (10) 
energy

>  <rmsd>  (10) 
8.794602719626935

>  <m_score__min__rmsd>  (10) 
8.794602719626935

>  <meeko>  (10) 
{"free_energy": -8.0, "intermolecular_energy": -9.49, "internal_energy": -1.68, "cluster_size": 5, "cluster_id": 3, "rank_in_cluster": 3}

>  <energy>  (10) 
-7.75

>  <cluster_rmsd>  (10) 
1.71

>  <cluster>  (10) 
1

$$$$

     RDKit          3D

 48 51  0  0  0  0  0  0  0  0999 V2000
  139.9050   70.8180  220.9140 O   0  0  0  0  0  0  0  0  0  0  0  0
  140.3550   71.4520  221.9060 C   0  0  0  0  0  0  0  0  0  0  0  0
  141.0810   72.6810  221.6250 N   0  0  0  0  0  0  0  0  0  0  0  0
  141.2040   73.0350  220.2610 C   0  0  0  0  0  0  0  0  0  0  0  0
  142.4510   72.8520  219.5550 C   0  0  0  0  0  0  0  0  0  0  0  0
  142.3470   72.1320  218.4710 O   0  0  0  0  0  0  0  0  0  0  0  0
  143.7540   73.3330  219.8580 N   0  0  0  0  0  0  0  0  0  0  0  0
  144.1910   74.7070  220.1030 C   0  0  0  0  0  0  0  0  0  0  0  0
  145.5530   74.5040  220.7940 C   0  0  0  0  0  0  0  0  0  0  0  0
  145.5220   73.0140  221.2090 C   0  0  0  0  0  0  0  0  0  0  0  0
  144.9300   72.4900  219.9340 C   0  0  1  0  0  0  0  0  0  0  0  0
  144.9200   71.1140  219.6680 C   0  0  0  0  0  0  0  0  0  0  0  0
  145.9530   70.5200  218.9260 C   0  0  0  0  0  0  0  0  0  0  0  0
  145.9500   69.1770  218.6200 C   0  0  0  0  0  0  0  0  0  0  0  0
  144.9250   68.3510  219.0320 C   0  0  0  0  0  0  0  0  0  0  0  0
  144.8850   66.6480  218.6660 Cl  0  0  0  0  0  0  0  0  0  0  0  0
  143.9060   68.9250  219.7620 C   0  0  0  0  0  0  0  0  0  0  0  0
  143.9110   70.2640  220.0660 C   0  0  0  0  0  0  0  0  0  0  0  0
  140.1810   71.0120  223.2830 C   0  0  0  0  0  0  0  0  0  0  0  0
  139.3260   69.9520  223.4960 C   0  0  0  0  0  0  0  0  0  0  0  0
  139.1230   69.4890  224.7970 C   0  0  0  0  0  0  0  0  0  0  0  0
  139.7900   70.1120  225.8510 C   0  0  0  0  0  0  0  0  0  0  0  0
  139.5640   69.6320  227.1060 C   0  0  0  0  0  0  0  0  0  0  0  0
  140.2250   70.2460  228.1710 C   0  0  0  0  0  0  0  0  0  0  0  0
  141.0700   71.3040  227.9040 C   0  0  0  0  0  0  0  0  0  0  0  0
  141.7080   71.8950  228.9410 F   0  0  0  0  0  0  0  0  0  0  0  0
  141.2780   71.7670  226.6280 C   0  0  0  0  0  0  0  0  0  0  0  0
  140.6260   71.1660  225.5520 C   0  0  0  0  0  0  0  0  0  0  0  0
  140.8290   71.6190  224.3010 N   0  0  0  0  0  0  0  0  0  0  0  0
  141.4120   73.1690  222.4690 H   0  0  0  0  0  0  0  0  0  0  0  0
  140.4476   72.4506  219.7167 H   0  0  0  0  0  0  0  0  0  0  0  0
  141.0972   74.1296  220.2843 H   0  0  0  0  0  0  0  0  0  0  0  0
  144.3021   75.2631  219.1604 H   0  0  0  0  0  0  0  0  0  0  0  0
  143.4785   75.2943  220.7009 H   0  0  0  0  0  0  0  0  0  0  0  0
  146.3815   74.7022  220.0981 H   0  0  0  0  0  0  0  0  0  0  0  0
  145.7107   75.1846  221.6436 H   0  0  0  0  0  0  0  0  0  0  0  0
  146.5259   72.6096  221.4058 H   0  0  0  0  0  0  0  0  0  0  0  0
  144.9889   72.7700  222.1397 H   0  0  0  0  0  0  0  0  0  0  0  0
  145.5582   72.5651  219.0341 H   0  0  0  0  0  0  0  0  0  0  0  0
  146.7890   71.1450  218.5789 H   0  0  0  0  0  0  0  0  0  0  0  0
  146.7811   68.7551  218.0358 H   0  0  0  0  0  0  0  0  0  0  0  0
  143.0717   68.2973  220.1081 H   0  0  0  0  0  0  0  0  0  0  0  0
  143.0752   70.6751  220.6513 H   0  0  0  0  0  0  0  0  0  0  0  0
  138.8092   69.4760  222.6496 H   0  0  0  0  0  0  0  0  0  0  0  0
  138.4457   68.6436  224.9882 H   0  0  0  0  0  0  0  0  0  0  0  0
  138.8813   68.7862  227.2748 H   0  0  0  0  0  0  0  0  0  0  0  0
  140.0755   69.8937  229.2023 H   0  0  0  0  0  0  0  0  0  0  0  0
  141.9596   72.6128  226.4546 H   0  0  0  0  0  0  0  0  0  0  0  0
  1  2  2  0
  2  3  1  0
  3  4  1  0
  4  5  1  0
  5  6  2  0
  5  7  1  0
  7  8  1  0
  8  9  1  0
  9 10  1  0
 10 11  1  0
 11 12  1  0
 12 13  2  0
 13 14  1  0
 14 15  2  0
 15 16  1  0
 15 17  1  0
 17 18  2  0
  2 19  1  0
 19 20  2  0
 20 21  1  0
 21 22  2  0
 22 23  1  0
 23 24  2  0
 24 25  1  0
 25 26  1  0
 25 27  2  0
 27 28  1  0
 28 29  2  0
 11  7  1  0
 18 12  1  0
 29 19  1  0
 28 22  1  0
  3 30  1  0
  4 31  1  0
  4 32  1  0
  8 33  1  0
  8 34  1  0
  9 35  1  0
  9 36  1  0
 10 37  1  0
 10 38  1  0
 11 39  1  6
 13 40  1  0
 14 41  1  0
 17 42  1  0
 18 43  1  0
 20 44  1  0
 21 45  1  0
 23 46  1  0
 24 47  1  0
 27 48  1  0
M  END
>  <smiles>  (11) 
O=C(NCC(=O)N1CCC[C@H]1c1ccc(Cl)cc1)c1ccc2ccc(F)cc2n1

>  <score_type>  (11) 
oracle

>  <origin>  (11) 
autodockgpu

>  <m_score__min__energy>  (11) 
-8.5299999999999994

>  <m_primary>  (11) 
energy

>  <rmsd>  (11) 
4.131900072422537

>  <m_score__min__rmsd>  (11) 
4.131900072422537

>  <meeko>  (11) 
{"free_energy": -7.64, "intermolecular_energy": -9.13, "internal_energy": -1.64, "cluster_size": 2, "cluster_id": 6, "rank_in_cluster": 2}

>  <energy>  (11) 
-7.73

>  <cluster_rmsd>  (11) 
1.85

>  <cluster>  (11) 
1

$$$$

     RDKit          3D

 48 51  0  0  0  0  0  0  0  0999 V2000
  137.1040   71.0710  221.4270 O   0  0  0  0  0  0  0  0  0  0  0  0
  137.5360   71.9180  222.2530 C   0  0  0  0  0  0  0  0  0  0  0  0
  136.9530   71.8930  223.5850 N   0  0  0  0  0  0  0  0  0  0  0  0
  135.9580   70.9130  223.8120 C   0  0  0  0  0  0  0  0  0  0  0  0
  136.3010   69.5130  223.9090 C   0  0  0  0  0  0  0  0  0  0  0  0
  135.6200   68.8600  224.8110 O   0  0  0  0  0  0  0  0  0  0  0  0
  137.2530   68.7510  223.1780 N   0  0  0  0  0  0  0  0  0  0  0  0
  137.0270   67.8090  222.0830 C   0  0  0  0  0  0  0  0  0  0  0  0
  138.4290   67.6850  221.4570 C   0  0  0  0  0  0  0  0  0  0  0  0
  139.1900   68.8970  222.0460 C   0  0  0  0  0  0  0  0  0  0  0  0
  138.6760   68.7590  223.4490 C   0  0  1  0  0  0  0  0  0  0  0  0
  139.2660   69.4820  224.4950 C   0  0  0  0  0  0  0  0  0  0  0  0
  139.1820   69.0230  225.8200 C   0  0  0  0  0  0  0  0  0  0  0  0
  139.7200   69.7320  226.8710 C   0  0  0  0  0  0  0  0  0  0  0  0
  140.3700   70.9310  226.6670 C   0  0  0  0  0  0  0  0  0  0  0  0
  141.0650   71.8550  227.9700 Cl  0  0  0  0  0  0  0  0  0  0  0  0
  140.4580   71.3890  225.3710 C   0  0  0  0  0  0  0  0  0  0  0  0
  139.9200   70.6820  224.3250 C   0  0  0  0  0  0  0  0  0  0  0  0
  138.5680   72.8940  221.9340 C   0  0  0  0  0  0  0  0  0  0  0  0
  139.7120   72.4180  221.3280 C   0  0  0  0  0  0  0  0  0  0  0  0
  140.7330   73.3100  221.0000 C   0  0  0  0  0  0  0  0  0  0  0  0
  140.5720   74.6640  221.2920 C   0  0  0  0  0  0  0  0  0  0  0  0
  141.5920   75.5020  220.9570 C   0  0  0  0  0  0  0  0  0  0  0  0
  141.4450   76.8600  221.2440 C   0  0  0  0  0  0  0  0  0  0  0  0
  140.2810   77.2860  221.8510 C   0  0  0  0  0  0  0  0  0  0  0  0
  140.1440   78.6040  222.1280 F   0  0  0  0  0  0  0  0  0  0  0  0
  139.2700   76.4170  222.1780 C   0  0  0  0  0  0  0  0  0  0  0  0
  139.3990   75.0580  221.8990 C   0  0  0  0  0  0  0  0  0  0  0  0
  138.4080   74.2050  222.2190 N   0  0  0  0  0  0  0  0  0  0  0  0
  137.3520   72.5920  224.2270 H   0  0  0  0  0  0  0  0  0  0  0  0
  135.4656   71.1807  224.7585 H   0  0  0  0  0  0  0  0  0  0  0  0
  135.3637   70.9529  222.8872 H   0  0  0  0  0  0  0  0  0  0  0  0
  136.6725   66.8384  222.4601 H   0  0  0  0  0  0  0  0  0  0  0  0
  136.2561   68.1397  221.3714 H   0  0  0  0  0  0  0  0  0  0  0  0
  138.9085   66.7390  221.7486 H   0  0  0  0  0  0  0  0  0  0  0  0
  138.4107   67.6812  220.3572 H   0  0  0  0  0  0  0  0  0  0  0  0
  140.2821   68.7813  221.9830 H   0  0  0  0  0  0  0  0  0  0  0  0
  139.0330   69.8680  221.5536 H   0  0  0  0  0  0  0  0  0  0  0  0
  139.0001   67.8673  224.0056 H   0  0  0  0  0  0  0  0  0  0  0  0
  138.6719   68.0700  226.0239 H   0  0  0  0  0  0  0  0  0  0  0  0
  139.6295   69.3343  227.8926 H   0  0  0  0  0  0  0  0  0  0  0  0
  140.9703   72.3415  225.1702 H   0  0  0  0  0  0  0  0  0  0  0  0
  140.0151   71.0909  223.3083 H   0  0  0  0  0  0  0  0  0  0  0  0
  139.8181   71.3459  221.1057 H   0  0  0  0  0  0  0  0  0  0  0  0
  141.6534   72.9499  220.5171 H   0  0  0  0  0  0  0  0  0  0  0  0
  142.5040   75.1202  220.4749 H   0  0  0  0  0  0  0  0  0  0  0  0
  142.2408   77.5762  220.9915 H   0  0  0  0  0  0  0  0  0  0  0  0
  138.3565   76.7941  222.6611 H   0  0  0  0  0  0  0  0  0  0  0  0
  1  2  2  0
  2  3  1  0
  3  4  1  0
  4  5  1  0
  5  6  2  0
  5  7  1  0
  7  8  1  0
  8  9  1  0
  9 10  1  0
 10 11  1  0
 11 12  1  0
 12 13  2  0
 13 14  1  0
 14 15  2  0
 15 16  1  0
 15 17  1  0
 17 18  2  0
  2 19  1  0
 19 20  2  0
 20 21  1  0
 21 22  2  0
 22 23  1  0
 23 24  2  0
 24 25  1  0
 25 26  1  0
 25 27  2  0
 27 28  1  0
 28 29  2  0
 11  7  1  0
 18 12  1  0
 29 19  1  0
 28 22  1  0
  3 30  1  0
  4 31  1  0
  4 32  1  0
  8 33  1  0
  8 34  1  0
  9 35  1  0
  9 36  1  0
 10 37  1  0
 10 38  1  0
 11 39  1  1
 13 40  1  0
 14 41  1  0
 17 42  1  0
 18 43  1  0
 20 44  1  0
 21 45  1  0
 23 46  1  0
 24 47  1  0
 27 48  1  0
M  END
>  <smiles>  (12) 
O=C(NCC(=O)N1CCC[C@H]1c1ccc(Cl)cc1)c1ccc2ccc(F)cc2n1

>  <score_type>  (12) 
oracle

>  <origin>  (12) 
autodockgpu

>  <m_score__min__energy>  (12) 
-8.5299999999999994

>  <m_primary>  (12) 
energy

>  <rmsd>  (12) 
7.2770283361594315

>  <m_score__min__rmsd>  (12) 
7.2770283361594315

>  <meeko>  (12) 
{"free_energy": -7.03, "intermolecular_energy": -8.52, "internal_energy": -2.39, "cluster_size": 4, "cluster_id": 9, "rank_in_cluster": 4}

>  <energy>  (12) 
-7.72

>  <cluster_rmsd>  (12) 
1.66

>  <cluster>  (12) 
1

$$$$

     RDKit          3D

 48 51  0  0  0  0  0  0  0  0999 V2000
  133.5240   70.0420  226.5790 O   0  0  0  0  0  0  0  0  0  0  0  0
  133.9040   71.1800  226.1960 C   0  0  0  0  0  0  0  0  0  0  0  0
  135.0340   71.2230  225.2820 N   0  0  0  0  0  0  0  0  0  0  0  0
  135.5890   69.9740  224.9170 C   0  0  0  0  0  0  0  0  0  0  0  0
  136.2750   69.8040  223.6570 C   0  0  0  0  0  0  0  0  0  0  0  0
  136.0630   70.7700  222.8030 O   0  0  0  0  0  0  0  0  0  0  0  0
  137.1340   68.7630  223.2140 N   0  0  0  0  0  0  0  0  0  0  0  0
  136.8660   67.7020  222.2440 C   0  0  0  0  0  0  0  0  0  0  0  0
  138.2810   67.2120  221.8860 C   0  0  0  0  0  0  0  0  0  0  0  0
  139.1930   68.3460  222.4130 C   0  0  0  0  0  0  0  0  0  0  0  0
  138.4780   68.5540  223.7150 C   0  0  1  0  0  0  0  0  0  0  0  0
  139.0590   69.3270  224.7290 C   0  0  0  0  0  0  0  0  0  0  0  0
  139.6420   70.5720  224.4380 C   0  0  0  0  0  0  0  0  0  0  0  0
  140.2510   71.3350  225.4090 C   0  0  0  0  0  0  0  0  0  0  0  0
  140.3160   70.9080  226.7180 C   0  0  0  0  0  0  0  0  0  0  0  0
  141.0770   71.8450  227.9750 Cl  0  0  0  0  0  0  0  0  0  0  0  0
  139.7480   69.6880  227.0140 C   0  0  0  0  0  0  0  0  0  0  0  0
  139.1410   68.9290  226.0450 C   0  0  0  0  0  0  0  0  0  0  0  0
  133.2710   72.4210  226.6230 C   0  0  0  0  0  0  0  0  0  0  0  0
  132.0760   72.3100  227.3010 C   0  0  0  0  0  0  0  0  0  0  0  0
  131.4260   73.4670  227.7330 C   0  0  0  0  0  0  0  0  0  0  0  0
  132.0030   74.7080  227.4690 C   0  0  0  0  0  0  0  0  0  0  0  0
  131.3380   75.8140  227.9060 C   0  0  0  0  0  0  0  0  0  0  0  0
  131.9030   77.0630  227.6480 C   0  0  0  0  0  0  0  0  0  0  0  0
  133.1020   77.1190  226.9660 C   0  0  0  0  0  0  0  0  0  0  0  0
  133.6450   78.3340  226.7190 F   0  0  0  0  0  0  0  0  0  0  0  0
  133.7490   75.9880  226.5370 C   0  0  0  0  0  0  0  0  0  0  0  0
  133.1990   74.7310  226.7850 C   0  0  0  0  0  0  0  0  0  0  0  0
  133.8330   73.6210  226.3640 N   0  0  0  0  0  0  0  0  0  0  0  0
  135.2930   72.1740  224.9850 H   0  0  0  0  0  0  0  0  0  0  0  0
  136.3109   69.7106  225.7041 H   0  0  0  0  0  0  0  0  0  0  0  0
  134.6984   69.3401  224.7948 H   0  0  0  0  0  0  0  0  0  0  0  0
  136.2677   66.8953  222.6925 H   0  0  0  0  0  0  0  0  0  0  0  0
  136.2860   68.0408  221.3729 H   0  0  0  0  0  0  0  0  0  0  0  0
  138.5069   66.2593  222.3873 H   0  0  0  0  0  0  0  0  0  0  0  0
  138.4110   67.0188  220.8109 H   0  0  0  0  0  0  0  0  0  0  0  0
  140.2347   68.0204  222.5507 H   0  0  0  0  0  0  0  0  0  0  0  0
  139.3109   69.2279  221.7662 H   0  0  0  0  0  0  0  0  0  0  0  0
  138.5311   67.7290  224.4406 H   0  0  0  0  0  0  0  0  0  0  0  0
  139.6109   70.9479  223.4047 H   0  0  0  0  0  0  0  0  0  0  0  0
  140.6941   72.3038  225.1349 H   0  0  0  0  0  0  0  0  0  0  0  0
  139.7818   69.3148  228.0482 H   0  0  0  0  0  0  0  0  0  0  0  0
  138.7015   67.9621  226.3314 H   0  0  0  0  0  0  0  0  0  0  0  0
  131.6394   71.3201  227.4994 H   0  0  0  0  0  0  0  0  0  0  0  0
  130.4709   73.4004  228.2747 H   0  0  0  0  0  0  0  0  0  0  0  0
  130.3840   75.7246  228.4462 H   0  0  0  0  0  0  0  0  0  0  0  0
  131.4033   77.9846  227.9812 H   0  0  0  0  0  0  0  0  0  0  0  0
  134.7033   76.0729  225.9965 H   0  0  0  0  0  0  0  0  0  0  0  0
  1  2  2  0
  2  3  1  0
  3  4  1  0
  4  5  1  0
  5  6  2  0
  5  7  1  0
  7  8  1  0
  8  9  1  0
  9 10  1  0
 10 11  1  0
 11 12  1  0
 12 13  2  0
 13 14  1  0
 14 15  2  0
 15 16  1  0
 15 17  1  0
 17 18  2  0
  2 19  1  0
 19 20  2  0
 20 21  1  0
 21 22  2  0
 22 23  1  0
 23 24  2  0
 24 25  1  0
 25 26  1  0
 25 27  2  0
 27 28  1  0
 28 29  2  0
 11  7  1  0
 18 12  1  0
 29 19  1  0
 28 22  1  0
  3 30  1  0
  4 31  1  0
  4 32  1  0
  8 33  1  0
  8 34  1  0
  9 35  1  0
  9 36  1  0
 10 37  1  0
 10 38  1  0
 11 39  1  1
 13 40  1  0
 14 41  1  0
 17 42  1  0
 18 43  1  0
 20 44  1  0
 21 45  1  0
 23 46  1  0
 24 47  1  0
 27 48  1  0
M  END
>  <smiles>  (13) 
O=C(NCC(=O)N1CCC[C@H]1c1ccc(Cl)cc1)c1ccc2ccc(F)cc2n1

>  <score_type>  (13) 
oracle

>  <origin>  (13) 
autodockgpu

>  <m_score__min__energy>  (13) 
-8.5299999999999994

>  <m_primary>  (13) 
energy

>  <rmsd>  (13) 
8.788463855256394

>  <m_score__min__rmsd>  (13) 
8.788463855256394

>  <meeko>  (13) 
{"free_energy": -7.98, "intermolecular_energy": -9.47, "internal_energy": -1.68, "cluster_size": 5, "cluster_id": 3, "rank_in_cluster": 5}

>  <energy>  (13) 
-7.72

>  <cluster_rmsd>  (13) 
1.83

>  <cluster>  (13) 
1

$$$$

     RDKit          3D

 48 51  0  0  0  0  0  0  0  0999 V2000
  141.3890   72.2300  221.9140 O   0  0  0  0  0  0  0  0  0  0  0  0
  140.3180   72.1470  222.5720 C   0  0  0  0  0  0  0  0  0  0  0  0
  139.2900   73.1340  222.2820 N   0  0  0  0  0  0  0  0  0  0  0  0
  139.6050   74.0870  221.2840 C   0  0  0  0  0  0  0  0  0  0  0  0
  140.2370   75.3400  221.6270 C   0  0  0  0  0  0  0  0  0  0  0  0
  139.8020   75.8680  222.7400 O   0  0  0  0  0  0  0  0  0  0  0  0
  141.2470   76.0730  220.9470 N   0  0  0  0  0  0  0  0  0  0  0  0
  142.3120   75.5770  220.0760 C   0  0  0  0  0  0  0  0  0  0  0  0
  142.7520   76.8500  219.3300 C   0  0  0  0  0  0  0  0  0  0  0  0
  141.5910   77.8380  219.5980 C   0  0  0  0  0  0  0  0  0  0  0  0
  141.4140   77.5090  221.0510 C   0  0  1  0  0  0  0  0  0  0  0  0
  140.6270   78.3270  221.8730 C   0  0  0  0  0  0  0  0  0  0  0  0
  139.2960   78.6170  221.5330 C   0  0  0  0  0  0  0  0  0  0  0  0
  138.5130   79.4470  222.3050 C   0  0  0  0  0  0  0  0  0  0  0  0
  139.0040   80.0310  223.4530 C   0  0  0  0  0  0  0  0  0  0  0  0
  138.0440   81.0840  224.4560 Cl  0  0  0  0  0  0  0  0  0  0  0  0
  140.3090   79.7520  223.7960 C   0  0  0  0  0  0  0  0  0  0  0  0
  141.0890   78.9250  223.0250 C   0  0  0  0  0  0  0  0  0  0  0  0
  140.0770   71.1290  223.5850 C   0  0  0  0  0  0  0  0  0  0  0  0
  139.1640   70.1430  223.2740 C   0  0  0  0  0  0  0  0  0  0  0  0
  138.8950   69.1420  224.2080 C   0  0  0  0  0  0  0  0  0  0  0  0
  139.5570   69.1630  225.4350 C   0  0  0  0  0  0  0  0  0  0  0  0
  139.2660   68.1690  226.3200 C   0  0  0  0  0  0  0  0  0  0  0  0
  139.9210   68.1770  227.5520 C   0  0  0  0  0  0  0  0  0  0  0  0
  140.8260   69.1860  227.8140 C   0  0  0  0  0  0  0  0  0  0  0  0
  141.4570   69.1880  229.0120 F   0  0  0  0  0  0  0  0  0  0  0  0
  141.0980   70.1750  226.9030 C   0  0  0  0  0  0  0  0  0  0  0  0
  140.4530   70.1830  225.6670 C   0  0  0  0  0  0  0  0  0  0  0  0
  140.7200   71.1530  224.7720 N   0  0  0  0  0  0  0  0  0  0  0  0
  138.4280   73.0120  222.8320 H   0  0  0  0  0  0  0  0  0  0  0  0
  140.2742   73.5838  220.5706 H   0  0  0  0  0  0  0  0  0  0  0  0
  138.6131   74.4044  220.9298 H   0  0  0  0  0  0  0  0  0  0  0  0
  143.1406   75.1536  220.6627 H   0  0  0  0  0  0  0  0  0  0  0  0
  141.9892   74.7659  219.4068 H   0  0  0  0  0  0  0  0  0  0  0  0
  143.6994   77.2361  219.7341 H   0  0  0  0  0  0  0  0  0  0  0  0
  142.9344   76.6801  218.2586 H   0  0  0  0  0  0  0  0  0  0  0  0
  141.8824   78.8861  219.4349 H   0  0  0  0  0  0  0  0  0  0  0  0
  140.7022   77.7437  218.9568 H   0  0  0  0  0  0  0  0  0  0  0  0
  142.2403   77.7867  221.7219 H   0  0  0  0  0  0  0  0  0  0  0  0
  138.8664   78.1690  220.6249 H   0  0  0  0  0  0  0  0  0  0  0  0
  137.4756   79.6476  221.9992 H   0  0  0  0  0  0  0  0  0  0  0  0
  140.7348   80.2006  224.7057 H   0  0  0  0  0  0  0  0  0  0  0  0
  142.1251   78.7323  223.3403 H   0  0  0  0  0  0  0  0  0  0  0  0
  138.6533   70.1458  222.2998 H   0  0  0  0  0  0  0  0  0  0  0  0
  138.1702   68.3467  223.9794 H   0  0  0  0  0  0  0  0  0  0  0  0
  138.5368   67.3840  226.0709 H   0  0  0  0  0  0  0  0  0  0  0  0
  139.7203   67.3952  228.2993 H   0  0  0  0  0  0  0  0  0  0  0  0
  141.8258   70.9626  227.1480 H   0  0  0  0  0  0  0  0  0  0  0  0
  1  2  2  0
  2  3  1  0
  3  4  1  0
  4  5  1  0
  5  6  2  0
  5  7  1  0
  7  8  1  0
  8  9  1  0
  9 10  1  0
 10 11  1  0
 11 12  1  0
 12 13  2  0
 13 14  1  0
 14 15  2  0
 15 16  1  0
 15 17  1  0
 17 18  2  0
  2 19  1  0
 19 20  2  0
 20 21  1  0
 21 22  2  0
 22 23  1  0
 23 24  2  0
 24 25  1  0
 25 26  1  0
 25 27  2  0
 27 28  1  0
 28 29  2  0
 11  7  1  0
 18 12  1  0
 29 19  1  0
 28 22  1  0
  3 30  1  0
  4 31  1  0
  4 32  1  0
  8 33  1  0
  8 34  1  0
  9 35  1  0
  9 36  1  0
 10 37  1  0
 10 38  1  0
 11 39  1  1
 13 40  1  0
 14 41  1  0
 17 42  1  0
 18 43  1  0
 20 44  1  0
 21 45  1  0
 23 46  1  0
 24 47  1  0
 27 48  1  0
M  END
>  <smiles>  (14) 
O=C(NCC(=O)N1CCC[C@H]1c1ccc(Cl)cc1)c1ccc2ccc(F)cc2n1

>  <score_type>  (14) 
oracle

>  <origin>  (14) 
autodockgpu

>  <m_score__min__energy>  (14) 
-8.5299999999999994

>  <m_primary>  (14) 
energy

>  <rmsd>  (14) 
2.0228100977324

>  <m_score__min__rmsd>  (14) 
2.0228100977324

>  <meeko>  (14) 
{"free_energy": -8.48, "intermolecular_energy": -9.97, "internal_energy": -1.16, "cluster_size": 16, "cluster_id": 1, "rank_in_cluster": 3}

>  <energy>  (14) 
-7.66

>  <cluster_rmsd>  (14) 
1.68

>  <cluster>  (14) 
1

$$$$

     RDKit          3D

 48 51  0  0  0  0  0  0  0  0999 V2000
  139.7500   71.2460  221.1710 O   0  0  0  0  0  0  0  0  0  0  0  0
  139.3930   71.7950  222.2470 C   0  0  0  0  0  0  0  0  0  0  0  0
  138.7600   73.1000  222.1400 N   0  0  0  0  0  0  0  0  0  0  0  0
  138.6120   73.6160  220.8310 C   0  0  0  0  0  0  0  0  0  0  0  0
  139.7000   74.3050  220.1770 C   0  0  0  0  0  0  0  0  0  0  0  0
  139.3180   75.1510  219.2580 O   0  0  0  0  0  0  0  0  0  0  0  0
  141.1030   74.2050  220.3810 N   0  0  0  0  0  0  0  0  0  0  0  0
  141.9790   73.0500  220.1830 C   0  0  0  0  0  0  0  0  0  0  0  0
  143.3760   73.6960  220.1350 C   0  0  0  0  0  0  0  0  0  0  0  0
  143.0660   75.1960  219.9130 C   0  0  0  0  0  0  0  0  0  0  0  0
  141.9270   75.2850  220.8850 C   0  0  1  0  0  0  0  0  0  0  0  0
  141.4220   76.5320  221.2760 C   0  0  0  0  0  0  0  0  0  0  0  0
  141.8210   77.7060  220.6160 C   0  0  0  0  0  0  0  0  0  0  0  0
  141.3680   78.9480  221.0030 C   0  0  0  0  0  0  0  0  0  0  0  0
  140.4950   79.0940  222.0600 C   0  0  0  0  0  0  0  0  0  0  0  0
  139.8990   80.6470  222.5780 Cl  0  0  0  0  0  0  0  0  0  0  0  0
  140.0970   77.9480  222.7140 C   0  0  0  0  0  0  0  0  0  0  0  0
  140.5500   76.7110  222.3280 C   0  0  0  0  0  0  0  0  0  0  0  0
  139.5850   71.1890  223.5570 C   0  0  0  0  0  0  0  0  0  0  0  0
  139.0820   69.9170  223.7360 C   0  0  0  0  0  0  0  0  0  0  0  0
  139.2380   69.2890  224.9710 C   0  0  0  0  0  0  0  0  0  0  0  0
  139.8990   69.9630  225.9980 C   0  0  0  0  0  0  0  0  0  0  0  0
  140.0300   69.3160  227.1890 C   0  0  0  0  0  0  0  0  0  0  0  0
  140.6890   69.9790  228.2260 C   0  0  0  0  0  0  0  0  0  0  0  0
  141.1730   71.2510  227.9950 C   0  0  0  0  0  0  0  0  0  0  0  0
  141.8110   71.8890  229.0040 F   0  0  0  0  0  0  0  0  0  0  0  0
  141.0250   71.8780  226.7840 C   0  0  0  0  0  0  0  0  0  0  0  0
  140.3700   71.2320  225.7370 C   0  0  0  0  0  0  0  0  0  0  0  0
  140.2250   71.8460  224.5480 N   0  0  0  0  0  0  0  0  0  0  0  0
  138.4710   73.4970  223.0450 H   0  0  0  0  0  0  0  0  0  0  0  0
  138.3486   72.7642  220.1867 H   0  0  0  0  0  0  0  0  0  0  0  0
  137.8669   74.4136  220.9675 H   0  0  0  0  0  0  0  0  0  0  0  0
  141.8974   72.3410  221.0200 H   0  0  0  0  0  0  0  0  0  0  0  0
  141.7357   72.4639  219.2845 H   0  0  0  0  0  0  0  0  0  0  0  0
  143.9149   73.5407  221.0813 H   0  0  0  0  0  0  0  0  0  0  0  0
  144.0215   73.2691  219.3532 H   0  0  0  0  0  0  0  0  0  0  0  0
  143.9087   75.8466  220.1896 H   0  0  0  0  0  0  0  0  0  0  0  0
  142.8607   75.5115  218.8794 H   0  0  0  0  0  0  0  0  0  0  0  0
  142.1789   75.1584  221.9483 H   0  0  0  0  0  0  0  0  0  0  0  0
  142.5150   77.6315  219.7658 H   0  0  0  0  0  0  0  0  0  0  0  0
  141.7094   79.8405  220.4582 H   0  0  0  0  0  0  0  0  0  0  0  0
  139.4019   78.0262  223.5630 H   0  0  0  0  0  0  0  0  0  0  0  0
  140.2026   75.8260  222.8813 H   0  0  0  0  0  0  0  0  0  0  0  0
  138.5633   69.4036  222.9130 H   0  0  0  0  0  0  0  0  0  0  0  0
  138.8447   68.2746  225.1335 H   0  0  0  0  0  0  0  0  0  0  0  0
  139.6287   68.3015  227.3298 H   0  0  0  0  0  0  0  0  0  0  0  0
  140.8198   69.4979  229.2065 H   0  0  0  0  0  0  0  0  0  0  0  0
  141.4241   72.8927  226.6389 H   0  0  0  0  0  0  0  0  0  0  0  0
  1  2  2  0
  2  3  1  0
  3  4  1  0
  4  5  1  0
  5  6  2  0
  5  7  1  0
  7  8  1  0
  8  9  1  0
  9 10  1  0
 10 11  1  0
 11 12  1  0
 12 13  2  0
 13 14  1  0
 14 15  2  0
 15 16  1  0
 15 17  1  0
 17 18  2  0
  2 19  1  0
 19 20  2  0
 20 21  1  0
 21 22  2  0
 22 23  1  0
 23 24  2  0
 24 25  1  0
 25 26  1  0
 25 27  2  0
 27 28  1  0
 28 29  2  0
 11  7  1  0
 18 12  1  0
 29 19  1  0
 28 22  1  0
  3 30  1  0
  4 31  1  0
  4 32  1  0
  8 33  1  0
  8 34  1  0
  9 35  1  0
  9 36  1  0
 10 37  1  0
 10 38  1  0
 11 39  1  1
 13 40  1  0
 14 41  1  0
 17 42  1  0
 18 43  1  0
 20 44  1  0
 21 45  1  0
 23 46  1  0
 24 47  1  0
 27 48  1  0
M  END
>  <smiles>  (15) 
O=C(NCC(=O)N1CCC[C@H]1c1ccc(Cl)cc1)c1ccc2ccc(F)cc2n1

>  <score_type>  (15) 
oracle

>  <origin>  (15) 
autodockgpu

>  <m_score__min__energy>  (15) 
-8.5299999999999994

>  <m_primary>  (15) 
energy

>  <rmsd>  (15) 
2.3105541947529664

>  <m_score__min__rmsd>  (15) 
2.3105541947529664

>  <meeko>  (15) 
{"free_energy": -7.88, "intermolecular_energy": -9.37, "internal_energy": -1.61, "cluster_size": 16, "cluster_id": 1, "rank_in_cluster": 7}

>  <energy>  (15) 
-7.65

>  <cluster_rmsd>  (15) 
1.67

>  <cluster>  (15) 
1

$$$$

     RDKit          3D

 48 51  0  0  0  0  0  0  0  0999 V2000
  141.1540   71.6320  221.3560 O   0  0  0  0  0  0  0  0  0  0  0  0
  140.4080   71.8800  222.3400 C   0  0  0  0  0  0  0  0  0  0  0  0
  139.8090   73.2050  222.3940 N   0  0  0  0  0  0  0  0  0  0  0  0
  140.1310   74.0780  221.3280 C   0  0  0  0  0  0  0  0  0  0  0  0
  140.5900   75.4240  221.5830 C   0  0  0  0  0  0  0  0  0  0  0  0
  140.1320   75.9400  222.6920 O   0  0  0  0  0  0  0  0  0  0  0  0
  141.4540   76.2570  220.8220 N   0  0  0  0  0  0  0  0  0  0  0  0
  142.4910   75.8720  219.8640 C   0  0  0  0  0  0  0  0  0  0  0  0
  142.7250   77.1800  219.0850 C   0  0  0  0  0  0  0  0  0  0  0  0
  141.4890   78.0370  219.4490 C   0  0  0  0  0  0  0  0  0  0  0  0
  141.4700   77.7030  220.9110 C   0  0  1  0  0  0  0  0  0  0  0  0
  140.6690   78.4370  221.7970 C   0  0  0  0  0  0  0  0  0  0  0  0
  139.3090   78.6530  221.5230 C   0  0  0  0  0  0  0  0  0  0  0  0
  138.5080   79.4000  222.3580 C   0  0  0  0  0  0  0  0  0  0  0  0
  139.0110   79.9730  223.5080 C   0  0  0  0  0  0  0  0  0  0  0  0
  138.0300   80.9230  224.5890 Cl  0  0  0  0  0  0  0  0  0  0  0  0
  140.3450   79.7660  223.7860 C   0  0  0  0  0  0  0  0  0  0  0  0
  141.1410   79.0210  222.9520 C   0  0  0  0  0  0  0  0  0  0  0  0
  140.1300   70.9170  223.3960 C   0  0  0  0  0  0  0  0  0  0  0  0
  139.2030   69.9350  223.1180 C   0  0  0  0  0  0  0  0  0  0  0  0
  138.8990   68.9860  224.0940 C   0  0  0  0  0  0  0  0  0  0  0  0
  139.5390   69.0540  225.3300 C   0  0  0  0  0  0  0  0  0  0  0  0
  139.2140   68.1110  226.2570 C   0  0  0  0  0  0  0  0  0  0  0  0
  139.8470   68.1670  227.5000 C   0  0  0  0  0  0  0  0  0  0  0  0
  140.7660   69.1710  227.7290 C   0  0  0  0  0  0  0  0  0  0  0  0
  141.3770   69.2200  228.9360 F   0  0  0  0  0  0  0  0  0  0  0  0
  141.0740   70.1090  226.7760 C   0  0  0  0  0  0  0  0  0  0  0  0
  140.4510   70.0680  225.5290 C   0  0  0  0  0  0  0  0  0  0  0  0
  140.7520   70.9880  224.5930 N   0  0  0  0  0  0  0  0  0  0  0  0
  139.1940   73.3510  223.2070 H   0  0  0  0  0  0  0  0  0  0  0  0
  140.9219   73.5826  220.7457 H   0  0  0  0  0  0  0  0  0  0  0  0
  139.1561   74.2415  220.8455 H   0  0  0  0  0  0  0  0  0  0  0  0
  143.4069   75.5463  220.3787 H   0  0  0  0  0  0  0  0  0  0  0  0
  142.2045   75.0247  219.2236 H   0  0  0  0  0  0  0  0  0  0  0  0
  143.6543   77.6710  219.4094 H   0  0  0  0  0  0  0  0  0  0  0  0
  142.8356   77.0222  218.0020 H   0  0  0  0  0  0  0  0  0  0  0  0
  141.6491   79.1093  219.2629 H   0  0  0  0  0  0  0  0  0  0  0  0
  140.5660   77.8405  218.8838 H   0  0  0  0  0  0  0  0  0  0  0  0
  142.3140   78.0760  221.5098 H   0  0  0  0  0  0  0  0  0  0  0  0
  138.8706   78.2129  220.6152 H   0  0  0  0  0  0  0  0  0  0  0  0
  137.4474   79.5425  222.1033 H   0  0  0  0  0  0  0  0  0  0  0  0
  140.7807   80.2068  224.6948 H   0  0  0  0  0  0  0  0  0  0  0  0
  142.1999   78.8846  223.2169 H   0  0  0  0  0  0  0  0  0  0  0  0
  138.7081   69.9003  222.1362 H   0  0  0  0  0  0  0  0  0  0  0  0
  138.1633   68.1939  223.8906 H   0  0  0  0  0  0  0  0  0  0  0  0
  138.4744   67.3281  226.0330 H   0  0  0  0  0  0  0  0  0  0  0  0
  139.6181   67.4265  228.2806 H   0  0  0  0  0  0  0  0  0  0  0  0
  141.8128   70.8938  226.9958 H   0  0  0  0  0  0  0  0  0  0  0  0
  1  2  2  0
  2  3  1  0
  3  4  1  0
  4  5  1  0
  5  6  2  0
  5  7  1  0
  7  8  1  0
  8  9  1  0
  9 10  1  0
 10 11  1  0
 11 12  1  0
 12 13  2  0
 13 14  1  0
 14 15  2  0
 15 16  1  0
 15 17  1  0
 17 18  2  0
  2 19  1  0
 19 20  2  0
 20 21  1  0
 21 22  2  0
 22 23  1  0
 23 24  2  0
 24 25  1  0
 25 26  1  0
 25 27  2  0
 27 28  1  0
 28 29  2  0
 11  7  1  0
 18 12  1  0
 29 19  1  0
 28 22  1  0
  3 30  1  0
  4 31  1  0
  4 32  1  0
  8 33  1  0
  8 34  1  0
  9 35  1  0
  9 36  1  0
 10 37  1  0
 10 38  1  0
 11 39  1  1
 13 40  1  0
 14 41  1  0
 17 42  1  0
 18 43  1  0
 20 44  1  0
 21 45  1  0
 23 46  1  0
 24 47  1  0
 27 48  1  0
M  END
>  <smiles>  (16) 
O=C(NCC(=O)N1CCC[C@H]1c1ccc(Cl)cc1)c1ccc2ccc(F)cc2n1

>  <score_type>  (16) 
oracle

>  <origin>  (16) 
autodockgpu

>  <m_score__min__energy>  (16) 
-8.5299999999999994

>  <m_primary>  (16) 
energy

>  <rmsd>  (16) 
2.0761938520309875

>  <m_score__min__rmsd>  (16) 
2.0761938520309875

>  <meeko>  (16) 
{"free_energy": -8.37, "intermolecular_energy": -9.86, "internal_energy": -1.16, "cluster_size": 16, "cluster_id": 1, "rank_in_cluster": 6}

>  <energy>  (16) 
-7.62

>  <cluster_rmsd>  (16) 
1.86

>  <cluster>  (16) 
1

$$$$

     RDKit          3D

 48 51  0  0  0  0  0  0  0  0999 V2000
  139.8000   71.4610  221.0800 O   0  0  0  0  0  0  0  0  0  0  0  0
  139.7490   72.0510  222.1920 C   0  0  0  0  0  0  0  0  0  0  0  0
  139.6310   73.5000  222.1630 N   0  0  0  0  0  0  0  0  0  0  0  0
  139.5850   74.0960  220.8800 C   0  0  0  0  0  0  0  0  0  0  0  0
  140.7290   74.0500  219.9990 C   0  0  0  0  0  0  0  0  0  0  0  0
  140.4330   74.1990  218.7360 O   0  0  0  0  0  0  0  0  0  0  0  0
  142.1080   73.8730  220.2950 N   0  0  0  0  0  0  0  0  0  0  0  0
  142.7820   72.7030  220.8580 C   0  0  0  0  0  0  0  0  0  0  0  0
  144.2580   72.9710  220.5120 C   0  0  0  0  0  0  0  0  0  0  0  0
  144.1750   74.0810  219.4360 C   0  0  0  0  0  0  0  0  0  0  0  0
  143.1140   74.8990  220.1110 C   0  0  1  0  0  0  0  0  0  0  0  0
  142.8290   76.1980  219.6680 C   0  0  0  0  0  0  0  0  0  0  0  0
  142.0600   77.0700  220.4540 C   0  0  0  0  0  0  0  0  0  0  0  0
  141.7350   78.3390  220.0270 C   0  0  0  0  0  0  0  0  0  0  0  0
  142.1550   78.8110  218.8010 C   0  0  0  0  0  0  0  0  0  0  0  0
  141.7660   80.4090  218.2270 Cl  0  0  0  0  0  0  0  0  0  0  0  0
  142.9110   77.9620  218.0230 C   0  0  0  0  0  0  0  0  0  0  0  0
  143.2340   76.6980  218.4500 C   0  0  0  0  0  0  0  0  0  0  0  0
  139.8010   71.3550  223.4700 C   0  0  0  0  0  0  0  0  0  0  0  0
  139.1760   70.1280  223.5390 C   0  0  0  0  0  0  0  0  0  0  0  0
  139.1960   69.4170  224.7390 C   0  0  0  0  0  0  0  0  0  0  0  0
  139.8480   69.9660  225.8420 C   0  0  0  0  0  0  0  0  0  0  0  0
  139.8450   69.2420  226.9960 C   0  0  0  0  0  0  0  0  0  0  0  0
  140.4940   69.7800  228.1090 C   0  0  0  0  0  0  0  0  0  0  0  0
  141.1040   71.0120  227.9880 C   0  0  0  0  0  0  0  0  0  0  0  0
  141.7320   71.5280  229.0700 F   0  0  0  0  0  0  0  0  0  0  0  0
  141.0910   71.7190  226.8120 C   0  0  0  0  0  0  0  0  0  0  0  0
  140.4480   71.1980  225.6900 C   0  0  0  0  0  0  0  0  0  0  0  0
  140.4340   71.8910  224.5360 N   0  0  0  0  0  0  0  0  0  0  0  0
  139.5740   73.9310  223.0960 H   0  0  0  0  0  0  0  0  0  0  0  0
  138.7551   73.6155  220.3410 H   0  0  0  0  0  0  0  0  0  0  0  0
  139.5007   75.1677  221.1129 H   0  0  0  0  0  0  0  0  0  0  0  0
  142.6331   72.6437  221.9463 H   0  0  0  0  0  0  0  0  0  0  0  0
  142.4054   71.7477  220.4637 H   0  0  0  0  0  0  0  0  0  0  0  0
  144.8130   73.3192  221.3956 H   0  0  0  0  0  0  0  0  0  0  0  0
  144.7888   72.0726  220.1639 H   0  0  0  0  0  0  0  0  0  0  0  0
  145.1217   74.6293  219.3212 H   0  0  0  0  0  0  0  0  0  0  0  0
  143.9700   73.7572  218.4049 H   0  0  0  0  0  0  0  0  0  0  0  0
  143.3962   75.3832  221.0575 H   0  0  0  0  0  0  0  0  0  0  0  0
  141.7067   76.7307  221.4389 H   0  0  0  0  0  0  0  0  0  0  0  0
  141.1290   78.9881  220.6762 H   0  0  0  0  0  0  0  0  0  0  0  0
  143.2633   78.3042  217.0387 H   0  0  0  0  0  0  0  0  0  0  0  0
  143.8411   76.0582  217.7926 H   0  0  0  0  0  0  0  0  0  0  0  0
  138.6666   69.7138  222.6564 H   0  0  0  0  0  0  0  0  0  0  0  0
  138.7038   68.4361  224.8139 H   0  0  0  0  0  0  0  0  0  0  0  0
  139.3463   68.2630  227.0493 H   0  0  0  0  0  0  0  0  0  0  0  0
  140.5186   69.2329  229.0630 H   0  0  0  0  0  0  0  0  0  0  0  0
  141.5887   72.6983  226.7544 H   0  0  0  0  0  0  0  0  0  0  0  0
  1  2  2  0
  2  3  1  0
  3  4  1  0
  4  5  1  0
  5  6  2  0
  5  7  1  0
  7  8  1  0
  8  9  1  0
  9 10  1  0
 10 11  1  0
 11 12  1  0
 12 13  2  0
 13 14  1  0
 14 15  2  0
 15 16  1  0
 15 17  1  0
 17 18  2  0
  2 19  1  0
 19 20  2  0
 20 21  1  0
 21 22  2  0
 22 23  1  0
 23 24  2  0
 24 25  1  0
 25 26  1  0
 25 27  2  0
 27 28  1  0
 28 29  2  0
 11  7  1  0
 18 12  1  0
 29 19  1  0
 28 22  1  0
  3 30  1  0
  4 31  1  0
  4 32  1  0
  8 33  1  0
  8 34  1  0
  9 35  1  0
  9 36  1  0
 10 37  1  0
 10 38  1  0
 11 39  1  1
 13 40  1  0
 14 41  1  0
 17 42  1  0
 18 43  1  0
 20 44  1  0
 21 45  1  0
 23 46  1  0
 24 47  1  0
 27 48  1  0
M  END
>  <smiles>  (17) 
O=C(NCC(=O)N1CCC[C@H]1c1ccc(Cl)cc1)c1ccc2ccc(F)cc2n1

>  <score_type>  (17) 
oracle

>  <origin>  (17) 
autodockgpu

>  <m_score__min__energy>  (17) 
-8.5299999999999994

>  <m_primary>  (17) 
energy

>  <rmsd>  (17) 
2.9707307798441063

>  <m_score__min__rmsd>  (17) 
2.9707307798441063

>  <meeko>  (17) 
{"free_energy": -7.89, "intermolecular_energy": -9.38, "internal_energy": -1.64, "cluster_size": 11, "cluster_id": 4, "rank_in_cluster": 4}

>  <energy>  (17) 
-8.17

>  <cluster_rmsd>  (17) 
0.0

>  <cluster>  (17) 
2

$$$$

     RDKit          3D

 48 51  0  0  0  0  0  0  0  0999 V2000
  136.8140   77.0670  222.4920 O   0  0  0  0  0  0  0  0  0  0  0  0
  136.7540   75.8770  222.8980 C   0  0  0  0  0  0  0  0  0  0  0  0
  137.7290   74.9460  222.3510 N   0  0  0  0  0  0  0  0  0  0  0  0
  138.6460   75.4820  221.4170 C   0  0  0  0  0  0  0  0  0  0  0  0
  140.0580   75.1890  221.5090 C   0  0  0  0  0  0  0  0  0  0  0  0
  140.3380   74.1530  222.2530 O   0  0  0  0  0  0  0  0  0  0  0  0
  141.1710   75.8460  220.9180 N   0  0  0  0  0  0  0  0  0  0  0  0
  142.2660   75.2730  220.1360 C   0  0  0  0  0  0  0  0  0  0  0  0
  142.8570   76.5110  219.4350 C   0  0  0  0  0  0  0  0  0  0  0  0
  141.7520   77.5800  219.6110 C   0  0  0  0  0  0  0  0  0  0  0  0
  141.4320   77.2660  221.0420 C   0  0  1  0  0  0  0  0  0  0  0  0
  140.6410   78.1400  221.8010 C   0  0  0  0  0  0  0  0  0  0  0  0
  141.0540   78.5570  223.0760 C   0  0  0  0  0  0  0  0  0  0  0  0
  140.2790   79.3850  223.8580 C   0  0  0  0  0  0  0  0  0  0  0  0
  139.0560   79.8450  223.4180 C   0  0  0  0  0  0  0  0  0  0  0  0
  138.0480   80.8950  224.3770 Cl  0  0  0  0  0  0  0  0  0  0  0  0
  138.6410   79.4420  222.1680 C   0  0  0  0  0  0  0  0  0  0  0  0
  139.4140   78.6150  221.3910 C   0  0  0  0  0  0  0  0  0  0  0  0
  135.7730   75.4090  223.8670 C   0  0  0  0  0  0  0  0  0  0  0  0
  135.0040   76.3700  224.4890 C   0  0  0  0  0  0  0  0  0  0  0  0
  134.0470   75.9780  225.4260 C   0  0  0  0  0  0  0  0  0  0  0  0
  133.8930   74.6220  225.7120 C   0  0  0  0  0  0  0  0  0  0  0  0
  132.9490   74.2790  226.6330 C   0  0  0  0  0  0  0  0  0  0  0  0
  132.7840   72.9260  226.9290 C   0  0  0  0  0  0  0  0  0  0  0  0
  133.5790   72.0040  226.2780 C   0  0  0  0  0  0  0  0  0  0  0  0
  133.4130   70.6920  226.5700 F   0  0  0  0  0  0  0  0  0  0  0  0
  134.5220   72.3780  225.3550 C   0  0  0  0  0  0  0  0  0  0  0  0
  134.7020   73.7260  225.0460 C   0  0  0  0  0  0  0  0  0  0  0  0
  135.6260   74.0950  224.1400 N   0  0  0  0  0  0  0  0  0  0  0  0
  137.6500   73.9920  222.7280 H   0  0  0  0  0  0  0  0  0  0  0  0
  138.3191   75.1378  220.4247 H   0  0  0  0  0  0  0  0  0  0  0  0
  138.6079   76.5602  221.6316 H   0  0  0  0  0  0  0  0  0  0  0  0
  143.0103   74.7915  220.7873 H   0  0  0  0  0  0  0  0  0  0  0  0
  141.9425   74.4863  219.4386 H   0  0  0  0  0  0  0  0  0  0  0  0
  143.7929   76.8283  219.9181 H   0  0  0  0  0  0  0  0  0  0  0  0
  143.1150   76.3274  218.3815 H   0  0  0  0  0  0  0  0  0  0  0  0
  142.1305   78.6042  219.4780 H   0  0  0  0  0  0  0  0  0  0  0  0
  140.9150   77.5493  218.8979 H   0  0  0  0  0  0  0  0  0  0  0  0
  142.2181   77.4838  221.7800 H   0  0  0  0  0  0  0  0  0  0  0  0
  142.0248   78.2126  223.4620 H   0  0  0  0  0  0  0  0  0  0  0  0
  140.6427   79.6847  224.8519 H   0  0  0  0  0  0  0  0  0  0  0  0
  137.6705   79.7898  221.7844 H   0  0  0  0  0  0  0  0  0  0  0  0
  139.0384   78.3193  220.4003 H   0  0  0  0  0  0  0  0  0  0  0  0
  135.1435   77.4344  224.2491 H   0  0  0  0  0  0  0  0  0  0  0  0
  133.4224   76.7288  225.9322 H   0  0  0  0  0  0  0  0  0  0  0  0
  132.3355   75.0461  227.1281 H   0  0  0  0  0  0  0  0  0  0  0  0
  132.0355   72.6002  227.6663 H   0  0  0  0  0  0  0  0  0  0  0  0
  135.1372   71.6136  224.8577 H   0  0  0  0  0  0  0  0  0  0  0  0
  1  2  2  0
  2  3  1  0
  3  4  1  0
  4  5  1  0
  5  6  2  0
  5  7  1  0
  7  8  1  0
  8  9  1  0
  9 10  1  0
 10 11  1  0
 11 12  1  0
 12 13  2  0
 13 14  1  0
 14 15  2  0
 15 16  1  0
 15 17  1  0
 17 18  2  0
  2 19  1  0
 19 20  2  0
 20 21  1  0
 21 22  2  0
 22 23  1  0
 23 24  2  0
 24 25  1  0
 25 26  1  0
 25 27  2  0
 27 28  1  0
 28 29  2  0
 11  7  1  0
 18 12  1  0
 29 19  1  0
 28 22  1  0
  3 30  1  0
  4 31  1  0
  4 32  1  0
  8 33  1  0
  8 34  1  0
  9 35  1  0
  9 36  1  0
 10 37  1  0
 10 38  1  0
 11 39  1  1
 13 40  1  0
 14 41  1  0
 17 42  1  0
 18 43  1  0
 20 44  1  0
 21 45  1  0
 23 46  1  0
 24 47  1  0
 27 48  1  0
M  END
>  <smiles>  (18) 
O=C(NCC(=O)N1CCC[C@H]1c1ccc(Cl)cc1)c1ccc2ccc(F)cc2n1

>  <score_type>  (18) 
oracle

>  <origin>  (18) 
autodockgpu

>  <m_score__min__energy>  (18) 
-8.5299999999999994

>  <m_primary>  (18) 
energy

>  <rmsd>  (18) 
5.665729460199413

>  <m_score__min__rmsd>  (18) 
5.665729460199413

>  <meeko>  (18) 
{"free_energy": -7.35, "intermolecular_energy": -8.84, "internal_energy": -2.01, "cluster_size": 4, "cluster_id": 8, "rank_in_cluster": 4}

>  <energy>  (18) 
-8.03

>  <cluster_rmsd>  (18) 
0.0

>  <cluster>  (18) 
3

$$$$

     RDKit          3D

 48 51  0  0  0  0  0  0  0  0999 V2000
  141.2700   72.5040  222.2020 O   0  0  0  0  0  0  0  0  0  0  0  0
  140.1610   72.2430  222.7380 C   0  0  0  0  0  0  0  0  0  0  0  0
  139.0270   73.0590  222.3320 N   0  0  0  0  0  0  0  0  0  0  0  0
  139.2930   74.0630  221.3720 C   0  0  0  0  0  0  0  0  0  0  0  0
  140.0200   75.2590  221.7300 C   0  0  0  0  0  0  0  0  0  0  0  0
  139.5600   75.8620  222.7930 O   0  0  0  0  0  0  0  0  0  0  0  0
  141.1460   75.8680  221.1110 N   0  0  0  0  0  0  0  0  0  0  0  0
  142.2270   75.2400  220.3530 C   0  0  0  0  0  0  0  0  0  0  0  0
  142.8420   76.4340  219.5990 C   0  0  0  0  0  0  0  0  0  0  0  0
  141.7590   77.5320  219.7290 C   0  0  0  0  0  0  0  0  0  0  0  0
  141.4340   77.2870  221.1730 C   0  0  1  0  0  0  0  0  0  0  0  0
  140.6620   78.2080  221.8940 C   0  0  0  0  0  0  0  0  0  0  0  0
  141.1380   78.7580  223.0950 C   0  0  0  0  0  0  0  0  0  0  0  0
  140.3850   79.6370  223.8410 C   0  0  0  0  0  0  0  0  0  0  0  0
  139.1230   80.0190  223.4390 C   0  0  0  0  0  0  0  0  0  0  0  0
  138.1410   81.1290  224.3550 Cl  0  0  0  0  0  0  0  0  0  0  0  0
  138.6470   79.4840  222.2610 C   0  0  0  0  0  0  0  0  0  0  0  0
  139.3980   78.6080  221.5190 C   0  0  0  0  0  0  0  0  0  0  0  0
  139.9760   71.1860  223.7220 C   0  0  0  0  0  0  0  0  0  0  0  0
  139.0990   70.1730  223.3920 C   0  0  0  0  0  0  0  0  0  0  0  0
  138.8840   69.1340  224.2980 C   0  0  0  0  0  0  0  0  0  0  0  0
  139.5610   69.1450  225.5160 C   0  0  0  0  0  0  0  0  0  0  0  0
  139.3230   68.1130  226.3740 C   0  0  0  0  0  0  0  0  0  0  0  0
  139.9940   68.1100  227.5980 C   0  0  0  0  0  0  0  0  0  0  0  0
  140.8610   69.1470  227.8790 C   0  0  0  0  0  0  0  0  0  0  0  0
  141.5090   69.1390  229.0680 F   0  0  0  0  0  0  0  0  0  0  0  0
  141.0810   70.1740  226.9960 C   0  0  0  0  0  0  0  0  0  0  0  0
  140.4190   70.1930  225.7690 C   0  0  0  0  0  0  0  0  0  0  0  0
  140.6340   71.2000  224.9010 N   0  0  0  0  0  0  0  0  0  0  0  0
  138.1410   72.7940  222.7840 H   0  0  0  0  0  0  0  0  0  0  0  0
  139.8626   73.5805  220.5640 H   0  0  0  0  0  0  0  0  0  0  0  0
  138.2894   74.4493  221.1406 H   0  0  0  0  0  0  0  0  0  0  0  0
  142.9626   74.7715  221.0233 H   0  0  0  0  0  0  0  0  0  0  0  0
  141.8857   74.4312  219.6901 H   0  0  0  0  0  0  0  0  0  0  0  0
  143.7848   76.7528  220.0675 H   0  0  0  0  0  0  0  0  0  0  0  0
  143.0949   76.1998  218.5544 H   0  0  0  0  0  0  0  0  0  0  0  0
  142.1581   78.5416  219.5516 H   0  0  0  0  0  0  0  0  0  0  0  0
  140.9207   77.4873  219.0182 H   0  0  0  0  0  0  0  0  0  0  0  0
  142.2244   77.5223  221.9009 H   0  0  0  0  0  0  0  0  0  0  0  0
  142.1410   78.4788  223.4501 H   0  0  0  0  0  0  0  0  0  0  0  0
  140.7987   80.0423  224.7762 H   0  0  0  0  0  0  0  0  0  0  0  0
  137.6437   79.7655  221.9085 H   0  0  0  0  0  0  0  0  0  0  0  0
  138.9735   78.2085  220.5862 H   0  0  0  0  0  0  0  0  0  0  0  0
  138.5750   70.1845  222.4249 H   0  0  0  0  0  0  0  0  0  0  0  0
  138.1892   68.3169  224.0541 H   0  0  0  0  0  0  0  0  0  0  0  0
  138.6231   67.3066  226.1097 H   0  0  0  0  0  0  0  0  0  0  0  0
  139.8353   67.2985  228.3234 H   0  0  0  0  0  0  0  0  0  0  0  0
  141.7799   70.9826  227.2562 H   0  0  0  0  0  0  0  0  0  0  0  0
  1  2  2  0
  2  3  1  0
  3  4  1  0
  4  5  1  0
  5  6  2  0
  5  7  1  0
  7  8  1  0
  8  9  1  0
  9 10  1  0
 10 11  1  0
 11 12  1  0
 12 13  2  0
 13 14  1  0
 14 15  2  0
 15 16  1  0
 15 17  1  0
 17 18  2  0
  2 19  1  0
 19 20  2  0
 20 21  1  0
 21 22  2  0
 22 23  1  0
 23 24  2  0
 24 25  1  0
 25 26  1  0
 25 27  2  0
 27 28  1  0
 28 29  2  0
 11  7  1  0
 18 12  1  0
 29 19  1  0
 28 22  1  0
  3 30  1  0
  4 31  1  0
  4 32  1  0
  8 33  1  0
  8 34  1  0
  9 35  1  0
  9 36  1  0
 10 37  1  0
 10 38  1  0
 11 39  1  1
 13 40  1  0
 14 41  1  0
 17 42  1  0
 18 43  1  0
 20 44  1  0
 21 45  1  0
 23 46  1  0
 24 47  1  0
 27 48  1  0
M  END
>  <smiles>  (19) 
O=C(NCC(=O)N1CCC[C@H]1c1ccc(Cl)cc1)c1ccc2ccc(F)cc2n1

>  <score_type>  (19) 
oracle

>  <origin>  (19) 
autodockgpu

>  <m_score__min__energy>  (19) 
-8.5299999999999994

>  <m_primary>  (19) 
energy

>  <rmsd>  (19) 
2.0315137756449317

>  <m_score__min__rmsd>  (19) 
2.0315137756449317

>  <meeko>  (19) 
{"free_energy": -8.42, "intermolecular_energy": -9.91, "internal_energy": -1.2, "cluster_size": 16, "cluster_id": 1, "rank_in_cluster": 4}

>  <energy>  (19) 
-8.02

>  <cluster_rmsd>  (19) 
0.14

>  <cluster>  (19) 
3

$$$$

     RDKit          3D

 48 51  0  0  0  0  0  0  0  0999 V2000
  140.7050   76.7970  218.3470 O   0  0  0  0  0  0  0  0  0  0  0  0
  141.8590   76.8010  218.8520 C   0  0  0  0  0  0  0  0  0  0  0  0
  142.3480   78.0720  219.3620 N   0  0  0  0  0  0  0  0  0  0  0  0
  141.4700   79.1740  219.2370 C   0  0  0  0  0  0  0  0  0  0  0  0
  141.0740   79.9430  220.3940 C   0  0  0  0  0  0  0  0  0  0  0  0
  140.0880   80.7710  220.1690 O   0  0  0  0  0  0  0  0  0  0  0  0
  141.5860   79.9340  221.7200 N   0  0  0  0  0  0  0  0  0  0  0  0
  142.5080   80.8760  222.3530 C   0  0  0  0  0  0  0  0  0  0  0  0
  142.3050   80.5830  223.8510 C   0  0  0  0  0  0  0  0  0  0  0  0
  140.9850   79.7770  223.8800 C   0  0  0  0  0  0  0  0  0  0  0  0
  141.2860   78.9070  222.6960 C   0  0  1  0  0  0  0  0  0  0  0  0
  140.4980   77.7800  222.4230 C   0  0  0  0  0  0  0  0  0  0  0  0
  141.0920   76.5610  222.0600 C   0  0  0  0  0  0  0  0  0  0  0  0
  140.3390   75.4490  221.7520 C   0  0  0  0  0  0  0  0  0  0  0  0
  138.9610   75.4840  221.7880 C   0  0  0  0  0  0  0  0  0  0  0  0
  137.9760   74.0990  221.4060 Cl  0  0  0  0  0  0  0  0  0  0  0  0
  138.3690   76.6760  222.1440 C   0  0  0  0  0  0  0  0  0  0  0  0
  139.1200   77.7840  222.4500 C   0  0  0  0  0  0  0  0  0  0  0  0
  142.6980   75.6140  218.9410 C   0  0  0  0  0  0  0  0  0  0  0  0
  142.4830   74.6260  218.0030 C   0  0  0  0  0  0  0  0  0  0  0  0
  143.2590   73.4680  218.0410 C   0  0  0  0  0  0  0  0  0  0  0  0
  144.2350   73.3360  219.0290 C   0  0  0  0  0  0  0  0  0  0  0  0
  144.9710   72.1900  219.0340 C   0  0  0  0  0  0  0  0  0  0  0  0
  145.9510   72.0440  220.0170 C   0  0  0  0  0  0  0  0  0  0  0  0
  146.1260   73.0630  220.9320 C   0  0  0  0  0  0  0  0  0  0  0  0
  147.0780   72.9160  221.8830 F   0  0  0  0  0  0  0  0  0  0  0  0
  145.3680   74.2070  220.9030 C   0  0  0  0  0  0  0  0  0  0  0  0
  144.3850   74.3690  219.9290 C   0  0  0  0  0  0  0  0  0  0  0  0
  143.6410   75.4910  219.8990 N   0  0  0  0  0  0  0  0  0  0  0  0
  143.2870   78.0180  219.7800 H   0  0  0  0  0  0  0  0  0  0  0  0
  141.9493   79.8789  218.5417 H   0  0  0  0  0  0  0  0  0  0  0  0
  140.5274   78.6992  218.9271 H   0  0  0  0  0  0  0  0  0  0  0  0
  143.5467   80.6824  222.0470 H   0  0  0  0  0  0  0  0  0  0  0  0
  142.3192   81.9250  222.0812 H   0  0  0  0  0  0  0  0  0  0  0  0
  143.1387   79.9884  224.2528 H   0  0  0  0  0  0  0  0  0  0  0  0
  142.2669   81.4938  224.4666 H   0  0  0  0  0  0  0  0  0  0  0  0
  140.8633   79.1994  224.8082 H   0  0  0  0  0  0  0  0  0  0  0  0
  140.0502   80.3558  223.8447 H   0  0  0  0  0  0  0  0  0  0  0  0
  142.1097   78.1874  222.8134 H   0  0  0  0  0  0  0  0  0  0  0  0
  142.1891   76.4916  222.0203 H   0  0  0  0  0  0  0  0  0  0  0  0
  140.8473   74.5146  221.4718 H   0  0  0  0  0  0  0  0  0  0  0  0
  137.2717   76.7415  222.1839 H   0  0  0  0  0  0  0  0  0  0  0  0
  138.6006   78.7129  222.7281 H   0  0  0  0  0  0  0  0  0  0  0  0
  141.7074   74.7502  217.2329 H   0  0  0  0  0  0  0  0  0  0  0  0
  143.1035   72.6688  217.3013 H   0  0  0  0  0  0  0  0  0  0  0  0
  144.7981   71.4028  218.2854 H   0  0  0  0  0  0  0  0  0  0  0  0
  146.5708   71.1363  220.0618 H   0  0  0  0  0  0  0  0  0  0  0  0
  145.5369   74.9969  221.6497 H   0  0  0  0  0  0  0  0  0  0  0  0
  1  2  2  0
  2  3  1  0
  3  4  1  0
  4  5  1  0
  5  6  2  0
  5  7  1  0
  7  8  1  0
  8  9  1  0
  9 10  1  0
 10 11  1  0
 11 12  1  0
 12 13  2  0
 13 14  1  0
 14 15  2  0
 15 16  1  0
 15 17  1  0
 17 18  2  0
  2 19  1  0
 19 20  2  0
 20 21  1  0
 21 22  2  0
 22 23  1  0
 23 24  2  0
 24 25  1  0
 25 26  1  0
 25 27  2  0
 27 28  1  0
 28 29  2  0
 11  7  1  0
 18 12  1  0
 29 19  1  0
 28 22  1  0
  3 30  1  0
  4 31  1  0
  4 32  1  0
  8 33  1  0
  8 34  1  0
  9 35  1  0
  9 36  1  0
 10 37  1  0
 10 38  1  0
 11 39  1  1
 13 40  1  0
 14 41  1  0
 17 42  1  0
 18 43  1  0
 20 44  1  0
 21 45  1  0
 23 46  1  0
 24 47  1  0
 27 48  1  0
M  END
>  <smiles>  (20) 
O=C(NCC(=O)N1CCC[C@H]1c1ccc(Cl)cc1)c1ccc2ccc(F)cc2n1

>  <score_type>  (20) 
oracle

>  <origin>  (20) 
autodockgpu

>  <m_score__min__energy>  (20) 
-8.5299999999999994

>  <m_primary>  (20) 
energy

>  <rmsd>  (20) 
7.591205403523493

>  <m_score__min__rmsd>  (20) 
7.591205403523493

>  <meeko>  (20) 
{"free_energy": -6.97, "intermolecular_energy": -8.46, "internal_energy": -2.36, "cluster_size": 2, "cluster_id": 10, "rank_in_cluster": 2}

>  <energy>  (20) 
-8.0

>  <cluster_rmsd>  (20) 
0.11

>  <cluster>  (20) 
3

$$$$

     RDKit          3D

 48 51  0  0  0  0  0  0  0  0999 V2000
  133.5840   70.1350  226.7320 O   0  0  0  0  0  0  0  0  0  0  0  0
  133.8760   71.2610  226.2490 C   0  0  0  0  0  0  0  0  0  0  0  0
  134.8990   71.2870  225.2150 N   0  0  0  0  0  0  0  0  0  0  0  0
  135.4580   70.0370  224.8600 C   0  0  0  0  0  0  0  0  0  0  0  0
  136.3050   69.9060  223.6970 C   0  0  0  0  0  0  0  0  0  0  0  0
  136.3350   70.9690  222.9380 O   0  0  0  0  0  0  0  0  0  0  0  0
  137.1010   68.8120  223.2610 N   0  0  0  0  0  0  0  0  0  0  0  0
  136.7570   67.7430  222.3250 C   0  0  0  0  0  0  0  0  0  0  0  0
  138.1370   67.1740  221.9470 C   0  0  0  0  0  0  0  0  0  0  0  0
  139.1160   68.2720  222.4250 C   0  0  0  0  0  0  0  0  0  0  0  0
  138.4440   68.5470  223.7370 C   0  0  1  0  0  0  0  0  0  0  0  0
  139.0870   69.3140  224.7190 C   0  0  0  0  0  0  0  0  0  0  0  0
  139.1430   68.8720  226.0510 C   0  0  0  0  0  0  0  0  0  0  0  0
  139.7370   69.6230  227.0410 C   0  0  0  0  0  0  0  0  0  0  0  0
  140.3070   70.8480  226.7670 C   0  0  0  0  0  0  0  0  0  0  0  0
  141.0680   71.8250  227.9920 Cl  0  0  0  0  0  0  0  0  0  0  0  0
  140.2570   71.2900  225.4620 C   0  0  0  0  0  0  0  0  0  0  0  0
  139.6640   70.5410  224.4760 C   0  0  0  0  0  0  0  0  0  0  0  0
  133.2460   72.5030  226.6750 C   0  0  0  0  0  0  0  0  0  0  0  0
  132.0550   72.3950  227.3620 C   0  0  0  0  0  0  0  0  0  0  0  0
  131.4090   73.5530  227.7940 C   0  0  0  0  0  0  0  0  0  0  0  0
  131.9830   74.7940  227.5200 C   0  0  0  0  0  0  0  0  0  0  0  0
  131.3210   75.9010  227.9580 C   0  0  0  0  0  0  0  0  0  0  0  0
  131.8840   77.1500  227.6910 C   0  0  0  0  0  0  0  0  0  0  0  0
  133.0780   77.2030  227.0000 C   0  0  0  0  0  0  0  0  0  0  0  0
  133.6190   78.4170  226.7450 F   0  0  0  0  0  0  0  0  0  0  0  0
  133.7230   76.0700  226.5710 C   0  0  0  0  0  0  0  0  0  0  0  0
  133.1750   74.8140  226.8280 C   0  0  0  0  0  0  0  0  0  0  0  0
  133.8060   73.7030  226.4080 N   0  0  0  0  0  0  0  0  0  0  0  0
  135.0880   72.2280  224.8410 H   0  0  0  0  0  0  0  0  0  0  0  0
  136.0558   69.7053  225.7217 H   0  0  0  0  0  0  0  0  0  0  0  0
  134.5730   69.4450  224.5837 H   0  0  0  0  0  0  0  0  0  0  0  0
  136.1304   66.9785  222.8076 H   0  0  0  0  0  0  0  0  0  0  0  0
  136.1734   68.0892  221.4593 H   0  0  0  0  0  0  0  0  0  0  0  0
  138.3271   66.2230  222.4662 H   0  0  0  0  0  0  0  0  0  0  0  0
  138.2315   66.9495  220.8743 H   0  0  0  0  0  0  0  0  0  0  0  0
  140.1431   67.8975  222.5472 H   0  0  0  0  0  0  0  0  0  0  0  0
  139.2621   69.1313  221.7539 H   0  0  0  0  0  0  0  0  0  0  0  0
  138.4735   67.7380  224.4817 H   0  0  0  0  0  0  0  0  0  0  0  0
  138.7002   67.8991  226.3107 H   0  0  0  0  0  0  0  0  0  0  0  0
  139.7570   69.2376  228.0711 H   0  0  0  0  0  0  0  0  0  0  0  0
  140.7015   72.2630  225.2055 H   0  0  0  0  0  0  0  0  0  0  0  0
  139.6490   70.9370  223.4498 H   0  0  0  0  0  0  0  0  0  0  0  0
  131.6192   71.4060  227.5670 H   0  0  0  0  0  0  0  0  0  0  0  0
  130.4586   73.4883  228.3440 H   0  0  0  0  0  0  0  0  0  0  0  0
  130.3711   75.8133  228.5057 H   0  0  0  0  0  0  0  0  0  0  0  0
  131.3867   78.0729  228.0242 H   0  0  0  0  0  0  0  0  0  0  0  0
  134.6736   76.1530  226.0237 H   0  0  0  0  0  0  0  0  0  0  0  0
  1  2  2  0
  2  3  1  0
  3  4  1  0
  4  5  1  0
  5  6  2  0
  5  7  1  0
  7  8  1  0
  8  9  1  0
  9 10  1  0
 10 11  1  0
 11 12  1  0
 12 13  2  0
 13 14  1  0
 14 15  2  0
 15 16  1  0
 15 17  1  0
 17 18  2  0
  2 19  1  0
 19 20  2  0
 20 21  1  0
 21 22  2  0
 22 23  1  0
 23 24  2  0
 24 25  1  0
 25 26  1  0
 25 27  2  0
 27 28  1  0
 28 29  2  0
 11  7  1  0
 18 12  1  0
 29 19  1  0
 28 22  1  0
  3 30  1  0
  4 31  1  0
  4 32  1  0
  8 33  1  0
  8 34  1  0
  9 35  1  0
  9 36  1  0
 10 37  1  0
 10 38  1  0
 11 39  1  1
 13 40  1  0
 14 41  1  0
 17 42  1  0
 18 43  1  0
 20 44  1  0
 21 45  1  0
 23 46  1  0
 24 47  1  0
 27 48  1  0
M  END
>  <smiles>  (21) 
O=C(NCC(=O)N1CCC[C@H]1c1ccc(Cl)cc1)c1ccc2ccc(F)cc2n1

>  <score_type>  (21) 
oracle

>  <origin>  (21) 
autodockgpu

>  <m_score__min__energy>  (21) 
-8.5299999999999994

>  <m_primary>  (21) 
energy

>  <rmsd>  (21) 
8.836017266499546

>  <m_score__min__rmsd>  (21) 
8.836017266499546

>  <meeko>  (21) 
{"free_energy": -8.03, "intermolecular_energy": -9.52, "internal_energy": -1.71, "cluster_size": 5, "cluster_id": 3, "rank_in_cluster": 1}

>  <energy>  (21) 
-8.0

>  <cluster_rmsd>  (21) 
0.09

>  <cluster>  (21) 
3

$$$$

     RDKit          3D

 48 51  0  0  0  0  0  0  0  0999 V2000
  139.6730   71.4370  221.0680 O   0  0  0  0  0  0  0  0  0  0  0  0
  139.6940   72.0290  222.1790 C   0  0  0  0  0  0  0  0  0  0  0  0
  139.6020   73.4800  222.1530 N   0  0  0  0  0  0  0  0  0  0  0  0
  139.4980   74.0750  220.8740 C   0  0  0  0  0  0  0  0  0  0  0  0
  140.6520   74.1940  220.0130 C   0  0  0  0  0  0  0  0  0  0  0  0
  140.3700   74.5670  218.7940 O   0  0  0  0  0  0  0  0  0  0  0  0
  142.0280   73.9700  220.2890 N   0  0  0  0  0  0  0  0  0  0  0  0
  142.6730   72.7760  220.8340 C   0  0  0  0  0  0  0  0  0  0  0  0
  144.1520   73.0010  220.4700 C   0  0  0  0  0  0  0  0  0  0  0  0
  144.0900   74.1210  219.4050 C   0  0  0  0  0  0  0  0  0  0  0  0
  143.0640   74.9660  220.1000 C   0  0  1  0  0  0  0  0  0  0  0  0
  142.8140   76.2770  219.6720 C   0  0  0  0  0  0  0  0  0  0  0  0
  142.0670   77.1610  220.4670 C   0  0  0  0  0  0  0  0  0  0  0  0
  141.7760   78.4430  220.0530 C   0  0  0  0  0  0  0  0  0  0  0  0
  142.2110   78.9170  218.8340 C   0  0  0  0  0  0  0  0  0  0  0  0
  141.8650   80.5310  218.2770 Cl  0  0  0  0  0  0  0  0  0  0  0  0
  142.9450   78.0570  218.0460 C   0  0  0  0  0  0  0  0  0  0  0  0
  143.2330   76.7800  218.4590 C   0  0  0  0  0  0  0  0  0  0  0  0
  139.8040   71.3340  223.4540 C   0  0  0  0  0  0  0  0  0  0  0  0
  139.2840   70.0590  223.5170 C   0  0  0  0  0  0  0  0  0  0  0  0
  139.3630   69.3470  224.7140 C   0  0  0  0  0  0  0  0  0  0  0  0
  139.9650   69.9440  225.8210 C   0  0  0  0  0  0  0  0  0  0  0  0
  140.0220   69.2170  226.9720 C   0  0  0  0  0  0  0  0  0  0  0  0
  140.6220   69.8020  228.0870 C   0  0  0  0  0  0  0  0  0  0  0  0
  141.1270   71.0820  227.9720 C   0  0  0  0  0  0  0  0  0  0  0  0
  141.7080   71.6440  229.0580 F   0  0  0  0  0  0  0  0  0  0  0  0
  141.0560   71.7910  226.8000 C   0  0  0  0  0  0  0  0  0  0  0  0
  140.4590   71.2220  225.6750 C   0  0  0  0  0  0  0  0  0  0  0  0
  140.3890   71.9170  224.5240 N   0  0  0  0  0  0  0  0  0  0  0  0
  139.6060   73.9140  223.0870 H   0  0  0  0  0  0  0  0  0  0  0  0
  138.7510   73.4905  220.3169 H   0  0  0  0  0  0  0  0  0  0  0  0
  139.2651   75.1232  221.1129 H   0  0  0  0  0  0  0  0  0  0  0  0
  142.5369   72.7130  221.9237 H   0  0  0  0  0  0  0  0  0  0  0  0
  142.2619   71.8358  220.4377 H   0  0  0  0  0  0  0  0  0  0  0  0
  144.7293   73.3244  221.3487 H   0  0  0  0  0  0  0  0  0  0  0  0
  144.6495   72.0894  220.1075 H   0  0  0  0  0  0  0  0  0  0  0  0
  145.0518   74.6405  219.2822 H   0  0  0  0  0  0  0  0  0  0  0  0
  143.8617   73.8123  218.3742 H   0  0  0  0  0  0  0  0  0  0  0  0
  143.3739   75.4332  221.0464 H   0  0  0  0  0  0  0  0  0  0  0  0
  141.7038   76.8208  221.4480 H   0  0  0  0  0  0  0  0  0  0  0  0
  141.1853   79.1004  220.7079 H   0  0  0  0  0  0  0  0  0  0  0  0
  143.3075   78.4009  217.0661 H   0  0  0  0  0  0  0  0  0  0  0  0
  143.8225   76.1313  217.7945 H   0  0  0  0  0  0  0  0  0  0  0  0
  138.8114   69.6075  222.6322 H   0  0  0  0  0  0  0  0  0  0  0  0
  138.9556   68.3276  224.7837 H   0  0  0  0  0  0  0  0  0  0  0  0
  139.6073   68.1993  227.0204 H   0  0  0  0  0  0  0  0  0  0  0  0
  140.6915   69.2548  229.0387 H   0  0  0  0  0  0  0  0  0  0  0  0
  141.4700   72.8087  226.7472 H   0  0  0  0  0  0  0  0  0  0  0  0
  1  2  2  0
  2  3  1  0
  3  4  1  0
  4  5  1  0
  5  6  2  0
  5  7  1  0
  7  8  1  0
  8  9  1  0
  9 10  1  0
 10 11  1  0
 11 12  1  0
 12 13  2  0
 13 14  1  0
 14 15  2  0
 15 16  1  0
 15 17  1  0
 17 18  2  0
  2 19  1  0
 19 20  2  0
 20 21  1  0
 21 22  2  0
 22 23  1  0
 23 24  2  0
 24 25  1  0
 25 26  1  0
 25 27  2  0
 27 28  1  0
 28 29  2  0
 11  7  1  0
 18 12  1  0
 29 19  1  0
 28 22  1  0
  3 30  1  0
  4 31  1  0
  4 32  1  0
  8 33  1  0
  8 34  1  0
  9 35  1  0
  9 36  1  0
 10 37  1  0
 10 38  1  0
 11 39  1  1
 13 40  1  0
 14 41  1  0
 17 42  1  0
 18 43  1  0
 20 44  1  0
 21 45  1  0
 23 46  1  0
 24 47  1  0
 27 48  1  0
M  END
>  <smiles>  (22) 
O=C(NCC(=O)N1CCC[C@H]1c1ccc(Cl)cc1)c1ccc2ccc(F)cc2n1

>  <score_type>  (22) 
oracle

>  <origin>  (22) 
autodockgpu

>  <m_score__min__energy>  (22) 
-8.5299999999999994

>  <m_primary>  (22) 
energy

>  <rmsd>  (22) 
2.901789174982422

>  <m_score__min__rmsd>  (22) 
2.901789174982422

>  <meeko>  (22) 
{"free_energy": -7.85, "intermolecular_energy": -9.34, "internal_energy": -1.67, "cluster_size": 11, "cluster_id": 4, "rank_in_cluster": 7}

>  <energy>  (22) 
-7.98

>  <cluster_rmsd>  (22) 
0.13

>  <cluster>  (22) 
3

$$$$

     RDKit          3D

 48 51  0  0  0  0  0  0  0  0999 V2000
  139.7680   71.2410  221.0890 O   0  0  0  0  0  0  0  0  0  0  0  0
  139.6740   71.8850  222.1680 C   0  0  0  0  0  0  0  0  0  0  0  0
  139.4510   73.3180  222.0600 N   0  0  0  0  0  0  0  0  0  0  0  0
  139.3630   73.8380  220.7470 C   0  0  0  0  0  0  0  0  0  0  0  0
  140.5010   74.4680  220.1190 C   0  0  0  0  0  0  0  0  0  0  0  0
  140.1860   75.3710  219.2290 O   0  0  0  0  0  0  0  0  0  0  0  0
  141.8920   74.2590  220.3230 N   0  0  0  0  0  0  0  0  0  0  0  0
  142.5770   73.0690  220.8260 C   0  0  0  0  0  0  0  0  0  0  0  0
  144.0330   73.3120  220.3880 C   0  0  0  0  0  0  0  0  0  0  0  0
  143.9030   74.4380  219.3340 C   0  0  0  0  0  0  0  0  0  0  0  0
  142.9060   75.2680  220.0870 C   0  0  1  0  0  0  0  0  0  0  0  0
  142.6200   76.5780  219.6800 C   0  0  0  0  0  0  0  0  0  0  0  0
  142.9790   77.0250  218.3980 C   0  0  0  0  0  0  0  0  0  0  0  0
  142.7420   78.3180  217.9860 C   0  0  0  0  0  0  0  0  0  0  0  0
  142.1380   79.2350  218.8190 C   0  0  0  0  0  0  0  0  0  0  0  0
  141.8210   80.8790  218.3340 Cl  0  0  0  0  0  0  0  0  0  0  0  0
  141.7820   78.8060  220.0790 C   0  0  0  0  0  0  0  0  0  0  0  0
  142.0190   77.5180  220.4890 C   0  0  0  0  0  0  0  0  0  0  0  0
  139.7770   71.2660  223.4820 C   0  0  0  0  0  0  0  0  0  0  0  0
  139.2140   70.0160  223.6290 C   0  0  0  0  0  0  0  0  0  0  0  0
  139.2840   69.3760  224.8660 C   0  0  0  0  0  0  0  0  0  0  0  0
  139.9220   70.0180  225.9270 C   0  0  0  0  0  0  0  0  0  0  0  0
  139.9680   69.3620  227.1200 C   0  0  0  0  0  0  0  0  0  0  0  0
  140.6030   69.9920  228.1910 C   0  0  0  0  0  0  0  0  0  0  0  0
  141.1500   71.2440  227.9920 C   0  0  0  0  0  0  0  0  0  0  0  0
  141.7650   71.8510  229.0340 F   0  0  0  0  0  0  0  0  0  0  0  0
  141.0880   71.8820  226.7780 C   0  0  0  0  0  0  0  0  0  0  0  0
  140.4570   71.2670  225.6970 C   0  0  0  0  0  0  0  0  0  0  0  0
  140.3950   71.8920  224.5070 N   0  0  0  0  0  0  0  0  0  0  0  0
  139.3630   73.7950  222.9680 H   0  0  0  0  0  0  0  0  0  0  0  0
  139.0716   72.9995  220.0973 H   0  0  0  0  0  0  0  0  0  0  0  0
  138.6577   74.6739  220.8644 H   0  0  0  0  0  0  0  0  0  0  0  0
  142.4979   72.9979  221.9208 H   0  0  0  0  0  0  0  0  0  0  0  0
  142.1560   72.1269  220.4449 H   0  0  0  0  0  0  0  0  0  0  0  0
  144.6514   73.6368  221.2378 H   0  0  0  0  0  0  0  0  0  0  0  0
  144.5215   72.4081  219.9951 H   0  0  0  0  0  0  0  0  0  0  0  0
  144.8514   74.9686  219.1640 H   0  0  0  0  0  0  0  0  0  0  0  0
  143.6240   74.1325  218.3148 H   0  0  0  0  0  0  0  0  0  0  0  0
  143.2595   75.7333  221.0189 H   0  0  0  0  0  0  0  0  0  0  0  0
  143.4631   76.3229  217.7032 H   0  0  0  0  0  0  0  0  0  0  0  0
  143.0406   78.6245  216.9726 H   0  0  0  0  0  0  0  0  0  0  0  0
  141.2976   79.5108  220.7709 H   0  0  0  0  0  0  0  0  0  0  0  0
  141.7169   77.2238  221.5050 H   0  0  0  0  0  0  0  0  0  0  0  0
  138.7145   69.5284  222.7789 H   0  0  0  0  0  0  0  0  0  0  0  0
  138.8419   68.3781  225.0031 H   0  0  0  0  0  0  0  0  0  0  0  0
  139.5178   68.3650  227.2357 H   0  0  0  0  0  0  0  0  0  0  0  0
  140.6665   69.5013  229.1734 H   0  0  0  0  0  0  0  0  0  0  0  0
  141.5364   72.8792  226.6578 H   0  0  0  0  0  0  0  0  0  0  0  0
  1  2  2  0
  2  3  1  0
  3  4  1  0
  4  5  1  0
  5  6  2  0
  5  7  1  0
  7  8  1  0
  8  9  1  0
  9 10  1  0
 10 11  1  0
 11 12  1  0
 12 13  2  0
 13 14  1  0
 14 15  2  0
 15 16  1  0
 15 17  1  0
 17 18  2  0
  2 19  1  0
 19 20  2  0
 20 21  1  0
 21 22  2  0
 22 23  1  0
 23 24  2  0
 24 25  1  0
 25 26  1  0
 25 27  2  0
 27 28  1  0
 28 29  2  0
 11  7  1  0
 18 12  1  0
 29 19  1  0
 28 22  1  0
  3 30  1  0
  4 31  1  0
  4 32  1  0
  8 33  1  0
  8 34  1  0
  9 35  1  0
  9 36  1  0
 10 37  1  0
 10 38  1  0
 11 39  1  1
 13 40  1  0
 14 41  1  0
 17 42  1  0
 18 43  1  0
 20 44  1  0
 21 45  1  0
 23 46  1  0
 24 47  1  0
 27 48  1  0
M  END
>  <smiles>  (23) 
O=C(NCC(=O)N1CCC[C@H]1c1ccc(Cl)cc1)c1ccc2ccc(F)cc2n1

>  <score_type>  (23) 
oracle

>  <origin>  (23) 
autodockgpu

>  <m_score__min__energy>  (23) 
-8.5299999999999994

>  <m_primary>  (23) 
energy

>  <rmsd>  (23) 
2.7376392609379985

>  <m_score__min__rmsd>  (23) 
2.7376392609379985

>  <meeko>  (23) 
{"free_energy": -7.93, "intermolecular_energy": -9.42, "internal_energy": -1.47, "cluster_size": 11, "cluster_id": 4, "rank_in_cluster": 1}

>  <energy>  (23) 
-7.93

>  <cluster_rmsd>  (23) 
0.0

>  <cluster>  (23) 
4

$$$$

     RDKit          3D

 48 51  0  0  0  0  0  0  0  0999 V2000
  136.5970   77.3610  222.6880 O   0  0  0  0  0  0  0  0  0  0  0  0
  136.5370   76.1880  223.1410 C   0  0  0  0  0  0  0  0  0  0  0  0
  137.5420   75.2480  222.6670 N   0  0  0  0  0  0  0  0  0  0  0  0
  138.4830   75.7570  221.7420 C   0  0  0  0  0  0  0  0  0  0  0  0
  139.8450   75.2740  221.7260 C   0  0  0  0  0  0  0  0  0  0  0  0
  140.0090   74.1270  222.3270 O   0  0  0  0  0  0  0  0  0  0  0  0
  141.0150   75.8500  221.1610 N   0  0  0  0  0  0  0  0  0  0  0  0
  142.1000   75.1940  220.4310 C   0  0  0  0  0  0  0  0  0  0  0  0
  142.7880   76.3770  219.7240 C   0  0  0  0  0  0  0  0  0  0  0  0
  141.7430   77.5130  219.8350 C   0  0  0  0  0  0  0  0  0  0  0  0
  141.3550   77.2550  221.2600 C   0  0  1  0  0  0  0  0  0  0  0  0
  140.5920   78.1920  221.9700 C   0  0  0  0  0  0  0  0  0  0  0  0
  140.9650   78.5890  223.2640 C   0  0  0  0  0  0  0  0  0  0  0  0
  140.2140   79.4800  223.9970 C   0  0  0  0  0  0  0  0  0  0  0  0
  139.0540   80.0270  223.4890 C   0  0  0  0  0  0  0  0  0  0  0  0
  138.0780   81.1580  224.3840 Cl  0  0  0  0  0  0  0  0  0  0  0  0
  138.6790   79.6440  222.2190 C   0  0  0  0  0  0  0  0  0  0  0  0
  139.4290   78.7550  221.4900 C   0  0  0  0  0  0  0  0  0  0  0  0
  135.5300   75.7480  224.0960 C   0  0  0  0  0  0  0  0  0  0  0  0
  134.7010   76.7180  224.6200 C   0  0  0  0  0  0  0  0  0  0  0  0
  133.7180   76.3520  225.5390 C   0  0  0  0  0  0  0  0  0  0  0  0
  133.5960   75.0130  225.9060 C   0  0  0  0  0  0  0  0  0  0  0  0
  132.6240   74.6960  226.8070 C   0  0  0  0  0  0  0  0  0  0  0  0
  132.4900   73.3590  227.1840 C   0  0  0  0  0  0  0  0  0  0  0  0
  133.3450   72.4270  226.6300 C   0  0  0  0  0  0  0  0  0  0  0  0
  133.2100   71.1320  227.0000 F   0  0  0  0  0  0  0  0  0  0  0  0
  134.3150   72.7760  225.7250 C   0  0  0  0  0  0  0  0  0  0  0  0
  134.4630   74.1060  225.3370 C   0  0  0  0  0  0  0  0  0  0  0  0
  135.4150   74.4490  224.4490 N   0  0  0  0  0  0  0  0  0  0  0  0
  137.4610   74.3090  223.0810 H   0  0  0  0  0  0  0  0  0  0  0  0
  138.0715   75.5665  220.7398 H   0  0  0  0  0  0  0  0  0  0  0  0
  138.5999   76.8020  222.0650 H   0  0  0  0  0  0  0  0  0  0  0  0
  142.7914   74.6852  221.1189 H   0  0  0  0  0  0  0  0  0  0  0  0
  141.7536   74.4112  219.7402 H   0  0  0  0  0  0  0  0  0  0  0  0
  143.7236   76.6508  220.2336 H   0  0  0  0  0  0  0  0  0  0  0  0
  143.0716   76.1523  218.6852 H   0  0  0  0  0  0  0  0  0  0  0  0
  142.1861   78.5096  219.6920 H   0  0  0  0  0  0  0  0  0  0  0  0
  140.9310   77.5132  219.0929 H   0  0  0  0  0  0  0  0  0  0  0  0
  142.1269   77.4464  222.0199 H   0  0  0  0  0  0  0  0  0  0  0  0
  141.8842   78.1760  223.7050 H   0  0  0  0  0  0  0  0  0  0  0  0
  140.5454   79.7613  225.0075 H   0  0  0  0  0  0  0  0  0  0  0  0
  137.7596   80.0594  221.7806 H   0  0  0  0  0  0  0  0  0  0  0  0
  139.0878   78.4805  220.4809 H   0  0  0  0  0  0  0  0  0  0  0  0
  134.8141   77.7691  224.3162 H   0  0  0  0  0  0  0  0  0  0  0  0
  133.0473   77.1106  225.9688 H   0  0  0  0  0  0  0  0  0  0  0  0
  131.9645   75.4710  227.2248 H   0  0  0  0  0  0  0  0  0  0  0  0
  131.7194   73.0540  227.9073 H   0  0  0  0  0  0  0  0  0  0  0  0
  134.9771   72.0046  225.3049 H   0  0  0  0  0  0  0  0  0  0  0  0
  1  2  2  0
  2  3  1  0
  3  4  1  0
  4  5  1  0
  5  6  2  0
  5  7  1  0
  7  8  1  0
  8  9  1  0
  9 10  1  0
 10 11  1  0
 11 12  1  0
 12 13  2  0
 13 14  1  0
 14 15  2  0
 15 16  1  0
 15 17  1  0
 17 18  2  0
  2 19  1  0
 19 20  2  0
 20 21  1  0
 21 22  2  0
 22 23  1  0
 23 24  2  0
 24 25  1  0
 25 26  1  0
 25 27  2  0
 27 28  1  0
 28 29  2  0
 11  7  1  0
 18 12  1  0
 29 19  1  0
 28 22  1  0
  3 30  1  0
  4 31  1  0
  4 32  1  0
  8 33  1  0
  8 34  1  0
  9 35  1  0
  9 36  1  0
 10 37  1  0
 10 38  1  0
 11 39  1  1
 13 40  1  0
 14 41  1  0
 17 42  1  0
 18 43  1  0
 20 44  1  0
 21 45  1  0
 23 46  1  0
 24 47  1  0
 27 48  1  0
M  END
>  <smiles>  (24) 
O=C(NCC(=O)N1CCC[C@H]1c1ccc(Cl)cc1)c1ccc2ccc(F)cc2n1

>  <score_type>  (24) 
oracle

>  <origin>  (24) 
autodockgpu

>  <m_score__min__energy>  (24) 
-8.5299999999999994

>  <m_primary>  (24) 
energy

>  <rmsd>  (24) 
5.9615012370737155

>  <m_score__min__rmsd>  (24) 
5.9615012370737155

>  <meeko>  (24) 
{"free_energy": -7.36, "intermolecular_energy": -8.85, "internal_energy": -1.99, "cluster_size": 4, "cluster_id": 8, "rank_in_cluster": 2}

>  <energy>  (24) 
-7.92

>  <cluster_rmsd>  (24) 
0.4

>  <cluster>  (24) 
4

$$$$

     RDKit          3D

 48 51  0  0  0  0  0  0  0  0999 V2000
  140.0800   71.3820  221.1110 O   0  0  0  0  0  0  0  0  0  0  0  0
  139.8560   72.0100  222.1800 C   0  0  0  0  0  0  0  0  0  0  0  0
  139.6140   73.4400  222.0630 N   0  0  0  0  0  0  0  0  0  0  0  0
  139.6560   73.9740  220.7540 C   0  0  0  0  0  0  0  0  0  0  0  0
  140.8300   73.8190  219.9250 C   0  0  0  0  0  0  0  0  0  0  0  0
  140.5720   73.7490  218.6470 O   0  0  0  0  0  0  0  0  0  0  0  0
  142.2020   73.7350  220.2870 N   0  0  0  0  0  0  0  0  0  0  0  0
  142.9290   72.6110  220.8750 C   0  0  0  0  0  0  0  0  0  0  0  0
  144.3980   72.9850  220.6010 C   0  0  0  0  0  0  0  0  0  0  0  0
  144.2880   74.0950  219.5300 C   0  0  0  0  0  0  0  0  0  0  0  0
  143.1410   74.8310  220.1570 C   0  0  1  0  0  0  0  0  0  0  0  0
  142.7880   76.1110  219.7090 C   0  0  0  0  0  0  0  0  0  0  0  0
  143.2450   76.5880  218.4700 C   0  0  0  0  0  0  0  0  0  0  0  0
  142.9420   77.8550  218.0220 C   0  0  0  0  0  0  0  0  0  0  0  0
  142.1710   78.7150  218.7750 C   0  0  0  0  0  0  0  0  0  0  0  0
  141.7650   80.3240  218.2420 Cl  0  0  0  0  0  0  0  0  0  0  0  0
  141.7170   78.2560  219.9920 C   0  0  0  0  0  0  0  0  0  0  0  0
  142.0200   76.9930  220.4380 C   0  0  0  0  0  0  0  0  0  0  0  0
  139.8310   71.3770  223.4910 C   0  0  0  0  0  0  0  0  0  0  0  0
  139.0730   70.2320  223.6170 C   0  0  0  0  0  0  0  0  0  0  0  0
  139.0130   69.5840  224.8510 C   0  0  0  0  0  0  0  0  0  0  0  0
  139.7220   70.1110  225.9290 C   0  0  0  0  0  0  0  0  0  0  0  0
  139.6380   69.4500  227.1170 C   0  0  0  0  0  0  0  0  0  0  0  0
  140.3430   69.9670  228.2060 C   0  0  0  0  0  0  0  0  0  0  0  0
  141.0870   71.1160  228.0270 C   0  0  0  0  0  0  0  0  0  0  0  0
  141.7690   71.6110  229.0870 F   0  0  0  0  0  0  0  0  0  0  0  0
  141.1530   71.7600  226.8180 C   0  0  0  0  0  0  0  0  0  0  0  0
  140.4550   71.2590  225.7200 C   0  0  0  0  0  0  0  0  0  0  0  0
  140.5200   71.8910  224.5330 N   0  0  0  0  0  0  0  0  0  0  0  0
  139.4180   73.9030  222.9620 H   0  0  0  0  0  0  0  0  0  0  0  0
  138.8210   73.5170  220.2027 H   0  0  0  0  0  0  0  0  0  0  0  0
  139.6278   75.0588  220.9338 H   0  0  0  0  0  0  0  0  0  0  0  0
  142.7335   72.5321  221.9546 H   0  0  0  0  0  0  0  0  0  0  0  0
  142.6396   71.6350  220.4582 H   0  0  0  0  0  0  0  0  0  0  0  0
  144.8850   73.3631  221.5120 H   0  0  0  0  0  0  0  0  0  0  0  0
  145.0064   72.1292  220.2734 H   0  0  0  0  0  0  0  0  0  0  0  0
  145.1980   74.7094  219.4640 H   0  0  0  0  0  0  0  0  0  0  0  0
  144.1553   73.7666  218.4886 H   0  0  0  0  0  0  0  0  0  0  0  0
  143.3418   75.3260  221.1186 H   0  0  0  0  0  0  0  0  0  0  0  0
  143.8624   75.9315  217.8393 H   0  0  0  0  0  0  0  0  0  0  0  0
  143.3225   78.1870  217.0447 H   0  0  0  0  0  0  0  0  0  0  0  0
  141.0989   78.9149  220.6196 H   0  0  0  0  0  0  0  0  0  0  0  0
  141.6340   76.6723  221.4169 H   0  0  0  0  0  0  0  0  0  0  0  0
  138.5210   69.8335  222.7530 H   0  0  0  0  0  0  0  0  0  0  0  0
  138.4141   68.6693  224.9716 H   0  0  0  0  0  0  0  0  0  0  0  0
  139.0331   68.5365  227.2156 H   0  0  0  0  0  0  0  0  0  0  0  0
  140.3062   69.4690  229.1861 H   0  0  0  0  0  0  0  0  0  0  0  0
  141.7575   72.6731  226.7144 H   0  0  0  0  0  0  0  0  0  0  0  0
  1  2  2  0
  2  3  1  0
  3  4  1  0
  4  5  1  0
  5  6  2  0
  5  7  1  0
  7  8  1  0
  8  9  1  0
  9 10  1  0
 10 11  1  0
 11 12  1  0
 12 13  2  0
 13 14  1  0
 14 15  2  0
 15 16  1  0
 15 17  1  0
 17 18  2  0
  2 19  1  0
 19 20  2  0
 20 21  1  0
 21 22  2  0
 22 23  1  0
 23 24  2  0
 24 25  1  0
 25 26  1  0
 25 27  2  0
 27 28  1  0
 28 29  2  0
 11  7  1  0
 18 12  1  0
 29 19  1  0
 28 22  1  0
  3 30  1  0
  4 31  1  0
  4 32  1  0
  8 33  1  0
  8 34  1  0
  9 35  1  0
  9 36  1  0
 10 37  1  0
 10 38  1  0
 11 39  1  1
 13 40  1  0
 14 41  1  0
 17 42  1  0
 18 43  1  0
 20 44  1  0
 21 45  1  0
 23 46  1  0
 24 47  1  0
 27 48  1  0
M  END
>  <smiles>  (25) 
O=C(NCC(=O)N1CCC[C@H]1c1ccc(Cl)cc1)c1ccc2ccc(F)cc2n1

>  <score_type>  (25) 
oracle

>  <origin>  (25) 
autodockgpu

>  <m_score__min__energy>  (25) 
-8.5299999999999994

>  <m_primary>  (25) 
energy

>  <rmsd>  (25) 
3.0626996440163268

>  <m_score__min__rmsd>  (25) 
3.0626996440163268

>  <meeko>  (25) 
{"free_energy": -7.89, "intermolecular_energy": -9.38, "internal_energy": -1.53, "cluster_size": 11, "cluster_id": 4, "rank_in_cluster": 5}

>  <energy>  (25) 
-7.89

>  <cluster_rmsd>  (25) 
0.44

>  <cluster>  (25) 
4

$$$$

     RDKit          3D

 48 51  0  0  0  0  0  0  0  0999 V2000
  140.3050   73.6050  221.9920 O   0  0  0  0  0  0  0  0  0  0  0  0
  140.2120   72.3540  222.1030 C   0  0  0  0  0  0  0  0  0  0  0  0
  140.2500   71.5800  220.8720 N   0  0  0  0  0  0  0  0  0  0  0  0
  140.3880   72.3210  219.6740 C   0  0  0  0  0  0  0  0  0  0  0  0
  141.6680   72.8630  219.2800 C   0  0  0  0  0  0  0  0  0  0  0  0
  141.7050   73.2950  218.0480 O   0  0  0  0  0  0  0  0  0  0  0  0
  142.8740   72.9970  220.0200 N   0  0  0  0  0  0  0  0  0  0  0  0
  143.7220   71.9510  220.5890 C   0  0  0  0  0  0  0  0  0  0  0  0
  145.0440   72.6970  220.8470 C   0  0  0  0  0  0  0  0  0  0  0  0
  144.8910   73.9900  220.0100 C   0  0  0  0  0  0  0  0  0  0  0  0
  143.4650   74.2700  220.3810 C   0  0  1  0  0  0  0  0  0  0  0  0
  142.8840   75.5100  220.0830 C   0  0  0  0  0  0  0  0  0  0  0  0
  143.3900   76.3090  219.0450 C   0  0  0  0  0  0  0  0  0  0  0  0
  142.8610   77.5470  218.7550 C   0  0  0  0  0  0  0  0  0  0  0  0
  141.8040   78.0600  219.4760 C   0  0  0  0  0  0  0  0  0  0  0  0
  141.1060   79.6210  219.1390 Cl  0  0  0  0  0  0  0  0  0  0  0  0
  141.2990   77.2840  220.4970 C   0  0  0  0  0  0  0  0  0  0  0  0
  141.8280   76.0500  220.7850 C   0  0  0  0  0  0  0  0  0  0  0  0
  140.0720   71.6710  223.3820 C   0  0  0  0  0  0  0  0  0  0  0  0
  139.2220   70.5860  223.4200 C   0  0  0  0  0  0  0  0  0  0  0  0
  139.0500   69.8950  224.6200 C   0  0  0  0  0  0  0  0  0  0  0  0
  139.7440   70.3190  225.7530 C   0  0  0  0  0  0  0  0  0  0  0  0
  139.5490   69.6180  226.9050 C   0  0  0  0  0  0  0  0  0  0  0  0
  140.2360   70.0310  228.0470 C   0  0  0  0  0  0  0  0  0  0  0  0
  141.0760   71.1230  227.9550 C   0  0  0  0  0  0  0  0  0  0  0  0
  141.7400   71.5190  229.0660 F   0  0  0  0  0  0  0  0  0  0  0  0
  141.2520   71.8100  226.7800 C   0  0  0  0  0  0  0  0  0  0  0  0
  140.5730   71.4120  225.6300 C   0  0  0  0  0  0  0  0  0  0  0  0
  140.7460   72.0850  224.4770 N   0  0  0  0  0  0  0  0  0  0  0  0
  140.1890   70.5630  221.0180 H   0  0  0  0  0  0  0  0  0  0  0  0
  140.0632   71.6594  218.8574 H   0  0  0  0  0  0  0  0  0  0  0  0
  139.7939   73.2242  219.8772 H   0  0  0  0  0  0  0  0  0  0  0  0
  143.2969   71.5602  221.5252 H   0  0  0  0  0  0  0  0  0  0  0  0
  143.8341   71.0735  219.9352 H   0  0  0  0  0  0  0  0  0  0  0  0
  145.1629   72.9307  221.9153 H   0  0  0  0  0  0  0  0  0  0  0  0
  145.9317   72.1083  220.5723 H   0  0  0  0  0  0  0  0  0  0  0  0
  145.5761   74.7869  220.3350 H   0  0  0  0  0  0  0  0  0  0  0  0
  145.1180   73.9149  218.9363 H   0  0  0  0  0  0  0  0  0  0  0  0
  143.2749   74.5370  221.4310 H   0  0  0  0  0  0  0  0  0  0  0  0
  144.2335   75.9351  218.4461 H   0  0  0  0  0  0  0  0  0  0  0  0
  143.2901   78.1378  217.9323 H   0  0  0  0  0  0  0  0  0  0  0  0
  140.4550   77.6609  221.0933 H   0  0  0  0  0  0  0  0  0  0  0  0
  141.3909   75.4684  221.6101 H   0  0  0  0  0  0  0  0  0  0  0  0
  138.6852   70.2685  222.5139 H   0  0  0  0  0  0  0  0  0  0  0  0
  138.3759   69.0273  224.6717 H   0  0  0  0  0  0  0  0  0  0  0  0
  138.8705   68.7527  226.9338 H   0  0  0  0  0  0  0  0  0  0  0  0
  140.1110   69.4977  229.0009 H   0  0  0  0  0  0  0  0  0  0  0  0
  141.9298   72.6757  226.7460 H   0  0  0  0  0  0  0  0  0  0  0  0
  1  2  2  0
  2  3  1  0
  3  4  1  0
  4  5  1  0
  5  6  2  0
  5  7  1  0
  7  8  1  0
  8  9  1  0
  9 10  1  0
 10 11  1  0
 11 12  1  0
 12 13  2  0
 13 14  1  0
 14 15  2  0
 15 16  1  0
 15 17  1  0
 17 18  2  0
  2 19  1  0
 19 20  2  0
 20 21  1  0
 21 22  2  0
 22 23  1  0
 23 24  2  0
 24 25  1  0
 25 26  1  0
 25 27  2  0
 27 28  1  0
 28 29  2  0
 11  7  1  0
 18 12  1  0
 29 19  1  0
 28 22  1  0
  3 30  1  0
  4 31  1  0
  4 32  1  0
  8 33  1  0
  8 34  1  0
  9 35  1  0
  9 36  1  0
 10 37  1  0
 10 38  1  0
 11 39  1  1
 13 40  1  0
 14 41  1  0
 17 42  1  0
 18 43  1  0
 20 44  1  0
 21 45  1  0
 23 46  1  0
 24 47  1  0
 27 48  1  0
M  END
>  <smiles>  (26) 
O=C(NCC(=O)N1CCC[C@H]1c1ccc(Cl)cc1)c1ccc2ccc(F)cc2n1

>  <score_type>  (26) 
oracle

>  <origin>  (26) 
autodockgpu

>  <m_score__min__energy>  (26) 
-8.5299999999999994

>  <m_primary>  (26) 
energy

>  <rmsd>  (26) 
3.6596110864801363

>  <m_score__min__rmsd>  (26) 
3.6596110864801363

>  <meeko>  (26) 
{"free_energy": -7.72, "intermolecular_energy": -9.22, "internal_energy": -1.65, "cluster_size": 11, "cluster_id": 4, "rank_in_cluster": 11}

>  <energy>  (26) 
-7.89

>  <cluster_rmsd>  (26) 
0.41

>  <cluster>  (26) 
4

$$$$

     RDKit          3D

 48 51  0  0  0  0  0  0  0  0999 V2000
  140.4170   71.4770  220.9150 O   0  0  0  0  0  0  0  0  0  0  0  0
  140.0690   71.8300  222.0730 C   0  0  0  0  0  0  0  0  0  0  0  0
  139.7640   73.2390  222.2670 N   0  0  0  0  0  0  0  0  0  0  0  0
  139.8920   74.0670  221.1270 C   0  0  0  0  0  0  0  0  0  0  0  0
  140.6900   75.2710  221.1690 C   0  0  0  0  0  0  0  0  0  0  0  0
  140.7560   75.8230  222.3500 O   0  0  0  0  0  0  0  0  0  0  0  0
  141.4040   75.9340  220.1340 N   0  0  0  0  0  0  0  0  0  0  0  0
  141.2610   77.3080  219.6550 C   0  0  0  0  0  0  0  0  0  0  0  0
  142.5740   77.5300  218.8820 C   0  0  0  0  0  0  0  0  0  0  0  0
  143.4720   76.3670  219.3670 C   0  0  0  0  0  0  0  0  0  0  0  0
  142.4190   75.3000  219.3170 C   0  0  1  0  0  0  0  0  0  0  0  0
  142.7720   73.9480  219.4240 C   0  0  0  0  0  0  0  0  0  0  0  0
  143.7190   73.5260  220.3710 C   0  0  0  0  0  0  0  0  0  0  0  0
  144.1100   72.2100  220.4730 C   0  0  0  0  0  0  0  0  0  0  0  0
  143.5850   71.2410  219.6440 C   0  0  0  0  0  0  0  0  0  0  0  0
  144.0530   69.5650  219.7430 Cl  0  0  0  0  0  0  0  0  0  0  0  0
  142.6550   71.6440  218.7110 C   0  0  0  0  0  0  0  0  0  0  0  0
  142.2660   72.9570  218.6110 C   0  0  0  0  0  0  0  0  0  0  0  0
  139.9620   70.9060  223.1940 C   0  0  0  0  0  0  0  0  0  0  0  0
  139.1890   69.7800  223.0040 C   0  0  0  0  0  0  0  0  0  0  0  0
  139.0530   68.8610  224.0440 C   0  0  0  0  0  0  0  0  0  0  0  0
  139.7010   69.1040  225.2540 C   0  0  0  0  0  0  0  0  0  0  0  0
  139.5430   68.1840  226.2460 C   0  0  0  0  0  0  0  0  0  0  0  0
  140.1860   68.4140  227.4620 C   0  0  0  0  0  0  0  0  0  0  0  0
  140.9480   69.5570  227.6020 C   0  0  0  0  0  0  0  0  0  0  0  0
  141.5700   69.7750  228.7840 F   0  0  0  0  0  0  0  0  0  0  0  0
  141.0900   70.4670  226.5850 C   0  0  0  0  0  0  0  0  0  0  0  0
  140.4540   70.2540  225.3630 C   0  0  0  0  0  0  0  0  0  0  0  0
  140.5920   71.1460  224.3640 N   0  0  0  0  0  0  0  0  0  0  0  0
  139.4670   73.4720  223.2240 H   0  0  0  0  0  0  0  0  0  0  0  0
  140.3153   73.4385  220.3296 H   0  0  0  0  0  0  0  0  0  0  0  0
  138.8719   74.4567  220.9945 H   0  0  0  0  0  0  0  0  0  0  0  0
  140.3882   77.4094  218.9933 H   0  0  0  0  0  0  0  0  0  0  0  0
  141.0979   78.0386  220.4610 H   0  0  0  0  0  0  0  0  0  0  0  0
  142.4069   77.4727  217.7963 H   0  0  0  0  0  0  0  0  0  0  0  0
  143.0175   78.5206  219.0613 H   0  0  0  0  0  0  0  0  0  0  0  0
  144.3091   76.1663  218.6822 H   0  0  0  0  0  0  0  0  0  0  0  0
  143.9888   76.5080  220.3278 H   0  0  0  0  0  0  0  0  0  0  0  0
  142.0437   75.0273  218.3196 H   0  0  0  0  0  0  0  0  0  0  0  0
  144.1614   74.2687  221.0513 H   0  0  0  0  0  0  0  0  0  0  0  0
  144.8555   71.9259  221.2303 H   0  0  0  0  0  0  0  0  0  0  0  0
  142.2150   70.8986  218.0322 H   0  0  0  0  0  0  0  0  0  0  0  0
  141.5195   73.2292  217.8503 H   0  0  0  0  0  0  0  0  0  0  0  0
  138.6846   69.6084  222.0416 H   0  0  0  0  0  0  0  0  0  0  0  0
  138.4421   67.9559  223.9112 H   0  0  0  0  0  0  0  0  0  0  0  0
  138.9264   67.2861  226.0925 H   0  0  0  0  0  0  0  0  0  0  0  0
  140.0881   67.6995  228.2926 H   0  0  0  0  0  0  0  0  0  0  0  0
  141.7065   71.3657  226.7341 H   0  0  0  0  0  0  0  0  0  0  0  0
  1  2  2  0
  2  3  1  0
  3  4  1  0
  4  5  1  0
  5  6  2  0
  5  7  1  0
  7  8  1  0
  8  9  1  0
  9 10  1  0
 10 11  1  0
 11 12  1  0
 12 13  2  0
 13 14  1  0
 14 15  2  0
 15 16  1  0
 15 17  1  0
 17 18  2  0
  2 19  1  0
 19 20  2  0
 20 21  1  0
 21 22  2  0
 22 23  1  0
 23 24  2  0
 24 25  1  0
 25 26  1  0
 25 27  2  0
 27 28  1  0
 28 29  2  0
 11  7  1  0
 18 12  1  0
 29 19  1  0
 28 22  1  0
  3 30  1  0
  4 31  1  0
  4 32  1  0
  8 33  1  0
  8 34  1  0
  9 35  1  0
  9 36  1  0
 10 37  1  0
 10 38  1  0
 11 39  1  6
 13 40  1  0
 14 41  1  0
 17 42  1  0
 18 43  1  0
 20 44  1  0
 21 45  1  0
 23 46  1  0
 24 47  1  0
 27 48  1  0
M  END
>  <smiles>  (27) 
O=C(NCC(=O)N1CCC[C@H]1c1ccc(Cl)cc1)c1ccc2ccc(F)cc2n1

>  <score_type>  (27) 
oracle

>  <origin>  (27) 
autodockgpu

>  <m_score__min__energy>  (27) 
-8.5299999999999994

>  <m_primary>  (27) 
energy

>  <rmsd>  (27) 
2.155077892248549

>  <m_score__min__rmsd>  (27) 
2.155077892248549

>  <meeko>  (27) 
{"free_energy": -7.25, "intermolecular_energy": -8.74, "internal_energy": -1.96, "cluster_size": 4, "cluster_id": 5, "rank_in_cluster": 4}

>  <energy>  (27) 
-7.89

>  <cluster_rmsd>  (27) 
0.52

>  <cluster>  (27) 
4

$$$$

     RDKit          3D

 48 51  0  0  0  0  0  0  0  0999 V2000
  140.8500   76.9260  217.9600 O   0  0  0  0  0  0  0  0  0  0  0  0
  141.8820   76.8800  218.6810 C   0  0  0  0  0  0  0  0  0  0  0  0
  142.2350   78.0940  219.4000 N   0  0  0  0  0  0  0  0  0  0  0  0
  141.3750   79.2020  219.2120 C   0  0  0  0  0  0  0  0  0  0  0  0
  140.9140   79.9840  220.3370 C   0  0  0  0  0  0  0  0  0  0  0  0
  139.9090   80.7710  220.0600 O   0  0  0  0  0  0  0  0  0  0  0  0
  141.3790   80.0220  221.6790 N   0  0  0  0  0  0  0  0  0  0  0  0
  142.1960   81.0400  222.3380 C   0  0  0  0  0  0  0  0  0  0  0  0
  141.9690   80.7350  223.8300 C   0  0  0  0  0  0  0  0  0  0  0  0
  140.7210   79.8190  223.8190 C   0  0  0  0  0  0  0  0  0  0  0  0
  141.1360   78.9750  222.6500 C   0  0  1  0  0  0  0  0  0  0  0  0
  140.4560   77.7840  222.3580 C   0  0  0  0  0  0  0  0  0  0  0  0
  139.0630   77.6970  222.5130 C   0  0  0  0  0  0  0  0  0  0  0  0
  138.3750   76.5290  222.2670 C   0  0  0  0  0  0  0  0  0  0  0  0
  139.0290   75.3870  221.8540 C   0  0  0  0  0  0  0  0  0  0  0  0
  138.1940   73.8920  221.5320 Cl  0  0  0  0  0  0  0  0  0  0  0  0
  140.3960   75.4630  221.6980 C   0  0  0  0  0  0  0  0  0  0  0  0
  141.0800   76.6270  221.9440 C   0  0  0  0  0  0  0  0  0  0  0  0
  142.7120   75.6920  218.8170 C   0  0  0  0  0  0  0  0  0  0  0  0
  142.4950   74.6720  217.9150 C   0  0  0  0  0  0  0  0  0  0  0  0
  143.2620   73.5100  217.9990 C   0  0  0  0  0  0  0  0  0  0  0  0
  144.2310   73.4070  218.9960 C   0  0  0  0  0  0  0  0  0  0  0  0
  144.9590   72.2570  219.0460 C   0  0  0  0  0  0  0  0  0  0  0  0
  145.9320   72.1400  220.0390 C   0  0  0  0  0  0  0  0  0  0  0  0
  146.1100   73.1900  220.9190 C   0  0  0  0  0  0  0  0  0  0  0  0
  147.0560   73.0700  221.8800 F   0  0  0  0  0  0  0  0  0  0  0  0
  145.3610   74.3370  220.8440 C   0  0  0  0  0  0  0  0  0  0  0  0
  144.3840   74.4710  219.8590 C   0  0  0  0  0  0  0  0  0  0  0  0
  143.6490   75.5970  219.7850 N   0  0  0  0  0  0  0  0  0  0  0  0
  143.0750   78.0000  219.9880 H   0  0  0  0  0  0  0  0  0  0  0  0
  141.9022   79.8974  218.5424 H   0  0  0  0  0  0  0  0  0  0  0  0
  140.4496   78.7319  218.8478 H   0  0  0  0  0  0  0  0  0  0  0  0
  143.2570   80.9345  222.0676 H   0  0  0  0  0  0  0  0  0  0  0  0
  141.9276   82.0685  222.0549 H   0  0  0  0  0  0  0  0  0  0  0  0
  142.8363   80.2146  224.2624 H   0  0  0  0  0  0  0  0  0  0  0  0
  141.8334   81.6408  224.4393 H   0  0  0  0  0  0  0  0  0  0  0  0
  140.6172   79.2354  224.7456 H   0  0  0  0  0  0  0  0  0  0  0  0
  139.7420   80.3156  223.7493 H   0  0  0  0  0  0  0  0  0  0  0  0
  142.0147   78.3298  222.7972 H   0  0  0  0  0  0  0  0  0  0  0  0
  138.5052   78.5869  222.8402 H   0  0  0  0  0  0  0  0  0  0  0  0
  137.2836   76.5068  222.4025 H   0  0  0  0  0  0  0  0  0  0  0  0
  140.9507   74.5718  221.3693 H   0  0  0  0  0  0  0  0  0  0  0  0
  142.1711   76.6370  221.8050 H   0  0  0  0  0  0  0  0  0  0  0  0
  141.7244   74.7736  217.1366 H   0  0  0  0  0  0  0  0  0  0  0  0
  143.1044   72.6857  217.2879 H   0  0  0  0  0  0  0  0  0  0  0  0
  144.7850   71.4447  218.3250 H   0  0  0  0  0  0  0  0  0  0  0  0
  146.5450   71.2302  220.1196 H   0  0  0  0  0  0  0  0  0  0  0  0
  145.5318   75.1523  221.5624 H   0  0  0  0  0  0  0  0  0  0  0  0
  1  2  2  0
  2  3  1  0
  3  4  1  0
  4  5  1  0
  5  6  2  0
  5  7  1  0
  7  8  1  0
  8  9  1  0
  9 10  1  0
 10 11  1  0
 11 12  1  0
 12 13  2  0
 13 14  1  0
 14 15  2  0
 15 16  1  0
 15 17  1  0
 17 18  2  0
  2 19  1  0
 19 20  2  0
 20 21  1  0
 21 22  2  0
 22 23  1  0
 23 24  2  0
 24 25  1  0
 25 26  1  0
 25 27  2  0
 27 28  1  0
 28 29  2  0
 11  7  1  0
 18 12  1  0
 29 19  1  0
 28 22  1  0
  3 30  1  0
  4 31  1  0
  4 32  1  0
  8 33  1  0
  8 34  1  0
  9 35  1  0
  9 36  1  0
 10 37  1  0
 10 38  1  0
 11 39  1  1
 13 40  1  0
 14 41  1  0
 17 42  1  0
 18 43  1  0
 20 44  1  0
 21 45  1  0
 23 46  1  0
 24 47  1  0
 27 48  1  0
M  END
>  <smiles>  (28) 
O=C(NCC(=O)N1CCC[C@H]1c1ccc(Cl)cc1)c1ccc2ccc(F)cc2n1

>  <score_type>  (28) 
oracle

>  <origin>  (28) 
autodockgpu

>  <m_score__min__energy>  (28) 
-8.5299999999999994

>  <m_primary>  (28) 
energy

>  <rmsd>  (28) 
7.620081774975125

>  <m_score__min__rmsd>  (28) 
7.620081774975125

>  <meeko>  (28) 
{"free_energy": -7.02, "intermolecular_energy": -8.51, "internal_energy": -2.35, "cluster_size": 2, "cluster_id": 10, "rank_in_cluster": 1}

>  <energy>  (28) 
-7.87

>  <cluster_rmsd>  (28) 
0.37

>  <cluster>  (28) 
4

$$$$

     RDKit          3D

 48 51  0  0  0  0  0  0  0  0999 V2000
  133.6430   70.2110  226.8370 O   0  0  0  0  0  0  0  0  0  0  0  0
  133.8910   71.3260  226.3050 C   0  0  0  0  0  0  0  0  0  0  0  0
  134.8690   71.3370  225.2290 N   0  0  0  0  0  0  0  0  0  0  0  0
  135.4400   70.0870  224.8930 C   0  0  0  0  0  0  0  0  0  0  0  0
  136.2340   69.9310  223.6950 C   0  0  0  0  0  0  0  0  0  0  0  0
  136.1770   70.9520  222.8830 O   0  0  0  0  0  0  0  0  0  0  0  0
  137.0560   68.8500  223.2750 N   0  0  0  0  0  0  0  0  0  0  0  0
  136.7510   67.7790  222.3270 C   0  0  0  0  0  0  0  0  0  0  0  0
  138.1480   67.2330  221.9810 C   0  0  0  0  0  0  0  0  0  0  0  0
  139.0990   68.3450  222.4850 C   0  0  0  0  0  0  0  0  0  0  0  0
  138.3910   68.6050  223.7820 C   0  0  1  0  0  0  0  0  0  0  0  0
  138.9990   69.3780  224.7810 C   0  0  0  0  0  0  0  0  0  0  0  0
  139.5810   70.6180  224.4720 C   0  0  0  0  0  0  0  0  0  0  0  0
  140.2160   71.3810  225.4280 C   0  0  0  0  0  0  0  0  0  0  0  0
  140.3080   70.9580  226.7370 C   0  0  0  0  0  0  0  0  0  0  0  0
  141.1020   71.8950  227.9730 Cl  0  0  0  0  0  0  0  0  0  0  0  0
  139.7400   69.7420  227.0490 C   0  0  0  0  0  0  0  0  0  0  0  0
  139.1080   68.9830  226.0960 C   0  0  0  0  0  0  0  0  0  0  0  0
  133.2530   72.5690  226.7160 C   0  0  0  0  0  0  0  0  0  0  0  0
  132.0540   72.4630  227.3890 C   0  0  0  0  0  0  0  0  0  0  0  0
  131.4000   73.6220  227.8060 C   0  0  0  0  0  0  0  0  0  0  0  0
  131.9740   74.8620  227.5310 C   0  0  0  0  0  0  0  0  0  0  0  0
  131.3040   75.9700  227.9540 C   0  0  0  0  0  0  0  0  0  0  0  0
  131.8680   77.2190  227.6850 C   0  0  0  0  0  0  0  0  0  0  0  0
  133.0690   77.2710  227.0080 C   0  0  0  0  0  0  0  0  0  0  0  0
  133.6110   78.4840  226.7510 F   0  0  0  0  0  0  0  0  0  0  0  0
  133.7220   76.1370  226.5940 C   0  0  0  0  0  0  0  0  0  0  0  0
  133.1740   74.8810  226.8530 C   0  0  0  0  0  0  0  0  0  0  0  0
  133.8130   73.7680  226.4470 N   0  0  0  0  0  0  0  0  0  0  0  0
  135.0230   72.2680  224.8160 H   0  0  0  0  0  0  0  0  0  0  0  0
  136.0859   69.8010  225.7362 H   0  0  0  0  0  0  0  0  0  0  0  0
  134.5572   69.4657  224.6817 H   0  0  0  0  0  0  0  0  0  0  0  0
  136.1248   67.0032  222.7916 H   0  0  0  0  0  0  0  0  0  0  0  0
  136.1831   68.1193  221.4485 H   0  0  0  0  0  0  0  0  0  0  0  0
  138.3404   66.2837  222.5023 H   0  0  0  0  0  0  0  0  0  0  0  0
  138.2715   67.0133  220.9103 H   0  0  0  0  0  0  0  0  0  0  0  0
  140.1286   67.9861  222.6306 H   0  0  0  0  0  0  0  0  0  0  0  0
  139.2480   69.2085  221.8201 H   0  0  0  0  0  0  0  0  0  0  0  0
  138.4144   67.7944  224.5252 H   0  0  0  0  0  0  0  0  0  0  0  0
  139.5286   70.9906  223.4384 H   0  0  0  0  0  0  0  0  0  0  0  0
  140.6581   72.3465  225.1410 H   0  0  0  0  0  0  0  0  0  0  0  0
  139.7942   69.3718  228.0834 H   0  0  0  0  0  0  0  0  0  0  0  0
  138.6703   68.0191  226.3948 H   0  0  0  0  0  0  0  0  0  0  0  0
  131.6179   71.4743  227.5948 H   0  0  0  0  0  0  0  0  0  0  0  0
  130.4433   73.5584  228.3451 H   0  0  0  0  0  0  0  0  0  0  0  0
  130.3479   75.8836  228.4911 H   0  0  0  0  0  0  0  0  0  0  0  0
  131.3647   78.1428  228.0065 H   0  0  0  0  0  0  0  0  0  0  0  0
  134.6787   76.2189  226.0573 H   0  0  0  0  0  0  0  0  0  0  0  0
  1  2  2  0
  2  3  1  0
  3  4  1  0
  4  5  1  0
  5  6  2  0
  5  7  1  0
  7  8  1  0
  8  9  1  0
  9 10  1  0
 10 11  1  0
 11 12  1  0
 12 13  2  0
 13 14  1  0
 14 15  2  0
 15 16  1  0
 15 17  1  0
 17 18  2  0
  2 19  1  0
 19 20  2  0
 20 21  1  0
 21 22  2  0
 22 23  1  0
 23 24  2  0
 24 25  1  0
 25 26  1  0
 25 27  2  0
 27 28  1  0
 28 29  2  0
 11  7  1  0
 18 12  1  0
 29 19  1  0
 28 22  1  0
  3 30  1  0
  4 31  1  0
  4 32  1  0
  8 33  1  0
  8 34  1  0
  9 35  1  0
  9 36  1  0
 10 37  1  0
 10 38  1  0
 11 39  1  1
 13 40  1  0
 14 41  1  0
 17 42  1  0
 18 43  1  0
 20 44  1  0
 21 45  1  0
 23 46  1  0
 24 47  1  0
 27 48  1  0
M  END
>  <smiles>  (29) 
O=C(NCC(=O)N1CCC[C@H]1c1ccc(Cl)cc1)c1ccc2ccc(F)cc2n1

>  <score_type>  (29) 
oracle

>  <origin>  (29) 
autodockgpu

>  <m_score__min__energy>  (29) 
-8.5299999999999994

>  <m_primary>  (29) 
energy

>  <rmsd>  (29) 
8.849824196923743

>  <m_score__min__rmsd>  (29) 
8.849824196923743

>  <meeko>  (29) 
{"free_energy": -8.0, "intermolecular_energy": -9.49, "internal_energy": -1.68, "cluster_size": 5, "cluster_id": 3, "rank_in_cluster": 4}

>  <energy>  (29) 
-7.85

>  <cluster_rmsd>  (29) 
0.31

>  <cluster>  (29) 
4

$$$$

     RDKit          3D

 48 51  0  0  0  0  0  0  0  0999 V2000
  139.6980   71.1820  221.1660 O   0  0  0  0  0  0  0  0  0  0  0  0
  139.4040   71.7440  222.2550 C   0  0  0  0  0  0  0  0  0  0  0  0
  138.8120   73.0700  222.1710 N   0  0  0  0  0  0  0  0  0  0  0  0
  138.6280   73.5890  220.8680 C   0  0  0  0  0  0  0  0  0  0  0  0
  139.6740   74.3410  220.2130 C   0  0  0  0  0  0  0  0  0  0  0  0
  139.2360   75.2320  219.3650 O   0  0  0  0  0  0  0  0  0  0  0  0
  141.0860   74.2590  220.3520 N   0  0  0  0  0  0  0  0  0  0  0  0
  141.9700   73.1270  220.0770 C   0  0  0  0  0  0  0  0  0  0  0  0
  143.3530   73.8000  219.9890 C   0  0  0  0  0  0  0  0  0  0  0  0
  143.0090   75.3000  219.8320 C   0  0  0  0  0  0  0  0  0  0  0  0
  141.9130   75.3360  220.8560 C   0  0  1  0  0  0  0  0  0  0  0  0
  141.4050   76.5610  221.3100 C   0  0  0  0  0  0  0  0  0  0  0  0
  140.3970   76.6010  222.2860 C   0  0  0  0  0  0  0  0  0  0  0  0
  139.8550   77.7890  222.7240 C   0  0  0  0  0  0  0  0  0  0  0  0
  140.2820   78.9990  222.2200 C   0  0  0  0  0  0  0  0  0  0  0  0
  139.6220   80.5230  222.7490 Cl  0  0  0  0  0  0  0  0  0  0  0  0
  141.2720   78.9710  221.2610 C   0  0  0  0  0  0  0  0  0  0  0  0
  141.8100   77.7860  220.8260 C   0  0  0  0  0  0  0  0  0  0  0  0
  139.6290   71.1330  223.5570 C   0  0  0  0  0  0  0  0  0  0  0  0
  139.2000   69.8330  223.7190 C   0  0  0  0  0  0  0  0  0  0  0  0
  139.3900   69.1980  224.9470 C   0  0  0  0  0  0  0  0  0  0  0  0
  140.0110   69.8960  225.9830 C   0  0  0  0  0  0  0  0  0  0  0  0
  140.1770   69.2420  227.1660 C   0  0  0  0  0  0  0  0  0  0  0  0
  140.7970   69.9280  228.2120 C   0  0  0  0  0  0  0  0  0  0  0  0
  141.2080   71.2290  227.9980 C   0  0  0  0  0  0  0  0  0  0  0  0
  141.8090   71.8890  229.0160 F   0  0  0  0  0  0  0  0  0  0  0  0
  141.0270   71.8620  226.7940 C   0  0  0  0  0  0  0  0  0  0  0  0
  140.4090   71.1920  225.7390 C   0  0  0  0  0  0  0  0  0  0  0  0
  140.2310   71.8130  224.5580 N   0  0  0  0  0  0  0  0  0  0  0  0
  138.5740   73.4770  223.0860 H   0  0  0  0  0  0  0  0  0  0  0  0
  138.4057   72.7302  220.2176 H   0  0  0  0  0  0  0  0  0  0  0  0
  137.8427   74.3448  221.0167 H   0  0  0  0  0  0  0  0  0  0  0  0
  141.9376   72.3896  220.8926 H   0  0  0  0  0  0  0  0  0  0  0  0
  141.6962   72.5658  219.1714 H   0  0  0  0  0  0  0  0  0  0  0  0
  143.9363   73.6232  220.9047 H   0  0  0  0  0  0  0  0  0  0  0  0
  143.9695   73.4111  219.1652 H   0  0  0  0  0  0  0  0  0  0  0  0
  143.8524   75.9561  220.0932 H   0  0  0  0  0  0  0  0  0  0  0  0
  142.7527   75.6461  218.8198 H   0  0  0  0  0  0  0  0  0  0  0  0
  142.2135   75.1785  221.9024 H   0  0  0  0  0  0  0  0  0  0  0  0
  140.0294   75.6564  222.7133 H   0  0  0  0  0  0  0  0  0  0  0  0
  139.0663   77.7720  223.4906 H   0  0  0  0  0  0  0  0  0  0  0  0
  141.6379   79.9174  220.8361 H   0  0  0  0  0  0  0  0  0  0  0  0
  142.5977   77.8151  220.0587 H   0  0  0  0  0  0  0  0  0  0  0  0
  138.7127   69.3014  222.8884 H   0  0  0  0  0  0  0  0  0  0  0  0
  139.0546   68.1610  225.0961 H   0  0  0  0  0  0  0  0  0  0  0  0
  139.8331   68.2049  227.2935 H   0  0  0  0  0  0  0  0  0  0  0  0
  140.9548   69.4424  229.1863 H   0  0  0  0  0  0  0  0  0  0  0  0
  141.3697   72.8988  226.6612 H   0  0  0  0  0  0  0  0  0  0  0  0
  1  2  2  0
  2  3  1  0
  3  4  1  0
  4  5  1  0
  5  6  2  0
  5  7  1  0
  7  8  1  0
  8  9  1  0
  9 10  1  0
 10 11  1  0
 11 12  1  0
 12 13  2  0
 13 14  1  0
 14 15  2  0
 15 16  1  0
 15 17  1  0
 17 18  2  0
  2 19  1  0
 19 20  2  0
 20 21  1  0
 21 22  2  0
 22 23  1  0
 23 24  2  0
 24 25  1  0
 25 26  1  0
 25 27  2  0
 27 28  1  0
 28 29  2  0
 11  7  1  0
 18 12  1  0
 29 19  1  0
 28 22  1  0
  3 30  1  0
  4 31  1  0
  4 32  1  0
  8 33  1  0
  8 34  1  0
  9 35  1  0
  9 36  1  0
 10 37  1  0
 10 38  1  0
 11 39  1  1
 13 40  1  0
 14 41  1  0
 17 42  1  0
 18 43  1  0
 20 44  1  0
 21 45  1  0
 23 46  1  0
 24 47  1  0
 27 48  1  0
M  END
>  <smiles>  (30) 
O=C(NCC(=O)N1CCC[C@H]1c1ccc(Cl)cc1)c1ccc2ccc(F)cc2n1

>  <score_type>  (30) 
oracle

>  <origin>  (30) 
autodockgpu

>  <m_score__min__energy>  (30) 
-8.5299999999999994

>  <m_primary>  (30) 
energy

>  <rmsd>  (30) 
2.244496452242261

>  <m_score__min__rmsd>  (30) 
2.244496452242261

>  <meeko>  (30) 
{"free_energy": -7.82, "intermolecular_energy": -9.31, "internal_energy": -1.6, "cluster_size": 16, "cluster_id": 1, "rank_in_cluster": 8}

>  <energy>  (30) 
-7.85

>  <cluster_rmsd>  (30) 
0.28

>  <cluster>  (30) 
4

$$$$

     RDKit          3D

 48 51  0  0  0  0  0  0  0  0999 V2000
  139.3980   71.2120  221.2100 O   0  0  0  0  0  0  0  0  0  0  0  0
  139.4630   71.8560  222.2910 C   0  0  0  0  0  0  0  0  0  0  0  0
  139.3230   73.3010  222.2040 N   0  0  0  0  0  0  0  0  0  0  0  0
  139.1270   73.8320  220.9080 C   0  0  0  0  0  0  0  0  0  0  0  0
  140.2070   73.8720  219.9500 C   0  0  0  0  0  0  0  0  0  0  0  0
  139.8240   73.7260  218.7100 O   0  0  0  0  0  0  0  0  0  0  0  0
  141.6040   74.0450  220.1500 N   0  0  0  0  0  0  0  0  0  0  0  0
  142.6890   73.0930  219.9190 C   0  0  0  0  0  0  0  0  0  0  0  0
  143.9300   74.0040  219.8880 C   0  0  0  0  0  0  0  0  0  0  0  0
  143.3280   75.4180  219.7090 C   0  0  0  0  0  0  0  0  0  0  0  0
  142.2010   75.2530  220.6840 C   0  0  1  0  0  0  0  0  0  0  0  0
  141.4610   76.3650  221.1100 C   0  0  0  0  0  0  0  0  0  0  0  0
  141.4930   77.5670  220.3850 C   0  0  0  0  0  0  0  0  0  0  0  0
  140.8040   78.6850  220.8010 C   0  0  0  0  0  0  0  0  0  0  0  0
  140.0480   78.6720  221.9540 C   0  0  0  0  0  0  0  0  0  0  0  0
  139.1620   80.0660  222.5110 Cl  0  0  0  0  0  0  0  0  0  0  0  0
  140.0100   77.4970  222.6720 C   0  0  0  0  0  0  0  0  0  0  0  0
  140.6970   76.3840  222.2560 C   0  0  0  0  0  0  0  0  0  0  0  0
  139.6690   71.2250  223.5870 C   0  0  0  0  0  0  0  0  0  0  0  0
  139.2160   69.9300  223.7300 C   0  0  0  0  0  0  0  0  0  0  0  0
  139.3870   69.2780  224.9510 C   0  0  0  0  0  0  0  0  0  0  0  0
  140.0110   69.9520  226.0000 C   0  0  0  0  0  0  0  0  0  0  0  0
  140.1590   69.2810  227.1760 C   0  0  0  0  0  0  0  0  0  0  0  0
  140.7820   69.9440  228.2350 C   0  0  0  0  0  0  0  0  0  0  0  0
  141.2160   71.2400  228.0400 C   0  0  0  0  0  0  0  0  0  0  0  0
  141.8200   71.8770  229.0710 F   0  0  0  0  0  0  0  0  0  0  0  0
  141.0540   71.8910  226.8430 C   0  0  0  0  0  0  0  0  0  0  0  0
  140.4330   71.2450  225.7750 C   0  0  0  0  0  0  0  0  0  0  0  0
  140.2740   71.8820  224.6000 N   0  0  0  0  0  0  0  0  0  0  0  0
  139.3660   73.7780  223.1160 H   0  0  0  0  0  0  0  0  0  0  0  0
  138.3213   73.2420  220.4467 H   0  0  0  0  0  0  0  0  0  0  0  0
  138.9414   74.8976  221.1084 H   0  0  0  0  0  0  0  0  0  0  0  0
  142.7547   72.3592  220.7358 H   0  0  0  0  0  0  0  0  0  0  0  0
  142.5608   72.4950  219.0047 H   0  0  0  0  0  0  0  0  0  0  0  0
  144.4952   73.9324  220.8290 H   0  0  0  0  0  0  0  0  0  0  0  0
  144.6420   73.7352  219.0938 H   0  0  0  0  0  0  0  0  0  0  0  0
  144.0272   76.2147  220.0030 H   0  0  0  0  0  0  0  0  0  0  0  0
  143.0574   75.7150  218.6850 H   0  0  0  0  0  0  0  0  0  0  0  0
  142.4796   75.1496  221.7431 H   0  0  0  0  0  0  0  0  0  0  0  0
  142.0847   77.6174  219.4591 H   0  0  0  0  0  0  0  0  0  0  0  0
  140.8580   79.6059  220.2018 H   0  0  0  0  0  0  0  0  0  0  0  0
  139.4171   77.4498  223.5973 H   0  0  0  0  0  0  0  0  0  0  0  0
  140.6349   75.4689  222.8632 H   0  0  0  0  0  0  0  0  0  0  0  0
  138.7251   69.4169  222.8899 H   0  0  0  0  0  0  0  0  0  0  0  0
  139.0339   68.2448  225.0848 H   0  0  0  0  0  0  0  0  0  0  0  0
  139.7985   68.2478  227.2880 H   0  0  0  0  0  0  0  0  0  0  0  0
  140.9241   69.4442  229.2045 H   0  0  0  0  0  0  0  0  0  0  0  0
  141.4145   72.9236  226.7260 H   0  0  0  0  0  0  0  0  0  0  0  0
  1  2  2  0
  2  3  1  0
  3  4  1  0
  4  5  1  0
  5  6  2  0
  5  7  1  0
  7  8  1  0
  8  9  1  0
  9 10  1  0
 10 11  1  0
 11 12  1  0
 12 13  2  0
 13 14  1  0
 14 15  2  0
 15 16  1  0
 15 17  1  0
 17 18  2  0
  2 19  1  0
 19 20  2  0
 20 21  1  0
 21 22  2  0
 22 23  1  0
 23 24  2  0
 24 25  1  0
 25 26  1  0
 25 27  2  0
 27 28  1  0
 28 29  2  0
 11  7  1  0
 18 12  1  0
 29 19  1  0
 28 22  1  0
  3 30  1  0
  4 31  1  0
  4 32  1  0
  8 33  1  0
  8 34  1  0
  9 35  1  0
  9 36  1  0
 10 37  1  0
 10 38  1  0
 11 39  1  1
 13 40  1  0
 14 41  1  0
 17 42  1  0
 18 43  1  0
 20 44  1  0
 21 45  1  0
 23 46  1  0
 24 47  1  0
 27 48  1  0
M  END
>  <smiles>  (31) 
O=C(NCC(=O)N1CCC[C@H]1c1ccc(Cl)cc1)c1ccc2ccc(F)cc2n1

>  <score_type>  (31) 
oracle

>  <origin>  (31) 
autodockgpu

>  <m_score__min__energy>  (31) 
-8.5299999999999994

>  <m_primary>  (31) 
energy

>  <rmsd>  (31) 
2.4599316652691265

>  <m_score__min__rmsd>  (31) 
2.4599316652691265

>  <meeko>  (31) 
{"free_energy": -7.72, "intermolecular_energy": -9.22, "internal_energy": -1.73, "cluster_size": 16, "cluster_id": 1, "rank_in_cluster": 12}

>  <energy>  (31) 
-7.85

>  <cluster_rmsd>  (31) 
0.3

>  <cluster>  (31) 
4

$$$$

     RDKit          3D

 48 51  0  0  0  0  0  0  0  0999 V2000
  141.2440   71.6760  221.4590 O   0  0  0  0  0  0  0  0  0  0  0  0
  140.4510   71.9310  222.4050 C   0  0  0  0  0  0  0  0  0  0  0  0
  139.8010   73.2320  222.3830 N   0  0  0  0  0  0  0  0  0  0  0  0
  140.1290   74.0750  221.2960 C   0  0  0  0  0  0  0  0  0  0  0  0
  140.5580   75.4370  221.5150 C   0  0  0  0  0  0  0  0  0  0  0  0
  139.9840   76.0180  222.5340 O   0  0  0  0  0  0  0  0  0  0  0  0
  141.4990   76.2280  220.8010 N   0  0  0  0  0  0  0  0  0  0  0  0
  142.5650   75.7930  219.8990 C   0  0  0  0  0  0  0  0  0  0  0  0
  142.9020   77.0870  219.1340 C   0  0  0  0  0  0  0  0  0  0  0  0
  141.6900   78.0010  219.4330 C   0  0  0  0  0  0  0  0  0  0  0  0
  141.5780   77.6720  220.8920 C   0  0  1  0  0  0  0  0  0  0  0  0
  140.7680   78.4440  221.7350 C   0  0  0  0  0  0  0  0  0  0  0  0
  141.2370   78.8690  222.9880 C   0  0  0  0  0  0  0  0  0  0  0  0
  140.4480   79.5980  223.8510 C   0  0  0  0  0  0  0  0  0  0  0  0
  139.1560   79.9450  223.5190 C   0  0  0  0  0  0  0  0  0  0  0  0
  138.1280   80.8670  224.5830 Cl  0  0  0  0  0  0  0  0  0  0  0  0
  138.6860   79.5330  222.2910 C   0  0  0  0  0  0  0  0  0  0  0  0
  139.4730   78.8060  221.4330 C   0  0  0  0  0  0  0  0  0  0  0  0
  140.1710   71.0000  223.4880 C   0  0  0  0  0  0  0  0  0  0  0  0
  139.1990   70.0490  223.2580 C   0  0  0  0  0  0  0  0  0  0  0  0
  138.8900   69.1310  224.2620 C   0  0  0  0  0  0  0  0  0  0  0  0
  139.5720   69.1980  225.4760 C   0  0  0  0  0  0  0  0  0  0  0  0
  139.2410   68.2850  226.4310 C   0  0  0  0  0  0  0  0  0  0  0  0
  139.9150   68.3390  227.6520 C   0  0  0  0  0  0  0  0  0  0  0  0
  140.8800   69.3100  227.8320 C   0  0  0  0  0  0  0  0  0  0  0  0
  141.5310   69.3580  229.0180 F   0  0  0  0  0  0  0  0  0  0  0  0
  141.1920   70.2180  226.8510 C   0  0  0  0  0  0  0  0  0  0  0  0
  140.5280   70.1790  225.6260 C   0  0  0  0  0  0  0  0  0  0  0  0
  140.8340   71.0680  224.6630 N   0  0  0  0  0  0  0  0  0  0  0  0
  139.1500   73.3840  223.1670 H   0  0  0  0  0  0  0  0  0  0  0  0
  140.9407   73.5757  220.7466 H   0  0  0  0  0  0  0  0  0  0  0  0
  139.1614   74.2042  220.7889 H   0  0  0  0  0  0  0  0  0  0  0  0
  143.4360   75.4250  220.4611 H   0  0  0  0  0  0  0  0  0  0  0  0
  142.2724   74.9593  219.2437 H   0  0  0  0  0  0  0  0  0  0  0  0
  143.8349   77.5344  219.5076 H   0  0  0  0  0  0  0  0  0  0  0  0
  143.0629   76.9225  218.0583 H   0  0  0  0  0  0  0  0  0  0  0  0
  141.9094   79.0642  219.2558 H   0  0  0  0  0  0  0  0  0  0  0  0
  140.7899   77.8459  218.8200 H   0  0  0  0  0  0  0  0  0  0  0  0
  142.4051   78.0072  221.5351 H   0  0  0  0  0  0  0  0  0  0  0  0
  142.2634   78.6128  223.2895 H   0  0  0  0  0  0  0  0  0  0  0  0
  140.8571   79.9090  224.8236 H   0  0  0  0  0  0  0  0  0  0  0  0
  137.6595   79.7919  221.9923 H   0  0  0  0  0  0  0  0  0  0  0  0
  139.0525   78.4995  220.4639 H   0  0  0  0  0  0  0  0  0  0  0  0
  138.6727   70.0147  222.2927 H   0  0  0  0  0  0  0  0  0  0  0  0
  138.1184   68.3644  224.0979 H   0  0  0  0  0  0  0  0  0  0  0  0
  138.4653   67.5274  226.2454 H   0  0  0  0  0  0  0  0  0  0  0  0
  139.6823   67.6230  228.4540 H   0  0  0  0  0  0  0  0  0  0  0  0
  141.9670   70.9774  227.0318 H   0  0  0  0  0  0  0  0  0  0  0  0
  1  2  2  0
  2  3  1  0
  3  4  1  0
  4  5  1  0
  5  6  2  0
  5  7  1  0
  7  8  1  0
  8  9  1  0
  9 10  1  0
 10 11  1  0
 11 12  1  0
 12 13  2  0
 13 14  1  0
 14 15  2  0
 15 16  1  0
 15 17  1  0
 17 18  2  0
  2 19  1  0
 19 20  2  0
 20 21  1  0
 21 22  2  0
 22 23  1  0
 23 24  2  0
 24 25  1  0
 25 26  1  0
 25 27  2  0
 27 28  1  0
 28 29  2  0
 11  7  1  0
 18 12  1  0
 29 19  1  0
 28 22  1  0
  3 30  1  0
  4 31  1  0
  4 32  1  0
  8 33  1  0
  8 34  1  0
  9 35  1  0
  9 36  1  0
 10 37  1  0
 10 38  1  0
 11 39  1  1
 13 40  1  0
 14 41  1  0
 17 42  1  0
 18 43  1  0
 20 44  1  0
 21 45  1  0
 23 46  1  0
 24 47  1  0
 27 48  1  0
M  END
>  <smiles>  (32) 
O=C(NCC(=O)N1CCC[C@H]1c1ccc(Cl)cc1)c1ccc2ccc(F)cc2n1

>  <score_type>  (32) 
oracle

>  <origin>  (32) 
autodockgpu

>  <m_score__min__energy>  (32) 
-8.5299999999999994

>  <m_primary>  (32) 
energy

>  <rmsd>  (32) 
2.1069169035032482

>  <m_score__min__rmsd>  (32) 
2.1069169035032482

>  <meeko>  (32) 
{"free_energy": -8.41, "intermolecular_energy": -9.91, "internal_energy": -1.11, "cluster_size": 16, "cluster_id": 1, "rank_in_cluster": 5}

>  <energy>  (32) 
-7.78

>  <cluster_rmsd>  (32) 
0.5

>  <cluster>  (32) 
4

$$$$

     RDKit          3D

 48 51  0  0  0  0  0  0  0  0999 V2000
  139.3490   71.2320  221.1080 O   0  0  0  0  0  0  0  0  0  0  0  0
  139.3320   71.8510  222.2060 C   0  0  0  0  0  0  0  0  0  0  0  0
  139.0560   73.2780  222.1520 N   0  0  0  0  0  0  0  0  0  0  0  0
  138.8340   73.8210  220.8640 C   0  0  0  0  0  0  0  0  0  0  0  0
  139.9350   74.0590  219.9590 C   0  0  0  0  0  0  0  0  0  0  0  0
  139.5670   74.3270  218.7350 O   0  0  0  0  0  0  0  0  0  0  0  0
  141.3360   74.0480  220.1960 N   0  0  0  0  0  0  0  0  0  0  0  0
  142.2970   72.9690  219.9660 C   0  0  0  0  0  0  0  0  0  0  0  0
  143.6450   73.7140  219.9880 C   0  0  0  0  0  0  0  0  0  0  0  0
  143.2330   75.1980  219.8310 C   0  0  0  0  0  0  0  0  0  0  0  0
  142.0680   75.1560  220.7750 C   0  0  1  0  0  0  0  0  0  0  0  0
  141.4650   76.3440  221.2120 C   0  0  0  0  0  0  0  0  0  0  0  0
  141.7480   77.5660  220.5810 C   0  0  0  0  0  0  0  0  0  0  0  0
  141.1970   78.7520  221.0130 C   0  0  0  0  0  0  0  0  0  0  0  0
  140.3380   78.7920  222.0910 C   0  0  0  0  0  0  0  0  0  0  0  0
  139.6200   80.2720  222.6660 Cl  0  0  0  0  0  0  0  0  0  0  0  0
  140.0540   77.5970  222.7170 C   0  0  0  0  0  0  0  0  0  0  0  0
  140.6040   76.4160  222.2860 C   0  0  0  0  0  0  0  0  0  0  0  0
  139.5720   71.2090  223.4900 C   0  0  0  0  0  0  0  0  0  0  0  0
  139.2030   69.8850  223.6050 C   0  0  0  0  0  0  0  0  0  0  0  0
  139.4100   69.2200  224.8140 C   0  0  0  0  0  0  0  0  0  0  0  0
  139.9850   69.9120  225.8790 C   0  0  0  0  0  0  0  0  0  0  0  0
  140.1700   69.2280  227.0430 C   0  0  0  0  0  0  0  0  0  0  0  0
  140.7450   69.9080  228.1180 C   0  0  0  0  0  0  0  0  0  0  0  0
  141.0960   71.2320  227.9520 C   0  0  0  0  0  0  0  0  0  0  0  0
  141.6530   71.8860  228.9980 F   0  0  0  0  0  0  0  0  0  0  0  0
  140.8980   71.8960  226.7670 C   0  0  0  0  0  0  0  0  0  0  0  0
  140.3240   71.2330  225.6820 C   0  0  0  0  0  0  0  0  0  0  0  0
  140.1290   71.8820  224.5200 N   0  0  0  0  0  0  0  0  0  0  0  0
  139.0350   73.7330  223.0750 H   0  0  0  0  0  0  0  0  0  0  0  0
  138.1477   73.1333  220.3482 H   0  0  0  0  0  0  0  0  0  0  0  0
  138.4787   74.8379  221.0870 H   0  0  0  0  0  0  0  0  0  0  0  0
  142.2465   72.2145  220.7649 H   0  0  0  0  0  0  0  0  0  0  0  0
  142.1179   72.4132  219.0338 H   0  0  0  0  0  0  0  0  0  0  0  0
  144.1709   73.5495  220.9400 H   0  0  0  0  0  0  0  0  0  0  0  0
  144.3381   73.3740  219.2044 H   0  0  0  0  0  0  0  0  0  0  0  0
  144.0198   75.8919  220.1619 H   0  0  0  0  0  0  0  0  0  0  0  0
  143.0302   75.5505  218.8089 H   0  0  0  0  0  0  0  0  0  0  0  0
  142.3030   74.9924  221.8371 H   0  0  0  0  0  0  0  0  0  0  0  0
  142.4290   77.5764  219.7172 H   0  0  0  0  0  0  0  0  0  0  0  0
  141.4471   79.6856  220.4878 H   0  0  0  0  0  0  0  0  0  0  0  0
  139.3722   77.5901  223.5801 H   0  0  0  0  0  0  0  0  0  0  0  0
  140.3473   75.4889  222.8194 H   0  0  0  0  0  0  0  0  0  0  0  0
  138.7500   69.3586  222.7520 H   0  0  0  0  0  0  0  0  0  0  0  0
  139.1234   68.1639  224.9254 H   0  0  0  0  0  0  0  0  0  0  0  0
  139.8752   68.1721  227.1328 H   0  0  0  0  0  0  0  0  0  0  0  0
  140.9148   69.3986  229.0780 H   0  0  0  0  0  0  0  0  0  0  0  0
  141.1922   72.9517  226.6728 H   0  0  0  0  0  0  0  0  0  0  0  0
  1  2  2  0
  2  3  1  0
  3  4  1  0
  4  5  1  0
  5  6  2  0
  5  7  1  0
  7  8  1  0
  8  9  1  0
  9 10  1  0
 10 11  1  0
 11 12  1  0
 12 13  2  0
 13 14  1  0
 14 15  2  0
 15 16  1  0
 15 17  1  0
 17 18  2  0
  2 19  1  0
 19 20  2  0
 20 21  1  0
 21 22  2  0
 22 23  1  0
 23 24  2  0
 24 25  1  0
 25 26  1  0
 25 27  2  0
 27 28  1  0
 28 29  2  0
 11  7  1  0
 18 12  1  0
 29 19  1  0
 28 22  1  0
  3 30  1  0
  4 31  1  0
  4 32  1  0
  8 33  1  0
  8 34  1  0
  9 35  1  0
  9 36  1  0
 10 37  1  0
 10 38  1  0
 11 39  1  1
 13 40  1  0
 14 41  1  0
 17 42  1  0
 18 43  1  0
 20 44  1  0
 21 45  1  0
 23 46  1  0
 24 47  1  0
 27 48  1  0
M  END
>  <smiles>  (33) 
O=C(NCC(=O)N1CCC[C@H]1c1ccc(Cl)cc1)c1ccc2ccc(F)cc2n1

>  <score_type>  (33) 
oracle

>  <origin>  (33) 
autodockgpu

>  <m_score__min__energy>  (33) 
-8.5299999999999994

>  <m_primary>  (33) 
energy

>  <rmsd>  (33) 
2.391686248258005

>  <m_score__min__rmsd>  (33) 
2.391686248258005

>  <meeko>  (33) 
{"free_energy": -7.75, "intermolecular_energy": -9.24, "internal_energy": -1.77, "cluster_size": 16, "cluster_id": 1, "rank_in_cluster": 10}

>  <energy>  (33) 
-7.72

>  <cluster_rmsd>  (33) 
1.45

>  <cluster>  (33) 
4

$$$$

     RDKit          3D

 48 51  0  0  0  0  0  0  0  0999 V2000
  139.8300   71.4540  221.0950 O   0  0  0  0  0  0  0  0  0  0  0  0
  139.7580   72.0470  222.2030 C   0  0  0  0  0  0  0  0  0  0  0  0
  139.6310   73.4960  222.1670 N   0  0  0  0  0  0  0  0  0  0  0  0
  139.6020   74.0870  220.8810 C   0  0  0  0  0  0  0  0  0  0  0  0
  140.7340   73.9840  219.9900 C   0  0  0  0  0  0  0  0  0  0  0  0
  140.4220   74.0620  218.7240 O   0  0  0  0  0  0  0  0  0  0  0  0
  142.1160   73.8160  220.2790 N   0  0  0  0  0  0  0  0  0  0  0  0
  142.8030   72.6460  220.8260 C   0  0  0  0  0  0  0  0  0  0  0  0
  144.2750   72.9320  220.4770 C   0  0  0  0  0  0  0  0  0  0  0  0
  144.1770   74.0530  219.4150 C   0  0  0  0  0  0  0  0  0  0  0  0
  143.1110   74.8540  220.1040 C   0  0  1  0  0  0  0  0  0  0  0  0
  142.8130   76.1550  219.6770 C   0  0  0  0  0  0  0  0  0  0  0  0
  141.9980   76.9940  220.4540 C   0  0  0  0  0  0  0  0  0  0  0  0
  141.6590   78.2640  220.0410 C   0  0  0  0  0  0  0  0  0  0  0  0
  142.1100   78.7700  218.8400 C   0  0  0  0  0  0  0  0  0  0  0  0
  141.7040   80.3720  218.2850 Cl  0  0  0  0  0  0  0  0  0  0  0  0
  142.9100   77.9540  218.0710 C   0  0  0  0  0  0  0  0  0  0  0  0
  143.2460   76.6890  218.4830 C   0  0  0  0  0  0  0  0  0  0  0  0
  139.7970   71.3570  223.4850 C   0  0  0  0  0  0  0  0  0  0  0  0
  139.1520   70.1400  223.5580 C   0  0  0  0  0  0  0  0  0  0  0  0
  139.1570   69.4350  224.7620 C   0  0  0  0  0  0  0  0  0  0  0  0
  139.8150   69.9790  225.8640 C   0  0  0  0  0  0  0  0  0  0  0  0
  139.7970   69.2610  227.0220 C   0  0  0  0  0  0  0  0  0  0  0  0
  140.4510   69.7940  228.1330 C   0  0  0  0  0  0  0  0  0  0  0  0
  141.0810   71.0150  228.0080 C   0  0  0  0  0  0  0  0  0  0  0  0
  141.7140   71.5270  229.0900 F   0  0  0  0  0  0  0  0  0  0  0  0
  141.0830   71.7170  226.8290 C   0  0  0  0  0  0  0  0  0  0  0  0
  140.4340   71.2010  225.7080 C   0  0  0  0  0  0  0  0  0  0  0  0
  140.4350   71.8880  224.5500 N   0  0  0  0  0  0  0  0  0  0  0  0
  139.5580   73.9310  223.0970 H   0  0  0  0  0  0  0  0  0  0  0  0
  138.7459   73.6430  220.3518 H   0  0  0  0  0  0  0  0  0  0  0  0
  139.5706   75.1626  221.1094 H   0  0  0  0  0  0  0  0  0  0  0  0
  142.6592   72.5730  221.9141 H   0  0  0  0  0  0  0  0  0  0  0  0
  142.4336   71.6917  220.4225 H   0  0  0  0  0  0  0  0  0  0  0  0
  144.8305   73.2752  221.3623 H   0  0  0  0  0  0  0  0  0  0  0  0
  144.8127   72.0428  220.1163 H   0  0  0  0  0  0  0  0  0  0  0  0
  145.1181   74.6113  219.3025 H   0  0  0  0  0  0  0  0  0  0  0  0
  143.9703   73.7391  218.3812 H   0  0  0  0  0  0  0  0  0  0  0  0
  143.3911   75.3302  221.0552 H   0  0  0  0  0  0  0  0  0  0  0  0
  141.6196   76.6270  221.4195 H   0  0  0  0  0  0  0  0  0  0  0  0
  141.0164   78.8861  220.6814 H   0  0  0  0  0  0  0  0  0  0  0  0
  143.2875   78.3242  217.1064 H   0  0  0  0  0  0  0  0  0  0  0  0
  143.8876   76.0759  217.8331 H   0  0  0  0  0  0  0  0  0  0  0  0
  138.6388   69.7294  222.6759 H   0  0  0  0  0  0  0  0  0  0  0  0
  138.6485   68.4628  224.8406 H   0  0  0  0  0  0  0  0  0  0  0  0
  139.2823   68.2905  227.0790 H   0  0  0  0  0  0  0  0  0  0  0  0
  140.4641   69.2515  229.0898 H   0  0  0  0  0  0  0  0  0  0  0  0
  141.5970   72.6876  226.7682 H   0  0  0  0  0  0  0  0  0  0  0  0
  1  2  2  0
  2  3  1  0
  3  4  1  0
  4  5  1  0
  5  6  2  0
  5  7  1  0
  7  8  1  0
  8  9  1  0
  9 10  1  0
 10 11  1  0
 11 12  1  0
 12 13  2  0
 13 14  1  0
 14 15  2  0
 15 16  1  0
 15 17  1  0
 17 18  2  0
  2 19  1  0
 19 20  2  0
 20 21  1  0
 21 22  2  0
 22 23  1  0
 23 24  2  0
 24 25  1  0
 25 26  1  0
 25 27  2  0
 27 28  1  0
 28 29  2  0
 11  7  1  0
 18 12  1  0
 29 19  1  0
 28 22  1  0
  3 30  1  0
  4 31  1  0
  4 32  1  0
  8 33  1  0
  8 34  1  0
  9 35  1  0
  9 36  1  0
 10 37  1  0
 10 38  1  0
 11 39  1  1
 13 40  1  0
 14 41  1  0
 17 42  1  0
 18 43  1  0
 20 44  1  0
 21 45  1  0
 23 46  1  0
 24 47  1  0
 27 48  1  0
M  END
>  <smiles>  (34) 
O=C(NCC(=O)N1CCC[C@H]1c1ccc(Cl)cc1)c1ccc2ccc(F)cc2n1

>  <score_type>  (34) 
oracle

>  <origin>  (34) 
autodockgpu

>  <m_score__min__energy>  (34) 
-8.5299999999999994

>  <m_primary>  (34) 
energy

>  <rmsd>  (34) 
2.9853336996213975

>  <m_score__min__rmsd>  (34) 
2.9853336996213975

>  <meeko>  (34) 
{"free_energy": -7.89, "intermolecular_energy": -9.38, "internal_energy": -1.61, "cluster_size": 11, "cluster_id": 4, "rank_in_cluster": 3}

>  <energy>  (34) 
-7.85

>  <cluster_rmsd>  (34) 
0.0

>  <cluster>  (34) 
5

$$$$

     RDKit          3D

 48 51  0  0  0  0  0  0  0  0999 V2000
  137.2090   70.8890  221.4230 O   0  0  0  0  0  0  0  0  0  0  0  0
  137.7180   71.7250  222.2150 C   0  0  0  0  0  0  0  0  0  0  0  0
  137.1500   71.7940  223.5520 N   0  0  0  0  0  0  0  0  0  0  0  0
  136.0810   70.9080  223.8210 C   0  0  0  0  0  0  0  0  0  0  0  0
  136.3090   69.4880  223.9600 C   0  0  0  0  0  0  0  0  0  0  0  0
  135.5340   68.9080  224.8370 O   0  0  0  0  0  0  0  0  0  0  0  0
  137.2350   68.6390  223.2940 N   0  0  0  0  0  0  0  0  0  0  0  0
  136.9820   67.6440  222.2520 C   0  0  0  0  0  0  0  0  0  0  0  0
  138.3860   67.4180  221.6620 C   0  0  0  0  0  0  0  0  0  0  0  0
  139.1940   68.6260  222.1930 C   0  0  0  0  0  0  0  0  0  0  0  0
  138.6530   68.5970  223.5910 C   0  0  1  0  0  0  0  0  0  0  0  0
  139.2590   69.3530  224.6040 C   0  0  0  0  0  0  0  0  0  0  0  0
  139.1450   68.9690  225.9500 C   0  0  0  0  0  0  0  0  0  0  0  0
  139.7000   69.7130  226.9680 C   0  0  0  0  0  0  0  0  0  0  0  0
  140.3970   70.8750  226.7080 C   0  0  0  0  0  0  0  0  0  0  0  0
  141.1140   71.8420  227.9670 Cl  0  0  0  0  0  0  0  0  0  0  0  0
  140.5130   71.2590  225.3890 C   0  0  0  0  0  0  0  0  0  0  0  0
  139.9590   70.5170  224.3770 C   0  0  0  0  0  0  0  0  0  0  0  0
  138.8230   72.6020  221.8520 C   0  0  0  0  0  0  0  0  0  0  0  0
  138.5810   73.9590  221.8900 C   0  0  0  0  0  0  0  0  0  0  0  0
  139.6040   74.8450  221.5530 C   0  0  0  0  0  0  0  0  0  0  0  0
  140.8490   74.3360  221.1840 C   0  0  0  0  0  0  0  0  0  0  0  0
  141.8220   75.2330  220.8610 C   0  0  0  0  0  0  0  0  0  0  0  0
  143.0730   74.7380  220.4900 C   0  0  0  0  0  0  0  0  0  0  0  0
  143.2630   73.3710  220.4680 C   0  0  0  0  0  0  0  0  0  0  0  0
  144.4790   72.8970  220.1070 F   0  0  0  0  0  0  0  0  0  0  0  0
  142.2640   72.4910  220.7990 C   0  0  0  0  0  0  0  0  0  0  0  0
  141.0080   72.9670  221.1710 C   0  0  0  0  0  0  0  0  0  0  0  0
  140.0270   72.1050  221.4960 N   0  0  0  0  0  0  0  0  0  0  0  0
  137.6130   72.4790  224.1660 H   0  0  0  0  0  0  0  0  0  0  0  0
  135.6247   71.2453  224.7633 H   0  0  0  0  0  0  0  0  0  0  0  0
  135.4798   70.9678  222.9018 H   0  0  0  0  0  0  0  0  0  0  0  0
  136.5756   66.7153  222.6790 H   0  0  0  0  0  0  0  0  0  0  0  0
  136.2393   67.9667  221.5075 H   0  0  0  0  0  0  0  0  0  0  0  0
  138.8151   66.4698  222.0181 H   0  0  0  0  0  0  0  0  0  0  0  0
  138.3856   67.3495  220.5641 H   0  0  0  0  0  0  0  0  0  0  0  0
  140.2802   68.4559  222.1571 H   0  0  0  0  0  0  0  0  0  0  0  0
  139.0905   69.5721  221.6414 H   0  0  0  0  0  0  0  0  0  0  0  0
  138.9273   67.7266  224.2052 H   0  0  0  0  0  0  0  0  0  0  0  0
  138.5971   68.0481  226.1985 H   0  0  0  0  0  0  0  0  0  0  0  0
  139.5852   69.3741  228.0082 H   0  0  0  0  0  0  0  0  0  0  0  0
  141.0616   72.1801  225.1429 H   0  0  0  0  0  0  0  0  0  0  0  0
  140.0789   70.8663  223.3409 H   0  0  0  0  0  0  0  0  0  0  0  0
  137.5911   74.3388  222.1831 H   0  0  0  0  0  0  0  0  0  0  0  0
  139.4312   75.9311  221.5779 H   0  0  0  0  0  0  0  0  0  0  0  0
  141.6275   76.3152  220.8917 H   0  0  0  0  0  0  0  0  0  0  0  0
  143.8905   75.4229  220.2207 H   0  0  0  0  0  0  0  0  0  0  0  0
  142.4546   71.4080  220.7708 H   0  0  0  0  0  0  0  0  0  0  0  0
  1  2  2  0
  2  3  1  0
  3  4  1  0
  4  5  1  0
  5  6  2  0
  5  7  1  0
  7  8  1  0
  8  9  1  0
  9 10  1  0
 10 11  1  0
 11 12  1  0
 12 13  2  0
 13 14  1  0
 14 15  2  0
 15 16  1  0
 15 17  1  0
 17 18  2  0
  2 19  1  0
 19 20  2  0
 20 21  1  0
 21 22  2  0
 22 23  1  0
 23 24  2  0
 24 25  1  0
 25 26  1  0
 25 27  2  0
 27 28  1  0
 28 29  2  0
 11  7  1  0
 18 12  1  0
 29 19  1  0
 28 22  1  0
  3 30  1  0
  4 31  1  0
  4 32  1  0
  8 33  1  0
  8 34  1  0
  9 35  1  0
  9 36  1  0
 10 37  1  0
 10 38  1  0
 11 39  1  1
 13 40  1  0
 14 41  1  0
 17 42  1  0
 18 43  1  0
 20 44  1  0
 21 45  1  0
 23 46  1  0
 24 47  1  0
 27 48  1  0
M  END
>  <smiles>  (35) 
O=C(NCC(=O)N1CCC[C@H]1c1ccc(Cl)cc1)c1ccc2ccc(F)cc2n1

>  <score_type>  (35) 
oracle

>  <origin>  (35) 
autodockgpu

>  <m_score__min__energy>  (35) 
-8.5299999999999994

>  <m_primary>  (35) 
energy

>  <rmsd>  (35) 
7.413316743861867

>  <m_score__min__rmsd>  (35) 
7.413316743861867

>  <meeko>  (35) 
{"free_energy": -7.12, "intermolecular_energy": -8.61, "internal_energy": -2.33, "cluster_size": 4, "cluster_id": 9, "rank_in_cluster": 2}

>  <energy>  (35) 
-7.81

>  <cluster_rmsd>  (35) 
0.13

>  <cluster>  (35) 
5

$$$$

     RDKit          3D

 48 51  0  0  0  0  0  0  0  0999 V2000
  141.3500   71.8200  221.6690 O   0  0  0  0  0  0  0  0  0  0  0  0
  140.4100   71.9280  222.5000 C   0  0  0  0  0  0  0  0  0  0  0  0
  139.5610   73.1030  222.3820 N   0  0  0  0  0  0  0  0  0  0  0  0
  139.8850   74.0040  221.3410 C   0  0  0  0  0  0  0  0  0  0  0  0
  140.4020   75.3220  221.6320 C   0  0  0  0  0  0  0  0  0  0  0  0
  139.9080   75.8580  222.7160 O   0  0  0  0  0  0  0  0  0  0  0  0
  141.3540   76.1090  220.9290 N   0  0  0  0  0  0  0  0  0  0  0  0
  142.4120   75.6730  220.0190 C   0  0  0  0  0  0  0  0  0  0  0  0
  142.7670   76.9730  219.2740 C   0  0  0  0  0  0  0  0  0  0  0  0
  141.5700   77.9010  219.5900 C   0  0  0  0  0  0  0  0  0  0  0  0
  141.4550   77.5500  221.0440 C   0  0  1  0  0  0  0  0  0  0  0  0
  140.6580   78.3210  221.9000 C   0  0  0  0  0  0  0  0  0  0  0  0
  139.3060   78.5570  221.6020 C   0  0  0  0  0  0  0  0  0  0  0  0
  138.5090   79.3410  222.4080 C   0  0  0  0  0  0  0  0  0  0  0  0
  139.0070   79.9300  223.5500 C   0  0  0  0  0  0  0  0  0  0  0  0
  138.0310   80.9270  224.5950 Cl  0  0  0  0  0  0  0  0  0  0  0  0
  140.3330   79.7040  223.8510 C   0  0  0  0  0  0  0  0  0  0  0  0
  141.1250   78.9240  223.0470 C   0  0  0  0  0  0  0  0  0  0  0  0
  140.1470   70.9480  223.5440 C   0  0  0  0  0  0  0  0  0  0  0  0
  139.2360   69.9540  223.2530 C   0  0  0  0  0  0  0  0  0  0  0  0
  138.9470   68.9890  224.2170 C   0  0  0  0  0  0  0  0  0  0  0  0
  139.5870   69.0510  225.4550 C   0  0  0  0  0  0  0  0  0  0  0  0
  139.2770   68.0910  226.3700 C   0  0  0  0  0  0  0  0  0  0  0  0
  139.9100   68.1420  227.6120 C   0  0  0  0  0  0  0  0  0  0  0  0
  140.8140   69.1570  227.8540 C   0  0  0  0  0  0  0  0  0  0  0  0
  141.4250   69.2010  229.0610 F   0  0  0  0  0  0  0  0  0  0  0  0
  141.1060   70.1110  226.9120 C   0  0  0  0  0  0  0  0  0  0  0  0
  140.4840   70.0770  225.6660 C   0  0  0  0  0  0  0  0  0  0  0  0
  140.7690   71.0130  224.7410 N   0  0  0  0  0  0  0  0  0  0  0  0
  138.7970   73.1350  223.0720 H   0  0  0  0  0  0  0  0  0  0  0  0
  140.6395   73.5027  220.7169 H   0  0  0  0  0  0  0  0  0  0  0  0
  138.9033   74.2219  220.8951 H   0  0  0  0  0  0  0  0  0  0  0  0
  143.2782   75.2836  220.5739 H   0  0  0  0  0  0  0  0  0  0  0  0
  142.1063   74.8542  219.3511 H   0  0  0  0  0  0  0  0  0  0  0  0
  143.7075   77.4000  219.6523 H   0  0  0  0  0  0  0  0  0  0  0  0
  142.9229   76.8228  218.1955 H   0  0  0  0  0  0  0  0  0  0  0  0
  141.8059   78.9634  219.4297 H   0  0  0  0  0  0  0  0  0  0  0  0
  140.6666   77.7701  218.9762 H   0  0  0  0  0  0  0  0  0  0  0  0
  142.2875   77.8612  221.6922 H   0  0  0  0  0  0  0  0  0  0  0  0
  138.8707   78.1031  220.6995 H   0  0  0  0  0  0  0  0  0  0  0  0
  137.4554   79.4996  222.1345 H   0  0  0  0  0  0  0  0  0  0  0  0
  140.7651   80.1585  224.7547 H   0  0  0  0  0  0  0  0  0  0  0  0
  142.1772   78.7738  223.3302 H   0  0  0  0  0  0  0  0  0  0  0  0
  138.7425   69.9230  222.2704 H   0  0  0  0  0  0  0  0  0  0  0  0
  138.2232   68.1886  224.0039 H   0  0  0  0  0  0  0  0  0  0  0  0
  138.5496   67.2995  226.1367 H   0  0  0  0  0  0  0  0  0  0  0  0
  139.6932   67.3884  228.3834 H   0  0  0  0  0  0  0  0  0  0  0  0
  141.8328   70.9043  227.1412 H   0  0  0  0  0  0  0  0  0  0  0  0
  1  2  2  0
  2  3  1  0
  3  4  1  0
  4  5  1  0
  5  6  2  0
  5  7  1  0
  7  8  1  0
  8  9  1  0
  9 10  1  0
 10 11  1  0
 11 12  1  0
 12 13  2  0
 13 14  1  0
 14 15  2  0
 15 16  1  0
 15 17  1  0
 17 18  2  0
  2 19  1  0
 19 20  2  0
 20 21  1  0
 21 22  2  0
 22 23  1  0
 23 24  2  0
 24 25  1  0
 25 26  1  0
 25 27  2  0
 27 28  1  0
 28 29  2  0
 11  7  1  0
 18 12  1  0
 29 19  1  0
 28 22  1  0
  3 30  1  0
  4 31  1  0
  4 32  1  0
  8 33  1  0
  8 34  1  0
  9 35  1  0
  9 36  1  0
 10 37  1  0
 10 38  1  0
 11 39  1  1
 13 40  1  0
 14 41  1  0
 17 42  1  0
 18 43  1  0
 20 44  1  0
 21 45  1  0
 23 46  1  0
 24 47  1  0
 27 48  1  0
M  END
>  <smiles>  (36) 
O=C(NCC(=O)N1CCC[C@H]1c1ccc(Cl)cc1)c1ccc2ccc(F)cc2n1

>  <score_type>  (36) 
oracle

>  <origin>  (36) 
autodockgpu

>  <m_score__min__energy>  (36) 
-8.5299999999999994

>  <m_primary>  (36) 
energy

>  <rmsd>  (36) 
2.051914966412643

>  <m_score__min__rmsd>  (36) 
2.051914966412643

>  <meeko>  (36) 
{"free_energy": -8.53, "intermolecular_energy": -10.02, "internal_energy": -1.11, "cluster_size": 16, "cluster_id": 1, "rank_in_cluster": 1}

>  <energy>  (36) 
-7.72

>  <cluster_rmsd>  (36) 
0.29

>  <cluster>  (36) 
5

$$$$

     RDKit          3D

 48 51  0  0  0  0  0  0  0  0999 V2000
  139.6060   71.3420  221.0810 O   0  0  0  0  0  0  0  0  0  0  0  0
  139.6530   71.9460  222.1850 C   0  0  0  0  0  0  0  0  0  0  0  0
  139.5700   73.3980  222.1430 N   0  0  0  0  0  0  0  0  0  0  0  0
  139.4430   73.9780  220.8590 C   0  0  0  0  0  0  0  0  0  0  0  0
  140.6060   74.2300  220.0390 C   0  0  0  0  0  0  0  0  0  0  0  0
  140.3330   74.7630  218.8790 O   0  0  0  0  0  0  0  0  0  0  0  0
  141.9820   73.9910  220.3030 N   0  0  0  0  0  0  0  0  0  0  0  0
  142.6170   72.7890  220.8430 C   0  0  0  0  0  0  0  0  0  0  0  0
  144.0960   72.9960  220.4650 C   0  0  0  0  0  0  0  0  0  0  0  0
  144.0370   74.1160  219.3990 C   0  0  0  0  0  0  0  0  0  0  0  0
  143.0280   74.9740  220.1040 C   0  0  1  0  0  0  0  0  0  0  0  0
  142.7900   76.2870  219.6760 C   0  0  0  0  0  0  0  0  0  0  0  0
  142.0550   77.1790  220.4740 C   0  0  0  0  0  0  0  0  0  0  0  0
  141.7760   78.4630  220.0620 C   0  0  0  0  0  0  0  0  0  0  0  0
  142.2090   78.9330  218.8410 C   0  0  0  0  0  0  0  0  0  0  0  0
  141.8770   80.5510  218.2850 Cl  0  0  0  0  0  0  0  0  0  0  0  0
  142.9310   78.0660  218.0500 C   0  0  0  0  0  0  0  0  0  0  0  0
  143.2080   76.7860  218.4620 C   0  0  0  0  0  0  0  0  0  0  0  0
  139.7840   71.2660  223.4660 C   0  0  0  0  0  0  0  0  0  0  0  0
  139.2830   69.9840  223.5460 C   0  0  0  0  0  0  0  0  0  0  0  0
  139.3830   69.2850  224.7490 C   0  0  0  0  0  0  0  0  0  0  0  0
  139.9860   69.9020  225.8440 C   0  0  0  0  0  0  0  0  0  0  0  0
  140.0630   69.1880  227.0010 C   0  0  0  0  0  0  0  0  0  0  0  0
  140.6650   69.7920  228.1060 C   0  0  0  0  0  0  0  0  0  0  0  0
  141.1500   71.0780  227.9740 C   0  0  0  0  0  0  0  0  0  0  0  0
  141.7330   71.6590  229.0490 F   0  0  0  0  0  0  0  0  0  0  0  0
  141.0580   71.7740  226.7950 C   0  0  0  0  0  0  0  0  0  0  0  0
  140.4600   71.1860  225.6810 C   0  0  0  0  0  0  0  0  0  0  0  0
  140.3700   71.8670  224.5240 N   0  0  0  0  0  0  0  0  0  0  0  0
  139.5940   73.8430  223.0710 H   0  0  0  0  0  0  0  0  0  0  0  0
  138.7887   73.3115  220.2778 H   0  0  0  0  0  0  0  0  0  0  0  0
  139.0818   74.9920  221.0856 H   0  0  0  0  0  0  0  0  0  0  0  0
  142.4901   72.7281  221.9340 H   0  0  0  0  0  0  0  0  0  0  0  0
  142.1907   71.8537  220.4513 H   0  0  0  0  0  0  0  0  0  0  0  0
  144.6852   73.3134  221.3380 H   0  0  0  0  0  0  0  0  0  0  0  0
  144.5795   72.0782  220.0991 H   0  0  0  0  0  0  0  0  0  0  0  0
  145.0037   74.6237  219.2660 H   0  0  0  0  0  0  0  0  0  0  0  0
  143.7948   73.8093  218.3708 H   0  0  0  0  0  0  0  0  0  0  0  0
  143.3522   75.4373  221.0476 H   0  0  0  0  0  0  0  0  0  0  0  0
  141.6918   76.8423  221.4562 H   0  0  0  0  0  0  0  0  0  0  0  0
  141.1961   79.1265  220.7204 H   0  0  0  0  0  0  0  0  0  0  0  0
  143.2928   78.4063  217.0685 H   0  0  0  0  0  0  0  0  0  0  0  0
  143.7880   76.1315  217.7947 H   0  0  0  0  0  0  0  0  0  0  0  0
  138.8092   69.5171  222.6699 H   0  0  0  0  0  0  0  0  0  0  0  0
  138.9912   68.2605  224.8325 H   0  0  0  0  0  0  0  0  0  0  0  0
  139.6626   68.1654  227.0630 H   0  0  0  0  0  0  0  0  0  0  0  0
  140.7512   69.2547  229.0620 H   0  0  0  0  0  0  0  0  0  0  0  0
  141.4565   72.7971  226.7286 H   0  0  0  0  0  0  0  0  0  0  0  0
  1  2  2  0
  2  3  1  0
  3  4  1  0
  4  5  1  0
  5  6  2  0
  5  7  1  0
  7  8  1  0
  8  9  1  0
  9 10  1  0
 10 11  1  0
 11 12  1  0
 12 13  2  0
 13 14  1  0
 14 15  2  0
 15 16  1  0
 15 17  1  0
 17 18  2  0
  2 19  1  0
 19 20  2  0
 20 21  1  0
 21 22  2  0
 22 23  1  0
 23 24  2  0
 24 25  1  0
 25 26  1  0
 25 27  2  0
 27 28  1  0
 28 29  2  0
 11  7  1  0
 18 12  1  0
 29 19  1  0
 28 22  1  0
  3 30  1  0
  4 31  1  0
  4 32  1  0
  8 33  1  0
  8 34  1  0
  9 35  1  0
  9 36  1  0
 10 37  1  0
 10 38  1  0
 11 39  1  1
 13 40  1  0
 14 41  1  0
 17 42  1  0
 18 43  1  0
 20 44  1  0
 21 45  1  0
 23 46  1  0
 24 47  1  0
 27 48  1  0
M  END
>  <smiles>  (37) 
O=C(NCC(=O)N1CCC[C@H]1c1ccc(Cl)cc1)c1ccc2ccc(F)cc2n1

>  <score_type>  (37) 
oracle

>  <origin>  (37) 
autodockgpu

>  <m_score__min__energy>  (37) 
-8.5299999999999994

>  <m_primary>  (37) 
energy

>  <rmsd>  (37) 
2.8668177311081986

>  <m_score__min__rmsd>  (37) 
2.8668177311081986

>  <meeko>  (37) 
{"free_energy": -7.85, "intermolecular_energy": -9.34, "internal_energy": -1.66, "cluster_size": 11, "cluster_id": 4, "rank_in_cluster": 8}

>  <energy>  (37) 
-7.25

>  <cluster_rmsd>  (37) 
1.87

>  <cluster>  (37) 
5

$$$$

     RDKit          3D

 48 51  0  0  0  0  0  0  0  0999 V2000
  141.4010   71.9310  221.6280 O   0  0  0  0  0  0  0  0  0  0  0  0
  140.4670   72.0660  222.4630 C   0  0  0  0  0  0  0  0  0  0  0  0
  139.6500   73.2630  222.3480 N   0  0  0  0  0  0  0  0  0  0  0  0
  139.9930   74.1540  221.3030 C   0  0  0  0  0  0  0  0  0  0  0  0
  140.5320   75.4630  221.5890 C   0  0  0  0  0  0  0  0  0  0  0  0
  140.0870   75.9900  222.6990 O   0  0  0  0  0  0  0  0  0  0  0  0
  141.4620   76.2520  220.8580 N   0  0  0  0  0  0  0  0  0  0  0  0
  142.5270   75.8140  219.9580 C   0  0  0  0  0  0  0  0  0  0  0  0
  142.8470   77.0990  219.1710 C   0  0  0  0  0  0  0  0  0  0  0  0
  141.6280   78.0060  219.4630 C   0  0  0  0  0  0  0  0  0  0  0  0
  141.5270   77.6980  220.9280 C   0  0  1  0  0  0  0  0  0  0  0  0
  140.7130   78.4750  221.7630 C   0  0  0  0  0  0  0  0  0  0  0  0
  141.2130   78.9950  222.9680 C   0  0  0  0  0  0  0  0  0  0  0  0
  140.4250   79.7320  223.8250 C   0  0  0  0  0  0  0  0  0  0  0  0
  139.1020   79.9920  223.5350 C   0  0  0  0  0  0  0  0  0  0  0  0
  138.0730   80.9200  224.5920 Cl  0  0  0  0  0  0  0  0  0  0  0  0
  138.6020   79.4850  222.3540 C   0  0  0  0  0  0  0  0  0  0  0  0
  139.3890   78.7510  221.5020 C   0  0  0  0  0  0  0  0  0  0  0  0
  140.1840   71.0950  223.5110 C   0  0  0  0  0  0  0  0  0  0  0  0
  139.2190   70.1480  223.2390 C   0  0  0  0  0  0  0  0  0  0  0  0
  138.9070   69.1930  224.2070 C   0  0  0  0  0  0  0  0  0  0  0  0
  139.5800   69.2200  225.4290 C   0  0  0  0  0  0  0  0  0  0  0  0
  139.2460   68.2720  226.3480 C   0  0  0  0  0  0  0  0  0  0  0  0
  139.9110   68.2870  227.5750 C   0  0  0  0  0  0  0  0  0  0  0  0
  140.8690   69.2560  227.7970 C   0  0  0  0  0  0  0  0  0  0  0  0
  141.5100   69.2650  228.9890 F   0  0  0  0  0  0  0  0  0  0  0  0
  141.1840   70.1990  226.8520 C   0  0  0  0  0  0  0  0  0  0  0  0
  140.5290   70.2000  225.6210 C   0  0  0  0  0  0  0  0  0  0  0  0
  140.8370   71.1250  224.6920 N   0  0  0  0  0  0  0  0  0  0  0  0
  138.8910   73.3170  223.0410 H   0  0  0  0  0  0  0  0  0  0  0  0
  140.7402   73.6366  220.6834 H   0  0  0  0  0  0  0  0  0  0  0  0
  139.0165   74.3872  220.8534 H   0  0  0  0  0  0  0  0  0  0  0  0
  143.4046   75.4637  220.5212 H   0  0  0  0  0  0  0  0  0  0  0  0
  142.2395   74.9673  219.3174 H   0  0  0  0  0  0  0  0  0  0  0  0
  143.7777   77.5610  219.5320 H   0  0  0  0  0  0  0  0  0  0  0  0
  143.0032   76.9192  218.0971 H   0  0  0  0  0  0  0  0  0  0  0  0
  141.8363   79.0684  219.2685 H   0  0  0  0  0  0  0  0  0  0  0  0
  140.7261   77.8332  218.8575 H   0  0  0  0  0  0  0  0  0  0  0  0
  142.3535   78.0503  221.5626 H   0  0  0  0  0  0  0  0  0  0  0  0
  142.2636   78.8086  223.2353 H   0  0  0  0  0  0  0  0  0  0  0  0
  140.8593   80.1203  224.7580 H   0  0  0  0  0  0  0  0  0  0  0  0
  137.5509   79.6727  222.0894 H   0  0  0  0  0  0  0  0  0  0  0  0
  138.9439   78.3673  220.5722 H   0  0  0  0  0  0  0  0  0  0  0  0
  138.7006   70.1457  222.2688 H   0  0  0  0  0  0  0  0  0  0  0  0
  138.1407   68.4290  224.0095 H   0  0  0  0  0  0  0  0  0  0  0  0
  138.4757   67.5176  226.1299 H   0  0  0  0  0  0  0  0  0  0  0  0
  139.6765   67.5419  228.3495 H   0  0  0  0  0  0  0  0  0  0  0  0
  141.9540   70.9551  227.0654 H   0  0  0  0  0  0  0  0  0  0  0  0
  1  2  2  0
  2  3  1  0
  3  4  1  0
  4  5  1  0
  5  6  2  0
  5  7  1  0
  7  8  1  0
  8  9  1  0
  9 10  1  0
 10 11  1  0
 11 12  1  0
 12 13  2  0
 13 14  1  0
 14 15  2  0
 15 16  1  0
 15 17  1  0
 17 18  2  0
  2 19  1  0
 19 20  2  0
 20 21  1  0
 21 22  2  0
 22 23  1  0
 23 24  2  0
 24 25  1  0
 25 26  1  0
 25 27  2  0
 27 28  1  0
 28 29  2  0
 11  7  1  0
 18 12  1  0
 29 19  1  0
 28 22  1  0
  3 30  1  0
  4 31  1  0
  4 32  1  0
  8 33  1  0
  8 34  1  0
  9 35  1  0
  9 36  1  0
 10 37  1  0
 10 38  1  0
 11 39  1  1
 13 40  1  0
 14 41  1  0
 17 42  1  0
 18 43  1  0
 20 44  1  0
 21 45  1  0
 23 46  1  0
 24 47  1  0
 27 48  1  0
M  END
>  <smiles>  (38) 
O=C(NCC(=O)N1CCC[C@H]1c1ccc(Cl)cc1)c1ccc2ccc(F)cc2n1

>  <score_type>  (38) 
oracle

>  <origin>  (38) 
autodockgpu

>  <m_score__min__energy>  (38) 
-8.5299999999999994

>  <m_primary>  (38) 
energy

>  <rmsd>  (38) 
2.1101820368103854

>  <m_score__min__rmsd>  (38) 
2.1101820368103854

>  <meeko>  (38) 
{"free_energy": -8.51, "intermolecular_energy": -10.0, "internal_energy": -1.16, "cluster_size": 16, "cluster_id": 1, "rank_in_cluster": 2}

>  <energy>  (38) 
-7.71

>  <cluster_rmsd>  (38) 
0.0

>  <cluster>  (38) 
6

$$$$

     RDKit          3D

 48 51  0  0  0  0  0  0  0  0999 V2000
  139.1590   72.5300  220.9660 O   0  0  0  0  0  0  0  0  0  0  0  0
  139.9120   72.7200  221.9570 C   0  0  0  0  0  0  0  0  0  0  0  0
  140.8660   73.8130  221.8580 N   0  0  0  0  0  0  0  0  0  0  0  0
  140.8440   74.5520  220.6520 C   0  0  0  0  0  0  0  0  0  0  0  0
  139.9870   75.7060  220.5020 C   0  0  0  0  0  0  0  0  0  0  0  0
  140.4470   76.6060  219.6750 O   0  0  0  0  0  0  0  0  0  0  0  0
  138.7370   76.0030  221.1090 N   0  0  0  0  0  0  0  0  0  0  0  0
  137.4400   75.3620  220.8990 C   0  0  0  0  0  0  0  0  0  0  0  0
  136.6390   75.8180  222.1330 C   0  0  0  0  0  0  0  0  0  0  0  0
  137.7340   76.3440  223.0920 C   0  0  0  0  0  0  0  0  0  0  0  0
  138.5330   77.0800  222.0570 C   0  0  1  0  0  0  0  0  0  0  0  0
  139.5370   77.9790  222.4410 C   0  0  0  0  0  0  0  0  0  0  0  0
  140.8100   77.5170  222.8110 C   0  0  0  0  0  0  0  0  0  0  0  0
  141.8040   78.3760  223.2270 C   0  0  0  0  0  0  0  0  0  0  0  0
  141.5900   79.7360  223.2990 C   0  0  0  0  0  0  0  0  0  0  0  0
  142.8210   80.8540  223.8190 Cl  0  0  0  0  0  0  0  0  0  0  0  0
  140.3440   80.2000  222.9380 C   0  0  0  0  0  0  0  0  0  0  0  0
  139.3550   79.3420  222.5240 C   0  0  0  0  0  0  0  0  0  0  0  0
  139.8670   71.9070  223.1650 C   0  0  0  0  0  0  0  0  0  0  0  0
  139.0930   70.7660  223.1210 C   0  0  0  0  0  0  0  0  0  0  0  0
  139.0140   69.9510  224.2500 C   0  0  0  0  0  0  0  0  0  0  0  0
  139.7180   70.3100  225.3980 C   0  0  0  0  0  0  0  0  0  0  0  0
  139.6140   69.4890  226.4790 C   0  0  0  0  0  0  0  0  0  0  0  0
  140.3140   69.8360  227.6360 C   0  0  0  0  0  0  0  0  0  0  0  0
  141.0740   70.9880  227.6290 C   0  0  0  0  0  0  0  0  0  0  0  0
  141.7500   71.3200  228.7530 F   0  0  0  0  0  0  0  0  0  0  0  0
  141.1600   71.7970  226.5230 C   0  0  0  0  0  0  0  0  0  0  0  0
  140.4670   71.4670  225.3600 C   0  0  0  0  0  0  0  0  0  0  0  0
  140.5510   72.2590  224.2750 N   0  0  0  0  0  0  0  0  0  0  0  0
  141.4450   73.9370  222.7000 H   0  0  0  0  0  0  0  0  0  0  0  0
  141.8727   74.9020  220.4808 H   0  0  0  0  0  0  0  0  0  0  0  0
  140.4128   73.8358  219.9371 H   0  0  0  0  0  0  0  0  0  0  0  0
  136.9697   75.7120  219.9682 H   0  0  0  0  0  0  0  0  0  0  0  0
  137.5028   74.2686  220.7965 H   0  0  0  0  0  0  0  0  0  0  0  0
  135.9292   76.6159  221.8695 H   0  0  0  0  0  0  0  0  0  0  0  0
  136.0305   75.0142  222.5730 H   0  0  0  0  0  0  0  0  0  0  0  0
  137.3307   77.0117  223.8676 H   0  0  0  0  0  0  0  0  0  0  0  0
  138.2706   75.5933  223.6908 H   0  0  0  0  0  0  0  0  0  0  0  0
  138.0522   77.9567  221.5985 H   0  0  0  0  0  0  0  0  0  0  0  0
  141.0201   76.4381  222.7676 H   0  0  0  0  0  0  0  0  0  0  0  0
  142.7868   77.9688  223.5069 H   0  0  0  0  0  0  0  0  0  0  0  0
  140.1372   81.2795  222.9823 H   0  0  0  0  0  0  0  0  0  0  0  0
  138.3762   79.7607  222.2470 H   0  0  0  0  0  0  0  0  0  0  0  0
  138.5439   70.5018  222.2052 H   0  0  0  0  0  0  0  0  0  0  0  0
  138.4035   69.0361  224.2346 H   0  0  0  0  0  0  0  0  0  0  0  0
  138.9968   68.5793  226.4419 H   0  0  0  0  0  0  0  0  0  0  0  0
  140.2609   69.2041  228.5348 H   0  0  0  0  0  0  0  0  0  0  0  0
  141.7770   72.7071  226.5550 H   0  0  0  0  0  0  0  0  0  0  0  0
  1  2  2  0
  2  3  1  0
  3  4  1  0
  4  5  1  0
  5  6  2  0
  5  7  1  0
  7  8  1  0
  8  9  1  0
  9 10  1  0
 10 11  1  0
 11 12  1  0
 12 13  2  0
 13 14  1  0
 14 15  2  0
 15 16  1  0
 15 17  1  0
 17 18  2  0
  2 19  1  0
 19 20  2  0
 20 21  1  0
 21 22  2  0
 22 23  1  0
 23 24  2  0
 24 25  1  0
 25 26  1  0
 25 27  2  0
 27 28  1  0
 28 29  2  0
 11  7  1  0
 18 12  1  0
 29 19  1  0
 28 22  1  0
  3 30  1  0
  4 31  1  0
  4 32  1  0
  8 33  1  0
  8 34  1  0
  9 35  1  0
  9 36  1  0
 10 37  1  0
 10 38  1  0
 11 39  1  6
 13 40  1  0
 14 41  1  0
 17 42  1  0
 18 43  1  0
 20 44  1  0
 21 45  1  0
 23 46  1  0
 24 47  1  0
 27 48  1  0
M  END
>  <smiles>  (39) 
O=C(NCC(=O)N1CCC[C@H]1c1ccc(Cl)cc1)c1ccc2ccc(F)cc2n1

>  <score_type>  (39) 
oracle

>  <origin>  (39) 
autodockgpu

>  <m_score__min__energy>  (39) 
-8.5299999999999994

>  <m_primary>  (39) 
energy

>  <rmsd>  (39) 
3.131408966211342

>  <m_score__min__rmsd>  (39) 
3.131408966211342

>  <meeko>  (39) 
{"free_energy": -7.4, "intermolecular_energy": -8.89, "internal_energy": -1.85, "cluster_size": 1, "cluster_id": 7, "rank_in_cluster": 1}

>  <energy>  (39) 
-7.64

>  <cluster_rmsd>  (39) 
0.16

>  <cluster>  (39) 
6

$$$$

     RDKit          3D

 48 51  0  0  0  0  0  0  0  0999 V2000
  139.6940   71.4400  221.0900 O   0  0  0  0  0  0  0  0  0  0  0  0
  139.6790   72.0320  222.2020 C   0  0  0  0  0  0  0  0  0  0  0  0
  139.5750   73.4830  222.1720 N   0  0  0  0  0  0  0  0  0  0  0  0
  139.5020   74.0760  220.8900 C   0  0  0  0  0  0  0  0  0  0  0  0
  140.6430   74.0760  220.0040 C   0  0  0  0  0  0  0  0  0  0  0  0
  140.3430   74.2810  218.7500 O   0  0  0  0  0  0  0  0  0  0  0  0
  142.0240   73.8910  220.2880 N   0  0  0  0  0  0  0  0  0  0  0  0
  142.6990   72.7130  220.8310 C   0  0  0  0  0  0  0  0  0  0  0  0
  144.1740   72.9830  220.4790 C   0  0  0  0  0  0  0  0  0  0  0  0
  144.0850   74.1060  219.4180 C   0  0  0  0  0  0  0  0  0  0  0  0
  143.0310   74.9180  220.1110 C   0  0  1  0  0  0  0  0  0  0  0  0
  142.7460   76.2230  219.6870 C   0  0  0  0  0  0  0  0  0  0  0  0
  141.9340   77.0670  220.4620 C   0  0  0  0  0  0  0  0  0  0  0  0
  141.6090   78.3420  220.0520 C   0  0  0  0  0  0  0  0  0  0  0  0
  142.0700   78.8470  218.8550 C   0  0  0  0  0  0  0  0  0  0  0  0
  141.6820   80.4540  218.3030 Cl  0  0  0  0  0  0  0  0  0  0  0  0
  142.8680   78.0260  218.0870 C   0  0  0  0  0  0  0  0  0  0  0  0
  143.1900   76.7570  218.4970 C   0  0  0  0  0  0  0  0  0  0  0  0
  139.7590   71.3390  223.4800 C   0  0  0  0  0  0  0  0  0  0  0  0
  139.1690   70.0950  223.5530 C   0  0  0  0  0  0  0  0  0  0  0  0
  139.2160   69.3860  224.7540 C   0  0  0  0  0  0  0  0  0  0  0  0
  139.8590   69.9540  225.8530 C   0  0  0  0  0  0  0  0  0  0  0  0
  139.8830   69.2320  227.0070 C   0  0  0  0  0  0  0  0  0  0  0  0
  140.5230   69.7880  228.1160 C   0  0  0  0  0  0  0  0  0  0  0  0
  141.0980   71.0370  227.9900 C   0  0  0  0  0  0  0  0  0  0  0  0
  141.7170   71.5720  229.0690 F   0  0  0  0  0  0  0  0  0  0  0  0
  141.0570   71.7430  226.8140 C   0  0  0  0  0  0  0  0  0  0  0  0
  140.4220   71.2030  225.6960 C   0  0  0  0  0  0  0  0  0  0  0  0
  140.3820   71.8940  224.5420 N   0  0  0  0  0  0  0  0  0  0  0  0
  139.5490   73.9170  223.1050 H   0  0  0  0  0  0  0  0  0  0  0  0
  138.6899   73.5630  220.3540 H   0  0  0  0  0  0  0  0  0  0  0  0
  139.3776   75.1436  221.1241 H   0  0  0  0  0  0  0  0  0  0  0  0
  142.5569   72.6397  221.9193 H   0  0  0  0  0  0  0  0  0  0  0  0
  142.3181   71.7636  220.4265 H   0  0  0  0  0  0  0  0  0  0  0  0
  144.7352   73.3194  221.3632 H   0  0  0  0  0  0  0  0  0  0  0  0
  144.7016   72.0883  220.1167 H   0  0  0  0  0  0  0  0  0  0  0  0
  145.0319   74.6537  219.3027 H   0  0  0  0  0  0  0  0  0  0  0  0
  143.8712   73.7953  218.3847 H   0  0  0  0  0  0  0  0  0  0  0  0
  143.3206   75.3897  221.0616 H   0  0  0  0  0  0  0  0  0  0  0  0
  141.5463   76.6999  221.4238 H   0  0  0  0  0  0  0  0  0  0  0  0
  140.9699   78.9683  220.6918 H   0  0  0  0  0  0  0  0  0  0  0  0
  143.2544   78.3960  217.1259 H   0  0  0  0  0  0  0  0  0  0  0  0
  143.8294   76.1400  217.8485 H   0  0  0  0  0  0  0  0  0  0  0  0
  138.6665   69.6658  222.6736 H   0  0  0  0  0  0  0  0  0  0  0  0
  138.7518   68.3919  224.8326 H   0  0  0  0  0  0  0  0  0  0  0  0
  139.4119   68.2396  227.0638 H   0  0  0  0  0  0  0  0  0  0  0  0
  140.5683   69.2426  229.0702 H   0  0  0  0  0  0  0  0  0  0  0  0
  141.5257   72.7363  226.7531 H   0  0  0  0  0  0  0  0  0  0  0  0
  1  2  2  0
  2  3  1  0
  3  4  1  0
  4  5  1  0
  5  6  2  0
  5  7  1  0
  7  8  1  0
  8  9  1  0
  9 10  1  0
 10 11  1  0
 11 12  1  0
 12 13  2  0
 13 14  1  0
 14 15  2  0
 15 16  1  0
 15 17  1  0
 17 18  2  0
  2 19  1  0
 19 20  2  0
 20 21  1  0
 21 22  2  0
 22 23  1  0
 23 24  2  0
 24 25  1  0
 25 26  1  0
 25 27  2  0
 27 28  1  0
 28 29  2  0
 11  7  1  0
 18 12  1  0
 29 19  1  0
 28 22  1  0
  3 30  1  0
  4 31  1  0
  4 32  1  0
  8 33  1  0
  8 34  1  0
  9 35  1  0
  9 36  1  0
 10 37  1  0
 10 38  1  0
 11 39  1  1
 13 40  1  0
 14 41  1  0
 17 42  1  0
 18 43  1  0
 20 44  1  0
 21 45  1  0
 23 46  1  0
 24 47  1  0
 27 48  1  0
M  END
>  <smiles>  (40) 
O=C(NCC(=O)N1CCC[C@H]1c1ccc(Cl)cc1)c1ccc2ccc(F)cc2n1

>  <score_type>  (40) 
oracle

>  <origin>  (40) 
autodockgpu

>  <m_score__min__energy>  (40) 
-8.5299999999999994

>  <m_primary>  (40) 
energy

>  <rmsd>  (40) 
2.9184124829458336

>  <m_score__min__rmsd>  (40) 
2.9184124829458336

>  <meeko>  (40) 
{"free_energy": -7.87, "intermolecular_energy": -9.36, "internal_energy": -1.65, "cluster_size": 11, "cluster_id": 4, "rank_in_cluster": 6}

>  <energy>  (40) 
-7.4

>  <cluster_rmsd>  (40) 
0.0

>  <cluster>  (40) 
7

$$$$

     RDKit          3D

 48 51  0  0  0  0  0  0  0  0999 V2000
  139.7550   71.3120  221.1480 O   0  0  0  0  0  0  0  0  0  0  0  0
  139.6910   71.9320  222.2440 C   0  0  0  0  0  0  0  0  0  0  0  0
  139.5460   73.3770  222.1740 N   0  0  0  0  0  0  0  0  0  0  0  0
  139.4910   73.9360  220.8750 C   0  0  0  0  0  0  0  0  0  0  0  0
  140.6360   73.8870  219.9960 C   0  0  0  0  0  0  0  0  0  0  0  0
  140.3350   73.9650  218.7270 O   0  0  0  0  0  0  0  0  0  0  0  0
  142.0200   73.7710  220.2990 N   0  0  0  0  0  0  0  0  0  0  0  0
  142.7660   72.5940  220.7410 C   0  0  0  0  0  0  0  0  0  0  0  0
  144.2250   72.9990  220.4580 C   0  0  0  0  0  0  0  0  0  0  0  0
  144.0780   74.2150  219.5120 C   0  0  0  0  0  0  0  0  0  0  0  0
  142.9540   74.8770  220.2520 C   0  0  1  0  0  0  0  0  0  0  0  0
  142.5850   76.1960  219.9520 C   0  0  0  0  0  0  0  0  0  0  0  0
  141.7370   76.9150  220.8090 C   0  0  0  0  0  0  0  0  0  0  0  0
  141.3300   78.1990  220.5200 C   0  0  0  0  0  0  0  0  0  0  0  0
  141.7410   78.8380  219.3700 C   0  0  0  0  0  0  0  0  0  0  0  0
  141.2490   80.4610  218.9710 Cl  0  0  0  0  0  0  0  0  0  0  0  0
  142.5740   78.1400  218.5230 C   0  0  0  0  0  0  0  0  0  0  0  0
  142.9790   76.8610  218.8120 C   0  0  0  0  0  0  0  0  0  0  0  0
  139.7560   71.2730  223.5410 C   0  0  0  0  0  0  0  0  0  0  0  0
  139.1170   70.0560  223.6560 C   0  0  0  0  0  0  0  0  0  0  0  0
  139.1480   69.3810  224.8760 C   0  0  0  0  0  0  0  0  0  0  0  0
  139.8240   69.9540  225.9520 C   0  0  0  0  0  0  0  0  0  0  0  0
  139.8300   69.2650  227.1270 C   0  0  0  0  0  0  0  0  0  0  0  0
  140.5020   69.8270  228.2130 C   0  0  0  0  0  0  0  0  0  0  0  0
  141.1260   71.0470  228.0460 C   0  0  0  0  0  0  0  0  0  0  0  0
  141.7760   71.5870  229.1030 F   0  0  0  0  0  0  0  0  0  0  0  0
  141.1020   71.7200  226.8500 C   0  0  0  0  0  0  0  0  0  0  0  0
  140.4350   71.1740  225.7540 C   0  0  0  0  0  0  0  0  0  0  0  0
  140.4120   71.8320  224.5810 N   0  0  0  0  0  0  0  0  0  0  0  0
  139.4800   73.8330  223.0940 H   0  0  0  0  0  0  0  0  0  0  0  0
  138.6707   73.4255  220.3491 H   0  0  0  0  0  0  0  0  0  0  0  0
  139.3875   75.0121  221.0784 H   0  0  0  0  0  0  0  0  0  0  0  0
  142.6074   72.4020  221.8124 H   0  0  0  0  0  0  0  0  0  0  0  0
  142.4621   71.6662  220.2343 H   0  0  0  0  0  0  0  0  0  0  0  0
  144.7429   73.2819  221.3863 H   0  0  0  0  0  0  0  0  0  0  0  0
  144.8220   72.1840  220.0229 H   0  0  0  0  0  0  0  0  0  0  0  0
  144.9852   74.8361  219.4788 H   0  0  0  0  0  0  0  0  0  0  0  0
  143.9093   73.9966  218.4472 H   0  0  0  0  0  0  0  0  0  0  0  0
  143.1891   75.2688  221.2526 H   0  0  0  0  0  0  0  0  0  0  0  0
  141.3876   76.4398  221.7375 H   0  0  0  0  0  0  0  0  0  0  0  0
  140.6642   78.7244  221.2205 H   0  0  0  0  0  0  0  0  0  0  0  0
  142.9218   78.6181  217.5954 H   0  0  0  0  0  0  0  0  0  0  0  0
  143.6454   76.3460  218.1044 H   0  0  0  0  0  0  0  0  0  0  0  0
  138.5884   69.6223  222.7943 H   0  0  0  0  0  0  0  0  0  0  0  0
  138.6454   68.4089  224.9877 H   0  0  0  0  0  0  0  0  0  0  0  0
  139.3202   68.2944  227.2170 H   0  0  0  0  0  0  0  0  0  0  0  0
  140.5339   69.3084  229.1826 H   0  0  0  0  0  0  0  0  0  0  0  0
  141.6096   72.6913  226.7560 H   0  0  0  0  0  0  0  0  0  0  0  0
  1  2  2  0
  2  3  1  0
  3  4  1  0
  4  5  1  0
  5  6  2  0
  5  7  1  0
  7  8  1  0
  8  9  1  0
  9 10  1  0
 10 11  1  0
 11 12  1  0
 12 13  2  0
 13 14  1  0
 14 15  2  0
 15 16  1  0
 15 17  1  0
 17 18  2  0
  2 19  1  0
 19 20  2  0
 20 21  1  0
 21 22  2  0
 22 23  1  0
 23 24  2  0
 24 25  1  0
 25 26  1  0
 25 27  2  0
 27 28  1  0
 28 29  2  0
 11  7  1  0
 18 12  1  0
 29 19  1  0
 28 22  1  0
  3 30  1  0
  4 31  1  0
  4 32  1  0
  8 33  1  0
  8 34  1  0
  9 35  1  0
  9 36  1  0
 10 37  1  0
 10 38  1  0
 11 39  1  1
 13 40  1  0
 14 41  1  0
 17 42  1  0
 18 43  1  0
 20 44  1  0
 21 45  1  0
 23 46  1  0
 24 47  1  0
 27 48  1  0
M  END
>  <smiles>  (41) 
O=C(NCC(=O)N1CCC[C@H]1c1ccc(Cl)cc1)c1ccc2ccc(F)cc2n1

>  <score_type>  (41) 
oracle

>  <origin>  (41) 
autodockgpu

>  <m_score__min__energy>  (41) 
-8.5299999999999994

>  <m_primary>  (41) 
energy

>  <rmsd>  (41) 
2.9182148160623314

>  <m_score__min__rmsd>  (41) 
2.9182148160623314

>  <meeko>  (41) 
{"free_energy": -7.78, "intermolecular_energy": -9.28, "internal_energy": -1.64, "cluster_size": 11, "cluster_id": 4, "rank_in_cluster": 10}

>  <energy>  (41) 
-7.38

>  <cluster_rmsd>  (41) 
0.0

>  <cluster>  (41) 
8

$$$$

     RDKit          3D

 48 51  0  0  0  0  0  0  0  0999 V2000
  133.9340   70.1850  226.9090 O   0  0  0  0  0  0  0  0  0  0  0  0
  134.0490   71.2690  226.2770 C   0  0  0  0  0  0  0  0  0  0  0  0
  134.9210   71.2630  225.1130 N   0  0  0  0  0  0  0  0  0  0  0  0
  135.5500   70.0310  224.8130 C   0  0  0  0  0  0  0  0  0  0  0  0
  136.3510   69.8780  223.6210 C   0  0  0  0  0  0  0  0  0  0  0  0
  136.3290   70.9160  222.8280 O   0  0  0  0  0  0  0  0  0  0  0  0
  137.1510   68.7850  223.1880 N   0  0  0  0  0  0  0  0  0  0  0  0
  136.8130   67.7170  222.2490 C   0  0  0  0  0  0  0  0  0  0  0  0
  138.1960   67.1500  221.8780 C   0  0  0  0  0  0  0  0  0  0  0  0
  139.1710   68.2490  222.3610 C   0  0  0  0  0  0  0  0  0  0  0  0
  138.4920   68.5220  223.6700 C   0  0  1  0  0  0  0  0  0  0  0  0
  139.1290   69.2890  224.6560 C   0  0  0  0  0  0  0  0  0  0  0  0
  139.1730   68.8490  225.9890 C   0  0  0  0  0  0  0  0  0  0  0  0
  139.7610   69.6000  226.9830 C   0  0  0  0  0  0  0  0  0  0  0  0
  140.3360   70.8230  226.7110 C   0  0  0  0  0  0  0  0  0  0  0  0
  141.0900   71.8010  227.9410 Cl  0  0  0  0  0  0  0  0  0  0  0  0
  140.2980   71.2630  225.4050 C   0  0  0  0  0  0  0  0  0  0  0  0
  139.7110   70.5140  224.4160 C   0  0  0  0  0  0  0  0  0  0  0  0
  133.3610   72.4950  226.6590 C   0  0  0  0  0  0  0  0  0  0  0  0
  132.1130   72.3590  227.2290 C   0  0  0  0  0  0  0  0  0  0  0  0
  131.4090   73.5000  227.6130 C   0  0  0  0  0  0  0  0  0  0  0  0
  131.9860   74.7540  227.4110 C   0  0  0  0  0  0  0  0  0  0  0  0
  131.2670   75.8440  227.7990 C   0  0  0  0  0  0  0  0  0  0  0  0
  131.8320   77.1050  227.6030 C   0  0  0  0  0  0  0  0  0  0  0  0
  133.0840   77.1870  227.0280 C   0  0  0  0  0  0  0  0  0  0  0  0
  133.6270   78.4130  226.8400 F   0  0  0  0  0  0  0  0  0  0  0  0
  133.7850   76.0710  226.6470 C   0  0  0  0  0  0  0  0  0  0  0  0
  133.2370   74.8030  226.8350 C   0  0  0  0  0  0  0  0  0  0  0  0
  133.9230   73.7070  226.4610 N   0  0  0  0  0  0  0  0  0  0  0  0
  134.9670   72.1670  224.6230 H   0  0  0  0  0  0  0  0  0  0  0  0
  136.2075   69.7996  225.6640 H   0  0  0  0  0  0  0  0  0  0  0  0
  134.6972   69.3635  224.6200 H   0  0  0  0  0  0  0  0  0  0  0  0
  136.1846   66.9512  222.7272 H   0  0  0  0  0  0  0  0  0  0  0  0
  136.2336   68.0635  221.3805 H   0  0  0  0  0  0  0  0  0  0  0  0
  138.3847   66.1992  222.3980 H   0  0  0  0  0  0  0  0  0  0  0  0
  138.2963   66.9259  220.8058 H   0  0  0  0  0  0  0  0  0  0  0  0
  140.1980   67.8760  222.4879 H   0  0  0  0  0  0  0  0  0  0  0  0
  139.3192   69.1088  221.6911 H   0  0  0  0  0  0  0  0  0  0  0  0
  138.5193   67.7124  224.4142 H   0  0  0  0  0  0  0  0  0  0  0  0
  138.7255   67.8777  226.2465 H   0  0  0  0  0  0  0  0  0  0  0  0
  139.7719   69.2163  228.0138 H   0  0  0  0  0  0  0  0  0  0  0  0
  140.7473   72.2342  225.1504 H   0  0  0  0  0  0  0  0  0  0  0  0
  139.7051   70.9084  223.3892 H   0  0  0  0  0  0  0  0  0  0  0  0
  131.6769   71.3604  227.3794 H   0  0  0  0  0  0  0  0  0  0  0  0
  130.4119   73.4124  228.0692 H   0  0  0  0  0  0  0  0  0  0  0  0
  130.2712   75.7336  228.2531 H   0  0  0  0  0  0  0  0  0  0  0  0
  131.2905   78.0150  227.9007 H   0  0  0  0  0  0  0  0  0  0  0  0
  134.7811   76.1768  226.1924 H   0  0  0  0  0  0  0  0  0  0  0  0
  1  2  2  0
  2  3  1  0
  3  4  1  0
  4  5  1  0
  5  6  2  0
  5  7  1  0
  7  8  1  0
  8  9  1  0
  9 10  1  0
 10 11  1  0
 11 12  1  0
 12 13  2  0
 13 14  1  0
 14 15  2  0
 15 16  1  0
 15 17  1  0
 17 18  2  0
  2 19  1  0
 19 20  2  0
 20 21  1  0
 21 22  2  0
 22 23  1  0
 23 24  2  0
 24 25  1  0
 25 26  1  0
 25 27  2  0
 27 28  1  0
 28 29  2  0
 11  7  1  0
 18 12  1  0
 29 19  1  0
 28 22  1  0
  3 30  1  0
  4 31  1  0
  4 32  1  0
  8 33  1  0
  8 34  1  0
  9 35  1  0
  9 36  1  0
 10 37  1  0
 10 38  1  0
 11 39  1  1
 13 40  1  0
 14 41  1  0
 17 42  1  0
 18 43  1  0
 20 44  1  0
 21 45  1  0
 23 46  1  0
 24 47  1  0
 27 48  1  0
M  END
>  <smiles>  (42) 
O=C(NCC(=O)N1CCC[C@H]1c1ccc(Cl)cc1)c1ccc2ccc(F)cc2n1

>  <score_type>  (42) 
oracle

>  <origin>  (42) 
autodockgpu

>  <m_score__min__energy>  (42) 
-8.5299999999999994

>  <m_primary>  (42) 
energy

>  <rmsd>  (42) 
8.792204525027145

>  <m_score__min__rmsd>  (42) 
8.792204525027145

>  <meeko>  (42) 
{"free_energy": -8.02, "intermolecular_energy": -9.51, "internal_energy": -1.63, "cluster_size": 5, "cluster_id": 3, "rank_in_cluster": 2}

>  <energy>  (42) 
-7.36

>  <cluster_rmsd>  (42) 
0.1

>  <cluster>  (42) 
8

$$$$

     RDKit          3D

 48 51  0  0  0  0  0  0  0  0999 V2000
  139.1700   71.2050  221.2310 O   0  0  0  0  0  0  0  0  0  0  0  0
  139.3060   71.8380  222.3110 C   0  0  0  0  0  0  0  0  0  0  0  0
  139.1660   73.2840  222.2480 N   0  0  0  0  0  0  0  0  0  0  0  0
  138.8900   73.8290  220.9720 C   0  0  0  0  0  0  0  0  0  0  0  0
  139.9540   74.0970  220.0330 C   0  0  0  0  0  0  0  0  0  0  0  0
  139.5420   74.3440  218.8180 O   0  0  0  0  0  0  0  0  0  0  0  0
  141.3610   74.1360  220.2290 N   0  0  0  0  0  0  0  0  0  0  0  0
  142.3510   73.0870  219.9860 C   0  0  0  0  0  0  0  0  0  0  0  0
  143.6730   73.8760  219.9580 C   0  0  0  0  0  0  0  0  0  0  0  0
  143.2070   75.3420  219.7930 C   0  0  0  0  0  0  0  0  0  0  0  0
  142.0720   75.2760  220.7710 C   0  0  1  0  0  0  0  0  0  0  0  0
  141.4430   76.4490  221.2100 C   0  0  0  0  0  0  0  0  0  0  0  0
  140.5050   76.4120  222.2550 C   0  0  0  0  0  0  0  0  0  0  0  0
  139.8460   77.5440  222.6810 C   0  0  0  0  0  0  0  0  0  0  0  0
  140.0790   78.7710  222.0960 C   0  0  0  0  0  0  0  0  0  0  0  0
  139.2660   80.2250  222.6080 Cl  0  0  0  0  0  0  0  0  0  0  0  0
  140.9970   78.8180  221.0700 C   0  0  0  0  0  0  0  0  0  0  0  0
  141.6530   77.6890  220.6460 C   0  0  0  0  0  0  0  0  0  0  0  0
  139.5900   71.1940  223.5860 C   0  0  0  0  0  0  0  0  0  0  0  0
  139.2470   69.8630  223.7030 C   0  0  0  0  0  0  0  0  0  0  0  0
  139.4970   69.1960  224.9020 C   0  0  0  0  0  0  0  0  0  0  0  0
  140.0880   69.8920  225.9560 C   0  0  0  0  0  0  0  0  0  0  0  0
  140.3150   69.2060  227.1110 C   0  0  0  0  0  0  0  0  0  0  0  0
  140.9050   69.8900  228.1740 C   0  0  0  0  0  0  0  0  0  0  0  0
  141.2290   71.2220  228.0060 C   0  0  0  0  0  0  0  0  0  0  0  0
  141.8020   71.8800  229.0410 F   0  0  0  0  0  0  0  0  0  0  0  0
  140.9880   71.8870  226.8310 C   0  0  0  0  0  0  0  0  0  0  0  0
  140.3990   71.2200  225.7580 C   0  0  0  0  0  0  0  0  0  0  0  0
  140.1620   71.8720  224.6040 N   0  0  0  0  0  0  0  0  0  0  0  0
  139.2670   73.7520  223.1600 H   0  0  0  0  0  0  0  0  0  0  0  0
  138.2026   73.1289  220.4747 H   0  0  0  0  0  0  0  0  0  0  0  0
  138.5202   74.8364  221.2134 H   0  0  0  0  0  0  0  0  0  0  0  0
  142.3491   72.3432  220.7964 H   0  0  0  0  0  0  0  0  0  0  0  0
  142.1640   72.5121  219.0670 H   0  0  0  0  0  0  0  0  0  0  0  0
  144.2316   73.7430  220.8962 H   0  0  0  0  0  0  0  0  0  0  0  0
  144.3542   73.5476  219.1592 H   0  0  0  0  0  0  0  0  0  0  0  0
  143.9793   76.0664  220.0910 H   0  0  0  0  0  0  0  0  0  0  0  0
  142.9627   75.6721  218.7725 H   0  0  0  0  0  0  0  0  0  0  0  0
  142.3429   75.1366  221.8280 H   0  0  0  0  0  0  0  0  0  0  0  0
  140.2907   75.4518  222.7471 H   0  0  0  0  0  0  0  0  0  0  0  0
  139.1198   77.4679  223.5037 H   0  0  0  0  0  0  0  0  0  0  0  0
  141.2088   79.7800  220.5804 H   0  0  0  0  0  0  0  0  0  0  0  0
  142.3762   77.7777  219.8219 H   0  0  0  0  0  0  0  0  0  0  0  0
  138.7810   69.3331  222.8592 H   0  0  0  0  0  0  0  0  0  0  0  0
  139.2314   68.1345  225.0148 H   0  0  0  0  0  0  0  0  0  0  0  0
  140.0412   68.1446  227.2026 H   0  0  0  0  0  0  0  0  0  0  0  0
  141.1080   69.3789  229.1266 H   0  0  0  0  0  0  0  0  0  0  0  0
  141.2600   72.9485  226.7351 H   0  0  0  0  0  0  0  0  0  0  0  0
  1  2  2  0
  2  3  1  0
  3  4  1  0
  4  5  1  0
  5  6  2  0
  5  7  1  0
  7  8  1  0
  8  9  1  0
  9 10  1  0
 10 11  1  0
 11 12  1  0
 12 13  2  0
 13 14  1  0
 14 15  2  0
 15 16  1  0
 15 17  1  0
 17 18  2  0
  2 19  1  0
 19 20  2  0
 20 21  1  0
 21 22  2  0
 22 23  1  0
 23 24  2  0
 24 25  1  0
 25 26  1  0
 25 27  2  0
 27 28  1  0
 28 29  2  0
 11  7  1  0
 18 12  1  0
 29 19  1  0
 28 22  1  0
  3 30  1  0
  4 31  1  0
  4 32  1  0
  8 33  1  0
  8 34  1  0
  9 35  1  0
  9 36  1  0
 10 37  1  0
 10 38  1  0
 11 39  1  1
 13 40  1  0
 14 41  1  0
 17 42  1  0
 18 43  1  0
 20 44  1  0
 21 45  1  0
 23 46  1  0
 24 47  1  0
 27 48  1  0
M  END
>  <smiles>  (43) 
O=C(NCC(=O)N1CCC[C@H]1c1ccc(Cl)cc1)c1ccc2ccc(F)cc2n1

>  <score_type>  (43) 
oracle

>  <origin>  (43) 
autodockgpu

>  <m_score__min__energy>  (43) 
-8.5299999999999994

>  <m_primary>  (43) 
energy

>  <rmsd>  (43) 
2.3681800424085115

>  <m_score__min__rmsd>  (43) 
2.3681800424085115

>  <meeko>  (43) 
{"free_energy": -7.66, "intermolecular_energy": -9.15, "internal_energy": -1.76, "cluster_size": 16, "cluster_id": 1, "rank_in_cluster": 14}

>  <energy>  (43) 
-7.35

>  <cluster_rmsd>  (43) 
0.39

>  <cluster>  (43) 
8

$$$$

     RDKit          3D

 48 51  0  0  0  0  0  0  0  0999 V2000
  139.7870   71.4400  221.1010 O   0  0  0  0  0  0  0  0  0  0  0  0
  139.7310   72.0300  222.2120 C   0  0  0  0  0  0  0  0  0  0  0  0
  139.6110   73.4800  222.1810 N   0  0  0  0  0  0  0  0  0  0  0  0
  139.5680   74.0740  220.8980 C   0  0  0  0  0  0  0  0  0  0  0  0
  140.7040   74.0030  220.0080 C   0  0  0  0  0  0  0  0  0  0  0  0
  140.3940   74.0900  218.7420 O   0  0  0  0  0  0  0  0  0  0  0  0
  142.0880   73.8590  220.2980 N   0  0  0  0  0  0  0  0  0  0  0  0
  142.7960   72.6980  220.8380 C   0  0  0  0  0  0  0  0  0  0  0  0
  144.2630   73.0140  220.4940 C   0  0  0  0  0  0  0  0  0  0  0  0
  144.1460   74.1410  219.4400 C   0  0  0  0  0  0  0  0  0  0  0  0
  143.0650   74.9160  220.1320 C   0  0  1  0  0  0  0  0  0  0  0  0
  142.7430   76.2150  219.7150 C   0  0  0  0  0  0  0  0  0  0  0  0
  143.1980   76.7040  218.4800 C   0  0  0  0  0  0  0  0  0  0  0  0
  142.9260   77.9880  218.0620 C   0  0  0  0  0  0  0  0  0  0  0  0
  142.1900   78.8550  218.8430 C   0  0  0  0  0  0  0  0  0  0  0  0
  141.8250   80.4850  218.3480 Cl  0  0  0  0  0  0  0  0  0  0  0  0
  141.7390   78.3830  220.0570 C   0  0  0  0  0  0  0  0  0  0  0  0
  142.0110   77.1040  220.4720 C   0  0  0  0  0  0  0  0  0  0  0  0
  139.7820   71.3370  223.4920 C   0  0  0  0  0  0  0  0  0  0  0  0
  139.1530   70.1120  223.5630 C   0  0  0  0  0  0  0  0  0  0  0  0
  139.1710   69.4030  224.7640 C   0  0  0  0  0  0  0  0  0  0  0  0
  139.8250   69.9520  225.8660 C   0  0  0  0  0  0  0  0  0  0  0  0
  139.8190   69.2300  227.0220 C   0  0  0  0  0  0  0  0  0  0  0  0
  140.4690   69.7670  228.1330 C   0  0  0  0  0  0  0  0  0  0  0  0
  141.0840   70.9970  228.0100 C   0  0  0  0  0  0  0  0  0  0  0  0
  141.7130   71.5130  229.0920 F   0  0  0  0  0  0  0  0  0  0  0  0
  141.0730   71.7020  226.8330 C   0  0  0  0  0  0  0  0  0  0  0  0
  140.4280   71.1820  225.7120 C   0  0  0  0  0  0  0  0  0  0  0  0
  140.4170   71.8720  224.5570 N   0  0  0  0  0  0  0  0  0  0  0  0
  139.5510   73.9120  223.1130 H   0  0  0  0  0  0  0  0  0  0  0  0
  138.7243   73.6098  220.3663 H   0  0  0  0  0  0  0  0  0  0  0  0
  139.5082   75.1477  221.1297 H   0  0  0  0  0  0  0  0  0  0  0  0
  142.6516   72.6144  221.9253 H   0  0  0  0  0  0  0  0  0  0  0  0
  142.4454   71.7398  220.4269 H   0  0  0  0  0  0  0  0  0  0  0  0
  144.8104   73.3609  221.3829 H   0  0  0  0  0  0  0  0  0  0  0  0
  144.8179   72.1377  220.1278 H   0  0  0  0  0  0  0  0  0  0  0  0
  145.0767   74.7176  219.3335 H   0  0  0  0  0  0  0  0  0  0  0  0
  143.9471   73.8310  218.4035 H   0  0  0  0  0  0  0  0  0  0  0  0
  143.3362   75.3898  221.0870 H   0  0  0  0  0  0  0  0  0  0  0  0
  143.7882   76.0433  217.8280 H   0  0  0  0  0  0  0  0  0  0  0  0
  143.3030   78.3288  217.0864 H   0  0  0  0  0  0  0  0  0  0  0  0
  141.1486   79.0458  220.7067 H   0  0  0  0  0  0  0  0  0  0  0  0
  141.6290   76.7744  221.4495 H   0  0  0  0  0  0  0  0  0  0  0  0
  138.6421   69.6980  222.6812 H   0  0  0  0  0  0  0  0  0  0  0  0
  138.6758   68.4238  224.8406 H   0  0  0  0  0  0  0  0  0  0  0  0
  139.3165   68.2530  227.0771 H   0  0  0  0  0  0  0  0  0  0  0  0
  140.4912   69.2216  229.0880 H   0  0  0  0  0  0  0  0  0  0  0  0
  141.5741   72.6794  226.7739 H   0  0  0  0  0  0  0  0  0  0  0  0
  1  2  2  0
  2  3  1  0
  3  4  1  0
  4  5  1  0
  5  6  2  0
  5  7  1  0
  7  8  1  0
  8  9  1  0
  9 10  1  0
 10 11  1  0
 11 12  1  0
 12 13  2  0
 13 14  1  0
 14 15  2  0
 15 16  1  0
 15 17  1  0
 17 18  2  0
  2 19  1  0
 19 20  2  0
 20 21  1  0
 21 22  2  0
 22 23  1  0
 23 24  2  0
 24 25  1  0
 25 26  1  0
 25 27  2  0
 27 28  1  0
 28 29  2  0
 11  7  1  0
 18 12  1  0
 29 19  1  0
 28 22  1  0
  3 30  1  0
  4 31  1  0
  4 32  1  0
  8 33  1  0
  8 34  1  0
  9 35  1  0
  9 36  1  0
 10 37  1  0
 10 38  1  0
 11 39  1  1
 13 40  1  0
 14 41  1  0
 17 42  1  0
 18 43  1  0
 20 44  1  0
 21 45  1  0
 23 46  1  0
 24 47  1  0
 27 48  1  0
M  END
>  <smiles>  (44) 
O=C(NCC(=O)N1CCC[C@H]1c1ccc(Cl)cc1)c1ccc2ccc(F)cc2n1

>  <score_type>  (44) 
oracle

>  <origin>  (44) 
autodockgpu

>  <m_score__min__energy>  (44) 
-8.5299999999999994

>  <m_primary>  (44) 
energy

>  <rmsd>  (44) 
2.951620694716139

>  <m_score__min__rmsd>  (44) 
2.951620694716139

>  <meeko>  (44) 
{"free_energy": -7.92, "intermolecular_energy": -9.41, "internal_energy": -1.62, "cluster_size": 11, "cluster_id": 4, "rank_in_cluster": 2}

>  <energy>  (44) 
-7.35

>  <cluster_rmsd>  (44) 
0.39

>  <cluster>  (44) 
8

$$$$

     RDKit          3D

 48 51  0  0  0  0  0  0  0  0999 V2000
  138.4330   70.5690  221.5010 O   0  0  0  0  0  0  0  0  0  0  0  0
  138.8080   71.2780  222.4720 C   0  0  0  0  0  0  0  0  0  0  0  0
  138.8010   72.7190  222.2740 N   0  0  0  0  0  0  0  0  0  0  0  0
  138.3710   73.1720  221.0050 C   0  0  0  0  0  0  0  0  0  0  0  0
  139.0170   74.2900  220.3560 C   0  0  0  0  0  0  0  0  0  0  0  0
  139.2900   74.0870  219.0950 O   0  0  0  0  0  0  0  0  0  0  0  0
  139.3940   75.5580  220.8760 N   0  0  0  0  0  0  0  0  0  0  0  0
  138.5410   76.6820  221.2590 C   0  0  0  0  0  0  0  0  0  0  0  0
  139.4830   77.5310  222.1330 C   0  0  0  0  0  0  0  0  0  0  0  0
  140.6410   76.5570  222.4560 C   0  0  0  0  0  0  0  0  0  0  0  0
  140.7670   75.9730  221.0810 C   0  0  1  0  0  0  0  0  0  0  0  0
  141.8770   75.1870  220.7410 C   0  0  0  0  0  0  0  0  0  0  0  0
  141.9530   73.8430  221.1400 C   0  0  0  0  0  0  0  0  0  0  0  0
  143.0470   73.0590  220.8500 C   0  0  0  0  0  0  0  0  0  0  0  0
  144.1240   73.5630  220.1520 C   0  0  0  0  0  0  0  0  0  0  0  0
  145.5260   72.6020  219.7660 Cl  0  0  0  0  0  0  0  0  0  0  0  0
  144.0590   74.8810  219.7560 C   0  0  0  0  0  0  0  0  0  0  0  0
  142.9680   75.6610  220.0450 C   0  0  0  0  0  0  0  0  0  0  0  0
  139.2360   70.7260  223.7490 C   0  0  0  0  0  0  0  0  0  0  0  0
  139.0210   69.3780  223.9510 C   0  0  0  0  0  0  0  0  0  0  0  0
  139.4120   68.7960  225.1560 C   0  0  0  0  0  0  0  0  0  0  0  0
  140.0110   69.5920  226.1310 C   0  0  0  0  0  0  0  0  0  0  0  0
  140.3780   68.9870  227.2960 C   0  0  0  0  0  0  0  0  0  0  0  0
  140.9800   69.7720  228.2810 C   0  0  0  0  0  0  0  0  0  0  0  0
  141.1730   71.1160  228.0300 C   0  0  0  0  0  0  0  0  0  0  0  0
  141.7560   71.8710  228.9890 F   0  0  0  0  0  0  0  0  0  0  0  0
  140.7920   71.6980  226.8470 C   0  0  0  0  0  0  0  0  0  0  0  0
  140.1900   70.9300  225.8520 C   0  0  0  0  0  0  0  0  0  0  0  0
  139.8170   71.5000  224.6910 N   0  0  0  0  0  0  0  0  0  0  0  0
  139.0980   73.2540  223.1020 H   0  0  0  0  0  0  0  0  0  0  0  0
  138.4633   72.3165  220.3197 H   0  0  0  0  0  0  0  0  0  0  0  0
  137.3647   73.5630  221.2158 H   0  0  0  0  0  0  0  0  0  0  0  0
  138.2035   77.2442  220.3758 H   0  0  0  0  0  0  0  0  0  0  0  0
  137.6188   76.3772  221.7754 H   0  0  0  0  0  0  0  0  0  0  0  0
  139.8488   78.4090  221.5805 H   0  0  0  0  0  0  0  0  0  0  0  0
  138.9925   77.9308  223.0328 H   0  0  0  0  0  0  0  0  0  0  0  0
  141.5541   77.0790  222.7782 H   0  0  0  0  0  0  0  0  0  0  0  0
  140.4768   75.8489  223.2816 H   0  0  0  0  0  0  0  0  0  0  0  0
  141.1224   76.6509  220.2910 H   0  0  0  0  0  0  0  0  0  0  0  0
  141.1145   73.4038  221.7004 H   0  0  0  0  0  0  0  0  0  0  0  0
  143.0621   72.0103  221.1816 H   0  0  0  0  0  0  0  0  0  0  0  0
  144.8996   75.3171  219.1963 H   0  0  0  0  0  0  0  0  0  0  0  0
  142.9639   76.7079  219.7073 H   0  0  0  0  0  0  0  0  0  0  0  0
  138.5455   68.7683  223.1686 H   0  0  0  0  0  0  0  0  0  0  0  0
  139.2500   67.7228  225.3350 H   0  0  0  0  0  0  0  0  0  0  0  0
  140.2050   67.9124  227.4553 H   0  0  0  0  0  0  0  0  0  0  0  0
  141.2942   69.3289  229.2376 H   0  0  0  0  0  0  0  0  0  0  0  0
  140.9621   72.7725  226.6839 H   0  0  0  0  0  0  0  0  0  0  0  0
  1  2  2  0
  2  3  1  0
  3  4  1  0
  4  5  1  0
  5  6  2  0
  5  7  1  0
  7  8  1  0
  8  9  1  0
  9 10  1  0
 10 11  1  0
 11 12  1  0
 12 13  2  0
 13 14  1  0
 14 15  2  0
 15 16  1  0
 15 17  1  0
 17 18  2  0
  2 19  1  0
 19 20  2  0
 20 21  1  0
 21 22  2  0
 22 23  1  0
 23 24  2  0
 24 25  1  0
 25 26  1  0
 25 27  2  0
 27 28  1  0
 28 29  2  0
 11  7  1  0
 18 12  1  0
 29 19  1  0
 28 22  1  0
  3 30  1  0
  4 31  1  0
  4 32  1  0
  8 33  1  0
  8 34  1  0
  9 35  1  0
  9 36  1  0
 10 37  1  0
 10 38  1  0
 11 39  1  6
 13 40  1  0
 14 41  1  0
 17 42  1  0
 18 43  1  0
 20 44  1  0
 21 45  1  0
 23 46  1  0
 24 47  1  0
 27 48  1  0
M  END
>  <smiles>  (45) 
O=C(NCC(=O)N1CCC[C@H]1c1ccc(Cl)cc1)c1ccc2ccc(F)cc2n1

>  <score_type>  (45) 
oracle

>  <origin>  (45) 
autodockgpu

>  <m_score__min__energy>  (45) 
-8.5299999999999994

>  <m_primary>  (45) 
energy

>  <rmsd>  (45) 
2.3833986076062534

>  <m_score__min__rmsd>  (45) 
2.3833986076062534

>  <meeko>  (45) 
{"free_energy": -7.81, "intermolecular_energy": -9.3, "internal_energy": -1.71, "cluster_size": 4, "cluster_id": 5, "rank_in_cluster": 2}

>  <energy>  (45) 
-7.13

>  <cluster_rmsd>  (45) 
0.0

>  <cluster>  (45) 
9

$$$$

     RDKit          3D

 48 51  0  0  0  0  0  0  0  0999 V2000
  139.3650   71.1480  221.2130 O   0  0  0  0  0  0  0  0  0  0  0  0
  139.4860   71.7960  222.2860 C   0  0  0  0  0  0  0  0  0  0  0  0
  139.3920   73.2440  222.1930 N   0  0  0  0  0  0  0  0  0  0  0  0
  139.1720   73.7730  220.8990 C   0  0  0  0  0  0  0  0  0  0  0  0
  140.2170   73.7560  219.9020 C   0  0  0  0  0  0  0  0  0  0  0  0
  139.7770   73.7360  218.6720 O   0  0  0  0  0  0  0  0  0  0  0  0
  141.6300   73.7600  220.0550 N   0  0  0  0  0  0  0  0  0  0  0  0
  142.5770   72.6630  219.8600 C   0  0  0  0  0  0  0  0  0  0  0  0
  143.9220   73.4020  219.7370 C   0  0  0  0  0  0  0  0  0  0  0  0
  143.4990   74.8680  219.4800 C   0  0  0  0  0  0  0  0  0  0  0  0
  142.3930   74.9110  220.4930 C   0  0  1  0  0  0  0  0  0  0  0  0
  141.8150   76.1330  220.8630 C   0  0  0  0  0  0  0  0  0  0  0  0
  142.0320   77.2900  220.0970 C   0  0  0  0  0  0  0  0  0  0  0  0
  141.5060   78.5110  220.4580 C   0  0  0  0  0  0  0  0  0  0  0  0
  140.7380   78.6510  221.5950 C   0  0  0  0  0  0  0  0  0  0  0  0
  140.0540   80.1770  222.0840 Cl  0  0  0  0  0  0  0  0  0  0  0  0
  140.5200   77.5210  222.3530 C   0  0  0  0  0  0  0  0  0  0  0  0
  141.0450   76.3060  221.9920 C   0  0  0  0  0  0  0  0  0  0  0  0
  139.7120   71.1670  223.5800 C   0  0  0  0  0  0  0  0  0  0  0  0
  139.3060   69.8560  223.7160 C   0  0  0  0  0  0  0  0  0  0  0  0
  139.4980   69.2050  224.9350 C   0  0  0  0  0  0  0  0  0  0  0  0
  140.0960   69.8960  225.9870 C   0  0  0  0  0  0  0  0  0  0  0  0
  140.2660   69.2260  227.1610 C   0  0  0  0  0  0  0  0  0  0  0  0
  140.8630   69.9060  228.2240 C   0  0  0  0  0  0  0  0  0  0  0  0
  141.2520   71.2170  228.0360 C   0  0  0  0  0  0  0  0  0  0  0  0
  141.8310   71.8710  229.0700 F   0  0  0  0  0  0  0  0  0  0  0  0
  141.0680   71.8670  226.8410 C   0  0  0  0  0  0  0  0  0  0  0  0
  140.4720   71.2040  225.7690 C   0  0  0  0  0  0  0  0  0  0  0  0
  140.2920   71.8410  224.5970 N   0  0  0  0  0  0  0  0  0  0  0  0
  139.4800   73.7260  223.0990 H   0  0  0  0  0  0  0  0  0  0  0  0
  138.3242   73.2163  220.4733 H   0  0  0  0  0  0  0  0  0  0  0  0
  139.0416   74.8475  221.0953 H   0  0  0  0  0  0  0  0  0  0  0  0
  142.5764   71.9794  220.7218 H   0  0  0  0  0  0  0  0  0  0  0  0
  142.3429   72.0308  218.9908 H   0  0  0  0  0  0  0  0  0  0  0  0
  144.5050   73.3169  220.6659 H   0  0  0  0  0  0  0  0  0  0  0  0
  144.5668   72.9943  218.9446 H   0  0  0  0  0  0  0  0  0  0  0  0
  144.3033   75.5846  219.7025 H   0  0  0  0  0  0  0  0  0  0  0  0
  143.2339   75.1329  218.4458 H   0  0  0  0  0  0  0  0  0  0  0  0
  142.6919   74.8388  221.5491 H   0  0  0  0  0  0  0  0  0  0  0  0
  142.6394   77.2192  219.1826 H   0  0  0  0  0  0  0  0  0  0  0  0
  141.7022   79.3908  219.8276 H   0  0  0  0  0  0  0  0  0  0  0  0
  139.9122   77.5947  223.2668 H   0  0  0  0  0  0  0  0  0  0  0  0
  140.8426   75.4336  222.6307 H   0  0  0  0  0  0  0  0  0  0  0  0
  138.8359   69.3293  222.8725 H   0  0  0  0  0  0  0  0  0  0  0  0
  139.1813   68.1595  225.0640 H   0  0  0  0  0  0  0  0  0  0  0  0
  139.9424   68.1801  227.2681 H   0  0  0  0  0  0  0  0  0  0  0  0
  141.0202   69.4072  229.1917 H   0  0  0  0  0  0  0  0  0  0  0  0
  141.3912   72.9125  226.7290 H   0  0  0  0  0  0  0  0  0  0  0  0
  1  2  2  0
  2  3  1  0
  3  4  1  0
  4  5  1  0
  5  6  2  0
  5  7  1  0
  7  8  1  0
  8  9  1  0
  9 10  1  0
 10 11  1  0
 11 12  1  0
 12 13  2  0
 13 14  1  0
 14 15  2  0
 15 16  1  0
 15 17  1  0
 17 18  2  0
  2 19  1  0
 19 20  2  0
 20 21  1  0
 21 22  2  0
 22 23  1  0
 23 24  2  0
 24 25  1  0
 25 26  1  0
 25 27  2  0
 27 28  1  0
 28 29  2  0
 11  7  1  0
 18 12  1  0
 29 19  1  0
 28 22  1  0
  3 30  1  0
  4 31  1  0
  4 32  1  0
  8 33  1  0
  8 34  1  0
  9 35  1  0
  9 36  1  0
 10 37  1  0
 10 38  1  0
 11 39  1  1
 13 40  1  0
 14 41  1  0
 17 42  1  0
 18 43  1  0
 20 44  1  0
 21 45  1  0
 23 46  1  0
 24 47  1  0
 27 48  1  0
M  END
>  <smiles>  (46) 
O=C(NCC(=O)N1CCC[C@H]1c1ccc(Cl)cc1)c1ccc2ccc(F)cc2n1

>  <score_type>  (46) 
oracle

>  <origin>  (46) 
autodockgpu

>  <m_score__min__energy>  (46) 
-8.5299999999999994

>  <m_primary>  (46) 
energy

>  <rmsd>  (46) 
2.567611276980274

>  <m_score__min__rmsd>  (46) 
2.567611276980274

>  <meeko>  (46) 
{"free_energy": -7.72, "intermolecular_energy": -9.21, "internal_energy": -1.76, "cluster_size": 16, "cluster_id": 1, "rank_in_cluster": 13}

>  <energy>  (46) 
-7.12

>  <cluster_rmsd>  (46) 
0.09

>  <cluster>  (46) 
9

$$$$

     RDKit          3D

 48 51  0  0  0  0  0  0  0  0999 V2000
  139.5990   71.4020  221.0570 O   0  0  0  0  0  0  0  0  0  0  0  0
  139.6460   71.9860  222.1720 C   0  0  0  0  0  0  0  0  0  0  0  0
  139.5710   73.4380  222.1570 N   0  0  0  0  0  0  0  0  0  0  0  0
  139.4530   74.0430  220.8830 C   0  0  0  0  0  0  0  0  0  0  0  0
  140.6100   74.2250  220.0360 C   0  0  0  0  0  0  0  0  0  0  0  0
  140.3300   74.6780  218.8440 O   0  0  0  0  0  0  0  0  0  0  0  0
  141.9860   73.9900  220.3020 N   0  0  0  0  0  0  0  0  0  0  0  0
  142.6240   72.7910  220.8450 C   0  0  0  0  0  0  0  0  0  0  0  0
  144.1030   73.0010  220.4690 C   0  0  0  0  0  0  0  0  0  0  0  0
  144.0410   74.1190  219.4010 C   0  0  0  0  0  0  0  0  0  0  0  0
  143.0290   74.9760  220.1020 C   0  0  1  0  0  0  0  0  0  0  0  0
  142.7880   76.2870  219.6720 C   0  0  0  0  0  0  0  0  0  0  0  0
  142.0580   77.1820  220.4720 C   0  0  0  0  0  0  0  0  0  0  0  0
  141.7760   78.4650  220.0580 C   0  0  0  0  0  0  0  0  0  0  0  0
  142.2010   78.9300  218.8320 C   0  0  0  0  0  0  0  0  0  0  0  0
  141.8650   80.5460  218.2730 Cl  0  0  0  0  0  0  0  0  0  0  0  0
  142.9180   78.0600  218.0390 C   0  0  0  0  0  0  0  0  0  0  0  0
  143.1980   76.7820  218.4530 C   0  0  0  0  0  0  0  0  0  0  0  0
  139.7680   71.2810  223.4400 C   0  0  0  0  0  0  0  0  0  0  0  0
  139.2670   69.9980  223.4920 C   0  0  0  0  0  0  0  0  0  0  0  0
  139.3580   69.2760  224.6830 C   0  0  0  0  0  0  0  0  0  0  0  0
  139.9540   69.8720  225.7940 C   0  0  0  0  0  0  0  0  0  0  0  0
  140.0230   69.1350  226.9380 C   0  0  0  0  0  0  0  0  0  0  0  0
  140.6170   69.7190  228.0580 C   0  0  0  0  0  0  0  0  0  0  0  0
  141.1030   71.0070  227.9530 C   0  0  0  0  0  0  0  0  0  0  0  0
  141.6790   71.5670  229.0430 F   0  0  0  0  0  0  0  0  0  0  0  0
  141.0200   71.7250  226.7870 C   0  0  0  0  0  0  0  0  0  0  0  0
  140.4290   71.1580  225.6580 C   0  0  0  0  0  0  0  0  0  0  0  0
  140.3460   71.8620  224.5140 N   0  0  0  0  0  0  0  0  0  0  0  0
  139.5950   73.8660  223.0930 H   0  0  0  0  0  0  0  0  0  0  0  0
  138.7396   73.4314  220.3111 H   0  0  0  0  0  0  0  0  0  0  0  0
  139.1694   75.0765  221.1310 H   0  0  0  0  0  0  0  0  0  0  0  0
  142.4957   72.7318  221.9359 H   0  0  0  0  0  0  0  0  0  0  0  0
  142.2009   71.8539  220.4541 H   0  0  0  0  0  0  0  0  0  0  0  0
  144.6903   73.3217  221.3421 H   0  0  0  0  0  0  0  0  0  0  0  0
  144.5902   72.0841  220.1058 H   0  0  0  0  0  0  0  0  0  0  0  0
  145.0063   74.6293  219.2679 H   0  0  0  0  0  0  0  0  0  0  0  0
  143.8001   73.8090  218.3735 H   0  0  0  0  0  0  0  0  0  0  0  0
  143.3506   75.4435  221.0444 H   0  0  0  0  0  0  0  0  0  0  0  0
  141.7013   76.8484  221.4576 H   0  0  0  0  0  0  0  0  0  0  0  0
  141.2009   79.1310  220.7181 H   0  0  0  0  0  0  0  0  0  0  0  0
  143.2731   78.3971  217.0540 H   0  0  0  0  0  0  0  0  0  0  0  0
  143.7736   76.1254  217.7840 H   0  0  0  0  0  0  0  0  0  0  0  0
  138.8001   69.5476  222.6037 H   0  0  0  0  0  0  0  0  0  0  0  0
  138.9648   68.2505  224.7445 H   0  0  0  0  0  0  0  0  0  0  0  0
  139.6228   68.1111  226.9777 H   0  0  0  0  0  0  0  0  0  0  0  0
  140.6963   69.1645  229.0047 H   0  0  0  0  0  0  0  0  0  0  0  0
  141.4199   72.7488  226.7424 H   0  0  0  0  0  0  0  0  0  0  0  0
  1  2  2  0
  2  3  1  0
  3  4  1  0
  4  5  1  0
  5  6  2  0
  5  7  1  0
  7  8  1  0
  8  9  1  0
  9 10  1  0
 10 11  1  0
 11 12  1  0
 12 13  2  0
 13 14  1  0
 14 15  2  0
 15 16  1  0
 15 17  1  0
 17 18  2  0
  2 19  1  0
 19 20  2  0
 20 21  1  0
 21 22  2  0
 22 23  1  0
 23 24  2  0
 24 25  1  0
 25 26  1  0
 25 27  2  0
 27 28  1  0
 28 29  2  0
 11  7  1  0
 18 12  1  0
 29 19  1  0
 28 22  1  0
  3 30  1  0
  4 31  1  0
  4 32  1  0
  8 33  1  0
  8 34  1  0
  9 35  1  0
  9 36  1  0
 10 37  1  0
 10 38  1  0
 11 39  1  1
 13 40  1  0
 14 41  1  0
 17 42  1  0
 18 43  1  0
 20 44  1  0
 21 45  1  0
 23 46  1  0
 24 47  1  0
 27 48  1  0
M  END
>  <smiles>  (47) 
O=C(NCC(=O)N1CCC[C@H]1c1ccc(Cl)cc1)c1ccc2ccc(F)cc2n1

>  <score_type>  (47) 
oracle

>  <origin>  (47) 
autodockgpu

>  <m_score__min__energy>  (47) 
-8.5299999999999994

>  <m_primary>  (47) 
energy

>  <rmsd>  (47) 
2.867857005258918

>  <m_score__min__rmsd>  (47) 
2.867857005258918

>  <meeko>  (47) 
{"free_energy": -7.85, "intermolecular_energy": -9.34, "internal_energy": -1.67, "cluster_size": 11, "cluster_id": 4, "rank_in_cluster": 9}

>  <energy>  (47) 
-7.09

>  <cluster_rmsd>  (47) 
1.81

>  <cluster>  (47) 
9

$$$$

     RDKit          3D

 48 51  0  0  0  0  0  0  0  0999 V2000
  138.7220   70.6070  221.3220 O   0  0  0  0  0  0  0  0  0  0  0  0
  138.9150   71.2990  222.3560 C   0  0  0  0  0  0  0  0  0  0  0  0
  138.7210   72.7350  222.2300 N   0  0  0  0  0  0  0  0  0  0  0  0
  138.3340   73.2030  220.9520 C   0  0  0  0  0  0  0  0  0  0  0  0
  139.0570   74.2710  220.3010 C   0  0  0  0  0  0  0  0  0  0  0  0
  139.4190   73.9980  219.0770 O   0  0  0  0  0  0  0  0  0  0  0  0
  139.4250   75.5560  220.7850 N   0  0  0  0  0  0  0  0  0  0  0  0
  138.5660   76.6890  221.1250 C   0  0  0  0  0  0  0  0  0  0  0  0
  139.4960   77.5670  221.9820 C   0  0  0  0  0  0  0  0  0  0  0  0
  140.6530   76.6070  222.3470 C   0  0  0  0  0  0  0  0  0  0  0  0
  140.7950   75.9810  220.9910 C   0  0  1  0  0  0  0  0  0  0  0  0
  141.9100   75.1880  220.6880 C   0  0  0  0  0  0  0  0  0  0  0  0
  141.9680   73.8460  221.0950 C   0  0  0  0  0  0  0  0  0  0  0  0
  143.0660   73.0550  220.8410 C   0  0  0  0  0  0  0  0  0  0  0  0
  144.1650   73.5500  220.1710 C   0  0  0  0  0  0  0  0  0  0  0  0
  145.5720   72.5810  219.8300 Cl  0  0  0  0  0  0  0  0  0  0  0  0
  144.1180   74.8660  219.7660 C   0  0  0  0  0  0  0  0  0  0  0  0
  143.0220   75.6530  220.0200 C   0  0  0  0  0  0  0  0  0  0  0  0
  139.3130   70.7330  223.6370 C   0  0  0  0  0  0  0  0  0  0  0  0
  139.1060   69.3810  223.8120 C   0  0  0  0  0  0  0  0  0  0  0  0
  139.4700   68.7850  225.0200 C   0  0  0  0  0  0  0  0  0  0  0  0
  140.0340   69.5730  226.0230 C   0  0  0  0  0  0  0  0  0  0  0  0
  140.3750   68.9550  227.1880 C   0  0  0  0  0  0  0  0  0  0  0  0
  140.9400   69.7310  228.2010 C   0  0  0  0  0  0  0  0  0  0  0  0
  141.1260   71.0800  227.9750 C   0  0  0  0  0  0  0  0  0  0  0  0
  141.6750   71.8280  228.9600 F   0  0  0  0  0  0  0  0  0  0  0  0
  140.7730   71.6760  226.7900 C   0  0  0  0  0  0  0  0  0  0  0  0
  140.2060   70.9160  225.7670 C   0  0  0  0  0  0  0  0  0  0  0  0
  139.8590   71.5000  224.6050 N   0  0  0  0  0  0  0  0  0  0  0  0
  138.8730   73.2540  223.1070 H   0  0  0  0  0  0  0  0  0  0  0  0
  138.3784   72.3371  220.2751 H   0  0  0  0  0  0  0  0  0  0  0  0
  137.3526   73.6594  221.1482 H   0  0  0  0  0  0  0  0  0  0  0  0
  138.2363   77.2230  220.2216 H   0  0  0  0  0  0  0  0  0  0  0  0
  137.6396   76.3974  221.6414 H   0  0  0  0  0  0  0  0  0  0  0  0
  139.8653   78.4287  221.4066 H   0  0  0  0  0  0  0  0  0  0  0  0
  138.9949   77.9928  222.8638 H   0  0  0  0  0  0  0  0  0  0  0  0
  141.5613   77.1413  222.6625 H   0  0  0  0  0  0  0  0  0  0  0  0
  140.4821   75.9242  223.1923 H   0  0  0  0  0  0  0  0  0  0  0  0
  141.1567   76.6349  220.1838 H   0  0  0  0  0  0  0  0  0  0  0  0
  141.1113   73.4136  221.6326 H   0  0  0  0  0  0  0  0  0  0  0  0
  143.0666   72.0082  221.1790 H   0  0  0  0  0  0  0  0  0  0  0  0
  144.9762   75.2950  219.2281 H   0  0  0  0  0  0  0  0  0  0  0  0
  143.0320   76.6978  219.6761 H   0  0  0  0  0  0  0  0  0  0  0  0
  138.6586   68.7786  223.0077 H   0  0  0  0  0  0  0  0  0  0  0  0
  139.3142   67.7078  225.1791 H   0  0  0  0  0  0  0  0  0  0  0  0
  140.2099   67.8763  227.3262 H   0  0  0  0  0  0  0  0  0  0  0  0
  141.2311   69.2771  229.1597 H   0  0  0  0  0  0  0  0  0  0  0  0
  140.9374   72.7542  226.6469 H   0  0  0  0  0  0  0  0  0  0  0  0
  1  2  2  0
  2  3  1  0
  3  4  1  0
  4  5  1  0
  5  6  2  0
  5  7  1  0
  7  8  1  0
  8  9  1  0
  9 10  1  0
 10 11  1  0
 11 12  1  0
 12 13  2  0
 13 14  1  0
 14 15  2  0
 15 16  1  0
 15 17  1  0
 17 18  2  0
  2 19  1  0
 19 20  2  0
 20 21  1  0
 21 22  2  0
 22 23  1  0
 23 24  2  0
 24 25  1  0
 25 26  1  0
 25 27  2  0
 27 28  1  0
 28 29  2  0
 11  7  1  0
 18 12  1  0
 29 19  1  0
 28 22  1  0
  3 30  1  0
  4 31  1  0
  4 32  1  0
  8 33  1  0
  8 34  1  0
  9 35  1  0
  9 36  1  0
 10 37  1  0
 10 38  1  0
 11 39  1  6
 13 40  1  0
 14 41  1  0
 17 42  1  0
 18 43  1  0
 20 44  1  0
 21 45  1  0
 23 46  1  0
 24 47  1  0
 27 48  1  0
M  END
>  <smiles>  (48) 
O=C(NCC(=O)N1CCC[C@H]1c1ccc(Cl)cc1)c1ccc2ccc(F)cc2n1

>  <score_type>  (48) 
oracle

>  <origin>  (48) 
autodockgpu

>  <m_score__min__energy>  (48) 
-8.5299999999999994

>  <m_primary>  (48) 
energy

>  <rmsd>  (48) 
2.3131184706625927

>  <m_score__min__rmsd>  (48) 
2.3131184706625927

>  <meeko>  (48) 
{"free_energy": -7.85, "intermolecular_energy": -9.34, "internal_energy": -1.68, "cluster_size": 4, "cluster_id": 5, "rank_in_cluster": 1}

>  <energy>  (48) 
-7.03

>  <cluster_rmsd>  (48) 
1.63

>  <cluster>  (48) 
9

$$$$

     RDKit          3D

 48 51  0  0  0  0  0  0  0  0999 V2000
  137.3510   71.0150  221.3570 O   0  0  0  0  0  0  0  0  0  0  0  0
  137.5520   71.9310  222.1990 C   0  0  0  0  0  0  0  0  0  0  0  0
  136.7670   71.8830  223.4220 N   0  0  0  0  0  0  0  0  0  0  0  0
  135.8560   70.8060  223.5370 C   0  0  0  0  0  0  0  0  0  0  0  0
  136.3160   69.4740  223.8570 C   0  0  0  0  0  0  0  0  0  0  0  0
  135.7650   68.9640  224.9250 O   0  0  0  0  0  0  0  0  0  0  0  0
  137.2620   68.6470  223.1930 N   0  0  0  0  0  0  0  0  0  0  0  0
  137.0370   67.6580  222.1400 C   0  0  0  0  0  0  0  0  0  0  0  0
  138.4500   67.4600  221.5610 C   0  0  0  0  0  0  0  0  0  0  0  0
  139.2320   68.6770  222.1110 C   0  0  0  0  0  0  0  0  0  0  0  0
  138.6780   68.6260  223.5040 C   0  0  1  0  0  0  0  0  0  0  0  0
  139.2610   69.3830  224.5290 C   0  0  0  0  0  0  0  0  0  0  0  0
  139.2450   68.9250  225.8560 C   0  0  0  0  0  0  0  0  0  0  0  0
  139.7790   69.6660  226.8880 C   0  0  0  0  0  0  0  0  0  0  0  0
  140.3570   70.8970  226.6600 C   0  0  0  0  0  0  0  0  0  0  0  0
  141.0430   71.8620  227.9380 Cl  0  0  0  0  0  0  0  0  0  0  0  0
  140.3770   71.3550  225.3610 C   0  0  0  0  0  0  0  0  0  0  0  0
  139.8440   70.6160  224.3340 C   0  0  0  0  0  0  0  0  0  0  0  0
  138.5140   73.0050  221.9990 C   0  0  0  0  0  0  0  0  0  0  0  0
  139.7510   72.6510  221.5030 C   0  0  0  0  0  0  0  0  0  0  0  0
  140.7110   73.6400  221.2920 C   0  0  0  0  0  0  0  0  0  0  0  0
  140.3970   74.9660  221.5880 C   0  0  0  0  0  0  0  0  0  0  0  0
  141.3610   75.9030  221.3690 C   0  0  0  0  0  0  0  0  0  0  0  0
  141.0600   77.2340  221.6600 C   0  0  0  0  0  0  0  0  0  0  0  0
  139.8070   77.5360  222.1550 C   0  0  0  0  0  0  0  0  0  0  0  0
  139.5210   78.8290  222.4360 F   0  0  0  0  0  0  0  0  0  0  0  0
  138.8550   76.5710  222.3660 C   0  0  0  0  0  0  0  0  0  0  0  0
  139.1380   75.2360  222.0800 C   0  0  0  0  0  0  0  0  0  0  0  0
  138.2050   74.2880  222.2870 N   0  0  0  0  0  0  0  0  0  0  0  0
  136.9810   72.6410  224.0840 H   0  0  0  0  0  0  0  0  0  0  0  0
  135.1379   71.0860  224.3218 H   0  0  0  0  0  0  0  0  0  0  0  0
  135.4834   70.6930  222.5082 H   0  0  0  0  0  0  0  0  0  0  0  0
  136.6421   66.7188  222.5546 H   0  0  0  0  0  0  0  0  0  0  0  0
  136.2968   67.9758  221.3909 H   0  0  0  0  0  0  0  0  0  0  0  0
  138.8915   66.5159  221.9127 H   0  0  0  0  0  0  0  0  0  0  0  0
  138.4614   67.4008  220.4627 H   0  0  0  0  0  0  0  0  0  0  0  0
  140.3212   68.5259  222.0842 H   0  0  0  0  0  0  0  0  0  0  0  0
  139.1174   69.6262  221.5670 H   0  0  0  0  0  0  0  0  0  0  0  0
  138.9610   67.7549  224.1132 H   0  0  0  0  0  0  0  0  0  0  0  0
  138.7934   67.9469  226.0783 H   0  0  0  0  0  0  0  0  0  0  0  0
  139.7435   69.2680  227.9128 H   0  0  0  0  0  0  0  0  0  0  0  0
  140.8295   72.3334  225.1419 H   0  0  0  0  0  0  0  0  0  0  0  0
  139.8841   71.0251  223.3137 H   0  0  0  0  0  0  0  0  0  0  0  0
  139.9782   71.5989  221.2761 H   0  0  0  0  0  0  0  0  0  0  0  0
  141.7035   73.3775  220.8970 H   0  0  0  0  0  0  0  0  0  0  0  0
  142.3477   75.6188  220.9744 H   0  0  0  0  0  0  0  0  0  0  0  0
  141.8056   78.0264  221.4984 H   0  0  0  0  0  0  0  0  0  0  0  0
  137.8673   76.8508  222.7612 H   0  0  0  0  0  0  0  0  0  0  0  0
  1  2  2  0
  2  3  1  0
  3  4  1  0
  4  5  1  0
  5  6  2  0
  5  7  1  0
  7  8  1  0
  8  9  1  0
  9 10  1  0
 10 11  1  0
 11 12  1  0
 12 13  2  0
 13 14  1  0
 14 15  2  0
 15 16  1  0
 15 17  1  0
 17 18  2  0
  2 19  1  0
 19 20  2  0
 20 21  1  0
 21 22  2  0
 22 23  1  0
 23 24  2  0
 24 25  1  0
 25 26  1  0
 25 27  2  0
 27 28  1  0
 28 29  2  0
 11  7  1  0
 18 12  1  0
 29 19  1  0
 28 22  1  0
  3 30  1  0
  4 31  1  0
  4 32  1  0
  8 33  1  0
  8 34  1  0
  9 35  1  0
  9 36  1  0
 10 37  1  0
 10 38  1  0
 11 39  1  1
 13 40  1  0
 14 41  1  0
 17 42  1  0
 18 43  1  0
 20 44  1  0
 21 45  1  0
 23 46  1  0
 24 47  1  0
 27 48  1  0
M  END
>  <smiles>  (49) 
O=C(NCC(=O)N1CCC[C@H]1c1ccc(Cl)cc1)c1ccc2ccc(F)cc2n1

>  <score_type>  (49) 
oracle

>  <origin>  (49) 
autodockgpu

>  <m_score__min__energy>  (49) 
-8.5299999999999994

>  <m_primary>  (49) 
energy

>  <rmsd>  (49) 
7.375836592193148

>  <m_score__min__rmsd>  (49) 
7.375836592193148

>  <meeko>  (49) 
{"free_energy": -7.09, "intermolecular_energy": -8.58, "internal_energy": -2.35, "cluster_size": 4, "cluster_id": 9, "rank_in_cluster": 3}

>  <energy>  (49) 
-7.02

>  <cluster_rmsd>  (49) 
0.0

>  <cluster>  (49) 
10

$$$$

     RDKit          3D

 48 51  0  0  0  0  0  0  0  0999 V2000
  139.4850   71.1600  221.1640 O   0  0  0  0  0  0  0  0  0  0  0  0
  139.5070   71.8000  222.2490 C   0  0  0  0  0  0  0  0  0  0  0  0
  139.3030   73.2380  222.1690 N   0  0  0  0  0  0  0  0  0  0  0  0
  139.0990   73.7670  220.8720 C   0  0  0  0  0  0  0  0  0  0  0  0
  140.1680   73.7840  219.9000 C   0  0  0  0  0  0  0  0  0  0  0  0
  139.7580   73.8510  218.6620 O   0  0  0  0  0  0  0  0  0  0  0  0
  141.5760   73.7420  220.0860 N   0  0  0  0  0  0  0  0  0  0  0  0
  142.4890   72.6110  219.9230 C   0  0  0  0  0  0  0  0  0  0  0  0
  143.8620   73.3030  219.8250 C   0  0  0  0  0  0  0  0  0  0  0  0
  143.4950   74.7800  219.5450 C   0  0  0  0  0  0  0  0  0  0  0  0
  142.3680   74.8700  220.5310 C   0  0  1  0  0  0  0  0  0  0  0  0
  141.8240   76.1150  220.8770 C   0  0  0  0  0  0  0  0  0  0  0  0
  142.0670   77.2490  220.0850 C   0  0  0  0  0  0  0  0  0  0  0  0
  141.5740   78.4900  220.4210 C   0  0  0  0  0  0  0  0  0  0  0  0
  140.8150   78.6750  221.5570 C   0  0  0  0  0  0  0  0  0  0  0  0
  140.1740   80.2290  222.0150 Cl  0  0  0  0  0  0  0  0  0  0  0  0
  140.5710   77.5690  222.3410 C   0  0  0  0  0  0  0  0  0  0  0  0
  141.0630   76.3320  222.0050 C   0  0  0  0  0  0  0  0  0  0  0  0
  139.7240   71.1720  223.5450 C   0  0  0  0  0  0  0  0  0  0  0  0
  139.3100   69.8630  223.6810 C   0  0  0  0  0  0  0  0  0  0  0  0
  139.4940   69.2120  224.9010 C   0  0  0  0  0  0  0  0  0  0  0  0
  140.0920   69.9010  225.9550 C   0  0  0  0  0  0  0  0  0  0  0  0
  140.2520   69.2310  227.1300 C   0  0  0  0  0  0  0  0  0  0  0  0
  140.8490   69.9090  228.1940 C   0  0  0  0  0  0  0  0  0  0  0  0
  141.2460   71.2180  228.0060 C   0  0  0  0  0  0  0  0  0  0  0  0
  141.8250   71.8700  229.0420 F   0  0  0  0  0  0  0  0  0  0  0  0
  141.0710   71.8680  226.8100 C   0  0  0  0  0  0  0  0  0  0  0  0
  140.4760   71.2070  225.7370 C   0  0  0  0  0  0  0  0  0  0  0  0
  140.3040   71.8430  224.5630 N   0  0  0  0  0  0  0  0  0  0  0  0
  139.3120   73.7110  223.0830 H   0  0  0  0  0  0  0  0  0  0  0  0
  138.2775   73.1888  220.4238 H   0  0  0  0  0  0  0  0  0  0  0  0
  138.9337   74.8364  221.0695 H   0  0  0  0  0  0  0  0  0  0  0  0
  142.4449   71.9362  220.7906 H   0  0  0  0  0  0  0  0  0  0  0  0
  142.2534   71.9786  219.0543 H   0  0  0  0  0  0  0  0  0  0  0  0
  144.4201   73.2073  220.7681 H   0  0  0  0  0  0  0  0  0  0  0  0
  144.5109   72.8659  219.0518 H   0  0  0  0  0  0  0  0  0  0  0  0
  144.3177   75.4712  219.7801 H   0  0  0  0  0  0  0  0  0  0  0  0
  143.2632   75.0437  218.5025 H   0  0  0  0  0  0  0  0  0  0  0  0
  142.6400   74.7971  221.5944 H   0  0  0  0  0  0  0  0  0  0  0  0
  142.6684   77.1428  219.1701 H   0  0  0  0  0  0  0  0  0  0  0  0
  141.7899   79.3504  219.7705 H   0  0  0  0  0  0  0  0  0  0  0  0
  139.9694   77.6791  223.2553 H   0  0  0  0  0  0  0  0  0  0  0  0
  140.8405   75.4793  222.6633 H   0  0  0  0  0  0  0  0  0  0  0  0
  138.8398   69.3382  222.8363 H   0  0  0  0  0  0  0  0  0  0  0  0
  139.1713   68.1683  225.0297 H   0  0  0  0  0  0  0  0  0  0  0  0
  139.9209   68.1875  227.2371 H   0  0  0  0  0  0  0  0  0  0  0  0
  141.0002   69.4105  229.1628 H   0  0  0  0  0  0  0  0  0  0  0  0
  141.4006   72.9115  226.6982 H   0  0  0  0  0  0  0  0  0  0  0  0
  1  2  2  0
  2  3  1  0
  3  4  1  0
  4  5  1  0
  5  6  2  0
  5  7  1  0
  7  8  1  0
  8  9  1  0
  9 10  1  0
 10 11  1  0
 11 12  1  0
 12 13  2  0
 13 14  1  0
 14 15  2  0
 15 16  1  0
 15 17  1  0
 17 18  2  0
  2 19  1  0
 19 20  2  0
 20 21  1  0
 21 22  2  0
 22 23  1  0
 23 24  2  0
 24 25  1  0
 25 26  1  0
 25 27  2  0
 27 28  1  0
 28 29  2  0
 11  7  1  0
 18 12  1  0
 29 19  1  0
 28 22  1  0
  3 30  1  0
  4 31  1  0
  4 32  1  0
  8 33  1  0
  8 34  1  0
  9 35  1  0
  9 36  1  0
 10 37  1  0
 10 38  1  0
 11 39  1  1
 13 40  1  0
 14 41  1  0
 17 42  1  0
 18 43  1  0
 20 44  1  0
 21 45  1  0
 23 46  1  0
 24 47  1  0
 27 48  1  0
M  END
>  <smiles>  (50) 
O=C(NCC(=O)N1CCC[C@H]1c1ccc(Cl)cc1)c1ccc2ccc(F)cc2n1

>  <score_type>  (50) 
oracle

>  <origin>  (50) 
autodockgpu

>  <m_score__min__energy>  (50) 
-8.5299999999999994

>  <m_primary>  (50) 
energy

>  <rmsd>  (50) 
2.5737894767946603

>  <m_score__min__rmsd>  (50) 
2.5737894767946603

>  <meeko>  (50) 
{"free_energy": -7.73, "intermolecular_energy": -9.22, "internal_energy": -1.76, "cluster_size": 16, "cluster_id": 1, "rank_in_cluster": 11}

>  <energy>  (50) 
-6.97

>  <cluster_rmsd>  (50) 
0.2

>  <cluster>  (50) 
10

$$$$
