
     RDKit          3D

 47 50  0  0  0  0  0  0  0  0999 V2000
  141.0540   73.3820  220.6370 O   0  0  0  0  0  0  0  0  0  0  0  0
  140.4310   74.2380  221.3200 C   0  0  0  0  0  0  0  0  0  0  0  0
  139.3300   73.7620  222.1380 N   0  0  0  0  0  0  0  0  0  0  0  0
  139.0680   72.3650  222.0830 C   0  0  0  0  0  0  0  0  0  0  0  0
  139.7480   71.4630  222.9920 C   0  0  0  0  0  0  0  0  0  0  0  0
  141.0510   71.4750  222.8630 O   0  0  0  0  0  0  0  0  0  0  0  0
  139.2370   70.5950  223.9710 N   0  0  0  0  0  0  0  0  0  0  0  0
  137.8880   70.3990  224.4760 C   0  0  0  0  0  0  0  0  0  0  0  0
  137.9920   69.1690  225.4100 C   0  0  0  0  0  0  0  0  0  0  0  0
  139.2320   68.4870  224.8710 C   0  0  0  0  0  0  0  0  0  0  0  0
  140.1480   69.6740  224.7100 C   0  0  2  0  0  0  0  0  0  0  0  0
  140.5100   70.2950  225.9900 C   0  0  0  0  0  0  0  0  0  0  0  0
  140.7570   71.6720  226.0620 C   0  0  0  0  0  0  0  0  0  0  0  0
  141.1040   72.2710  227.2710 C   0  0  0  0  0  0  0  0  0  0  0  0
  141.2140   71.5280  228.4380 C   0  0  0  0  0  0  0  0  0  0  0  0
  140.9710   70.2090  228.3430 N   0  0  0  0  0  0  0  0  0  0  0  0
  140.6350   69.6150  227.1830 C   0  0  0  0  0  0  0  0  0  0  0  0
  140.7650   75.6550  221.3170 C   0  0  0  0  0  0  0  0  0  0  0  0
  141.7070   76.0770  220.4020 C   0  0  0  0  0  0  0  0  0  0  0  0
  142.0320   77.4290  220.3960 C   0  0  0  0  0  0  0  0  0  0  0  0
  141.4040   78.2820  221.2970 C   0  0  0  0  0  0  0  0  0  0  0  0
  141.7050   79.6490  221.3180 C   0  0  0  0  0  0  0  0  0  0  0  0
  141.0720   80.4930  222.2240 C   0  0  0  0  0  0  0  0  0  0  0  0
  141.4530   82.1970  222.2460 Cl  0  0  0  0  0  0  0  0  0  0  0  0
  140.1380   80.0150  223.1180 C   0  0  0  0  0  0  0  0  0  0  0  0
  139.8490   78.6780  223.0890 C   0  0  0  0  0  0  0  0  0  0  0  0
  140.4640   77.8200  222.2010 C   0  0  0  0  0  0  0  0  0  0  0  0
  140.1720   76.5110  222.1830 N   0  0  0  0  0  0  0  0  0  0  0  0
  138.8580   74.4950  222.6820 H   0  0  0  0  0  0  0  0  0  0  0  0
  137.9894   72.2372  222.2568 H   0  0  0  0  0  0  0  0  0  0  0  0
  139.4598   72.0731  221.0974 H   0  0  0  0  0  0  0  0  0  0  0  0
  137.5512   71.2838  225.0361 H   0  0  0  0  0  0  0  0  0  0  0  0
  137.1591   70.2460  223.6665 H   0  0  0  0  0  0  0  0  0  0  0  0
  138.1232   69.4710  226.4596 H   0  0  0  0  0  0  0  0  0  0  0  0
  137.0953   68.5319  225.4153 H   0  0  0  0  0  0  0  0  0  0  0  0
  139.6367   67.7553  225.5858 H   0  0  0  0  0  0  0  0  0  0  0  0
  139.0722   67.9025  223.9530 H   0  0  0  0  0  0  0  0  0  0  0  0
  141.1071   69.4239  224.2331 H   0  0  0  0  0  0  0  0  0  0  0  0
  140.6761   72.2872  225.1537 H   0  0  0  0  0  0  0  0  0  0  0  0
  141.2945   73.3540  227.3012 H   0  0  0  0  0  0  0  0  0  0  0  0
  141.4871   71.9960  229.3953 H   0  0  0  0  0  0  0  0  0  0  0  0
  140.4505   68.5306  227.1868 H   0  0  0  0  0  0  0  0  0  0  0  0
  142.1824   75.3717  219.7045 H   0  0  0  0  0  0  0  0  0  0  0  0
  142.7770   77.8192  219.6870 H   0  0  0  0  0  0  0  0  0  0  0  0
  142.4456   80.0574  220.6146 H   0  0  0  0  0  0  0  0  0  0  0  0
  139.6406   80.6875  223.8324 H   0  0  0  0  0  0  0  0  0  0  0  0
  139.1057   78.2761  223.7933 H   0  0  0  0  0  0  0  0  0  0  0  0
  1  2  2  0
  2  3  1  0
  3  4  1  0
  4  5  1  0
  5  6  2  0
  5  7  1  0
  7  8  1  0
  8  9  1  0
  9 10  1  0
 10 11  1  0
 11 12  1  0
 12 13  2  0
 13 14  1  0
 14 15  2  0
 15 16  1  0
 16 17  2  0
  2 18  1  0
 18 19  2  0
 19 20  1  0
 20 21  2  0
 21 22  1  0
 22 23  2  0
 23 24  1  0
 23 25  1  0
 25 26  2  0
 26 27  1  0
 27 28  2  0
 11  7  1  0
 17 12  1  0
 28 18  1  0
 27 21  1  0
  3 29  1  0
  4 30  1  0
  4 31  1  0
  8 32  1  0
  8 33  1  0
  9 34  1  0
  9 35  1  0
 10 36  1  0
 10 37  1  0
 11 38  1  6
 13 39  1  0
 14 40  1  0
 15 41  1  0
 17 42  1  0
 19 43  1  0
 20 44  1  0
 22 45  1  0
 25 46  1  0
 26 47  1  0
M  END
>  <smiles>  (1) 
O=C(NCC(=O)N1CCCC1c1cccnc1)c1ccc2cc(Cl)ccc2n1

>  <score_type>  (1) 
oracle

>  <origin>  (1) 
autodockgpu

>  <m_score__min__energy>  (1) 
-8.6799999999999997

>  <m_primary>  (1) 
energy

>  <rmsd>  (1) 
8.525781474144114

>  <m_score__min__rmsd>  (1) 
8.525781474144114

>  <meeko>  (1) 
{"free_energy": -8.34, "intermolecular_energy": -9.83, "internal_energy": -1.43, "cluster_size": 10, "cluster_id": 2, "rank_in_cluster": 1}

>  <energy>  (1) 
-8.68

>  <cluster_rmsd>  (1) 
0.0

>  <cluster>  (1) 
1

$$$$

     RDKit          3D

 47 50  0  0  0  0  0  0  0  0999 V2000
  133.6270   69.5030  226.5670 O   0  0  0  0  0  0  0  0  0  0  0  0
  134.0330   70.6010  226.1000 C   0  0  0  0  0  0  0  0  0  0  0  0
  135.1140   70.5510  225.1310 N   0  0  0  0  0  0  0  0  0  0  0  0
  135.6060   69.2570  224.8080 C   0  0  0  0  0  0  0  0  0  0  0  0
  136.5820   69.0960  223.7470 C   0  0  0  0  0  0  0  0  0  0  0  0
  136.1830   68.3020  222.7850 O   0  0  0  0  0  0  0  0  0  0  0  0
  137.8640   69.6500  223.5930 N   0  0  0  0  0  0  0  0  0  0  0  0
  138.8510   69.5150  222.5340 C   0  0  0  0  0  0  0  0  0  0  0  0
  139.9630   70.5260  222.9010 C   0  0  0  0  0  0  0  0  0  0  0  0
  139.2060   71.4980  223.7820 C   0  0  0  0  0  0  0  0  0  0  0  0
  138.4330   70.5350  224.6480 C   0  0  2  0  0  0  0  0  0  0  0  0
  139.2980   69.7320  225.5220 C   0  0  0  0  0  0  0  0  0  0  0  0
  139.1220   68.3450  225.6090 C   0  0  0  0  0  0  0  0  0  0  0  0
  139.9350   67.5740  226.4370 C   0  0  0  0  0  0  0  0  0  0  0  0
  140.9420   68.1510  227.1970 C   0  0  0  0  0  0  0  0  0  0  0  0
  141.0920   69.4830  227.0960 N   0  0  0  0  0  0  0  0  0  0  0  0
  140.3150   70.2430  226.3020 C   0  0  0  0  0  0  0  0  0  0  0  0
  133.4720   71.8860  226.4880 C   0  0  0  0  0  0  0  0  0  0  0  0
  132.3020   71.8670  227.2180 C   0  0  0  0  0  0  0  0  0  0  0  0
  131.7600   73.0920  227.5910 C   0  0  0  0  0  0  0  0  0  0  0  0
  132.4100   74.2630  227.2190 C   0  0  0  0  0  0  0  0  0  0  0  0
  131.8950   75.5140  227.5770 C   0  0  0  0  0  0  0  0  0  0  0  0
  132.5520   76.6790  227.1980 C   0  0  0  0  0  0  0  0  0  0  0  0
  131.9040   78.2370  227.6480 Cl  0  0  0  0  0  0  0  0  0  0  0  0
  133.7200   76.6380  226.4670 C   0  0  0  0  0  0  0  0  0  0  0  0
  134.2170   75.4110  226.1220 C   0  0  0  0  0  0  0  0  0  0  0  0
  133.5830   74.2420  226.4840 C   0  0  0  0  0  0  0  0  0  0  0  0
  134.0810   73.0450  226.1390 N   0  0  0  0  0  0  0  0  0  0  0  0
  135.4040   71.4700  224.7740 H   0  0  0  0  0  0  0  0  0  0  0  0
  136.0629   68.8533  225.7236 H   0  0  0  0  0  0  0  0  0  0  0  0
  134.7182   68.7397  224.4154 H   0  0  0  0  0  0  0  0  0  0  0  0
  139.2518   68.4910  222.5058 H   0  0  0  0  0  0  0  0  0  0  0  0
  138.4232   69.7102  221.5396 H   0  0  0  0  0  0  0  0  0  0  0  0
  140.7829   70.0401  223.4502 H   0  0  0  0  0  0  0  0  0  0  0  0
  140.4502   70.9929  222.0323 H   0  0  0  0  0  0  0  0  0  0  0  0
  139.8879   72.1229  224.3774 H   0  0  0  0  0  0  0  0  0  0  0  0
  138.5861   72.2251  223.2370 H   0  0  0  0  0  0  0  0  0  0  0  0
  137.7228   71.0307  225.3262 H   0  0  0  0  0  0  0  0  0  0  0  0
  138.3327   67.8590  225.0167 H   0  0  0  0  0  0  0  0  0  0  0  0
  139.7754   66.4869  226.4891 H   0  0  0  0  0  0  0  0  0  0  0  0
  141.5874   67.5469  227.8516 H   0  0  0  0  0  0  0  0  0  0  0  0
  140.5003   71.3269  226.2735 H   0  0  0  0  0  0  0  0  0  0  0  0
  131.8164   70.9195  227.4944 H   0  0  0  0  0  0  0  0  0  0  0  0
  130.8279   73.1339  228.1736 H   0  0  0  0  0  0  0  0  0  0  0  0
  130.9652   75.5758  228.1615 H   0  0  0  0  0  0  0  0  0  0  0  0
  134.2363   77.5629  226.1704 H   0  0  0  0  0  0  0  0  0  0  0  0
  135.1485   75.3559  225.5395 H   0  0  0  0  0  0  0  0  0  0  0  0
  1  2  2  0
  2  3  1  0
  3  4  1  0
  4  5  1  0
  5  6  2  0
  5  7  1  0
  7  8  1  0
  8  9  1  0
  9 10  1  0
 10 11  1  0
 11 12  1  0
 12 13  2  0
 13 14  1  0
 14 15  2  0
 15 16  1  0
 16 17  2  0
  2 18  1  0
 18 19  2  0
 19 20  1  0
 20 21  2  0
 21 22  1  0
 22 23  2  0
 23 24  1  0
 23 25  1  0
 25 26  2  0
 26 27  1  0
 27 28  2  0
 11  7  1  0
 17 12  1  0
 28 18  1  0
 27 21  1  0
  3 29  1  0
  4 30  1  0
  4 31  1  0
  8 32  1  0
  8 33  1  0
  9 34  1  0
  9 35  1  0
 10 36  1  0
 10 37  1  0
 11 38  1  1
 13 39  1  0
 14 40  1  0
 15 41  1  0
 17 42  1  0
 19 43  1  0
 20 44  1  0
 22 45  1  0
 25 46  1  0
 26 47  1  0
M  END
>  <smiles>  (2) 
O=C(NCC(=O)N1CCCC1c1cccnc1)c1ccc2cc(Cl)ccc2n1

>  <score_type>  (2) 
oracle

>  <origin>  (2) 
autodockgpu

>  <m_score__min__energy>  (2) 
-8.6799999999999997

>  <m_primary>  (2) 
energy

>  <rmsd>  (2) 
8.118327246252454

>  <m_score__min__rmsd>  (2) 
8.118327246252454

>  <meeko>  (2) 
{"free_energy": -7.63, "intermolecular_energy": -9.12, "internal_energy": -1.47, "cluster_size": 1, "cluster_id": 4, "rank_in_cluster": 1}

>  <energy>  (2) 
-8.66

>  <cluster_rmsd>  (2) 
0.55

>  <cluster>  (2) 
1

$$$$

     RDKit          3D

 47 50  0  0  0  0  0  0  0  0999 V2000
  140.5240   72.5540  220.7440 O   0  0  0  0  0  0  0  0  0  0  0  0
  140.1830   72.8760  221.9130 C   0  0  0  0  0  0  0  0  0  0  0  0
  139.8300   74.2650  222.1440 N   0  0  0  0  0  0  0  0  0  0  0  0
  139.9070   75.1260  221.0150 C   0  0  0  0  0  0  0  0  0  0  0  0
  141.1750   75.7210  220.6410 C   0  0  0  0  0  0  0  0  0  0  0  0
  142.2010   74.9320  220.8350 O   0  0  0  0  0  0  0  0  0  0  0  0
  141.4690   76.9890  220.1120 N   0  0  0  0  0  0  0  0  0  0  0  0
  142.5570   77.4530  219.2670 C   0  0  0  0  0  0  0  0  0  0  0  0
  142.1830   78.9100  218.9060 C   0  0  0  0  0  0  0  0  0  0  0  0
  140.6820   78.8930  219.1050 C   0  0  0  0  0  0  0  0  0  0  0  0
  140.5900   78.1540  220.4170 C   0  0  2  0  0  0  0  0  0  0  0  0
  141.1730   78.9050  221.5370 C   0  0  0  0  0  0  0  0  0  0  0  0
  141.4250   78.2670  222.7590 C   0  0  0  0  0  0  0  0  0  0  0  0
  141.9750   78.9700  223.8280 C   0  0  0  0  0  0  0  0  0  0  0  0
  142.2910   80.3160  223.7190 C   0  0  0  0  0  0  0  0  0  0  0  0
  142.0410   80.9050  222.5370 N   0  0  0  0  0  0  0  0  0  0  0  0
  141.5090   80.2420  221.4940 C   0  0  0  0  0  0  0  0  0  0  0  0
  140.1320   71.9270  223.0170 C   0  0  0  0  0  0  0  0  0  0  0  0
  139.5790   70.6910  222.7580 C   0  0  0  0  0  0  0  0  0  0  0  0
  139.5260   69.7800  223.8080 C   0  0  0  0  0  0  0  0  0  0  0  0
  140.0250   70.1500  225.0520 C   0  0  0  0  0  0  0  0  0  0  0  0
  139.9910   69.2610  226.1320 C   0  0  0  0  0  0  0  0  0  0  0  0
  140.4920   69.6410  227.3720 C   0  0  0  0  0  0  0  0  0  0  0  0
  140.4450   68.5270  228.7150 Cl  0  0  0  0  0  0  0  0  0  0  0  0
  141.0340   70.8930  227.5730 C   0  0  0  0  0  0  0  0  0  0  0  0
  141.0640   71.7560  226.5120 C   0  0  0  0  0  0  0  0  0  0  0  0
  140.5730   71.4030  225.2730 C   0  0  0  0  0  0  0  0  0  0  0  0
  140.6090   72.2580  224.2400 N   0  0  0  0  0  0  0  0  0  0  0  0
  139.5520   74.4770  223.1100 H   0  0  0  0  0  0  0  0  0  0  0  0
  139.5616   74.5439  220.1479 H   0  0  0  0  0  0  0  0  0  0  0  0
  139.3008   75.9928  221.3169 H   0  0  0  0  0  0  0  0  0  0  0  0
  143.5117   77.4218  219.8125 H   0  0  0  0  0  0  0  0  0  0  0  0
  142.6865   76.8240  218.3739 H   0  0  0  0  0  0  0  0  0  0  0  0
  142.6700   79.6291  219.5811 H   0  0  0  0  0  0  0  0  0  0  0  0
  142.4989   79.2182  217.8984 H   0  0  0  0  0  0  0  0  0  0  0  0
  140.2705   79.9102  219.1816 H   0  0  0  0  0  0  0  0  0  0  0  0
  140.1143   78.4375  218.2802 H   0  0  0  0  0  0  0  0  0  0  0  0
  139.5564   77.9372  220.7248 H   0  0  0  0  0  0  0  0  0  0  0  0
  141.1858   77.1996  222.8751 H   0  0  0  0  0  0  0  0  0  0  0  0
  142.1625   78.4474  224.7776 H   0  0  0  0  0  0  0  0  0  0  0  0
  142.7259   80.8753  224.5605 H   0  0  0  0  0  0  0  0  0  0  0  0
  141.3331   80.7945  220.5593 H   0  0  0  0  0  0  0  0  0  0  0  0
  139.1945   70.4350  221.7597 H   0  0  0  0  0  0  0  0  0  0  0  0
  139.0948   68.7795  223.6561 H   0  0  0  0  0  0  0  0  0  0  0  0
  139.5653   68.2554  225.9992 H   0  0  0  0  0  0  0  0  0  0  0  0
  141.4299   71.1885  228.5558 H   0  0  0  0  0  0  0  0  0  0  0  0
  141.4919   72.7597  226.6513 H   0  0  0  0  0  0  0  0  0  0  0  0
  1  2  2  0
  2  3  1  0
  3  4  1  0
  4  5  1  0
  5  6  2  0
  5  7  1  0
  7  8  1  0
  8  9  1  0
  9 10  1  0
 10 11  1  0
 11 12  1  0
 12 13  2  0
 13 14  1  0
 14 15  2  0
 15 16  1  0
 16 17  2  0
  2 18  1  0
 18 19  2  0
 19 20  1  0
 20 21  2  0
 21 22  1  0
 22 23  2  0
 23 24  1  0
 23 25  1  0
 25 26  2  0
 26 27  1  0
 27 28  2  0
 11  7  1  0
 17 12  1  0
 28 18  1  0
 27 21  1  0
  3 29  1  0
  4 30  1  0
  4 31  1  0
  8 32  1  0
  8 33  1  0
  9 34  1  0
  9 35  1  0
 10 36  1  0
 10 37  1  0
 11 38  1  1
 13 39  1  0
 14 40  1  0
 15 41  1  0
 17 42  1  0
 19 43  1  0
 20 44  1  0
 22 45  1  0
 25 46  1  0
 26 47  1  0
M  END
>  <smiles>  (3) 
O=C(NCC(=O)N1CCCC1c1cccnc1)c1ccc2cc(Cl)ccc2n1

>  <score_type>  (3) 
oracle

>  <origin>  (3) 
autodockgpu

>  <m_score__min__energy>  (3) 
-8.6799999999999997

>  <m_primary>  (3) 
energy

>  <rmsd>  (3) 
2.3799850813618213

>  <m_score__min__rmsd>  (3) 
2.3799850813618213

>  <meeko>  (3) 
{"free_energy": -8.48, "intermolecular_energy": -9.97, "internal_energy": -1.15, "cluster_size": 29, "cluster_id": 1, "rank_in_cluster": 12}

>  <energy>  (3) 
-8.65

>  <cluster_rmsd>  (3) 
0.53

>  <cluster>  (3) 
1

$$$$

     RDKit          3D

 47 50  0  0  0  0  0  0  0  0999 V2000
  140.9890   72.7620  221.1750 O   0  0  0  0  0  0  0  0  0  0  0  0
  140.2240   72.8410  222.1740 C   0  0  0  0  0  0  0  0  0  0  0  0
  139.3530   74.0000  222.2530 N   0  0  0  0  0  0  0  0  0  0  0  0
  139.4530   74.9330  221.1840 C   0  0  0  0  0  0  0  0  0  0  0  0
  139.8200   76.3090  221.4540 C   0  0  0  0  0  0  0  0  0  0  0  0
  139.2720   76.7930  222.5410 O   0  0  0  0  0  0  0  0  0  0  0  0
  140.6560   77.1880  220.7460 N   0  0  0  0  0  0  0  0  0  0  0  0
  141.8920   76.9640  220.0150 C   0  0  0  0  0  0  0  0  0  0  0  0
  142.1930   78.3160  219.3250 C   0  0  0  0  0  0  0  0  0  0  0  0
  140.8160   78.9440  219.2810 C   0  0  0  0  0  0  0  0  0  0  0  0
  140.3340   78.6420  220.6780 C   0  0  2  0  0  0  0  0  0  0  0  0
  141.1040   79.3460  221.7120 C   0  0  0  0  0  0  0  0  0  0  0  0
  141.4730   78.6840  222.8900 C   0  0  0  0  0  0  0  0  0  0  0  0
  142.2010   79.3420  223.8780 C   0  0  0  0  0  0  0  0  0  0  0  0
  142.5840   80.6680  223.7290 C   0  0  0  0  0  0  0  0  0  0  0  0
  142.2170   81.2810  222.5900 N   0  0  0  0  0  0  0  0  0  0  0  0
  141.5140   80.6600  221.6250 C   0  0  0  0  0  0  0  0  0  0  0  0
  140.1860   71.8380  223.2270 C   0  0  0  0  0  0  0  0  0  0  0  0
  139.6570   70.6060  222.9040 C   0  0  0  0  0  0  0  0  0  0  0  0
  139.6160   69.6430  223.9070 C   0  0  0  0  0  0  0  0  0  0  0  0
  140.1020   69.9590  225.1710 C   0  0  0  0  0  0  0  0  0  0  0  0
  140.0780   69.0160  226.2040 C   0  0  0  0  0  0  0  0  0  0  0  0
  140.5650   69.3420  227.4650 C   0  0  0  0  0  0  0  0  0  0  0  0
  140.5320   68.1610  228.7500 Cl  0  0  0  0  0  0  0  0  0  0  0  0
  141.0820   70.5920  227.7320 C   0  0  0  0  0  0  0  0  0  0  0  0
  141.1030   71.5080  226.7150 C   0  0  0  0  0  0  0  0  0  0  0  0
  140.6240   71.2080  225.4570 C   0  0  0  0  0  0  0  0  0  0  0  0
  140.6500   72.1160  224.4690 N   0  0  0  0  0  0  0  0  0  0  0  0
  138.7440   74.0170  223.0800 H   0  0  0  0  0  0  0  0  0  0  0  0
  140.2037   74.5356  220.4851 H   0  0  0  0  0  0  0  0  0  0  0  0
  138.4174   75.0143  220.8221 H   0  0  0  0  0  0  0  0  0  0  0  0
  142.7053   76.6906  220.7033 H   0  0  0  0  0  0  0  0  0  0  0  0
  141.8037   76.1393  219.2924 H   0  0  0  0  0  0  0  0  0  0  0  0
  142.8930   78.9230  219.9180 H   0  0  0  0  0  0  0  0  0  0  0  0
  142.6746   78.2204  218.3406 H   0  0  0  0  0  0  0  0  0  0  0  0
  140.8688   80.0268  219.0944 H   0  0  0  0  0  0  0  0  0  0  0  0
  140.1646   78.5669  218.4788 H   0  0  0  0  0  0  0  0  0  0  0  0
  139.2879   78.9340  220.8523 H   0  0  0  0  0  0  0  0  0  0  0  0
  141.1845   77.6326  223.0362 H   0  0  0  0  0  0  0  0  0  0  0  0
  142.4780   78.8005  224.7945 H   0  0  0  0  0  0  0  0  0  0  0  0
  143.1602   81.1922  224.5057 H   0  0  0  0  0  0  0  0  0  0  0  0
  141.2531   81.2294  220.7207 H   0  0  0  0  0  0  0  0  0  0  0  0
  139.2819   70.3930  221.8921 H   0  0  0  0  0  0  0  0  0  0  0  0
  139.2041   68.6437  223.7027 H   0  0  0  0  0  0  0  0  0  0  0  0
  139.6716   68.0109  226.0177 H   0  0  0  0  0  0  0  0  0  0  0  0
  141.4657   70.8453  228.7313 H   0  0  0  0  0  0  0  0  0  0  0  0
  141.5131   72.5106  226.9063 H   0  0  0  0  0  0  0  0  0  0  0  0
  1  2  2  0
  2  3  1  0
  3  4  1  0
  4  5  1  0
  5  6  2  0
  5  7  1  0
  7  8  1  0
  8  9  1  0
  9 10  1  0
 10 11  1  0
 11 12  1  0
 12 13  2  0
 13 14  1  0
 14 15  2  0
 15 16  1  0
 16 17  2  0
  2 18  1  0
 18 19  2  0
 19 20  1  0
 20 21  2  0
 21 22  1  0
 22 23  2  0
 23 24  1  0
 23 25  1  0
 25 26  2  0
 26 27  1  0
 27 28  2  0
 11  7  1  0
 17 12  1  0
 28 18  1  0
 27 21  1  0
  3 29  1  0
  4 30  1  0
  4 31  1  0
  8 32  1  0
  8 33  1  0
  9 34  1  0
  9 35  1  0
 10 36  1  0
 10 37  1  0
 11 38  1  6
 13 39  1  0
 14 40  1  0
 15 41  1  0
 17 42  1  0
 19 43  1  0
 20 44  1  0
 22 45  1  0
 25 46  1  0
 26 47  1  0
M  END
>  <smiles>  (4) 
O=C(NCC(=O)N1CCCC1c1cccnc1)c1ccc2cc(Cl)ccc2n1

>  <score_type>  (4) 
oracle

>  <origin>  (4) 
autodockgpu

>  <m_score__min__energy>  (4) 
-8.6799999999999997

>  <m_primary>  (4) 
energy

>  <rmsd>  (4) 
2.2493787101698763

>  <m_score__min__rmsd>  (4) 
2.2493787101698763

>  <meeko>  (4) 
{"free_energy": -8.61, "intermolecular_energy": -10.1, "internal_energy": -1.17, "cluster_size": 29, "cluster_id": 1, "rank_in_cluster": 6}

>  <energy>  (4) 
-8.65

>  <cluster_rmsd>  (4) 
0.21

>  <cluster>  (4) 
1

$$$$

     RDKit          3D

 47 50  0  0  0  0  0  0  0  0999 V2000
  140.3740   72.4490  220.6820 O   0  0  0  0  0  0  0  0  0  0  0  0
  140.0920   72.7830  221.8640 C   0  0  0  0  0  0  0  0  0  0  0  0
  139.7650   74.1790  222.0980 N   0  0  0  0  0  0  0  0  0  0  0  0
  139.7970   75.0290  220.9600 C   0  0  0  0  0  0  0  0  0  0  0  0
  141.0620   75.3380  220.3200 C   0  0  0  0  0  0  0  0  0  0  0  0
  141.7290   76.2950  220.9140 O   0  0  0  0  0  0  0  0  0  0  0  0
  141.6710   74.7800  219.1840 N   0  0  0  0  0  0  0  0  0  0  0  0
  141.2440   73.7240  218.2810 C   0  0  0  0  0  0  0  0  0  0  0  0
  142.2920   73.7300  217.1430 C   0  0  0  0  0  0  0  0  0  0  0  0
  142.8340   75.1410  217.2420 C   0  0  0  0  0  0  0  0  0  0  0  0
  143.0090   75.2610  218.7350 C   0  0  2  0  0  0  0  0  0  0  0  0
  144.0380   74.3580  219.2640 C   0  0  0  0  0  0  0  0  0  0  0  0
  144.0910   74.0740  220.6350 C   0  0  0  0  0  0  0  0  0  0  0  0
  145.0640   73.2200  221.1480 C   0  0  0  0  0  0  0  0  0  0  0  0
  146.0090   72.6250  220.3240 C   0  0  0  0  0  0  0  0  0  0  0  0
  145.9370   72.9130  219.0130 N   0  0  0  0  0  0  0  0  0  0  0  0
  145.0030   73.7360  218.5000 C   0  0  0  0  0  0  0  0  0  0  0  0
  140.0830   71.8440  222.9760 C   0  0  0  0  0  0  0  0  0  0  0  0
  139.5740   70.5860  222.7330 C   0  0  0  0  0  0  0  0  0  0  0  0
  139.5630   69.6850  223.7920 C   0  0  0  0  0  0  0  0  0  0  0  0
  140.0550   70.0850  225.0290 C   0  0  0  0  0  0  0  0  0  0  0  0
  140.0600   69.2050  226.1170 C   0  0  0  0  0  0  0  0  0  0  0  0
  140.5550   69.6150  227.3500 C   0  0  0  0  0  0  0  0  0  0  0  0
  140.5580   68.5130  228.7040 Cl  0  0  0  0  0  0  0  0  0  0  0  0
  141.0520   70.8880  227.5360 C   0  0  0  0  0  0  0  0  0  0  0  0
  141.0440   71.7410  226.4660 C   0  0  0  0  0  0  0  0  0  0  0  0
  140.5580   71.3580  225.2340 C   0  0  0  0  0  0  0  0  0  0  0  0
  140.5560   72.2050  224.1930 N   0  0  0  0  0  0  0  0  0  0  0  0
  139.5350   74.4010  223.0750 H   0  0  0  0  0  0  0  0  0  0  0  0
  139.1606   74.5597  220.1953 H   0  0  0  0  0  0  0  0  0  0  0  0
  139.4730   76.0006  221.3613 H   0  0  0  0  0  0  0  0  0  0  0  0
  141.2373   72.7523  218.7966 H   0  0  0  0  0  0  0  0  0  0  0  0
  140.2227   73.8859  217.9060 H   0  0  0  0  0  0  0  0  0  0  0  0
  143.0803   72.9831  217.3183 H   0  0  0  0  0  0  0  0  0  0  0  0
  141.8832   73.4740  216.1544 H   0  0  0  0  0  0  0  0  0  0  0  0
  143.7913   75.2470  216.7106 H   0  0  0  0  0  0  0  0  0  0  0  0
  142.1923   75.9124  216.7911 H   0  0  0  0  0  0  0  0  0  0  0  0
  143.3174   76.2658  219.0594 H   0  0  0  0  0  0  0  0  0  0  0  0
  143.3557   74.5308  221.3138 H   0  0  0  0  0  0  0  0  0  0  0  0
  145.0840   73.0128  222.2281 H   0  0  0  0  0  0  0  0  0  0  0  0
  146.7799   71.9502  220.7245 H   0  0  0  0  0  0  0  0  0  0  0  0
  145.0100   73.9218  217.4158 H   0  0  0  0  0  0  0  0  0  0  0  0
  139.1916   70.3060  221.7403 H   0  0  0  0  0  0  0  0  0  0  0  0
  139.1695   68.6673  223.6525 H   0  0  0  0  0  0  0  0  0  0  0  0
  139.6703   68.1835  225.9962 H   0  0  0  0  0  0  0  0  0  0  0  0
  141.4425   71.2075  228.5135 H   0  0  0  0  0  0  0  0  0  0  0  0
  141.4363   72.7608  226.5924 H   0  0  0  0  0  0  0  0  0  0  0  0
  1  2  2  0
  2  3  1  0
  3  4  1  0
  4  5  1  0
  5  6  2  0
  5  7  1  0
  7  8  1  0
  8  9  1  0
  9 10  1  0
 10 11  1  0
 11 12  1  0
 12 13  2  0
 13 14  1  0
 14 15  2  0
 15 16  1  0
 16 17  2  0
  2 18  1  0
 18 19  2  0
 19 20  1  0
 20 21  2  0
 21 22  1  0
 22 23  2  0
 23 24  1  0
 23 25  1  0
 25 26  2  0
 26 27  1  0
 27 28  2  0
 11  7  1  0
 17 12  1  0
 28 18  1  0
 27 21  1  0
  3 29  1  0
  4 30  1  0
  4 31  1  0
  8 32  1  0
  8 33  1  0
  9 34  1  0
  9 35  1  0
 10 36  1  0
 10 37  1  0
 11 38  1  6
 13 39  1  0
 14 40  1  0
 15 41  1  0
 17 42  1  0
 19 43  1  0
 20 44  1  0
 22 45  1  0
 25 46  1  0
 26 47  1  0
M  END
>  <smiles>  (5) 
O=C(NCC(=O)N1CCCC1c1cccnc1)c1ccc2cc(Cl)ccc2n1

>  <score_type>  (5) 
oracle

>  <origin>  (5) 
autodockgpu

>  <m_score__min__energy>  (5) 
-8.6799999999999997

>  <m_primary>  (5) 
energy

>  <rmsd>  (5) 
2.226276756837229

>  <m_score__min__rmsd>  (5) 
2.226276756837229

>  <meeko>  (5) 
{"free_energy": -7.92, "intermolecular_energy": -9.41, "internal_energy": -1.47, "cluster_size": 9, "cluster_id": 3, "rank_in_cluster": 2}

>  <energy>  (5) 
-8.63

>  <cluster_rmsd>  (5) 
0.21

>  <cluster>  (5) 
1

$$$$

     RDKit          3D

 47 50  0  0  0  0  0  0  0  0999 V2000
  139.9000   72.5120  220.7230 O   0  0  0  0  0  0  0  0  0  0  0  0
  139.8120   72.8460  221.9350 C   0  0  0  0  0  0  0  0  0  0  0  0
  139.6240   74.2570  222.2230 N   0  0  0  0  0  0  0  0  0  0  0  0
  139.5570   75.1220  221.0970 C   0  0  0  0  0  0  0  0  0  0  0  0
  138.4230   76.0100  220.9300 C   0  0  0  0  0  0  0  0  0  0  0  0
  137.4260   75.4670  220.2770 O   0  0  0  0  0  0  0  0  0  0  0  0
  138.2300   77.3360  221.3520 N   0  0  0  0  0  0  0  0  0  0  0  0
  137.7190   78.5040  220.6550 C   0  0  0  0  0  0  0  0  0  0  0  0
  137.5990   79.5940  221.7470 C   0  0  0  0  0  0  0  0  0  0  0  0
  137.5030   78.7510  223.0020 C   0  0  0  0  0  0  0  0  0  0  0  0
  138.5950   77.7450  222.7380 C   0  0  2  0  0  0  0  0  0  0  0  0
  139.9350   78.3470  222.7150 C   0  0  0  0  0  0  0  0  0  0  0  0
  140.7900   78.1250  221.6280 C   0  0  0  0  0  0  0  0  0  0  0  0
  142.0630   78.6900  221.5970 C   0  0  0  0  0  0  0  0  0  0  0  0
  142.5230   79.4870  222.6360 C   0  0  0  0  0  0  0  0  0  0  0  0
  141.6840   79.6850  223.6660 N   0  0  0  0  0  0  0  0  0  0  0  0
  140.4510   79.1480  223.7130 C   0  0  0  0  0  0  0  0  0  0  0  0
  139.8920   71.8910  223.0310 C   0  0  0  0  0  0  0  0  0  0  0  0
  139.4580   70.6070  222.7790 C   0  0  0  0  0  0  0  0  0  0  0  0
  139.5300   69.6900  223.8220 C   0  0  0  0  0  0  0  0  0  0  0  0
  140.0290   70.1010  225.0530 C   0  0  0  0  0  0  0  0  0  0  0  0
  140.1180   69.2070  226.1260 C   0  0  0  0  0  0  0  0  0  0  0  0
  140.6170   69.6290  227.3530 C   0  0  0  0  0  0  0  0  0  0  0  0
  140.7250   68.5080  228.6870 Cl  0  0  0  0  0  0  0  0  0  0  0  0
  141.0370   70.9270  227.5480 C   0  0  0  0  0  0  0  0  0  0  0  0
  140.9470   71.7950  226.4940 C   0  0  0  0  0  0  0  0  0  0  0  0
  140.4550   71.4010  225.2680 C   0  0  0  0  0  0  0  0  0  0  0  0
  140.3720   72.2620  224.2420 N   0  0  0  0  0  0  0  0  0  0  0  0
  139.5500   74.4780  223.2240 H   0  0  0  0  0  0  0  0  0  0  0  0
  140.4548   75.7567  221.1306 H   0  0  0  0  0  0  0  0  0  0  0  0
  139.4598   74.4267  220.2502 H   0  0  0  0  0  0  0  0  0  0  0  0
  138.4171   78.8208  219.8661 H   0  0  0  0  0  0  0  0  0  0  0  0
  136.7573   78.3045  220.1596 H   0  0  0  0  0  0  0  0  0  0  0  0
  138.4863   80.2439  221.7658 H   0  0  0  0  0  0  0  0  0  0  0  0
  136.7542   80.2836  221.6029 H   0  0  0  0  0  0  0  0  0  0  0  0
  137.7060   79.3435  223.9063 H   0  0  0  0  0  0  0  0  0  0  0  0
  136.5107   78.3140  223.1872 H   0  0  0  0  0  0  0  0  0  0  0  0
  138.6512   76.9526  223.4989 H   0  0  0  0  0  0  0  0  0  0  0  0
  140.4526   77.4977  220.7897 H   0  0  0  0  0  0  0  0  0  0  0  0
  142.7162   78.5008  220.7324 H   0  0  0  0  0  0  0  0  0  0  0  0
  143.5273   79.9354  222.6168 H   0  0  0  0  0  0  0  0  0  0  0  0
  139.8229   79.3582  224.5912 H   0  0  0  0  0  0  0  0  0  0  0  0
  139.0697   70.3189  221.7910 H   0  0  0  0  0  0  0  0  0  0  0  0
  139.1963   68.6522  223.6749 H   0  0  0  0  0  0  0  0  0  0  0  0
  139.7912   68.1645  225.9978 H   0  0  0  0  0  0  0  0  0  0  0  0
  141.4323   71.2551  228.5207 H   0  0  0  0  0  0  0  0  0  0  0  0
  141.2763   72.8359  226.6287 H   0  0  0  0  0  0  0  0  0  0  0  0
  1  2  2  0
  2  3  1  0
  3  4  1  0
  4  5  1  0
  5  6  2  0
  5  7  1  0
  7  8  1  0
  8  9  1  0
  9 10  1  0
 10 11  1  0
 11 12  1  0
 12 13  2  0
 13 14  1  0
 14 15  2  0
 15 16  1  0
 16 17  2  0
  2 18  1  0
 18 19  2  0
 19 20  1  0
 20 21  2  0
 21 22  1  0
 22 23  2  0
 23 24  1  0
 23 25  1  0
 25 26  2  0
 26 27  1  0
 27 28  2  0
 11  7  1  0
 17 12  1  0
 28 18  1  0
 27 21  1  0
  3 29  1  0
  4 30  1  0
  4 31  1  0
  8 32  1  0
  8 33  1  0
  9 34  1  0
  9 35  1  0
 10 36  1  0
 10 37  1  0
 11 38  1  1
 13 39  1  0
 14 40  1  0
 15 41  1  0
 17 42  1  0
 19 43  1  0
 20 44  1  0
 22 45  1  0
 25 46  1  0
 26 47  1  0
M  END
>  <smiles>  (6) 
O=C(NCC(=O)N1CCCC1c1cccnc1)c1ccc2cc(Cl)ccc2n1

>  <score_type>  (6) 
oracle

>  <origin>  (6) 
autodockgpu

>  <m_score__min__energy>  (6) 
-8.6799999999999997

>  <m_primary>  (6) 
energy

>  <rmsd>  (6) 
3.2867812594957226

>  <m_score__min__rmsd>  (6) 
3.2867812594957226

>  <meeko>  (6) 
{"free_energy": -7.48, "intermolecular_energy": -8.97, "internal_energy": -1.33, "cluster_size": 29, "cluster_id": 1, "rank_in_cluster": 29}

>  <energy>  (6) 
-8.61

>  <cluster_rmsd>  (6) 
0.78

>  <cluster>  (6) 
1

$$$$

     RDKit          3D

 47 50  0  0  0  0  0  0  0  0999 V2000
  140.1560   72.5400  220.6810 O   0  0  0  0  0  0  0  0  0  0  0  0
  139.8420   72.8330  221.8660 C   0  0  0  0  0  0  0  0  0  0  0  0
  139.3990   74.1930  222.1190 N   0  0  0  0  0  0  0  0  0  0  0  0
  139.3660   75.0600  220.9920 C   0  0  0  0  0  0  0  0  0  0  0  0
  140.5320   75.8500  220.6500 C   0  0  0  0  0  0  0  0  0  0  0  0
  140.7100   76.8860  221.4310 O   0  0  0  0  0  0  0  0  0  0  0  0
  141.4840   75.6810  219.6300 N   0  0  0  0  0  0  0  0  0  0  0  0
  141.3550   75.2240  218.2570 C   0  0  0  0  0  0  0  0  0  0  0  0
  142.7530   75.4480  217.6330 C   0  0  0  0  0  0  0  0  0  0  0  0
  143.3180   76.5210  218.5410 C   0  0  0  0  0  0  0  0  0  0  0  0
  142.9230   75.9710  219.8890 C   0  0  2  0  0  0  0  0  0  0  0  0
  143.6070   74.7130  220.2170 C   0  0  0  0  0  0  0  0  0  0  0  0
  142.8830   73.5180  220.3020 C   0  0  0  0  0  0  0  0  0  0  0  0
  143.5210   72.3190  220.6140 C   0  0  0  0  0  0  0  0  0  0  0  0
  144.8880   72.2710  220.8480 C   0  0  0  0  0  0  0  0  0  0  0  0
  145.5600   73.4310  220.7600 N   0  0  0  0  0  0  0  0  0  0  0  0
  144.9600   74.5980  220.4600 C   0  0  0  0  0  0  0  0  0  0  0  0
  139.9060   71.8810  222.9650 C   0  0  0  0  0  0  0  0  0  0  0  0
  139.4540   70.6020  222.7160 C   0  0  0  0  0  0  0  0  0  0  0  0
  139.5120   69.6870  223.7620 C   0  0  0  0  0  0  0  0  0  0  0  0
  140.0150   70.0950  224.9930 C   0  0  0  0  0  0  0  0  0  0  0  0
  140.0890   69.2030  226.0680 C   0  0  0  0  0  0  0  0  0  0  0  0
  140.5930   69.6220  227.2950 C   0  0  0  0  0  0  0  0  0  0  0  0
  140.6830   68.5030  228.6330 Cl  0  0  0  0  0  0  0  0  0  0  0  0
  141.0310   70.9150  227.4870 C   0  0  0  0  0  0  0  0  0  0  0  0
  140.9550   71.7800  226.4300 C   0  0  0  0  0  0  0  0  0  0  0  0
  140.4590   71.3890  225.2040 C   0  0  0  0  0  0  0  0  0  0  0  0
  140.3900   72.2480  224.1760 N   0  0  0  0  0  0  0  0  0  0  0  0
  139.1470   74.3810  223.0970 H   0  0  0  0  0  0  0  0  0  0  0  0
  139.1389   74.4339  220.1165 H   0  0  0  0  0  0  0  0  0  0  0  0
  138.6225   75.8183  221.2786 H   0  0  0  0  0  0  0  0  0  0  0  0
  141.0835   74.1584  218.2271 H   0  0  0  0  0  0  0  0  0  0  0  0
  140.5659   75.7631  217.7123 H   0  0  0  0  0  0  0  0  0  0  0  0
  143.3603   74.5315  217.6672 H   0  0  0  0  0  0  0  0  0  0  0  0
  142.7309   75.7256  216.5688 H   0  0  0  0  0  0  0  0  0  0  0  0
  144.4101   76.6054  218.4403 H   0  0  0  0  0  0  0  0  0  0  0  0
  142.9526   77.5377  218.3341 H   0  0  0  0  0  0  0  0  0  0  0  0
  143.1580   76.6489  220.7228 H   0  0  0  0  0  0  0  0  0  0  0  0
  141.7981   73.5254  220.1205 H   0  0  0  0  0  0  0  0  0  0  0  0
  142.9300   71.3933  220.6759 H   0  0  0  0  0  0  0  0  0  0  0  0
  145.3974   71.3276  221.0940 H   0  0  0  0  0  0  0  0  0  0  0  0
  145.5796   75.5053  220.4059 H   0  0  0  0  0  0  0  0  0  0  0  0
  139.0627   70.3165  221.7284 H   0  0  0  0  0  0  0  0  0  0  0  0
  139.1644   68.6534  223.6175 H   0  0  0  0  0  0  0  0  0  0  0  0
  139.7470   68.1651  225.9425 H   0  0  0  0  0  0  0  0  0  0  0  0
  141.4290   71.2408  228.4593 H   0  0  0  0  0  0  0  0  0  0  0  0
  141.2991   72.8165  226.5616 H   0  0  0  0  0  0  0  0  0  0  0  0
  1  2  2  0
  2  3  1  0
  3  4  1  0
  4  5  1  0
  5  6  2  0
  5  7  1  0
  7  8  1  0
  8  9  1  0
  9 10  1  0
 10 11  1  0
 11 12  1  0
 12 13  2  0
 13 14  1  0
 14 15  2  0
 15 16  1  0
 16 17  2  0
  2 18  1  0
 18 19  2  0
 19 20  1  0
 20 21  2  0
 21 22  1  0
 22 23  2  0
 23 24  1  0
 23 25  1  0
 25 26  2  0
 26 27  1  0
 27 28  2  0
 11  7  1  0
 17 12  1  0
 28 18  1  0
 27 21  1  0
  3 29  1  0
  4 30  1  0
  4 31  1  0
  8 32  1  0
  8 33  1  0
  9 34  1  0
  9 35  1  0
 10 36  1  0
 10 37  1  0
 11 38  1  1
 13 39  1  0
 14 40  1  0
 15 41  1  0
 17 42  1  0
 19 43  1  0
 20 44  1  0
 22 45  1  0
 25 46  1  0
 26 47  1  0
M  END
>  <smiles>  (7) 
O=C(NCC(=O)N1CCCC1c1cccnc1)c1ccc2cc(Cl)ccc2n1

>  <score_type>  (7) 
oracle

>  <origin>  (7) 
autodockgpu

>  <m_score__min__energy>  (7) 
-8.6799999999999997

>  <m_primary>  (7) 
energy

>  <rmsd>  (7) 
1.9717283546297857

>  <m_score__min__rmsd>  (7) 
1.9717283546297857

>  <meeko>  (7) 
{"free_energy": -7.79, "intermolecular_energy": -9.28, "internal_energy": -1.66, "cluster_size": 9, "cluster_id": 3, "rank_in_cluster": 5}

>  <energy>  (7) 
-8.51

>  <cluster_rmsd>  (7) 
1.0

>  <cluster>  (7) 
1

$$$$

     RDKit          3D

 47 50  0  0  0  0  0  0  0  0999 V2000
  140.0290   72.2150  220.6340 O   0  0  0  0  0  0  0  0  0  0  0  0
  139.7650   72.5540  221.8180 C   0  0  0  0  0  0  0  0  0  0  0  0
  139.3420   73.9250  222.0380 N   0  0  0  0  0  0  0  0  0  0  0  0
  139.2670   74.7500  220.8830 C   0  0  0  0  0  0  0  0  0  0  0  0
  140.3100   75.7210  220.6150 C   0  0  0  0  0  0  0  0  0  0  0  0
  140.2510   76.7790  221.3840 O   0  0  0  0  0  0  0  0  0  0  0  0
  141.3570   75.7030  219.6780 N   0  0  0  0  0  0  0  0  0  0  0  0
  141.3710   75.4100  218.2540 C   0  0  0  0  0  0  0  0  0  0  0  0
  142.8100   75.7480  217.7970 C   0  0  0  0  0  0  0  0  0  0  0  0
  143.2470   76.7200  218.8730 C   0  0  0  0  0  0  0  0  0  0  0  0
  142.7540   76.0010  220.1040 C   0  0  2  0  0  0  0  0  0  0  0  0
  143.4550   74.7340  220.3460 C   0  0  0  0  0  0  0  0  0  0  0  0
  144.8500   74.7110  220.4710 C   0  0  0  0  0  0  0  0  0  0  0  0
  145.5260   73.5140  220.6980 C   0  0  0  0  0  0  0  0  0  0  0  0
  144.8430   72.3110  220.8080 C   0  0  0  0  0  0  0  0  0  0  0  0
  143.5050   72.3590  220.6850 N   0  0  0  0  0  0  0  0  0  0  0  0
  142.8370   73.5070  220.4660 C   0  0  0  0  0  0  0  0  0  0  0  0
  139.8700   71.6420  222.9480 C   0  0  0  0  0  0  0  0  0  0  0  0
  139.4500   70.3440  222.7500 C   0  0  0  0  0  0  0  0  0  0  0  0
  139.5460   69.4680  223.8260 C   0  0  0  0  0  0  0  0  0  0  0  0
  140.0520   69.9320  225.0350 C   0  0  0  0  0  0  0  0  0  0  0  0
  140.1640   69.0800  226.1390 C   0  0  0  0  0  0  0  0  0  0  0  0
  140.6710   69.5540  227.3440 C   0  0  0  0  0  0  0  0  0  0  0  0
  140.8080   68.4850  228.7180 Cl  0  0  0  0  0  0  0  0  0  0  0  0
  141.0760   70.8640  227.4850 C   0  0  0  0  0  0  0  0  0  0  0  0
  140.9630   71.6900  226.4000 C   0  0  0  0  0  0  0  0  0  0  0  0
  140.4630   71.2440  225.1960 C   0  0  0  0  0  0  0  0  0  0  0  0
  140.3580   72.0640  224.1390 N   0  0  0  0  0  0  0  0  0  0  0  0
  139.1310   74.1520  223.0180 H   0  0  0  0  0  0  0  0  0  0  0  0
  139.2296   74.0766  220.0140 H   0  0  0  0  0  0  0  0  0  0  0  0
  138.3836   75.3760  221.0772 H   0  0  0  0  0  0  0  0  0  0  0  0
  141.1463   74.3483  218.0743 H   0  0  0  0  0  0  0  0  0  0  0  0
  140.6134   75.9867  217.7032 H   0  0  0  0  0  0  0  0  0  0  0  0
  143.4478   74.8519  217.7817 H   0  0  0  0  0  0  0  0  0  0  0  0
  142.8735   76.1510  216.7754 H   0  0  0  0  0  0  0  0  0  0  0  0
  144.3395   76.8475  218.8866 H   0  0  0  0  0  0  0  0  0  0  0  0
  142.8614   77.7432  218.7526 H   0  0  0  0  0  0  0  0  0  0  0  0
  142.8853   76.5803  221.0298 H   0  0  0  0  0  0  0  0  0  0  0  0
  145.4185   75.6491  220.3890 H   0  0  0  0  0  0  0  0  0  0  0  0
  146.6220   73.5227  220.7918 H   0  0  0  0  0  0  0  0  0  0  0  0
  145.3713   71.3630  220.9873 H   0  0  0  0  0  0  0  0  0  0  0  0
  141.7414   73.4642  220.3782 H   0  0  0  0  0  0  0  0  0  0  0  0
  139.0541   70.0138  221.7783 H   0  0  0  0  0  0  0  0  0  0  0  0
  139.2255   68.4209  223.7218 H   0  0  0  0  0  0  0  0  0  0  0  0
  139.8493   68.0295  226.0534 H   0  0  0  0  0  0  0  0  0  0  0  0
  141.4775   71.2338  228.4400 H   0  0  0  0  0  0  0  0  0  0  0  0
  141.2801   72.7393  226.4915 H   0  0  0  0  0  0  0  0  0  0  0  0
  1  2  2  0
  2  3  1  0
  3  4  1  0
  4  5  1  0
  5  6  2  0
  5  7  1  0
  7  8  1  0
  8  9  1  0
  9 10  1  0
 10 11  1  0
 11 12  1  0
 12 13  2  0
 13 14  1  0
 14 15  2  0
 15 16  1  0
 16 17  2  0
  2 18  1  0
 18 19  2  0
 19 20  1  0
 20 21  2  0
 21 22  1  0
 22 23  2  0
 23 24  1  0
 23 25  1  0
 25 26  2  0
 26 27  1  0
 27 28  2  0
 11  7  1  0
 17 12  1  0
 28 18  1  0
 27 21  1  0
  3 29  1  0
  4 30  1  0
  4 31  1  0
  8 32  1  0
  8 33  1  0
  9 34  1  0
  9 35  1  0
 10 36  1  0
 10 37  1  0
 11 38  1  1
 13 39  1  0
 14 40  1  0
 15 41  1  0
 17 42  1  0
 19 43  1  0
 20 44  1  0
 22 45  1  0
 25 46  1  0
 26 47  1  0
M  END
>  <smiles>  (8) 
O=C(NCC(=O)N1CCCC1c1cccnc1)c1ccc2cc(Cl)ccc2n1

>  <score_type>  (8) 
oracle

>  <origin>  (8) 
autodockgpu

>  <m_score__min__energy>  (8) 
-8.6799999999999997

>  <m_primary>  (8) 
energy

>  <rmsd>  (8) 
1.8627229167463786

>  <m_score__min__rmsd>  (8) 
1.8627229167463786

>  <meeko>  (8) 
{"free_energy": -7.86, "intermolecular_energy": -9.35, "internal_energy": -1.67, "cluster_size": 9, "cluster_id": 3, "rank_in_cluster": 3}

>  <energy>  (8) 
-8.51

>  <cluster_rmsd>  (8) 
0.8

>  <cluster>  (8) 
1

$$$$

     RDKit          3D

 47 50  0  0  0  0  0  0  0  0999 V2000
  140.4910   74.0570  222.0590 O   0  0  0  0  0  0  0  0  0  0  0  0
  140.1020   72.8650  221.9370 C   0  0  0  0  0  0  0  0  0  0  0  0
  139.6500   72.4450  220.6220 N   0  0  0  0  0  0  0  0  0  0  0  0
  139.6950   73.4330  219.6000 C   0  0  0  0  0  0  0  0  0  0  0  0
  140.8530   73.5280  218.7330 C   0  0  0  0  0  0  0  0  0  0  0  0
  140.9590   72.5320  217.8890 O   0  0  0  0  0  0  0  0  0  0  0  0
  141.8610   74.5040  218.6580 N   0  0  0  0  0  0  0  0  0  0  0  0
  142.3820   75.2670  217.5360 C   0  0  0  0  0  0  0  0  0  0  0  0
  143.3500   76.2930  218.1720 C   0  0  0  0  0  0  0  0  0  0  0  0
  142.8220   76.3640  219.5900 C   0  0  0  0  0  0  0  0  0  0  0  0
  142.6190   74.8980  219.8790 C   0  0  2  0  0  0  0  0  0  0  0  0
  143.8790   74.1440  219.9180 C   0  0  0  0  0  0  0  0  0  0  0  0
  144.8730   74.4770  220.8460 C   0  0  0  0  0  0  0  0  0  0  0  0
  146.0720   73.7700  220.8900 C   0  0  0  0  0  0  0  0  0  0  0  0
  146.3200   72.7160  220.0210 C   0  0  0  0  0  0  0  0  0  0  0  0
  145.3500   72.4160  219.1400 N   0  0  0  0  0  0  0  0  0  0  0  0
  144.1860   73.0890  219.0840 C   0  0  0  0  0  0  0  0  0  0  0  0
  140.0870   71.9160  223.0400 C   0  0  0  0  0  0  0  0  0  0  0  0
  139.5620   70.6660  222.7880 C   0  0  0  0  0  0  0  0  0  0  0  0
  139.5440   69.7550  223.8390 C   0  0  0  0  0  0  0  0  0  0  0  0
  140.0490   70.1370  225.0770 C   0  0  0  0  0  0  0  0  0  0  0  0
  140.0480   69.2480  226.1570 C   0  0  0  0  0  0  0  0  0  0  0  0
  140.5550   69.6400  227.3910 C   0  0  0  0  0  0  0  0  0  0  0  0
  140.5510   68.5250  228.7340 Cl  0  0  0  0  0  0  0  0  0  0  0  0
  141.0680   70.9050  227.5850 C   0  0  0  0  0  0  0  0  0  0  0  0
  141.0650   71.7680  226.5240 C   0  0  0  0  0  0  0  0  0  0  0  0
  140.5680   71.4030  225.2910 C   0  0  0  0  0  0  0  0  0  0  0  0
  140.5710   72.2590  224.2580 N   0  0  0  0  0  0  0  0  0  0  0  0
  139.3500   71.4640  220.5700 H   0  0  0  0  0  0  0  0  0  0  0  0
  138.8254   73.2569  218.9498 H   0  0  0  0  0  0  0  0  0  0  0  0
  139.7231   74.3775  220.1631 H   0  0  0  0  0  0  0  0  0  0  0  0
  142.9189   74.6097  216.8362 H   0  0  0  0  0  0  0  0  0  0  0  0
  141.5828   75.7532  216.9573 H   0  0  0  0  0  0  0  0  0  0  0  0
  144.3895   75.9341  218.1474 H   0  0  0  0  0  0  0  0  0  0  0  0
  143.3800   77.2632  217.6545 H   0  0  0  0  0  0  0  0  0  0  0  0
  143.5551   76.8155  220.2746 H   0  0  0  0  0  0  0  0  0  0  0  0
  141.9230   76.9854  219.7147 H   0  0  0  0  0  0  0  0  0  0  0  0
  142.1413   74.7060  220.8511 H   0  0  0  0  0  0  0  0  0  0  0  0
  144.7050   75.3066  221.5485 H   0  0  0  0  0  0  0  0  0  0  0  0
  146.8376   74.0522  221.6277 H   0  0  0  0  0  0  0  0  0  0  0  0
  147.2648   72.1535  220.0519 H   0  0  0  0  0  0  0  0  0  0  0  0
  143.4413   72.7821  218.3349 H   0  0  0  0  0  0  0  0  0  0  0  0
  139.1725   70.3996  221.7943 H   0  0  0  0  0  0  0  0  0  0  0  0
  139.1351   68.7444  223.6925 H   0  0  0  0  0  0  0  0  0  0  0  0
  139.6438   68.2329  226.0293 H   0  0  0  0  0  0  0  0  0  0  0  0
  141.4675   71.2108  228.5632 H   0  0  0  0  0  0  0  0  0  0  0  0
  141.4705   72.7817  226.6582 H   0  0  0  0  0  0  0  0  0  0  0  0
  1  2  2  0
  2  3  1  0
  3  4  1  0
  4  5  1  0
  5  6  2  0
  5  7  1  0
  7  8  1  0
  8  9  1  0
  9 10  1  0
 10 11  1  0
 11 12  1  0
 12 13  2  0
 13 14  1  0
 14 15  2  0
 15 16  1  0
 16 17  2  0
  2 18  1  0
 18 19  2  0
 19 20  1  0
 20 21  2  0
 21 22  1  0
 22 23  2  0
 23 24  1  0
 23 25  1  0
 25 26  2  0
 26 27  1  0
 27 28  2  0
 11  7  1  0
 17 12  1  0
 28 18  1  0
 27 21  1  0
  3 29  1  0
  4 30  1  0
  4 31  1  0
  8 32  1  0
  8 33  1  0
  9 34  1  0
  9 35  1  0
 10 36  1  0
 10 37  1  0
 11 38  1  1
 13 39  1  0
 14 40  1  0
 15 41  1  0
 17 42  1  0
 19 43  1  0
 20 44  1  0
 22 45  1  0
 25 46  1  0
 26 47  1  0
M  END
>  <smiles>  (9) 
O=C(NCC(=O)N1CCCC1c1cccnc1)c1ccc2cc(Cl)ccc2n1

>  <score_type>  (9) 
oracle

>  <origin>  (9) 
autodockgpu

>  <m_score__min__energy>  (9) 
-8.6799999999999997

>  <m_primary>  (9) 
energy

>  <rmsd>  (9) 
2.5299801338703216

>  <m_score__min__rmsd>  (9) 
2.5299801338703216

>  <meeko>  (9) 
{"free_energy": -7.95, "intermolecular_energy": -9.44, "internal_energy": -1.35, "cluster_size": 9, "cluster_id": 3, "rank_in_cluster": 1}

>  <energy>  (9) 
-8.49

>  <cluster_rmsd>  (9) 
0.98

>  <cluster>  (9) 
1

$$$$

     RDKit          3D

 47 50  0  0  0  0  0  0  0  0999 V2000
  140.0840   72.3250  220.7850 O   0  0  0  0  0  0  0  0  0  0  0  0
  139.9180   72.6360  221.9950 C   0  0  0  0  0  0  0  0  0  0  0  0
  139.6640   74.0350  222.2920 N   0  0  0  0  0  0  0  0  0  0  0  0
  139.6300   74.9150  221.1760 C   0  0  0  0  0  0  0  0  0  0  0  0
  139.7580   76.3460  221.3760 C   0  0  0  0  0  0  0  0  0  0  0  0
  139.0290   76.8040  222.3620 O   0  0  0  0  0  0  0  0  0  0  0  0
  140.5280   77.2990  220.6890 N   0  0  0  0  0  0  0  0  0  0  0  0
  141.7120   77.1640  219.8580 C   0  0  0  0  0  0  0  0  0  0  0  0
  141.9430   78.5750  219.2670 C   0  0  0  0  0  0  0  0  0  0  0  0
  140.5560   79.1750  219.3720 C   0  0  0  0  0  0  0  0  0  0  0  0
  140.1800   78.7460  220.7680 C   0  0  2  0  0  0  0  0  0  0  0  0
  141.0090   79.3770  221.8030 C   0  0  0  0  0  0  0  0  0  0  0  0
  141.4060   78.6470  222.9310 C   0  0  0  0  0  0  0  0  0  0  0  0
  142.1910   79.2350  223.9200 C   0  0  0  0  0  0  0  0  0  0  0  0
  142.6050   80.5560  223.8200 C   0  0  0  0  0  0  0  0  0  0  0  0
  142.2110   81.2350  222.7280 N   0  0  0  0  0  0  0  0  0  0  0  0
  141.4530   80.6820  221.7640 C   0  0  0  0  0  0  0  0  0  0  0  0
  139.9700   71.6670  223.0800 C   0  0  0  0  0  0  0  0  0  0  0  0
  139.4990   70.3990  222.8150 C   0  0  0  0  0  0  0  0  0  0  0  0
  139.5460   69.4690  223.8480 C   0  0  0  0  0  0  0  0  0  0  0  0
  140.0570   69.8530  225.0830 C   0  0  0  0  0  0  0  0  0  0  0  0
  140.1210   68.9440  226.1460 C   0  0  0  0  0  0  0  0  0  0  0  0
  140.6330   69.3380  227.3770 C   0  0  0  0  0  0  0  0  0  0  0  0
  140.7090   68.2000  228.6990 Cl  0  0  0  0  0  0  0  0  0  0  0  0
  141.0900   70.6220  227.5860 C   0  0  0  0  0  0  0  0  0  0  0  0
  141.0240   71.5040  226.5410 C   0  0  0  0  0  0  0  0  0  0  0  0
  140.5200   71.1370  225.3110 C   0  0  0  0  0  0  0  0  0  0  0  0
  140.4620   72.0110  224.2950 N   0  0  0  0  0  0  0  0  0  0  0  0
  139.5280   74.2380  223.2900 H   0  0  0  0  0  0  0  0  0  0  0  0
  140.4506   74.6131  220.5086 H   0  0  0  0  0  0  0  0  0  0  0  0
  138.6031   74.8037  220.7977 H   0  0  0  0  0  0  0  0  0  0  0  0
  142.5760   76.8509  220.4625 H   0  0  0  0  0  0  0  0  0  0  0  0
  141.5852   76.4016  219.0753 H   0  0  0  0  0  0  0  0  0  0  0  0
  142.6736   79.1447  219.8600 H   0  0  0  0  0  0  0  0  0  0  0  0
  142.3556   78.5729  218.2473 H   0  0  0  0  0  0  0  0  0  0  0  0
  140.5784   80.2705  219.2753 H   0  0  0  0  0  0  0  0  0  0  0  0
  139.8552   78.8531  218.5876 H   0  0  0  0  0  0  0  0  0  0  0  0
  139.1445   78.9999  221.0388 H   0  0  0  0  0  0  0  0  0  0  0  0
  141.0942   77.5974  223.0368 H   0  0  0  0  0  0  0  0  0  0  0  0
  142.4884   78.6412  224.7969 H   0  0  0  0  0  0  0  0  0  0  0  0
  143.2260   81.0254  224.5972 H   0  0  0  0  0  0  0  0  0  0  0  0
  141.1729   81.3027  220.9002 H   0  0  0  0  0  0  0  0  0  0  0  0
  139.1012   70.1329  221.8246 H   0  0  0  0  0  0  0  0  0  0  0  0
  139.1835   68.4425  223.6901 H   0  0  0  0  0  0  0  0  0  0  0  0
  139.7643   67.9128  226.0064 H   0  0  0  0  0  0  0  0  0  0  0  0
  141.4949   70.9281  228.5619 H   0  0  0  0  0  0  0  0  0  0  0  0
  141.3828   72.5336  226.6865 H   0  0  0  0  0  0  0  0  0  0  0  0
  1  2  2  0
  2  3  1  0
  3  4  1  0
  4  5  1  0
  5  6  2  0
  5  7  1  0
  7  8  1  0
  8  9  1  0
  9 10  1  0
 10 11  1  0
 11 12  1  0
 12 13  2  0
 13 14  1  0
 14 15  2  0
 15 16  1  0
 16 17  2  0
  2 18  1  0
 18 19  2  0
 19 20  1  0
 20 21  2  0
 21 22  1  0
 22 23  2  0
 23 24  1  0
 23 25  1  0
 25 26  2  0
 26 27  1  0
 27 28  2  0
 11  7  1  0
 17 12  1  0
 28 18  1  0
 27 21  1  0
  3 29  1  0
  4 30  1  0
  4 31  1  0
  8 32  1  0
  8 33  1  0
  9 34  1  0
  9 35  1  0
 10 36  1  0
 10 37  1  0
 11 38  1  1
 13 39  1  0
 14 40  1  0
 15 41  1  0
 17 42  1  0
 19 43  1  0
 20 44  1  0
 22 45  1  0
 25 46  1  0
 26 47  1  0
M  END
>  <smiles>  (10) 
O=C(NCC(=O)N1CCCC1c1cccnc1)c1ccc2cc(Cl)ccc2n1

>  <score_type>  (10) 
oracle

>  <origin>  (10) 
autodockgpu

>  <m_score__min__energy>  (10) 
-8.6799999999999997

>  <m_primary>  (10) 
energy

>  <rmsd>  (10) 
2.2391145054497823

>  <m_score__min__rmsd>  (10) 
2.2391145054497823

>  <meeko>  (10) 
{"free_energy": -8.44, "intermolecular_energy": -9.94, "internal_energy": -1.33, "cluster_size": 29, "cluster_id": 1, "rank_in_cluster": 14}

>  <energy>  (10) 
-8.49

>  <cluster_rmsd>  (10) 
0.98

>  <cluster>  (10) 
1

$$$$

     RDKit          3D

 47 50  0  0  0  0  0  0  0  0999 V2000
  140.1530   72.2810  220.7870 O   0  0  0  0  0  0  0  0  0  0  0  0
  139.9650   72.5970  221.9930 C   0  0  0  0  0  0  0  0  0  0  0  0
  139.6980   73.9950  222.2790 N   0  0  0  0  0  0  0  0  0  0  0  0
  139.6760   74.8700  221.1590 C   0  0  0  0  0  0  0  0  0  0  0  0
  140.8880   75.5530  220.7470 C   0  0  0  0  0  0  0  0  0  0  0  0
  141.2970   76.4550  221.6030 O   0  0  0  0  0  0  0  0  0  0  0  0
  141.6760   75.4000  219.5940 N   0  0  0  0  0  0  0  0  0  0  0  0
  141.3240   75.0850  218.2200 C   0  0  0  0  0  0  0  0  0  0  0  0
  142.6430   75.2470  217.4270 C   0  0  0  0  0  0  0  0  0  0  0  0
  143.4230   76.1790  218.3310 C   0  0  0  0  0  0  0  0  0  0  0  0
  143.1580   75.5420  219.6720 C   0  0  2  0  0  0  0  0  0  0  0  0
  143.7550   74.2060  219.7990 C   0  0  0  0  0  0  0  0  0  0  0  0
  143.1330   73.2260  220.5830 C   0  0  0  0  0  0  0  0  0  0  0  0
  143.6920   71.9570  220.7120 C   0  0  0  0  0  0  0  0  0  0  0  0
  144.8760   71.6220  220.0700 C   0  0  0  0  0  0  0  0  0  0  0  0
  145.4530   72.5790  219.3230 N   0  0  0  0  0  0  0  0  0  0  0  0
  144.9270   73.8110  219.1880 C   0  0  0  0  0  0  0  0  0  0  0  0
  140.0060   71.6330  223.0830 C   0  0  0  0  0  0  0  0  0  0  0  0
  139.5370   70.3640  222.8180 C   0  0  0  0  0  0  0  0  0  0  0  0
  139.5730   69.4390  223.8570 C   0  0  0  0  0  0  0  0  0  0  0  0
  140.0700   69.8280  225.0950 C   0  0  0  0  0  0  0  0  0  0  0  0
  140.1230   68.9250  226.1620 C   0  0  0  0  0  0  0  0  0  0  0  0
  140.6220   69.3240  227.3970 C   0  0  0  0  0  0  0  0  0  0  0  0
  140.6840   68.1920  228.7250 Cl  0  0  0  0  0  0  0  0  0  0  0  0
  141.0770   70.6090  227.6050 C   0  0  0  0  0  0  0  0  0  0  0  0
  141.0230   71.4850  226.5550 C   0  0  0  0  0  0  0  0  0  0  0  0
  140.5320   71.1130  225.3220 C   0  0  0  0  0  0  0  0  0  0  0  0
  140.4840   71.9820  224.3010 N   0  0  0  0  0  0  0  0  0  0  0  0
  139.5440   74.2020  223.2730 H   0  0  0  0  0  0  0  0  0  0  0  0
  139.3388   74.2746  220.2977 H   0  0  0  0  0  0  0  0  0  0  0  0
  139.0246   75.6911  221.4929 H   0  0  0  0  0  0  0  0  0  0  0  0
  140.9495   74.0536  218.1426 H   0  0  0  0  0  0  0  0  0  0  0  0
  140.5258   75.7371  217.8359 H   0  0  0  0  0  0  0  0  0  0  0  0
  143.1582   74.2832  217.3020 H   0  0  0  0  0  0  0  0  0  0  0  0
  142.5081   75.6233  216.4022 H   0  0  0  0  0  0  0  0  0  0  0  0
  144.4954   76.1798  218.0861 H   0  0  0  0  0  0  0  0  0  0  0  0
  143.1328   77.2377  218.2598 H   0  0  0  0  0  0  0  0  0  0  0  0
  143.5649   76.1173  220.5167 H   0  0  0  0  0  0  0  0  0  0  0  0
  142.1925   73.4613  221.1026 H   0  0  0  0  0  0  0  0  0  0  0  0
  143.1851   71.2054  221.3350 H   0  0  0  0  0  0  0  0  0  0  0  0
  145.3211   70.6208  220.1679 H   0  0  0  0  0  0  0  0  0  0  0  0
  145.4588   74.5396  218.5585 H   0  0  0  0  0  0  0  0  0  0  0  0
  139.1497   70.0934  221.8246 H   0  0  0  0  0  0  0  0  0  0  0  0
  139.2122   68.4118  223.7001 H   0  0  0  0  0  0  0  0  0  0  0  0
  139.7678   67.8932  226.0232 H   0  0  0  0  0  0  0  0  0  0  0  0
  141.4709   70.9201  228.5838 H   0  0  0  0  0  0  0  0  0  0  0  0
  141.3815   72.5149  226.6991 H   0  0  0  0  0  0  0  0  0  0  0  0
  1  2  2  0
  2  3  1  0
  3  4  1  0
  4  5  1  0
  5  6  2  0
  5  7  1  0
  7  8  1  0
  8  9  1  0
  9 10  1  0
 10 11  1  0
 11 12  1  0
 12 13  2  0
 13 14  1  0
 14 15  2  0
 15 16  1  0
 16 17  2  0
  2 18  1  0
 18 19  2  0
 19 20  1  0
 20 21  2  0
 21 22  1  0
 22 23  2  0
 23 24  1  0
 23 25  1  0
 25 26  2  0
 26 27  1  0
 27 28  2  0
 11  7  1  0
 17 12  1  0
 28 18  1  0
 27 21  1  0
  3 29  1  0
  4 30  1  0
  4 31  1  0
  8 32  1  0
  8 33  1  0
  9 34  1  0
  9 35  1  0
 10 36  1  0
 10 37  1  0
 11 38  1  1
 13 39  1  0
 14 40  1  0
 15 41  1  0
 17 42  1  0
 19 43  1  0
 20 44  1  0
 22 45  1  0
 25 46  1  0
 26 47  1  0
M  END
>  <smiles>  (11) 
O=C(NCC(=O)N1CCCC1c1cccnc1)c1ccc2cc(Cl)ccc2n1

>  <score_type>  (11) 
oracle

>  <origin>  (11) 
autodockgpu

>  <m_score__min__energy>  (11) 
-8.6799999999999997

>  <m_primary>  (11) 
energy

>  <rmsd>  (11) 
1.9893017810247686

>  <m_score__min__rmsd>  (11) 
1.9893017810247686

>  <meeko>  (11) 
{"free_energy": -7.59, "intermolecular_energy": -9.08, "internal_energy": -1.75, "cluster_size": 9, "cluster_id": 3, "rank_in_cluster": 9}

>  <energy>  (11) 
-8.49

>  <cluster_rmsd>  (11) 
1.0

>  <cluster>  (11) 
1

$$$$

     RDKit          3D

 47 50  0  0  0  0  0  0  0  0999 V2000
  140.1230   72.5490  220.6980 O   0  0  0  0  0  0  0  0  0  0  0  0
  139.9500   72.8710  221.9040 C   0  0  0  0  0  0  0  0  0  0  0  0
  139.7030   74.2740  222.1870 N   0  0  0  0  0  0  0  0  0  0  0  0
  139.6810   75.1450  221.0630 C   0  0  0  0  0  0  0  0  0  0  0  0
  140.9250   75.6000  220.4730 C   0  0  0  0  0  0  0  0  0  0  0  0
  141.8170   74.6500  220.3360 O   0  0  0  0  0  0  0  0  0  0  0  0
  141.3170   76.8750  220.0340 N   0  0  0  0  0  0  0  0  0  0  0  0
  142.4660   77.3190  219.2630 C   0  0  0  0  0  0  0  0  0  0  0  0
  142.1950   78.8150  218.9750 C   0  0  0  0  0  0  0  0  0  0  0  0
  140.6880   78.8790  219.1140 C   0  0  0  0  0  0  0  0  0  0  0  0
  140.4970   78.0730  220.3750 C   0  0  2  0  0  0  0  0  0  0  0  0
  141.0740   78.7190  221.5600 C   0  0  0  0  0  0  0  0  0  0  0  0
  141.3560   80.0910  221.5480 C   0  0  0  0  0  0  0  0  0  0  0  0
  141.9060   80.7150  222.6660 C   0  0  0  0  0  0  0  0  0  0  0  0
  142.1910   80.0010  223.8220 C   0  0  0  0  0  0  0  0  0  0  0  0
  141.9120   78.6860  223.8080 N   0  0  0  0  0  0  0  0  0  0  0  0
  141.3800   78.0680  222.7370 C   0  0  0  0  0  0  0  0  0  0  0  0
  139.9890   71.9120  222.9970 C   0  0  0  0  0  0  0  0  0  0  0  0
  139.5160   70.6420  222.7370 C   0  0  0  0  0  0  0  0  0  0  0  0
  139.5500   69.7210  223.7790 C   0  0  0  0  0  0  0  0  0  0  0  0
  140.0500   70.1130  225.0150 C   0  0  0  0  0  0  0  0  0  0  0  0
  140.1010   69.2130  226.0860 C   0  0  0  0  0  0  0  0  0  0  0  0
  140.6020   69.6160  227.3190 C   0  0  0  0  0  0  0  0  0  0  0  0
  140.6620   68.4880  228.6510 Cl  0  0  0  0  0  0  0  0  0  0  0  0
  141.0620   70.9000  227.5220 C   0  0  0  0  0  0  0  0  0  0  0  0
  141.0090   71.7730  226.4690 C   0  0  0  0  0  0  0  0  0  0  0  0
  140.5160   71.3980  225.2380 C   0  0  0  0  0  0  0  0  0  0  0  0
  140.4700   72.2630  224.2140 N   0  0  0  0  0  0  0  0  0  0  0  0
  139.5600   74.4860  223.1820 H   0  0  0  0  0  0  0  0  0  0  0  0
  139.1248   74.6248  220.2692 H   0  0  0  0  0  0  0  0  0  0  0  0
  139.2409   76.0683  221.4677 H   0  0  0  0  0  0  0  0  0  0  0  0
  143.3924   77.1978  219.8436 H   0  0  0  0  0  0  0  0  0  0  0  0
  142.5969   76.7356  218.3397 H   0  0  0  0  0  0  0  0  0  0  0  0
  142.6946   79.4630  219.7102 H   0  0  0  0  0  0  0  0  0  0  0  0
  142.5714   79.1604  218.0008 H   0  0  0  0  0  0  0  0  0  0  0  0
  140.3344   79.9135  219.2352 H   0  0  0  0  0  0  0  0  0  0  0  0
  140.1298   78.5074  218.2420 H   0  0  0  0  0  0  0  0  0  0  0  0
  139.4402   77.9040  220.6291 H   0  0  0  0  0  0  0  0  0  0  0  0
  141.1409   80.6825  220.6459 H   0  0  0  0  0  0  0  0  0  0  0  0
  142.1184   81.7938  222.6319 H   0  0  0  0  0  0  0  0  0  0  0  0
  142.6247   80.4883  224.7077 H   0  0  0  0  0  0  0  0  0  0  0  0
  141.1790   76.9886  222.8038 H   0  0  0  0  0  0  0  0  0  0  0  0
  139.1274   70.3687  221.7449 H   0  0  0  0  0  0  0  0  0  0  0  0
  139.1854   68.6945  223.6264 H   0  0  0  0  0  0  0  0  0  0  0  0
  139.7429   68.1816  225.9515 H   0  0  0  0  0  0  0  0  0  0  0  0
  141.4589   71.2128  228.4991 H   0  0  0  0  0  0  0  0  0  0  0  0
  141.3700   72.8026  226.6093 H   0  0  0  0  0  0  0  0  0  0  0  0
  1  2  2  0
  2  3  1  0
  3  4  1  0
  4  5  1  0
  5  6  2  0
  5  7  1  0
  7  8  1  0
  8  9  1  0
  9 10  1  0
 10 11  1  0
 11 12  1  0
 12 13  2  0
 13 14  1  0
 14 15  2  0
 15 16  1  0
 16 17  2  0
  2 18  1  0
 18 19  2  0
 19 20  1  0
 20 21  2  0
 21 22  1  0
 22 23  2  0
 23 24  1  0
 23 25  1  0
 25 26  2  0
 26 27  1  0
 27 28  2  0
 11  7  1  0
 17 12  1  0
 28 18  1  0
 27 21  1  0
  3 29  1  0
  4 30  1  0
  4 31  1  0
  8 32  1  0
  8 33  1  0
  9 34  1  0
  9 35  1  0
 10 36  1  0
 10 37  1  0
 11 38  1  1
 13 39  1  0
 14 40  1  0
 15 41  1  0
 17 42  1  0
 19 43  1  0
 20 44  1  0
 22 45  1  0
 25 46  1  0
 26 47  1  0
M  END
>  <smiles>  (12) 
O=C(NCC(=O)N1CCCC1c1cccnc1)c1ccc2cc(Cl)ccc2n1

>  <score_type>  (12) 
oracle

>  <origin>  (12) 
autodockgpu

>  <m_score__min__energy>  (12) 
-8.6799999999999997

>  <m_primary>  (12) 
energy

>  <rmsd>  (12) 
2.3148917390042634

>  <m_score__min__rmsd>  (12) 
2.3148917390042634

>  <meeko>  (12) 
{"free_energy": -8.27, "intermolecular_energy": -9.76, "internal_energy": -1.15, "cluster_size": 29, "cluster_id": 1, "rank_in_cluster": 24}

>  <energy>  (12) 
-8.48

>  <cluster_rmsd>  (12) 
1.01

>  <cluster>  (12) 
1

$$$$

     RDKit          3D

 47 50  0  0  0  0  0  0  0  0999 V2000
  140.8410   72.7950  221.4670 O   0  0  0  0  0  0  0  0  0  0  0  0
  139.9550   72.6960  222.3570 C   0  0  0  0  0  0  0  0  0  0  0  0
  138.8390   73.6230  222.2910 N   0  0  0  0  0  0  0  0  0  0  0  0
  138.8630   74.5550  221.2170 C   0  0  0  0  0  0  0  0  0  0  0  0
  139.4180   75.8790  221.4170 C   0  0  0  0  0  0  0  0  0  0  0  0
  138.7410   76.6070  222.2710 O   0  0  0  0  0  0  0  0  0  0  0  0
  140.5480   76.4930  220.8500 N   0  0  0  0  0  0  0  0  0  0  0  0
  141.8400   75.9570  220.4560 C   0  0  0  0  0  0  0  0  0  0  0  0
  142.5500   77.1290  219.7370 C   0  0  0  0  0  0  0  0  0  0  0  0
  141.3710   77.9780  219.3110 C   0  0  0  0  0  0  0  0  0  0  0  0
  140.5500   77.9580  220.5750 C   0  0  2  0  0  0  0  0  0  0  0  0
  141.2050   78.6480  221.6940 C   0  0  0  0  0  0  0  0  0  0  0  0
  141.8620   79.8670  221.4830 C   0  0  0  0  0  0  0  0  0  0  0  0
  142.4890   80.5290  222.5360 C   0  0  0  0  0  0  0  0  0  0  0  0
  142.4830   80.0060  223.8220 C   0  0  0  0  0  0  0  0  0  0  0  0
  141.8460   78.8350  223.9980 N   0  0  0  0  0  0  0  0  0  0  0  0
  141.2360   78.1830  222.9920 C   0  0  0  0  0  0  0  0  0  0  0  0
  140.0080   71.7090  223.4260 C   0  0  0  0  0  0  0  0  0  0  0  0
  139.5560   70.4400  223.1340 C   0  0  0  0  0  0  0  0  0  0  0  0
  139.6030   69.4930  224.1520 C   0  0  0  0  0  0  0  0  0  0  0  0
  140.0960   69.8610  225.3980 C   0  0  0  0  0  0  0  0  0  0  0  0
  140.1600   68.9360  226.4460 C   0  0  0  0  0  0  0  0  0  0  0  0
  140.6550   69.3140  227.6890 C   0  0  0  0  0  0  0  0  0  0  0  0
  140.7310   68.1540  228.9920 Cl  0  0  0  0  0  0  0  0  0  0  0  0
  141.0940   70.6000  227.9250 C   0  0  0  0  0  0  0  0  0  0  0  0
  141.0280   71.4980  226.8950 C   0  0  0  0  0  0  0  0  0  0  0  0
  140.5410   71.1470  225.6530 C   0  0  0  0  0  0  0  0  0  0  0  0
  140.4820   72.0380  224.6520 N   0  0  0  0  0  0  0  0  0  0  0  0
  138.1400   73.4980  223.0320 H   0  0  0  0  0  0  0  0  0  0  0  0
  139.4400   74.0885  220.4049 H   0  0  0  0  0  0  0  0  0  0  0  0
  137.7971   74.7537  221.0316 H   0  0  0  0  0  0  0  0  0  0  0  0
  142.4137   75.6393  221.3392 H   0  0  0  0  0  0  0  0  0  0  0  0
  141.7434   75.0710  219.8113 H   0  0  0  0  0  0  0  0  0  0  0  0
  143.2141   77.6774  220.4213 H   0  0  0  0  0  0  0  0  0  0  0  0
  143.2026   76.8181  218.9078 H   0  0  0  0  0  0  0  0  0  0  0  0
  141.6809   78.9990  219.0437 H   0  0  0  0  0  0  0  0  0  0  0  0
  140.8444   77.6163  218.4156 H   0  0  0  0  0  0  0  0  0  0  0  0
  139.5728   78.4517  220.4685 H   0  0  0  0  0  0  0  0  0  0  0  0
  141.8830   80.3063  220.4747 H   0  0  0  0  0  0  0  0  0  0  0  0
  142.9988   81.4848  222.3449 H   0  0  0  0  0  0  0  0  0  0  0  0
  142.9760   80.5249  224.6573 H   0  0  0  0  0  0  0  0  0  0  0  0
  140.7358   77.2293  223.2163 H   0  0  0  0  0  0  0  0  0  0  0  0
  139.1729   70.1859  222.1347 H   0  0  0  0  0  0  0  0  0  0  0  0
  139.2541   68.4653  223.9728 H   0  0  0  0  0  0  0  0  0  0  0  0
  139.8166   67.9034  226.2854 H   0  0  0  0  0  0  0  0  0  0  0  0
  141.4848   70.8943  228.9102 H   0  0  0  0  0  0  0  0  0  0  0  0
  141.3730   72.5291  227.0619 H   0  0  0  0  0  0  0  0  0  0  0  0
  1  2  2  0
  2  3  1  0
  3  4  1  0
  4  5  1  0
  5  6  2  0
  5  7  1  0
  7  8  1  0
  8  9  1  0
  9 10  1  0
 10 11  1  0
 11 12  1  0
 12 13  2  0
 13 14  1  0
 14 15  2  0
 15 16  1  0
 16 17  2  0
  2 18  1  0
 18 19  2  0
 19 20  1  0
 20 21  2  0
 21 22  1  0
 22 23  2  0
 23 24  1  0
 23 25  1  0
 25 26  2  0
 26 27  1  0
 27 28  2  0
 11  7  1  0
 17 12  1  0
 28 18  1  0
 27 21  1  0
  3 29  1  0
  4 30  1  0
  4 31  1  0
  8 32  1  0
  8 33  1  0
  9 34  1  0
  9 35  1  0
 10 36  1  0
 10 37  1  0
 11 38  1  6
 13 39  1  0
 14 40  1  0
 15 41  1  0
 17 42  1  0
 19 43  1  0
 20 44  1  0
 22 45  1  0
 25 46  1  0
 26 47  1  0
M  END
>  <smiles>  (13) 
O=C(NCC(=O)N1CCCC1c1cccnc1)c1ccc2cc(Cl)ccc2n1

>  <score_type>  (13) 
oracle

>  <origin>  (13) 
autodockgpu

>  <m_score__min__energy>  (13) 
-8.6799999999999997

>  <m_primary>  (13) 
energy

>  <rmsd>  (13) 
1.997671579451012

>  <m_score__min__rmsd>  (13) 
1.997671579451012

>  <meeko>  (13) 
{"free_energy": -8.68, "intermolecular_energy": -10.17, "internal_energy": -1.19, "cluster_size": 29, "cluster_id": 1, "rank_in_cluster": 1}

>  <energy>  (13) 
-8.46

>  <cluster_rmsd>  (13) 
1.39

>  <cluster>  (13) 
1

$$$$

     RDKit          3D

 47 50  0  0  0  0  0  0  0  0999 V2000
  139.8860   72.7460  220.6640 O   0  0  0  0  0  0  0  0  0  0  0  0
  139.7290   72.9730  221.8930 C   0  0  0  0  0  0  0  0  0  0  0  0
  139.4140   74.3370  222.2820 N   0  0  0  0  0  0  0  0  0  0  0  0
  139.3150   75.2820  221.2240 C   0  0  0  0  0  0  0  0  0  0  0  0
  140.4940   76.0020  220.7820 C   0  0  0  0  0  0  0  0  0  0  0  0
  140.7660   77.0560  221.5090 O   0  0  0  0  0  0  0  0  0  0  0  0
  141.3730   75.7490  219.7160 N   0  0  0  0  0  0  0  0  0  0  0  0
  141.1400   75.2410  218.3740 C   0  0  0  0  0  0  0  0  0  0  0  0
  142.5060   75.3770  217.6580 C   0  0  0  0  0  0  0  0  0  0  0  0
  143.1690   76.4610  218.4830 C   0  0  0  0  0  0  0  0  0  0  0  0
  142.8360   75.9860  219.8750 C   0  0  2  0  0  0  0  0  0  0  0  0
  143.4870   74.7140  220.2160 C   0  0  0  0  0  0  0  0  0  0  0  0
  144.8750   74.6570  220.3950 C   0  0  0  0  0  0  0  0  0  0  0  0
  145.5020   73.4550  220.7170 C   0  0  0  0  0  0  0  0  0  0  0  0
  144.7770   72.2820  220.8700 C   0  0  0  0  0  0  0  0  0  0  0  0
  143.4470   72.3630  220.6930 N   0  0  0  0  0  0  0  0  0  0  0  0
  142.8250   73.5150  220.3830 C   0  0  0  0  0  0  0  0  0  0  0  0
  139.8490   71.9430  222.9140 C   0  0  0  0  0  0  0  0  0  0  0  0
  139.4580   70.6660  222.5690 C   0  0  0  0  0  0  0  0  0  0  0  0
  139.5700   69.6770  223.5400 C   0  0  0  0  0  0  0  0  0  0  0  0
  140.0620   70.0130  224.7960 C   0  0  0  0  0  0  0  0  0  0  0  0
  140.1890   69.0450  225.7990 C   0  0  0  0  0  0  0  0  0  0  0  0
  140.6820   69.3910  227.0520 C   0  0  0  0  0  0  0  0  0  0  0  0
  140.8380   68.1780  228.2980 Cl  0  0  0  0  0  0  0  0  0  0  0  0
  141.0580   70.6860  227.3420 C   0  0  0  0  0  0  0  0  0  0  0  0
  140.9310   71.6260  226.3560 C   0  0  0  0  0  0  0  0  0  0  0  0
  140.4440   71.3070  225.1060 C   0  0  0  0  0  0  0  0  0  0  0  0
  140.3240   72.2390  224.1480 N   0  0  0  0  0  0  0  0  0  0  0  0
  139.2870   74.4700  223.2920 H   0  0  0  0  0  0  0  0  0  0  0  0
  138.9276   74.7396  220.3490 H   0  0  0  0  0  0  0  0  0  0  0  0
  138.6806   76.0731  221.6502 H   0  0  0  0  0  0  0  0  0  0  0  0
  140.8231   74.1882  218.4076 H   0  0  0  0  0  0  0  0  0  0  0  0
  140.3417   75.7910  217.8542 H   0  0  0  0  0  0  0  0  0  0  0  0
  143.0758   74.4369  217.6964 H   0  0  0  0  0  0  0  0  0  0  0  0
  142.4305   75.6106  216.5858 H   0  0  0  0  0  0  0  0  0  0  0  0
  144.2554   76.4936  218.3136 H   0  0  0  0  0  0  0  0  0  0  0  0
  142.8329   77.4830  218.2537 H   0  0  0  0  0  0  0  0  0  0  0  0
  143.1495   76.6870  220.6626 H   0  0  0  0  0  0  0  0  0  0  0  0
  145.4765   75.5708  220.2802 H   0  0  0  0  0  0  0  0  0  0  0  0
  146.5934   73.4357  220.8526 H   0  0  0  0  0  0  0  0  0  0  0  0
  145.2674   71.3307  221.1241 H   0  0  0  0  0  0  0  0  0  0  0  0
  141.7324   73.5002  220.2561 H   0  0  0  0  0  0  0  0  0  0  0  0
  139.0723   70.4387  221.5642 H   0  0  0  0  0  0  0  0  0  0  0  0
  139.2730   68.6416  223.3170 H   0  0  0  0  0  0  0  0  0  0  0  0
  139.8970   68.0043  225.5946 H   0  0  0  0  0  0  0  0  0  0  0  0
  141.4478   70.9546  228.3349 H   0  0  0  0  0  0  0  0  0  0  0  0
  141.2255   72.6648  226.5662 H   0  0  0  0  0  0  0  0  0  0  0  0
  1  2  2  0
  2  3  1  0
  3  4  1  0
  4  5  1  0
  5  6  2  0
  5  7  1  0
  7  8  1  0
  8  9  1  0
  9 10  1  0
 10 11  1  0
 11 12  1  0
 12 13  2  0
 13 14  1  0
 14 15  2  0
 15 16  1  0
 16 17  2  0
  2 18  1  0
 18 19  2  0
 19 20  1  0
 20 21  2  0
 21 22  1  0
 22 23  2  0
 23 24  1  0
 23 25  1  0
 25 26  2  0
 26 27  1  0
 27 28  2  0
 11  7  1  0
 17 12  1  0
 28 18  1  0
 27 21  1  0
  3 29  1  0
  4 30  1  0
  4 31  1  0
  8 32  1  0
  8 33  1  0
  9 34  1  0
  9 35  1  0
 10 36  1  0
 10 37  1  0
 11 38  1  1
 13 39  1  0
 14 40  1  0
 15 41  1  0
 17 42  1  0
 19 43  1  0
 20 44  1  0
 22 45  1  0
 25 46  1  0
 26 47  1  0
M  END
>  <smiles>  (14) 
O=C(NCC(=O)N1CCCC1c1cccnc1)c1ccc2cc(Cl)ccc2n1

>  <score_type>  (14) 
oracle

>  <origin>  (14) 
autodockgpu

>  <m_score__min__energy>  (14) 
-8.6799999999999997

>  <m_primary>  (14) 
energy

>  <rmsd>  (14) 
1.9601047928494482

>  <m_score__min__rmsd>  (14) 
1.9601047928494482

>  <meeko>  (14) 
{"free_energy": -7.64, "intermolecular_energy": -9.13, "internal_energy": -1.74, "cluster_size": 9, "cluster_id": 3, "rank_in_cluster": 8}

>  <energy>  (14) 
-8.44

>  <cluster_rmsd>  (14) 
0.88

>  <cluster>  (14) 
1

$$$$

     RDKit          3D

 47 50  0  0  0  0  0  0  0  0999 V2000
  140.7690   73.3150  220.5240 O   0  0  0  0  0  0  0  0  0  0  0  0
  140.2400   74.1740  221.2790 C   0  0  0  0  0  0  0  0  0  0  0  0
  139.1720   73.7240  222.1530 N   0  0  0  0  0  0  0  0  0  0  0  0
  138.8310   72.3460  222.0660 C   0  0  0  0  0  0  0  0  0  0  0  0
  139.5470   71.3700  222.8650 C   0  0  0  0  0  0  0  0  0  0  0  0
  140.8310   71.3230  222.6080 O   0  0  0  0  0  0  0  0  0  0  0  0
  139.0880   70.4830  223.8530 N   0  0  0  0  0  0  0  0  0  0  0  0
  137.7540   70.2160  224.3630 C   0  0  0  0  0  0  0  0  0  0  0  0
  137.9290   69.0030  225.3080 C   0  0  0  0  0  0  0  0  0  0  0  0
  139.2050   68.3870  224.7730 C   0  0  0  0  0  0  0  0  0  0  0  0
  140.0510   69.6230  224.5980 C   0  0  2  0  0  0  0  0  0  0  0  0
  140.3790   70.2760  225.8720 C   0  0  0  0  0  0  0  0  0  0  0  0
  140.7730   71.6200  225.8960 C   0  0  0  0  0  0  0  0  0  0  0  0
  141.0890   72.2480  227.0980 C   0  0  0  0  0  0  0  0  0  0  0  0
  141.0230   71.5680  228.3060 C   0  0  0  0  0  0  0  0  0  0  0  0
  140.6430   70.2790  228.2570 N   0  0  0  0  0  0  0  0  0  0  0  0
  140.3340   69.6570  227.1040 C   0  0  0  0  0  0  0  0  0  0  0  0
  140.6510   75.5710  221.3040 C   0  0  0  0  0  0  0  0  0  0  0  0
  141.6020   75.9630  220.3860 C   0  0  0  0  0  0  0  0  0  0  0  0
  141.9990   77.2960  220.4050 C   0  0  0  0  0  0  0  0  0  0  0  0
  141.4300   78.1600  221.3330 C   0  0  0  0  0  0  0  0  0  0  0  0
  141.8040   79.5070  221.3820 C   0  0  0  0  0  0  0  0  0  0  0  0
  141.2280   80.3630  222.3150 C   0  0  0  0  0  0  0  0  0  0  0  0
  141.7000   82.0430  222.3710 Cl  0  0  0  0  0  0  0  0  0  0  0  0
  140.2810   79.9150  223.2100 C   0  0  0  0  0  0  0  0  0  0  0  0
  139.9200   78.5960  223.1550 C   0  0  0  0  0  0  0  0  0  0  0  0
  140.4770   77.7280  222.2400 C   0  0  0  0  0  0  0  0  0  0  0  0
  140.1150   76.4370  222.1970 N   0  0  0  0  0  0  0  0  0  0  0  0
  138.7780   74.4580  222.7540 H   0  0  0  0  0  0  0  0  0  0  0  0
  137.7690   72.2637  222.3406 H   0  0  0  0  0  0  0  0  0  0  0  0
  139.1086   72.0814  221.0350 H   0  0  0  0  0  0  0  0  0  0  0  0
  137.3689   71.0857  224.9157 H   0  0  0  0  0  0  0  0  0  0  0  0
  137.0333   70.0144  223.5568 H   0  0  0  0  0  0  0  0  0  0  0  0
  138.0444   69.3219  226.3544 H   0  0  0  0  0  0  0  0  0  0  0  0
  137.0698   68.3162  225.3210 H   0  0  0  0  0  0  0  0  0  0  0  0
  139.6521   67.6870  225.4942 H   0  0  0  0  0  0  0  0  0  0  0  0
  139.0774   67.7846  223.8615 H   0  0  0  0  0  0  0  0  0  0  0  0
  141.0218   69.4237  224.1207 H   0  0  0  0  0  0  0  0  0  0  0  0
  140.8335   72.1858  224.9546 H   0  0  0  0  0  0  0  0  0  0  0  0
  141.3970   73.3040  227.0899 H   0  0  0  0  0  0  0  0  0  0  0  0
  141.2698   72.0601  229.2583 H   0  0  0  0  0  0  0  0  0  0  0  0
  140.0299   68.6007  227.1463 H   0  0  0  0  0  0  0  0  0  0  0  0
  142.0301   75.2494  219.6666 H   0  0  0  0  0  0  0  0  0  0  0  0
  142.7543   77.6619  219.6940 H   0  0  0  0  0  0  0  0  0  0  0  0
  142.5576   79.8914  220.6790 H   0  0  0  0  0  0  0  0  0  0  0  0
  139.8291   80.5964  223.9459 H   0  0  0  0  0  0  0  0  0  0  0  0
  139.1649   78.2181  223.8600 H   0  0  0  0  0  0  0  0  0  0  0  0
  1  2  2  0
  2  3  1  0
  3  4  1  0
  4  5  1  0
  5  6  2  0
  5  7  1  0
  7  8  1  0
  8  9  1  0
  9 10  1  0
 10 11  1  0
 11 12  1  0
 12 13  2  0
 13 14  1  0
 14 15  2  0
 15 16  1  0
 16 17  2  0
  2 18  1  0
 18 19  2  0
 19 20  1  0
 20 21  2  0
 21 22  1  0
 22 23  2  0
 23 24  1  0
 23 25  1  0
 25 26  2  0
 26 27  1  0
 27 28  2  0
 11  7  1  0
 17 12  1  0
 28 18  1  0
 27 21  1  0
  3 29  1  0
  4 30  1  0
  4 31  1  0
  8 32  1  0
  8 33  1  0
  9 34  1  0
  9 35  1  0
 10 36  1  0
 10 37  1  0
 11 38  1  6
 13 39  1  0
 14 40  1  0
 15 41  1  0
 17 42  1  0
 19 43  1  0
 20 44  1  0
 22 45  1  0
 25 46  1  0
 26 47  1  0
M  END
>  <smiles>  (15) 
O=C(NCC(=O)N1CCCC1c1cccnc1)c1ccc2cc(Cl)ccc2n1

>  <score_type>  (15) 
oracle

>  <origin>  (15) 
autodockgpu

>  <m_score__min__energy>  (15) 
-8.6799999999999997

>  <m_primary>  (15) 
energy

>  <rmsd>  (15) 
8.466054617276706

>  <m_score__min__rmsd>  (15) 
8.466054617276706

>  <meeko>  (15) 
{"free_energy": -8.32, "intermolecular_energy": -9.81, "internal_energy": -1.4, "cluster_size": 10, "cluster_id": 2, "rank_in_cluster": 4}

>  <energy>  (15) 
-8.44

>  <cluster_rmsd>  (15) 
0.83

>  <cluster>  (15) 
1

$$$$

     RDKit          3D

 47 50  0  0  0  0  0  0  0  0999 V2000
  140.5030   72.5560  220.7410 O   0  0  0  0  0  0  0  0  0  0  0  0
  140.1540   72.8730  221.9100 C   0  0  0  0  0  0  0  0  0  0  0  0
  139.7890   74.2590  222.1410 N   0  0  0  0  0  0  0  0  0  0  0  0
  139.8620   75.1220  221.0130 C   0  0  0  0  0  0  0  0  0  0  0  0
  141.0840   75.8500  220.7340 C   0  0  0  0  0  0  0  0  0  0  0  0
  142.1710   75.1820  221.0300 O   0  0  0  0  0  0  0  0  0  0  0  0
  141.2810   77.1370  220.2050 N   0  0  0  0  0  0  0  0  0  0  0  0
  142.2730   77.6560  219.2780 C   0  0  0  0  0  0  0  0  0  0  0  0
  141.8120   79.1030  218.9780 C   0  0  0  0  0  0  0  0  0  0  0  0
  140.3360   79.0220  219.3070 C   0  0  0  0  0  0  0  0  0  0  0  0
  140.3890   78.2610  220.6080 C   0  0  2  0  0  0  0  0  0  0  0  0
  141.0380   79.0170  221.6870 C   0  0  0  0  0  0  0  0  0  0  0  0
  141.4530   78.3640  222.8550 C   0  0  0  0  0  0  0  0  0  0  0  0
  142.0680   79.0720  223.8850 C   0  0  0  0  0  0  0  0  0  0  0  0
  142.2900   80.4390  223.7890 C   0  0  0  0  0  0  0  0  0  0  0  0
  141.8830   81.0410  222.6580 N   0  0  0  0  0  0  0  0  0  0  0  0
  141.2880   80.3730  221.6530 C   0  0  0  0  0  0  0  0  0  0  0  0
  140.1080   71.9230  223.0120 C   0  0  0  0  0  0  0  0  0  0  0  0
  139.5570   70.6850  222.7530 C   0  0  0  0  0  0  0  0  0  0  0  0
  139.5090   69.7740  223.8020 C   0  0  0  0  0  0  0  0  0  0  0  0
  140.0100   70.1430  225.0450 C   0  0  0  0  0  0  0  0  0  0  0  0
  139.9790   69.2520  226.1240 C   0  0  0  0  0  0  0  0  0  0  0  0
  140.4830   69.6320  227.3630 C   0  0  0  0  0  0  0  0  0  0  0  0
  140.4410   68.5150  228.7050 Cl  0  0  0  0  0  0  0  0  0  0  0  0
  141.0220   70.8840  227.5650 C   0  0  0  0  0  0  0  0  0  0  0  0
  141.0490   71.7490  226.5050 C   0  0  0  0  0  0  0  0  0  0  0  0
  140.5550   71.3960  225.2670 C   0  0  0  0  0  0  0  0  0  0  0  0
  140.5870   72.2530  224.2350 N   0  0  0  0  0  0  0  0  0  0  0  0
  139.5050   74.4680  223.1060 H   0  0  0  0  0  0  0  0  0  0  0  0
  139.6510   74.5049  220.1272 H   0  0  0  0  0  0  0  0  0  0  0  0
  139.1440   75.9186  221.2579 H   0  0  0  0  0  0  0  0  0  0  0  0
  143.2721   77.6548  219.7383 H   0  0  0  0  0  0  0  0  0  0  0  0
  142.3492   77.0461  218.3658 H   0  0  0  0  0  0  0  0  0  0  0  0
  142.3280   79.8310  219.6213 H   0  0  0  0  0  0  0  0  0  0  0  0
  142.0259   79.4391  217.9527 H   0  0  0  0  0  0  0  0  0  0  0  0
  139.8931   80.0204  219.4377 H   0  0  0  0  0  0  0  0  0  0  0  0
  139.7161   78.5560  218.5269 H   0  0  0  0  0  0  0  0  0  0  0  0
  139.3958   77.9990  221.0016 H   0  0  0  0  0  0  0  0  0  0  0  0
  141.2915   77.2810  222.9598 H   0  0  0  0  0  0  0  0  0  0  0  0
  142.3841   78.5371  224.7927 H   0  0  0  0  0  0  0  0  0  0  0  0
  142.7756   81.0025  224.5994 H   0  0  0  0  0  0  0  0  0  0  0  0
  140.9854   80.9372  220.7585 H   0  0  0  0  0  0  0  0  0  0  0  0
  139.1708   70.4287  221.7554 H   0  0  0  0  0  0  0  0  0  0  0  0
  139.0795   68.7728  223.6501 H   0  0  0  0  0  0  0  0  0  0  0  0
  139.5539   68.2462  225.9912 H   0  0  0  0  0  0  0  0  0  0  0  0
  141.4183   71.1790  228.5478 H   0  0  0  0  0  0  0  0  0  0  0  0
  141.4763   72.7530  226.6443 H   0  0  0  0  0  0  0  0  0  0  0  0
  1  2  2  0
  2  3  1  0
  3  4  1  0
  4  5  1  0
  5  6  2  0
  5  7  1  0
  7  8  1  0
  8  9  1  0
  9 10  1  0
 10 11  1  0
 11 12  1  0
 12 13  2  0
 13 14  1  0
 14 15  2  0
 15 16  1  0
 16 17  2  0
  2 18  1  0
 18 19  2  0
 19 20  1  0
 20 21  2  0
 21 22  1  0
 22 23  2  0
 23 24  1  0
 23 25  1  0
 25 26  2  0
 26 27  1  0
 27 28  2  0
 11  7  1  0
 17 12  1  0
 28 18  1  0
 27 21  1  0
  3 29  1  0
  4 30  1  0
  4 31  1  0
  8 32  1  0
  8 33  1  0
  9 34  1  0
  9 35  1  0
 10 36  1  0
 10 37  1  0
 11 38  1  1
 13 39  1  0
 14 40  1  0
 15 41  1  0
 17 42  1  0
 19 43  1  0
 20 44  1  0
 22 45  1  0
 25 46  1  0
 26 47  1  0
M  END
>  <smiles>  (16) 
O=C(NCC(=O)N1CCCC1c1cccnc1)c1ccc2cc(Cl)ccc2n1

>  <score_type>  (16) 
oracle

>  <origin>  (16) 
autodockgpu

>  <m_score__min__energy>  (16) 
-8.6799999999999997

>  <m_primary>  (16) 
energy

>  <rmsd>  (16) 
2.386584077331506

>  <m_score__min__rmsd>  (16) 
2.386584077331506

>  <meeko>  (16) 
{"free_energy": -8.39, "intermolecular_energy": -9.88, "internal_energy": -1.16, "cluster_size": 29, "cluster_id": 1, "rank_in_cluster": 19}

>  <energy>  (16) 
-8.42

>  <cluster_rmsd>  (16) 
0.8

>  <cluster>  (16) 
1

$$$$

     RDKit          3D

 47 50  0  0  0  0  0  0  0  0999 V2000
  140.6580   72.6020  220.8140 O   0  0  0  0  0  0  0  0  0  0  0  0
  140.2050   72.8960  221.9530 C   0  0  0  0  0  0  0  0  0  0  0  0
  139.7430   74.2590  222.1510 N   0  0  0  0  0  0  0  0  0  0  0  0
  139.8510   75.1260  221.0300 C   0  0  0  0  0  0  0  0  0  0  0  0
  141.1290   75.7230  220.6930 C   0  0  0  0  0  0  0  0  0  0  0  0
  142.1490   74.9320  220.9130 O   0  0  0  0  0  0  0  0  0  0  0  0
  141.4370   76.9920  220.1770 N   0  0  0  0  0  0  0  0  0  0  0  0
  142.5400   77.4550  219.3510 C   0  0  0  0  0  0  0  0  0  0  0  0
  142.1790   78.9170  218.9950 C   0  0  0  0  0  0  0  0  0  0  0  0
  140.6750   78.9070  219.1740 C   0  0  0  0  0  0  0  0  0  0  0  0
  140.5610   78.1600  220.4790 C   0  0  2  0  0  0  0  0  0  0  0  0
  141.1330   78.8990  221.6120 C   0  0  0  0  0  0  0  0  0  0  0  0
  141.4060   78.2410  222.8180 C   0  0  0  0  0  0  0  0  0  0  0  0
  141.9470   78.9330  223.9000 C   0  0  0  0  0  0  0  0  0  0  0  0
  142.2310   80.2890  223.8190 C   0  0  0  0  0  0  0  0  0  0  0  0
  141.9590   80.8970  222.6510 N   0  0  0  0  0  0  0  0  0  0  0  0
  141.4380   80.2440  221.5970 C   0  0  0  0  0  0  0  0  0  0  0  0
  140.1320   71.9440  223.0510 C   0  0  0  0  0  0  0  0  0  0  0  0
  139.5270   70.7310  222.7920 C   0  0  0  0  0  0  0  0  0  0  0  0
  139.4530   69.8170  223.8370 C   0  0  0  0  0  0  0  0  0  0  0  0
  139.9820   70.1590  225.0770 C   0  0  0  0  0  0  0  0  0  0  0  0
  139.9260   69.2650  226.1520 C   0  0  0  0  0  0  0  0  0  0  0  0
  140.4580   69.6170  227.3870 C   0  0  0  0  0  0  0  0  0  0  0  0
  140.3840   68.4960  228.7240 Cl  0  0  0  0  0  0  0  0  0  0  0  0
  141.0510   70.8450  227.5890 C   0  0  0  0  0  0  0  0  0  0  0  0
  141.1020   71.7130  226.5320 C   0  0  0  0  0  0  0  0  0  0  0  0
  140.5810   71.3870  225.2980 C   0  0  0  0  0  0  0  0  0  0  0  0
  140.6370   72.2480  224.2700 N   0  0  0  0  0  0  0  0  0  0  0  0
  139.3760   74.4490  223.0920 H   0  0  0  0  0  0  0  0  0  0  0  0
  139.5288   74.5490  220.1506 H   0  0  0  0  0  0  0  0  0  0  0  0
  139.2376   75.9915  221.3210 H   0  0  0  0  0  0  0  0  0  0  0  0
  143.4865   77.4145  219.9099 H   0  0  0  0  0  0  0  0  0  0  0  0
  142.6792   76.8313  218.4556 H   0  0  0  0  0  0  0  0  0  0  0  0
  142.6609   79.6287  219.6814 H   0  0  0  0  0  0  0  0  0  0  0  0
  142.5101   79.2304  217.9939 H   0  0  0  0  0  0  0  0  0  0  0  0
  140.2681   79.9260  219.2520 H   0  0  0  0  0  0  0  0  0  0  0  0
  140.1160   78.4602  218.3386 H   0  0  0  0  0  0  0  0  0  0  0  0
  139.5221   77.9477  220.7716 H   0  0  0  0  0  0  0  0  0  0  0  0
  141.1911   77.1663  222.9121 H   0  0  0  0  0  0  0  0  0  0  0  0
  142.1529   78.3939  224.8365 H   0  0  0  0  0  0  0  0  0  0  0  0
  142.6582   80.8401  224.6697 H   0  0  0  0  0  0  0  0  0  0  0  0
  141.2451   80.8121  220.6750 H   0  0  0  0  0  0  0  0  0  0  0  0
  139.1192   70.4965  221.7977 H   0  0  0  0  0  0  0  0  0  0  0  0
  138.9816   68.8348  223.6849 H   0  0  0  0  0  0  0  0  0  0  0  0
  139.4584   68.2782  226.0190 H   0  0  0  0  0  0  0  0  0  0  0  0
  141.4699   71.1186  228.5686 H   0  0  0  0  0  0  0  0  0  0  0  0
  141.5717   72.6979  226.6710 H   0  0  0  0  0  0  0  0  0  0  0  0
  1  2  2  0
  2  3  1  0
  3  4  1  0
  4  5  1  0
  5  6  2  0
  5  7  1  0
  7  8  1  0
  8  9  1  0
  9 10  1  0
 10 11  1  0
 11 12  1  0
 12 13  2  0
 13 14  1  0
 14 15  2  0
 15 16  1  0
 16 17  2  0
  2 18  1  0
 18 19  2  0
 19 20  1  0
 20 21  2  0
 21 22  1  0
 22 23  2  0
 23 24  1  0
 23 25  1  0
 25 26  2  0
 26 27  1  0
 27 28  2  0
 11  7  1  0
 17 12  1  0
 28 18  1  0
 27 21  1  0
  3 29  1  0
  4 30  1  0
  4 31  1  0
  8 32  1  0
  8 33  1  0
  9 34  1  0
  9 35  1  0
 10 36  1  0
 10 37  1  0
 11 38  1  1
 13 39  1  0
 14 40  1  0
 15 41  1  0
 17 42  1  0
 19 43  1  0
 20 44  1  0
 22 45  1  0
 25 46  1  0
 26 47  1  0
M  END
>  <smiles>  (17) 
O=C(NCC(=O)N1CCCC1c1cccnc1)c1ccc2cc(Cl)ccc2n1

>  <score_type>  (17) 
oracle

>  <origin>  (17) 
autodockgpu

>  <m_score__min__energy>  (17) 
-8.6799999999999997

>  <m_primary>  (17) 
energy

>  <rmsd>  (17) 
2.3843351505662307

>  <m_score__min__rmsd>  (17) 
2.3843351505662307

>  <meeko>  (17) 
{"free_energy": -8.49, "intermolecular_energy": -9.98, "internal_energy": -1.11, "cluster_size": 29, "cluster_id": 1, "rank_in_cluster": 10}

>  <energy>  (17) 
-8.41

>  <cluster_rmsd>  (17) 
1.47

>  <cluster>  (17) 
1

$$$$

     RDKit          3D

 47 50  0  0  0  0  0  0  0  0999 V2000
  141.3660   73.3530  220.9180 O   0  0  0  0  0  0  0  0  0  0  0  0
  140.6630   74.2250  221.4970 C   0  0  0  0  0  0  0  0  0  0  0  0
  139.5230   73.7550  222.2650 N   0  0  0  0  0  0  0  0  0  0  0  0
  139.3180   72.3480  222.2850 C   0  0  0  0  0  0  0  0  0  0  0  0
  139.6200   71.5880  223.4820 C   0  0  0  0  0  0  0  0  0  0  0  0
  140.7170   71.9740  224.0850 O   0  0  0  0  0  0  0  0  0  0  0  0
  138.9320   70.5210  224.0850 N   0  0  0  0  0  0  0  0  0  0  0  0
  137.5630   70.4020  224.5570 C   0  0  0  0  0  0  0  0  0  0  0  0
  137.4080   68.9110  224.9440 C   0  0  0  0  0  0  0  0  0  0  0  0
  138.5000   68.2710  224.1130 C   0  0  0  0  0  0  0  0  0  0  0  0
  139.6330   69.2350  224.3620 C   0  0  2  0  0  0  0  0  0  0  0  0
  140.0870   69.2350  225.7590 C   0  0  0  0  0  0  0  0  0  0  0  0
  140.2890   70.4450  226.4350 C   0  0  0  0  0  0  0  0  0  0  0  0
  140.7220   70.4560  227.7590 C   0  0  0  0  0  0  0  0  0  0  0  0
  140.9650   69.2770  228.4480 C   0  0  0  0  0  0  0  0  0  0  0  0
  140.7630   68.1290  227.7770 N   0  0  0  0  0  0  0  0  0  0  0  0
  140.3460   68.1000  226.4980 C   0  0  0  0  0  0  0  0  0  0  0  0
  140.9440   75.6510  221.4240 C   0  0  0  0  0  0  0  0  0  0  0  0
  141.8140   76.0710  220.4390 C   0  0  0  0  0  0  0  0  0  0  0  0
  142.0870   77.4320  220.3650 C   0  0  0  0  0  0  0  0  0  0  0  0
  141.4820   78.2960  221.2710 C   0  0  0  0  0  0  0  0  0  0  0  0
  141.7320   79.6720  221.2260 C   0  0  0  0  0  0  0  0  0  0  0  0
  141.1220   80.5280  222.1370 C   0  0  0  0  0  0  0  0  0  0  0  0
  141.4400   82.2440  222.0750 Cl  0  0  0  0  0  0  0  0  0  0  0  0
  140.2610   80.0510  223.1010 C   0  0  0  0  0  0  0  0  0  0  0  0
  140.0210   78.7040  223.1380 C   0  0  0  0  0  0  0  0  0  0  0  0
  140.6140   77.8360  222.2460 C   0  0  0  0  0  0  0  0  0  0  0  0
  140.3700   76.5180  222.2930 N   0  0  0  0  0  0  0  0  0  0  0  0
  138.9860   74.5010  222.7250 H   0  0  0  0  0  0  0  0  0  0  0  0
  138.2543   72.1790  222.0616 H   0  0  0  0  0  0  0  0  0  0  0  0
  140.0534   71.9752  221.5568 H   0  0  0  0  0  0  0  0  0  0  0  0
  137.3966   71.0488  225.4311 H   0  0  0  0  0  0  0  0  0  0  0  0
  136.8322   70.7121  223.7956 H   0  0  0  0  0  0  0  0  0  0  0  0
  137.5773   68.7549  226.0196 H   0  0  0  0  0  0  0  0  0  0  0  0
  136.4041   68.5008  224.7597 H   0  0  0  0  0  0  0  0  0  0  0  0
  138.7417   67.2589  224.4697 H   0  0  0  0  0  0  0  0  0  0  0  0
  138.2450   68.1263  223.0528 H   0  0  0  0  0  0  0  0  0  0  0  0
  140.5333   69.0143  223.7698 H   0  0  0  0  0  0  0  0  0  0  0  0
  140.1038   71.3965  225.9150 H   0  0  0  0  0  0  0  0  0  0  0  0
  140.8743   71.4190  228.2683 H   0  0  0  0  0  0  0  0  0  0  0  0
  141.3067   69.2807  229.4936 H   0  0  0  0  0  0  0  0  0  0  0  0
  140.2044   67.1207  226.0173 H   0  0  0  0  0  0  0  0  0  0  0  0
  142.2735   75.3570  219.7397 H   0  0  0  0  0  0  0  0  0  0  0  0
  142.7736   77.8209  219.5987 H   0  0  0  0  0  0  0  0  0  0  0  0
  142.4149   80.0791  220.4658 H   0  0  0  0  0  0  0  0  0  0  0  0
  139.7810   80.7321  223.8192 H   0  0  0  0  0  0  0  0  0  0  0  0
  139.3365   78.3032  223.9001 H   0  0  0  0  0  0  0  0  0  0  0  0
  1  2  2  0
  2  3  1  0
  3  4  1  0
  4  5  1  0
  5  6  2  0
  5  7  1  0
  7  8  1  0
  8  9  1  0
  9 10  1  0
 10 11  1  0
 11 12  1  0
 12 13  2  0
 13 14  1  0
 14 15  2  0
 15 16  1  0
 16 17  2  0
  2 18  1  0
 18 19  2  0
 19 20  1  0
 20 21  2  0
 21 22  1  0
 22 23  2  0
 23 24  1  0
 23 25  1  0
 25 26  2  0
 26 27  1  0
 27 28  2  0
 11  7  1  0
 17 12  1  0
 28 18  1  0
 27 21  1  0
  3 29  1  0
  4 30  1  0
  4 31  1  0
  8 32  1  0
  8 33  1  0
  9 34  1  0
  9 35  1  0
 10 36  1  0
 10 37  1  0
 11 38  1  6
 13 39  1  0
 14 40  1  0
 15 41  1  0
 17 42  1  0
 19 43  1  0
 20 44  1  0
 22 45  1  0
 25 46  1  0
 26 47  1  0
M  END
>  <smiles>  (18) 
O=C(NCC(=O)N1CCCC1c1cccnc1)c1ccc2cc(Cl)ccc2n1

>  <score_type>  (18) 
oracle

>  <origin>  (18) 
autodockgpu

>  <m_score__min__energy>  (18) 
-8.6799999999999997

>  <m_primary>  (18) 
energy

>  <rmsd>  (18) 
8.581430795901802

>  <m_score__min__rmsd>  (18) 
8.581430795901802

>  <meeko>  (18) 
{"free_energy": -8.04, "intermolecular_energy": -9.53, "internal_energy": -1.33, "cluster_size": 10, "cluster_id": 2, "rank_in_cluster": 10}

>  <energy>  (18) 
-8.4

>  <cluster_rmsd>  (18) 
0.96

>  <cluster>  (18) 
1

$$$$

     RDKit          3D

 47 50  0  0  0  0  0  0  0  0999 V2000
  139.6470   72.1300  220.8220 O   0  0  0  0  0  0  0  0  0  0  0  0
  139.6590   72.4680  222.0370 C   0  0  0  0  0  0  0  0  0  0  0  0
  139.5330   73.8840  222.3330 N   0  0  0  0  0  0  0  0  0  0  0  0
  139.4090   74.7490  221.2120 C   0  0  0  0  0  0  0  0  0  0  0  0
  139.6500   76.1710  221.3630 C   0  0  0  0  0  0  0  0  0  0  0  0
  138.8900   76.7390  222.2660 O   0  0  0  0  0  0  0  0  0  0  0  0
  140.5560   77.0190  220.7040 N   0  0  0  0  0  0  0  0  0  0  0  0
  141.7980   76.7430  220.0010 C   0  0  0  0  0  0  0  0  0  0  0  0
  142.1970   78.0940  219.3610 C   0  0  0  0  0  0  0  0  0  0  0  0
  140.8600   78.8030  219.2970 C   0  0  0  0  0  0  0  0  0  0  0  0
  140.3210   78.4910  220.6710 C   0  0  2  0  0  0  0  0  0  0  0  0
  141.1000   79.1190  221.7460 C   0  0  0  0  0  0  0  0  0  0  0  0
  141.1810   78.5110  223.0060 C   0  0  0  0  0  0  0  0  0  0  0  0
  141.9150   79.0990  224.0340 C   0  0  0  0  0  0  0  0  0  0  0  0
  142.5870   80.2980  223.8450 C   0  0  0  0  0  0  0  0  0  0  0  0
  142.4930   80.8610  222.6280 N   0  0  0  0  0  0  0  0  0  0  0  0
  141.7890   80.3070  221.6240 C   0  0  0  0  0  0  0  0  0  0  0  0
  139.7920   71.5120  223.1270 C   0  0  0  0  0  0  0  0  0  0  0  0
  139.3990   70.2140  222.8770 C   0  0  0  0  0  0  0  0  0  0  0  0
  139.5230   69.2970  223.9150 C   0  0  0  0  0  0  0  0  0  0  0  0
  140.0280   69.7210  225.1390 C   0  0  0  0  0  0  0  0  0  0  0  0
  140.1680   68.8270  226.2050 C   0  0  0  0  0  0  0  0  0  0  0  0
  140.6730   69.2610  227.4260 C   0  0  0  0  0  0  0  0  0  0  0  0
  140.8440   68.1400  228.7530 Cl  0  0  0  0  0  0  0  0  0  0  0  0
  141.0500   70.5740  227.6190 C   0  0  0  0  0  0  0  0  0  0  0  0
  140.9110   71.4410  226.5700 C   0  0  0  0  0  0  0  0  0  0  0  0
  140.4110   71.0340  225.3510 C   0  0  0  0  0  0  0  0  0  0  0  0
  140.2800   71.8950  224.3310 N   0  0  0  0  0  0  0  0  0  0  0  0
  139.5400   74.1090  223.3350 H   0  0  0  0  0  0  0  0  0  0  0  0
  140.1159   74.3862  220.4513 H   0  0  0  0  0  0  0  0  0  0  0  0
  138.3369   74.6985  220.9712 H   0  0  0  0  0  0  0  0  0  0  0  0
  142.5734   76.4025  220.7030 H   0  0  0  0  0  0  0  0  0  0  0  0
  141.6833   75.9458  219.2518 H   0  0  0  0  0  0  0  0  0  0  0  0
  142.9128   78.6418  219.9916 H   0  0  0  0  0  0  0  0  0  0  0  0
  142.7015   77.9983  218.3882 H   0  0  0  0  0  0  0  0  0  0  0  0
  140.9807   79.8856  219.1437 H   0  0  0  0  0  0  0  0  0  0  0  0
  140.2116   78.4873  218.4663 H   0  0  0  0  0  0  0  0  0  0  0  0
  139.2891   78.8393  220.8257 H   0  0  0  0  0  0  0  0  0  0  0  0
  140.6595   77.5593  223.1854 H   0  0  0  0  0  0  0  0  0  0  0  0
  141.9626   78.6029  225.0146 H   0  0  0  0  0  0  0  0  0  0  0  0
  143.1691   80.7657  224.6527 H   0  0  0  0  0  0  0  0  0  0  0  0
  141.7618   80.8288  220.6560 H   0  0  0  0  0  0  0  0  0  0  0  0
  139.0030   69.9157  221.8951 H   0  0  0  0  0  0  0  0  0  0  0  0
  139.2250   68.2482  223.7693 H   0  0  0  0  0  0  0  0  0  0  0  0
  139.8769   67.7740  226.0771 H   0  0  0  0  0  0  0  0  0  0  0  0
  141.4498   70.9131  228.5860 H   0  0  0  0  0  0  0  0  0  0  0  0
  141.2063   72.4923  226.7026 H   0  0  0  0  0  0  0  0  0  0  0  0
  1  2  2  0
  2  3  1  0
  3  4  1  0
  4  5  1  0
  5  6  2  0
  5  7  1  0
  7  8  1  0
  8  9  1  0
  9 10  1  0
 10 11  1  0
 11 12  1  0
 12 13  2  0
 13 14  1  0
 14 15  2  0
 15 16  1  0
 16 17  2  0
  2 18  1  0
 18 19  2  0
 19 20  1  0
 20 21  2  0
 21 22  1  0
 22 23  2  0
 23 24  1  0
 23 25  1  0
 25 26  2  0
 26 27  1  0
 27 28  2  0
 11  7  1  0
 17 12  1  0
 28 18  1  0
 27 21  1  0
  3 29  1  0
  4 30  1  0
  4 31  1  0
  8 32  1  0
  8 33  1  0
  9 34  1  0
  9 35  1  0
 10 36  1  0
 10 37  1  0
 11 38  1  6
 13 39  1  0
 14 40  1  0
 15 41  1  0
 17 42  1  0
 19 43  1  0
 20 44  1  0
 22 45  1  0
 25 46  1  0
 26 47  1  0
M  END
>  <smiles>  (19) 
O=C(NCC(=O)N1CCCC1c1cccnc1)c1ccc2cc(Cl)ccc2n1

>  <score_type>  (19) 
oracle

>  <origin>  (19) 
autodockgpu

>  <m_score__min__energy>  (19) 
-8.6799999999999997

>  <m_primary>  (19) 
energy

>  <rmsd>  (19) 
2.0758016626367666

>  <m_score__min__rmsd>  (19) 
2.0758016626367666

>  <meeko>  (19) 
{"free_energy": -8.51, "intermolecular_energy": -10.0, "internal_energy": -1.32, "cluster_size": 29, "cluster_id": 1, "rank_in_cluster": 8}

>  <energy>  (19) 
-8.39

>  <cluster_rmsd>  (19) 
1.04

>  <cluster>  (19) 
1

$$$$

     RDKit          3D

 47 50  0  0  0  0  0  0  0  0999 V2000
  138.9400   71.9900  220.9030 O   0  0  0  0  0  0  0  0  0  0  0  0
  139.2260   72.3580  222.0740 C   0  0  0  0  0  0  0  0  0  0  0  0
  139.3030   73.7860  222.3220 N   0  0  0  0  0  0  0  0  0  0  0  0
  139.0440   74.6300  221.2070 C   0  0  0  0  0  0  0  0  0  0  0  0
  139.5120   76.0020  221.2110 C   0  0  0  0  0  0  0  0  0  0  0  0
  138.6920   76.8330  221.8040 O   0  0  0  0  0  0  0  0  0  0  0  0
  140.6870   76.5690  220.6880 N   0  0  0  0  0  0  0  0  0  0  0  0
  141.9850   75.9900  220.3870 C   0  0  0  0  0  0  0  0  0  0  0  0
  142.7630   77.1180  219.6690 C   0  0  0  0  0  0  0  0  0  0  0  0
  141.6310   77.9790  219.1480 C   0  0  0  0  0  0  0  0  0  0  0  0
  140.7410   78.0230  220.3640 C   0  0  2  0  0  0  0  0  0  0  0  0
  141.3500   78.7370  221.4930 C   0  0  0  0  0  0  0  0  0  0  0  0
  141.2520   78.2190  222.7910 C   0  0  0  0  0  0  0  0  0  0  0  0
  141.8250   78.8890  223.8700 C   0  0  0  0  0  0  0  0  0  0  0  0
  142.5070   80.0840  223.6960 C   0  0  0  0  0  0  0  0  0  0  0  0
  142.5870   80.5600  222.4410 N   0  0  0  0  0  0  0  0  0  0  0  0
  142.0400   79.9260  221.3880 C   0  0  0  0  0  0  0  0  0  0  0  0
  139.4780   71.4230  223.1620 C   0  0  0  0  0  0  0  0  0  0  0  0
  139.1350   70.1050  222.9510 C   0  0  0  0  0  0  0  0  0  0  0  0
  139.3720   69.2070  223.9860 C   0  0  0  0  0  0  0  0  0  0  0  0
  139.9360   69.6710  225.1700 C   0  0  0  0  0  0  0  0  0  0  0  0
  140.1900   68.7970  226.2330 C   0  0  0  0  0  0  0  0  0  0  0  0
  140.7530   69.2710  227.4120 C   0  0  0  0  0  0  0  0  0  0  0  0
  141.0670   68.1760  228.7360 Cl  0  0  0  0  0  0  0  0  0  0  0  0
  141.0760   70.6030  227.5680 C   0  0  0  0  0  0  0  0  0  0  0  0
  140.8250   71.4500  226.5230 C   0  0  0  0  0  0  0  0  0  0  0  0
  140.2660   71.0040  225.3440 C   0  0  0  0  0  0  0  0  0  0  0  0
  140.0250   71.8450  224.3270 N   0  0  0  0  0  0  0  0  0  0  0  0
  139.5310   74.0360  223.2920 H   0  0  0  0  0  0  0  0  0  0  0  0
  139.4947   74.1436  220.3294 H   0  0  0  0  0  0  0  0  0  0  0  0
  137.9493   74.7368  221.2203 H   0  0  0  0  0  0  0  0  0  0  0  0
  142.5003   75.6917  221.3119 H   0  0  0  0  0  0  0  0  0  0  0  0
  141.9025   75.0837  219.7691 H   0  0  0  0  0  0  0  0  0  0  0  0
  143.4020   77.6750  220.3701 H   0  0  0  0  0  0  0  0  0  0  0  0
  143.4522   76.7621  218.8891 H   0  0  0  0  0  0  0  0  0  0  0  0
  141.9810   78.9824  218.8638 H   0  0  0  0  0  0  0  0  0  0  0  0
  141.1459   77.5983  218.2371 H   0  0  0  0  0  0  0  0  0  0  0  0
  139.7838   78.5350  220.1864 H   0  0  0  0  0  0  0  0  0  0  0  0
  140.7168   77.2730  222.9602 H   0  0  0  0  0  0  0  0  0  0  0  0
  141.7347   78.4618  224.8796 H   0  0  0  0  0  0  0  0  0  0  0  0
  142.9609   80.6171  224.5444 H   0  0  0  0  0  0  0  0  0  0  0  0
  142.1489   80.3797  220.3919 H   0  0  0  0  0  0  0  0  0  0  0  0
  138.6907   69.7759  222.0001 H   0  0  0  0  0  0  0  0  0  0  0  0
  139.1167   68.1433  223.8700 H   0  0  0  0  0  0  0  0  0  0  0  0
  139.9429   67.7296  226.1350 H   0  0  0  0  0  0  0  0  0  0  0  0
  141.5215   70.9728  228.5033 H   0  0  0  0  0  0  0  0  0  0  0  0
  141.0760   72.5160  226.6263 H   0  0  0  0  0  0  0  0  0  0  0  0
  1  2  2  0
  2  3  1  0
  3  4  1  0
  4  5  1  0
  5  6  2  0
  5  7  1  0
  7  8  1  0
  8  9  1  0
  9 10  1  0
 10 11  1  0
 11 12  1  0
 12 13  2  0
 13 14  1  0
 14 15  2  0
 15 16  1  0
 16 17  2  0
  2 18  1  0
 18 19  2  0
 19 20  1  0
 20 21  2  0
 21 22  1  0
 22 23  2  0
 23 24  1  0
 23 25  1  0
 25 26  2  0
 26 27  1  0
 27 28  2  0
 11  7  1  0
 17 12  1  0
 28 18  1  0
 27 21  1  0
  3 29  1  0
  4 30  1  0
  4 31  1  0
  8 32  1  0
  8 33  1  0
  9 34  1  0
  9 35  1  0
 10 36  1  0
 10 37  1  0
 11 38  1  6
 13 39  1  0
 14 40  1  0
 15 41  1  0
 17 42  1  0
 19 43  1  0
 20 44  1  0
 22 45  1  0
 25 46  1  0
 26 47  1  0
M  END
>  <smiles>  (20) 
O=C(NCC(=O)N1CCCC1c1cccnc1)c1ccc2cc(Cl)ccc2n1

>  <score_type>  (20) 
oracle

>  <origin>  (20) 
autodockgpu

>  <m_score__min__energy>  (20) 
-8.6799999999999997

>  <m_primary>  (20) 
energy

>  <rmsd>  (20) 
1.9518610082373773

>  <m_score__min__rmsd>  (20) 
1.9518610082373773

>  <meeko>  (20) 
{"free_energy": -8.42, "intermolecular_energy": -9.91, "internal_energy": -1.39, "cluster_size": 29, "cluster_id": 1, "rank_in_cluster": 16}

>  <energy>  (20) 
-8.38

>  <cluster_rmsd>  (20) 
0.79

>  <cluster>  (20) 
1

$$$$

     RDKit          3D

 47 50  0  0  0  0  0  0  0  0999 V2000
  140.7990   73.0620  221.3400 O   0  0  0  0  0  0  0  0  0  0  0  0
  139.8950   72.8980  222.2020 C   0  0  0  0  0  0  0  0  0  0  0  0
  138.7430   73.7790  222.1310 N   0  0  0  0  0  0  0  0  0  0  0  0
  138.7560   74.7440  221.0870 C   0  0  0  0  0  0  0  0  0  0  0  0
  139.3750   76.0370  221.3010 C   0  0  0  0  0  0  0  0  0  0  0  0
  138.7240   76.7960  222.1470 O   0  0  0  0  0  0  0  0  0  0  0  0
  140.5430   76.5940  220.7530 N   0  0  0  0  0  0  0  0  0  0  0  0
  141.8260   76.0010  220.4150 C   0  0  0  0  0  0  0  0  0  0  0  0
  142.6000   77.1250  219.6860 C   0  0  0  0  0  0  0  0  0  0  0  0
  141.4660   78.0020  219.1980 C   0  0  0  0  0  0  0  0  0  0  0  0
  140.6060   78.0490  220.4360 C   0  0  2  0  0  0  0  0  0  0  0  0
  141.2520   78.7480  221.5540 C   0  0  0  0  0  0  0  0  0  0  0  0
  141.2060   78.2080  222.8460 C   0  0  0  0  0  0  0  0  0  0  0  0
  141.8130   78.8640  223.9140 C   0  0  0  0  0  0  0  0  0  0  0  0
  142.4800   80.0670  223.7360 C   0  0  0  0  0  0  0  0  0  0  0  0
  142.5100   80.5650  222.4870 N   0  0  0  0  0  0  0  0  0  0  0  0
  141.9300   79.9450  221.4440 C   0  0  0  0  0  0  0  0  0  0  0  0
  139.9620   71.8820  223.2420 C   0  0  0  0  0  0  0  0  0  0  0  0
  139.5210   70.6170  222.9150 C   0  0  0  0  0  0  0  0  0  0  0  0
  139.5820   69.6420  223.9050 C   0  0  0  0  0  0  0  0  0  0  0  0
  140.0750   69.9800  225.1610 C   0  0  0  0  0  0  0  0  0  0  0  0
  140.1520   69.0260  226.1810 C   0  0  0  0  0  0  0  0  0  0  0  0
  140.6470   69.3740  227.4330 C   0  0  0  0  0  0  0  0  0  0  0  0
  140.7390   68.1780  228.7020 Cl  0  0  0  0  0  0  0  0  0  0  0  0
  141.0730   70.6570  227.7040 C   0  0  0  0  0  0  0  0  0  0  0  0
  140.9950   71.5830  226.7000 C   0  0  0  0  0  0  0  0  0  0  0  0
  140.5080   71.2620  225.4510 C   0  0  0  0  0  0  0  0  0  0  0  0
  140.4370   72.1800  224.4750 N   0  0  0  0  0  0  0  0  0  0  0  0
  138.0300   73.6030  222.8490 H   0  0  0  0  0  0  0  0  0  0  0  0
  139.2741   74.2815  220.2340 H   0  0  0  0  0  0  0  0  0  0  0  0
  137.6919   74.9919  220.9596 H   0  0  0  0  0  0  0  0  0  0  0  0
  142.3605   75.6891  221.3244 H   0  0  0  0  0  0  0  0  0  0  0  0
  141.7166   75.1006  219.7927 H   0  0  0  0  0  0  0  0  0  0  0  0
  143.2619   77.6699  220.3753 H   0  0  0  0  0  0  0  0  0  0  0  0
  143.2665   76.7667  218.8876 H   0  0  0  0  0  0  0  0  0  0  0  0
  141.8207   79.0030  218.9112 H   0  0  0  0  0  0  0  0  0  0  0  0
  140.9544   77.6324  218.2971 H   0  0  0  0  0  0  0  0  0  0  0  0
  139.6509   78.5733  220.2848 H   0  0  0  0  0  0  0  0  0  0  0  0
  140.6845   77.2550  223.0187 H   0  0  0  0  0  0  0  0  0  0  0  0
  141.7625   78.4192  224.9188 H   0  0  0  0  0  0  0  0  0  0  0  0
  142.9614   80.5888  224.5762 H   0  0  0  0  0  0  0  0  0  0  0  0
  141.9996   80.4161  220.4524 H   0  0  0  0  0  0  0  0  0  0  0  0
  139.1360   70.3880  221.9103 H   0  0  0  0  0  0  0  0  0  0  0  0
  139.2444   68.6159  223.6972 H   0  0  0  0  0  0  0  0  0  0  0  0
  139.8191   67.9948  225.9917 H   0  0  0  0  0  0  0  0  0  0  0  0
  141.4633   70.9275  228.6962 H   0  0  0  0  0  0  0  0  0  0  0  0
  141.3302   72.6124  226.8948 H   0  0  0  0  0  0  0  0  0  0  0  0
  1  2  2  0
  2  3  1  0
  3  4  1  0
  4  5  1  0
  5  6  2  0
  5  7  1  0
  7  8  1  0
  8  9  1  0
  9 10  1  0
 10 11  1  0
 11 12  1  0
 12 13  2  0
 13 14  1  0
 14 15  2  0
 15 16  1  0
 16 17  2  0
  2 18  1  0
 18 19  2  0
 19 20  1  0
 20 21  2  0
 21 22  1  0
 22 23  2  0
 23 24  1  0
 23 25  1  0
 25 26  2  0
 26 27  1  0
 27 28  2  0
 11  7  1  0
 17 12  1  0
 28 18  1  0
 27 21  1  0
  3 29  1  0
  4 30  1  0
  4 31  1  0
  8 32  1  0
  8 33  1  0
  9 34  1  0
  9 35  1  0
 10 36  1  0
 10 37  1  0
 11 38  1  6
 13 39  1  0
 14 40  1  0
 15 41  1  0
 17 42  1  0
 19 43  1  0
 20 44  1  0
 22 45  1  0
 25 46  1  0
 26 47  1  0
M  END
>  <smiles>  (21) 
O=C(NCC(=O)N1CCCC1c1cccnc1)c1ccc2cc(Cl)ccc2n1

>  <score_type>  (21) 
oracle

>  <origin>  (21) 
autodockgpu

>  <m_score__min__energy>  (21) 
-8.6799999999999997

>  <m_primary>  (21) 
energy

>  <rmsd>  (21) 
2.042949768427578

>  <m_score__min__rmsd>  (21) 
2.042949768427578

>  <meeko>  (21) 
{"free_energy": -8.66, "intermolecular_energy": -10.15, "internal_energy": -1.22, "cluster_size": 29, "cluster_id": 1, "rank_in_cluster": 2}

>  <energy>  (21) 
-8.37

>  <cluster_rmsd>  (21) 
0.82

>  <cluster>  (21) 
1

$$$$

     RDKit          3D

 47 50  0  0  0  0  0  0  0  0999 V2000
  141.1020   73.4240  220.6090 O   0  0  0  0  0  0  0  0  0  0  0  0
  140.4800   74.2730  221.3020 C   0  0  0  0  0  0  0  0  0  0  0  0
  139.3740   73.7890  222.1100 N   0  0  0  0  0  0  0  0  0  0  0  0
  139.1070   72.3940  222.0340 C   0  0  0  0  0  0  0  0  0  0  0  0
  139.7670   71.4790  222.9450 C   0  0  0  0  0  0  0  0  0  0  0  0
  141.0720   71.4790  222.8340 O   0  0  0  0  0  0  0  0  0  0  0  0
  139.2350   70.6090  223.9120 N   0  0  0  0  0  0  0  0  0  0  0  0
  137.8780   70.4210  224.3960 C   0  0  0  0  0  0  0  0  0  0  0  0
  137.9580   69.1850  225.3240 C   0  0  0  0  0  0  0  0  0  0  0  0
  139.2000   68.4950  224.7980 C   0  0  0  0  0  0  0  0  0  0  0  0
  140.1270   69.6760  224.6570 C   0  0  2  0  0  0  0  0  0  0  0  0
  140.4760   70.2860  225.9470 C   0  0  0  0  0  0  0  0  0  0  0  0
  140.8010   71.6460  226.0190 C   0  0  0  0  0  0  0  0  0  0  0  0
  141.1360   72.2350  227.2370 C   0  0  0  0  0  0  0  0  0  0  0  0
  141.1580   71.4960  228.4120 C   0  0  0  0  0  0  0  0  0  0  0  0
  140.8420   70.1930  228.3160 N   0  0  0  0  0  0  0  0  0  0  0  0
  140.5160   69.6090  227.1480 C   0  0  0  0  0  0  0  0  0  0  0  0
  140.8200   75.6880  221.3200 C   0  0  0  0  0  0  0  0  0  0  0  0
  141.7710   76.1180  220.4190 C   0  0  0  0  0  0  0  0  0  0  0  0
  142.1010   77.4690  220.4320 C   0  0  0  0  0  0  0  0  0  0  0  0
  141.4690   78.3130  221.3380 C   0  0  0  0  0  0  0  0  0  0  0  0
  141.7740   79.6780  221.3800 C   0  0  0  0  0  0  0  0  0  0  0  0
  141.1360   80.5130  222.2900 C   0  0  0  0  0  0  0  0  0  0  0  0
  141.5230   82.2150  222.3370 Cl  0  0  0  0  0  0  0  0  0  0  0  0
  140.1930   80.0270  223.1690 C   0  0  0  0  0  0  0  0  0  0  0  0
  139.8990   78.6920  223.1210 C   0  0  0  0  0  0  0  0  0  0  0  0
  140.5190   77.8430  222.2280 C   0  0  0  0  0  0  0  0  0  0  0  0
  140.2220   76.5350  222.1910 N   0  0  0  0  0  0  0  0  0  0  0  0
  138.9030   74.5160  222.6620 H   0  0  0  0  0  0  0  0  0  0  0  0
  138.0249   72.2690  222.1869 H   0  0  0  0  0  0  0  0  0  0  0  0
  139.5148   72.1115  221.0522 H   0  0  0  0  0  0  0  0  0  0  0  0
  137.5403   71.3053  224.9563 H   0  0  0  0  0  0  0  0  0  0  0  0
  137.1599   70.2785  223.5750 H   0  0  0  0  0  0  0  0  0  0  0  0
  138.0771   69.4798  226.3771 H   0  0  0  0  0  0  0  0  0  0  0  0
  137.0558   68.5558  225.3132 H   0  0  0  0  0  0  0  0  0  0  0  0
  139.5888   67.7560  225.5140 H   0  0  0  0  0  0  0  0  0  0  0  0
  139.0485   67.9165  223.8747 H   0  0  0  0  0  0  0  0  0  0  0  0
  141.0904   69.4212  224.1912 H   0  0  0  0  0  0  0  0  0  0  0  0
  140.7918   72.2565  225.1040 H   0  0  0  0  0  0  0  0  0  0  0  0
  141.3877   73.3054  227.2678 H   0  0  0  0  0  0  0  0  0  0  0  0
  141.4216   71.9551  229.3762 H   0  0  0  0  0  0  0  0  0  0  0  0
  140.2689   68.5371  227.1514 H   0  0  0  0  0  0  0  0  0  0  0  0
  142.2501   75.4196  219.7171 H   0  0  0  0  0  0  0  0  0  0  0  0
  142.8531   77.8650  219.7338 H   0  0  0  0  0  0  0  0  0  0  0  0
  142.5228   80.0926  220.6891 H   0  0  0  0  0  0  0  0  0  0  0  0
  139.6918   80.6923  223.8875 H   0  0  0  0  0  0  0  0  0  0  0  0
  139.1477   78.2844  223.8134 H   0  0  0  0  0  0  0  0  0  0  0  0
  1  2  2  0
  2  3  1  0
  3  4  1  0
  4  5  1  0
  5  6  2  0
  5  7  1  0
  7  8  1  0
  8  9  1  0
  9 10  1  0
 10 11  1  0
 11 12  1  0
 12 13  2  0
 13 14  1  0
 14 15  2  0
 15 16  1  0
 16 17  2  0
  2 18  1  0
 18 19  2  0
 19 20  1  0
 20 21  2  0
 21 22  1  0
 22 23  2  0
 23 24  1  0
 23 25  1  0
 25 26  2  0
 26 27  1  0
 27 28  2  0
 11  7  1  0
 17 12  1  0
 28 18  1  0
 27 21  1  0
  3 29  1  0
  4 30  1  0
  4 31  1  0
  8 32  1  0
  8 33  1  0
  9 34  1  0
  9 35  1  0
 10 36  1  0
 10 37  1  0
 11 38  1  6
 13 39  1  0
 14 40  1  0
 15 41  1  0
 17 42  1  0
 19 43  1  0
 20 44  1  0
 22 45  1  0
 25 46  1  0
 26 47  1  0
M  END
>  <smiles>  (22) 
O=C(NCC(=O)N1CCCC1c1cccnc1)c1ccc2cc(Cl)ccc2n1

>  <score_type>  (22) 
oracle

>  <origin>  (22) 
autodockgpu

>  <m_score__min__energy>  (22) 
-8.6799999999999997

>  <m_primary>  (22) 
energy

>  <rmsd>  (22) 
8.515336212873207

>  <m_score__min__rmsd>  (22) 
8.515336212873207

>  <meeko>  (22) 
{"free_energy": -8.32, "intermolecular_energy": -9.82, "internal_energy": -1.42, "cluster_size": 10, "cluster_id": 2, "rank_in_cluster": 3}

>  <energy>  (22) 
-8.34

>  <cluster_rmsd>  (22) 
1.42

>  <cluster>  (22) 
1

$$$$

     RDKit          3D

 47 50  0  0  0  0  0  0  0  0999 V2000
  140.5860   72.7640  221.1480 O   0  0  0  0  0  0  0  0  0  0  0  0
  139.8100   72.7470  222.1410 C   0  0  0  0  0  0  0  0  0  0  0  0
  138.7940   73.7810  222.2080 N   0  0  0  0  0  0  0  0  0  0  0  0
  138.7780   74.7140  221.1350 C   0  0  0  0  0  0  0  0  0  0  0  0
  139.3520   76.0340  221.3120 C   0  0  0  0  0  0  0  0  0  0  0  0
  138.6410   76.8150  222.0860 O   0  0  0  0  0  0  0  0  0  0  0  0
  140.5320   76.5950  220.7930 N   0  0  0  0  0  0  0  0  0  0  0  0
  141.8130   76.0000  220.4520 C   0  0  0  0  0  0  0  0  0  0  0  0
  142.6060   77.1380  219.7660 C   0  0  0  0  0  0  0  0  0  0  0  0
  141.4850   78.0400  219.2920 C   0  0  0  0  0  0  0  0  0  0  0  0
  140.6120   78.0580  220.5210 C   0  0  2  0  0  0  0  0  0  0  0  0
  141.2520   78.7170  221.6670 C   0  0  0  0  0  0  0  0  0  0  0  0
  141.9440   79.9220  221.4920 C   0  0  0  0  0  0  0  0  0  0  0  0
  142.5560   80.5550  222.5720 C   0  0  0  0  0  0  0  0  0  0  0  0
  142.5000   80.0160  223.8490 C   0  0  0  0  0  0  0  0  0  0  0  0
  141.8300   78.8590  223.9910 N   0  0  0  0  0  0  0  0  0  0  0  0
  141.2330   78.2350  222.9590 C   0  0  0  0  0  0  0  0  0  0  0  0
  139.8960   71.7520  223.2010 C   0  0  0  0  0  0  0  0  0  0  0  0
  139.4620   70.4770  222.9030 C   0  0  0  0  0  0  0  0  0  0  0  0
  139.5410   69.5220  223.9110 C   0  0  0  0  0  0  0  0  0  0  0  0
  140.0450   69.8880  225.1540 C   0  0  0  0  0  0  0  0  0  0  0  0
  140.1400   68.9550  226.1920 C   0  0  0  0  0  0  0  0  0  0  0  0
  140.6450   69.3310  227.4320 C   0  0  0  0  0  0  0  0  0  0  0  0
  140.7610   68.1610  228.7230 Cl  0  0  0  0  0  0  0  0  0  0  0  0
  141.0650   70.6220  227.6730 C   0  0  0  0  0  0  0  0  0  0  0  0
  140.9690   71.5280  226.6520 C   0  0  0  0  0  0  0  0  0  0  0  0
  140.4710   71.1790  225.4150 C   0  0  0  0  0  0  0  0  0  0  0  0
  140.3820   72.0780  224.4220 N   0  0  0  0  0  0  0  0  0  0  0  0
  138.1820   73.7220  223.0310 H   0  0  0  0  0  0  0  0  0  0  0  0
  139.3150   74.2441  220.2978 H   0  0  0  0  0  0  0  0  0  0  0  0
  137.7066   74.9212  220.9967 H   0  0  0  0  0  0  0  0  0  0  0  0
  142.3339   75.6557  221.3576 H   0  0  0  0  0  0  0  0  0  0  0  0
  141.7025   75.1197  219.8017 H   0  0  0  0  0  0  0  0  0  0  0  0
  143.2648   77.6556  220.4788 H   0  0  0  0  0  0  0  0  0  0  0  0
  143.2786   76.7978  218.9649 H   0  0  0  0  0  0  0  0  0  0  0  0
  141.8518   79.0457  219.0392 H   0  0  0  0  0  0  0  0  0  0  0  0
  140.9802   77.7022  218.3749 H   0  0  0  0  0  0  0  0  0  0  0  0
  139.6636   78.5958  220.3753 H   0  0  0  0  0  0  0  0  0  0  0  0
  142.0051   80.3737  220.4909 H   0  0  0  0  0  0  0  0  0  0  0  0
  143.0940   81.5005  222.4088 H   0  0  0  0  0  0  0  0  0  0  0  0
  142.9810   80.5118  224.7050 H   0  0  0  0  0  0  0  0  0  0  0  0
  140.7025   77.2918  223.1561 H   0  0  0  0  0  0  0  0  0  0  0  0
  139.0688   70.2254  221.9070 H   0  0  0  0  0  0  0  0  0  0  0  0
  139.2088   68.4896  223.7270 H   0  0  0  0  0  0  0  0  0  0  0  0
  139.8133   67.9178  226.0264 H   0  0  0  0  0  0  0  0  0  0  0  0
  141.4647   70.9145  228.6552 H   0  0  0  0  0  0  0  0  0  0  0  0
  141.2984   72.5635  226.8231 H   0  0  0  0  0  0  0  0  0  0  0  0
  1  2  2  0
  2  3  1  0
  3  4  1  0
  4  5  1  0
  5  6  2  0
  5  7  1  0
  7  8  1  0
  8  9  1  0
  9 10  1  0
 10 11  1  0
 11 12  1  0
 12 13  2  0
 13 14  1  0
 14 15  2  0
 15 16  1  0
 16 17  2  0
  2 18  1  0
 18 19  2  0
 19 20  1  0
 20 21  2  0
 21 22  1  0
 22 23  2  0
 23 24  1  0
 23 25  1  0
 25 26  2  0
 26 27  1  0
 27 28  2  0
 11  7  1  0
 17 12  1  0
 28 18  1  0
 27 21  1  0
  3 29  1  0
  4 30  1  0
  4 31  1  0
  8 32  1  0
  8 33  1  0
  9 34  1  0
  9 35  1  0
 10 36  1  0
 10 37  1  0
 11 38  1  6
 13 39  1  0
 14 40  1  0
 15 41  1  0
 17 42  1  0
 19 43  1  0
 20 44  1  0
 22 45  1  0
 25 46  1  0
 26 47  1  0
M  END
>  <smiles>  (23) 
O=C(NCC(=O)N1CCCC1c1cccnc1)c1ccc2cc(Cl)ccc2n1

>  <score_type>  (23) 
oracle

>  <origin>  (23) 
autodockgpu

>  <m_score__min__energy>  (23) 
-8.6799999999999997

>  <m_primary>  (23) 
energy

>  <rmsd>  (23) 
2.0199356567486766

>  <m_score__min__rmsd>  (23) 
2.0199356567486766

>  <meeko>  (23) 
{"free_energy": -8.65, "intermolecular_energy": -10.14, "internal_energy": -1.2, "cluster_size": 29, "cluster_id": 1, "rank_in_cluster": 4}

>  <energy>  (23) 
-8.32

>  <cluster_rmsd>  (23) 
0.85

>  <cluster>  (23) 
1

$$$$

     RDKit          3D

 47 50  0  0  0  0  0  0  0  0999 V2000
  140.3560   72.4900  220.7680 O   0  0  0  0  0  0  0  0  0  0  0  0
  140.0450   72.7920  221.9520 C   0  0  0  0  0  0  0  0  0  0  0  0
  139.6580   74.1690  222.2050 N   0  0  0  0  0  0  0  0  0  0  0  0
  139.6700   75.0390  221.0810 C   0  0  0  0  0  0  0  0  0  0  0  0
  139.6680   76.4760  221.2760 C   0  0  0  0  0  0  0  0  0  0  0  0
  138.7850   76.8840  222.1530 O   0  0  0  0  0  0  0  0  0  0  0  0
  140.4520   77.4800  220.6830 N   0  0  0  0  0  0  0  0  0  0  0  0
  141.6290   77.4090  219.8340 C   0  0  0  0  0  0  0  0  0  0  0  0
  141.8810   78.8680  219.3860 C   0  0  0  0  0  0  0  0  0  0  0  0
  140.5060   79.4770  219.5590 C   0  0  0  0  0  0  0  0  0  0  0  0
  140.1290   78.9180  220.9080 C   0  0  2  0  0  0  0  0  0  0  0  0
  140.9740   79.4280  221.9950 C   0  0  0  0  0  0  0  0  0  0  0  0
  141.3940   80.7640  221.9940 C   0  0  0  0  0  0  0  0  0  0  0  0
  142.1990   81.2580  223.0190 C   0  0  0  0  0  0  0  0  0  0  0  0
  142.6070   80.4470  224.0690 C   0  0  0  0  0  0  0  0  0  0  0  0
  142.1900   79.1690  224.0460 N   0  0  0  0  0  0  0  0  0  0  0  0
  141.4140   78.6760  223.0650 C   0  0  0  0  0  0  0  0  0  0  0  0
  140.0610   71.8350  223.0480 C   0  0  0  0  0  0  0  0  0  0  0  0
  139.5750   70.5710  222.7870 C   0  0  0  0  0  0  0  0  0  0  0  0
  139.5870   69.6520  223.8300 C   0  0  0  0  0  0  0  0  0  0  0  0
  140.0800   70.0410  225.0710 C   0  0  0  0  0  0  0  0  0  0  0  0
  140.1080   69.1430  226.1440 C   0  0  0  0  0  0  0  0  0  0  0  0
  140.6030   69.5420  227.3810 C   0  0  0  0  0  0  0  0  0  0  0  0
  140.6350   68.4170  228.7160 Cl  0  0  0  0  0  0  0  0  0  0  0  0
  141.0760   70.8210  227.5850 C   0  0  0  0  0  0  0  0  0  0  0  0
  141.0450   71.6920  226.5300 C   0  0  0  0  0  0  0  0  0  0  0  0
  140.5590   71.3200  225.2950 C   0  0  0  0  0  0  0  0  0  0  0  0
  140.5340   72.1840  224.2690 N   0  0  0  0  0  0  0  0  0  0  0  0
  139.4070   74.3650  223.1820 H   0  0  0  0  0  0  0  0  0  0  0  0
  140.5743   74.7983  220.5028 H   0  0  0  0  0  0  0  0  0  0  0  0
  138.6981   74.8475  220.6028 H   0  0  0  0  0  0  0  0  0  0  0  0
  142.4908   77.0223  220.3977 H   0  0  0  0  0  0  0  0  0  0  0  0
  141.4848   76.7311  218.9798 H   0  0  0  0  0  0  0  0  0  0  0  0
  142.6239   79.3633  220.0285 H   0  0  0  0  0  0  0  0  0  0  0  0
  142.2887   78.9613  218.3686 H   0  0  0  0  0  0  0  0  0  0  0  0
  140.5467   80.5762  219.5713 H   0  0  0  0  0  0  0  0  0  0  0  0
  139.7961   79.2460  218.7511 H   0  0  0  0  0  0  0  0  0  0  0  0
  139.0995   79.1615  221.2094 H   0  0  0  0  0  0  0  0  0  0  0  0
  141.0852   81.4307  221.1754 H   0  0  0  0  0  0  0  0  0  0  0  0
  142.5171   82.3107  222.9954 H   0  0  0  0  0  0  0  0  0  0  0  0
  143.2413   80.8316  224.8813 H   0  0  0  0  0  0  0  0  0  0  0  0
  141.1145   77.6189  223.1181 H   0  0  0  0  0  0  0  0  0  0  0  0
  139.1925   70.3004  221.7918 H   0  0  0  0  0  0  0  0  0  0  0  0
  139.2112   68.6298  223.6757 H   0  0  0  0  0  0  0  0  0  0  0  0
  139.7367   68.1165  226.0084 H   0  0  0  0  0  0  0  0  0  0  0  0
  141.4662   71.1316  228.5655 H   0  0  0  0  0  0  0  0  0  0  0  0
  141.4181   72.7171  226.6714 H   0  0  0  0  0  0  0  0  0  0  0  0
  1  2  2  0
  2  3  1  0
  3  4  1  0
  4  5  1  0
  5  6  2  0
  5  7  1  0
  7  8  1  0
  8  9  1  0
  9 10  1  0
 10 11  1  0
 11 12  1  0
 12 13  2  0
 13 14  1  0
 14 15  2  0
 15 16  1  0
 16 17  2  0
  2 18  1  0
 18 19  2  0
 19 20  1  0
 20 21  2  0
 21 22  1  0
 22 23  2  0
 23 24  1  0
 23 25  1  0
 25 26  2  0
 26 27  1  0
 27 28  2  0
 11  7  1  0
 17 12  1  0
 28 18  1  0
 27 21  1  0
  3 29  1  0
  4 30  1  0
  4 31  1  0
  8 32  1  0
  8 33  1  0
  9 34  1  0
  9 35  1  0
 10 36  1  0
 10 37  1  0
 11 38  1  1
 13 39  1  0
 14 40  1  0
 15 41  1  0
 17 42  1  0
 19 43  1  0
 20 44  1  0
 22 45  1  0
 25 46  1  0
 26 47  1  0
M  END
>  <smiles>  (24) 
O=C(NCC(=O)N1CCCC1c1cccnc1)c1ccc2cc(Cl)ccc2n1

>  <score_type>  (24) 
oracle

>  <origin>  (24) 
autodockgpu

>  <m_score__min__energy>  (24) 
-8.6799999999999997

>  <m_primary>  (24) 
energy

>  <rmsd>  (24) 
2.387988140192427

>  <m_score__min__rmsd>  (24) 
2.387988140192427

>  <meeko>  (24) 
{"free_energy": -8.38, "intermolecular_energy": -9.87, "internal_energy": -1.26, "cluster_size": 29, "cluster_id": 1, "rank_in_cluster": 20}

>  <energy>  (24) 
-8.27

>  <cluster_rmsd>  (24) 
0.85

>  <cluster>  (24) 
1

$$$$

     RDKit          3D

 47 50  0  0  0  0  0  0  0  0999 V2000
  140.9840   73.3580  220.6480 O   0  0  0  0  0  0  0  0  0  0  0  0
  140.3730   74.2160  221.3400 C   0  0  0  0  0  0  0  0  0  0  0  0
  139.2720   73.7450  222.1620 N   0  0  0  0  0  0  0  0  0  0  0  0
  138.9960   72.3510  222.0990 C   0  0  0  0  0  0  0  0  0  0  0  0
  139.7130   71.4300  222.9590 C   0  0  0  0  0  0  0  0  0  0  0  0
  141.0040   71.4050  222.7390 O   0  0  0  0  0  0  0  0  0  0  0  0
  139.2490   70.5770  223.9740 N   0  0  0  0  0  0  0  0  0  0  0  0
  137.9170   70.3560  224.5130 C   0  0  0  0  0  0  0  0  0  0  0  0
  138.0770   69.1590  225.4800 C   0  0  0  0  0  0  0  0  0  0  0  0
  139.3260   68.4980  224.9360 C   0  0  0  0  0  0  0  0  0  0  0  0
  140.2010   69.7070  224.7210 C   0  0  2  0  0  0  0  0  0  0  0  0
  140.5700   70.3760  225.9750 C   0  0  0  0  0  0  0  0  0  0  0  0
  140.7120   69.6350  227.1550 C   0  0  0  0  0  0  0  0  0  0  0  0
  141.0590   70.2600  228.3500 C   0  0  0  0  0  0  0  0  0  0  0  0
  141.2760   71.6300  228.4110 C   0  0  0  0  0  0  0  0  0  0  0  0
  141.1330   72.3180  227.2650 N   0  0  0  0  0  0  0  0  0  0  0  0
  140.7990   71.7300  226.1020 C   0  0  0  0  0  0  0  0  0  0  0  0
  140.7210   75.6290  221.3450 C   0  0  0  0  0  0  0  0  0  0  0  0
  141.6780   76.0440  220.4420 C   0  0  0  0  0  0  0  0  0  0  0  0
  142.0160   77.3930  220.4420 C   0  0  0  0  0  0  0  0  0  0  0  0
  141.3860   78.2500  221.3370 C   0  0  0  0  0  0  0  0  0  0  0  0
  141.7000   79.6140  221.3660 C   0  0  0  0  0  0  0  0  0  0  0  0
  141.0640   80.4620  222.2650 C   0  0  0  0  0  0  0  0  0  0  0  0
  141.4610   82.1620  222.2960 Cl  0  0  0  0  0  0  0  0  0  0  0  0
  140.1140   79.9910  223.1470 C   0  0  0  0  0  0  0  0  0  0  0  0
  139.8130   78.6570  223.1120 C   0  0  0  0  0  0  0  0  0  0  0  0
  140.4300   77.7950  222.2300 C   0  0  0  0  0  0  0  0  0  0  0  0
  140.1260   76.4890  222.2050 N   0  0  0  0  0  0  0  0  0  0  0  0
  138.8100   74.4780  222.7130 H   0  0  0  0  0  0  0  0  0  0  0  0
  137.9264   72.2287  222.3246 H   0  0  0  0  0  0  0  0  0  0  0  0
  139.3356   72.0716  221.0907 H   0  0  0  0  0  0  0  0  0  0  0  0
  137.5648   71.2468  225.0537 H   0  0  0  0  0  0  0  0  0  0  0  0
  137.1770   70.1569  223.7239 H   0  0  0  0  0  0  0  0  0  0  0  0
  138.2199   69.4964  226.5172 H   0  0  0  0  0  0  0  0  0  0  0  0
  137.2003   68.4959  225.5226 H   0  0  0  0  0  0  0  0  0  0  0  0
  139.7671   67.8010  225.6637 H   0  0  0  0  0  0  0  0  0  0  0  0
  139.1663   67.8808  224.0396 H   0  0  0  0  0  0  0  0  0  0  0  0
  141.1576   69.4722  224.2313 H   0  0  0  0  0  0  0  0  0  0  0  0
  140.5476   68.5475  227.1376 H   0  0  0  0  0  0  0  0  0  0  0  0
  141.1633   69.6564  229.2637 H   0  0  0  0  0  0  0  0  0  0  0  0
  141.5517   72.1285  229.3520 H   0  0  0  0  0  0  0  0  0  0  0  0
  140.7037   72.3616  225.2065 H   0  0  0  0  0  0  0  0  0  0  0  0
  142.1551   75.3354  219.7490 H   0  0  0  0  0  0  0  0  0  0  0  0
  142.7728   77.7772  219.7422 H   0  0  0  0  0  0  0  0  0  0  0  0
  142.4540   80.0167  220.6737 H   0  0  0  0  0  0  0  0  0  0  0  0
  139.6140   80.6669  223.8564 H   0  0  0  0  0  0  0  0  0  0  0  0
  139.0578   78.2609  223.8068 H   0  0  0  0  0  0  0  0  0  0  0  0
  1  2  2  0
  2  3  1  0
  3  4  1  0
  4  5  1  0
  5  6  2  0
  5  7  1  0
  7  8  1  0
  8  9  1  0
  9 10  1  0
 10 11  1  0
 11 12  1  0
 12 13  2  0
 13 14  1  0
 14 15  2  0
 15 16  1  0
 16 17  2  0
  2 18  1  0
 18 19  2  0
 19 20  1  0
 20 21  2  0
 21 22  1  0
 22 23  2  0
 23 24  1  0
 23 25  1  0
 25 26  2  0
 26 27  1  0
 27 28  2  0
 11  7  1  0
 17 12  1  0
 28 18  1  0
 27 21  1  0
  3 29  1  0
  4 30  1  0
  4 31  1  0
  8 32  1  0
  8 33  1  0
  9 34  1  0
  9 35  1  0
 10 36  1  0
 10 37  1  0
 11 38  1  6
 13 39  1  0
 14 40  1  0
 15 41  1  0
 17 42  1  0
 19 43  1  0
 20 44  1  0
 22 45  1  0
 25 46  1  0
 26 47  1  0
M  END
>  <smiles>  (25) 
O=C(NCC(=O)N1CCCC1c1cccnc1)c1ccc2cc(Cl)ccc2n1

>  <score_type>  (25) 
oracle

>  <origin>  (25) 
autodockgpu

>  <m_score__min__energy>  (25) 
-8.6799999999999997

>  <m_primary>  (25) 
energy

>  <rmsd>  (25) 
8.509125215717445

>  <m_score__min__rmsd>  (25) 
8.509125215717445

>  <meeko>  (25) 
{"free_energy": -8.29, "intermolecular_energy": -9.78, "internal_energy": -1.38, "cluster_size": 10, "cluster_id": 2, "rank_in_cluster": 6}

>  <energy>  (25) 
-8.15

>  <cluster_rmsd>  (25) 
0.64

>  <cluster>  (25) 
1

$$$$

     RDKit          3D

 47 50  0  0  0  0  0  0  0  0999 V2000
  138.9310   72.0000  220.8090 O   0  0  0  0  0  0  0  0  0  0  0  0
  139.2280   72.3800  221.9730 C   0  0  0  0  0  0  0  0  0  0  0  0
  139.3200   73.8120  222.2000 N   0  0  0  0  0  0  0  0  0  0  0  0
  139.0630   74.6420  221.0750 C   0  0  0  0  0  0  0  0  0  0  0  0
  140.0240   74.7130  219.9910 C   0  0  0  0  0  0  0  0  0  0  0  0
  139.6540   74.0580  218.9190 O   0  0  0  0  0  0  0  0  0  0  0  0
  141.2670   75.3640  219.9120 N   0  0  0  0  0  0  0  0  0  0  0  0
  142.6160   74.9030  220.1950 C   0  0  0  0  0  0  0  0  0  0  0  0
  143.5330   76.0590  219.7300 C   0  0  0  0  0  0  0  0  0  0  0  0
  142.6420   76.7660  218.7300 C   0  0  0  0  0  0  0  0  0  0  0  0
  141.3420   76.7930  219.4950 C   0  0  2  0  0  0  0  0  0  0  0  0
  141.4050   77.6340  220.6980 C   0  0  0  0  0  0  0  0  0  0  0  0
  141.0350   77.1120  221.9440 C   0  0  0  0  0  0  0  0  0  0  0  0
  141.0880   77.9010  223.0910 C   0  0  0  0  0  0  0  0  0  0  0  0
  141.5080   79.2220  223.0370 C   0  0  0  0  0  0  0  0  0  0  0  0
  141.8580   79.7000  221.8300 N   0  0  0  0  0  0  0  0  0  0  0  0
  141.8120   78.9520  220.7120 C   0  0  0  0  0  0  0  0  0  0  0  0
  139.4770   71.4590  223.0720 C   0  0  0  0  0  0  0  0  0  0  0  0
  139.1260   70.1400  222.8790 C   0  0  0  0  0  0  0  0  0  0  0  0
  139.3600   69.2550  223.9260 C   0  0  0  0  0  0  0  0  0  0  0  0
  139.9290   69.7310  225.1020 C   0  0  0  0  0  0  0  0  0  0  0  0
  140.1800   68.8700  226.1760 C   0  0  0  0  0  0  0  0  0  0  0  0
  140.7490   69.3560  227.3480 C   0  0  0  0  0  0  0  0  0  0  0  0
  141.0600   68.2770  228.6850 Cl  0  0  0  0  0  0  0  0  0  0  0  0
  141.0800   70.6870  227.4860 C   0  0  0  0  0  0  0  0  0  0  0  0
  140.8320   71.5220  226.4300 C   0  0  0  0  0  0  0  0  0  0  0  0
  140.2680   71.0640  225.2580 C   0  0  0  0  0  0  0  0  0  0  0  0
  140.0290   71.8930  224.2310 N   0  0  0  0  0  0  0  0  0  0  0  0
  139.5570   74.0730  223.1650 H   0  0  0  0  0  0  0  0  0  0  0  0
  138.1147   74.2977  220.6365 H   0  0  0  0  0  0  0  0  0  0  0  0
  139.0854   75.6566  221.4993 H   0  0  0  0  0  0  0  0  0  0  0  0
  142.7439   74.7157  221.2714 H   0  0  0  0  0  0  0  0  0  0  0  0
  142.8479   73.9570  219.6837 H   0  0  0  0  0  0  0  0  0  0  0  0
  143.8019   76.7203  220.5668 H   0  0  0  0  0  0  0  0  0  0  0  0
  144.4975   75.7286  219.3170 H   0  0  0  0  0  0  0  0  0  0  0  0
  143.0046   77.7807  218.5086 H   0  0  0  0  0  0  0  0  0  0  0  0
  142.5846   76.2826  217.7436 H   0  0  0  0  0  0  0  0  0  0  0  0
  140.4992   77.1918  218.9114 H   0  0  0  0  0  0  0  0  0  0  0  0
  140.6988   76.0672  222.0177 H   0  0  0  0  0  0  0  0  0  0  0  0
  140.7912   77.4683  224.0578 H   0  0  0  0  0  0  0  0  0  0  0  0
  141.5526   79.8492  223.9396 H   0  0  0  0  0  0  0  0  0  0  0  0
  142.1143   79.4152  219.7612 H   0  0  0  0  0  0  0  0  0  0  0  0
  138.6781   69.8006  221.9334 H   0  0  0  0  0  0  0  0  0  0  0  0
  139.0981   68.1914  223.8250 H   0  0  0  0  0  0  0  0  0  0  0  0
  139.9258   67.8030  226.0927 H   0  0  0  0  0  0  0  0  0  0  0  0
  141.5294   71.0663  228.4156 H   0  0  0  0  0  0  0  0  0  0  0  0
  141.0897   72.5877  226.5188 H   0  0  0  0  0  0  0  0  0  0  0  0
  1  2  2  0
  2  3  1  0
  3  4  1  0
  4  5  1  0
  5  6  2  0
  5  7  1  0
  7  8  1  0
  8  9  1  0
  9 10  1  0
 10 11  1  0
 11 12  1  0
 12 13  2  0
 13 14  1  0
 14 15  2  0
 15 16  1  0
 16 17  2  0
  2 18  1  0
 18 19  2  0
 19 20  1  0
 20 21  2  0
 21 22  1  0
 22 23  2  0
 23 24  1  0
 23 25  1  0
 25 26  2  0
 26 27  1  0
 27 28  2  0
 11  7  1  0
 17 12  1  0
 28 18  1  0
 27 21  1  0
  3 29  1  0
  4 30  1  0
  4 31  1  0
  8 32  1  0
  8 33  1  0
  9 34  1  0
  9 35  1  0
 10 36  1  0
 10 37  1  0
 11 38  1  6
 13 39  1  0
 14 40  1  0
 15 41  1  0
 17 42  1  0
 19 43  1  0
 20 44  1  0
 22 45  1  0
 25 46  1  0
 26 47  1  0
M  END
>  <smiles>  (26) 
O=C(NCC(=O)N1CCCC1c1cccnc1)c1ccc2cc(Cl)ccc2n1

>  <score_type>  (26) 
oracle

>  <origin>  (26) 
autodockgpu

>  <m_score__min__energy>  (26) 
-8.6799999999999997

>  <m_primary>  (26) 
energy

>  <rmsd>  (26) 
2.096645780647616

>  <m_score__min__rmsd>  (26) 
2.096645780647616

>  <meeko>  (26) 
{"free_energy": -7.82, "intermolecular_energy": -9.31, "internal_energy": -1.48, "cluster_size": 29, "cluster_id": 1, "rank_in_cluster": 27}

>  <energy>  (26) 
-7.87

>  <cluster_rmsd>  (26) 
1.63

>  <cluster>  (26) 
1

$$$$

     RDKit          3D

 47 50  0  0  0  0  0  0  0  0999 V2000
  140.2730   72.5410  220.7260 O   0  0  0  0  0  0  0  0  0  0  0  0
  140.0390   72.8660  221.9210 C   0  0  0  0  0  0  0  0  0  0  0  0
  139.7480   74.2640  222.1840 N   0  0  0  0  0  0  0  0  0  0  0  0
  139.7580   75.1290  221.0560 C   0  0  0  0  0  0  0  0  0  0  0  0
  141.0160   75.6250  220.5330 C   0  0  0  0  0  0  0  0  0  0  0  0
  141.9570   74.7150  220.4810 O   0  0  0  0  0  0  0  0  0  0  0  0
  141.3770   76.9060  220.0800 N   0  0  0  0  0  0  0  0  0  0  0  0
  142.5090   77.3670  219.2950 C   0  0  0  0  0  0  0  0  0  0  0  0
  142.2050   78.8550  218.9990 C   0  0  0  0  0  0  0  0  0  0  0  0
  140.6980   78.8890  219.1520 C   0  0  0  0  0  0  0  0  0  0  0  0
  140.5360   78.0880  220.4200 C   0  0  2  0  0  0  0  0  0  0  0  0
  141.1110   78.7550  221.5950 C   0  0  0  0  0  0  0  0  0  0  0  0
  141.3690   80.1320  221.5700 C   0  0  0  0  0  0  0  0  0  0  0  0
  141.9170   80.7740  222.6780 C   0  0  0  0  0  0  0  0  0  0  0  0
  142.2230   80.0760  223.8370 C   0  0  0  0  0  0  0  0  0  0  0  0
  141.9650   78.7560  223.8370 N   0  0  0  0  0  0  0  0  0  0  0  0
  141.4370   78.1200  222.7760 C   0  0  0  0  0  0  0  0  0  0  0  0
  140.0500   71.9130  223.0210 C   0  0  0  0  0  0  0  0  0  0  0  0
  139.5580   70.6500  222.7650 C   0  0  0  0  0  0  0  0  0  0  0  0
  139.5650   69.7360  223.8130 C   0  0  0  0  0  0  0  0  0  0  0  0
  140.0590   70.1270  225.0520 C   0  0  0  0  0  0  0  0  0  0  0  0
  140.0820   69.2340  226.1290 C   0  0  0  0  0  0  0  0  0  0  0  0
  140.5780   69.6360  227.3640 C   0  0  0  0  0  0  0  0  0  0  0  0
  140.6040   68.5170  228.7040 Cl  0  0  0  0  0  0  0  0  0  0  0  0
  141.0570   70.9130  227.5630 C   0  0  0  0  0  0  0  0  0  0  0  0
  141.0310   71.7800  226.5050 C   0  0  0  0  0  0  0  0  0  0  0  0
  140.5440   71.4050  225.2710 C   0  0  0  0  0  0  0  0  0  0  0  0
  140.5240   72.2650  224.2410 N   0  0  0  0  0  0  0  0  0  0  0  0
  139.5570   74.4790  223.1700 H   0  0  0  0  0  0  0  0  0  0  0  0
  139.2651   74.5866  220.2357 H   0  0  0  0  0  0  0  0  0  0  0  0
  139.2643   76.0379  221.4304 H   0  0  0  0  0  0  0  0  0  0  0  0
  143.4432   77.2688  219.8674 H   0  0  0  0  0  0  0  0  0  0  0  0
  142.6429   76.7795  218.3747 H   0  0  0  0  0  0  0  0  0  0  0  0
  142.6981   79.5184  219.7248 H   0  0  0  0  0  0  0  0  0  0  0  0
  142.5652   79.2010  218.0189 H   0  0  0  0  0  0  0  0  0  0  0  0
  140.3242   79.9168  219.2697 H   0  0  0  0  0  0  0  0  0  0  0  0
  140.1392   78.5001  218.2879 H   0  0  0  0  0  0  0  0  0  0  0  0
  139.4854   77.8984  220.6853 H   0  0  0  0  0  0  0  0  0  0  0  0
  141.1362   80.7126  220.6652 H   0  0  0  0  0  0  0  0  0  0  0  0
  142.1109   81.8558  222.6330 H   0  0  0  0  0  0  0  0  0  0  0  0
  142.6562   80.5783  224.7146 H   0  0  0  0  0  0  0  0  0  0  0  0
  141.2557   77.0378  222.8537 H   0  0  0  0  0  0  0  0  0  0  0  0
  139.1751   70.3765  221.7707 H   0  0  0  0  0  0  0  0  0  0  0  0
  139.1839   68.7151  223.6632 H   0  0  0  0  0  0  0  0  0  0  0  0
  139.7057   68.2087  225.9978 H   0  0  0  0  0  0  0  0  0  0  0  0
  141.4482   71.2255  228.5425 H   0  0  0  0  0  0  0  0  0  0  0  0
  141.4088   72.8039  226.6427 H   0  0  0  0  0  0  0  0  0  0  0  0
  1  2  2  0
  2  3  1  0
  3  4  1  0
  4  5  1  0
  5  6  2  0
  5  7  1  0
  7  8  1  0
  8  9  1  0
  9 10  1  0
 10 11  1  0
 11 12  1  0
 12 13  2  0
 13 14  1  0
 14 15  2  0
 15 16  1  0
 16 17  2  0
  2 18  1  0
 18 19  2  0
 19 20  1  0
 20 21  2  0
 21 22  1  0
 22 23  2  0
 23 24  1  0
 23 25  1  0
 25 26  2  0
 26 27  1  0
 27 28  2  0
 11  7  1  0
 17 12  1  0
 28 18  1  0
 27 21  1  0
  3 29  1  0
  4 30  1  0
  4 31  1  0
  8 32  1  0
  8 33  1  0
  9 34  1  0
  9 35  1  0
 10 36  1  0
 10 37  1  0
 11 38  1  1
 13 39  1  0
 14 40  1  0
 15 41  1  0
 17 42  1  0
 19 43  1  0
 20 44  1  0
 22 45  1  0
 25 46  1  0
 26 47  1  0
M  END
>  <smiles>  (27) 
O=C(NCC(=O)N1CCCC1c1cccnc1)c1ccc2cc(Cl)ccc2n1

>  <score_type>  (27) 
oracle

>  <origin>  (27) 
autodockgpu

>  <m_score__min__energy>  (27) 
-8.6799999999999997

>  <m_primary>  (27) 
energy

>  <rmsd>  (27) 
2.3416183773865296

>  <m_score__min__rmsd>  (27) 
2.3416183773865296

>  <meeko>  (27) 
{"free_energy": -8.32, "intermolecular_energy": -9.82, "internal_energy": -1.13, "cluster_size": 29, "cluster_id": 1, "rank_in_cluster": 23}

>  <energy>  (27) 
-7.82

>  <cluster_rmsd>  (27) 
1.24

>  <cluster>  (27) 
1

$$$$

     RDKit          3D

 47 50  0  0  0  0  0  0  0  0999 V2000
  140.7500   73.3400  220.3840 O   0  0  0  0  0  0  0  0  0  0  0  0
  140.2880   74.1600  221.2230 C   0  0  0  0  0  0  0  0  0  0  0  0
  139.2960   73.6640  222.1600 N   0  0  0  0  0  0  0  0  0  0  0  0
  138.9460   72.2910  222.0330 C   0  0  0  0  0  0  0  0  0  0  0  0
  139.5970   71.2970  222.8630 C   0  0  0  0  0  0  0  0  0  0  0  0
  140.8810   71.1810  222.6320 O   0  0  0  0  0  0  0  0  0  0  0  0
  139.0760   70.4550  223.8590 N   0  0  0  0  0  0  0  0  0  0  0  0
  137.7200   70.2600  224.3450 C   0  0  0  0  0  0  0  0  0  0  0  0
  137.8170   69.0620  225.3190 C   0  0  0  0  0  0  0  0  0  0  0  0
  139.0750   68.3760  224.8260 C   0  0  0  0  0  0  0  0  0  0  0  0
  139.9810   69.5680  224.6440 C   0  0  2  0  0  0  0  0  0  0  0  0
  140.3120   70.2330  225.9110 C   0  0  0  0  0  0  0  0  0  0  0  0
  140.7810   71.5520  225.9140 C   0  0  0  0  0  0  0  0  0  0  0  0
  141.1000   72.1920  227.1100 C   0  0  0  0  0  0  0  0  0  0  0  0
  140.9640   71.5460  228.3310 C   0  0  0  0  0  0  0  0  0  0  0  0
  140.5120   70.2810  228.3010 N   0  0  0  0  0  0  0  0  0  0  0  0
  140.1990   69.6480  227.1560 C   0  0  0  0  0  0  0  0  0  0  0  0
  140.7020   75.5540  221.2830 C   0  0  0  0  0  0  0  0  0  0  0  0
  141.6870   75.9570  220.4060 C   0  0  0  0  0  0  0  0  0  0  0  0
  142.0880   77.2870  220.4600 C   0  0  0  0  0  0  0  0  0  0  0  0
  141.4880   78.1400  221.3800 C   0  0  0  0  0  0  0  0  0  0  0  0
  141.8640   79.4850  221.4620 C   0  0  0  0  0  0  0  0  0  0  0  0
  141.2590   80.3290  222.3860 C   0  0  0  0  0  0  0  0  0  0  0  0
  141.7340   82.0060  222.4840 Cl  0  0  0  0  0  0  0  0  0  0  0  0
  140.2780   79.8710  223.2400 C   0  0  0  0  0  0  0  0  0  0  0  0
  139.9150   78.5550  223.1530 C   0  0  0  0  0  0  0  0  0  0  0  0
  140.5020   77.6980  222.2450 C   0  0  0  0  0  0  0  0  0  0  0  0
  140.1370   76.4090  222.1690 N   0  0  0  0  0  0  0  0  0  0  0  0
  138.9550   74.3660  222.8270 H   0  0  0  0  0  0  0  0  0  0  0  0
  137.8676   72.2181  222.2372 H   0  0  0  0  0  0  0  0  0  0  0  0
  139.2873   72.0360  221.0188 H   0  0  0  0  0  0  0  0  0  0  0  0
  137.3638   71.1585  224.8703 H   0  0  0  0  0  0  0  0  0  0  0  0
  137.0088   70.0731  223.5269 H   0  0  0  0  0  0  0  0  0  0  0  0
  137.9242   69.3983  226.3608 H   0  0  0  0  0  0  0  0  0  0  0  0
  136.9266   68.4161  225.3270 H   0  0  0  0  0  0  0  0  0  0  0  0
  139.4735   67.6725  225.5719 H   0  0  0  0  0  0  0  0  0  0  0  0
  138.9395   67.7599  223.9249 H   0  0  0  0  0  0  0  0  0  0  0  0
  140.9515   69.3136  224.1929 H   0  0  0  0  0  0  0  0  0  0  0  0
  140.8991   72.0893  224.9614 H   0  0  0  0  0  0  0  0  0  0  0  0
  141.4666   73.2289  227.0860 H   0  0  0  0  0  0  0  0  0  0  0  0
  141.2144   72.0460  229.2783 H   0  0  0  0  0  0  0  0  0  0  0  0
  139.8346   68.6118  227.2150 H   0  0  0  0  0  0  0  0  0  0  0  0
  142.1381   75.2531  219.6912 H   0  0  0  0  0  0  0  0  0  0  0  0
  142.8706   77.6602  219.7831 H   0  0  0  0  0  0  0  0  0  0  0  0
  142.6429   79.8769  220.7914 H   0  0  0  0  0  0  0  0  0  0  0  0
  139.8019   80.5433  223.9689 H   0  0  0  0  0  0  0  0  0  0  0  0
  139.1341   78.1697  223.8251 H   0  0  0  0  0  0  0  0  0  0  0  0
  1  2  2  0
  2  3  1  0
  3  4  1  0
  4  5  1  0
  5  6  2  0
  5  7  1  0
  7  8  1  0
  8  9  1  0
  9 10  1  0
 10 11  1  0
 11 12  1  0
 12 13  2  0
 13 14  1  0
 14 15  2  0
 15 16  1  0
 16 17  2  0
  2 18  1  0
 18 19  2  0
 19 20  1  0
 20 21  2  0
 21 22  1  0
 22 23  2  0
 23 24  1  0
 23 25  1  0
 25 26  2  0
 26 27  1  0
 27 28  2  0
 11  7  1  0
 17 12  1  0
 28 18  1  0
 27 21  1  0
  3 29  1  0
  4 30  1  0
  4 31  1  0
  8 32  1  0
  8 33  1  0
  9 34  1  0
  9 35  1  0
 10 36  1  0
 10 37  1  0
 11 38  1  6
 13 39  1  0
 14 40  1  0
 15 41  1  0
 17 42  1  0
 19 43  1  0
 20 44  1  0
 22 45  1  0
 25 46  1  0
 26 47  1  0
M  END
>  <smiles>  (28) 
O=C(NCC(=O)N1CCCC1c1cccnc1)c1ccc2cc(Cl)ccc2n1

>  <score_type>  (28) 
oracle

>  <origin>  (28) 
autodockgpu

>  <m_score__min__energy>  (28) 
-8.6799999999999997

>  <m_primary>  (28) 
energy

>  <rmsd>  (28) 
8.469252364982234

>  <m_score__min__rmsd>  (28) 
8.469252364982234

>  <meeko>  (28) 
{"free_energy": -8.27, "intermolecular_energy": -9.76, "internal_energy": -1.38, "cluster_size": 10, "cluster_id": 2, "rank_in_cluster": 8}

>  <energy>  (28) 
-7.77

>  <cluster_rmsd>  (28) 
1.55

>  <cluster>  (28) 
1

$$$$

     RDKit          3D

 47 50  0  0  0  0  0  0  0  0999 V2000
  140.4020   72.5870  220.8020 O   0  0  0  0  0  0  0  0  0  0  0  0
  140.0890   72.8860  221.9860 C   0  0  0  0  0  0  0  0  0  0  0  0
  139.7330   74.2690  222.2490 N   0  0  0  0  0  0  0  0  0  0  0  0
  139.7730   75.1490  221.1340 C   0  0  0  0  0  0  0  0  0  0  0  0
  141.0440   75.6670  220.6640 C   0  0  0  0  0  0  0  0  0  0  0  0
  142.0170   74.7920  220.7170 O   0  0  0  0  0  0  0  0  0  0  0  0
  141.3870   76.9360  220.1680 N   0  0  0  0  0  0  0  0  0  0  0  0
  142.5060   77.3830  219.3560 C   0  0  0  0  0  0  0  0  0  0  0  0
  142.1830   78.8590  219.0190 C   0  0  0  0  0  0  0  0  0  0  0  0
  140.6790   78.8830  219.1890 C   0  0  0  0  0  0  0  0  0  0  0  0
  140.5380   78.1210  220.4820 C   0  0  2  0  0  0  0  0  0  0  0  0
  141.1210   78.8280  221.6300 C   0  0  0  0  0  0  0  0  0  0  0  0
  141.3740   80.2040  221.5560 C   0  0  0  0  0  0  0  0  0  0  0  0
  141.9280   80.8850  222.6380 C   0  0  0  0  0  0  0  0  0  0  0  0
  142.2460   80.2270  223.8170 C   0  0  0  0  0  0  0  0  0  0  0  0
  141.9930   78.9070  223.8630 N   0  0  0  0  0  0  0  0  0  0  0  0
  141.4580   78.2340  222.8280 C   0  0  0  0  0  0  0  0  0  0  0  0
  140.0740   71.9180  223.0730 C   0  0  0  0  0  0  0  0  0  0  0  0
  139.5480   70.6730  222.8000 C   0  0  0  0  0  0  0  0  0  0  0  0
  139.5300   69.7450  223.8350 C   0  0  0  0  0  0  0  0  0  0  0  0
  140.0350   70.1060  225.0800 C   0  0  0  0  0  0  0  0  0  0  0  0
  140.0340   69.1980  226.1440 C   0  0  0  0  0  0  0  0  0  0  0  0
  140.5400   69.5700  227.3850 C   0  0  0  0  0  0  0  0  0  0  0  0
  140.5360   68.4320  228.7100 Cl  0  0  0  0  0  0  0  0  0  0  0  0
  141.0540   70.8310  227.6010 C   0  0  0  0  0  0  0  0  0  0  0  0
  141.0510   71.7120  226.5540 C   0  0  0  0  0  0  0  0  0  0  0  0
  140.5540   71.3670  225.3150 C   0  0  0  0  0  0  0  0  0  0  0  0
  140.5580   72.2410  224.2970 N   0  0  0  0  0  0  0  0  0  0  0  0
  139.4780   74.4620  223.2260 H   0  0  0  0  0  0  0  0  0  0  0  0
  139.3170   74.6121  220.2892 H   0  0  0  0  0  0  0  0  0  0  0  0
  139.2545   76.0467  221.5017 H   0  0  0  0  0  0  0  0  0  0  0  0
  143.4476   77.3111  219.9201 H   0  0  0  0  0  0  0  0  0  0  0  0
  142.6359   76.7689  218.4526 H   0  0  0  0  0  0  0  0  0  0  0  0
  142.6779   79.5488  219.7185 H   0  0  0  0  0  0  0  0  0  0  0  0
  142.5279   79.1787  218.0246 H   0  0  0  0  0  0  0  0  0  0  0  0
  140.2966   79.9105  219.2791 H   0  0  0  0  0  0  0  0  0  0  0  0
  140.1148   78.4615  218.3440 H   0  0  0  0  0  0  0  0  0  0  0  0
  139.4921   77.9314  220.7650 H   0  0  0  0  0  0  0  0  0  0  0  0
  141.1326   80.7527  220.6337 H   0  0  0  0  0  0  0  0  0  0  0  0
  142.1169   81.9655  222.5556 H   0  0  0  0  0  0  0  0  0  0  0  0
  142.6844   80.7597  224.6738 H   0  0  0  0  0  0  0  0  0  0  0  0
  141.2803   77.1546  222.9434 H   0  0  0  0  0  0  0  0  0  0  0  0
  139.1578   70.4238  221.8022 H   0  0  0  0  0  0  0  0  0  0  0  0
  139.1212   68.7370  223.6714 H   0  0  0  0  0  0  0  0  0  0  0  0
  139.6311   68.1848  225.9985 H   0  0  0  0  0  0  0  0  0  0  0  0
  141.4540   71.1198  228.5842 H   0  0  0  0  0  0  0  0  0  0  0  0
  141.4563   72.7234  226.7050 H   0  0  0  0  0  0  0  0  0  0  0  0
  1  2  2  0
  2  3  1  0
  3  4  1  0
  4  5  1  0
  5  6  2  0
  5  7  1  0
  7  8  1  0
  8  9  1  0
  9 10  1  0
 10 11  1  0
 11 12  1  0
 12 13  2  0
 13 14  1  0
 14 15  2  0
 15 16  1  0
 16 17  2  0
  2 18  1  0
 18 19  2  0
 19 20  1  0
 20 21  2  0
 21 22  1  0
 22 23  2  0
 23 24  1  0
 23 25  1  0
 25 26  2  0
 26 27  1  0
 27 28  2  0
 11  7  1  0
 17 12  1  0
 28 18  1  0
 27 21  1  0
  3 29  1  0
  4 30  1  0
  4 31  1  0
  8 32  1  0
  8 33  1  0
  9 34  1  0
  9 35  1  0
 10 36  1  0
 10 37  1  0
 11 38  1  1
 13 39  1  0
 14 40  1  0
 15 41  1  0
 17 42  1  0
 19 43  1  0
 20 44  1  0
 22 45  1  0
 25 46  1  0
 26 47  1  0
M  END
>  <smiles>  (29) 
O=C(NCC(=O)N1CCCC1c1cccnc1)c1ccc2cc(Cl)ccc2n1

>  <score_type>  (29) 
oracle

>  <origin>  (29) 
autodockgpu

>  <m_score__min__energy>  (29) 
-8.6799999999999997

>  <m_primary>  (29) 
energy

>  <rmsd>  (29) 
2.3492039168203234

>  <m_score__min__rmsd>  (29) 
2.3492039168203234

>  <meeko>  (29) 
{"free_energy": -8.37, "intermolecular_energy": -9.86, "internal_energy": -1.09, "cluster_size": 29, "cluster_id": 1, "rank_in_cluster": 21}

>  <energy>  (29) 
-7.48

>  <cluster_rmsd>  (29) 
1.57

>  <cluster>  (29) 
1

$$$$

     RDKit          3D

 47 50  0  0  0  0  0  0  0  0999 V2000
  139.3760   72.0970  220.8110 O   0  0  0  0  0  0  0  0  0  0  0  0
  139.5090   72.4510  222.0130 C   0  0  0  0  0  0  0  0  0  0  0  0
  139.4600   73.8750  222.2960 N   0  0  0  0  0  0  0  0  0  0  0  0
  139.2650   74.7290  221.1760 C   0  0  0  0  0  0  0  0  0  0  0  0
  140.2920   75.6800  220.8010 C   0  0  0  0  0  0  0  0  0  0  0  0
  140.2970   76.7630  221.5380 O   0  0  0  0  0  0  0  0  0  0  0  0
  141.2660   75.6230  219.7890 N   0  0  0  0  0  0  0  0  0  0  0  0
  141.1760   75.2670  218.3830 C   0  0  0  0  0  0  0  0  0  0  0  0
  142.5750   75.5880  217.8050 C   0  0  0  0  0  0  0  0  0  0  0  0
  143.0840   76.6080  218.8010 C   0  0  0  0  0  0  0  0  0  0  0  0
  142.6890   75.9450  220.0960 C   0  0  2  0  0  0  0  0  0  0  0  0
  143.4150   74.6920  220.3420 C   0  0  0  0  0  0  0  0  0  0  0  0
  142.7110   73.5000  220.5590 C   0  0  0  0  0  0  0  0  0  0  0  0
  143.3890   72.3060  220.7950 C   0  0  0  0  0  0  0  0  0  0  0  0
  144.7760   72.2580  220.8210 C   0  0  0  0  0  0  0  0  0  0  0  0
  145.4270   73.4150  220.6100 N   0  0  0  0  0  0  0  0  0  0  0  0
  144.7890   74.5770  220.3800 C   0  0  0  0  0  0  0  0  0  0  0  0
  139.7070   71.5070  223.1030 C   0  0  0  0  0  0  0  0  0  0  0  0
  139.3790   70.1890  222.8620 C   0  0  0  0  0  0  0  0  0  0  0  0
  139.5650   69.2830  223.8990 C   0  0  0  0  0  0  0  0  0  0  0  0
  140.0650   69.7360  225.1150 C   0  0  0  0  0  0  0  0  0  0  0  0
  140.2660   68.8530  226.1820 C   0  0  0  0  0  0  0  0  0  0  0  0
  140.7660   69.3160  227.3930 C   0  0  0  0  0  0  0  0  0  0  0  0
  141.0140   68.2090  228.7200 Cl  0  0  0  0  0  0  0  0  0  0  0  0
  141.0760   70.6470  227.5790 C   0  0  0  0  0  0  0  0  0  0  0  0
  140.8770   71.5040  226.5300 C   0  0  0  0  0  0  0  0  0  0  0  0
  140.3820   71.0680  225.3200 C   0  0  0  0  0  0  0  0  0  0  0  0
  140.1920   71.9180  224.3000 N   0  0  0  0  0  0  0  0  0  0  0  0
  139.5660   74.1130  223.2890 H   0  0  0  0  0  0  0  0  0  0  0  0
  139.1025   74.0775  220.3047 H   0  0  0  0  0  0  0  0  0  0  0  0
  138.4294   75.3713  221.4910 H   0  0  0  0  0  0  0  0  0  0  0  0
  140.9449   74.1977  218.2678 H   0  0  0  0  0  0  0  0  0  0  0  0
  140.3761   75.8168  217.8653 H   0  0  0  0  0  0  0  0  0  0  0  0
  143.2155   74.6940  217.7820 H   0  0  0  0  0  0  0  0  0  0  0  0
  142.5602   75.9446  216.7645 H   0  0  0  0  0  0  0  0  0  0  0  0
  144.1737   76.7393  218.7274 H   0  0  0  0  0  0  0  0  0  0  0  0
  142.6834   77.6233  218.6640 H   0  0  0  0  0  0  0  0  0  0  0  0
  142.8847   76.5664  220.9823 H   0  0  0  0  0  0  0  0  0  0  0  0
  141.6111   73.5071  220.5429 H   0  0  0  0  0  0  0  0  0  0  0  0
  142.8141   71.3835  220.9640 H   0  0  0  0  0  0  0  0  0  0  0  0
  145.3167   71.3180  221.0055 H   0  0  0  0  0  0  0  0  0  0  0  0
  145.3936   75.4808  220.2139 H   0  0  0  0  0  0  0  0  0  0  0  0
  138.9853   69.8676  221.8864 H   0  0  0  0  0  0  0  0  0  0  0  0
  139.3196   68.2198  223.7597 H   0  0  0  0  0  0  0  0  0  0  0  0
  140.0268   67.7861  226.0613 H   0  0  0  0  0  0  0  0  0  0  0  0
  141.4707   71.0086  228.5399 H   0  0  0  0  0  0  0  0  0  0  0  0
  141.1188   72.5696  226.6564 H   0  0  0  0  0  0  0  0  0  0  0  0
  1  2  2  0
  2  3  1  0
  3  4  1  0
  4  5  1  0
  5  6  2  0
  5  7  1  0
  7  8  1  0
  8  9  1  0
  9 10  1  0
 10 11  1  0
 11 12  1  0
 12 13  2  0
 13 14  1  0
 14 15  2  0
 15 16  1  0
 16 17  2  0
  2 18  1  0
 18 19  2  0
 19 20  1  0
 20 21  2  0
 21 22  1  0
 22 23  2  0
 23 24  1  0
 23 25  1  0
 25 26  2  0
 26 27  1  0
 27 28  2  0
 11  7  1  0
 17 12  1  0
 28 18  1  0
 27 21  1  0
  3 29  1  0
  4 30  1  0
  4 31  1  0
  8 32  1  0
  8 33  1  0
  9 34  1  0
  9 35  1  0
 10 36  1  0
 10 37  1  0
 11 38  1  1
 13 39  1  0
 14 40  1  0
 15 41  1  0
 17 42  1  0
 19 43  1  0
 20 44  1  0
 22 45  1  0
 25 46  1  0
 26 47  1  0
M  END
>  <smiles>  (30) 
O=C(NCC(=O)N1CCCC1c1cccnc1)c1ccc2cc(Cl)ccc2n1

>  <score_type>  (30) 
oracle

>  <origin>  (30) 
autodockgpu

>  <m_score__min__energy>  (30) 
-8.6799999999999997

>  <m_primary>  (30) 
energy

>  <rmsd>  (30) 
1.7498703773411364

>  <m_score__min__rmsd>  (30) 
1.7498703773411364

>  <meeko>  (30) 
{"free_energy": -7.65, "intermolecular_energy": -9.14, "internal_energy": -1.79, "cluster_size": 9, "cluster_id": 3, "rank_in_cluster": 7}

>  <energy>  (30) 
-8.34

>  <cluster_rmsd>  (30) 
0.0

>  <cluster>  (30) 
2

$$$$

     RDKit          3D

 47 50  0  0  0  0  0  0  0  0999 V2000
  140.0470   72.5280  220.7660 O   0  0  0  0  0  0  0  0  0  0  0  0
  139.8720   72.8440  221.9740 C   0  0  0  0  0  0  0  0  0  0  0  0
  139.5920   74.2390  222.2610 N   0  0  0  0  0  0  0  0  0  0  0  0
  139.5430   75.1110  221.1390 C   0  0  0  0  0  0  0  0  0  0  0  0
  140.1430   76.4290  221.2170 C   0  0  0  0  0  0  0  0  0  0  0  0
  141.4470   76.4190  221.0930 O   0  0  0  0  0  0  0  0  0  0  0  0
  139.5550   77.6920  221.4010 N   0  0  0  0  0  0  0  0  0  0  0  0
  139.0470   78.6660  220.4500 C   0  0  0  0  0  0  0  0  0  0  0  0
  138.3730   79.7540  221.3210 C   0  0  0  0  0  0  0  0  0  0  0  0
  138.0800   78.9820  222.5900 C   0  0  0  0  0  0  0  0  0  0  0  0
  139.3870   78.2510  222.7730 C   0  0  2  0  0  0  0  0  0  0  0  0
  140.5110   79.1530  223.0570 C   0  0  0  0  0  0  0  0  0  0  0  0
  141.8250   78.7470  222.7920 C   0  0  0  0  0  0  0  0  0  0  0  0
  142.8990   79.5930  223.0590 C   0  0  0  0  0  0  0  0  0  0  0  0
  142.7040   80.8590  223.5930 C   0  0  0  0  0  0  0  0  0  0  0  0
  141.4340   81.2250  223.8380 N   0  0  0  0  0  0  0  0  0  0  0  0
  140.3850   80.4200  223.5860 C   0  0  0  0  0  0  0  0  0  0  0  0
  139.9420   71.8830  223.0650 C   0  0  0  0  0  0  0  0  0  0  0  0
  139.5070   70.6010  222.8040 C   0  0  0  0  0  0  0  0  0  0  0  0
  139.5700   69.6790  223.8430 C   0  0  0  0  0  0  0  0  0  0  0  0
  140.0600   70.0830  225.0800 C   0  0  0  0  0  0  0  0  0  0  0  0
  140.1390   69.1830  226.1480 C   0  0  0  0  0  0  0  0  0  0  0  0
  140.6300   69.5980  227.3810 C   0  0  0  0  0  0  0  0  0  0  0  0
  140.7250   68.4700  228.7110 Cl  0  0  0  0  0  0  0  0  0  0  0  0
  141.0500   70.8950  227.5860 C   0  0  0  0  0  0  0  0  0  0  0  0
  140.9700   71.7680  226.5360 C   0  0  0  0  0  0  0  0  0  0  0  0
  140.4870   71.3810  225.3040 C   0  0  0  0  0  0  0  0  0  0  0  0
  140.4130   72.2470  224.2820 N   0  0  0  0  0  0  0  0  0  0  0  0
  139.4510   74.4460  223.2570 H   0  0  0  0  0  0  0  0  0  0  0  0
  140.0365   74.5864  220.3076 H   0  0  0  0  0  0  0  0  0  0  0  0
  138.4697   75.3281  221.0348 H   0  0  0  0  0  0  0  0  0  0  0  0
  139.8692   79.0965  219.8596 H   0  0  0  0  0  0  0  0  0  0  0  0
  138.3467   78.2175  219.7300 H   0  0  0  0  0  0  0  0  0  0  0  0
  139.0543   80.5965  221.5109 H   0  0  0  0  0  0  0  0  0  0  0  0
  137.4866   80.2139  220.8597 H   0  0  0  0  0  0  0  0  0  0  0  0
  137.8685   79.6540  223.4348 H   0  0  0  0  0  0  0  0  0  0  0  0
  137.1940   78.3322  222.5378 H   0  0  0  0  0  0  0  0  0  0  0  0
  139.3756   77.5370  223.6097 H   0  0  0  0  0  0  0  0  0  0  0  0
  142.0110   77.7490  222.3684 H   0  0  0  0  0  0  0  0  0  0  0  0
  143.9217   79.2509  222.8423 H   0  0  0  0  0  0  0  0  0  0  0  0
  143.5485   81.5310  223.8057 H   0  0  0  0  0  0  0  0  0  0  0  0
  139.3752   80.7922  223.8138 H   0  0  0  0  0  0  0  0  0  0  0  0
  139.1248   70.3184  221.8120 H   0  0  0  0  0  0  0  0  0  0  0  0
  139.2362   68.6424  223.6882 H   0  0  0  0  0  0  0  0  0  0  0  0
  139.8111   68.1419  226.0118 H   0  0  0  0  0  0  0  0  0  0  0  0
  141.4374   71.2178  228.5636 H   0  0  0  0  0  0  0  0  0  0  0  0
  141.3002   72.8076  226.6785 H   0  0  0  0  0  0  0  0  0  0  0  0
  1  2  2  0
  2  3  1  0
  3  4  1  0
  4  5  1  0
  5  6  2  0
  5  7  1  0
  7  8  1  0
  8  9  1  0
  9 10  1  0
 10 11  1  0
 11 12  1  0
 12 13  2  0
 13 14  1  0
 14 15  2  0
 15 16  1  0
 16 17  2  0
  2 18  1  0
 18 19  2  0
 19 20  1  0
 20 21  2  0
 21 22  1  0
 22 23  2  0
 23 24  1  0
 23 25  1  0
 25 26  2  0
 26 27  1  0
 27 28  2  0
 11  7  1  0
 17 12  1  0
 28 18  1  0
 27 21  1  0
  3 29  1  0
  4 30  1  0
  4 31  1  0
  8 32  1  0
  8 33  1  0
  9 34  1  0
  9 35  1  0
 10 36  1  0
 10 37  1  0
 11 38  1  1
 13 39  1  0
 14 40  1  0
 15 41  1  0
 17 42  1  0
 19 43  1  0
 20 44  1  0
 22 45  1  0
 25 46  1  0
 26 47  1  0
M  END
>  <smiles>  (31) 
O=C(NCC(=O)N1CCCC1c1cccnc1)c1ccc2cc(Cl)ccc2n1

>  <score_type>  (31) 
oracle

>  <origin>  (31) 
autodockgpu

>  <m_score__min__energy>  (31) 
-8.6799999999999997

>  <m_primary>  (31) 
energy

>  <rmsd>  (31) 
3.0535543238245397

>  <m_score__min__rmsd>  (31) 
3.0535543238245397

>  <meeko>  (31) 
{"free_energy": -8.41, "intermolecular_energy": -9.9, "internal_energy": -1.18, "cluster_size": 29, "cluster_id": 1, "rank_in_cluster": 17}

>  <energy>  (31) 
-8.33

>  <cluster_rmsd>  (31) 
0.06

>  <cluster>  (31) 
2

$$$$

     RDKit          3D

 47 50  0  0  0  0  0  0  0  0999 V2000
  140.6840   72.6620  220.9230 O   0  0  0  0  0  0  0  0  0  0  0  0
  140.0820   72.8500  222.0140 C   0  0  0  0  0  0  0  0  0  0  0  0
  139.3610   74.1010  222.1680 N   0  0  0  0  0  0  0  0  0  0  0  0
  139.4090   74.9920  221.0600 C   0  0  0  0  0  0  0  0  0  0  0  0
  140.0570   76.2820  221.1940 C   0  0  0  0  0  0  0  0  0  0  0  0
  141.3650   76.2180  221.1520 O   0  0  0  0  0  0  0  0  0  0  0  0
  139.5120   77.5660  221.3570 N   0  0  0  0  0  0  0  0  0  0  0  0
  139.0190   78.5340  220.3920 C   0  0  0  0  0  0  0  0  0  0  0  0
  138.3940   79.6620  221.2480 C   0  0  0  0  0  0  0  0  0  0  0  0
  138.0980   78.9280  222.5390 C   0  0  0  0  0  0  0  0  0  0  0  0
  139.3840   78.1620  222.7180 C   0  0  2  0  0  0  0  0  0  0  0  0
  140.5400   79.0340  222.9630 C   0  0  0  0  0  0  0  0  0  0  0  0
  141.8120   78.6630  222.5100 C   0  0  0  0  0  0  0  0  0  0  0  0
  142.9160   79.4810  222.7390 C   0  0  0  0  0  0  0  0  0  0  0  0
  142.7920   80.6840  223.4190 C   0  0  0  0  0  0  0  0  0  0  0  0
  141.5610   81.0170  223.8440 N   0  0  0  0  0  0  0  0  0  0  0  0
  140.4840   80.2390  223.6310 C   0  0  0  0  0  0  0  0  0  0  0  0
  140.0850   71.8820  223.1010 C   0  0  0  0  0  0  0  0  0  0  0  0
  139.5820   70.6270  222.8270 C   0  0  0  0  0  0  0  0  0  0  0  0
  139.5810   69.6980  223.8620 C   0  0  0  0  0  0  0  0  0  0  0  0
  140.0780   70.0690  225.1070 C   0  0  0  0  0  0  0  0  0  0  0  0
  140.0930   69.1610  226.1710 C   0  0  0  0  0  0  0  0  0  0  0  0
  140.5920   69.5410  227.4120 C   0  0  0  0  0  0  0  0  0  0  0  0
  140.6080   68.4030  228.7370 Cl  0  0  0  0  0  0  0  0  0  0  0  0
  141.0820   70.8110  227.6290 C   0  0  0  0  0  0  0  0  0  0  0  0
  141.0630   71.6930  226.5830 C   0  0  0  0  0  0  0  0  0  0  0  0
  140.5730   71.3390  225.3430 C   0  0  0  0  0  0  0  0  0  0  0  0
  140.5610   72.2130  224.3250 N   0  0  0  0  0  0  0  0  0  0  0  0
  138.8810   74.2050  223.0700 H   0  0  0  0  0  0  0  0  0  0  0  0
  139.9254   74.4603  220.2472 H   0  0  0  0  0  0  0  0  0  0  0  0
  138.3528   75.2552  220.9016 H   0  0  0  0  0  0  0  0  0  0  0  0
  139.8444   78.9248  219.7788 H   0  0  0  0  0  0  0  0  0  0  0  0
  138.2931   78.0917  219.6938 H   0  0  0  0  0  0  0  0  0  0  0  0
  139.1044   80.4865  221.4077 H   0  0  0  0  0  0  0  0  0  0  0  0
  137.5150   80.1394  220.7904 H   0  0  0  0  0  0  0  0  0  0  0  0
  137.9208   79.6250  223.3714 H   0  0  0  0  0  0  0  0  0  0  0  0
  137.1918   78.3049  222.5156 H   0  0  0  0  0  0  0  0  0  0  0  0
  139.3643   77.4686  223.5717 H   0  0  0  0  0  0  0  0  0  0  0  0
  141.9409   77.7150  221.9672 H   0  0  0  0  0  0  0  0  0  0  0  0
  143.9050   79.1672  222.3737 H   0  0  0  0  0  0  0  0  0  0  0  0
  143.6600   81.3345  223.6017 H   0  0  0  0  0  0  0  0  0  0  0  0
  139.5094   80.5816  224.0089 H   0  0  0  0  0  0  0  0  0  0  0  0
  139.1968   70.3711  221.8289 H   0  0  0  0  0  0  0  0  0  0  0  0
  139.1919   68.6823  223.6980 H   0  0  0  0  0  0  0  0  0  0  0  0
  139.7080   68.1409  226.0252 H   0  0  0  0  0  0  0  0  0  0  0  0
  141.4761   71.1063  228.6126 H   0  0  0  0  0  0  0  0  0  0  0  0
  141.4489   72.7118  226.7350 H   0  0  0  0  0  0  0  0  0  0  0  0
  1  2  2  0
  2  3  1  0
  3  4  1  0
  4  5  1  0
  5  6  2  0
  5  7  1  0
  7  8  1  0
  8  9  1  0
  9 10  1  0
 10 11  1  0
 11 12  1  0
 12 13  2  0
 13 14  1  0
 14 15  2  0
 15 16  1  0
 16 17  2  0
  2 18  1  0
 18 19  2  0
 19 20  1  0
 20 21  2  0
 21 22  1  0
 22 23  2  0
 23 24  1  0
 23 25  1  0
 25 26  2  0
 26 27  1  0
 27 28  2  0
 11  7  1  0
 17 12  1  0
 28 18  1  0
 27 21  1  0
  3 29  1  0
  4 30  1  0
  4 31  1  0
  8 32  1  0
  8 33  1  0
  9 34  1  0
  9 35  1  0
 10 36  1  0
 10 37  1  0
 11 38  1  1
 13 39  1  0
 14 40  1  0
 15 41  1  0
 17 42  1  0
 19 43  1  0
 20 44  1  0
 22 45  1  0
 25 46  1  0
 26 47  1  0
M  END
>  <smiles>  (32) 
O=C(NCC(=O)N1CCCC1c1cccnc1)c1ccc2cc(Cl)ccc2n1

>  <score_type>  (32) 
oracle

>  <origin>  (32) 
autodockgpu

>  <m_score__min__energy>  (32) 
-8.6799999999999997

>  <m_primary>  (32) 
energy

>  <rmsd>  (32) 
2.9899796796217566

>  <m_score__min__rmsd>  (32) 
2.9899796796217566

>  <meeko>  (32) 
{"free_energy": -8.46, "intermolecular_energy": -9.96, "internal_energy": -1.08, "cluster_size": 29, "cluster_id": 1, "rank_in_cluster": 13}

>  <energy>  (32) 
-8.32

>  <cluster_rmsd>  (32) 
0.08

>  <cluster>  (32) 
2

$$$$

     RDKit          3D

 47 50  0  0  0  0  0  0  0  0999 V2000
  140.3520   72.5200  220.7430 O   0  0  0  0  0  0  0  0  0  0  0  0
  140.0700   72.8390  221.9300 C   0  0  0  0  0  0  0  0  0  0  0  0
  139.7460   74.2310  222.1840 N   0  0  0  0  0  0  0  0  0  0  0  0
  139.7800   75.0970  221.0570 C   0  0  0  0  0  0  0  0  0  0  0  0
  141.0470   75.6130  220.5750 C   0  0  0  0  0  0  0  0  0  0  0  0
  142.0160   74.7330  220.6080 O   0  0  0  0  0  0  0  0  0  0  0  0
  141.3900   76.8840  220.0870 N   0  0  0  0  0  0  0  0  0  0  0  0
  142.5140   77.3370  219.2830 C   0  0  0  0  0  0  0  0  0  0  0  0
  142.1910   78.8130  218.9500 C   0  0  0  0  0  0  0  0  0  0  0  0
  140.6850   78.8340  219.1090 C   0  0  0  0  0  0  0  0  0  0  0  0
  140.5370   78.0660  220.3990 C   0  0  2  0  0  0  0  0  0  0  0  0
  141.1110   78.7710  221.5530 C   0  0  0  0  0  0  0  0  0  0  0  0
  141.3110   78.0960  222.7640 C   0  0  0  0  0  0  0  0  0  0  0  0
  141.8520   78.7560  223.8650 C   0  0  0  0  0  0  0  0  0  0  0  0
  142.2100   80.0950  223.7990 C   0  0  0  0  0  0  0  0  0  0  0  0
  142.0080   80.7200  222.6260 N   0  0  0  0  0  0  0  0  0  0  0  0
  141.4870   80.0980  221.5520 C   0  0  0  0  0  0  0  0  0  0  0  0
  140.0600   71.8840  223.0290 C   0  0  0  0  0  0  0  0  0  0  0  0
  139.5500   70.6300  222.7680 C   0  0  0  0  0  0  0  0  0  0  0  0
  139.5370   69.7140  223.8140 C   0  0  0  0  0  0  0  0  0  0  0  0
  140.0290   70.0960  225.0570 C   0  0  0  0  0  0  0  0  0  0  0  0
  140.0330   69.2020  226.1330 C   0  0  0  0  0  0  0  0  0  0  0  0
  140.5270   69.5940  227.3720 C   0  0  0  0  0  0  0  0  0  0  0  0
  140.5280   68.4730  228.7100 Cl  0  0  0  0  0  0  0  0  0  0  0  0
  141.0250   70.8640  227.5750 C   0  0  0  0  0  0  0  0  0  0  0  0
  141.0190   71.7320  226.5180 C   0  0  0  0  0  0  0  0  0  0  0  0
  140.5330   71.3660  225.2800 C   0  0  0  0  0  0  0  0  0  0  0  0
  140.5330   72.2270  224.2510 N   0  0  0  0  0  0  0  0  0  0  0  0
  139.5160   74.4410  223.1630 H   0  0  0  0  0  0  0  0  0  0  0  0
  139.3225   74.5477  220.2210 H   0  0  0  0  0  0  0  0  0  0  0  0
  139.2609   75.9980  221.4157 H   0  0  0  0  0  0  0  0  0  0  0  0
  143.4523   77.2645  219.8526 H   0  0  0  0  0  0  0  0  0  0  0  0
  142.6502   76.7269  218.3779 H   0  0  0  0  0  0  0  0  0  0  0  0
  142.6795   79.5007  219.6560 H   0  0  0  0  0  0  0  0  0  0  0  0
  142.5426   79.1373  217.9594 H   0  0  0  0  0  0  0  0  0  0  0  0
  140.3001   79.8604  219.2004 H   0  0  0  0  0  0  0  0  0  0  0  0
  140.1272   78.4153  218.2584 H   0  0  0  0  0  0  0  0  0  0  0  0
  139.4897   77.8725  220.6743 H   0  0  0  0  0  0  0  0  0  0  0  0
  141.0380   77.0336  222.8464 H   0  0  0  0  0  0  0  0  0  0  0  0
  141.9983   78.2047  224.8056 H   0  0  0  0  0  0  0  0  0  0  0  0
  142.6387   80.6201  224.6653 H   0  0  0  0  0  0  0  0  0  0  0  0
  141.3544   80.6775  220.6265 H   0  0  0  0  0  0  0  0  0  0  0  0
  139.1683   70.3645  221.7711 H   0  0  0  0  0  0  0  0  0  0  0  0
  139.1421   68.6990  223.6599 H   0  0  0  0  0  0  0  0  0  0  0  0
  139.6428   68.1824  225.9979 H   0  0  0  0  0  0  0  0  0  0  0  0
  141.4151   71.1695  228.5571 H   0  0  0  0  0  0  0  0  0  0  0  0
  141.4124   72.7495  226.6590 H   0  0  0  0  0  0  0  0  0  0  0  0
  1  2  2  0
  2  3  1  0
  3  4  1  0
  4  5  1  0
  5  6  2  0
  5  7  1  0
  7  8  1  0
  8  9  1  0
  9 10  1  0
 10 11  1  0
 11 12  1  0
 12 13  2  0
 13 14  1  0
 14 15  2  0
 15 16  1  0
 16 17  2  0
  2 18  1  0
 18 19  2  0
 19 20  1  0
 20 21  2  0
 21 22  1  0
 22 23  2  0
 23 24  1  0
 23 25  1  0
 25 26  2  0
 26 27  1  0
 27 28  2  0
 11  7  1  0
 17 12  1  0
 28 18  1  0
 27 21  1  0
  3 29  1  0
  4 30  1  0
  4 31  1  0
  8 32  1  0
  8 33  1  0
  9 34  1  0
  9 35  1  0
 10 36  1  0
 10 37  1  0
 11 38  1  1
 13 39  1  0
 14 40  1  0
 15 41  1  0
 17 42  1  0
 19 43  1  0
 20 44  1  0
 22 45  1  0
 25 46  1  0
 26 47  1  0
M  END
>  <smiles>  (33) 
O=C(NCC(=O)N1CCCC1c1cccnc1)c1ccc2cc(Cl)ccc2n1

>  <score_type>  (33) 
oracle

>  <origin>  (33) 
autodockgpu

>  <m_score__min__energy>  (33) 
-8.6799999999999997

>  <m_primary>  (33) 
energy

>  <rmsd>  (33) 
2.3189374614105303

>  <m_score__min__rmsd>  (33) 
2.3189374614105303

>  <meeko>  (33) 
{"free_energy": -8.4, "intermolecular_energy": -9.9, "internal_energy": -1.16, "cluster_size": 29, "cluster_id": 1, "rank_in_cluster": 18}

>  <energy>  (33) 
-8.32

>  <cluster_rmsd>  (33) 
0.22

>  <cluster>  (33) 
2

$$$$

     RDKit          3D

 47 50  0  0  0  0  0  0  0  0999 V2000
  140.6550   72.6290  220.8290 O   0  0  0  0  0  0  0  0  0  0  0  0
  140.2110   72.9120  221.9750 C   0  0  0  0  0  0  0  0  0  0  0  0
  139.7460   74.2700  222.1900 N   0  0  0  0  0  0  0  0  0  0  0  0
  139.8390   75.1480  221.0750 C   0  0  0  0  0  0  0  0  0  0  0  0
  141.1200   75.7160  220.7040 C   0  0  0  0  0  0  0  0  0  0  0  0
  142.1300   74.9090  220.9110 O   0  0  0  0  0  0  0  0  0  0  0  0
  141.4410   76.9740  220.1650 N   0  0  0  0  0  0  0  0  0  0  0  0
  142.5470   77.4100  219.3290 C   0  0  0  0  0  0  0  0  0  0  0  0
  142.2010   78.8700  218.9490 C   0  0  0  0  0  0  0  0  0  0  0  0
  140.6980   78.8790  219.1310 C   0  0  0  0  0  0  0  0  0  0  0  0
  140.5790   78.1560  220.4490 C   0  0  2  0  0  0  0  0  0  0  0  0
  141.1610   78.9080  221.5680 C   0  0  0  0  0  0  0  0  0  0  0  0
  141.4390   78.2650  222.7810 C   0  0  0  0  0  0  0  0  0  0  0  0
  141.9890   78.9700  223.8500 C   0  0  0  0  0  0  0  0  0  0  0  0
  142.2790   80.3230  223.7480 C   0  0  0  0  0  0  0  0  0  0  0  0
  142.0030   80.9160  222.5740 N   0  0  0  0  0  0  0  0  0  0  0  0
  141.4720   80.2510  221.5320 C   0  0  0  0  0  0  0  0  0  0  0  0
  140.1520   71.9490  223.0650 C   0  0  0  0  0  0  0  0  0  0  0  0
  139.5790   70.7240  222.7920 C   0  0  0  0  0  0  0  0  0  0  0  0
  139.5190   69.8000  223.8290 C   0  0  0  0  0  0  0  0  0  0  0  0
  140.0300   70.1450  225.0750 C   0  0  0  0  0  0  0  0  0  0  0  0
  139.9870   69.2410  226.1430 C   0  0  0  0  0  0  0  0  0  0  0  0
  140.5000   69.5960  227.3850 C   0  0  0  0  0  0  0  0  0  0  0  0
  140.4430   68.4640  228.7130 Cl  0  0  0  0  0  0  0  0  0  0  0  0
  141.0620   70.8370  227.6010 C   0  0  0  0  0  0  0  0  0  0  0  0
  141.1000   71.7140  226.5520 C   0  0  0  0  0  0  0  0  0  0  0  0
  140.5970   71.3860  225.3110 C   0  0  0  0  0  0  0  0  0  0  0  0
  140.6400   72.2550  224.2900 N   0  0  0  0  0  0  0  0  0  0  0  0
  139.3870   74.4500  223.1360 H   0  0  0  0  0  0  0  0  0  0  0  0
  139.4739   74.5900  220.2002 H   0  0  0  0  0  0  0  0  0  0  0  0
  139.2570   76.0249  221.3948 H   0  0  0  0  0  0  0  0  0  0  0  0
  143.4944   77.3684  219.8864 H   0  0  0  0  0  0  0  0  0  0  0  0
  142.6774   76.7696  218.4442 H   0  0  0  0  0  0  0  0  0  0  0  0
  142.6920   79.5880  219.6224 H   0  0  0  0  0  0  0  0  0  0  0  0
  142.5334   79.1630  217.9422 H   0  0  0  0  0  0  0  0  0  0  0  0
  140.3020   79.9034  219.1921 H   0  0  0  0  0  0  0  0  0  0  0  0
  140.1325   78.4237  218.3046 H   0  0  0  0  0  0  0  0  0  0  0  0
  139.5386   77.9601  220.7478 H   0  0  0  0  0  0  0  0  0  0  0  0
  141.2209   77.1925  222.8910 H   0  0  0  0  0  0  0  0  0  0  0  0
  142.1973   78.4435  224.7931 H   0  0  0  0  0  0  0  0  0  0  0  0
  142.7142   80.8838  224.5883 H   0  0  0  0  0  0  0  0  0  0  0  0
  141.2758   80.8072  220.6035 H   0  0  0  0  0  0  0  0  0  0  0  0
  139.1849   70.4876  221.7926 H   0  0  0  0  0  0  0  0  0  0  0  0
  139.0726   68.8080  223.6656 H   0  0  0  0  0  0  0  0  0  0  0  0
  139.5448   68.2442  225.9985 H   0  0  0  0  0  0  0  0  0  0  0  0
  141.4669   71.1127  228.5859 H   0  0  0  0  0  0  0  0  0  0  0  0
  141.5444   72.7089  226.7028 H   0  0  0  0  0  0  0  0  0  0  0  0
  1  2  2  0
  2  3  1  0
  3  4  1  0
  4  5  1  0
  5  6  2  0
  5  7  1  0
  7  8  1  0
  8  9  1  0
  9 10  1  0
 10 11  1  0
 11 12  1  0
 12 13  2  0
 13 14  1  0
 14 15  2  0
 15 16  1  0
 16 17  2  0
  2 18  1  0
 18 19  2  0
 19 20  1  0
 20 21  2  0
 21 22  1  0
 22 23  2  0
 23 24  1  0
 23 25  1  0
 25 26  2  0
 26 27  1  0
 27 28  2  0
 11  7  1  0
 17 12  1  0
 28 18  1  0
 27 21  1  0
  3 29  1  0
  4 30  1  0
  4 31  1  0
  8 32  1  0
  8 33  1  0
  9 34  1  0
  9 35  1  0
 10 36  1  0
 10 37  1  0
 11 38  1  1
 13 39  1  0
 14 40  1  0
 15 41  1  0
 17 42  1  0
 19 43  1  0
 20 44  1  0
 22 45  1  0
 25 46  1  0
 26 47  1  0
M  END
>  <smiles>  (34) 
O=C(NCC(=O)N1CCCC1c1cccnc1)c1ccc2cc(Cl)ccc2n1

>  <score_type>  (34) 
oracle

>  <origin>  (34) 
autodockgpu

>  <m_score__min__energy>  (34) 
-8.6799999999999997

>  <m_primary>  (34) 
energy

>  <rmsd>  (34) 
2.373733016070898

>  <m_score__min__rmsd>  (34) 
2.373733016070898

>  <meeko>  (34) 
{"free_energy": -8.49, "intermolecular_energy": -9.99, "internal_energy": -1.11, "cluster_size": 29, "cluster_id": 1, "rank_in_cluster": 9}

>  <energy>  (34) 
-8.31

>  <cluster_rmsd>  (34) 
0.25

>  <cluster>  (34) 
2

$$$$

     RDKit          3D

 47 50  0  0  0  0  0  0  0  0999 V2000
  140.8690   73.2610  220.5850 O   0  0  0  0  0  0  0  0  0  0  0  0
  140.3190   74.1240  221.3210 C   0  0  0  0  0  0  0  0  0  0  0  0
  139.2410   73.6720  222.1830 N   0  0  0  0  0  0  0  0  0  0  0  0
  138.9170   72.2890  222.1070 C   0  0  0  0  0  0  0  0  0  0  0  0
  139.6500   71.3270  222.9060 C   0  0  0  0  0  0  0  0  0  0  0  0
  140.9200   71.2480  222.5960 O   0  0  0  0  0  0  0  0  0  0  0  0
  139.2200   70.4830  223.9430 N   0  0  0  0  0  0  0  0  0  0  0  0
  137.9000   70.2350  224.4990 C   0  0  0  0  0  0  0  0  0  0  0  0
  138.1030   69.0640  225.4900 C   0  0  0  0  0  0  0  0  0  0  0  0
  139.3660   68.4280  224.9490 C   0  0  0  0  0  0  0  0  0  0  0  0
  140.2040   69.6570  224.6990 C   0  0  2  0  0  0  0  0  0  0  0  0
  140.5640   70.3640  225.9350 C   0  0  0  0  0  0  0  0  0  0  0  0
  140.6750   69.6630  227.1420 C   0  0  0  0  0  0  0  0  0  0  0  0
  141.0140   70.3240  228.3210 C   0  0  0  0  0  0  0  0  0  0  0  0
  141.2520   71.6910  228.3380 C   0  0  0  0  0  0  0  0  0  0  0  0
  141.1390   72.3410  227.1660 N   0  0  0  0  0  0  0  0  0  0  0  0
  140.8130   71.7180  226.0190 C   0  0  0  0  0  0  0  0  0  0  0  0
  140.7130   75.5250  221.3360 C   0  0  0  0  0  0  0  0  0  0  0  0
  141.6800   75.9160  220.4330 C   0  0  0  0  0  0  0  0  0  0  0  0
  142.0620   77.2530  220.4430 C   0  0  0  0  0  0  0  0  0  0  0  0
  141.4630   78.1230  221.3480 C   0  0  0  0  0  0  0  0  0  0  0  0
  141.8220   79.4750  221.3870 C   0  0  0  0  0  0  0  0  0  0  0  0
  141.2170   80.3360  222.2950 C   0  0  0  0  0  0  0  0  0  0  0  0
  141.6690   82.0220  222.3390 Cl  0  0  0  0  0  0  0  0  0  0  0  0
  140.2550   79.8890  223.1760 C   0  0  0  0  0  0  0  0  0  0  0  0
  139.9100   78.5660  223.1310 C   0  0  0  0  0  0  0  0  0  0  0  0
  140.4960   77.6920  222.2400 C   0  0  0  0  0  0  0  0  0  0  0  0
  140.1490   76.3970  222.2060 N   0  0  0  0  0  0  0  0  0  0  0  0
  138.8290   74.4080  222.7680 H   0  0  0  0  0  0  0  0  0  0  0  0
  137.8581   72.1951  222.3897 H   0  0  0  0  0  0  0  0  0  0  0  0
  139.1913   72.0218  221.0758 H   0  0  0  0  0  0  0  0  0  0  0  0
  137.5267   71.1267  225.0239 H   0  0  0  0  0  0  0  0  0  0  0  0
  137.1594   69.9974  223.7211 H   0  0  0  0  0  0  0  0  0  0  0  0
  138.2447   69.4276  226.5184 H   0  0  0  0  0  0  0  0  0  0  0  0
  137.2464   68.3769  225.5547 H   0  0  0  0  0  0  0  0  0  0  0  0
  139.8336   67.7604  225.6877 H   0  0  0  0  0  0  0  0  0  0  0  0
  139.2164   67.7869  224.0678 H   0  0  0  0  0  0  0  0  0  0  0  0
  141.1624   69.4391  224.2051 H   0  0  0  0  0  0  0  0  0  0  0  0
  140.4926   68.5784  227.1597 H   0  0  0  0  0  0  0  0  0  0  0  0
  141.0945   69.7509  229.2565 H   0  0  0  0  0  0  0  0  0  0  0  0
  141.5202   72.2178  229.2657 H   0  0  0  0  0  0  0  0  0  0  0  0
  140.7414   72.3195  225.1008 H   0  0  0  0  0  0  0  0  0  0  0  0
  142.1313   75.1980  219.7324 H   0  0  0  0  0  0  0  0  0  0  0  0
  142.8286   77.6182  219.7437 H   0  0  0  0  0  0  0  0  0  0  0  0
  142.5869   79.8583  220.6955 H   0  0  0  0  0  0  0  0  0  0  0  0
  139.7798   80.5749  223.8927 H   0  0  0  0  0  0  0  0  0  0  0  0
  139.1440   78.1891  223.8247 H   0  0  0  0  0  0  0  0  0  0  0  0
  1  2  2  0
  2  3  1  0
  3  4  1  0
  4  5  1  0
  5  6  2  0
  5  7  1  0
  7  8  1  0
  8  9  1  0
  9 10  1  0
 10 11  1  0
 11 12  1  0
 12 13  2  0
 13 14  1  0
 14 15  2  0
 15 16  1  0
 16 17  2  0
  2 18  1  0
 18 19  2  0
 19 20  1  0
 20 21  2  0
 21 22  1  0
 22 23  2  0
 23 24  1  0
 23 25  1  0
 25 26  2  0
 26 27  1  0
 27 28  2  0
 11  7  1  0
 17 12  1  0
 28 18  1  0
 27 21  1  0
  3 29  1  0
  4 30  1  0
  4 31  1  0
  8 32  1  0
  8 33  1  0
  9 34  1  0
  9 35  1  0
 10 36  1  0
 10 37  1  0
 11 38  1  6
 13 39  1  0
 14 40  1  0
 15 41  1  0
 17 42  1  0
 19 43  1  0
 20 44  1  0
 22 45  1  0
 25 46  1  0
 26 47  1  0
M  END
>  <smiles>  (35) 
O=C(NCC(=O)N1CCCC1c1cccnc1)c1ccc2cc(Cl)ccc2n1

>  <score_type>  (35) 
oracle

>  <origin>  (35) 
autodockgpu

>  <m_score__min__energy>  (35) 
-8.6799999999999997

>  <m_primary>  (35) 
energy

>  <rmsd>  (35) 
8.474696328627518

>  <m_score__min__rmsd>  (35) 
8.474696328627518

>  <meeko>  (35) 
{"free_energy": -8.28, "intermolecular_energy": -9.77, "internal_energy": -1.39, "cluster_size": 10, "cluster_id": 2, "rank_in_cluster": 7}

>  <energy>  (35) 
-8.29

>  <cluster_rmsd>  (35) 
0.51

>  <cluster>  (35) 
2

$$$$

     RDKit          3D

 47 50  0  0  0  0  0  0  0  0999 V2000
  139.2680   73.5170  221.4270 O   0  0  0  0  0  0  0  0  0  0  0  0
  140.2670   72.8890  221.8680 C   0  0  0  0  0  0  0  0  0  0  0  0
  141.5450   73.1390  221.2260 N   0  0  0  0  0  0  0  0  0  0  0  0
  141.5360   74.0760  220.1560 C   0  0  0  0  0  0  0  0  0  0  0  0
  141.5200   75.4980  220.4370 C   0  0  0  0  0  0  0  0  0  0  0  0
  142.6370   76.1060  220.1230 O   0  0  0  0  0  0  0  0  0  0  0  0
  140.5120   76.3120  220.9830 N   0  0  0  0  0  0  0  0  0  0  0  0
  139.3490   76.9400  220.3790 C   0  0  0  0  0  0  0  0  0  0  0  0
  138.5640   77.5410  221.5700 C   0  0  0  0  0  0  0  0  0  0  0  0
  139.0650   76.6910  222.7190 C   0  0  0  0  0  0  0  0  0  0  0  0
  140.5450   76.6830  222.4260 C   0  0  2  0  0  0  0  0  0  0  0  0
  141.1610   78.0100  222.5590 C   0  0  0  0  0  0  0  0  0  0  0  0
  141.6100   78.6960  221.4230 C   0  0  0  0  0  0  0  0  0  0  0  0
  142.1980   79.9540  221.5380 C   0  0  0  0  0  0  0  0  0  0  0  0
  142.3570   80.5650  222.7730 C   0  0  0  0  0  0  0  0  0  0  0  0
  141.9190   79.8860  223.8470 N   0  0  0  0  0  0  0  0  0  0  0  0
  141.3480   78.6710  223.7550 C   0  0  0  0  0  0  0  0  0  0  0  0
  140.1890   71.9440  222.9720 C   0  0  0  0  0  0  0  0  0  0  0  0
  139.6080   70.7200  222.7120 C   0  0  0  0  0  0  0  0  0  0  0  0
  139.5290   69.8120  223.7620 C   0  0  0  0  0  0  0  0  0  0  0  0
  140.0300   70.1720  225.0080 C   0  0  0  0  0  0  0  0  0  0  0  0
  139.9690   69.2840  226.0890 C   0  0  0  0  0  0  0  0  0  0  0  0
  140.4720   69.6540  227.3310 C   0  0  0  0  0  0  0  0  0  0  0  0
  140.3920   68.5420  228.6750 Cl  0  0  0  0  0  0  0  0  0  0  0  0
  141.0420   70.8930  227.5340 C   0  0  0  0  0  0  0  0  0  0  0  0
  141.0990   71.7540  226.4720 C   0  0  0  0  0  0  0  0  0  0  0  0
  140.6060   71.4110  225.2310 C   0  0  0  0  0  0  0  0  0  0  0  0
  140.6670   72.2640  224.1980 N   0  0  0  0  0  0  0  0  0  0  0  0
  142.3310   72.6110  221.6250 H   0  0  0  0  0  0  0  0  0  0  0  0
  142.4371   73.8812  219.5559 H   0  0  0  0  0  0  0  0  0  0  0  0
  140.5613   73.9024  219.6766 H   0  0  0  0  0  0  0  0  0  0  0  0
  139.6552   77.7303  219.6779 H   0  0  0  0  0  0  0  0  0  0  0  0
  138.7445   76.2265  219.7997 H   0  0  0  0  0  0  0  0  0  0  0  0
  138.8094   78.6029  221.7185 H   0  0  0  0  0  0  0  0  0  0  0  0
  137.4716   77.5246  221.4421 H   0  0  0  0  0  0  0  0  0  0  0  0
  138.8458   77.1535  223.6927 H   0  0  0  0  0  0  0  0  0  0  0  0
  138.6048   75.6943  222.7881 H   0  0  0  0  0  0  0  0  0  0  0  0
  141.1209   76.0322  223.1003 H   0  0  0  0  0  0  0  0  0  0  0  0
  141.4972   78.2367  220.4299 H   0  0  0  0  0  0  0  0  0  0  0  0
  142.5429   80.4728  220.6314 H   0  0  0  0  0  0  0  0  0  0  0  0
  142.8197   81.5583  222.8689 H   0  0  0  0  0  0  0  0  0  0  0  0
  141.0134   78.1800  224.6807 H   0  0  0  0  0  0  0  0  0  0  0  0
  139.2220   70.4719  221.7123 H   0  0  0  0  0  0  0  0  0  0  0  0
  139.0759   68.8214  223.6088 H   0  0  0  0  0  0  0  0  0  0  0  0
  139.5207   68.2885  225.9547 H   0  0  0  0  0  0  0  0  0  0  0  0
  141.4386   71.1803  228.5190 H   0  0  0  0  0  0  0  0  0  0  0  0
  141.5506   72.7472  226.6123 H   0  0  0  0  0  0  0  0  0  0  0  0
  1  2  2  0
  2  3  1  0
  3  4  1  0
  4  5  1  0
  5  6  2  0
  5  7  1  0
  7  8  1  0
  8  9  1  0
  9 10  1  0
 10 11  1  0
 11 12  1  0
 12 13  2  0
 13 14  1  0
 14 15  2  0
 15 16  1  0
 16 17  2  0
  2 18  1  0
 18 19  2  0
 19 20  1  0
 20 21  2  0
 21 22  1  0
 22 23  2  0
 23 24  1  0
 23 25  1  0
 25 26  2  0
 26 27  1  0
 27 28  2  0
 11  7  1  0
 17 12  1  0
 28 18  1  0
 27 21  1  0
  3 29  1  0
  4 30  1  0
  4 31  1  0
  8 32  1  0
  8 33  1  0
  9 34  1  0
  9 35  1  0
 10 36  1  0
 10 37  1  0
 11 38  1  1
 13 39  1  0
 14 40  1  0
 15 41  1  0
 17 42  1  0
 19 43  1  0
 20 44  1  0
 22 45  1  0
 25 46  1  0
 26 47  1  0
M  END
>  <smiles>  (36) 
O=C(NCC(=O)N1CCCC1c1cccnc1)c1ccc2cc(Cl)ccc2n1

>  <score_type>  (36) 
oracle

>  <origin>  (36) 
autodockgpu

>  <m_score__min__energy>  (36) 
-8.6799999999999997

>  <m_primary>  (36) 
energy

>  <rmsd>  (36) 
2.9101918891248526

>  <m_score__min__rmsd>  (36) 
2.9101918891248526

>  <meeko>  (36) 
{"free_energy": -7.77, "intermolecular_energy": -9.26, "internal_energy": -1.37, "cluster_size": 29, "cluster_id": 1, "rank_in_cluster": 28}

>  <energy>  (36) 
-8.28

>  <cluster_rmsd>  (36) 
0.54

>  <cluster>  (36) 
2

$$$$

     RDKit          3D

 47 50  0  0  0  0  0  0  0  0999 V2000
  140.1540   72.2410  220.6720 O   0  0  0  0  0  0  0  0  0  0  0  0
  139.8280   72.5640  221.8460 C   0  0  0  0  0  0  0  0  0  0  0  0
  139.3620   73.9230  222.0560 N   0  0  0  0  0  0  0  0  0  0  0  0
  139.3210   74.7560  220.9040 C   0  0  0  0  0  0  0  0  0  0  0  0
  140.3820   75.7140  220.6630 C   0  0  0  0  0  0  0  0  0  0  0  0
  140.3700   76.7280  221.4920 O   0  0  0  0  0  0  0  0  0  0  0  0
  141.4040   75.7240  219.6980 N   0  0  0  0  0  0  0  0  0  0  0  0
  141.3830   75.4570  218.2700 C   0  0  0  0  0  0  0  0  0  0  0  0
  142.8060   75.8180  217.7800 C   0  0  0  0  0  0  0  0  0  0  0  0
  143.2610   76.7750  218.8620 C   0  0  0  0  0  0  0  0  0  0  0  0
  142.8080   76.0300  220.0930 C   0  0  2  0  0  0  0  0  0  0  0  0
  143.5290   74.7660  220.2930 C   0  0  0  0  0  0  0  0  0  0  0  0
  142.8270   73.5550  220.3490 C   0  0  0  0  0  0  0  0  0  0  0  0
  143.5010   72.3510  220.5410 C   0  0  0  0  0  0  0  0  0  0  0  0
  144.8810   72.3110  220.6820 C   0  0  0  0  0  0  0  0  0  0  0  0
  145.5310   73.4870  220.6250 N   0  0  0  0  0  0  0  0  0  0  0  0
  144.8960   74.6590  220.4400 C   0  0  0  0  0  0  0  0  0  0  0  0
  139.9020   71.6450  222.9730 C   0  0  0  0  0  0  0  0  0  0  0  0
  139.4410   70.3610  222.7690 C   0  0  0  0  0  0  0  0  0  0  0  0
  139.5080   69.4790  223.8420 C   0  0  0  0  0  0  0  0  0  0  0  0
  140.0270   69.9230  225.0530 C   0  0  0  0  0  0  0  0  0  0  0  0
  140.1110   69.0640  226.1550 C   0  0  0  0  0  0  0  0  0  0  0  0
  140.6310   69.5170  227.3620 C   0  0  0  0  0  0  0  0  0  0  0  0
  140.7320   68.4400  228.7320 Cl  0  0  0  0  0  0  0  0  0  0  0  0
  141.0760   70.8140  227.5090 C   0  0  0  0  0  0  0  0  0  0  0  0
  140.9910   71.6470  226.4260 C   0  0  0  0  0  0  0  0  0  0  0  0
  140.4790   71.2210  225.2190 C   0  0  0  0  0  0  0  0  0  0  0  0
  140.4010   72.0480  224.1660 N   0  0  0  0  0  0  0  0  0  0  0  0
  139.1020   74.1360  223.0270 H   0  0  0  0  0  0  0  0  0  0  0  0
  139.2919   74.0882  220.0304 H   0  0  0  0  0  0  0  0  0  0  0  0
  138.4422   75.3926  221.0841 H   0  0  0  0  0  0  0  0  0  0  0  0
  141.1641   74.3964  218.0772 H   0  0  0  0  0  0  0  0  0  0  0  0
  140.6053   76.0360  217.7505 H   0  0  0  0  0  0  0  0  0  0  0  0
  143.4523   74.9292  217.7313 H   0  0  0  0  0  0  0  0  0  0  0  0
  142.8384   76.2393  216.7644 H   0  0  0  0  0  0  0  0  0  0  0  0
  144.3521   76.9137  218.8494 H   0  0  0  0  0  0  0  0  0  0  0  0
  142.8615   77.7958  218.7700 H   0  0  0  0  0  0  0  0  0  0  0  0
  142.9569   76.5944  221.0254 H   0  0  0  0  0  0  0  0  0  0  0  0
  141.7324   73.5548  220.2403 H   0  0  0  0  0  0  0  0  0  0  0  0
  142.9278   71.4131  220.5817 H   0  0  0  0  0  0  0  0  0  0  0  0
  145.4176   71.3627  220.8332 H   0  0  0  0  0  0  0  0  0  0  0  0
  145.4982   75.5788  220.4042 H   0  0  0  0  0  0  0  0  0  0  0  0
  139.0362   70.0470  221.7956 H   0  0  0  0  0  0  0  0  0  0  0  0
  139.1548   68.4429  223.7340 H   0  0  0  0  0  0  0  0  0  0  0  0
  139.7634   68.0242  226.0654 H   0  0  0  0  0  0  0  0  0  0  0  0
  141.4863   71.1680  228.4663 H   0  0  0  0  0  0  0  0  0  0  0  0
  141.3411   72.6854  226.5215 H   0  0  0  0  0  0  0  0  0  0  0  0
  1  2  2  0
  2  3  1  0
  3  4  1  0
  4  5  1  0
  5  6  2  0
  5  7  1  0
  7  8  1  0
  8  9  1  0
  9 10  1  0
 10 11  1  0
 11 12  1  0
 12 13  2  0
 13 14  1  0
 14 15  2  0
 15 16  1  0
 16 17  2  0
  2 18  1  0
 18 19  2  0
 19 20  1  0
 20 21  2  0
 21 22  1  0
 22 23  2  0
 23 24  1  0
 23 25  1  0
 25 26  2  0
 26 27  1  0
 27 28  2  0
 11  7  1  0
 17 12  1  0
 28 18  1  0
 27 21  1  0
  3 29  1  0
  4 30  1  0
  4 31  1  0
  8 32  1  0
  8 33  1  0
  9 34  1  0
  9 35  1  0
 10 36  1  0
 10 37  1  0
 11 38  1  1
 13 39  1  0
 14 40  1  0
 15 41  1  0
 17 42  1  0
 19 43  1  0
 20 44  1  0
 22 45  1  0
 25 46  1  0
 26 47  1  0
M  END
>  <smiles>  (37) 
O=C(NCC(=O)N1CCCC1c1cccnc1)c1ccc2cc(Cl)ccc2n1

>  <score_type>  (37) 
oracle

>  <origin>  (37) 
autodockgpu

>  <m_score__min__energy>  (37) 
-8.6799999999999997

>  <m_primary>  (37) 
energy

>  <rmsd>  (37) 
1.8696490114055395

>  <m_score__min__rmsd>  (37) 
1.8696490114055395

>  <meeko>  (37) 
{"free_energy": -7.82, "intermolecular_energy": -9.31, "internal_energy": -1.67, "cluster_size": 9, "cluster_id": 3, "rank_in_cluster": 4}

>  <energy>  (37) 
-8.27

>  <cluster_rmsd>  (37) 
0.26

>  <cluster>  (37) 
2

$$$$

     RDKit          3D

 47 50  0  0  0  0  0  0  0  0999 V2000
  139.8860   72.6550  220.7090 O   0  0  0  0  0  0  0  0  0  0  0  0
  139.7400   72.9070  221.9360 C   0  0  0  0  0  0  0  0  0  0  0  0
  139.4400   74.2800  222.3010 N   0  0  0  0  0  0  0  0  0  0  0  0
  139.3390   75.2050  221.2260 C   0  0  0  0  0  0  0  0  0  0  0  0
  140.4900   76.0000  220.8420 C   0  0  0  0  0  0  0  0  0  0  0  0
  140.6790   77.0480  221.6040 O   0  0  0  0  0  0  0  0  0  0  0  0
  141.4170   75.8240  219.8010 N   0  0  0  0  0  0  0  0  0  0  0  0
  141.2450   75.4190  218.4160 C   0  0  0  0  0  0  0  0  0  0  0  0
  142.6410   75.6030  217.7750 C   0  0  0  0  0  0  0  0  0  0  0  0
  143.2680   76.6190  218.7080 C   0  0  0  0  0  0  0  0  0  0  0  0
  142.8710   76.0420  220.0440 C   0  0  2  0  0  0  0  0  0  0  0  0
  143.5040   74.7460  220.3180 C   0  0  0  0  0  0  0  0  0  0  0  0
  144.8950   74.6550  220.4590 C   0  0  0  0  0  0  0  0  0  0  0  0
  145.5060   73.4300  220.7160 C   0  0  0  0  0  0  0  0  0  0  0  0
  144.7620   72.2660  220.8420 C   0  0  0  0  0  0  0  0  0  0  0  0
  143.4300   72.3790  220.7030 N   0  0  0  0  0  0  0  0  0  0  0  0
  142.8230   73.5540  220.4540 C   0  0  0  0  0  0  0  0  0  0  0  0
  139.8620   71.8950  222.9750 C   0  0  0  0  0  0  0  0  0  0  0  0
  139.4710   70.6120  222.6530 C   0  0  0  0  0  0  0  0  0  0  0  0
  139.5840   69.6410  223.6420 C   0  0  0  0  0  0  0  0  0  0  0  0
  140.0760   70.0000  224.8920 C   0  0  0  0  0  0  0  0  0  0  0  0
  140.2040   69.0500  225.9120 C   0  0  0  0  0  0  0  0  0  0  0  0
  140.6980   69.4200  227.1580 C   0  0  0  0  0  0  0  0  0  0  0  0
  140.8550   68.2300  228.4260 Cl  0  0  0  0  0  0  0  0  0  0  0  0
  141.0730   70.7190  227.4240 C   0  0  0  0  0  0  0  0  0  0  0  0
  140.9450   71.6420  226.4210 C   0  0  0  0  0  0  0  0  0  0  0  0
  140.4580   71.3000  225.1780 C   0  0  0  0  0  0  0  0  0  0  0  0
  140.3370   72.2140  224.2030 N   0  0  0  0  0  0  0  0  0  0  0  0
  139.3230   74.4340  223.3090 H   0  0  0  0  0  0  0  0  0  0  0  0
  139.0410   74.6283  220.3380 H   0  0  0  0  0  0  0  0  0  0  0  0
  138.6287   75.9551  221.6041 H   0  0  0  0  0  0  0  0  0  0  0  0
  140.9265   74.3678  218.3562 H   0  0  0  0  0  0  0  0  0  0  0  0
  140.4713   76.0095  217.9034 H   0  0  0  0  0  0  0  0  0  0  0  0
  143.2076   74.6602  217.7678 H   0  0  0  0  0  0  0  0  0  0  0  0
  142.6136   75.9175  216.7213 H   0  0  0  0  0  0  0  0  0  0  0  0
  144.3610   76.6586  218.5907 H   0  0  0  0  0  0  0  0  0  0  0  0
  142.9448   77.6571  218.5413 H   0  0  0  0  0  0  0  0  0  0  0  0
  143.1489   76.6806  220.8955 H   0  0  0  0  0  0  0  0  0  0  0  0
  145.5115   75.5612  220.3657 H   0  0  0  0  0  0  0  0  0  0  0  0
  146.6000   73.3847  220.8211 H   0  0  0  0  0  0  0  0  0  0  0  0
  145.2396   71.2963  221.0460 H   0  0  0  0  0  0  0  0  0  0  0  0
  141.7276   73.5645  220.3538 H   0  0  0  0  0  0  0  0  0  0  0  0
  139.0848   70.3665  221.6527 H   0  0  0  0  0  0  0  0  0  0  0  0
  139.2878   68.6015  223.4379 H   0  0  0  0  0  0  0  0  0  0  0  0
  139.9124   68.0056  225.7270 H   0  0  0  0  0  0  0  0  0  0  0  0
  141.4632   71.0055  228.4118 H   0  0  0  0  0  0  0  0  0  0  0  0
  141.2388   72.6846  226.6124 H   0  0  0  0  0  0  0  0  0  0  0  0
  1  2  2  0
  2  3  1  0
  3  4  1  0
  4  5  1  0
  5  6  2  0
  5  7  1  0
  7  8  1  0
  8  9  1  0
  9 10  1  0
 10 11  1  0
 11 12  1  0
 12 13  2  0
 13 14  1  0
 14 15  2  0
 15 16  1  0
 16 17  2  0
  2 18  1  0
 18 19  2  0
 19 20  1  0
 20 21  2  0
 21 22  1  0
 22 23  2  0
 23 24  1  0
 23 25  1  0
 25 26  2  0
 26 27  1  0
 27 28  2  0
 11  7  1  0
 17 12  1  0
 28 18  1  0
 27 21  1  0
  3 29  1  0
  4 30  1  0
  4 31  1  0
  8 32  1  0
  8 33  1  0
  9 34  1  0
  9 35  1  0
 10 36  1  0
 10 37  1  0
 11 38  1  1
 13 39  1  0
 14 40  1  0
 15 41  1  0
 17 42  1  0
 19 43  1  0
 20 44  1  0
 22 45  1  0
 25 46  1  0
 26 47  1  0
M  END
>  <smiles>  (38) 
O=C(NCC(=O)N1CCCC1c1cccnc1)c1ccc2cc(Cl)ccc2n1

>  <score_type>  (38) 
oracle

>  <origin>  (38) 
autodockgpu

>  <m_score__min__energy>  (38) 
-8.6799999999999997

>  <m_primary>  (38) 
energy

>  <rmsd>  (38) 
1.9620221291931321

>  <m_score__min__rmsd>  (38) 
1.9620221291931321

>  <meeko>  (38) 
{"free_energy": -7.75, "intermolecular_energy": -9.24, "internal_energy": -1.74, "cluster_size": 9, "cluster_id": 3, "rank_in_cluster": 6}

>  <energy>  (38) 
-8.08

>  <cluster_rmsd>  (38) 
0.97

>  <cluster>  (38) 
2

$$$$

     RDKit          3D

 47 50  0  0  0  0  0  0  0  0999 V2000
  139.7750   72.3030  220.8100 O   0  0  0  0  0  0  0  0  0  0  0  0
  139.7400   72.6250  222.0280 C   0  0  0  0  0  0  0  0  0  0  0  0
  139.5750   74.0340  222.3380 N   0  0  0  0  0  0  0  0  0  0  0  0
  139.4690   74.9120  221.2240 C   0  0  0  0  0  0  0  0  0  0  0  0
  140.0970   76.2180  221.2670 C   0  0  0  0  0  0  0  0  0  0  0  0
  141.4010   76.1760  221.1600 O   0  0  0  0  0  0  0  0  0  0  0  0
  139.5350   77.4990  221.4020 N   0  0  0  0  0  0  0  0  0  0  0  0
  139.0370   78.4410  220.4140 C   0  0  0  0  0  0  0  0  0  0  0  0
  138.3910   79.5770  221.2440 C   0  0  0  0  0  0  0  0  0  0  0  0
  138.0940   78.8650  222.5470 C   0  0  0  0  0  0  0  0  0  0  0  0
  139.3890   78.1180  222.7500 C   0  0  2  0  0  0  0  0  0  0  0  0
  140.5320   79.0090  222.9870 C   0  0  0  0  0  0  0  0  0  0  0  0
  141.8090   78.6540  222.5340 C   0  0  0  0  0  0  0  0  0  0  0  0
  142.9000   79.4910  222.7550 C   0  0  0  0  0  0  0  0  0  0  0  0
  142.7600   80.6970  223.4270 C   0  0  0  0  0  0  0  0  0  0  0  0
  141.5240   81.0150  223.8510 N   0  0  0  0  0  0  0  0  0  0  0  0
  140.4590   80.2190  223.6460 C   0  0  0  0  0  0  0  0  0  0  0  0
  139.8570   71.6590  223.1110 C   0  0  0  0  0  0  0  0  0  0  0  0
  139.4510   70.3670  222.8470 C   0  0  0  0  0  0  0  0  0  0  0  0
  139.5590   69.4390  223.8770 C   0  0  0  0  0  0  0  0  0  0  0  0
  140.0630   69.8470  225.1070 C   0  0  0  0  0  0  0  0  0  0  0  0
  140.1880   68.9420  226.1670 C   0  0  0  0  0  0  0  0  0  0  0  0
  140.6930   69.3600  227.3930 C   0  0  0  0  0  0  0  0  0  0  0  0
  140.8450   68.2250  228.7110 Cl  0  0  0  0  0  0  0  0  0  0  0  0
  141.0830   70.6660  227.6000 C   0  0  0  0  0  0  0  0  0  0  0  0
  140.9590   71.5450  226.5580 C   0  0  0  0  0  0  0  0  0  0  0  0
  140.4600   71.1540  225.3330 C   0  0  0  0  0  0  0  0  0  0  0  0
  140.3430   72.0250  224.3200 N   0  0  0  0  0  0  0  0  0  0  0  0
  139.5450   74.2460  223.3430 H   0  0  0  0  0  0  0  0  0  0  0  0
  139.8973   74.3822  220.3604 H   0  0  0  0  0  0  0  0  0  0  0  0
  138.3954   75.1491  221.1907 H   0  0  0  0  0  0  0  0  0  0  0  0
  139.8618   78.8306  219.7993 H   0  0  0  0  0  0  0  0  0  0  0  0
  138.3227   77.9759  219.7188 H   0  0  0  0  0  0  0  0  0  0  0  0
  139.0897   80.4135  221.3930 H   0  0  0  0  0  0  0  0  0  0  0  0
  137.5094   80.0337  220.7706 H   0  0  0  0  0  0  0  0  0  0  0  0
  137.9022   79.5759  223.3642 H   0  0  0  0  0  0  0  0  0  0  0  0
  137.1955   78.2307  222.5296 H   0  0  0  0  0  0  0  0  0  0  0  0
  139.3713   77.4403  223.6162 H   0  0  0  0  0  0  0  0  0  0  0  0
  141.9517   77.7041  221.9980 H   0  0  0  0  0  0  0  0  0  0  0  0
  143.8928   79.1900  222.3894 H   0  0  0  0  0  0  0  0  0  0  0  0
  143.6188   81.3610  223.6044 H   0  0  0  0  0  0  0  0  0  0  0  0
  139.4800   80.5497  224.0230 H   0  0  0  0  0  0  0  0  0  0  0  0
  139.0572   70.0821  221.8602 H   0  0  0  0  0  0  0  0  0  0  0  0
  139.2496   68.3951  223.7206 H   0  0  0  0  0  0  0  0  0  0  0  0
  139.8849   67.8936  226.0294 H   0  0  0  0  0  0  0  0  0  0  0  0
  141.4814   70.9916  228.5723 H   0  0  0  0  0  0  0  0  0  0  0  0
  141.2656   72.5916  226.7015 H   0  0  0  0  0  0  0  0  0  0  0  0
  1  2  2  0
  2  3  1  0
  3  4  1  0
  4  5  1  0
  5  6  2  0
  5  7  1  0
  7  8  1  0
  8  9  1  0
  9 10  1  0
 10 11  1  0
 11 12  1  0
 12 13  2  0
 13 14  1  0
 14 15  2  0
 15 16  1  0
 16 17  2  0
  2 18  1  0
 18 19  2  0
 19 20  1  0
 20 21  2  0
 21 22  1  0
 22 23  2  0
 23 24  1  0
 23 25  1  0
 25 26  2  0
 26 27  1  0
 27 28  2  0
 11  7  1  0
 17 12  1  0
 28 18  1  0
 27 21  1  0
  3 29  1  0
  4 30  1  0
  4 31  1  0
  8 32  1  0
  8 33  1  0
  9 34  1  0
  9 35  1  0
 10 36  1  0
 10 37  1  0
 11 38  1  1
 13 39  1  0
 14 40  1  0
 15 41  1  0
 17 42  1  0
 19 43  1  0
 20 44  1  0
 22 45  1  0
 25 46  1  0
 26 47  1  0
M  END
>  <smiles>  (39) 
O=C(NCC(=O)N1CCCC1c1cccnc1)c1ccc2cc(Cl)ccc2n1

>  <score_type>  (39) 
oracle

>  <origin>  (39) 
autodockgpu

>  <m_score__min__energy>  (39) 
-8.6799999999999997

>  <m_primary>  (39) 
energy

>  <rmsd>  (39) 
2.9243139909800764

>  <m_score__min__rmsd>  (39) 
2.9243139909800764

>  <meeko>  (39) 
{"free_energy": -8.34, "intermolecular_energy": -9.83, "internal_energy": -1.24, "cluster_size": 29, "cluster_id": 1, "rank_in_cluster": 22}

>  <energy>  (39) 
-8.04

>  <cluster_rmsd>  (39) 
0.78

>  <cluster>  (39) 
2

$$$$

     RDKit          3D

 47 50  0  0  0  0  0  0  0  0999 V2000
  140.6550   73.3020  220.5000 O   0  0  0  0  0  0  0  0  0  0  0  0
  140.1720   74.1500  221.2970 C   0  0  0  0  0  0  0  0  0  0  0  0
  139.1440   73.6900  222.2140 N   0  0  0  0  0  0  0  0  0  0  0  0
  138.7860   72.3180  222.1150 C   0  0  0  0  0  0  0  0  0  0  0  0
  139.5060   71.3230  222.8860 C   0  0  0  0  0  0  0  0  0  0  0  0
  140.7810   71.2570  222.5950 O   0  0  0  0  0  0  0  0  0  0  0  0
  139.0580   70.4350  223.8790 N   0  0  0  0  0  0  0  0  0  0  0  0
  137.7280   70.1540  224.3910 C   0  0  0  0  0  0  0  0  0  0  0  0
  137.9180   68.9470  225.3410 C   0  0  0  0  0  0  0  0  0  0  0  0
  139.2010   68.3440  224.8070 C   0  0  0  0  0  0  0  0  0  0  0  0
  140.0320   69.5900  224.6270 C   0  0  2  0  0  0  0  0  0  0  0  0
  140.3540   70.2520  225.8980 C   0  0  0  0  0  0  0  0  0  0  0  0
  140.7570   71.5930  225.9120 C   0  0  0  0  0  0  0  0  0  0  0  0
  141.0670   72.2300  227.1120 C   0  0  0  0  0  0  0  0  0  0  0  0
  140.9850   71.5610  228.3250 C   0  0  0  0  0  0  0  0  0  0  0  0
  140.5950   70.2760  228.2840 N   0  0  0  0  0  0  0  0  0  0  0  0
  140.2920   69.6450  227.1350 C   0  0  0  0  0  0  0  0  0  0  0  0
  140.5970   75.5420  221.3310 C   0  0  0  0  0  0  0  0  0  0  0  0
  141.5820   75.9210  220.4430 C   0  0  0  0  0  0  0  0  0  0  0  0
  141.9930   77.2490  220.4710 C   0  0  0  0  0  0  0  0  0  0  0  0
  141.4030   78.1220  221.3780 C   0  0  0  0  0  0  0  0  0  0  0  0
  141.7900   79.4660  221.4340 C   0  0  0  0  0  0  0  0  0  0  0  0
  141.1940   80.3310  222.3450 C   0  0  0  0  0  0  0  0  0  0  0  0
  141.6830   82.0060  222.4110 Cl  0  0  0  0  0  0  0  0  0  0  0  0
  140.2140   79.8960  223.2110 C   0  0  0  0  0  0  0  0  0  0  0  0
  139.8400   78.5810  223.1490 C   0  0  0  0  0  0  0  0  0  0  0  0
  140.4170   77.7040  222.2550 C   0  0  0  0  0  0  0  0  0  0  0  0
  140.0420   76.4170  222.2040 N   0  0  0  0  0  0  0  0  0  0  0  0
  138.7870   74.4150  222.8480 H   0  0  0  0  0  0  0  0  0  0  0  0
  137.7287   72.2437  222.4094 H   0  0  0  0  0  0  0  0  0  0  0  0
  139.0406   72.0648  221.0753 H   0  0  0  0  0  0  0  0  0  0  0  0
  137.3328   71.0212  224.9403 H   0  0  0  0  0  0  0  0  0  0  0  0
  137.0094   69.9403  223.5861 H   0  0  0  0  0  0  0  0  0  0  0  0
  138.0306   69.2715  226.3860 H   0  0  0  0  0  0  0  0  0  0  0  0
  137.0670   68.2502  225.3578 H   0  0  0  0  0  0  0  0  0  0  0  0
  139.6570   67.6520  225.5303 H   0  0  0  0  0  0  0  0  0  0  0  0
  139.0800   67.7367  223.8978 H   0  0  0  0  0  0  0  0  0  0  0  0
  141.0050   69.4008  224.1500 H   0  0  0  0  0  0  0  0  0  0  0  0
  140.8296   72.1494  224.9659 H   0  0  0  0  0  0  0  0  0  0  0  0
  141.3828   73.2836  227.0974 H   0  0  0  0  0  0  0  0  0  0  0  0
  141.2278   72.0592  229.2752 H   0  0  0  0  0  0  0  0  0  0  0  0
  139.9790   68.5916  227.1846 H   0  0  0  0  0  0  0  0  0  0  0  0
  142.0253   75.2005  219.7398 H   0  0  0  0  0  0  0  0  0  0  0  0
  142.7752   77.6045  219.7841 H   0  0  0  0  0  0  0  0  0  0  0  0
  142.5696   79.8398  220.7539 H   0  0  0  0  0  0  0  0  0  0  0  0
  139.7467   80.5848  223.9301 H   0  0  0  0  0  0  0  0  0  0  0  0
  139.0584   78.2140  223.8304 H   0  0  0  0  0  0  0  0  0  0  0  0
  1  2  2  0
  2  3  1  0
  3  4  1  0
  4  5  1  0
  5  6  2  0
  5  7  1  0
  7  8  1  0
  8  9  1  0
  9 10  1  0
 10 11  1  0
 11 12  1  0
 12 13  2  0
 13 14  1  0
 14 15  2  0
 15 16  1  0
 16 17  2  0
  2 18  1  0
 18 19  2  0
 19 20  1  0
 20 21  2  0
 21 22  1  0
 22 23  2  0
 23 24  1  0
 23 25  1  0
 25 26  2  0
 26 27  1  0
 27 28  2  0
 11  7  1  0
 17 12  1  0
 28 18  1  0
 27 21  1  0
  3 29  1  0
  4 30  1  0
  4 31  1  0
  8 32  1  0
  8 33  1  0
  9 34  1  0
  9 35  1  0
 10 36  1  0
 10 37  1  0
 11 38  1  6
 13 39  1  0
 14 40  1  0
 15 41  1  0
 17 42  1  0
 19 43  1  0
 20 44  1  0
 22 45  1  0
 25 46  1  0
 26 47  1  0
M  END
>  <smiles>  (40) 
O=C(NCC(=O)N1CCCC1c1cccnc1)c1ccc2cc(Cl)ccc2n1

>  <score_type>  (40) 
oracle

>  <origin>  (40) 
autodockgpu

>  <m_score__min__energy>  (40) 
-8.6799999999999997

>  <m_primary>  (40) 
energy

>  <rmsd>  (40) 
8.466304615648651

>  <m_score__min__rmsd>  (40) 
8.466304615648651

>  <meeko>  (40) 
{"free_energy": -8.31, "intermolecular_energy": -9.8, "internal_energy": -1.4, "cluster_size": 10, "cluster_id": 2, "rank_in_cluster": 5}

>  <energy>  (40) 
-7.95

>  <cluster_rmsd>  (40) 
0.0

>  <cluster>  (40) 
3

$$$$

     RDKit          3D

 47 50  0  0  0  0  0  0  0  0999 V2000
  140.6590   72.5880  220.7880 O   0  0  0  0  0  0  0  0  0  0  0  0
  140.2360   72.8890  221.9360 C   0  0  0  0  0  0  0  0  0  0  0  0
  139.7980   74.2580  222.1450 N   0  0  0  0  0  0  0  0  0  0  0  0
  139.8920   75.1230  221.0200 C   0  0  0  0  0  0  0  0  0  0  0  0
  141.1680   75.7100  220.6610 C   0  0  0  0  0  0  0  0  0  0  0  0
  142.1890   74.9220  220.8880 O   0  0  0  0  0  0  0  0  0  0  0  0
  141.4750   76.9680  220.1160 N   0  0  0  0  0  0  0  0  0  0  0  0
  142.5700   77.4100  219.2680 C   0  0  0  0  0  0  0  0  0  0  0  0
  142.2100   78.8660  218.8860 C   0  0  0  0  0  0  0  0  0  0  0  0
  140.7080   78.8650  219.0820 C   0  0  0  0  0  0  0  0  0  0  0  0
  140.6070   78.1450  220.4040 C   0  0  2  0  0  0  0  0  0  0  0  0
  141.1940   78.9040  221.5150 C   0  0  0  0  0  0  0  0  0  0  0  0
  141.4360   78.2810  222.7460 C   0  0  0  0  0  0  0  0  0  0  0  0
  141.9900   78.9920  223.8070 C   0  0  0  0  0  0  0  0  0  0  0  0
  142.3200   80.3340  223.6810 C   0  0  0  0  0  0  0  0  0  0  0  0
  142.0780   80.9090  222.4910 N   0  0  0  0  0  0  0  0  0  0  0  0
  141.5440   80.2370  221.4550 C   0  0  0  0  0  0  0  0  0  0  0  0
  140.1740   71.9370  223.0360 C   0  0  0  0  0  0  0  0  0  0  0  0
  139.5980   70.7120  222.7760 C   0  0  0  0  0  0  0  0  0  0  0  0
  139.5350   69.7990  223.8230 C   0  0  0  0  0  0  0  0  0  0  0  0
  140.0450   70.1550  225.0660 C   0  0  0  0  0  0  0  0  0  0  0  0
  140.0000   69.2630  226.1420 C   0  0  0  0  0  0  0  0  0  0  0  0
  140.5130   69.6290  227.3810 C   0  0  0  0  0  0  0  0  0  0  0  0
  140.4530   68.5110  228.7210 Cl  0  0  0  0  0  0  0  0  0  0  0  0
  141.0780   70.8710  227.5850 C   0  0  0  0  0  0  0  0  0  0  0  0
  141.1190   71.7370  226.5260 C   0  0  0  0  0  0  0  0  0  0  0  0
  140.6160   71.3970  225.2880 C   0  0  0  0  0  0  0  0  0  0  0  0
  140.6620   72.2560  224.2590 N   0  0  0  0  0  0  0  0  0  0  0  0
  139.4550   74.4530  223.0930 H   0  0  0  0  0  0  0  0  0  0  0  0
  139.5508   74.5469  220.1472 H   0  0  0  0  0  0  0  0  0  0  0  0
  139.2890   75.9930  221.3192 H   0  0  0  0  0  0  0  0  0  0  0  0
  143.5228   77.3775  219.8168 H   0  0  0  0  0  0  0  0  0  0  0  0
  142.6966   76.7676  218.3841 H   0  0  0  0  0  0  0  0  0  0  0  0
  142.7020   79.5899  219.5522 H   0  0  0  0  0  0  0  0  0  0  0  0
  142.5309   79.1577  217.8751 H   0  0  0  0  0  0  0  0  0  0  0  0
  140.3053   79.8868  219.1436 H   0  0  0  0  0  0  0  0  0  0  0  0
  140.1378   78.4033  218.2624 H   0  0  0  0  0  0  0  0  0  0  0  0
  139.5707   77.9429  220.7128 H   0  0  0  0  0  0  0  0  0  0  0  0
  141.1855   77.2178  222.8759 H   0  0  0  0  0  0  0  0  0  0  0  0
  142.1697   78.4800  224.7639 H   0  0  0  0  0  0  0  0  0  0  0  0
  142.7589   80.9002  224.5158 H   0  0  0  0  0  0  0  0  0  0  0  0
  141.3780   80.7782  220.5118 H   0  0  0  0  0  0  0  0  0  0  0  0
  139.2035   70.4662  221.7790 H   0  0  0  0  0  0  0  0  0  0  0  0
  139.0867   68.8064  223.6692 H   0  0  0  0  0  0  0  0  0  0  0  0
  139.5560   68.2657  226.0071 H   0  0  0  0  0  0  0  0  0  0  0  0
  141.4826   71.1561  228.5674 H   0  0  0  0  0  0  0  0  0  0  0  0
  141.5658   72.7323  226.6664 H   0  0  0  0  0  0  0  0  0  0  0  0
  1  2  2  0
  2  3  1  0
  3  4  1  0
  4  5  1  0
  5  6  2  0
  5  7  1  0
  7  8  1  0
  8  9  1  0
  9 10  1  0
 10 11  1  0
 11 12  1  0
 12 13  2  0
 13 14  1  0
 14 15  2  0
 15 16  1  0
 16 17  2  0
  2 18  1  0
 18 19  2  0
 19 20  1  0
 20 21  2  0
 21 22  1  0
 22 23  2  0
 23 24  1  0
 23 25  1  0
 25 26  2  0
 26 27  1  0
 27 28  2  0
 11  7  1  0
 17 12  1  0
 28 18  1  0
 27 21  1  0
  3 29  1  0
  4 30  1  0
  4 31  1  0
  8 32  1  0
  8 33  1  0
  9 34  1  0
  9 35  1  0
 10 36  1  0
 10 37  1  0
 11 38  1  1
 13 39  1  0
 14 40  1  0
 15 41  1  0
 17 42  1  0
 19 43  1  0
 20 44  1  0
 22 45  1  0
 25 46  1  0
 26 47  1  0
M  END
>  <smiles>  (41) 
O=C(NCC(=O)N1CCCC1c1cccnc1)c1ccc2cc(Cl)ccc2n1

>  <score_type>  (41) 
oracle

>  <origin>  (41) 
autodockgpu

>  <m_score__min__energy>  (41) 
-8.6799999999999997

>  <m_primary>  (41) 
energy

>  <rmsd>  (41) 
2.3744017381342983

>  <m_score__min__rmsd>  (41) 
2.3744017381342983

>  <meeko>  (41) 
{"free_energy": -8.51, "intermolecular_energy": -10.01, "internal_energy": -1.11, "cluster_size": 29, "cluster_id": 1, "rank_in_cluster": 7}

>  <energy>  (41) 
-7.92

>  <cluster_rmsd>  (41) 
1.31

>  <cluster>  (41) 
3

$$$$

     RDKit          3D

 47 50  0  0  0  0  0  0  0  0999 V2000
  141.0350   73.4140  220.6810 O   0  0  0  0  0  0  0  0  0  0  0  0
  140.4110   74.2660  221.3680 C   0  0  0  0  0  0  0  0  0  0  0  0
  139.3060   73.7850  222.1790 N   0  0  0  0  0  0  0  0  0  0  0  0
  139.0420   72.3890  222.1130 C   0  0  0  0  0  0  0  0  0  0  0  0
  139.7250   71.4780  223.0100 C   0  0  0  0  0  0  0  0  0  0  0  0
  141.0280   71.4870  222.8740 O   0  0  0  0  0  0  0  0  0  0  0  0
  139.2180   70.6030  223.9850 N   0  0  0  0  0  0  0  0  0  0  0  0
  137.8690   70.3950  224.4860 C   0  0  0  0  0  0  0  0  0  0  0  0
  137.9790   69.1640  225.4160 C   0  0  0  0  0  0  0  0  0  0  0  0
  139.2260   68.4920  224.8790 C   0  0  0  0  0  0  0  0  0  0  0  0
  140.1330   69.6870  224.7240 C   0  0  2  0  0  0  0  0  0  0  0  0
  140.4870   70.3070  226.0080 C   0  0  0  0  0  0  0  0  0  0  0  0
  140.7720   71.6760  226.0750 C   0  0  0  0  0  0  0  0  0  0  0  0
  141.1110   72.2740  227.2870 C   0  0  0  0  0  0  0  0  0  0  0  0
  141.1750   71.5370  228.4610 C   0  0  0  0  0  0  0  0  0  0  0  0
  140.8970   70.2250  228.3700 N   0  0  0  0  0  0  0  0  0  0  0  0
  140.5680   69.6320  227.2080 C   0  0  0  0  0  0  0  0  0  0  0  0
  140.7480   75.6820  221.3780 C   0  0  0  0  0  0  0  0  0  0  0  0
  141.7010   76.1070  220.4760 C   0  0  0  0  0  0  0  0  0  0  0  0
  142.0280   77.4590  220.4810 C   0  0  0  0  0  0  0  0  0  0  0  0
  141.3910   78.3080  221.3790 C   0  0  0  0  0  0  0  0  0  0  0  0
  141.6940   79.6740  221.4120 C   0  0  0  0  0  0  0  0  0  0  0  0
  141.0510   80.5140  222.3150 C   0  0  0  0  0  0  0  0  0  0  0  0
  141.4340   82.2180  222.3510 Cl  0  0  0  0  0  0  0  0  0  0  0  0
  140.1060   80.0330  223.1950 C   0  0  0  0  0  0  0  0  0  0  0  0
  139.8150   78.6960  223.1550 C   0  0  0  0  0  0  0  0  0  0  0  0
  140.4390   77.8430  222.2700 C   0  0  0  0  0  0  0  0  0  0  0  0
  140.1450   76.5340  222.2410 N   0  0  0  0  0  0  0  0  0  0  0  0
  138.8340   74.5140  222.7270 H   0  0  0  0  0  0  0  0  0  0  0  0
  137.9641   72.2611  222.2911 H   0  0  0  0  0  0  0  0  0  0  0  0
  139.4287   72.1056  221.1230 H   0  0  0  0  0  0  0  0  0  0  0  0
  137.5241   71.2756  225.0478 H   0  0  0  0  0  0  0  0  0  0  0  0
  137.1437   70.2387  223.6739 H   0  0  0  0  0  0  0  0  0  0  0  0
  138.1047   69.4639  226.4668 H   0  0  0  0  0  0  0  0  0  0  0  0
  137.0869   68.5205  225.4165 H   0  0  0  0  0  0  0  0  0  0  0  0
  139.6340   67.7617  225.5932 H   0  0  0  0  0  0  0  0  0  0  0  0
  139.0737   67.9081  223.9593 H   0  0  0  0  0  0  0  0  0  0  0  0
  141.0953   69.4458  224.2488 H   0  0  0  0  0  0  0  0  0  0  0  0
  140.7278   72.2862  225.1609 H   0  0  0  0  0  0  0  0  0  0  0  0
  141.3322   73.3512  227.3137 H   0  0  0  0  0  0  0  0  0  0  0  0
  141.4407   72.0043  229.4207 H   0  0  0  0  0  0  0  0  0  0  0  0
  140.3525   68.5533  227.2154 H   0  0  0  0  0  0  0  0  0  0  0  0
  142.1833   75.4046  219.7803 H   0  0  0  0  0  0  0  0  0  0  0  0
  142.7817   77.8518  219.7827 H   0  0  0  0  0  0  0  0  0  0  0  0
  142.4442   80.0852  220.7205 H   0  0  0  0  0  0  0  0  0  0  0  0
  139.6013   80.7023  223.9072 H   0  0  0  0  0  0  0  0  0  0  0  0
  139.0627   78.2913  223.8480 H   0  0  0  0  0  0  0  0  0  0  0  0
  1  2  2  0
  2  3  1  0
  3  4  1  0
  4  5  1  0
  5  6  2  0
  5  7  1  0
  7  8  1  0
  8  9  1  0
  9 10  1  0
 10 11  1  0
 11 12  1  0
 12 13  2  0
 13 14  1  0
 14 15  2  0
 15 16  1  0
 16 17  2  0
  2 18  1  0
 18 19  2  0
 19 20  1  0
 20 21  2  0
 21 22  1  0
 22 23  2  0
 23 24  1  0
 23 25  1  0
 25 26  2  0
 26 27  1  0
 27 28  2  0
 11  7  1  0
 17 12  1  0
 28 18  1  0
 27 21  1  0
  3 29  1  0
  4 30  1  0
  4 31  1  0
  8 32  1  0
  8 33  1  0
  9 34  1  0
  9 35  1  0
 10 36  1  0
 10 37  1  0
 11 38  1  6
 13 39  1  0
 14 40  1  0
 15 41  1  0
 17 42  1  0
 19 43  1  0
 20 44  1  0
 22 45  1  0
 25 46  1  0
 26 47  1  0
M  END
>  <smiles>  (42) 
O=C(NCC(=O)N1CCCC1c1cccnc1)c1ccc2cc(Cl)ccc2n1

>  <score_type>  (42) 
oracle

>  <origin>  (42) 
autodockgpu

>  <m_score__min__energy>  (42) 
-8.6799999999999997

>  <m_primary>  (42) 
energy

>  <rmsd>  (42) 
8.522382734517985

>  <m_score__min__rmsd>  (42) 
8.522382734517985

>  <meeko>  (42) 
{"free_energy": -8.33, "intermolecular_energy": -9.82, "internal_energy": -1.42, "cluster_size": 10, "cluster_id": 2, "rank_in_cluster": 2}

>  <energy>  (42) 
-7.86

>  <cluster_rmsd>  (42) 
1.44

>  <cluster>  (42) 
3

$$$$

     RDKit          3D

 47 50  0  0  0  0  0  0  0  0999 V2000
  140.0650   72.4250  220.9610 O   0  0  0  0  0  0  0  0  0  0  0  0
  139.3880   72.4490  222.0230 C   0  0  0  0  0  0  0  0  0  0  0  0
  138.3670   73.4750  222.1370 N   0  0  0  0  0  0  0  0  0  0  0  0
  138.2370   74.3550  221.0270 C   0  0  0  0  0  0  0  0  0  0  0  0
  138.9530   75.6160  221.0130 C   0  0  0  0  0  0  0  0  0  0  0  0
  138.2110   76.6420  221.3500 O   0  0  0  0  0  0  0  0  0  0  0  0
  140.2920   75.9040  220.7020 N   0  0  0  0  0  0  0  0  0  0  0  0
  141.4900   75.0830  220.7470 C   0  0  0  0  0  0  0  0  0  0  0  0
  142.5930   75.9590  220.1050 C   0  0  0  0  0  0  0  0  0  0  0  0
  141.7670   76.9130  219.2670 C   0  0  0  0  0  0  0  0  0  0  0  0
  140.6820   77.2710  220.2520 C   0  0  2  0  0  0  0  0  0  0  0  0
  141.1850   78.0230  221.4080 C   0  0  0  0  0  0  0  0  0  0  0  0
  141.8340   79.2510  221.2230 C   0  0  0  0  0  0  0  0  0  0  0  0
  142.3170   79.9720  222.3130 C   0  0  0  0  0  0  0  0  0  0  0  0
  142.1710   79.5020  223.6100 C   0  0  0  0  0  0  0  0  0  0  0  0
  141.5440   78.3220  223.7610 N   0  0  0  0  0  0  0  0  0  0  0  0
  141.0720   77.6120  222.7200 C   0  0  0  0  0  0  0  0  0  0  0  0
  139.5870   71.5070  223.1150 C   0  0  0  0  0  0  0  0  0  0  0  0
  139.2210   70.1960  222.8910 C   0  0  0  0  0  0  0  0  0  0  0  0
  139.4080   69.2920  223.9300 C   0  0  0  0  0  0  0  0  0  0  0  0
  139.9460   69.7410  225.1310 C   0  0  0  0  0  0  0  0  0  0  0  0
  140.1500   68.8600  226.1990 C   0  0  0  0  0  0  0  0  0  0  0  0
  140.6890   69.3190  227.3960 C   0  0  0  0  0  0  0  0  0  0  0  0
  140.9390   68.2150  228.7250 Cl  0  0  0  0  0  0  0  0  0  0  0  0
  141.0360   70.6430  227.5640 C   0  0  0  0  0  0  0  0  0  0  0  0
  140.8350   71.4970  226.5150 C   0  0  0  0  0  0  0  0  0  0  0  0
  140.3010   71.0660  225.3190 C   0  0  0  0  0  0  0  0  0  0  0  0
  140.1090   71.9140  224.2970 N   0  0  0  0  0  0  0  0  0  0  0  0
  137.8360   73.4490  223.0160 H   0  0  0  0  0  0  0  0  0  0  0  0
  138.5629   73.7950  220.1381 H   0  0  0  0  0  0  0  0  0  0  0  0
  137.1822   74.6639  221.0718 H   0  0  0  0  0  0  0  0  0  0  0  0
  141.7496   74.8327  221.7862 H   0  0  0  0  0  0  0  0  0  0  0  0
  141.3587   74.1270  220.2189 H   0  0  0  0  0  0  0  0  0  0  0  0
  143.1760   76.4953  220.8682 H   0  0  0  0  0  0  0  0  0  0  0  0
  143.3421   75.3915  219.5334 H   0  0  0  0  0  0  0  0  0  0  0  0
  142.3487   77.7961  218.9641 H   0  0  0  0  0  0  0  0  0  0  0  0
  141.4047   76.4940  218.3166 H   0  0  0  0  0  0  0  0  0  0  0  0
  139.8923   77.9043  219.8215 H   0  0  0  0  0  0  0  0  0  0  0  0
  141.9636   79.6501  220.2062 H   0  0  0  0  0  0  0  0  0  0  0  0
  142.8242   80.9330  222.1417 H   0  0  0  0  0  0  0  0  0  0  0  0
  142.5501   80.0677  224.4739 H   0  0  0  0  0  0  0  0  0  0  0  0
  140.5704   76.6549  222.9257 H   0  0  0  0  0  0  0  0  0  0  0  0
  138.7973   69.8782  221.9269 H   0  0  0  0  0  0  0  0  0  0  0  0
  139.1338   68.2342  223.8037 H   0  0  0  0  0  0  0  0  0  0  0  0
  139.8825   67.7985  226.0911 H   0  0  0  0  0  0  0  0  0  0  0  0
  141.4615   71.0013  228.5130 H   0  0  0  0  0  0  0  0  0  0  0  0
  141.1068   72.5568  226.6284 H   0  0  0  0  0  0  0  0  0  0  0  0
  1  2  2  0
  2  3  1  0
  3  4  1  0
  4  5  1  0
  5  6  2  0
  5  7  1  0
  7  8  1  0
  8  9  1  0
  9 10  1  0
 10 11  1  0
 11 12  1  0
 12 13  2  0
 13 14  1  0
 14 15  2  0
 15 16  1  0
 16 17  2  0
  2 18  1  0
 18 19  2  0
 19 20  1  0
 20 21  2  0
 21 22  1  0
 22 23  2  0
 23 24  1  0
 23 25  1  0
 25 26  2  0
 26 27  1  0
 27 28  2  0
 11  7  1  0
 17 12  1  0
 28 18  1  0
 27 21  1  0
  3 29  1  0
  4 30  1  0
  4 31  1  0
  8 32  1  0
  8 33  1  0
  9 34  1  0
  9 35  1  0
 10 36  1  0
 10 37  1  0
 11 38  1  6
 13 39  1  0
 14 40  1  0
 15 41  1  0
 17 42  1  0
 19 43  1  0
 20 44  1  0
 22 45  1  0
 25 46  1  0
 26 47  1  0
M  END
>  <smiles>  (43) 
O=C(NCC(=O)N1CCCC1c1cccnc1)c1ccc2cc(Cl)ccc2n1

>  <score_type>  (43) 
oracle

>  <origin>  (43) 
autodockgpu

>  <m_score__min__energy>  (43) 
-8.6799999999999997

>  <m_primary>  (43) 
energy

>  <rmsd>  (43) 
1.8498310752045741

>  <m_score__min__rmsd>  (43) 
1.8498310752045741

>  <meeko>  (43) 
{"free_energy": -8.15, "intermolecular_energy": -9.64, "internal_energy": -1.26, "cluster_size": 29, "cluster_id": 1, "rank_in_cluster": 25}

>  <energy>  (43) 
-7.82

>  <cluster_rmsd>  (43) 
1.42

>  <cluster>  (43) 
3

$$$$

     RDKit          3D

 47 50  0  0  0  0  0  0  0  0999 V2000
  139.2820   73.4980  221.3570 O   0  0  0  0  0  0  0  0  0  0  0  0
  140.2800   72.8910  221.8290 C   0  0  0  0  0  0  0  0  0  0  0  0
  141.5700   73.1600  221.2190 N   0  0  0  0  0  0  0  0  0  0  0  0
  141.5730   74.0910  220.1440 C   0  0  0  0  0  0  0  0  0  0  0  0
  141.5790   75.5150  220.4170 C   0  0  0  0  0  0  0  0  0  0  0  0
  142.7060   76.1030  220.1040 O   0  0  0  0  0  0  0  0  0  0  0  0
  140.5830   76.3470  220.9540 N   0  0  0  0  0  0  0  0  0  0  0  0
  139.4160   76.9690  220.3490 C   0  0  0  0  0  0  0  0  0  0  0  0
  138.6480   77.6020  221.5340 C   0  0  0  0  0  0  0  0  0  0  0  0
  139.1570   76.7770  222.6970 C   0  0  0  0  0  0  0  0  0  0  0  0
  140.6330   76.7530  222.3880 C   0  0  2  0  0  0  0  0  0  0  0  0
  141.2590   78.0780  222.4820 C   0  0  0  0  0  0  0  0  0  0  0  0
  141.4820   78.6660  223.7340 C   0  0  0  0  0  0  0  0  0  0  0  0
  142.0730   79.9240  223.8340 C   0  0  0  0  0  0  0  0  0  0  0  0
  142.4590   80.6310  222.7050 C   0  0  0  0  0  0  0  0  0  0  0  0
  142.2350   80.0450  221.5160 N   0  0  0  0  0  0  0  0  0  0  0  0
  141.6660   78.8310  221.4000 C   0  0  0  0  0  0  0  0  0  0  0  0
  140.1890   71.9490  222.9350 C   0  0  0  0  0  0  0  0  0  0  0  0
  139.5750   70.7400  222.6830 C   0  0  0  0  0  0  0  0  0  0  0  0
  139.4840   69.8370  223.7370 C   0  0  0  0  0  0  0  0  0  0  0  0
  140.0060   70.1860  224.9770 C   0  0  0  0  0  0  0  0  0  0  0  0
  139.9330   69.3030  226.0600 C   0  0  0  0  0  0  0  0  0  0  0  0
  140.4580   69.6620  227.2970 C   0  0  0  0  0  0  0  0  0  0  0  0
  140.3630   68.5560  228.6440 Cl  0  0  0  0  0  0  0  0  0  0  0  0
  141.0600   70.8870  227.4910 C   0  0  0  0  0  0  0  0  0  0  0  0
  141.1280   71.7440  226.4270 C   0  0  0  0  0  0  0  0  0  0  0  0
  140.6140   71.4110  225.1910 C   0  0  0  0  0  0  0  0  0  0  0  0
  140.6870   72.2610  224.1560 N   0  0  0  0  0  0  0  0  0  0  0  0
  142.3540   72.6480  221.6420 H   0  0  0  0  0  0  0  0  0  0  0  0
  142.4698   73.8793  219.5433 H   0  0  0  0  0  0  0  0  0  0  0  0
  140.5948   73.9295  219.6675 H   0  0  0  0  0  0  0  0  0  0  0  0
  139.7190   77.7412  219.6266 H   0  0  0  0  0  0  0  0  0  0  0  0
  138.8006   76.2460  219.7935 H   0  0  0  0  0  0  0  0  0  0  0  0
  138.9007   78.6658  221.6546 H   0  0  0  0  0  0  0  0  0  0  0  0
  137.5541   77.5885  221.4186 H   0  0  0  0  0  0  0  0  0  0  0  0
  138.9514   77.2640  223.6617 H   0  0  0  0  0  0  0  0  0  0  0  0
  138.6919   75.7850  222.7951 H   0  0  0  0  0  0  0  0  0  0  0  0
  141.2116   76.1150  223.0722 H   0  0  0  0  0  0  0  0  0  0  0  0
  141.1874   78.1289  224.6477 H   0  0  0  0  0  0  0  0  0  0  0  0
  142.2366   80.3651  224.8283 H   0  0  0  0  0  0  0  0  0  0  0  0
  142.9263   81.6241  222.7789 H   0  0  0  0  0  0  0  0  0  0  0  0
  141.5179   78.4181  220.3912 H   0  0  0  0  0  0  0  0  0  0  0  0
  139.1731   70.4994  221.6877 H   0  0  0  0  0  0  0  0  0  0  0  0
  139.0044   68.8579  223.5909 H   0  0  0  0  0  0  0  0  0  0  0  0
  139.4577   68.3192  225.9324 H   0  0  0  0  0  0  0  0  0  0  0  0
  141.4730   71.1667  228.4714 H   0  0  0  0  0  0  0  0  0  0  0  0
  141.6058   72.7258  226.5607 H   0  0  0  0  0  0  0  0  0  0  0  0
  1  2  2  0
  2  3  1  0
  3  4  1  0
  4  5  1  0
  5  6  2  0
  5  7  1  0
  7  8  1  0
  8  9  1  0
  9 10  1  0
 10 11  1  0
 11 12  1  0
 12 13  2  0
 13 14  1  0
 14 15  2  0
 15 16  1  0
 16 17  2  0
  2 18  1  0
 18 19  2  0
 19 20  1  0
 20 21  2  0
 21 22  1  0
 22 23  2  0
 23 24  1  0
 23 25  1  0
 25 26  2  0
 26 27  1  0
 27 28  2  0
 11  7  1  0
 17 12  1  0
 28 18  1  0
 27 21  1  0
  3 29  1  0
  4 30  1  0
  4 31  1  0
  8 32  1  0
  8 33  1  0
  9 34  1  0
  9 35  1  0
 10 36  1  0
 10 37  1  0
 11 38  1  1
 13 39  1  0
 14 40  1  0
 15 41  1  0
 17 42  1  0
 19 43  1  0
 20 44  1  0
 22 45  1  0
 25 46  1  0
 26 47  1  0
M  END
>  <smiles>  (44) 
O=C(NCC(=O)N1CCCC1c1cccnc1)c1ccc2cc(Cl)ccc2n1

>  <score_type>  (44) 
oracle

>  <origin>  (44) 
autodockgpu

>  <m_score__min__energy>  (44) 
-8.6799999999999997

>  <m_primary>  (44) 
energy

>  <rmsd>  (44) 
2.905765579448304

>  <m_score__min__rmsd>  (44) 
2.905765579448304

>  <meeko>  (44) 
{"free_energy": -7.87, "intermolecular_energy": -9.36, "internal_energy": -1.37, "cluster_size": 29, "cluster_id": 1, "rank_in_cluster": 26}

>  <energy>  (44) 
-7.79

>  <cluster_rmsd>  (44) 
1.45

>  <cluster>  (44) 
3

$$$$

     RDKit          3D

 47 50  0  0  0  0  0  0  0  0999 V2000
  141.8670   73.2200  221.0170 O   0  0  0  0  0  0  0  0  0  0  0  0
  141.0920   74.0640  221.5400 C   0  0  0  0  0  0  0  0  0  0  0  0
  139.9770   73.5510  222.3150 N   0  0  0  0  0  0  0  0  0  0  0  0
  139.8760   72.1350  222.4050 C   0  0  0  0  0  0  0  0  0  0  0  0
  138.7200   71.5280  223.0360 C   0  0  0  0  0  0  0  0  0  0  0  0
  137.5810   72.0510  222.6550 O   0  0  0  0  0  0  0  0  0  0  0  0
  138.6320   70.4860  223.9740 N   0  0  0  0  0  0  0  0  0  0  0  0
  137.4940   69.9070  224.6680 C   0  0  0  0  0  0  0  0  0  0  0  0
  138.0700   68.6820  225.4170 C   0  0  0  0  0  0  0  0  0  0  0  0
  139.3130   68.3900  224.6020 C   0  0  0  0  0  0  0  0  0  0  0  0
  139.8630   69.7840  224.4360 C   0  0  2  0  0  0  0  0  0  0  0  0
  140.3000   70.3820  225.7050 C   0  0  0  0  0  0  0  0  0  0  0  0
  140.5590   69.5680  226.8150 C   0  0  0  0  0  0  0  0  0  0  0  0
  140.9720   70.1240  228.0240 C   0  0  0  0  0  0  0  0  0  0  0  0
  141.1400   71.4940  228.1670 C   0  0  0  0  0  0  0  0  0  0  0  0
  140.8850   72.2530  227.0870 N   0  0  0  0  0  0  0  0  0  0  0  0
  140.4860   71.7320  225.9120 C   0  0  0  0  0  0  0  0  0  0  0  0
  141.2680   75.5020  221.3970 C   0  0  0  0  0  0  0  0  0  0  0  0
  141.9510   75.9450  220.2830 C   0  0  0  0  0  0  0  0  0  0  0  0
  142.1230   77.3170  220.1420 C   0  0  0  0  0  0  0  0  0  0  0  0
  141.6100   78.1690  221.1130 C   0  0  0  0  0  0  0  0  0  0  0  0
  141.7630   79.5560  221.0030 C   0  0  0  0  0  0  0  0  0  0  0  0
  141.2460   80.3990  221.9800 C   0  0  0  0  0  0  0  0  0  0  0  0
  141.4420   82.1290  221.8380 Cl  0  0  0  0  0  0  0  0  0  0  0  0
  140.5720   79.9010  223.0750 C   0  0  0  0  0  0  0  0  0  0  0  0
  140.4260   78.5430  223.1730 C   0  0  0  0  0  0  0  0  0  0  0  0
  140.9310   77.6870  222.2180 C   0  0  0  0  0  0  0  0  0  0  0  0
  140.7800   76.3580  222.3270 N   0  0  0  0  0  0  0  0  0  0  0  0
  139.3780   74.2760  222.7280 H   0  0  0  0  0  0  0  0  0  0  0  0
  139.9156   71.7481  221.3761 H   0  0  0  0  0  0  0  0  0  0  0  0
  140.7021   71.8656  223.0795 H   0  0  0  0  0  0  0  0  0  0  0  0
  137.0649   70.6290  225.3783 H   0  0  0  0  0  0  0  0  0  0  0  0
  136.6841   69.6287  223.9776 H   0  0  0  0  0  0  0  0  0  0  0  0
  138.3211   68.9292  226.4590 H   0  0  0  0  0  0  0  0  0  0  0  0
  137.3736   67.8340  225.4941 H   0  0  0  0  0  0  0  0  0  0  0  0
  140.0127   67.7391  225.1467 H   0  0  0  0  0  0  0  0  0  0  0  0
  139.1289   67.8534  223.6596 H   0  0  0  0  0  0  0  0  0  0  0  0
  140.7451   69.8300  223.7805 H   0  0  0  0  0  0  0  0  0  0  0  0
  140.4351   68.4782  226.7314 H   0  0  0  0  0  0  0  0  0  0  0  0
  141.1687   69.4641  228.8818 H   0  0  0  0  0  0  0  0  0  0  0  0
  141.4664   71.9380  229.1190 H   0  0  0  0  0  0  0  0  0  0  0  0
  140.2986   72.4190  225.0736 H   0  0  0  0  0  0  0  0  0  0  0  0
  142.3440   75.2399  219.5357 H   0  0  0  0  0  0  0  0  0  0  0  0
  142.6590   77.7239  219.2719 H   0  0  0  0  0  0  0  0  0  0  0  0
  142.2950   79.9811  220.1391 H   0  0  0  0  0  0  0  0  0  0  0  0
  140.1648   80.5729  223.8449 H   0  0  0  0  0  0  0  0  0  0  0  0
  139.8909   78.1237  224.0378 H   0  0  0  0  0  0  0  0  0  0  0  0
  1  2  2  0
  2  3  1  0
  3  4  1  0
  4  5  1  0
  5  6  2  0
  5  7  1  0
  7  8  1  0
  8  9  1  0
  9 10  1  0
 10 11  1  0
 11 12  1  0
 12 13  2  0
 13 14  1  0
 14 15  2  0
 15 16  1  0
 16 17  2  0
  2 18  1  0
 18 19  2  0
 19 20  1  0
 20 21  2  0
 21 22  1  0
 22 23  2  0
 23 24  1  0
 23 25  1  0
 25 26  2  0
 26 27  1  0
 27 28  2  0
 11  7  1  0
 17 12  1  0
 28 18  1  0
 27 21  1  0
  3 29  1  0
  4 30  1  0
  4 31  1  0
  8 32  1  0
  8 33  1  0
  9 34  1  0
  9 35  1  0
 10 36  1  0
 10 37  1  0
 11 38  1  6
 13 39  1  0
 14 40  1  0
 15 41  1  0
 17 42  1  0
 19 43  1  0
 20 44  1  0
 22 45  1  0
 25 46  1  0
 26 47  1  0
M  END
>  <smiles>  (45) 
O=C(NCC(=O)N1CCCC1c1cccnc1)c1ccc2cc(Cl)ccc2n1

>  <score_type>  (45) 
oracle

>  <origin>  (45) 
autodockgpu

>  <m_score__min__energy>  (45) 
-8.6799999999999997

>  <m_primary>  (45) 
energy

>  <rmsd>  (45) 
8.580241095631475

>  <m_score__min__rmsd>  (45) 
8.580241095631475

>  <meeko>  (45) 
{"free_energy": -8.08, "intermolecular_energy": -9.57, "internal_energy": -1.28, "cluster_size": 10, "cluster_id": 2, "rank_in_cluster": 9}

>  <energy>  (45) 
-7.75

>  <cluster_rmsd>  (45) 
1.53

>  <cluster>  (45) 
3

$$$$

     RDKit          3D

 47 50  0  0  0  0  0  0  0  0999 V2000
  140.9690   73.3800  221.8830 O   0  0  0  0  0  0  0  0  0  0  0  0
  139.9530   72.9860  222.5160 C   0  0  0  0  0  0  0  0  0  0  0  0
  138.6830   73.6110  222.1900 N   0  0  0  0  0  0  0  0  0  0  0  0
  138.7190   74.6100  221.1790 C   0  0  0  0  0  0  0  0  0  0  0  0
  139.3570   75.8860  221.4420 C   0  0  0  0  0  0  0  0  0  0  0  0
  138.7600   76.5880  222.3720 O   0  0  0  0  0  0  0  0  0  0  0  0
  140.4950   76.4750  220.8660 N   0  0  0  0  0  0  0  0  0  0  0  0
  141.7810   75.9150  220.4850 C   0  0  0  0  0  0  0  0  0  0  0  0
  142.5080   77.0650  219.7460 C   0  0  0  0  0  0  0  0  0  0  0  0
  141.3400   77.9210  219.3010 C   0  0  0  0  0  0  0  0  0  0  0  0
  140.5160   77.9340  220.5640 C   0  0  2  0  0  0  0  0  0  0  0  0
  141.1790   78.6360  221.6710 C   0  0  0  0  0  0  0  0  0  0  0  0
  141.8470   79.8450  221.4410 C   0  0  0  0  0  0  0  0  0  0  0  0
  142.4800   80.5190  222.4830 C   0  0  0  0  0  0  0  0  0  0  0  0
  142.4700   80.0170  223.7770 C   0  0  0  0  0  0  0  0  0  0  0  0
  141.8210   78.8550  223.9720 N   0  0  0  0  0  0  0  0  0  0  0  0
  141.2040   78.1920  222.9770 C   0  0  0  0  0  0  0  0  0  0  0  0
  140.0050   71.9530  223.5410 C   0  0  0  0  0  0  0  0  0  0  0  0
  139.5520   70.6980  223.1920 C   0  0  0  0  0  0  0  0  0  0  0  0
  139.5980   69.7070  224.1670 C   0  0  0  0  0  0  0  0  0  0  0  0
  140.0900   70.0200  225.4290 C   0  0  0  0  0  0  0  0  0  0  0  0
  140.1530   69.0490  226.4350 C   0  0  0  0  0  0  0  0  0  0  0  0
  140.6460   69.3720  227.6940 C   0  0  0  0  0  0  0  0  0  0  0  0
  140.7200   68.1560  228.9450 Cl  0  0  0  0  0  0  0  0  0  0  0  0
  141.0840   70.6460  227.9870 C   0  0  0  0  0  0  0  0  0  0  0  0
  141.0210   71.5890  226.9980 C   0  0  0  0  0  0  0  0  0  0  0  0
  140.5350   71.2930  225.7420 C   0  0  0  0  0  0  0  0  0  0  0  0
  140.4780   72.2270  224.7800 N   0  0  0  0  0  0  0  0  0  0  0  0
  137.8840   73.2520  222.7260 H   0  0  0  0  0  0  0  0  0  0  0  0
  139.2366   74.1684  220.3147 H   0  0  0  0  0  0  0  0  0  0  0  0
  137.6599   74.8786  221.0514 H   0  0  0  0  0  0  0  0  0  0  0  0
  142.3486   75.6062  221.3752 H   0  0  0  0  0  0  0  0  0  0  0  0
  141.6744   75.0186  219.8565 H   0  0  0  0  0  0  0  0  0  0  0  0
  143.1772   77.6177  220.4218 H   0  0  0  0  0  0  0  0  0  0  0  0
  143.1588   76.7307  218.9246 H   0  0  0  0  0  0  0  0  0  0  0  0
  141.6630   78.9331  219.0158 H   0  0  0  0  0  0  0  0  0  0  0  0
  140.8110   77.5498  218.4109 H   0  0  0  0  0  0  0  0  0  0  0  0
  139.5450   78.4373  220.4467 H   0  0  0  0  0  0  0  0  0  0  0  0
  141.8722   80.2675  220.4257 H   0  0  0  0  0  0  0  0  0  0  0  0
  142.9977   81.4673  222.2763 H   0  0  0  0  0  0  0  0  0  0  0  0
  142.9689   80.5442  224.6035 H   0  0  0  0  0  0  0  0  0  0  0  0
  140.6934   77.2477  223.2171 H   0  0  0  0  0  0  0  0  0  0  0  0
  139.1693   70.4889  222.1821 H   0  0  0  0  0  0  0  0  0  0  0  0
  139.2494   68.6882  223.9423 H   0  0  0  0  0  0  0  0  0  0  0  0
  139.8104   68.0244  226.2282 H   0  0  0  0  0  0  0  0  0  0  0  0
  141.4722   70.8965  228.9853 H   0  0  0  0  0  0  0  0  0  0  0  0
  141.3674   72.6112  227.2105 H   0  0  0  0  0  0  0  0  0  0  0  0
  1  2  2  0
  2  3  1  0
  3  4  1  0
  4  5  1  0
  5  6  2  0
  5  7  1  0
  7  8  1  0
  8  9  1  0
  9 10  1  0
 10 11  1  0
 11 12  1  0
 12 13  2  0
 13 14  1  0
 14 15  2  0
 15 16  1  0
 16 17  2  0
  2 18  1  0
 18 19  2  0
 19 20  1  0
 20 21  2  0
 21 22  1  0
 22 23  2  0
 23 24  1  0
 23 25  1  0
 25 26  2  0
 26 27  1  0
 27 28  2  0
 11  7  1  0
 17 12  1  0
 28 18  1  0
 27 21  1  0
  3 29  1  0
  4 30  1  0
  4 31  1  0
  8 32  1  0
  8 33  1  0
  9 34  1  0
  9 35  1  0
 10 36  1  0
 10 37  1  0
 11 38  1  6
 13 39  1  0
 14 40  1  0
 15 41  1  0
 17 42  1  0
 19 43  1  0
 20 44  1  0
 22 45  1  0
 25 46  1  0
 26 47  1  0
M  END
>  <smiles>  (46) 
O=C(NCC(=O)N1CCCC1c1cccnc1)c1ccc2cc(Cl)ccc2n1

>  <score_type>  (46) 
oracle

>  <origin>  (46) 
autodockgpu

>  <m_score__min__energy>  (46) 
-8.6799999999999997

>  <m_primary>  (46) 
energy

>  <rmsd>  (46) 
2.048361482006756

>  <m_score__min__rmsd>  (46) 
2.048361482006756

>  <meeko>  (46) 
{"free_energy": -8.63, "intermolecular_energy": -10.12, "internal_energy": -1.19, "cluster_size": 29, "cluster_id": 1, "rank_in_cluster": 5}

>  <energy>  (46) 
-7.65

>  <cluster_rmsd>  (46) 
1.53

>  <cluster>  (46) 
3

$$$$

     RDKit          3D

 47 50  0  0  0  0  0  0  0  0999 V2000
  140.8240   73.1220  221.4750 O   0  0  0  0  0  0  0  0  0  0  0  0
  139.8850   72.9050  222.2870 C   0  0  0  0  0  0  0  0  0  0  0  0
  138.6960   73.7300  222.1630 N   0  0  0  0  0  0  0  0  0  0  0  0
  138.7160   74.7050  221.1290 C   0  0  0  0  0  0  0  0  0  0  0  0
  139.3480   75.9900  221.3550 C   0  0  0  0  0  0  0  0  0  0  0  0
  138.7090   76.7440  222.2150 O   0  0  0  0  0  0  0  0  0  0  0  0
  140.5180   76.5420  220.8080 N   0  0  0  0  0  0  0  0  0  0  0  0
  141.8080   75.9510  220.4930 C   0  0  0  0  0  0  0  0  0  0  0  0
  142.5830   77.0650  219.7500 C   0  0  0  0  0  0  0  0  0  0  0  0
  141.4490   77.9280  219.2370 C   0  0  0  0  0  0  0  0  0  0  0  0
  140.5770   77.9920  220.4660 C   0  0  2  0  0  0  0  0  0  0  0  0
  141.2090   78.7150  221.5770 C   0  0  0  0  0  0  0  0  0  0  0  0
  141.1630   78.1920  222.8760 C   0  0  0  0  0  0  0  0  0  0  0  0
  141.7570   78.8700  223.9380 C   0  0  0  0  0  0  0  0  0  0  0  0
  142.4120   80.0780  223.7460 C   0  0  0  0  0  0  0  0  0  0  0  0
  142.4430   80.5580  222.4900 N   0  0  0  0  0  0  0  0  0  0  0  0
  141.8740   79.9170  221.4530 C   0  0  0  0  0  0  0  0  0  0  0  0
  139.9470   71.8820  223.3210 C   0  0  0  0  0  0  0  0  0  0  0  0
  139.4980   70.6210  222.9870 C   0  0  0  0  0  0  0  0  0  0  0  0
  139.5540   69.6400  223.9710 C   0  0  0  0  0  0  0  0  0  0  0  0
  140.0520   69.9670  225.2270 C   0  0  0  0  0  0  0  0  0  0  0  0
  140.1240   69.0060  226.2420 C   0  0  0  0  0  0  0  0  0  0  0  0
  140.6230   69.3430  227.4950 C   0  0  0  0  0  0  0  0  0  0  0  0
  140.7100   68.1390  228.7570 Cl  0  0  0  0  0  0  0  0  0  0  0  0
  141.0580   70.6220  227.7730 C   0  0  0  0  0  0  0  0  0  0  0  0
  140.9840   71.5550  226.7750 C   0  0  0  0  0  0  0  0  0  0  0  0
  140.4930   71.2450  225.5250 C   0  0  0  0  0  0  0  0  0  0  0  0
  140.4260   72.1690  224.5550 N   0  0  0  0  0  0  0  0  0  0  0  0
  137.9560   73.5100  222.8410 H   0  0  0  0  0  0  0  0  0  0  0  0
  139.2279   74.2463  220.2702 H   0  0  0  0  0  0  0  0  0  0  0  0
  137.6541   74.9643  221.0061 H   0  0  0  0  0  0  0  0  0  0  0  0
  142.3357   75.6596  221.4131 H   0  0  0  0  0  0  0  0  0  0  0  0
  141.7094   75.0387  219.8864 H   0  0  0  0  0  0  0  0  0  0  0  0
  143.2369   77.6253  220.4345 H   0  0  0  0  0  0  0  0  0  0  0  0
  143.2575   76.6953  218.9637 H   0  0  0  0  0  0  0  0  0  0  0  0
  141.8015   78.9257  218.9364 H   0  0  0  0  0  0  0  0  0  0  0  0
  140.9475   77.5403  218.3380 H   0  0  0  0  0  0  0  0  0  0  0  0
  139.6203   78.5080  220.2971 H   0  0  0  0  0  0  0  0  0  0  0  0
  140.6521   77.2353  223.0593 H   0  0  0  0  0  0  0  0  0  0  0  0
  141.7058   78.4392  224.9488 H   0  0  0  0  0  0  0  0  0  0  0  0
  142.8833   80.6172  224.5809 H   0  0  0  0  0  0  0  0  0  0  0  0
  141.9426   80.3749  220.4552 H   0  0  0  0  0  0  0  0  0  0  0  0
  139.1107   70.4001  221.9814 H   0  0  0  0  0  0  0  0  0  0  0  0
  139.2084   68.6176  223.7581 H   0  0  0  0  0  0  0  0  0  0  0  0
  139.7838   67.9782  226.0472 H   0  0  0  0  0  0  0  0  0  0  0  0
  141.4521   70.8838  228.7661 H   0  0  0  0  0  0  0  0  0  0  0  0
  141.3259   72.5811  226.9758 H   0  0  0  0  0  0  0  0  0  0  0  0
  1  2  2  0
  2  3  1  0
  3  4  1  0
  4  5  1  0
  5  6  2  0
  5  7  1  0
  7  8  1  0
  8  9  1  0
  9 10  1  0
 10 11  1  0
 11 12  1  0
 12 13  2  0
 13 14  1  0
 14 15  2  0
 15 16  1  0
 16 17  2  0
  2 18  1  0
 18 19  2  0
 19 20  1  0
 20 21  2  0
 21 22  1  0
 22 23  2  0
 23 24  1  0
 23 25  1  0
 25 26  2  0
 26 27  1  0
 27 28  2  0
 11  7  1  0
 17 12  1  0
 28 18  1  0
 27 21  1  0
  3 29  1  0
  4 30  1  0
  4 31  1  0
  8 32  1  0
  8 33  1  0
  9 34  1  0
  9 35  1  0
 10 36  1  0
 10 37  1  0
 11 38  1  6
 13 39  1  0
 14 40  1  0
 15 41  1  0
 17 42  1  0
 19 43  1  0
 20 44  1  0
 22 45  1  0
 25 46  1  0
 26 47  1  0
M  END
>  <smiles>  (47) 
O=C(NCC(=O)N1CCCC1c1cccnc1)c1ccc2cc(Cl)ccc2n1

>  <score_type>  (47) 
oracle

>  <origin>  (47) 
autodockgpu

>  <m_score__min__energy>  (47) 
-8.6799999999999997

>  <m_primary>  (47) 
energy

>  <rmsd>  (47) 
2.0380526232237357

>  <m_score__min__rmsd>  (47) 
2.0380526232237357

>  <meeko>  (47) 
{"free_energy": -8.65, "intermolecular_energy": -10.14, "internal_energy": -1.22, "cluster_size": 29, "cluster_id": 1, "rank_in_cluster": 3}

>  <energy>  (47) 
-7.64

>  <cluster_rmsd>  (47) 
1.54

>  <cluster>  (47) 
3

$$$$

     RDKit          3D

 47 50  0  0  0  0  0  0  0  0999 V2000
  136.1270   77.7110  223.0300 O   0  0  0  0  0  0  0  0  0  0  0  0
  136.1230   76.4990  223.3760 C   0  0  0  0  0  0  0  0  0  0  0  0
  137.1880   75.6580  222.8590 N   0  0  0  0  0  0  0  0  0  0  0  0
  138.1330   76.2960  222.0100 C   0  0  0  0  0  0  0  0  0  0  0  0
  139.4440   75.7080  221.8120 C   0  0  0  0  0  0  0  0  0  0  0  0
  139.5700   74.5180  222.3430 O   0  0  0  0  0  0  0  0  0  0  0  0
  140.5790   76.2070  221.1520 N   0  0  0  0  0  0  0  0  0  0  0  0
  141.8670   75.6010  220.8570 C   0  0  0  0  0  0  0  0  0  0  0  0
  142.5880   76.6280  219.9510 C   0  0  0  0  0  0  0  0  0  0  0  0
  141.4170   77.4020  219.3840 C   0  0  0  0  0  0  0  0  0  0  0  0
  140.5940   77.6040  220.6320 C   0  0  2  0  0  0  0  0  0  0  0  0
  141.2550   78.4690  221.6180 C   0  0  0  0  0  0  0  0  0  0  0  0
  141.2340   78.1320  222.9770 C   0  0  0  0  0  0  0  0  0  0  0  0
  141.8560   78.9460  223.9220 C   0  0  0  0  0  0  0  0  0  0  0  0
  142.5130   80.1100  223.5490 C   0  0  0  0  0  0  0  0  0  0  0  0
  142.5190   80.4100  222.2390 N   0  0  0  0  0  0  0  0  0  0  0  0
  141.9240   79.6360  221.3130 C   0  0  0  0  0  0  0  0  0  0  0  0
  135.1130   75.9250  224.2530 C   0  0  0  0  0  0  0  0  0  0  0  0
  134.2220   76.7980  224.8420 C   0  0  0  0  0  0  0  0  0  0  0  0
  133.2550   76.2560  225.6820 C   0  0  0  0  0  0  0  0  0  0  0  0
  133.2290   74.8810  225.8880 C   0  0  0  0  0  0  0  0  0  0  0  0
  132.2710   74.3000  226.7250 C   0  0  0  0  0  0  0  0  0  0  0  0
  132.2530   72.9240  226.9240 C   0  0  0  0  0  0  0  0  0  0  0  0
  131.0550   72.2050  227.9710 Cl  0  0  0  0  0  0  0  0  0  0  0  0
  133.1700   72.0990  226.3090 C   0  0  0  0  0  0  0  0  0  0  0  0
  134.1040   72.6750  225.4910 C   0  0  0  0  0  0  0  0  0  0  0  0
  134.1420   74.0370  225.2780 C   0  0  0  0  0  0  0  0  0  0  0  0
  135.0620   74.5900  224.4740 N   0  0  0  0  0  0  0  0  0  0  0  0
  137.1470   74.6810  223.1750 H   0  0  0  0  0  0  0  0  0  0  0  0
  137.6663   76.3729  221.0169 H   0  0  0  0  0  0  0  0  0  0  0  0
  138.3545   77.2346  222.5391 H   0  0  0  0  0  0  0  0  0  0  0  0
  142.4373   75.4328  221.7824 H   0  0  0  0  0  0  0  0  0  0  0  0
  141.7630   74.6195  220.3714 H   0  0  0  0  0  0  0  0  0  0  0  0
  143.2561   77.2792  220.5338 H   0  0  0  0  0  0  0  0  0  0  0  0
  143.2387   76.1753  219.1884 H   0  0  0  0  0  0  0  0  0  0  0  0
  141.7360   78.3602  218.9479 H   0  0  0  0  0  0  0  0  0  0  0  0
  140.8882   76.8979  218.5617 H   0  0  0  0  0  0  0  0  0  0  0  0
  139.6208   78.0801  220.4416 H   0  0  0  0  0  0  0  0  0  0  0  0
  140.7210   77.2149  223.3022 H   0  0  0  0  0  0  0  0  0  0  0  0
  141.8255   78.6603  224.9838 H   0  0  0  0  0  0  0  0  0  0  0  0
  143.0055   80.7564  224.2903 H   0  0  0  0  0  0  0  0  0  0  0  0
  141.9736   79.9497  220.2599 H   0  0  0  0  0  0  0  0  0  0  0  0
  134.2742   77.8807  224.6546 H   0  0  0  0  0  0  0  0  0  0  0  0
  132.5197   76.9071  226.1774 H   0  0  0  0  0  0  0  0  0  0  0  0
  131.5275   74.9352  227.2288 H   0  0  0  0  0  0  0  0  0  0  0  0
  133.1517   71.0111  226.4707 H   0  0  0  0  0  0  0  0  0  0  0  0
  134.8444   72.0342  224.9899 H   0  0  0  0  0  0  0  0  0  0  0  0
  1  2  2  0
  2  3  1  0
  3  4  1  0
  4  5  1  0
  5  6  2  0
  5  7  1  0
  7  8  1  0
  8  9  1  0
  9 10  1  0
 10 11  1  0
 11 12  1  0
 12 13  2  0
 13 14  1  0
 14 15  2  0
 15 16  1  0
 16 17  2  0
  2 18  1  0
 18 19  2  0
 19 20  1  0
 20 21  2  0
 21 22  1  0
 22 23  2  0
 23 24  1  0
 23 25  1  0
 25 26  2  0
 26 27  1  0
 27 28  2  0
 11  7  1  0
 17 12  1  0
 28 18  1  0
 27 21  1  0
  3 29  1  0
  4 30  1  0
  4 31  1  0
  8 32  1  0
  8 33  1  0
  9 34  1  0
  9 35  1  0
 10 36  1  0
 10 37  1  0
 11 38  1  6
 13 39  1  0
 14 40  1  0
 15 41  1  0
 17 42  1  0
 19 43  1  0
 20 44  1  0
 22 45  1  0
 25 46  1  0
 26 47  1  0
M  END
>  <smiles>  (48) 
O=C(NCC(=O)N1CCCC1c1cccnc1)c1ccc2cc(Cl)ccc2n1

>  <score_type>  (48) 
oracle

>  <origin>  (48) 
autodockgpu

>  <m_score__min__energy>  (48) 
-8.6799999999999997

>  <m_primary>  (48) 
energy

>  <rmsd>  (48) 
6.222116983738195

>  <m_score__min__rmsd>  (48) 
6.222116983738195

>  <meeko>  (48) 
{"free_energy": -7.2, "intermolecular_energy": -8.69, "internal_energy": -1.62, "cluster_size": 1, "cluster_id": 5, "rank_in_cluster": 1}

>  <energy>  (48) 
-7.59

>  <cluster_rmsd>  (48) 
1.39

>  <cluster>  (48) 
3

$$$$

     RDKit          3D

 47 50  0  0  0  0  0  0  0  0999 V2000
  140.5760   72.5880  220.7770 O   0  0  0  0  0  0  0  0  0  0  0  0
  140.2010   72.8960  221.9400 C   0  0  0  0  0  0  0  0  0  0  0  0
  139.8060   74.2750  222.1670 N   0  0  0  0  0  0  0  0  0  0  0  0
  139.8840   75.1420  221.0430 C   0  0  0  0  0  0  0  0  0  0  0  0
  141.1560   75.7250  220.6630 C   0  0  0  0  0  0  0  0  0  0  0  0
  142.1770   74.9270  220.8590 O   0  0  0  0  0  0  0  0  0  0  0  0
  141.4590   76.9880  220.1270 N   0  0  0  0  0  0  0  0  0  0  0  0
  142.5510   77.4380  219.2800 C   0  0  0  0  0  0  0  0  0  0  0  0
  142.1870   78.8960  218.9110 C   0  0  0  0  0  0  0  0  0  0  0  0
  140.6860   78.8910  219.1120 C   0  0  0  0  0  0  0  0  0  0  0  0
  140.5900   78.1610  220.4280 C   0  0  2  0  0  0  0  0  0  0  0  0
  141.1800   78.9120  221.5430 C   0  0  0  0  0  0  0  0  0  0  0  0
  141.4280   78.2790  222.7680 C   0  0  0  0  0  0  0  0  0  0  0  0
  141.9850   78.9830  223.8330 C   0  0  0  0  0  0  0  0  0  0  0  0
  142.3120   80.3270  223.7170 C   0  0  0  0  0  0  0  0  0  0  0  0
  142.0640   80.9110  222.5320 N   0  0  0  0  0  0  0  0  0  0  0  0
  141.5270   80.2460  221.4930 C   0  0  0  0  0  0  0  0  0  0  0  0
  140.1520   71.9420  223.0380 C   0  0  0  0  0  0  0  0  0  0  0  0
  139.5950   70.7080  222.7750 C   0  0  0  0  0  0  0  0  0  0  0  0
  139.5440   69.7920  223.8200 C   0  0  0  0  0  0  0  0  0  0  0  0
  140.0480   70.1550  225.0650 C   0  0  0  0  0  0  0  0  0  0  0  0
  140.0140   69.2600  226.1400 C   0  0  0  0  0  0  0  0  0  0  0  0
  140.5200   69.6320  227.3800 C   0  0  0  0  0  0  0  0  0  0  0  0
  140.4750   68.5110  228.7180 Cl  0  0  0  0  0  0  0  0  0  0  0  0
  141.0650   70.8820  227.5860 C   0  0  0  0  0  0  0  0  0  0  0  0
  141.0940   71.7510  226.5300 C   0  0  0  0  0  0  0  0  0  0  0  0
  140.5980   71.4040  225.2900 C   0  0  0  0  0  0  0  0  0  0  0  0
  140.6330   72.2660  224.2620 N   0  0  0  0  0  0  0  0  0  0  0  0
  139.5010   74.4750  223.1280 H   0  0  0  0  0  0  0  0  0  0  0  0
  139.5254   74.5693  220.1750 H   0  0  0  0  0  0  0  0  0  0  0  0
  139.2899   76.0137  221.3548 H   0  0  0  0  0  0  0  0  0  0  0  0
  143.5053   77.4028  219.8260 H   0  0  0  0  0  0  0  0  0  0  0  0
  142.6769   76.8028  218.3908 H   0  0  0  0  0  0  0  0  0  0  0  0
  142.6800   79.6155  219.5813 H   0  0  0  0  0  0  0  0  0  0  0  0
  142.5039   79.1962  217.9013 H   0  0  0  0  0  0  0  0  0  0  0  0
  140.2819   79.9116  219.1829 H   0  0  0  0  0  0  0  0  0  0  0  0
  140.1141   78.4345  218.2907 H   0  0  0  0  0  0  0  0  0  0  0  0
  139.5552   77.9551  220.7390 H   0  0  0  0  0  0  0  0  0  0  0  0
  141.1801   77.2143  222.8901 H   0  0  0  0  0  0  0  0  0  0  0  0
  142.1694   78.4636  224.7849 H   0  0  0  0  0  0  0  0  0  0  0  0
  142.7529   80.8873  224.5546 H   0  0  0  0  0  0  0  0  0  0  0  0
  141.3558   80.7946  220.5550 H   0  0  0  0  0  0  0  0  0  0  0  0
  139.2060   70.4580  221.7769 H   0  0  0  0  0  0  0  0  0  0  0  0
  139.1107   68.7930  223.6643 H   0  0  0  0  0  0  0  0  0  0  0  0
  139.5845   68.2566  226.0031 H   0  0  0  0  0  0  0  0  0  0  0  0
  141.4641   71.1713  228.5693 H   0  0  0  0  0  0  0  0  0  0  0  0
  141.5242   72.7532  226.6731 H   0  0  0  0  0  0  0  0  0  0  0  0
  1  2  2  0
  2  3  1  0
  3  4  1  0
  4  5  1  0
  5  6  2  0
  5  7  1  0
  7  8  1  0
  8  9  1  0
  9 10  1  0
 10 11  1  0
 11 12  1  0
 12 13  2  0
 13 14  1  0
 14 15  2  0
 15 16  1  0
 16 17  2  0
  2 18  1  0
 18 19  2  0
 19 20  1  0
 20 21  2  0
 21 22  1  0
 22 23  2  0
 23 24  1  0
 23 25  1  0
 25 26  2  0
 26 27  1  0
 27 28  2  0
 11  7  1  0
 17 12  1  0
 28 18  1  0
 27 21  1  0
  3 29  1  0
  4 30  1  0
  4 31  1  0
  8 32  1  0
  8 33  1  0
  9 34  1  0
  9 35  1  0
 10 36  1  0
 10 37  1  0
 11 38  1  1
 13 39  1  0
 14 40  1  0
 15 41  1  0
 17 42  1  0
 19 43  1  0
 20 44  1  0
 22 45  1  0
 25 46  1  0
 26 47  1  0
M  END
>  <smiles>  (49) 
O=C(NCC(=O)N1CCCC1c1cccnc1)c1ccc2cc(Cl)ccc2n1

>  <score_type>  (49) 
oracle

>  <origin>  (49) 
autodockgpu

>  <m_score__min__energy>  (49) 
-8.6799999999999997

>  <m_primary>  (49) 
energy

>  <rmsd>  (49) 
2.3803708953942246

>  <m_score__min__rmsd>  (49) 
2.3803708953942246

>  <meeko>  (49) 
{"free_energy": -8.49, "intermolecular_energy": -9.98, "internal_energy": -1.13, "cluster_size": 29, "cluster_id": 1, "rank_in_cluster": 11}

>  <energy>  (49) 
-7.63

>  <cluster_rmsd>  (49) 
0.0

>  <cluster>  (49) 
4

$$$$

     RDKit          3D

 47 50  0  0  0  0  0  0  0  0999 V2000
  140.5800   72.6110  220.8260 O   0  0  0  0  0  0  0  0  0  0  0  0
  140.1430   72.9050  221.9710 C   0  0  0  0  0  0  0  0  0  0  0  0
  139.6890   74.2690  222.1780 N   0  0  0  0  0  0  0  0  0  0  0  0
  139.7850   75.1380  221.0570 C   0  0  0  0  0  0  0  0  0  0  0  0
  141.0670   75.7050  220.6860 C   0  0  0  0  0  0  0  0  0  0  0  0
  142.0710   74.8810  220.8500 O   0  0  0  0  0  0  0  0  0  0  0  0
  141.3940   76.9770  220.1860 N   0  0  0  0  0  0  0  0  0  0  0  0
  142.4950   77.4310  219.3530 C   0  0  0  0  0  0  0  0  0  0  0  0
  142.1590   78.9050  219.0240 C   0  0  0  0  0  0  0  0  0  0  0  0
  140.6570   78.9210  219.2220 C   0  0  0  0  0  0  0  0  0  0  0  0
  140.5450   78.1570  220.5170 C   0  0  2  0  0  0  0  0  0  0  0  0
  141.1450   78.8660  221.6540 C   0  0  0  0  0  0  0  0  0  0  0  0
  141.3970   80.2420  221.5740 C   0  0  0  0  0  0  0  0  0  0  0  0
  141.9680   80.9240  222.6460 C   0  0  0  0  0  0  0  0  0  0  0  0
  142.3040   80.2680  223.8220 C   0  0  0  0  0  0  0  0  0  0  0  0
  142.0520   78.9490  223.8730 N   0  0  0  0  0  0  0  0  0  0  0  0
  141.5010   78.2740  222.8480 C   0  0  0  0  0  0  0  0  0  0  0  0
  140.0800   71.9510  223.0680 C   0  0  0  0  0  0  0  0  0  0  0  0
  139.4930   70.7300  222.8070 C   0  0  0  0  0  0  0  0  0  0  0  0
  139.4290   69.8140  223.8510 C   0  0  0  0  0  0  0  0  0  0  0  0
  139.9500   70.1620  225.0920 C   0  0  0  0  0  0  0  0  0  0  0  0
  139.9050   69.2660  226.1650 C   0  0  0  0  0  0  0  0  0  0  0  0
  140.4290   69.6240  227.4030 C   0  0  0  0  0  0  0  0  0  0  0  0
  140.3680   68.5010  228.7380 Cl  0  0  0  0  0  0  0  0  0  0  0  0
  141.0040   70.8600  227.6070 C   0  0  0  0  0  0  0  0  0  0  0  0
  141.0460   71.7300  226.5510 C   0  0  0  0  0  0  0  0  0  0  0  0
  140.5320   71.3980  225.3150 C   0  0  0  0  0  0  0  0  0  0  0  0
  140.5790   72.2600  224.2890 N   0  0  0  0  0  0  0  0  0  0  0  0
  139.3350   74.4580  223.1240 H   0  0  0  0  0  0  0  0  0  0  0  0
  139.4238   74.5726  220.1853 H   0  0  0  0  0  0  0  0  0  0  0  0
  139.2008   76.0166  221.3679 H   0  0  0  0  0  0  0  0  0  0  0  0
  143.4476   77.3631  219.8988 H   0  0  0  0  0  0  0  0  0  0  0  0
  142.6100   76.8187  218.4464 H   0  0  0  0  0  0  0  0  0  0  0  0
  142.6632   79.5964  219.7151 H   0  0  0  0  0  0  0  0  0  0  0  0
  142.4840   79.2277  218.0239 H   0  0  0  0  0  0  0  0  0  0  0  0
  140.2708   79.9463  219.3202 H   0  0  0  0  0  0  0  0  0  0  0  0
  140.0791   78.4975  218.3873 H   0  0  0  0  0  0  0  0  0  0  0  0
  139.5057   77.9613  220.8196 H   0  0  0  0  0  0  0  0  0  0  0  0
  141.1412   80.7895  220.6549 H   0  0  0  0  0  0  0  0  0  0  0  0
  142.1564   82.0042  222.5587 H   0  0  0  0  0  0  0  0  0  0  0  0
  142.7549   80.8020  224.6714 H   0  0  0  0  0  0  0  0  0  0  0  0
  141.3254   77.1948  222.9682 H   0  0  0  0  0  0  0  0  0  0  0  0
  139.0912   70.4905  221.8114 H   0  0  0  0  0  0  0  0  0  0  0  0
  138.9715   68.8256  223.6968 H   0  0  0  0  0  0  0  0  0  0  0  0
  139.4527   68.2725  226.0292 H   0  0  0  0  0  0  0  0  0  0  0  0
  141.4163   71.1386  228.5880 H   0  0  0  0  0  0  0  0  0  0  0  0
  141.5022   72.7210  226.6921 H   0  0  0  0  0  0  0  0  0  0  0  0
  1  2  2  0
  2  3  1  0
  3  4  1  0
  4  5  1  0
  5  6  2  0
  5  7  1  0
  7  8  1  0
  8  9  1  0
  9 10  1  0
 10 11  1  0
 11 12  1  0
 12 13  2  0
 13 14  1  0
 14 15  2  0
 15 16  1  0
 16 17  2  0
  2 18  1  0
 18 19  2  0
 19 20  1  0
 20 21  2  0
 21 22  1  0
 22 23  2  0
 23 24  1  0
 23 25  1  0
 25 26  2  0
 26 27  1  0
 27 28  2  0
 11  7  1  0
 17 12  1  0
 28 18  1  0
 27 21  1  0
  3 29  1  0
  4 30  1  0
  4 31  1  0
  8 32  1  0
  8 33  1  0
  9 34  1  0
  9 35  1  0
 10 36  1  0
 10 37  1  0
 11 38  1  1
 13 39  1  0
 14 40  1  0
 15 41  1  0
 17 42  1  0
 19 43  1  0
 20 44  1  0
 22 45  1  0
 25 46  1  0
 26 47  1  0
M  END
>  <smiles>  (50) 
O=C(NCC(=O)N1CCCC1c1cccnc1)c1ccc2cc(Cl)ccc2n1

>  <score_type>  (50) 
oracle

>  <origin>  (50) 
autodockgpu

>  <m_score__min__energy>  (50) 
-8.6799999999999997

>  <m_primary>  (50) 
energy

>  <rmsd>  (50) 
2.367730972406868

>  <m_score__min__rmsd>  (50) 
2.367730972406868

>  <meeko>  (50) 
{"free_energy": -8.44, "intermolecular_energy": -9.93, "internal_energy": -1.04, "cluster_size": 29, "cluster_id": 1, "rank_in_cluster": 15}

>  <energy>  (50) 
-7.2

>  <cluster_rmsd>  (50) 
0.0

>  <cluster>  (50) 
5

$$$$

     RDKit          3D

 47 50  0  0  0  0  0  0  0  0999 V2000
  139.8520   72.0890  220.7380 O   0  0  0  0  0  0  0  0  0  0  0  0
  139.7830   72.4860  221.9140 C   0  0  0  0  0  0  0  0  0  0  0  0
  139.6000   73.8800  222.2130 N   0  0  0  0  0  0  0  0  0  0  0  0
  139.5000   74.7930  221.1170 C   0  0  0  0  0  0  0  0  0  0  0  0
  140.2870   76.0330  221.3240 C   0  0  0  0  0  0  0  0  0  0  0  0
  139.9330   76.7810  222.2680 O   0  0  0  0  0  0  0  0  0  0  0  0
  141.3790   76.3000  220.4580 N   0  0  0  0  0  0  0  0  0  0  0  0
  142.1730   77.5440  220.4060 C   0  0  0  0  0  0  0  0  0  0  0  0
  142.0470   77.7820  218.8870 C   0  0  0  0  0  0  0  0  0  0  0  0
  142.5880   76.4280  218.4120 C   0  0  0  0  0  0  0  0  0  0  0  0
  141.9810   75.4720  219.4280 C   0  0  1  0  0  0  0  0  0  0  0  0
  143.0480   74.5750  219.9530 C   0  0  0  0  0  0  0  0  0  0  0  0
  144.3570   74.9710  220.1160 C   0  0  0  0  0  0  0  0  0  0  0  0
  145.3430   74.1340  220.6220 C   0  0  0  0  0  0  0  0  0  0  0  0
  145.0050   72.8480  220.9780 C   0  0  0  0  0  0  0  0  0  0  0  0
  143.7330   72.4460  220.8270 N   0  0  0  0  0  0  0  0  0  0  0  0
  142.7710   73.2560  220.3360 C   0  0  0  0  0  0  0  0  0  0  0  0
  139.8870   71.5520  223.0330 C   0  0  0  0  0  0  0  0  0  0  0  0
  139.4600   70.2420  222.8560 C   0  0  0  0  0  0  0  0  0  0  0  0
  139.5610   69.3650  223.9180 C   0  0  0  0  0  0  0  0  0  0  0  0
  140.0640   69.7260  225.1500 C   0  0  0  0  0  0  0  0  0  0  0  0
  140.1540   68.8270  226.1960 C   0  0  0  0  0  0  0  0  0  0  0  0
  140.6700   69.2730  227.3930 C   0  0  0  0  0  0  0  0  0  0  0  0
  140.8010   68.1640  228.7490 Cl  0  0  0  0  0  0  0  0  0  0  0  0
  141.0760   70.5780  227.5150 C   0  0  0  0  0  0  0  0  0  0  0  0
  141.0040   71.5050  226.4960 C   0  0  0  0  0  0  0  0  0  0  0  0
  140.4800   71.0520  225.2810 C   0  0  0  0  0  0  0  0  0  0  0  0
  140.3780   71.9030  224.2370 N   0  0  0  0  0  0  0  0  0  0  0  0
  139.5460   74.1840  223.2300 H   0  0  0  0  0  0  0  0  0  0  0  0
  139.8666   74.2923  220.2088 H   0  0  0  0  0  0  0  0  0  0  0  0
  138.4432   75.0845  221.0261 H   0  0  0  0  0  0  0  0  0  0  0  0
  141.7241   78.3552  220.9980 H   0  0  0  0  0  0  0  0  0  0  0  0
  143.1932   77.4951  220.8144 H   0  0  0  0  0  0  0  0  0  0  0  0
  141.0047   77.9462  218.5762 H   0  0  0  0  0  0  0  0  0  0  0  0
  142.5610   78.6715  218.4939 H   0  0  0  0  0  0  0  0  0  0  0  0
  142.2471   76.1968  217.3920 H   0  0  0  0  0  0  0  0  0  0  0  0
  143.6858   76.3821  218.3600 H   0  0  0  0  0  0  0  0  0  0  0  0
  141.2109   74.8166  218.9951 H   0  0  0  0  0  0  0  0  0  0  0  0
  144.6342   75.9971  219.8325 H   0  0  0  0  0  0  0  0  0  0  0  0
  146.3766   74.4927  220.7363 H   0  0  0  0  0  0  0  0  0  0  0  0
  145.7645   72.1611  221.3796 H   0  0  0  0  0  0  0  0  0  0  0  0
  141.7455   72.8714  220.2342 H   0  0  0  0  0  0  0  0  0  0  0  0
  139.0502   69.9103  221.8906 H   0  0  0  0  0  0  0  0  0  0  0  0
  139.2237   68.3279  223.7740 H   0  0  0  0  0  0  0  0  0  0  0  0
  139.8230   67.7849  226.0761 H   0  0  0  0  0  0  0  0  0  0  0  0
  141.4833   70.9045  228.4833 H   0  0  0  0  0  0  0  0  0  0  0  0
  141.3403   72.5435  226.6316 H   0  0  0  0  0  0  0  0  0  0  0  0
  1  2  2  0
  2  3  1  0
  3  4  1  0
  4  5  1  0
  5  6  2  0
  5  7  1  0
  7  8  1  0
  8  9  1  0
  9 10  1  0
 10 11  1  0
 11 12  1  0
 12 13  2  0
 13 14  1  0
 14 15  2  0
 15 16  1  0
 16 17  2  0
  2 18  1  0
 18 19  2  0
 19 20  1  0
 20 21  2  0
 21 22  1  0
 22 23  2  0
 23 24  1  0
 23 25  1  0
 25 26  2  0
 26 27  1  0
 27 28  2  0
 11  7  1  0
 17 12  1  0
 28 18  1  0
 27 21  1  0
  3 29  1  0
  4 30  1  0
  4 31  1  0
  8 32  1  0
  8 33  1  0
  9 34  1  0
  9 35  1  0
 10 36  1  0
 10 37  1  0
 11 38  1  6
 13 39  1  0
 14 40  1  0
 15 41  1  0
 17 42  1  0
 19 43  1  0
 20 44  1  0
 22 45  1  0
 25 46  1  0
 26 47  1  0
M  END
>  <smiles>  (51) 
O=C(NCC(=O)N1CCCC1c1cccnc1)c1ccc2cc(Cl)ccc2n1

>  <score_type>  (51) 
oracle

>  <origin>  (51) 
autodockgpu

>  <m_score__min__energy>  (51) 
-8.5700000000000003

>  <m_primary>  (51) 
energy

>  <rmsd>  (51) 
2.209291084247716

>  <m_score__min__rmsd>  (51) 
2.209291084247716

>  <meeko>  (51) 
{"free_energy": -8.15, "intermolecular_energy": -9.65, "internal_energy": -1.75, "cluster_size": 19, "cluster_id": 1, "rank_in_cluster": 7}

>  <energy>  (51) 
-8.57

>  <cluster_rmsd>  (51) 
0.0

>  <cluster>  (51) 
1

$$$$

     RDKit          3D

 47 50  0  0  0  0  0  0  0  0999 V2000
  139.4150   73.4320  220.2920 O   0  0  0  0  0  0  0  0  0  0  0  0
  139.2020   73.5320  221.5120 C   0  0  0  0  0  0  0  0  0  0  0  0
  138.8100   74.7870  222.0920 N   0  0  0  0  0  0  0  0  0  0  0  0
  138.6730   75.9140  221.2230 C   0  0  0  0  0  0  0  0  0  0  0  0
  138.8890   77.2080  221.9160 C   0  0  0  0  0  0  0  0  0  0  0  0
  137.9160   77.6820  222.5530 O   0  0  0  0  0  0  0  0  0  0  0  0
  140.1620   77.8280  221.8220 N   0  0  0  0  0  0  0  0  0  0  0  0
  140.9700   78.3440  222.9450 C   0  0  0  0  0  0  0  0  0  0  0  0
  141.2180   79.7530  222.3640 C   0  0  0  0  0  0  0  0  0  0  0  0
  141.8290   79.3270  221.0240 C   0  0  0  0  0  0  0  0  0  0  0  0
  140.9760   78.1220  220.6560 C   0  0  1  0  0  0  0  0  0  0  0  0
  141.8680   76.9920  220.2700 C   0  0  0  0  0  0  0  0  0  0  0  0
  141.8000   75.7440  220.8470 C   0  0  0  0  0  0  0  0  0  0  0  0
  142.6240   74.6910  220.4700 C   0  0  0  0  0  0  0  0  0  0  0  0
  143.5530   74.8970  219.4760 C   0  0  0  0  0  0  0  0  0  0  0  0
  143.6320   76.1080  218.9010 N   0  0  0  0  0  0  0  0  0  0  0  0
  142.8330   77.1350  219.2640 C   0  0  0  0  0  0  0  0  0  0  0  0
  139.3420   72.3810  222.4000 C   0  0  0  0  0  0  0  0  0  0  0  0
  138.6680   71.2060  222.0880 C   0  0  0  0  0  0  0  0  0  0  0  0
  138.8050   70.1220  222.9310 C   0  0  0  0  0  0  0  0  0  0  0  0
  139.5780   70.1460  224.0730 C   0  0  0  0  0  0  0  0  0  0  0  0
  139.6980   69.0440  224.9000 C   0  0  0  0  0  0  0  0  0  0  0  0
  140.4920   69.1570  226.0200 C   0  0  0  0  0  0  0  0  0  0  0  0
  140.6710   67.7820  227.0990 Cl  0  0  0  0  0  0  0  0  0  0  0  0
  141.1350   70.3400  226.2830 C   0  0  0  0  0  0  0  0  0  0  0  0
  141.0420   71.4600  225.4830 C   0  0  0  0  0  0  0  0  0  0  0  0
  140.2350   71.3460  224.3460 C   0  0  0  0  0  0  0  0  0  0  0  0
  140.0960   72.4020  223.5150 N   0  0  0  0  0  0  0  0  0  0  0  0
  138.6350   74.8370  223.1400 H   0  0  0  0  0  0  0  0  0  0  0  0
  139.4103   75.8231  220.4117 H   0  0  0  0  0  0  0  0  0  0  0  0
  137.6414   75.9126  220.8412 H   0  0  0  0  0  0  0  0  0  0  0  0
  140.4083   78.3712  223.8904 H   0  0  0  0  0  0  0  0  0  0  0  0
  141.8609   77.7605  223.2204 H   0  0  0  0  0  0  0  0  0  0  0  0
  140.2846   80.3205  222.2346 H   0  0  0  0  0  0  0  0  0  0  0  0
  141.8295   80.4284  222.9803 H   0  0  0  0  0  0  0  0  0  0  0  0
  141.7391   80.1249  220.2721 H   0  0  0  0  0  0  0  0  0  0  0  0
  142.9058   79.1085  221.0771 H   0  0  0  0  0  0  0  0  0  0  0  0
  140.3190   78.3071  219.7934 H   0  0  0  0  0  0  0  0  0  0  0  0
  141.0598   75.5728  221.6425 H   0  0  0  0  0  0  0  0  0  0  0  0
  142.5353   73.7091  220.9579 H   0  0  0  0  0  0  0  0  0  0  0  0
  144.2203   74.0826  219.1574 H   0  0  0  0  0  0  0  0  0  0  0  0
  142.9424   78.1057  218.7583 H   0  0  0  0  0  0  0  0  0  0  0  0
  138.0387   71.1416  221.1881 H   0  0  0  0  0  0  0  0  0  0  0  0
  138.2716   69.1934  222.6799 H   0  0  0  0  0  0  0  0  0  0  0  0
  139.1745   68.1043  224.6700 H   0  0  0  0  0  0  0  0  0  0  0  0
  141.7617   70.3990  227.1851 H   0  0  0  0  0  0  0  0  0  0  0  0
  141.5735   72.3920  225.7259 H   0  0  0  0  0  0  0  0  0  0  0  0
  1  2  2  0
  2  3  1  0
  3  4  1  0
  4  5  1  0
  5  6  2  0
  5  7  1  0
  7  8  1  0
  8  9  1  0
  9 10  1  0
 10 11  1  0
 11 12  1  0
 12 13  2  0
 13 14  1  0
 14 15  2  0
 15 16  1  0
 16 17  2  0
  2 18  1  0
 18 19  2  0
 19 20  1  0
 20 21  2  0
 21 22  1  0
 22 23  2  0
 23 24  1  0
 23 25  1  0
 25 26  2  0
 26 27  1  0
 27 28  2  0
 11  7  1  0
 17 12  1  0
 28 18  1  0
 27 21  1  0
  3 29  1  0
  4 30  1  0
  4 31  1  0
  8 32  1  0
  8 33  1  0
  9 34  1  0
  9 35  1  0
 10 36  1  0
 10 37  1  0
 11 38  1  6
 13 39  1  0
 14 40  1  0
 15 41  1  0
 17 42  1  0
 19 43  1  0
 20 44  1  0
 22 45  1  0
 25 46  1  0
 26 47  1  0
M  END
>  <smiles>  (52) 
O=C(NCC(=O)N1CCCC1c1cccnc1)c1ccc2cc(Cl)ccc2n1

>  <score_type>  (52) 
oracle

>  <origin>  (52) 
autodockgpu

>  <m_score__min__energy>  (52) 
-8.5700000000000003

>  <m_primary>  (52) 
energy

>  <rmsd>  (52) 
3.2610411762267084

>  <m_score__min__rmsd>  (52) 
3.2610411762267084

>  <meeko>  (52) 
{"free_energy": -7.39, "intermolecular_energy": -8.88, "internal_energy": -1.55, "cluster_size": 2, "cluster_id": 5, "rank_in_cluster": 2}

>  <energy>  (52) 
-8.47

>  <cluster_rmsd>  (52) 
0.16

>  <cluster>  (52) 
1

$$$$

     RDKit          3D

 47 50  0  0  0  0  0  0  0  0999 V2000
  134.2490   69.1240  226.1910 O   0  0  0  0  0  0  0  0  0  0  0  0
  134.5210   70.2590  225.7630 C   0  0  0  0  0  0  0  0  0  0  0  0
  135.5390   70.4490  224.7670 N   0  0  0  0  0  0  0  0  0  0  0  0
  136.2280   69.2930  224.2850 C   0  0  0  0  0  0  0  0  0  0  0  0
  137.6250   69.2050  224.7770 C   0  0  0  0  0  0  0  0  0  0  0  0
  137.9180   68.2110  225.4850 O   0  0  0  0  0  0  0  0  0  0  0  0
  138.5380   70.2330  224.4250 N   0  0  0  0  0  0  0  0  0  0  0  0
  138.2040   71.5190  223.7810 C   0  0  0  0  0  0  0  0  0  0  0  0
  139.2310   71.4240  222.6320 C   0  0  0  0  0  0  0  0  0  0  0  0
  140.4890   71.2210  223.4860 C   0  0  0  0  0  0  0  0  0  0  0  0
  139.9800   70.2990  224.5840 C   0  0  1  0  0  0  0  0  0  0  0  0
  140.3950   70.8410  225.9080 C   0  0  0  0  0  0  0  0  0  0  0  0
  139.9430   70.3370  227.1070 C   0  0  0  0  0  0  0  0  0  0  0  0
  140.3470   70.8370  228.3380 C   0  0  0  0  0  0  0  0  0  0  0  0
  141.2410   71.8840  228.3700 C   0  0  0  0  0  0  0  0  0  0  0  0
  141.6940   72.3860  227.2090 N   0  0  0  0  0  0  0  0  0  0  0  0
  141.3030   71.9030  226.0110 C   0  0  0  0  0  0  0  0  0  0  0  0
  133.8160   71.4400  226.2570 C   0  0  0  0  0  0  0  0  0  0  0  0
  132.6730   71.2660  227.0280 C   0  0  0  0  0  0  0  0  0  0  0  0
  132.0120   72.3870  227.4910 C   0  0  0  0  0  0  0  0  0  0  0  0
  132.4300   73.6740  227.2260 C   0  0  0  0  0  0  0  0  0  0  0  0
  131.7490   74.7780  227.7030 C   0  0  0  0  0  0  0  0  0  0  0  0
  132.2380   76.0270  227.3900 C   0  0  0  0  0  0  0  0  0  0  0  0
  131.4020   77.4580  227.9750 Cl  0  0  0  0  0  0  0  0  0  0  0  0
  133.3710   76.1430  226.6240 C   0  0  0  0  0  0  0  0  0  0  0  0
  134.0790   75.0670  226.1310 C   0  0  0  0  0  0  0  0  0  0  0  0
  133.5820   73.7990  226.4480 C   0  0  0  0  0  0  0  0  0  0  0  0
  134.2230   72.6970  225.9990 N   0  0  0  0  0  0  0  0  0  0  0  0
  135.7450   71.4330  224.4240 H   0  0  0  0  0  0  0  0  0  0  0  0
  135.6827   68.3966  224.6153 H   0  0  0  0  0  0  0  0  0  0  0  0
  136.2689   69.3672  223.1883 H   0  0  0  0  0  0  0  0  0  0  0  0
  137.1665   71.5507  223.4169 H   0  0  0  0  0  0  0  0  0  0  0  0
  138.2555   72.4162  224.4154 H   0  0  0  0  0  0  0  0  0  0  0  0
  139.0356   70.5689  221.9682 H   0  0  0  0  0  0  0  0  0  0  0  0
  139.2537   72.2735  221.9335 H   0  0  0  0  0  0  0  0  0  0  0  0
  141.2936   70.7455  222.9058 H   0  0  0  0  0  0  0  0  0  0  0  0
  140.9267   72.1579  223.8609 H   0  0  0  0  0  0  0  0  0  0  0  0
  140.3973   69.2832  224.5207 H   0  0  0  0  0  0  0  0  0  0  0  0
  139.2293   69.5001  227.0890 H   0  0  0  0  0  0  0  0  0  0  0  0
  139.9594   70.4040  229.2719 H   0  0  0  0  0  0  0  0  0  0  0  0
  141.5785   72.3022  229.3298 H   0  0  0  0  0  0  0  0  0  0  0  0
  141.7071   72.3542  225.0928 H   0  0  0  0  0  0  0  0  0  0  0  0
  132.3027   70.2575  227.2644 H   0  0  0  0  0  0  0  0  0  0  0  0
  131.1076   72.2461  228.1011 H   0  0  0  0  0  0  0  0  0  0  0  0
  130.8424   74.6625  228.3151 H   0  0  0  0  0  0  0  0  0  0  0  0
  133.7359   77.1539  226.3895 H   0  0  0  0  0  0  0  0  0  0  0  0
  134.9852   75.1991  225.5216 H   0  0  0  0  0  0  0  0  0  0  0  0
  1  2  2  0
  2  3  1  0
  3  4  1  0
  4  5  1  0
  5  6  2  0
  5  7  1  0
  7  8  1  0
  8  9  1  0
  9 10  1  0
 10 11  1  0
 11 12  1  0
 12 13  2  0
 13 14  1  0
 14 15  2  0
 15 16  1  0
 16 17  2  0
  2 18  1  0
 18 19  2  0
 19 20  1  0
 20 21  2  0
 21 22  1  0
 22 23  2  0
 23 24  1  0
 23 25  1  0
 25 26  2  0
 26 27  1  0
 27 28  2  0
 11  7  1  0
 17 12  1  0
 28 18  1  0
 27 21  1  0
  3 29  1  0
  4 30  1  0
  4 31  1  0
  8 32  1  0
  8 33  1  0
  9 34  1  0
  9 35  1  0
 10 36  1  0
 10 37  1  0
 11 38  1  6
 13 39  1  0
 14 40  1  0
 15 41  1  0
 17 42  1  0
 19 43  1  0
 20 44  1  0
 22 45  1  0
 25 46  1  0
 26 47  1  0
M  END
>  <smiles>  (53) 
O=C(NCC(=O)N1CCCC1c1cccnc1)c1ccc2cc(Cl)ccc2n1

>  <score_type>  (53) 
oracle

>  <origin>  (53) 
autodockgpu

>  <m_score__min__energy>  (53) 
-8.5700000000000003

>  <m_primary>  (53) 
energy

>  <rmsd>  (53) 
7.756071225521817

>  <m_score__min__rmsd>  (53) 
7.756071225521817

>  <meeko>  (53) 
{"free_energy": -8.05, "intermolecular_energy": -9.54, "internal_energy": -1.48, "cluster_size": 8, "cluster_id": 3, "rank_in_cluster": 8}

>  <energy>  (53) 
-8.32

>  <cluster_rmsd>  (53) 
1.28

>  <cluster>  (53) 
1

$$$$

     RDKit          3D

 47 50  0  0  0  0  0  0  0  0999 V2000
  140.2360   72.5800  220.8070 O   0  0  0  0  0  0  0  0  0  0  0  0
  139.9330   72.8980  221.9690 C   0  0  0  0  0  0  0  0  0  0  0  0
  139.5160   74.2370  222.2820 N   0  0  0  0  0  0  0  0  0  0  0  0
  139.4600   75.1890  221.2170 C   0  0  0  0  0  0  0  0  0  0  0  0
  140.7600   75.8610  220.9740 C   0  0  0  0  0  0  0  0  0  0  0  0
  141.7970   75.2190  221.2730 O   0  0  0  0  0  0  0  0  0  0  0  0
  140.7600   77.1700  220.4270 N   0  0  0  0  0  0  0  0  0  0  0  0
  139.6380   77.8280  219.7270 C   0  0  0  0  0  0  0  0  0  0  0  0
  140.4250   78.2510  218.4690 C   0  0  0  0  0  0  0  0  0  0  0  0
  141.5430   79.0330  219.1700 C   0  0  0  0  0  0  0  0  0  0  0  0
  141.8110   78.1710  220.3940 C   0  0  1  0  0  0  0  0  0  0  0  0
  141.8260   79.0380  221.6070 C   0  0  0  0  0  0  0  0  0  0  0  0
  141.5580   78.5710  222.8740 C   0  0  0  0  0  0  0  0  0  0  0  0
  141.5900   79.3810  224.0010 C   0  0  0  0  0  0  0  0  0  0  0  0
  141.9030   80.7130  223.8540 C   0  0  0  0  0  0  0  0  0  0  0  0
  142.1690   81.1850  222.6250 N   0  0  0  0  0  0  0  0  0  0  0  0
  142.1390   80.4020  221.5270 C   0  0  0  0  0  0  0  0  0  0  0  0
  139.9910   71.9250  223.0570 C   0  0  0  0  0  0  0  0  0  0  0  0
  139.5260   70.6360  222.8300 C   0  0  0  0  0  0  0  0  0  0  0  0
  139.5840   69.7210  223.8640 C   0  0  0  0  0  0  0  0  0  0  0  0
  140.0790   70.0260  225.1140 C   0  0  0  0  0  0  0  0  0  0  0  0
  140.1250   69.0890  226.1310 C   0  0  0  0  0  0  0  0  0  0  0  0
  140.6370   69.4800  227.3490 C   0  0  0  0  0  0  0  0  0  0  0  0
  140.7120   68.3220  228.6690 Cl  0  0  0  0  0  0  0  0  0  0  0  0
  141.0810   70.7660  227.5200 C   0  0  0  0  0  0  0  0  0  0  0  0
  141.0530   71.7280  226.5320 C   0  0  0  0  0  0  0  0  0  0  0  0
  140.5330   71.3330  225.2960 C   0  0  0  0  0  0  0  0  0  0  0  0
  140.4740   72.2200  224.2790 N   0  0  0  0  0  0  0  0  0  0  0  0
  139.2640   74.4750  223.2870 H   0  0  0  0  0  0  0  0  0  0  0  0
  139.1566   74.6685  220.2966 H   0  0  0  0  0  0  0  0  0  0  0  0
  138.7363   75.9653  221.5061 H   0  0  0  0  0  0  0  0  0  0  0  0
  138.8188   77.1310  219.4965 H   0  0  0  0  0  0  0  0  0  0  0  0
  139.1168   78.6274  220.2741 H   0  0  0  0  0  0  0  0  0  0  0  0
  140.8097   77.3866  217.9079 H   0  0  0  0  0  0  0  0  0  0  0  0
  139.8557   78.8019  217.7058 H   0  0  0  0  0  0  0  0  0  0  0  0
  142.4362   79.1114  218.5328 H   0  0  0  0  0  0  0  0  0  0  0  0
  141.2748   80.0726  219.4093 H   0  0  0  0  0  0  0  0  0  0  0  0
  142.7883   77.6673  220.3595 H   0  0  0  0  0  0  0  0  0  0  0  0
  141.3070   77.5073  222.9991 H   0  0  0  0  0  0  0  0  0  0  0  0
  141.3688   78.9650  224.9950 H   0  0  0  0  0  0  0  0  0  0  0  0
  141.9348   81.3799  224.7282 H   0  0  0  0  0  0  0  0  0  0  0  0
  142.3655   80.8443  220.5456 H   0  0  0  0  0  0  0  0  0  0  0  0
  139.1204   70.3497  221.8484 H   0  0  0  0  0  0  0  0  0  0  0  0
  139.2176   68.7001  223.6808 H   0  0  0  0  0  0  0  0  0  0  0  0
  139.7635   68.0623  225.9719 H   0  0  0  0  0  0  0  0  0  0  0  0
  141.4837   71.0473  228.5042 H   0  0  0  0  0  0  0  0  0  0  0  0
  141.4198   72.7502  226.7071 H   0  0  0  0  0  0  0  0  0  0  0  0
  1  2  2  0
  2  3  1  0
  3  4  1  0
  4  5  1  0
  5  6  2  0
  5  7  1  0
  7  8  1  0
  8  9  1  0
  9 10  1  0
 10 11  1  0
 11 12  1  0
 12 13  2  0
 13 14  1  0
 14 15  2  0
 15 16  1  0
 16 17  2  0
  2 18  1  0
 18 19  2  0
 19 20  1  0
 20 21  2  0
 21 22  1  0
 22 23  2  0
 23 24  1  0
 23 25  1  0
 25 26  2  0
 26 27  1  0
 27 28  2  0
 11  7  1  0
 17 12  1  0
 28 18  1  0
 27 21  1  0
  3 29  1  0
  4 30  1  0
  4 31  1  0
  8 32  1  0
  8 33  1  0
  9 34  1  0
  9 35  1  0
 10 36  1  0
 10 37  1  0
 11 38  1  6
 13 39  1  0
 14 40  1  0
 15 41  1  0
 17 42  1  0
 19 43  1  0
 20 44  1  0
 22 45  1  0
 25 46  1  0
 26 47  1  0
M  END
>  <smiles>  (54) 
O=C(NCC(=O)N1CCCC1c1cccnc1)c1ccc2cc(Cl)ccc2n1

>  <score_type>  (54) 
oracle

>  <origin>  (54) 
autodockgpu

>  <m_score__min__energy>  (54) 
-8.5700000000000003

>  <m_primary>  (54) 
energy

>  <rmsd>  (54) 
1.9349662404689218

>  <m_score__min__rmsd>  (54) 
1.9349662404689218

>  <meeko>  (54) 
{"free_energy": -8.42, "intermolecular_energy": -9.91, "internal_energy": -1.27, "cluster_size": 17, "cluster_id": 2, "rank_in_cluster": 10}

>  <energy>  (54) 
-8.2

>  <cluster_rmsd>  (54) 
1.23

>  <cluster>  (54) 
1

$$$$

     RDKit          3D

 47 50  0  0  0  0  0  0  0  0999 V2000
  139.7440   72.1820  220.7680 O   0  0  0  0  0  0  0  0  0  0  0  0
  139.7160   72.5680  221.9480 C   0  0  0  0  0  0  0  0  0  0  0  0
  139.5600   73.9610  222.2660 N   0  0  0  0  0  0  0  0  0  0  0  0
  139.4370   74.8860  221.1830 C   0  0  0  0  0  0  0  0  0  0  0  0
  139.5750   76.2990  221.6110 C   0  0  0  0  0  0  0  0  0  0  0  0
  139.0550   76.6140  222.7100 O   0  0  0  0  0  0  0  0  0  0  0  0
  140.2750   77.2020  220.7700 N   0  0  0  0  0  0  0  0  0  0  0  0
  139.7440   77.8690  219.5650 C   0  0  0  0  0  0  0  0  0  0  0  0
  140.8890   77.4690  218.6110 C   0  0  0  0  0  0  0  0  0  0  0  0
  142.0560   78.0330  219.4290 C   0  0  0  0  0  0  0  0  0  0  0  0
  141.6410   77.6890  220.8510 C   0  0  1  0  0  0  0  0  0  0  0  0
  141.7770   78.9010  221.7070 C   0  0  0  0  0  0  0  0  0  0  0  0
  141.8720   78.8520  223.0800 C   0  0  0  0  0  0  0  0  0  0  0  0
  142.0150   79.9850  223.8690 C   0  0  0  0  0  0  0  0  0  0  0  0
  142.0650   81.2180  223.2590 C   0  0  0  0  0  0  0  0  0  0  0  0
  141.9760   81.2850  221.9210 N   0  0  0  0  0  0  0  0  0  0  0  0
  141.8370   80.1860  221.1490 C   0  0  0  0  0  0  0  0  0  0  0  0
  139.8420   71.6220  223.0550 C   0  0  0  0  0  0  0  0  0  0  0  0
  139.4370   70.3070  222.8630 C   0  0  0  0  0  0  0  0  0  0  0  0
  139.5580   69.4180  223.9130 C   0  0  0  0  0  0  0  0  0  0  0  0
  140.0620   69.7720  225.1470 C   0  0  0  0  0  0  0  0  0  0  0  0
  140.1720   68.8610  226.1820 C   0  0  0  0  0  0  0  0  0  0  0  0
  140.6870   69.3010  227.3820 C   0  0  0  0  0  0  0  0  0  0  0  0
  140.8440   68.1770  228.7220 Cl  0  0  0  0  0  0  0  0  0  0  0  0
  141.0710   70.6120  227.5180 C   0  0  0  0  0  0  0  0  0  0  0  0
  140.9770   71.5500  226.5110 C   0  0  0  0  0  0  0  0  0  0  0  0
  140.4540   71.1030  225.2930 C   0  0  0  0  0  0  0  0  0  0  0  0
  140.3330   71.9660  224.2610 N   0  0  0  0  0  0  0  0  0  0  0  0
  139.5400   74.2560  223.2870 H   0  0  0  0  0  0  0  0  0  0  0  0
  140.2203   74.6656  220.4428 H   0  0  0  0  0  0  0  0  0  0  0  0
  138.4284   74.7666  220.7605 H   0  0  0  0  0  0  0  0  0  0  0  0
  138.7722   77.4603  219.2511 H   0  0  0  0  0  0  0  0  0  0  0  0
  139.5273   78.9440  219.6516 H   0  0  0  0  0  0  0  0  0  0  0  0
  140.9605   76.3792  218.4800 H   0  0  0  0  0  0  0  0  0  0  0  0
  140.8045   77.8332  217.5765 H   0  0  0  0  0  0  0  0  0  0  0  0
  143.0047   77.5453  219.1605 H   0  0  0  0  0  0  0  0  0  0  0  0
  142.2337   79.1063  219.2663 H   0  0  0  0  0  0  0  0  0  0  0  0
  142.2745   76.9148  221.3086 H   0  0  0  0  0  0  0  0  0  0  0  0
  141.8327   77.8700  223.5741 H   0  0  0  0  0  0  0  0  0  0  0  0
  142.0872   79.8990  224.9633 H   0  0  0  0  0  0  0  0  0  0  0  0
  142.1761   82.1338  223.8582 H   0  0  0  0  0  0  0  0  0  0  0  0
  141.7693   80.3014  220.0572 H   0  0  0  0  0  0  0  0  0  0  0  0
  139.0286   69.9808  221.8951 H   0  0  0  0  0  0  0  0  0  0  0  0
  139.2369   68.3774  223.7576 H   0  0  0  0  0  0  0  0  0  0  0  0
  139.8574   67.8151  226.0509 H   0  0  0  0  0  0  0  0  0  0  0  0
  141.4780   70.9337  228.4880 H   0  0  0  0  0  0  0  0  0  0  0  0
  141.2959   72.5925  226.6577 H   0  0  0  0  0  0  0  0  0  0  0  0
  1  2  2  0
  2  3  1  0
  3  4  1  0
  4  5  1  0
  5  6  2  0
  5  7  1  0
  7  8  1  0
  8  9  1  0
  9 10  1  0
 10 11  1  0
 11 12  1  0
 12 13  2  0
 13 14  1  0
 14 15  2  0
 15 16  1  0
 16 17  2  0
  2 18  1  0
 18 19  2  0
 19 20  1  0
 20 21  2  0
 21 22  1  0
 22 23  2  0
 23 24  1  0
 23 25  1  0
 25 26  2  0
 26 27  1  0
 27 28  2  0
 11  7  1  0
 17 12  1  0
 28 18  1  0
 27 21  1  0
  3 29  1  0
  4 30  1  0
  4 31  1  0
  8 32  1  0
  8 33  1  0
  9 34  1  0
  9 35  1  0
 10 36  1  0
 10 37  1  0
 11 38  1  1
 13 39  1  0
 14 40  1  0
 15 41  1  0
 17 42  1  0
 19 43  1  0
 20 44  1  0
 22 45  1  0
 25 46  1  0
 26 47  1  0
M  END
>  <smiles>  (55) 
O=C(NCC(=O)N1CCCC1c1cccnc1)c1ccc2cc(Cl)ccc2n1

>  <score_type>  (55) 
oracle

>  <origin>  (55) 
autodockgpu

>  <m_score__min__energy>  (55) 
-8.5700000000000003

>  <m_primary>  (55) 
energy

>  <rmsd>  (55) 
1.8149161768439268

>  <m_score__min__rmsd>  (55) 
1.8149161768439268

>  <meeko>  (55) 
{"free_energy": -8.46, "intermolecular_energy": -9.95, "internal_energy": -1.55, "cluster_size": 17, "cluster_id": 2, "rank_in_cluster": 7}

>  <energy>  (55) 
-8.17

>  <cluster_rmsd>  (55) 
1.34

>  <cluster>  (55) 
1

$$$$

     RDKit          3D

 47 50  0  0  0  0  0  0  0  0999 V2000
  139.9570   74.1210  222.3510 O   0  0  0  0  0  0  0  0  0  0  0  0
  139.8500   72.9080  222.1010 C   0  0  0  0  0  0  0  0  0  0  0  0
  139.6440   72.4480  220.7550 N   0  0  0  0  0  0  0  0  0  0  0  0
  139.5670   73.4280  219.7160 C   0  0  0  0  0  0  0  0  0  0  0  0
  140.8410   73.5820  218.9710 C   0  0  0  0  0  0  0  0  0  0  0  0
  141.0340   72.8010  218.0070 O   0  0  0  0  0  0  0  0  0  0  0  0
  141.7540   74.5860  219.3830 N   0  0  0  0  0  0  0  0  0  0  0  0
  141.5760   75.5250  220.5090 C   0  0  0  0  0  0  0  0  0  0  0  0
  141.8700   76.8190  219.7190 C   0  0  0  0  0  0  0  0  0  0  0  0
  143.2480   76.4270  219.1710 C   0  0  0  0  0  0  0  0  0  0  0  0
  143.0470   74.9570  218.8340 C   0  0  1  0  0  0  0  0  0  0  0  0
  144.1710   74.1660  219.4100 C   0  0  0  0  0  0  0  0  0  0  0  0
  144.5230   74.2090  220.7410 C   0  0  0  0  0  0  0  0  0  0  0  0
  145.5620   73.4570  221.2720 C   0  0  0  0  0  0  0  0  0  0  0  0
  146.2780   72.6280  220.4380 C   0  0  0  0  0  0  0  0  0  0  0  0
  145.9480   72.5740  219.1380 N   0  0  0  0  0  0  0  0  0  0  0  0
  144.9390   73.3030  218.6160 C   0  0  0  0  0  0  0  0  0  0  0  0
  139.9280   71.9080  223.1630 C   0  0  0  0  0  0  0  0  0  0  0  0
  139.5030   70.6130  222.8980 C   0  0  0  0  0  0  0  0  0  0  0  0
  139.5790   69.6730  223.9070 C   0  0  0  0  0  0  0  0  0  0  0  0
  140.0570   69.9570  225.1690 C   0  0  0  0  0  0  0  0  0  0  0  0
  140.1230   68.9950  226.1610 C   0  0  0  0  0  0  0  0  0  0  0  0
  140.6150   69.3670  227.3930 C   0  0  0  0  0  0  0  0  0  0  0  0
  140.7150   68.1770  228.6810 Cl  0  0  0  0  0  0  0  0  0  0  0  0
  141.0210   70.6610  227.6020 C   0  0  0  0  0  0  0  0  0  0  0  0
  140.9720   71.6480  226.6390 C   0  0  0  0  0  0  0  0  0  0  0  0
  140.4730   71.2710  225.3890 C   0  0  0  0  0  0  0  0  0  0  0  0
  140.3950   72.1840  224.3960 N   0  0  0  0  0  0  0  0  0  0  0  0
  139.5560   71.4040  220.5760 H   0  0  0  0  0  0  0  0  0  0  0  0
  138.7806   73.1276  219.0079 H   0  0  0  0  0  0  0  0  0  0  0  0
  139.3435   74.3949  220.1905 H   0  0  0  0  0  0  0  0  0  0  0  0
  140.5551   75.5038  220.9179 H   0  0  0  0  0  0  0  0  0  0  0  0
  142.1886   75.3435  221.4044 H   0  0  0  0  0  0  0  0  0  0  0  0
  141.1371   76.9932  218.9174 H   0  0  0  0  0  0  0  0  0  0  0  0
  141.8282   77.7556  220.2944 H   0  0  0  0  0  0  0  0  0  0  0  0
  143.5029   77.0115  218.2746 H   0  0  0  0  0  0  0  0  0  0  0  0
  144.0741   76.6124  219.8733 H   0  0  0  0  0  0  0  0  0  0  0  0
  143.0509   74.7594  217.7519 H   0  0  0  0  0  0  0  0  0  0  0  0
  143.9552   74.8689  221.4134 H   0  0  0  0  0  0  0  0  0  0  0  0
  145.8093   73.5224  222.3419 H   0  0  0  0  0  0  0  0  0  0  0  0
  147.1066   72.0201  220.8304 H   0  0  0  0  0  0  0  0  0  0  0  0
  144.7142   73.2179  217.5426 H   0  0  0  0  0  0  0  0  0  0  0  0
  139.1141   70.3415  221.9055 H   0  0  0  0  0  0  0  0  0  0  0  0
  139.2418   68.6479  223.6936 H   0  0  0  0  0  0  0  0  0  0  0  0
  139.7923   67.9631  225.9717 H   0  0  0  0  0  0  0  0  0  0  0  0
  141.4086   70.9273  228.5964 H   0  0  0  0  0  0  0  0  0  0  0  0
  141.3073   72.6754  226.8439 H   0  0  0  0  0  0  0  0  0  0  0  0
  1  2  2  0
  2  3  1  0
  3  4  1  0
  4  5  1  0
  5  6  2  0
  5  7  1  0
  7  8  1  0
  8  9  1  0
  9 10  1  0
 10 11  1  0
 11 12  1  0
 12 13  2  0
 13 14  1  0
 14 15  2  0
 15 16  1  0
 16 17  2  0
  2 18  1  0
 18 19  2  0
 19 20  1  0
 20 21  2  0
 21 22  1  0
 22 23  2  0
 23 24  1  0
 23 25  1  0
 25 26  2  0
 26 27  1  0
 27 28  2  0
 11  7  1  0
 17 12  1  0
 28 18  1  0
 27 21  1  0
  3 29  1  0
  4 30  1  0
  4 31  1  0
  8 32  1  0
  8 33  1  0
  9 34  1  0
  9 35  1  0
 10 36  1  0
 10 37  1  0
 11 38  1  6
 13 39  1  0
 14 40  1  0
 15 41  1  0
 17 42  1  0
 19 43  1  0
 20 44  1  0
 22 45  1  0
 25 46  1  0
 26 47  1  0
M  END
>  <smiles>  (56) 
O=C(NCC(=O)N1CCCC1c1cccnc1)c1ccc2cc(Cl)ccc2n1

>  <score_type>  (56) 
oracle

>  <origin>  (56) 
autodockgpu

>  <m_score__min__energy>  (56) 
-8.5700000000000003

>  <m_primary>  (56) 
energy

>  <rmsd>  (56) 
2.4705060853598497

>  <m_score__min__rmsd>  (56) 
2.4705060853598497

>  <meeko>  (56) 
{"free_energy": -8.57, "intermolecular_energy": -10.06, "internal_energy": -1.25, "cluster_size": 19, "cluster_id": 1, "rank_in_cluster": 1}

>  <energy>  (56) 
-8.16

>  <cluster_rmsd>  (56) 
1.46

>  <cluster>  (56) 
1

$$$$

     RDKit          3D

 47 50  0  0  0  0  0  0  0  0999 V2000
  141.4850   73.1130  220.7470 O   0  0  0  0  0  0  0  0  0  0  0  0
  140.7760   73.9050  221.3910 C   0  0  0  0  0  0  0  0  0  0  0  0
  139.6810   73.4310  222.1910 N   0  0  0  0  0  0  0  0  0  0  0  0
  139.4340   72.0230  222.2240 C   0  0  0  0  0  0  0  0  0  0  0  0
  139.8230   71.3970  223.5110 C   0  0  0  0  0  0  0  0  0  0  0  0
  140.7470   71.9510  224.1560 O   0  0  0  0  0  0  0  0  0  0  0  0
  139.1420   70.2270  223.9350 N   0  0  0  0  0  0  0  0  0  0  0  0
  138.9040   69.0120  223.1310 C   0  0  0  0  0  0  0  0  0  0  0  0
  137.3820   68.9240  223.3730 C   0  0  0  0  0  0  0  0  0  0  0  0
  137.4090   68.9170  224.9070 C   0  0  0  0  0  0  0  0  0  0  0  0
  138.5130   69.9200  225.2070 C   0  0  1  0  0  0  0  0  0  0  0  0
  139.4570   69.3250  226.1940 C   0  0  0  0  0  0  0  0  0  0  0  0
  139.9720   70.0230  227.2640 C   0  0  0  0  0  0  0  0  0  0  0  0
  140.8390   69.4570  228.1890 C   0  0  0  0  0  0  0  0  0  0  0  0
  141.2060   68.1390  228.0370 C   0  0  0  0  0  0  0  0  0  0  0  0
  140.7120   67.4430  227.0000 N   0  0  0  0  0  0  0  0  0  0  0  0
  139.8690   67.9890  226.0980 C   0  0  0  0  0  0  0  0  0  0  0  0
  141.0290   75.3430  221.3570 C   0  0  0  0  0  0  0  0  0  0  0  0
  141.9260   75.8450  220.4220 C   0  0  0  0  0  0  0  0  0  0  0  0
  142.1610   77.2060  220.3960 C   0  0  0  0  0  0  0  0  0  0  0  0
  141.5490   78.0940  221.2540 C   0  0  0  0  0  0  0  0  0  0  0  0
  141.8020   79.4530  221.2050 C   0  0  0  0  0  0  0  0  0  0  0  0
  141.1460   80.2680  222.1010 C   0  0  0  0  0  0  0  0  0  0  0  0
  141.4390   82.0000  222.0750 Cl  0  0  0  0  0  0  0  0  0  0  0  0
  140.2700   79.7200  223.0050 C   0  0  0  0  0  0  0  0  0  0  0  0
  139.9900   78.3720  223.0850 C   0  0  0  0  0  0  0  0  0  0  0  0
  140.6560   77.5440  222.1760 C   0  0  0  0  0  0  0  0  0  0  0  0
  140.4330   76.2120  222.1940 N   0  0  0  0  0  0  0  0  0  0  0  0
  139.0950   74.1360  222.7290 H   0  0  0  0  0  0  0  0  0  0  0  0
  138.3597   71.8516  222.0613 H   0  0  0  0  0  0  0  0  0  0  0  0
  140.0471   71.5626  221.4353 H   0  0  0  0  0  0  0  0  0  0  0  0
  139.1541   69.1539  222.0692 H   0  0  0  0  0  0  0  0  0  0  0  0
  139.4971   68.1234  223.3929 H   0  0  0  0  0  0  0  0  0  0  0  0
  136.8451   69.7953  222.9698 H   0  0  0  0  0  0  0  0  0  0  0  0
  136.8657   68.0781  222.8957 H   0  0  0  0  0  0  0  0  0  0  0  0
  136.4461   69.2451  225.3254 H   0  0  0  0  0  0  0  0  0  0  0  0
  137.5820   67.9223  225.3436 H   0  0  0  0  0  0  0  0  0  0  0  0
  138.1381   70.8505  225.6582 H   0  0  0  0  0  0  0  0  0  0  0  0
  139.6832   71.0767  227.3914 H   0  0  0  0  0  0  0  0  0  0  0  0
  141.2262   70.0519  229.0293 H   0  0  0  0  0  0  0  0  0  0  0  0
  141.8925   67.6637  228.7531 H   0  0  0  0  0  0  0  0  0  0  0  0
  139.4967   67.3706  225.2680 H   0  0  0  0  0  0  0  0  0  0  0  0
  142.4380   75.1730  219.7176 H   0  0  0  0  0  0  0  0  0  0  0  0
  142.8712   77.6002  219.6543 H   0  0  0  0  0  0  0  0  0  0  0  0
  142.5070   79.8710  220.4714 H   0  0  0  0  0  0  0  0  0  0  0  0
  139.7611   80.3965  223.7074 H   0  0  0  0  0  0  0  0  0  0  0  0
  139.2812   77.9699  223.8238 H   0  0  0  0  0  0  0  0  0  0  0  0
  1  2  2  0
  2  3  1  0
  3  4  1  0
  4  5  1  0
  5  6  2  0
  5  7  1  0
  7  8  1  0
  8  9  1  0
  9 10  1  0
 10 11  1  0
 11 12  1  0
 12 13  2  0
 13 14  1  0
 14 15  2  0
 15 16  1  0
 16 17  2  0
  2 18  1  0
 18 19  2  0
 19 20  1  0
 20 21  2  0
 21 22  1  0
 22 23  2  0
 23 24  1  0
 23 25  1  0
 25 26  2  0
 26 27  1  0
 27 28  2  0
 11  7  1  0
 17 12  1  0
 28 18  1  0
 27 21  1  0
  3 29  1  0
  4 30  1  0
  4 31  1  0
  8 32  1  0
  8 33  1  0
  9 34  1  0
  9 35  1  0
 10 36  1  0
 10 37  1  0
 11 38  1  1
 13 39  1  0
 14 40  1  0
 15 41  1  0
 17 42  1  0
 19 43  1  0
 20 44  1  0
 22 45  1  0
 25 46  1  0
 26 47  1  0
M  END
>  <smiles>  (57) 
O=C(NCC(=O)N1CCCC1c1cccnc1)c1ccc2cc(Cl)ccc2n1

>  <score_type>  (57) 
oracle

>  <origin>  (57) 
autodockgpu

>  <m_score__min__energy>  (57) 
-8.5700000000000003

>  <m_primary>  (57) 
energy

>  <rmsd>  (57) 
8.422726038316704

>  <m_score__min__rmsd>  (57) 
8.422726038316704

>  <meeko>  (57) 
{"free_energy": -8.15, "intermolecular_energy": -9.64, "internal_energy": -1.35, "cluster_size": 3, "cluster_id": 4, "rank_in_cluster": 1}

>  <energy>  (57) 
-8.15

>  <cluster_rmsd>  (57) 
1.5

>  <cluster>  (57) 
1

$$$$

     RDKit          3D

 47 50  0  0  0  0  0  0  0  0999 V2000
  140.7670   72.5220  220.9290 O   0  0  0  0  0  0  0  0  0  0  0  0
  140.1350   72.7500  221.9740 C   0  0  0  0  0  0  0  0  0  0  0  0
  139.4020   73.9750  222.1410 N   0  0  0  0  0  0  0  0  0  0  0  0
  139.4220   74.9200  221.0680 C   0  0  0  0  0  0  0  0  0  0  0  0
  139.3320   76.3260  221.5340 C   0  0  0  0  0  0  0  0  0  0  0  0
  138.6250   76.5440  222.5490 O   0  0  0  0  0  0  0  0  0  0  0  0
  140.0370   77.3280  220.8200 N   0  0  0  0  0  0  0  0  0  0  0  0
  139.4700   78.2550  219.8190 C   0  0  0  0  0  0  0  0  0  0  0  0
  140.4990   77.9750  218.7030 C   0  0  0  0  0  0  0  0  0  0  0  0
  141.7710   78.2870  219.5010 C   0  0  0  0  0  0  0  0  0  0  0  0
  141.4410   77.6960  220.8640 C   0  0  1  0  0  0  0  0  0  0  0  0
  141.7460   78.7030  221.9190 C   0  0  0  0  0  0  0  0  0  0  0  0
  142.2130   79.9690  221.6440 C   0  0  0  0  0  0  0  0  0  0  0  0
  142.4790   80.9080  222.6320 C   0  0  0  0  0  0  0  0  0  0  0  0
  142.2690   80.5650  223.9490 C   0  0  0  0  0  0  0  0  0  0  0  0
  141.8120   79.3350  224.2350 N   0  0  0  0  0  0  0  0  0  0  0  0
  141.5520   78.4200  223.2780 C   0  0  0  0  0  0  0  0  0  0  0  0
  140.1160   71.7850  223.0700 C   0  0  0  0  0  0  0  0  0  0  0  0
  139.5850   70.5210  222.8420 C   0  0  0  0  0  0  0  0  0  0  0  0
  139.5700   69.6140  223.8830 C   0  0  0  0  0  0  0  0  0  0  0  0
  140.0550   69.9000  225.1420 C   0  0  0  0  0  0  0  0  0  0  0  0
  140.0280   68.9710  226.1660 C   0  0  0  0  0  0  0  0  0  0  0  0
  140.5350   69.3420  227.3920 C   0  0  0  0  0  0  0  0  0  0  0  0
  140.5180   68.1930  228.7210 Cl  0  0  0  0  0  0  0  0  0  0  0  0
  141.0470   70.6030  227.5630 C   0  0  0  0  0  0  0  0  0  0  0  0
  141.0930   71.5570  226.5680 C   0  0  0  0  0  0  0  0  0  0  0  0
  140.5780   71.1810  225.3240 C   0  0  0  0  0  0  0  0  0  0  0  0
  140.5900   72.0620  224.3000 N   0  0  0  0  0  0  0  0  0  0  0  0
  138.8730   74.1380  223.0490 H   0  0  0  0  0  0  0  0  0  0  0  0
  140.3606   74.7953  220.5082 H   0  0  0  0  0  0  0  0  0  0  0  0
  138.5408   74.7239  220.4394 H   0  0  0  0  0  0  0  0  0  0  0  0
  138.4455   77.9826  219.5253 H   0  0  0  0  0  0  0  0  0  0  0  0
  139.3518   79.3037  220.1291 H   0  0  0  0  0  0  0  0  0  0  0  0
  140.4680   76.9301  218.3605 H   0  0  0  0  0  0  0  0  0  0  0  0
  140.3642   78.5410  217.7695 H   0  0  0  0  0  0  0  0  0  0  0  0
  142.6514   77.7999  219.0565 H   0  0  0  0  0  0  0  0  0  0  0  0
  142.0252   79.3568  219.5308 H   0  0  0  0  0  0  0  0  0  0  0  0
  142.0402   76.8051  221.1034 H   0  0  0  0  0  0  0  0  0  0  0  0
  142.3831   80.2492  220.5940 H   0  0  0  0  0  0  0  0  0  0  0  0
  142.8511   81.9087  222.3671 H   0  0  0  0  0  0  0  0  0  0  0  0
  142.4723   81.2868  224.7538 H   0  0  0  0  0  0  0  0  0  0  0  0
  141.1787   77.4278  223.5715 H   0  0  0  0  0  0  0  0  0  0  0  0
  139.1854   70.2491  221.8539 H   0  0  0  0  0  0  0  0  0  0  0  0
  139.1505   68.6139  223.6991 H   0  0  0  0  0  0  0  0  0  0  0  0
  139.6136   67.9647  226.0062 H   0  0  0  0  0  0  0  0  0  0  0  0
  141.4448   70.8694  228.5533 H   0  0  0  0  0  0  0  0  0  0  0  0
  141.5120   72.5588  226.7437 H   0  0  0  0  0  0  0  0  0  0  0  0
  1  2  2  0
  2  3  1  0
  3  4  1  0
  4  5  1  0
  5  6  2  0
  5  7  1  0
  7  8  1  0
  8  9  1  0
  9 10  1  0
 10 11  1  0
 11 12  1  0
 12 13  2  0
 13 14  1  0
 14 15  2  0
 15 16  1  0
 16 17  2  0
  2 18  1  0
 18 19  2  0
 19 20  1  0
 20 21  2  0
 21 22  1  0
 22 23  2  0
 23 24  1  0
 23 25  1  0
 25 26  2  0
 26 27  1  0
 27 28  2  0
 11  7  1  0
 17 12  1  0
 28 18  1  0
 27 21  1  0
  3 29  1  0
  4 30  1  0
  4 31  1  0
  8 32  1  0
  8 33  1  0
  9 34  1  0
  9 35  1  0
 10 36  1  0
 10 37  1  0
 11 38  1  1
 13 39  1  0
 14 40  1  0
 15 41  1  0
 17 42  1  0
 19 43  1  0
 20 44  1  0
 22 45  1  0
 25 46  1  0
 26 47  1  0
M  END
>  <smiles>  (58) 
O=C(NCC(=O)N1CCCC1c1cccnc1)c1ccc2cc(Cl)ccc2n1

>  <score_type>  (58) 
oracle

>  <origin>  (58) 
autodockgpu

>  <m_score__min__energy>  (58) 
-8.5700000000000003

>  <m_primary>  (58) 
energy

>  <rmsd>  (58) 
1.9744801777913794

>  <m_score__min__rmsd>  (58) 
1.9744801777913794

>  <meeko>  (58) 
{"free_energy": -8.51, "intermolecular_energy": -10.0, "internal_energy": -1.42, "cluster_size": 17, "cluster_id": 2, "rank_in_cluster": 2}

>  <energy>  (58) 
-8.13

>  <cluster_rmsd>  (58) 
1.48

>  <cluster>  (58) 
1

$$$$

     RDKit          3D

 47 50  0  0  0  0  0  0  0  0999 V2000
  134.7540   68.5000  225.3890 O   0  0  0  0  0  0  0  0  0  0  0  0
  135.0390   69.6770  225.1110 C   0  0  0  0  0  0  0  0  0  0  0  0
  136.0820   69.9820  224.1710 N   0  0  0  0  0  0  0  0  0  0  0  0
  136.7810   68.8900  223.5670 C   0  0  0  0  0  0  0  0  0  0  0  0
  138.2370   68.9080  223.8510 C   0  0  0  0  0  0  0  0  0  0  0  0
  138.7870   67.8010  224.0710 O   0  0  0  0  0  0  0  0  0  0  0  0
  138.9160   70.1530  223.8570 N   0  0  0  0  0  0  0  0  0  0  0  0
  138.3620   71.4560  223.4350 C   0  0  0  0  0  0  0  0  0  0  0  0
  139.5010   71.8370  222.4660 C   0  0  0  0  0  0  0  0  0  0  0  0
  140.6710   71.7080  223.4490 C   0  0  0  0  0  0  0  0  0  0  0  0
  140.2760   70.4760  224.2490 C   0  0  1  0  0  0  0  0  0  0  0  0
  140.4070   70.7750  225.7030 C   0  0  0  0  0  0  0  0  0  0  0  0
  139.8400   70.0000  226.6890 C   0  0  0  0  0  0  0  0  0  0  0  0
  139.9800   70.2760  228.0420 C   0  0  0  0  0  0  0  0  0  0  0  0
  140.7180   71.3730  228.4240 C   0  0  0  0  0  0  0  0  0  0  0  0
  141.2790   72.1400  227.4750 N   0  0  0  0  0  0  0  0  0  0  0  0
  141.1460   71.8750  226.1580 C   0  0  0  0  0  0  0  0  0  0  0  0
  134.3250   70.7920  225.7290 C   0  0  0  0  0  0  0  0  0  0  0  0
  133.2850   70.5180  226.6080 C   0  0  0  0  0  0  0  0  0  0  0  0
  132.6140   71.5770  227.1880 C   0  0  0  0  0  0  0  0  0  0  0  0
  132.9260   72.8960  226.9380 C   0  0  0  0  0  0  0  0  0  0  0  0
  132.2370   73.9370  227.5340 C   0  0  0  0  0  0  0  0  0  0  0  0
  132.6170   75.2260  227.2260 C   0  0  0  0  0  0  0  0  0  0  0  0
  131.7680   76.5780  227.9600 Cl  0  0  0  0  0  0  0  0  0  0  0  0
  133.6510   75.4400  226.3500 C   0  0  0  0  0  0  0  0  0  0  0  0
  134.3620   74.4310  225.7370 C   0  0  0  0  0  0  0  0  0  0  0  0
  133.9770   73.1230  226.0480 C   0  0  0  0  0  0  0  0  0  0  0  0
  134.6280   72.0810  225.4860 N   0  0  0  0  0  0  0  0  0  0  0  0
  136.3000   71.0000  223.9570 H   0  0  0  0  0  0  0  0  0  0  0  0
  136.3603   67.9489  223.9507 H   0  0  0  0  0  0  0  0  0  0  0  0
  136.6562   68.9805  222.4779 H   0  0  0  0  0  0  0  0  0  0  0  0
  137.3918   71.3563  222.9262 H   0  0  0  0  0  0  0  0  0  0  0  0
  138.1326   72.1764  224.2340 H   0  0  0  0  0  0  0  0  0  0  0  0
  139.5846   71.1336  221.6244 H   0  0  0  0  0  0  0  0  0  0  0  0
  139.4000   72.8091  221.9613 H   0  0  0  0  0  0  0  0  0  0  0  0
  141.6227   71.5529  222.9197 H   0  0  0  0  0  0  0  0  0  0  0  0
  140.8338   72.6043  224.0655 H   0  0  0  0  0  0  0  0  0  0  0  0
  140.9240   69.6094  224.0513 H   0  0  0  0  0  0  0  0  0  0  0  0
  139.2488   69.1216  226.3910 H   0  0  0  0  0  0  0  0  0  0  0  0
  139.5089   69.6287  228.7964 H   0  0  0  0  0  0  0  0  0  0  0  0
  140.8462   71.6175  229.4888 H   0  0  0  0  0  0  0  0  0  0  0  0
  141.6290   72.5380  225.4251 H   0  0  0  0  0  0  0  0  0  0  0  0
  133.0018   69.4801  226.8373 H   0  0  0  0  0  0  0  0  0  0  0  0
  131.7905   71.3569  227.8833 H   0  0  0  0  0  0  0  0  0  0  0  0
  131.4103   73.7421  228.2330 H   0  0  0  0  0  0  0  0  0  0  0  0
  133.9294   76.4798  226.1232 H   0  0  0  0  0  0  0  0  0  0  0  0
  135.1872   74.6429  225.0412 H   0  0  0  0  0  0  0  0  0  0  0  0
  1  2  2  0
  2  3  1  0
  3  4  1  0
  4  5  1  0
  5  6  2  0
  5  7  1  0
  7  8  1  0
  8  9  1  0
  9 10  1  0
 10 11  1  0
 11 12  1  0
 12 13  2  0
 13 14  1  0
 14 15  2  0
 15 16  1  0
 16 17  2  0
  2 18  1  0
 18 19  2  0
 19 20  1  0
 20 21  2  0
 21 22  1  0
 22 23  2  0
 23 24  1  0
 23 25  1  0
 25 26  2  0
 26 27  1  0
 27 28  2  0
 11  7  1  0
 17 12  1  0
 28 18  1  0
 27 21  1  0
  3 29  1  0
  4 30  1  0
  4 31  1  0
  8 32  1  0
  8 33  1  0
  9 34  1  0
  9 35  1  0
 10 36  1  0
 10 37  1  0
 11 38  1  6
 13 39  1  0
 14 40  1  0
 15 41  1  0
 17 42  1  0
 19 43  1  0
 20 44  1  0
 22 45  1  0
 25 46  1  0
 26 47  1  0
M  END
>  <smiles>  (59) 
O=C(NCC(=O)N1CCCC1c1cccnc1)c1ccc2cc(Cl)ccc2n1

>  <score_type>  (59) 
oracle

>  <origin>  (59) 
autodockgpu

>  <m_score__min__energy>  (59) 
-8.5700000000000003

>  <m_primary>  (59) 
energy

>  <rmsd>  (59) 
7.212799331302957

>  <m_score__min__rmsd>  (59) 
7.212799331302957

>  <meeko>  (59) 
{"free_energy": -8.17, "intermolecular_energy": -9.66, "internal_energy": -1.46, "cluster_size": 8, "cluster_id": 3, "rank_in_cluster": 3}

>  <energy>  (59) 
-8.13

>  <cluster_rmsd>  (59) 
1.47

>  <cluster>  (59) 
1

$$$$

     RDKit          3D

 47 50  0  0  0  0  0  0  0  0999 V2000
  140.5260   72.3110  220.6570 O   0  0  0  0  0  0  0  0  0  0  0  0
  140.0500   72.6510  221.7530 C   0  0  0  0  0  0  0  0  0  0  0  0
  139.4800   73.9570  221.9380 N   0  0  0  0  0  0  0  0  0  0  0  0
  139.4790   74.8520  220.8220 C   0  0  0  0  0  0  0  0  0  0  0  0
  140.2670   76.0840  221.0680 C   0  0  0  0  0  0  0  0  0  0  0  0
  141.4780   76.0620  220.7360 O   0  0  0  0  0  0  0  0  0  0  0  0
  139.6200   77.2020  221.6560 N   0  0  0  0  0  0  0  0  0  0  0  0
  138.5890   77.1620  222.7120 C   0  0  0  0  0  0  0  0  0  0  0  0
  137.5530   78.0520  221.9940 C   0  0  0  0  0  0  0  0  0  0  0  0
  138.4500   79.2720  221.7510 C   0  0  0  0  0  0  0  0  0  0  0  0
  139.7770   78.6210  221.3900 C   0  0  1  0  0  0  0  0  0  0  0  0
  140.8630   79.2470  222.1950 C   0  0  0  0  0  0  0  0  0  0  0  0
  141.5660   80.3570  221.7830 C   0  0  0  0  0  0  0  0  0  0  0  0
  142.5660   80.9450  222.5460 C   0  0  0  0  0  0  0  0  0  0  0  0
  142.8750   80.3990  223.7720 C   0  0  0  0  0  0  0  0  0  0  0  0
  142.1980   79.3180  224.1900 N   0  0  0  0  0  0  0  0  0  0  0  0
  141.2250   78.7430  223.4510 C   0  0  0  0  0  0  0  0  0  0  0  0
  140.0520   71.7370  222.8930 C   0  0  0  0  0  0  0  0  0  0  0  0
  139.5210   70.4630  222.7330 C   0  0  0  0  0  0  0  0  0  0  0  0
  139.5260   69.6040  223.8140 C   0  0  0  0  0  0  0  0  0  0  0  0
  140.0330   69.9490  225.0500 C   0  0  0  0  0  0  0  0  0  0  0  0
  140.0250   69.0680  226.1160 C   0  0  0  0  0  0  0  0  0  0  0  0
  140.5520   69.4970  227.3150 C   0  0  0  0  0  0  0  0  0  0  0  0
  140.5620   68.4100  228.6950 Cl  0  0  0  0  0  0  0  0  0  0  0  0
  141.0630   70.7660  227.4190 C   0  0  0  0  0  0  0  0  0  0  0  0
  141.0900   71.6720  226.3800 C   0  0  0  0  0  0  0  0  0  0  0  0
  140.5550   71.2380  225.1630 C   0  0  0  0  0  0  0  0  0  0  0  0
  140.5460   72.0710  224.1000 N   0  0  0  0  0  0  0  0  0  0  0  0
  139.0820   74.2150  222.8890 H   0  0  0  0  0  0  0  0  0  0  0  0
  139.9064   74.3299  219.9533 H   0  0  0  0  0  0  0  0  0  0  0  0
  138.4371   75.1571  220.6452 H   0  0  0  0  0  0  0  0  0  0  0  0
  138.2143   76.1444  222.8964 H   0  0  0  0  0  0  0  0  0  0  0  0
  138.9005   77.4809  223.7176 H   0  0  0  0  0  0  0  0  0  0  0  0
  137.1975   77.6027  221.0549 H   0  0  0  0  0  0  0  0  0  0  0  0
  136.6182   78.2420  222.5418 H   0  0  0  0  0  0  0  0  0  0  0  0
  138.0696   79.8896  220.9241 H   0  0  0  0  0  0  0  0  0  0  0  0
  138.5106   79.9565  222.6100 H   0  0  0  0  0  0  0  0  0  0  0  0
  140.0530   78.7628  220.3347 H   0  0  0  0  0  0  0  0  0  0  0  0
  141.3243   80.7981  220.8047 H   0  0  0  0  0  0  0  0  0  0  0  0
  143.1023   81.8319  222.1775 H   0  0  0  0  0  0  0  0  0  0  0  0
  143.6636   80.8415  224.3983 H   0  0  0  0  0  0  0  0  0  0  0  0
  140.7042   77.8577  223.8446 H   0  0  0  0  0  0  0  0  0  0  0  0
  139.1053   70.1454  221.7654 H   0  0  0  0  0  0  0  0  0  0  0  0
  139.1055   68.5960  223.6835 H   0  0  0  0  0  0  0  0  0  0  0  0
  139.6102   68.0547  226.0100 H   0  0  0  0  0  0  0  0  0  0  0  0
  141.4758   71.0794  228.3893 H   0  0  0  0  0  0  0  0  0  0  0  0
  141.5096   72.6815  226.5018 H   0  0  0  0  0  0  0  0  0  0  0  0
  1  2  2  0
  2  3  1  0
  3  4  1  0
  4  5  1  0
  5  6  2  0
  5  7  1  0
  7  8  1  0
  8  9  1  0
  9 10  1  0
 10 11  1  0
 11 12  1  0
 12 13  2  0
 13 14  1  0
 14 15  2  0
 15 16  1  0
 16 17  2  0
  2 18  1  0
 18 19  2  0
 19 20  1  0
 20 21  2  0
 21 22  1  0
 22 23  2  0
 23 24  1  0
 23 25  1  0
 25 26  2  0
 26 27  1  0
 27 28  2  0
 11  7  1  0
 17 12  1  0
 28 18  1  0
 27 21  1  0
  3 29  1  0
  4 30  1  0
  4 31  1  0
  8 32  1  0
  8 33  1  0
  9 34  1  0
  9 35  1  0
 10 36  1  0
 10 37  1  0
 11 38  1  6
 13 39  1  0
 14 40  1  0
 15 41  1  0
 17 42  1  0
 19 43  1  0
 20 44  1  0
 22 45  1  0
 25 46  1  0
 26 47  1  0
M  END
>  <smiles>  (60) 
O=C(NCC(=O)N1CCCC1c1cccnc1)c1ccc2cc(Cl)ccc2n1

>  <score_type>  (60) 
oracle

>  <origin>  (60) 
autodockgpu

>  <m_score__min__energy>  (60) 
-8.5700000000000003

>  <m_primary>  (60) 
energy

>  <rmsd>  (60) 
2.824068453410008

>  <m_score__min__rmsd>  (60) 
2.824068453410008

>  <meeko>  (60) 
{"free_energy": -8.34, "intermolecular_energy": -9.84, "internal_energy": -1.13, "cluster_size": 17, "cluster_id": 2, "rank_in_cluster": 13}

>  <energy>  (60) 
-8.12

>  <cluster_rmsd>  (60) 
1.49

>  <cluster>  (60) 
1

$$$$

     RDKit          3D

 47 50  0  0  0  0  0  0  0  0999 V2000
  139.1420   71.5430  220.8530 O   0  0  0  0  0  0  0  0  0  0  0  0
  139.4500   72.0190  221.9580 C   0  0  0  0  0  0  0  0  0  0  0  0
  139.6450   73.4330  222.1240 N   0  0  0  0  0  0  0  0  0  0  0  0
  139.4750   74.2730  220.9790 C   0  0  0  0  0  0  0  0  0  0  0  0
  140.5390   74.0860  219.9620 C   0  0  0  0  0  0  0  0  0  0  0  0
  140.4370   73.0880  219.2080 O   0  0  0  0  0  0  0  0  0  0  0  0
  141.5960   75.0310  219.9000 N   0  0  0  0  0  0  0  0  0  0  0  0
  141.7720   76.2090  220.7730 C   0  0  0  0  0  0  0  0  0  0  0  0
  141.9510   77.2490  219.6480 C   0  0  0  0  0  0  0  0  0  0  0  0
  143.1170   76.5730  218.9160 C   0  0  0  0  0  0  0  0  0  0  0  0
  142.7340   75.1040  219.0010 C   0  0  1  0  0  0  0  0  0  0  0  0
  143.9070   74.3210  219.4830 C   0  0  0  0  0  0  0  0  0  0  0  0
  144.1750   74.1020  220.8160 C   0  0  0  0  0  0  0  0  0  0  0  0
  145.2610   73.3570  221.2570 C   0  0  0  0  0  0  0  0  0  0  0  0
  146.1140   72.8100  220.3260 C   0  0  0  0  0  0  0  0  0  0  0  0
  145.8670   73.0120  219.0220 N   0  0  0  0  0  0  0  0  0  0  0  0
  144.8130   73.7350  218.5880 C   0  0  0  0  0  0  0  0  0  0  0  0
  139.6240   71.1610  223.1270 C   0  0  0  0  0  0  0  0  0  0  0  0
  139.2010   69.8400  223.0600 C   0  0  0  0  0  0  0  0  0  0  0  0
  139.3680   69.0340  224.1690 C   0  0  0  0  0  0  0  0  0  0  0  0
  139.9360   69.4770  225.3450 C   0  0  0  0  0  0  0  0  0  0  0  0
  140.0920   68.6480  226.4410 C   0  0  0  0  0  0  0  0  0  0  0  0
  140.6700   69.1740  227.5750 C   0  0  0  0  0  0  0  0  0  0  0  0
  140.8860   68.1560  228.9900 Cl  0  0  0  0  0  0  0  0  0  0  0  0
  141.0690   70.4870  227.5890 C   0  0  0  0  0  0  0  0  0  0  0  0
  140.9320   71.3450  226.5180 C   0  0  0  0  0  0  0  0  0  0  0  0
  140.3450   70.8110  225.3670 C   0  0  0  0  0  0  0  0  0  0  0  0
  140.1780   71.5920  224.2770 N   0  0  0  0  0  0  0  0  0  0  0  0
  139.9080   73.8070  223.0840 H   0  0  0  0  0  0  0  0  0  0  0  0
  138.5036   74.0437  220.5167 H   0  0  0  0  0  0  0  0  0  0  0  0
  139.5284   75.3161  221.3243 H   0  0  0  0  0  0  0  0  0  0  0  0
  140.8865   76.4088  221.3943 H   0  0  0  0  0  0  0  0  0  0  0  0
  142.5743   76.1512  221.5233 H   0  0  0  0  0  0  0  0  0  0  0  0
  141.0558   77.3360  219.0147 H   0  0  0  0  0  0  0  0  0  0  0  0
  142.1209   78.2864  219.9721 H   0  0  0  0  0  0  0  0  0  0  0  0
  143.1816   76.9094  217.8707 H   0  0  0  0  0  0  0  0  0  0  0  0
  144.1031   76.8001  219.3474 H   0  0  0  0  0  0  0  0  0  0  0  0
  142.4538   74.6752  218.0275 H   0  0  0  0  0  0  0  0  0  0  0  0
  143.4979   74.5371  221.5658 H   0  0  0  0  0  0  0  0  0  0  0  0
  145.4363   73.2067  222.3325 H   0  0  0  0  0  0  0  0  0  0  0  0
  146.9839   72.2170  220.6450 H   0  0  0  0  0  0  0  0  0  0  0  0
  144.6614   73.8675  217.5066 H   0  0  0  0  0  0  0  0  0  0  0  0
  138.7422   69.4436  222.1422 H   0  0  0  0  0  0  0  0  0  0  0  0
  139.0317   67.9882  224.1115 H   0  0  0  0  0  0  0  0  0  0  0  0
  139.7638   67.5986  226.4079 H   0  0  0  0  0  0  0  0  0  0  0  0
  141.5256   70.8787  228.5099 H   0  0  0  0  0  0  0  0  0  0  0  0
  141.2662   72.3919  226.5667 H   0  0  0  0  0  0  0  0  0  0  0  0
  1  2  2  0
  2  3  1  0
  3  4  1  0
  4  5  1  0
  5  6  2  0
  5  7  1  0
  7  8  1  0
  8  9  1  0
  9 10  1  0
 10 11  1  0
 11 12  1  0
 12 13  2  0
 13 14  1  0
 14 15  2  0
 15 16  1  0
 16 17  2  0
  2 18  1  0
 18 19  2  0
 19 20  1  0
 20 21  2  0
 21 22  1  0
 22 23  2  0
 23 24  1  0
 23 25  1  0
 25 26  2  0
 26 27  1  0
 27 28  2  0
 11  7  1  0
 17 12  1  0
 28 18  1  0
 27 21  1  0
  3 29  1  0
  4 30  1  0
  4 31  1  0
  8 32  1  0
  8 33  1  0
  9 34  1  0
  9 35  1  0
 10 36  1  0
 10 37  1  0
 11 38  1  6
 13 39  1  0
 14 40  1  0
 15 41  1  0
 17 42  1  0
 19 43  1  0
 20 44  1  0
 22 45  1  0
 25 46  1  0
 26 47  1  0
M  END
>  <smiles>  (61) 
O=C(NCC(=O)N1CCCC1c1cccnc1)c1ccc2cc(Cl)ccc2n1

>  <score_type>  (61) 
oracle

>  <origin>  (61) 
autodockgpu

>  <m_score__min__energy>  (61) 
-8.5700000000000003

>  <m_primary>  (61) 
energy

>  <rmsd>  (61) 
2.17331201292573

>  <m_score__min__rmsd>  (61) 
2.17331201292573

>  <meeko>  (61) 
{"free_energy": -8.12, "intermolecular_energy": -9.61, "internal_energy": -1.38, "cluster_size": 19, "cluster_id": 1, "rank_in_cluster": 11}

>  <energy>  (61) 
-8.12

>  <cluster_rmsd>  (61) 
1.12

>  <cluster>  (61) 
1

$$$$

     RDKit          3D

 47 50  0  0  0  0  0  0  0  0999 V2000
  134.8530   68.5350  225.4250 O   0  0  0  0  0  0  0  0  0  0  0  0
  135.0120   69.7110  225.0550 C   0  0  0  0  0  0  0  0  0  0  0  0
  135.9590   70.0380  224.0250 N   0  0  0  0  0  0  0  0  0  0  0  0
  136.7090   68.9710  223.4400 C   0  0  0  0  0  0  0  0  0  0  0  0
  138.1290   68.9580  223.8720 C   0  0  0  0  0  0  0  0  0  0  0  0
  138.5970   67.8570  224.2540 O   0  0  0  0  0  0  0  0  0  0  0  0
  138.8650   70.1700  223.8310 N   0  0  0  0  0  0  0  0  0  0  0  0
  138.3750   71.4780  223.3520 C   0  0  0  0  0  0  0  0  0  0  0  0
  139.5350   71.7650  222.3750 C   0  0  0  0  0  0  0  0  0  0  0  0
  140.6940   71.6220  223.3690 C   0  0  0  0  0  0  0  0  0  0  0  0
  140.2380   70.4440  224.2170 C   0  0  1  0  0  0  0  0  0  0  0  0
  140.3770   70.7970  225.6580 C   0  0  0  0  0  0  0  0  0  0  0  0
  139.8260   70.0510  226.6770 C   0  0  0  0  0  0  0  0  0  0  0  0
  139.9740   70.3770  228.0180 C   0  0  0  0  0  0  0  0  0  0  0  0
  140.7030   71.4960  228.3540 C   0  0  0  0  0  0  0  0  0  0  0  0
  141.2480   72.2340  227.3740 N   0  0  0  0  0  0  0  0  0  0  0  0
  141.1070   71.9210  226.0680 C   0  0  0  0  0  0  0  0  0  0  0  0
  134.2450   70.8010  225.6540 C   0  0  0  0  0  0  0  0  0  0  0  0
  133.1430   70.4920  226.4410 C   0  0  0  0  0  0  0  0  0  0  0  0
  132.4220   71.5280  227.0030 C   0  0  0  0  0  0  0  0  0  0  0  0
  132.7420   72.8570  226.8210 C   0  0  0  0  0  0  0  0  0  0  0  0
  132.0030   73.8730  227.3970 C   0  0  0  0  0  0  0  0  0  0  0  0
  132.3950   75.1730  227.1620 C   0  0  0  0  0  0  0  0  0  0  0  0
  131.4830   76.4960  227.8730 Cl  0  0  0  0  0  0  0  0  0  0  0  0
  133.4910   75.4220  226.3750 C   0  0  0  0  0  0  0  0  0  0  0  0
  134.2540   74.4370  225.7840 C   0  0  0  0  0  0  0  0  0  0  0  0
  133.8570   73.1180  226.0220 C   0  0  0  0  0  0  0  0  0  0  0  0
  134.5560   72.0990  225.4770 N   0  0  0  0  0  0  0  0  0  0  0  0
  136.0700   71.0540  223.7330 H   0  0  0  0  0  0  0  0  0  0  0  0
  136.2454   68.0164  223.7294 H   0  0  0  0  0  0  0  0  0  0  0  0
  136.6971   69.1183  222.3500 H   0  0  0  0  0  0  0  0  0  0  0  0
  137.4035   71.4026  222.8417 H   0  0  0  0  0  0  0  0  0  0  0  0
  138.1763   72.2410  224.1190 H   0  0  0  0  0  0  0  0  0  0  0  0
  139.5887   71.0244  221.5634 H   0  0  0  0  0  0  0  0  0  0  0  0
  139.4818   72.7193  221.8306 H   0  0  0  0  0  0  0  0  0  0  0  0
  141.6393   71.4004  222.8519 H   0  0  0  0  0  0  0  0  0  0  0  0
  140.8968   72.5345  223.9489 H   0  0  0  0  0  0  0  0  0  0  0  0
  140.8449   69.5403  224.0589 H   0  0  0  0  0  0  0  0  0  0  0  0
  139.2421   69.1561  226.4158 H   0  0  0  0  0  0  0  0  0  0  0  0
  139.5167   69.7521  228.7992 H   0  0  0  0  0  0  0  0  0  0  0  0
  140.8365   71.7804  229.4082 H   0  0  0  0  0  0  0  0  0  0  0  0
  141.5761   72.5633  225.3081 H   0  0  0  0  0  0  0  0  0  0  0  0
  132.8507   69.4456  226.6130 H   0  0  0  0  0  0  0  0  0  0  0  0
  131.5500   71.2806  227.6262 H   0  0  0  0  0  0  0  0  0  0  0  0
  131.1275   73.6504  228.0247 H   0  0  0  0  0  0  0  0  0  0  0  0
  133.7783   76.4702  226.2053 H   0  0  0  0  0  0  0  0  0  0  0  0
  135.1273   74.6762  225.1594 H   0  0  0  0  0  0  0  0  0  0  0  0
  1  2  2  0
  2  3  1  0
  3  4  1  0
  4  5  1  0
  5  6  2  0
  5  7  1  0
  7  8  1  0
  8  9  1  0
  9 10  1  0
 10 11  1  0
 11 12  1  0
 12 13  2  0
 13 14  1  0
 14 15  2  0
 15 16  1  0
 16 17  2  0
  2 18  1  0
 18 19  2  0
 19 20  1  0
 20 21  2  0
 21 22  1  0
 22 23  2  0
 23 24  1  0
 23 25  1  0
 25 26  2  0
 26 27  1  0
 27 28  2  0
 11  7  1  0
 17 12  1  0
 28 18  1  0
 27 21  1  0
  3 29  1  0
  4 30  1  0
  4 31  1  0
  8 32  1  0
  8 33  1  0
  9 34  1  0
  9 35  1  0
 10 36  1  0
 10 37  1  0
 11 38  1  6
 13 39  1  0
 14 40  1  0
 15 41  1  0
 17 42  1  0
 19 43  1  0
 20 44  1  0
 22 45  1  0
 25 46  1  0
 26 47  1  0
M  END
>  <smiles>  (62) 
O=C(NCC(=O)N1CCCC1c1cccnc1)c1ccc2cc(Cl)ccc2n1

>  <score_type>  (62) 
oracle

>  <origin>  (62) 
autodockgpu

>  <m_score__min__energy>  (62) 
-8.5700000000000003

>  <m_primary>  (62) 
energy

>  <rmsd>  (62) 
7.239471930941742

>  <m_score__min__rmsd>  (62) 
7.239471930941742

>  <meeko>  (62) 
{"free_energy": -8.06, "intermolecular_energy": -9.55, "internal_energy": -1.52, "cluster_size": 8, "cluster_id": 3, "rank_in_cluster": 7}

>  <energy>  (62) 
-8.12

>  <cluster_rmsd>  (62) 
1.48

>  <cluster>  (62) 
1

$$$$

     RDKit          3D

 47 50  0  0  0  0  0  0  0  0999 V2000
  139.7460   72.1730  220.7630 O   0  0  0  0  0  0  0  0  0  0  0  0
  139.7110   72.5570  221.9440 C   0  0  0  0  0  0  0  0  0  0  0  0
  139.5520   73.9490  222.2640 N   0  0  0  0  0  0  0  0  0  0  0  0
  139.4350   74.8760  221.1830 C   0  0  0  0  0  0  0  0  0  0  0  0
  139.9100   76.2370  221.5340 C   0  0  0  0  0  0  0  0  0  0  0  0
  139.7410   76.6100  222.7220 O   0  0  0  0  0  0  0  0  0  0  0  0
  140.5190   77.0290  220.5270 N   0  0  0  0  0  0  0  0  0  0  0  0
  139.9360   77.3830  219.2170 C   0  0  0  0  0  0  0  0  0  0  0  0
  141.1310   76.9310  218.3530 C   0  0  0  0  0  0  0  0  0  0  0  0
  142.2190   77.7700  219.0350 C   0  0  0  0  0  0  0  0  0  0  0  0
  141.8230   77.6680  220.5000 C   0  0  1  0  0  0  0  0  0  0  0  0
  141.8130   79.0330  221.0990 C   0  0  0  0  0  0  0  0  0  0  0  0
  141.4670   80.1660  220.3960 C   0  0  0  0  0  0  0  0  0  0  0  0
  141.4440   81.4320  220.9660 C   0  0  0  0  0  0  0  0  0  0  0  0
  141.7820   81.5700  222.2930 C   0  0  0  0  0  0  0  0  0  0  0  0
  142.1210   80.4760  222.9940 N   0  0  0  0  0  0  0  0  0  0  0  0
  142.1440   79.2430  222.4450 C   0  0  0  0  0  0  0  0  0  0  0  0
  139.8310   71.6080  223.0490 C   0  0  0  0  0  0  0  0  0  0  0  0
  139.4230   70.2950  222.8530 C   0  0  0  0  0  0  0  0  0  0  0  0
  139.5390   69.4040  223.9020 C   0  0  0  0  0  0  0  0  0  0  0  0
  140.0400   69.7540  225.1380 C   0  0  0  0  0  0  0  0  0  0  0  0
  140.1450   68.8400  226.1710 C   0  0  0  0  0  0  0  0  0  0  0  0
  140.6580   69.2760  227.3730 C   0  0  0  0  0  0  0  0  0  0  0  0
  140.8080   68.1490  228.7120 Cl  0  0  0  0  0  0  0  0  0  0  0  0
  141.0450   70.5850  227.5130 C   0  0  0  0  0  0  0  0  0  0  0  0
  140.9570   71.5250  226.5080 C   0  0  0  0  0  0  0  0  0  0  0  0
  140.4360   71.0830  225.2880 C   0  0  0  0  0  0  0  0  0  0  0  0
  140.3200   71.9480  224.2570 N   0  0  0  0  0  0  0  0  0  0  0  0
  139.5260   74.2410  223.2860 H   0  0  0  0  0  0  0  0  0  0  0  0
  140.0305   74.5042  220.3361 H   0  0  0  0  0  0  0  0  0  0  0  0
  138.3673   74.9546  220.9303 H   0  0  0  0  0  0  0  0  0  0  0  0
  139.0192   76.8163  218.9971 H   0  0  0  0  0  0  0  0  0  0  0  0
  139.6023   78.4236  219.0910 H   0  0  0  0  0  0  0  0  0  0  0  0
  141.3225   75.8512  218.4393 H   0  0  0  0  0  0  0  0  0  0  0  0
  141.0222   77.0728  217.2676 H   0  0  0  0  0  0  0  0  0  0  0  0
  143.2190   77.3462  218.8606 H   0  0  0  0  0  0  0  0  0  0  0  0
  142.2816   78.8032  218.6628 H   0  0  0  0  0  0  0  0  0  0  0  0
  142.5301   77.0722  221.0958 H   0  0  0  0  0  0  0  0  0  0  0  0
  141.1966   80.0632  219.3347 H   0  0  0  0  0  0  0  0  0  0  0  0
  141.1604   82.3099  220.3670 H   0  0  0  0  0  0  0  0  0  0  0  0
  141.7746   82.5604  222.7716 H   0  0  0  0  0  0  0  0  0  0  0  0
  142.4292   78.3828  223.0685 H   0  0  0  0  0  0  0  0  0  0  0  0
  139.0163   69.9717  221.8834 H   0  0  0  0  0  0  0  0  0  0  0  0
  139.2160   68.3645  223.7436 H   0  0  0  0  0  0  0  0  0  0  0  0
  139.8281   67.7953  226.0366 H   0  0  0  0  0  0  0  0  0  0  0  0
  141.4496   70.9035  228.4850 H   0  0  0  0  0  0  0  0  0  0  0  0
  141.2792   72.5660  226.6579 H   0  0  0  0  0  0  0  0  0  0  0  0
  1  2  2  0
  2  3  1  0
  3  4  1  0
  4  5  1  0
  5  6  2  0
  5  7  1  0
  7  8  1  0
  8  9  1  0
  9 10  1  0
 10 11  1  0
 11 12  1  0
 12 13  2  0
 13 14  1  0
 14 15  2  0
 15 16  1  0
 16 17  2  0
  2 18  1  0
 18 19  2  0
 19 20  1  0
 20 21  2  0
 21 22  1  0
 22 23  2  0
 23 24  1  0
 23 25  1  0
 25 26  2  0
 26 27  1  0
 27 28  2  0
 11  7  1  0
 17 12  1  0
 28 18  1  0
 27 21  1  0
  3 29  1  0
  4 30  1  0
  4 31  1  0
  8 32  1  0
  8 33  1  0
  9 34  1  0
  9 35  1  0
 10 36  1  0
 10 37  1  0
 11 38  1  1
 13 39  1  0
 14 40  1  0
 15 41  1  0
 17 42  1  0
 19 43  1  0
 20 44  1  0
 22 45  1  0
 25 46  1  0
 26 47  1  0
M  END
>  <smiles>  (63) 
O=C(NCC(=O)N1CCCC1c1cccnc1)c1ccc2cc(Cl)ccc2n1

>  <score_type>  (63) 
oracle

>  <origin>  (63) 
autodockgpu

>  <m_score__min__energy>  (63) 
-8.5700000000000003

>  <m_primary>  (63) 
energy

>  <rmsd>  (63) 
1.6658048016366214

>  <m_score__min__rmsd>  (63) 
1.6658048016366214

>  <meeko>  (63) 
{"free_energy": -8.06, "intermolecular_energy": -9.55, "internal_energy": -1.58, "cluster_size": 17, "cluster_id": 2, "rank_in_cluster": 15}

>  <energy>  (63) 
-8.1

>  <cluster_rmsd>  (63) 
1.5

>  <cluster>  (63) 
1

$$$$

     RDKit          3D

 47 50  0  0  0  0  0  0  0  0999 V2000
  141.1750   73.7000  221.9450 O   0  0  0  0  0  0  0  0  0  0  0  0
  140.1320   73.0790  222.2100 C   0  0  0  0  0  0  0  0  0  0  0  0
  138.9130   73.3450  221.4980 N   0  0  0  0  0  0  0  0  0  0  0  0
  138.9380   74.3450  220.4760 C   0  0  0  0  0  0  0  0  0  0  0  0
  139.0880   75.7190  221.0160 C   0  0  0  0  0  0  0  0  0  0  0  0
  138.3710   76.0260  222.0000 O   0  0  0  0  0  0  0  0  0  0  0  0
  140.0180   76.5960  220.4000 N   0  0  0  0  0  0  0  0  0  0  0  0
  139.7970   77.3900  219.1750 C   0  0  0  0  0  0  0  0  0  0  0  0
  141.0670   76.9340  218.4260 C   0  0  0  0  0  0  0  0  0  0  0  0
  142.0960   77.3210  219.4940 C   0  0  0  0  0  0  0  0  0  0  0  0
  141.3800   76.9320  220.7790 C   0  0  1  0  0  0  0  0  0  0  0  0
  141.4530   78.0670  221.7410 C   0  0  0  0  0  0  0  0  0  0  0  0
  141.1380   77.9480  223.0770 C   0  0  0  0  0  0  0  0  0  0  0  0
  141.2240   79.0060  223.9710 C   0  0  0  0  0  0  0  0  0  0  0  0
  141.6420   80.2340  223.5100 C   0  0  0  0  0  0  0  0  0  0  0  0
  141.9540   80.3680  222.2110 N   0  0  0  0  0  0  0  0  0  0  0  0
  141.8720   79.3420  221.3380 C   0  0  0  0  0  0  0  0  0  0  0  0
  140.1080   72.0580  223.2550 C   0  0  0  0  0  0  0  0  0  0  0  0
  139.5420   70.8210  222.9710 C   0  0  0  0  0  0  0  0  0  0  0  0
  139.5220   69.8610  223.9640 C   0  0  0  0  0  0  0  0  0  0  0  0
  140.0350   70.0690  225.2270 C   0  0  0  0  0  0  0  0  0  0  0  0
  140.0010   69.0890  226.2020 C   0  0  0  0  0  0  0  0  0  0  0  0
  140.5370   69.3840  227.4360 C   0  0  0  0  0  0  0  0  0  0  0  0
  140.5140   68.1680  228.7040 Cl  0  0  0  0  0  0  0  0  0  0  0  0
  141.0820   70.6220  227.6640 C   0  0  0  0  0  0  0  0  0  0  0  0
  141.1350   71.6250  226.7190 C   0  0  0  0  0  0  0  0  0  0  0  0
  140.5910   71.3270  225.4660 C   0  0  0  0  0  0  0  0  0  0  0  0
  140.6080   72.2600  224.4890 N   0  0  0  0  0  0  0  0  0  0  0  0
  138.0390   72.7950  221.7510 H   0  0  0  0  0  0  0  0  0  0  0  0
  139.7833   74.1381  219.8031 H   0  0  0  0  0  0  0  0  0  0  0  0
  137.9741   74.3013  219.9478 H   0  0  0  0  0  0  0  0  0  0  0  0
  138.8733   77.1056  218.6497 H   0  0  0  0  0  0  0  0  0  0  0  0
  139.6651   78.4740  219.3072 H   0  0  0  0  0  0  0  0  0  0  0  0
  141.0648   75.8531  218.2220 H   0  0  0  0  0  0  0  0  0  0  0  0
  141.2208   77.3694  217.4276 H   0  0  0  0  0  0  0  0  0  0  0  0
  143.0316   76.7557  219.3710 H   0  0  0  0  0  0  0  0  0  0  0  0
  142.3974   78.3782  219.4569 H   0  0  0  0  0  0  0  0  0  0  0  0
  141.8386   76.0687  221.2835 H   0  0  0  0  0  0  0  0  0  0  0  0
  140.8030   76.9697  223.4522 H   0  0  0  0  0  0  0  0  0  0  0  0
  140.9625   78.8657  225.0302 H   0  0  0  0  0  0  0  0  0  0  0  0
  141.7191   81.0914  224.1947 H   0  0  0  0  0  0  0  0  0  0  0  0
  142.1405   79.5107  220.2847 H   0  0  0  0  0  0  0  0  0  0  0  0
  139.1193   70.6110  221.9774 H   0  0  0  0  0  0  0  0  0  0  0  0
  139.0748   68.8822  223.7360 H   0  0  0  0  0  0  0  0  0  0  0  0
  139.5588   68.1027  225.9980 H   0  0  0  0  0  0  0  0  0  0  0  0
  141.5018   70.8269  228.6599 H   0  0  0  0  0  0  0  0  0  0  0  0
  141.5810   72.6061  226.9391 H   0  0  0  0  0  0  0  0  0  0  0  0
  1  2  2  0
  2  3  1  0
  3  4  1  0
  4  5  1  0
  5  6  2  0
  5  7  1  0
  7  8  1  0
  8  9  1  0
  9 10  1  0
 10 11  1  0
 11 12  1  0
 12 13  2  0
 13 14  1  0
 14 15  2  0
 15 16  1  0
 16 17  2  0
  2 18  1  0
 18 19  2  0
 19 20  1  0
 20 21  2  0
 21 22  1  0
 22 23  2  0
 23 24  1  0
 23 25  1  0
 25 26  2  0
 26 27  1  0
 27 28  2  0
 11  7  1  0
 17 12  1  0
 28 18  1  0
 27 21  1  0
  3 29  1  0
  4 30  1  0
  4 31  1  0
  8 32  1  0
  8 33  1  0
  9 34  1  0
  9 35  1  0
 10 36  1  0
 10 37  1  0
 11 38  1  1
 13 39  1  0
 14 40  1  0
 15 41  1  0
 17 42  1  0
 19 43  1  0
 20 44  1  0
 22 45  1  0
 25 46  1  0
 26 47  1  0
M  END
>  <smiles>  (64) 
O=C(NCC(=O)N1CCCC1c1cccnc1)c1ccc2cc(Cl)ccc2n1

>  <score_type>  (64) 
oracle

>  <origin>  (64) 
autodockgpu

>  <m_score__min__energy>  (64) 
-8.5700000000000003

>  <m_primary>  (64) 
energy

>  <rmsd>  (64) 
1.7875028949175265

>  <m_score__min__rmsd>  (64) 
1.7875028949175265

>  <meeko>  (64) 
{"free_energy": -7.69, "intermolecular_energy": -9.19, "internal_energy": -1.34, "cluster_size": 17, "cluster_id": 2, "rank_in_cluster": 17}

>  <energy>  (64) 
-7.76

>  <cluster_rmsd>  (64) 
1.47

>  <cluster>  (64) 
1

$$$$

     RDKit          3D

 47 50  0  0  0  0  0  0  0  0999 V2000
  139.9800   72.3360  220.7660 O   0  0  0  0  0  0  0  0  0  0  0  0
  139.8220   72.6900  221.9470 C   0  0  0  0  0  0  0  0  0  0  0  0
  139.5420   74.0610  222.2750 N   0  0  0  0  0  0  0  0  0  0  0  0
  139.4510   75.0020  221.2030 C   0  0  0  0  0  0  0  0  0  0  0  0
  139.4710   76.4110  221.6670 C   0  0  0  0  0  0  0  0  0  0  0  0
  138.8610   76.6680  222.7340 O   0  0  0  0  0  0  0  0  0  0  0  0
  140.1690   77.3740  220.8930 N   0  0  0  0  0  0  0  0  0  0  0  0
  139.6050   78.2000  219.8060 C   0  0  0  0  0  0  0  0  0  0  0  0
  140.6730   77.8630  218.7440 C   0  0  0  0  0  0  0  0  0  0  0  0
  141.9120   78.2760  219.5480 C   0  0  0  0  0  0  0  0  0  0  0  0
  141.5600   77.7870  220.9440 C   0  0  1  0  0  0  0  0  0  0  0  0
  141.8050   78.8840  221.9230 C   0  0  0  0  0  0  0  0  0  0  0  0
  141.9940   80.1980  221.5550 C   0  0  0  0  0  0  0  0  0  0  0  0
  142.2060   81.2170  222.4740 C   0  0  0  0  0  0  0  0  0  0  0  0
  142.2300   80.9090  223.8150 C   0  0  0  0  0  0  0  0  0  0  0  0
  142.0470   79.6330  224.1910 N   0  0  0  0  0  0  0  0  0  0  0  0
  141.8400   78.6390  223.3020 C   0  0  0  0  0  0  0  0  0  0  0  0
  139.9170   71.7280  223.0420 C   0  0  0  0  0  0  0  0  0  0  0  0
  139.4840   70.4250  222.8300 C   0  0  0  0  0  0  0  0  0  0  0  0
  139.5760   69.5210  223.8700 C   0  0  0  0  0  0  0  0  0  0  0  0
  140.0760   69.8480  225.1130 C   0  0  0  0  0  0  0  0  0  0  0  0
  140.1560   68.9210  226.1370 C   0  0  0  0  0  0  0  0  0  0  0  0
  140.6700   69.3350  227.3470 C   0  0  0  0  0  0  0  0  0  0  0  0
  140.7900   68.1910  228.6740 Cl  0  0  0  0  0  0  0  0  0  0  0  0
  141.0830   70.6340  227.5030 C   0  0  0  0  0  0  0  0  0  0  0  0
  141.0190   71.5860  226.5070 C   0  0  0  0  0  0  0  0  0  0  0  0
  140.4980   71.1680  225.2790 C   0  0  0  0  0  0  0  0  0  0  0  0
  140.4050   72.0450  224.2570 N   0  0  0  0  0  0  0  0  0  0  0  0
  139.4130   74.3290  223.2960 H   0  0  0  0  0  0  0  0  0  0  0  0
  140.3022   74.8441  220.5244 H   0  0  0  0  0  0  0  0  0  0  0  0
  138.4880   74.8347  220.6984 H   0  0  0  0  0  0  0  0  0  0  0  0
  138.5975   77.8738  219.5085 H   0  0  0  0  0  0  0  0  0  0  0  0
  139.4483   79.2661  220.0270 H   0  0  0  0  0  0  0  0  0  0  0  0
  140.6811   76.7937  218.4861 H   0  0  0  0  0  0  0  0  0  0  0  0
  140.5495   78.3482  217.7646 H   0  0  0  0  0  0  0  0  0  0  0  0
  142.8182   77.7816  219.1680 H   0  0  0  0  0  0  0  0  0  0  0  0
  142.1350   79.3520  219.4979 H   0  0  0  0  0  0  0  0  0  0  0  0
  142.1779   76.9373  221.2699 H   0  0  0  0  0  0  0  0  0  0  0  0
  141.9762   80.4514  220.4847 H   0  0  0  0  0  0  0  0  0  0  0  0
  142.3523   82.2534  222.1357 H   0  0  0  0  0  0  0  0  0  0  0  0
  142.3963   81.6950  224.5664 H   0  0  0  0  0  0  0  0  0  0  0  0
  141.6953   77.6121  223.6688 H   0  0  0  0  0  0  0  0  0  0  0  0
  139.0766   70.1200  221.8548 H   0  0  0  0  0  0  0  0  0  0  0  0
  139.2338   68.4898  223.6985 H   0  0  0  0  0  0  0  0  0  0  0  0
  139.8193   67.8842  225.9898 H   0  0  0  0  0  0  0  0  0  0  0  0
  141.4892   70.9340  228.4802 H   0  0  0  0  0  0  0  0  0  0  0  0
  141.3598   72.6191  226.6703 H   0  0  0  0  0  0  0  0  0  0  0  0
  1  2  2  0
  2  3  1  0
  3  4  1  0
  4  5  1  0
  5  6  2  0
  5  7  1  0
  7  8  1  0
  8  9  1  0
  9 10  1  0
 10 11  1  0
 11 12  1  0
 12 13  2  0
 13 14  1  0
 14 15  2  0
 15 16  1  0
 16 17  2  0
  2 18  1  0
 18 19  2  0
 19 20  1  0
 20 21  2  0
 21 22  1  0
 22 23  2  0
 23 24  1  0
 23 25  1  0
 25 26  2  0
 26 27  1  0
 27 28  2  0
 11  7  1  0
 17 12  1  0
 28 18  1  0
 27 21  1  0
  3 29  1  0
  4 30  1  0
  4 31  1  0
  8 32  1  0
  8 33  1  0
  9 34  1  0
  9 35  1  0
 10 36  1  0
 10 37  1  0
 11 38  1  1
 13 39  1  0
 14 40  1  0
 15 41  1  0
 17 42  1  0
 19 43  1  0
 20 44  1  0
 22 45  1  0
 25 46  1  0
 26 47  1  0
M  END
>  <smiles>  (65) 
O=C(NCC(=O)N1CCCC1c1cccnc1)c1ccc2cc(Cl)ccc2n1

>  <score_type>  (65) 
oracle

>  <origin>  (65) 
autodockgpu

>  <m_score__min__energy>  (65) 
-8.5700000000000003

>  <m_primary>  (65) 
energy

>  <rmsd>  (65) 
1.9613254578293893

>  <m_score__min__rmsd>  (65) 
1.9613254578293893

>  <meeko>  (65) 
{"free_energy": -8.49, "intermolecular_energy": -9.98, "internal_energy": -1.51, "cluster_size": 17, "cluster_id": 2, "rank_in_cluster": 3}

>  <energy>  (65) 
-7.75

>  <cluster_rmsd>  (65) 
1.49

>  <cluster>  (65) 
1

$$$$

     RDKit          3D

 47 50  0  0  0  0  0  0  0  0999 V2000
  140.2510   72.5520  220.8120 O   0  0  0  0  0  0  0  0  0  0  0  0
  139.9610   72.8790  221.9750 C   0  0  0  0  0  0  0  0  0  0  0  0
  139.5770   74.2280  222.2890 N   0  0  0  0  0  0  0  0  0  0  0  0
  139.5400   75.1800  221.2230 C   0  0  0  0  0  0  0  0  0  0  0  0
  140.6860   76.1230  221.2500 C   0  0  0  0  0  0  0  0  0  0  0  0
  140.7560   76.9050  222.2300 O   0  0  0  0  0  0  0  0  0  0  0  0
  141.6230   76.0890  220.1850 N   0  0  0  0  0  0  0  0  0  0  0  0
  142.3570   77.2420  219.6260 C   0  0  0  0  0  0  0  0  0  0  0  0
  141.9930   76.9940  218.1470 C   0  0  0  0  0  0  0  0  0  0  0  0
  142.5010   75.5510  218.0400 C   0  0  0  0  0  0  0  0  0  0  0  0
  142.0880   74.9710  219.3840 C   0  0  1  0  0  0  0  0  0  0  0  0
  143.2530   74.2660  219.9900 C   0  0  0  0  0  0  0  0  0  0  0  0
  143.2410   72.9290  220.3210 C   0  0  0  0  0  0  0  0  0  0  0  0
  144.3360   72.2760  220.8700 C   0  0  0  0  0  0  0  0  0  0  0  0
  145.4910   72.9900  221.0970 C   0  0  0  0  0  0  0  0  0  0  0  0
  145.5210   74.2940  220.7780 N   0  0  0  0  0  0  0  0  0  0  0  0
  144.4590   74.9330  220.2440 C   0  0  0  0  0  0  0  0  0  0  0  0
  140.0000   71.9060  223.0640 C   0  0  0  0  0  0  0  0  0  0  0  0
  139.5220   70.6210  222.8340 C   0  0  0  0  0  0  0  0  0  0  0  0
  139.5610   69.7070  223.8680 C   0  0  0  0  0  0  0  0  0  0  0  0
  140.0510   70.0050  225.1210 C   0  0  0  0  0  0  0  0  0  0  0  0
  140.0790   69.0690  226.1390 C   0  0  0  0  0  0  0  0  0  0  0  0
  140.5860   69.4530  227.3610 C   0  0  0  0  0  0  0  0  0  0  0  0
  140.6390   68.2960  228.6810 Cl  0  0  0  0  0  0  0  0  0  0  0  0
  141.0440   70.7350  227.5350 C   0  0  0  0  0  0  0  0  0  0  0  0
  141.0350   71.6970  226.5460 C   0  0  0  0  0  0  0  0  0  0  0  0
  140.5190   71.3070  225.3060 C   0  0  0  0  0  0  0  0  0  0  0  0
  140.4780   72.1950  224.2890 N   0  0  0  0  0  0  0  0  0  0  0  0
  139.3360   74.4720  223.2950 H   0  0  0  0  0  0  0  0  0  0  0  0
  139.5551   74.6367  220.2667 H   0  0  0  0  0  0  0  0  0  0  0  0
  138.6216   75.7735  221.3425 H   0  0  0  0  0  0  0  0  0  0  0  0
  141.9758   78.2045  219.9980 H   0  0  0  0  0  0  0  0  0  0  0  0
  143.4285   77.3080  219.8659 H   0  0  0  0  0  0  0  0  0  0  0  0
  140.9105   77.0689  217.9663 H   0  0  0  0  0  0  0  0  0  0  0  0
  142.4107   77.7074  217.4213 H   0  0  0  0  0  0  0  0  0  0  0  0
  142.0173   75.0174  217.2086 H   0  0  0  0  0  0  0  0  0  0  0  0
  143.5791   75.4739  217.8357 H   0  0  0  0  0  0  0  0  0  0  0  0
  141.2830   74.2258  219.3020 H   0  0  0  0  0  0  0  0  0  0  0  0
  142.3215   72.3523  220.1421 H   0  0  0  0  0  0  0  0  0  0  0  0
  144.2818   71.2060  221.1195 H   0  0  0  0  0  0  0  0  0  0  0  0
  146.3746   72.5004  221.5325 H   0  0  0  0  0  0  0  0  0  0  0  0
  144.5420   76.0029  220.0024 H   0  0  0  0  0  0  0  0  0  0  0  0
  139.1213   70.3385  221.8493 H   0  0  0  0  0  0  0  0  0  0  0  0
  139.1824   68.6910  223.6825 H   0  0  0  0  0  0  0  0  0  0  0  0
  139.7068   68.0466  225.9774 H   0  0  0  0  0  0  0  0  0  0  0  0
  141.4422   71.0122  228.5222 H   0  0  0  0  0  0  0  0  0  0  0  0
  141.4129   72.7148  226.7231 H   0  0  0  0  0  0  0  0  0  0  0  0
  1  2  2  0
  2  3  1  0
  3  4  1  0
  4  5  1  0
  5  6  2  0
  5  7  1  0
  7  8  1  0
  8  9  1  0
  9 10  1  0
 10 11  1  0
 11 12  1  0
 12 13  2  0
 13 14  1  0
 14 15  2  0
 15 16  1  0
 16 17  2  0
  2 18  1  0
 18 19  2  0
 19 20  1  0
 20 21  2  0
 21 22  1  0
 22 23  2  0
 23 24  1  0
 23 25  1  0
 25 26  2  0
 26 27  1  0
 27 28  2  0
 11  7  1  0
 17 12  1  0
 28 18  1  0
 27 21  1  0
  3 29  1  0
  4 30  1  0
  4 31  1  0
  8 32  1  0
  8 33  1  0
  9 34  1  0
  9 35  1  0
 10 36  1  0
 10 37  1  0
 11 38  1  6
 13 39  1  0
 14 40  1  0
 15 41  1  0
 17 42  1  0
 19 43  1  0
 20 44  1  0
 22 45  1  0
 25 46  1  0
 26 47  1  0
M  END
>  <smiles>  (66) 
O=C(NCC(=O)N1CCCC1c1cccnc1)c1ccc2cc(Cl)ccc2n1

>  <score_type>  (66) 
oracle

>  <origin>  (66) 
autodockgpu

>  <m_score__min__energy>  (66) 
-8.5700000000000003

>  <m_primary>  (66) 
energy

>  <rmsd>  (66) 
2.295377755049333

>  <m_score__min__rmsd>  (66) 
2.295377755049333

>  <meeko>  (66) 
{"free_energy": -8.1, "intermolecular_energy": -9.59, "internal_energy": -1.69, "cluster_size": 19, "cluster_id": 1, "rank_in_cluster": 13}

>  <energy>  (66) 
-7.69

>  <cluster_rmsd>  (66) 
1.49

>  <cluster>  (66) 
1

$$$$

     RDKit          3D

 47 50  0  0  0  0  0  0  0  0999 V2000
  133.5410   69.9370  226.5010 O   0  0  0  0  0  0  0  0  0  0  0  0
  133.9620   71.0570  226.1680 C   0  0  0  0  0  0  0  0  0  0  0  0
  135.1230   71.1910  225.3320 N   0  0  0  0  0  0  0  0  0  0  0  0
  135.7760   69.9960  224.8960 C   0  0  0  0  0  0  0  0  0  0  0  0
  137.0070   70.2630  224.1110 C   0  0  0  0  0  0  0  0  0  0  0  0
  136.9340   71.1490  223.2240 O   0  0  0  0  0  0  0  0  0  0  0  0
  138.1770   69.5160  224.4010 N   0  0  0  0  0  0  0  0  0  0  0  0
  139.1610   69.0120  223.4220 C   0  0  0  0  0  0  0  0  0  0  0  0
  139.1660   67.5450  223.9020 C   0  0  0  0  0  0  0  0  0  0  0  0
  139.5130   67.8030  225.3740 C   0  0  0  0  0  0  0  0  0  0  0  0
  138.7000   69.0540  225.6740 C   0  0  1  0  0  0  0  0  0  0  0  0
  139.5780   70.0570  226.3410 C   0  0  0  0  0  0  0  0  0  0  0  0
  139.7450   70.1280  227.7060 C   0  0  0  0  0  0  0  0  0  0  0  0
  140.5770   71.0550  228.3190 C   0  0  0  0  0  0  0  0  0  0  0  0
  141.2700   71.9480  227.5330 C   0  0  0  0  0  0  0  0  0  0  0  0
  141.1200   71.8920  226.2000 N   0  0  0  0  0  0  0  0  0  0  0  0
  140.3130   70.9920  225.6000 C   0  0  0  0  0  0  0  0  0  0  0  0
  133.2950   72.2780  226.6150 C   0  0  0  0  0  0  0  0  0  0  0  0
  132.0560   72.1770  227.2370 C   0  0  0  0  0  0  0  0  0  0  0  0
  131.4310   73.3340  227.6560 C   0  0  0  0  0  0  0  0  0  0  0  0
  131.9750   74.5900  227.4860 C   0  0  0  0  0  0  0  0  0  0  0  0
  131.3260   75.7330  227.9170 C   0  0  0  0  0  0  0  0  0  0  0  0
  131.9430   76.9470  227.7070 C   0  0  0  0  0  0  0  0  0  0  0  0
  131.1540   78.4240  228.2370 Cl  0  0  0  0  0  0  0  0  0  0  0  0
  133.1660   76.9910  227.0870 C   0  0  0  0  0  0  0  0  0  0  0  0
  133.8450   75.8750  226.6440 C   0  0  0  0  0  0  0  0  0  0  0  0
  133.2190   74.6430  226.8570 C   0  0  0  0  0  0  0  0  0  0  0  0
  133.8240   73.5050  226.4500 N   0  0  0  0  0  0  0  0  0  0  0  0
  135.4560   72.1650  225.0660 H   0  0  0  0  0  0  0  0  0  0  0  0
  136.0463   69.4011  225.7809 H   0  0  0  0  0  0  0  0  0  0  0  0
  135.0761   69.4587  224.2391 H   0  0  0  0  0  0  0  0  0  0  0  0
  138.8124   69.1142  222.3837 H   0  0  0  0  0  0  0  0  0  0  0  0
  140.1339   69.5244  223.3922 H   0  0  0  0  0  0  0  0  0  0  0  0
  138.1836   67.0645  223.7836 H   0  0  0  0  0  0  0  0  0  0  0  0
  139.8371   66.8622  223.3604 H   0  0  0  0  0  0  0  0  0  0  0  0
  139.2028   66.9619  226.0115 H   0  0  0  0  0  0  0  0  0  0  0  0
  140.5906   67.9175  225.5630 H   0  0  0  0  0  0  0  0  0  0  0  0
  137.8621   68.8683  226.3620 H   0  0  0  0  0  0  0  0  0  0  0  0
  139.1939   69.4176  228.3398 H   0  0  0  0  0  0  0  0  0  0  0  0
  140.6808   71.0757  229.4139 H   0  0  0  0  0  0  0  0  0  0  0  0
  141.9357   72.6952  227.9897 H   0  0  0  0  0  0  0  0  0  0  0  0
  140.2302   70.9924  224.5031 H   0  0  0  0  0  0  0  0  0  0  0  0
  131.5837   71.1957  227.3920 H   0  0  0  0  0  0  0  0  0  0  0  0
  130.4515   73.2504  228.1495 H   0  0  0  0  0  0  0  0  0  0  0  0
  130.3459   75.6745  228.4130 H   0  0  0  0  0  0  0  0  0  0  0  0
  133.6331   77.9751  226.9340 H   0  0  0  0  0  0  0  0  0  0  0  0
  134.8251   75.9501  226.1503 H   0  0  0  0  0  0  0  0  0  0  0  0
  1  2  2  0
  2  3  1  0
  3  4  1  0
  4  5  1  0
  5  6  2  0
  5  7  1  0
  7  8  1  0
  8  9  1  0
  9 10  1  0
 10 11  1  0
 11 12  1  0
 12 13  2  0
 13 14  1  0
 14 15  2  0
 15 16  1  0
 16 17  2  0
  2 18  1  0
 18 19  2  0
 19 20  1  0
 20 21  2  0
 21 22  1  0
 22 23  2  0
 23 24  1  0
 23 25  1  0
 25 26  2  0
 26 27  1  0
 27 28  2  0
 11  7  1  0
 17 12  1  0
 28 18  1  0
 27 21  1  0
  3 29  1  0
  4 30  1  0
  4 31  1  0
  8 32  1  0
  8 33  1  0
  9 34  1  0
  9 35  1  0
 10 36  1  0
 10 37  1  0
 11 38  1  1
 13 39  1  0
 14 40  1  0
 15 41  1  0
 17 42  1  0
 19 43  1  0
 20 44  1  0
 22 45  1  0
 25 46  1  0
 26 47  1  0
M  END
>  <smiles>  (67) 
O=C(NCC(=O)N1CCCC1c1cccnc1)c1ccc2cc(Cl)ccc2n1

>  <score_type>  (67) 
oracle

>  <origin>  (67) 
autodockgpu

>  <m_score__min__energy>  (67) 
-8.5700000000000003

>  <m_primary>  (67) 
energy

>  <rmsd>  (67) 
8.991901229692518

>  <m_score__min__rmsd>  (67) 
8.991901229692518

>  <meeko>  (67) 
{"free_energy": -8.23, "intermolecular_energy": -9.72, "internal_energy": -1.51, "cluster_size": 8, "cluster_id": 3, "rank_in_cluster": 2}

>  <energy>  (67) 
-7.68

>  <cluster_rmsd>  (67) 
1.45

>  <cluster>  (67) 
1

$$$$

     RDKit          3D

 47 50  0  0  0  0  0  0  0  0999 V2000
  134.7220   68.4970  225.3140 O   0  0  0  0  0  0  0  0  0  0  0  0
  135.0360   69.6750  225.0750 C   0  0  0  0  0  0  0  0  0  0  0  0
  136.1140   69.9840  224.1760 N   0  0  0  0  0  0  0  0  0  0  0  0
  136.8110   68.8950  223.5670 C   0  0  0  0  0  0  0  0  0  0  0  0
  138.2680   68.9100  223.8510 C   0  0  0  0  0  0  0  0  0  0  0  0
  138.8100   67.8060  224.1020 O   0  0  0  0  0  0  0  0  0  0  0  0
  138.9550   70.1510  223.8240 N   0  0  0  0  0  0  0  0  0  0  0  0
  138.4080   71.4470  223.3750 C   0  0  0  0  0  0  0  0  0  0  0  0
  139.5430   71.7970  222.3900 C   0  0  0  0  0  0  0  0  0  0  0  0
  140.7180   71.6830  223.3690 C   0  0  0  0  0  0  0  0  0  0  0  0
  140.3200   70.4720  224.2000 C   0  0  1  0  0  0  0  0  0  0  0  0
  140.4630   70.8050  225.6460 C   0  0  0  0  0  0  0  0  0  0  0  0
  139.8980   70.0550  226.6530 C   0  0  0  0  0  0  0  0  0  0  0  0
  140.0490   70.3620  227.9990 C   0  0  0  0  0  0  0  0  0  0  0  0
  140.7950   71.4640  228.3500 C   0  0  0  0  0  0  0  0  0  0  0  0
  141.3540   72.2060  227.3800 N   0  0  0  0  0  0  0  0  0  0  0  0
  141.2100   71.9110  226.0710 C   0  0  0  0  0  0  0  0  0  0  0  0
  134.3230   70.7880  225.6990 C   0  0  0  0  0  0  0  0  0  0  0  0
  133.2810   70.5100  226.5740 C   0  0  0  0  0  0  0  0  0  0  0  0
  132.6110   71.5670  227.1600 C   0  0  0  0  0  0  0  0  0  0  0  0
  132.9240   72.8870  226.9170 C   0  0  0  0  0  0  0  0  0  0  0  0
  132.2360   73.9260  227.5180 C   0  0  0  0  0  0  0  0  0  0  0  0
  132.6170   75.2160  227.2180 C   0  0  0  0  0  0  0  0  0  0  0  0
  131.7700   76.5650  227.9580 Cl  0  0  0  0  0  0  0  0  0  0  0  0
  133.6530   75.4340  226.3450 C   0  0  0  0  0  0  0  0  0  0  0  0
  134.3640   74.4260  225.7260 C   0  0  0  0  0  0  0  0  0  0  0  0
  133.9770   73.1170  226.0300 C   0  0  0  0  0  0  0  0  0  0  0  0
  134.6270   72.0780  225.4630 N   0  0  0  0  0  0  0  0  0  0  0  0
  136.3550   71.0030  223.9940 H   0  0  0  0  0  0  0  0  0  0  0  0
  136.3893   67.9525  223.9462 H   0  0  0  0  0  0  0  0  0  0  0  0
  136.6861   68.9909  222.4783 H   0  0  0  0  0  0  0  0  0  0  0  0
  137.4338   71.3424  222.8750 H   0  0  0  0  0  0  0  0  0  0  0  0
  138.1892   72.1877  224.1583 H   0  0  0  0  0  0  0  0  0  0  0  0
  139.6165   71.0733  221.5648 H   0  0  0  0  0  0  0  0  0  0  0  0
  139.4455   72.7574  221.8627 H   0  0  0  0  0  0  0  0  0  0  0  0
  141.6655   71.5095  222.8379 H   0  0  0  0  0  0  0  0  0  0  0  0
  140.8900   72.5922  223.9637 H   0  0  0  0  0  0  0  0  0  0  0  0
  140.9598   69.5957  224.0189 H   0  0  0  0  0  0  0  0  0  0  0  0
  139.3002   69.1731  226.3791 H   0  0  0  0  0  0  0  0  0  0  0  0
  139.5802   69.7349  228.7716 H   0  0  0  0  0  0  0  0  0  0  0  0
  140.9312   71.7328  229.4079 H   0  0  0  0  0  0  0  0  0  0  0  0
  141.6909   72.5547  225.3197 H   0  0  0  0  0  0  0  0  0  0  0  0
  132.9953   69.4712  226.7957 H   0  0  0  0  0  0  0  0  0  0  0  0
  131.7875   71.3439  227.8544 H   0  0  0  0  0  0  0  0  0  0  0  0
  131.4086   73.7281  228.2153 H   0  0  0  0  0  0  0  0  0  0  0  0
  133.9337   76.4747  226.1253 H   0  0  0  0  0  0  0  0  0  0  0  0
  135.1898   74.6405  225.0316 H   0  0  0  0  0  0  0  0  0  0  0  0
  1  2  2  0
  2  3  1  0
  3  4  1  0
  4  5  1  0
  5  6  2  0
  5  7  1  0
  7  8  1  0
  8  9  1  0
  9 10  1  0
 10 11  1  0
 11 12  1  0
 12 13  2  0
 13 14  1  0
 14 15  2  0
 15 16  1  0
 16 17  2  0
  2 18  1  0
 18 19  2  0
 19 20  1  0
 20 21  2  0
 21 22  1  0
 22 23  2  0
 23 24  1  0
 23 25  1  0
 25 26  2  0
 26 27  1  0
 27 28  2  0
 11  7  1  0
 17 12  1  0
 28 18  1  0
 27 21  1  0
  3 29  1  0
  4 30  1  0
  4 31  1  0
  8 32  1  0
  8 33  1  0
  9 34  1  0
  9 35  1  0
 10 36  1  0
 10 37  1  0
 11 38  1  6
 13 39  1  0
 14 40  1  0
 15 41  1  0
 17 42  1  0
 19 43  1  0
 20 44  1  0
 22 45  1  0
 25 46  1  0
 26 47  1  0
M  END
>  <smiles>  (68) 
O=C(NCC(=O)N1CCCC1c1cccnc1)c1ccc2cc(Cl)ccc2n1

>  <score_type>  (68) 
oracle

>  <origin>  (68) 
autodockgpu

>  <m_score__min__energy>  (68) 
-8.5700000000000003

>  <m_primary>  (68) 
energy

>  <rmsd>  (68) 
7.194017729428146

>  <m_score__min__rmsd>  (68) 
7.194017729428146

>  <meeko>  (68) 
{"free_energy": -8.23, "intermolecular_energy": -9.72, "internal_energy": -1.47, "cluster_size": 8, "cluster_id": 3, "rank_in_cluster": 1}

>  <energy>  (68) 
-7.62

>  <cluster_rmsd>  (68) 
1.53

>  <cluster>  (68) 
1

$$$$

     RDKit          3D

 47 50  0  0  0  0  0  0  0  0999 V2000
  140.3970   72.5610  220.7800 O   0  0  0  0  0  0  0  0  0  0  0  0
  140.0640   72.9040  221.9270 C   0  0  0  0  0  0  0  0  0  0  0  0
  139.6600   74.2550  222.2060 N   0  0  0  0  0  0  0  0  0  0  0  0
  139.6530   75.1890  221.1230 C   0  0  0  0  0  0  0  0  0  0  0  0
  140.7800   76.1520  221.1830 C   0  0  0  0  0  0  0  0  0  0  0  0
  140.8090   76.9350  222.1640 O   0  0  0  0  0  0  0  0  0  0  0  0
  141.7480   76.1340  220.1450 N   0  0  0  0  0  0  0  0  0  0  0  0
  142.5180   77.2900  219.6450 C   0  0  0  0  0  0  0  0  0  0  0  0
  142.1940   77.0950  218.1480 C   0  0  0  0  0  0  0  0  0  0  0  0
  142.6810   75.6470  218.0110 C   0  0  0  0  0  0  0  0  0  0  0  0
  142.2180   75.0330  219.3230 C   0  0  1  0  0  0  0  0  0  0  0  0
  143.3530   74.2890  219.9410 C   0  0  0  0  0  0  0  0  0  0  0  0
  144.5540   74.8780  220.2690 C   0  0  0  0  0  0  0  0  0  0  0  0
  145.6000   74.1820  220.8600 C   0  0  0  0  0  0  0  0  0  0  0  0
  145.4380   72.8430  221.1320 C   0  0  0  0  0  0  0  0  0  0  0  0
  144.2730   72.2530  220.8190 N   0  0  0  0  0  0  0  0  0  0  0  0
  143.2530   72.9250  220.2460 C   0  0  0  0  0  0  0  0  0  0  0  0
  140.0730   71.9490  223.0320 C   0  0  0  0  0  0  0  0  0  0  0  0
  139.5650   70.6740  222.8220 C   0  0  0  0  0  0  0  0  0  0  0  0
  139.5760   69.7760  223.8710 C   0  0  0  0  0  0  0  0  0  0  0  0
  140.0670   70.0840  225.1220 C   0  0  0  0  0  0  0  0  0  0  0  0
  140.0660   69.1640  226.1560 C   0  0  0  0  0  0  0  0  0  0  0  0
  140.5760   69.5570  227.3740 C   0  0  0  0  0  0  0  0  0  0  0  0
  140.5940   68.4210  228.7140 Cl  0  0  0  0  0  0  0  0  0  0  0  0
  141.0650   70.8300  227.5290 C   0  0  0  0  0  0  0  0  0  0  0  0
  141.0850   71.7740  226.5240 C   0  0  0  0  0  0  0  0  0  0  0  0
  140.5660   71.3760  225.2870 C   0  0  0  0  0  0  0  0  0  0  0  0
  140.5520   72.2480  224.2550 N   0  0  0  0  0  0  0  0  0  0  0  0
  139.3830   74.5140  223.1990 H   0  0  0  0  0  0  0  0  0  0  0  0
  139.7187   74.6305  220.1776 H   0  0  0  0  0  0  0  0  0  0  0  0
  138.7203   75.7680  221.1929 H   0  0  0  0  0  0  0  0  0  0  0  0
  142.1426   78.2472  220.0361 H   0  0  0  0  0  0  0  0  0  0  0  0
  143.5828   77.3289  219.9183 H   0  0  0  0  0  0  0  0  0  0  0  0
  141.1188   77.1946  217.9380 H   0  0  0  0  0  0  0  0  0  0  0  0
  142.6447   77.8232  217.4577 H   0  0  0  0  0  0  0  0  0  0  0  0
  142.2139   75.1479  217.1492 H   0  0  0  0  0  0  0  0  0  0  0  0
  143.7634   75.5574  217.8367 H   0  0  0  0  0  0  0  0  0  0  0  0
  141.4035   74.3051  219.1937 H   0  0  0  0  0  0  0  0  0  0  0  0
  144.6907   75.9479  220.0530 H   0  0  0  0  0  0  0  0  0  0  0  0
  146.5426   74.6926  221.1067 H   0  0  0  0  0  0  0  0  0  0  0  0
  146.2496   72.2652  221.5983 H   0  0  0  0  0  0  0  0  0  0  0  0
  142.3209   72.3895  220.0128 H   0  0  0  0  0  0  0  0  0  0  0  0
  139.1620   70.3851  221.8401 H   0  0  0  0  0  0  0  0  0  0  0  0
  139.1737   68.7665  223.7003 H   0  0  0  0  0  0  0  0  0  0  0  0
  139.6695   68.1485  226.0096 H   0  0  0  0  0  0  0  0  0  0  0  0
  141.4648   71.1142  228.5136 H   0  0  0  0  0  0  0  0  0  0  0  0
  141.4871   72.7850  226.6860 H   0  0  0  0  0  0  0  0  0  0  0  0
  1  2  2  0
  2  3  1  0
  3  4  1  0
  4  5  1  0
  5  6  2  0
  5  7  1  0
  7  8  1  0
  8  9  1  0
  9 10  1  0
 10 11  1  0
 11 12  1  0
 12 13  2  0
 13 14  1  0
 14 15  2  0
 15 16  1  0
 16 17  2  0
  2 18  1  0
 18 19  2  0
 19 20  1  0
 20 21  2  0
 21 22  1  0
 22 23  2  0
 23 24  1  0
 23 25  1  0
 25 26  2  0
 26 27  1  0
 27 28  2  0
 11  7  1  0
 17 12  1  0
 28 18  1  0
 27 21  1  0
  3 29  1  0
  4 30  1  0
  4 31  1  0
  8 32  1  0
  8 33  1  0
  9 34  1  0
  9 35  1  0
 10 36  1  0
 10 37  1  0
 11 38  1  6
 13 39  1  0
 14 40  1  0
 15 41  1  0
 17 42  1  0
 19 43  1  0
 20 44  1  0
 22 45  1  0
 25 46  1  0
 26 47  1  0
M  END
>  <smiles>  (69) 
O=C(NCC(=O)N1CCCC1c1cccnc1)c1ccc2cc(Cl)ccc2n1

>  <score_type>  (69) 
oracle

>  <origin>  (69) 
autodockgpu

>  <m_score__min__energy>  (69) 
-8.5700000000000003

>  <m_primary>  (69) 
energy

>  <rmsd>  (69) 
2.370208290811441

>  <m_score__min__rmsd>  (69) 
2.370208290811441

>  <meeko>  (69) 
{"free_energy": -8.16, "intermolecular_energy": -9.65, "internal_energy": -1.67, "cluster_size": 19, "cluster_id": 1, "rank_in_cluster": 6}

>  <energy>  (69) 
-7.55

>  <cluster_rmsd>  (69) 
1.51

>  <cluster>  (69) 
1

$$$$

     RDKit          3D

 47 50  0  0  0  0  0  0  0  0999 V2000
  139.2100   71.8500  220.6450 O   0  0  0  0  0  0  0  0  0  0  0  0
  139.1260   72.2850  221.8060 C   0  0  0  0  0  0  0  0  0  0  0  0
  138.7750   73.6560  222.0570 N   0  0  0  0  0  0  0  0  0  0  0  0
  138.5260   74.5010  220.9310 C   0  0  0  0  0  0  0  0  0  0  0  0
  139.6830   74.5860  220.0050 C   0  0  0  0  0  0  0  0  0  0  0  0
  139.6060   73.9290  218.9370 O   0  0  0  0  0  0  0  0  0  0  0  0
  140.7910   75.3920  220.3710 N   0  0  0  0  0  0  0  0  0  0  0  0
  140.8830   76.2740  221.5520 C   0  0  0  0  0  0  0  0  0  0  0  0
  141.3270   77.5460  220.8000 C   0  0  0  0  0  0  0  0  0  0  0  0
  142.5600   76.9610  220.0990 C   0  0  0  0  0  0  0  0  0  0  0  0
  142.0740   75.5720  219.7150 C   0  0  1  0  0  0  0  0  0  0  0  0
  143.0900   74.5660  220.1380 C   0  0  0  0  0  0  0  0  0  0  0  0
  142.7770   73.2630  220.4580 C   0  0  0  0  0  0  0  0  0  0  0  0
  143.7310   72.3280  220.8350 C   0  0  0  0  0  0  0  0  0  0  0  0
  145.0510   72.7110  220.8950 C   0  0  0  0  0  0  0  0  0  0  0  0
  145.3740   73.9770  220.5850 N   0  0  0  0  0  0  0  0  0  0  0  0
  144.4510   74.8910  220.2180 C   0  0  0  0  0  0  0  0  0  0  0  0
  139.3820   71.4210  222.9560 C   0  0  0  0  0  0  0  0  0  0  0  0
  138.9890   70.0900  222.8960 C   0  0  0  0  0  0  0  0  0  0  0  0
  139.2330   69.2790  223.9860 C   0  0  0  0  0  0  0  0  0  0  0  0
  139.8490   69.7260  225.1370 C   0  0  0  0  0  0  0  0  0  0  0  0
  140.0810   68.8910  226.2140 C   0  0  0  0  0  0  0  0  0  0  0  0
  140.7020   69.4220  227.3240 C   0  0  0  0  0  0  0  0  0  0  0  0
  141.0160   68.3960  228.7160 Cl  0  0  0  0  0  0  0  0  0  0  0  0
  141.0690   70.7440  227.3310 C   0  0  0  0  0  0  0  0  0  0  0  0
  140.8560   71.6070  226.2780 C   0  0  0  0  0  0  0  0  0  0  0  0
  140.2250   71.0690  225.1520 C   0  0  0  0  0  0  0  0  0  0  0  0
  139.9820   71.8550  224.0800 N   0  0  0  0  0  0  0  0  0  0  0  0
  138.7130   73.9940  223.0620 H   0  0  0  0  0  0  0  0  0  0  0  0
  137.6624   74.1032  220.3779 H   0  0  0  0  0  0  0  0  0  0  0  0
  138.3353   75.5142  221.3146 H   0  0  0  0  0  0  0  0  0  0  0  0
  139.9152   76.4009  222.0593 H   0  0  0  0  0  0  0  0  0  0  0  0
  141.5326   75.9339  222.3720 H   0  0  0  0  0  0  0  0  0  0  0  0
  140.5670   77.8937  220.0848 H   0  0  0  0  0  0  0  0  0  0  0  0
  141.5023   78.4370  221.4207 H   0  0  0  0  0  0  0  0  0  0  0  0
  142.8317   77.5496  219.2103 H   0  0  0  0  0  0  0  0  0  0  0  0
  143.4659   76.9579  220.7229 H   0  0  0  0  0  0  0  0  0  0  0  0
  141.9450   75.4461  218.6299 H   0  0  0  0  0  0  0  0  0  0  0  0
  141.7236   72.9496  220.4126 H   0  0  0  0  0  0  0  0  0  0  0  0
  143.4364   71.2973  221.0819 H   0  0  0  0  0  0  0  0  0  0  0  0
  145.8289   71.9922  221.1920 H   0  0  0  0  0  0  0  0  0  0  0  0
  144.7744   75.9142  219.9762 H   0  0  0  0  0  0  0  0  0  0  0  0
  138.4937   69.6907  221.9987 H   0  0  0  0  0  0  0  0  0  0  0  0
  138.9213   68.2253  223.9346 H   0  0  0  0  0  0  0  0  0  0  0  0
  139.7788   67.8337  226.1860 H   0  0  0  0  0  0  0  0  0  0  0  0
  141.5629   71.1387  228.2312 H   0  0  0  0  0  0  0  0  0  0  0  0
  141.1655   72.6617  226.3209 H   0  0  0  0  0  0  0  0  0  0  0  0
  1  2  2  0
  2  3  1  0
  3  4  1  0
  4  5  1  0
  5  6  2  0
  5  7  1  0
  7  8  1  0
  8  9  1  0
  9 10  1  0
 10 11  1  0
 11 12  1  0
 12 13  2  0
 13 14  1  0
 14 15  2  0
 15 16  1  0
 16 17  2  0
  2 18  1  0
 18 19  2  0
 19 20  1  0
 20 21  2  0
 21 22  1  0
 22 23  2  0
 23 24  1  0
 23 25  1  0
 25 26  2  0
 26 27  1  0
 27 28  2  0
 11  7  1  0
 17 12  1  0
 28 18  1  0
 27 21  1  0
  3 29  1  0
  4 30  1  0
  4 31  1  0
  8 32  1  0
  8 33  1  0
  9 34  1  0
  9 35  1  0
 10 36  1  0
 10 37  1  0
 11 38  1  6
 13 39  1  0
 14 40  1  0
 15 41  1  0
 17 42  1  0
 19 43  1  0
 20 44  1  0
 22 45  1  0
 25 46  1  0
 26 47  1  0
M  END
>  <smiles>  (70) 
O=C(NCC(=O)N1CCCC1c1cccnc1)c1ccc2cc(Cl)ccc2n1

>  <score_type>  (70) 
oracle

>  <origin>  (70) 
autodockgpu

>  <m_score__min__energy>  (70) 
-8.5700000000000003

>  <m_primary>  (70) 
energy

>  <rmsd>  (70) 
2.1321524862172394

>  <m_score__min__rmsd>  (70) 
2.1321524862172394

>  <meeko>  (70) 
{"free_energy": -7.76, "intermolecular_energy": -9.25, "internal_energy": -1.62, "cluster_size": 19, "cluster_id": 1, "rank_in_cluster": 14}

>  <energy>  (70) 
-8.52

>  <cluster_rmsd>  (70) 
0.0

>  <cluster>  (70) 
2

$$$$

     RDKit          3D

 47 50  0  0  0  0  0  0  0  0999 V2000
  139.9580   72.0640  220.6800 O   0  0  0  0  0  0  0  0  0  0  0  0
  139.8410   72.4630  221.8510 C   0  0  0  0  0  0  0  0  0  0  0  0
  139.6170   73.8530  222.1380 N   0  0  0  0  0  0  0  0  0  0  0  0
  139.5330   74.7600  221.0350 C   0  0  0  0  0  0  0  0  0  0  0  0
  140.0340   76.1180  221.3640 C   0  0  0  0  0  0  0  0  0  0  0  0
  139.5020   76.6990  222.3420 O   0  0  0  0  0  0  0  0  0  0  0  0
  141.0700   76.6730  220.5690 N   0  0  0  0  0  0  0  0  0  0  0  0
  141.8420   77.8960  220.8660 C   0  0  0  0  0  0  0  0  0  0  0  0
  141.6250   78.5880  219.5040 C   0  0  0  0  0  0  0  0  0  0  0  0
  142.1560   77.4640  218.6060 C   0  0  0  0  0  0  0  0  0  0  0  0
  141.6220   76.2230  219.3040 C   0  0  1  0  0  0  0  0  0  0  0  0
  142.7310   75.2410  219.4700 C   0  0  0  0  0  0  0  0  0  0  0  0
  143.0120   74.6120  220.6620 C   0  0  0  0  0  0  0  0  0  0  0  0
  144.0370   73.6860  220.8050 C   0  0  0  0  0  0  0  0  0  0  0  0
  144.8110   73.3770  219.7090 C   0  0  0  0  0  0  0  0  0  0  0  0
  144.5490   73.9800  218.5390 N   0  0  0  0  0  0  0  0  0  0  0  0
  143.5550   74.8810  218.3950 C   0  0  0  0  0  0  0  0  0  0  0  0
  139.9280   71.5360  222.9760 C   0  0  0  0  0  0  0  0  0  0  0  0
  139.4870   70.2290  222.8050 C   0  0  0  0  0  0  0  0  0  0  0  0
  139.5720   69.3580  223.8730 C   0  0  0  0  0  0  0  0  0  0  0  0
  140.0720   69.7220  225.1060 C   0  0  0  0  0  0  0  0  0  0  0  0
  140.1450   68.8280  226.1590 C   0  0  0  0  0  0  0  0  0  0  0  0
  140.6600   69.2770  227.3560 C   0  0  0  0  0  0  0  0  0  0  0  0
  140.7700   68.1750  228.7190 Cl  0  0  0  0  0  0  0  0  0  0  0  0
  141.0800   70.5780  227.4710 C   0  0  0  0  0  0  0  0  0  0  0  0
  141.0240   71.4980  226.4460 C   0  0  0  0  0  0  0  0  0  0  0  0
  140.5020   71.0440  225.2310 C   0  0  0  0  0  0  0  0  0  0  0  0
  140.4160   71.8890  224.1810 N   0  0  0  0  0  0  0  0  0  0  0  0
  139.5210   74.1600  223.1510 H   0  0  0  0  0  0  0  0  0  0  0  0
  140.1302   74.3576  220.2035 H   0  0  0  0  0  0  0  0  0  0  0  0
  138.4705   74.8562  220.7671 H   0  0  0  0  0  0  0  0  0  0  0  0
  141.4166   78.4699  221.7025 H   0  0  0  0  0  0  0  0  0  0  0  0
  142.8846   77.7552  221.1870 H   0  0  0  0  0  0  0  0  0  0  0  0
  140.5643   78.8080  219.3128 H   0  0  0  0  0  0  0  0  0  0  0  0
  142.1031   79.5709  219.3805 H   0  0  0  0  0  0  0  0  0  0  0  0
  141.7602   77.5488  217.5832 H   0  0  0  0  0  0  0  0  0  0  0  0
  143.2496   77.4702  218.4873 H   0  0  0  0  0  0  0  0  0  0  0  0
  140.8370   75.7100  218.7290 H   0  0  0  0  0  0  0  0  0  0  0  0
  142.3966   74.8539  221.5411 H   0  0  0  0  0  0  0  0  0  0  0  0
  144.2273   73.2076  221.7771 H   0  0  0  0  0  0  0  0  0  0  0  0
  145.6306   72.6479  219.7910 H   0  0  0  0  0  0  0  0  0  0  0  0
  143.3875   75.3436  217.4112 H   0  0  0  0  0  0  0  0  0  0  0  0
  139.0790   69.8956  221.8394 H   0  0  0  0  0  0  0  0  0  0  0  0
  139.2242   68.3238  223.7339 H   0  0  0  0  0  0  0  0  0  0  0  0
  139.8021   67.7891  226.0444 H   0  0  0  0  0  0  0  0  0  0  0  0
  141.4858   70.9067  228.4392 H   0  0  0  0  0  0  0  0  0  0  0  0
  141.3713   72.5335  226.5769 H   0  0  0  0  0  0  0  0  0  0  0  0
  1  2  2  0
  2  3  1  0
  3  4  1  0
  4  5  1  0
  5  6  2  0
  5  7  1  0
  7  8  1  0
  8  9  1  0
  9 10  1  0
 10 11  1  0
 11 12  1  0
 12 13  2  0
 13 14  1  0
 14 15  2  0
 15 16  1  0
 16 17  2  0
  2 18  1  0
 18 19  2  0
 19 20  1  0
 20 21  2  0
 21 22  1  0
 22 23  2  0
 23 24  1  0
 23 25  1  0
 25 26  2  0
 26 27  1  0
 27 28  2  0
 11  7  1  0
 17 12  1  0
 28 18  1  0
 27 21  1  0
  3 29  1  0
  4 30  1  0
  4 31  1  0
  8 32  1  0
  8 33  1  0
  9 34  1  0
  9 35  1  0
 10 36  1  0
 10 37  1  0
 11 38  1  6
 13 39  1  0
 14 40  1  0
 15 41  1  0
 17 42  1  0
 19 43  1  0
 20 44  1  0
 22 45  1  0
 25 46  1  0
 26 47  1  0
M  END
>  <smiles>  (71) 
O=C(NCC(=O)N1CCCC1c1cccnc1)c1ccc2cc(Cl)ccc2n1

>  <score_type>  (71) 
oracle

>  <origin>  (71) 
autodockgpu

>  <m_score__min__energy>  (71) 
-8.5700000000000003

>  <m_primary>  (71) 
energy

>  <rmsd>  (71) 
2.233020213620003

>  <m_score__min__rmsd>  (71) 
2.233020213620003

>  <meeko>  (71) 
{"free_energy": -7.62, "intermolecular_energy": -9.11, "internal_energy": -1.7, "cluster_size": 19, "cluster_id": 1, "rank_in_cluster": 18}

>  <energy>  (71) 
-8.51

>  <cluster_rmsd>  (71) 
0.29

>  <cluster>  (71) 
2

$$$$

     RDKit          3D

 47 50  0  0  0  0  0  0  0  0999 V2000
  140.9310   72.4670  220.7780 O   0  0  0  0  0  0  0  0  0  0  0  0
  140.3200   72.7840  221.8130 C   0  0  0  0  0  0  0  0  0  0  0  0
  139.6810   74.0660  221.9290 N   0  0  0  0  0  0  0  0  0  0  0  0
  139.7700   74.9620  220.8180 C   0  0  0  0  0  0  0  0  0  0  0  0
  141.0830   75.6500  220.7350 C   0  0  0  0  0  0  0  0  0  0  0  0
  141.4370   76.3220  221.7350 O   0  0  0  0  0  0  0  0  0  0  0  0
  141.8510   75.5130  219.5500 N   0  0  0  0  0  0  0  0  0  0  0  0
  142.2710   76.6030  218.6470 C   0  0  0  0  0  0  0  0  0  0  0  0
  141.7560   75.9670  217.3380 C   0  0  0  0  0  0  0  0  0  0  0  0
  142.5050   74.6330  217.4390 C   0  0  0  0  0  0  0  0  0  0  0  0
  142.4010   74.3240  218.9240 C   0  0  1  0  0  0  0  0  0  0  0  0
  143.7510   73.9640  219.4440 C   0  0  0  0  0  0  0  0  0  0  0  0
  144.1280   74.1420  220.7570 C   0  0  0  0  0  0  0  0  0  0  0  0
  145.3820   73.7900  221.2370 C   0  0  0  0  0  0  0  0  0  0  0  0
  146.2960   73.2370  220.3680 C   0  0  0  0  0  0  0  0  0  0  0  0
  145.9440   73.0550  219.0850 N   0  0  0  0  0  0  0  0  0  0  0  0
  144.7260   73.3960  218.6140 C   0  0  0  0  0  0  0  0  0  0  0  0
  140.2300   71.8670  222.9470 C   0  0  0  0  0  0  0  0  0  0  0  0
  139.6470   70.6200  222.7570 C   0  0  0  0  0  0  0  0  0  0  0  0
  139.5650   69.7590  223.8340 C   0  0  0  0  0  0  0  0  0  0  0  0
  140.0320   70.0760  225.0920 C   0  0  0  0  0  0  0  0  0  0  0  0
  139.9370   69.1940  226.1520 C   0  0  0  0  0  0  0  0  0  0  0  0
  140.4300   69.5940  227.3750 C   0  0  0  0  0  0  0  0  0  0  0  0
  140.3290   68.5040  228.7490 Cl  0  0  0  0  0  0  0  0  0  0  0  0
  140.9950   70.8370  227.5080 C   0  0  0  0  0  0  0  0  0  0  0  0
  141.1090   71.7440  226.4760 C   0  0  0  0  0  0  0  0  0  0  0  0
  140.6080   71.3400  225.2340 C   0  0  0  0  0  0  0  0  0  0  0  0
  140.6850   72.1750  224.1760 N   0  0  0  0  0  0  0  0  0  0  0  0
  139.1670   74.3040  222.8280 H   0  0  0  0  0  0  0  0  0  0  0  0
  139.6146   74.3893  219.8918 H   0  0  0  0  0  0  0  0  0  0  0  0
  138.9999   75.7354  220.9549 H   0  0  0  0  0  0  0  0  0  0  0  0
  141.7726   77.5563  218.8769 H   0  0  0  0  0  0  0  0  0  0  0  0
  143.3340   76.8845  218.6741 H   0  0  0  0  0  0  0  0  0  0  0  0
  140.6642   75.8330  217.3414 H   0  0  0  0  0  0  0  0  0  0  0  0
  141.9267   76.5479  216.4196 H   0  0  0  0  0  0  0  0  0  0  0  0
  142.0180   73.8543  216.8336 H   0  0  0  0  0  0  0  0  0  0  0  0
  143.5390   74.6755  217.0661 H   0  0  0  0  0  0  0  0  0  0  0  0
  141.7471   73.4663  219.1402 H   0  0  0  0  0  0  0  0  0  0  0  0
  143.4026   74.5829  221.4566 H   0  0  0  0  0  0  0  0  0  0  0  0
  145.6413   73.9501  222.2939 H   0  0  0  0  0  0  0  0  0  0  0  0
  147.2979   72.9491  220.7191 H   0  0  0  0  0  0  0  0  0  0  0  0
  144.4934   73.2237  217.5528 H   0  0  0  0  0  0  0  0  0  0  0  0
  139.2594   70.3251  221.7707 H   0  0  0  0  0  0  0  0  0  0  0  0
  139.1045   68.7719  223.6805 H   0  0  0  0  0  0  0  0  0  0  0  0
  139.4810   68.2013  226.0230 H   0  0  0  0  0  0  0  0  0  0  0  0
  141.3799   71.1272  228.4967 H   0  0  0  0  0  0  0  0  0  0  0  0
  141.5693   72.7324  226.6215 H   0  0  0  0  0  0  0  0  0  0  0  0
  1  2  2  0
  2  3  1  0
  3  4  1  0
  4  5  1  0
  5  6  2  0
  5  7  1  0
  7  8  1  0
  8  9  1  0
  9 10  1  0
 10 11  1  0
 11 12  1  0
 12 13  2  0
 13 14  1  0
 14 15  2  0
 15 16  1  0
 16 17  2  0
  2 18  1  0
 18 19  2  0
 19 20  1  0
 20 21  2  0
 21 22  1  0
 22 23  2  0
 23 24  1  0
 23 25  1  0
 25 26  2  0
 26 27  1  0
 27 28  2  0
 11  7  1  0
 17 12  1  0
 28 18  1  0
 27 21  1  0
  3 29  1  0
  4 30  1  0
  4 31  1  0
  8 32  1  0
  8 33  1  0
  9 34  1  0
  9 35  1  0
 10 36  1  0
 10 37  1  0
 11 38  1  6
 13 39  1  0
 14 40  1  0
 15 41  1  0
 17 42  1  0
 19 43  1  0
 20 44  1  0
 22 45  1  0
 25 46  1  0
 26 47  1  0
M  END
>  <smiles>  (72) 
O=C(NCC(=O)N1CCCC1c1cccnc1)c1ccc2cc(Cl)ccc2n1

>  <score_type>  (72) 
oracle

>  <origin>  (72) 
autodockgpu

>  <m_score__min__energy>  (72) 
-8.5700000000000003

>  <m_primary>  (72) 
energy

>  <rmsd>  (72) 
2.3778134403183104

>  <m_score__min__rmsd>  (72) 
2.3778134403183104

>  <meeko>  (72) 
{"free_energy": -8.32, "intermolecular_energy": -9.82, "internal_energy": -1.58, "cluster_size": 19, "cluster_id": 1, "rank_in_cluster": 3}

>  <energy>  (72) 
-8.49

>  <cluster_rmsd>  (72) 
0.13

>  <cluster>  (72) 
2

$$$$

     RDKit          3D

 47 50  0  0  0  0  0  0  0  0999 V2000
  140.7200   72.4340  220.6820 O   0  0  0  0  0  0  0  0  0  0  0  0
  140.1780   72.7530  221.7540 C   0  0  0  0  0  0  0  0  0  0  0  0
  139.5670   74.0430  221.9170 N   0  0  0  0  0  0  0  0  0  0  0  0
  139.6010   74.9460  220.8090 C   0  0  0  0  0  0  0  0  0  0  0  0
  140.2990   76.2180  221.1210 C   0  0  0  0  0  0  0  0  0  0  0  0
  139.9140   76.8440  222.1390 O   0  0  0  0  0  0  0  0  0  0  0  0
  141.3470   76.6480  220.2660 N   0  0  0  0  0  0  0  0  0  0  0  0
  142.1600   77.8700  220.4230 C   0  0  0  0  0  0  0  0  0  0  0  0
  141.9560   78.4140  218.9930 C   0  0  0  0  0  0  0  0  0  0  0  0
  142.4450   77.1810  218.2230 C   0  0  0  0  0  0  0  0  0  0  0  0
  141.8760   76.0430  219.0570 C   0  0  1  0  0  0  0  0  0  0  0  0
  142.9540   75.0490  219.3270 C   0  0  0  0  0  0  0  0  0  0  0  0
  143.8020   74.5700  218.3540 C   0  0  0  0  0  0  0  0  0  0  0  0
  144.8150   73.6570  218.6170 C   0  0  0  0  0  0  0  0  0  0  0  0
  144.9840   73.2050  219.9060 C   0  0  0  0  0  0  0  0  0  0  0  0
  144.1670   73.6630  220.8680 N   0  0  0  0  0  0  0  0  0  0  0  0
  143.1810   74.5510  220.6170 C   0  0  0  0  0  0  0  0  0  0  0  0
  140.1450   71.8300  222.8860 C   0  0  0  0  0  0  0  0  0  0  0  0
  139.5910   70.5690  222.7070 C   0  0  0  0  0  0  0  0  0  0  0  0
  139.5620   69.7010  223.7820 C   0  0  0  0  0  0  0  0  0  0  0  0
  140.0560   70.0260  225.0270 C   0  0  0  0  0  0  0  0  0  0  0  0
  140.0140   69.1370  226.0860 C   0  0  0  0  0  0  0  0  0  0  0  0
  140.5310   69.5450  227.2960 C   0  0  0  0  0  0  0  0  0  0  0  0
  140.4980   68.4480  228.6680 Cl  0  0  0  0  0  0  0  0  0  0  0  0
  141.0660   70.8030  227.4190 C   0  0  0  0  0  0  0  0  0  0  0  0
  141.1270   71.7170  226.3880 C   0  0  0  0  0  0  0  0  0  0  0  0
  140.6020   71.3040  225.1600 C   0  0  0  0  0  0  0  0  0  0  0  0
  140.6260   72.1450  224.1030 N   0  0  0  0  0  0  0  0  0  0  0  0
  139.1130   74.2830  222.8480 H   0  0  0  0  0  0  0  0  0  0  0  0
  140.1215   74.4561  219.9729 H   0  0  0  0  0  0  0  0  0  0  0  0
  138.5602   75.1948  220.5543 H   0  0  0  0  0  0  0  0  0  0  0  0
  141.7592   78.5466  221.1922 H   0  0  0  0  0  0  0  0  0  0  0  0
  143.1998   77.7313  220.7542 H   0  0  0  0  0  0  0  0  0  0  0  0
  140.9016   78.6457  218.7820 H   0  0  0  0  0  0  0  0  0  0  0  0
  142.4644   79.3613  218.7600 H   0  0  0  0  0  0  0  0  0  0  0  0
  142.0450   77.1647  217.1984 H   0  0  0  0  0  0  0  0  0  0  0  0
  143.5373   77.1385  218.1002 H   0  0  0  0  0  0  0  0  0  0  0  0
  141.0708   75.4956  218.5452 H   0  0  0  0  0  0  0  0  0  0  0  0
  143.6714   74.9265  217.3216 H   0  0  0  0  0  0  0  0  0  0  0  0
  145.4711   73.3012  217.8089 H   0  0  0  0  0  0  0  0  0  0  0  0
  145.7760   72.4798  220.1443 H   0  0  0  0  0  0  0  0  0  0  0  0
  142.5411   74.8913  221.4445 H   0  0  0  0  0  0  0  0  0  0  0  0
  139.1840   70.2676  221.7305 H   0  0  0  0  0  0  0  0  0  0  0  0
  139.1235   68.7026  223.6370 H   0  0  0  0  0  0  0  0  0  0  0  0
  139.5803   68.1333  225.9654 H   0  0  0  0  0  0  0  0  0  0  0  0
  141.4701   71.0998  228.3981 H   0  0  0  0  0  0  0  0  0  0  0  0
  141.5650   72.7168  226.5246 H   0  0  0  0  0  0  0  0  0  0  0  0
  1  2  2  0
  2  3  1  0
  3  4  1  0
  4  5  1  0
  5  6  2  0
  5  7  1  0
  7  8  1  0
  8  9  1  0
  9 10  1  0
 10 11  1  0
 11 12  1  0
 12 13  2  0
 13 14  1  0
 14 15  2  0
 15 16  1  0
 16 17  2  0
  2 18  1  0
 18 19  2  0
 19 20  1  0
 20 21  2  0
 21 22  1  0
 22 23  2  0
 23 24  1  0
 23 25  1  0
 25 26  2  0
 26 27  1  0
 27 28  2  0
 11  7  1  0
 17 12  1  0
 28 18  1  0
 27 21  1  0
  3 29  1  0
  4 30  1  0
  4 31  1  0
  8 32  1  0
  8 33  1  0
  9 34  1  0
  9 35  1  0
 10 36  1  0
 10 37  1  0
 11 38  1  6
 13 39  1  0
 14 40  1  0
 15 41  1  0
 17 42  1  0
 19 43  1  0
 20 44  1  0
 22 45  1  0
 25 46  1  0
 26 47  1  0
M  END
>  <smiles>  (73) 
O=C(NCC(=O)N1CCCC1c1cccnc1)c1ccc2cc(Cl)ccc2n1

>  <score_type>  (73) 
oracle

>  <origin>  (73) 
autodockgpu

>  <m_score__min__energy>  (73) 
-8.5700000000000003

>  <m_primary>  (73) 
energy

>  <rmsd>  (73) 
2.3432627379687108

>  <m_score__min__rmsd>  (73) 
2.3432627379687108

>  <meeko>  (73) 
{"free_energy": -7.55, "intermolecular_energy": -9.04, "internal_energy": -1.62, "cluster_size": 19, "cluster_id": 1, "rank_in_cluster": 19}

>  <energy>  (73) 
-8.47

>  <cluster_rmsd>  (73) 
1.24

>  <cluster>  (73) 
2

$$$$

     RDKit          3D

 47 50  0  0  0  0  0  0  0  0999 V2000
  139.3430   71.9790  220.5410 O   0  0  0  0  0  0  0  0  0  0  0  0
  139.8500   72.3690  221.6060 C   0  0  0  0  0  0  0  0  0  0  0  0
  140.4210   73.6840  221.7130 N   0  0  0  0  0  0  0  0  0  0  0  0
  140.3860   74.5270  220.5590 C   0  0  0  0  0  0  0  0  0  0  0  0
  141.3060   75.6860  220.6620 C   0  0  0  0  0  0  0  0  0  0  0  0
  141.1580   76.4440  221.6520 O   0  0  0  0  0  0  0  0  0  0  0  0
  142.2860   75.8720  219.6520 N   0  0  0  0  0  0  0  0  0  0  0  0
  142.9560   77.1410  219.3040 C   0  0  0  0  0  0  0  0  0  0  0  0
  142.6710   77.0910  217.7880 C   0  0  0  0  0  0  0  0  0  0  0  0
  143.2880   75.7160  217.4990 C   0  0  0  0  0  0  0  0  0  0  0  0
  142.8640   74.9180  218.7230 C   0  0  1  0  0  0  0  0  0  0  0  0
  144.0520   74.2110  219.2800 C   0  0  0  0  0  0  0  0  0  0  0  0
  144.4020   74.2520  220.6110 C   0  0  0  0  0  0  0  0  0  0  0  0
  145.5010   73.5770  221.1250 C   0  0  0  0  0  0  0  0  0  0  0  0
  146.2820   72.8300  220.2710 C   0  0  0  0  0  0  0  0  0  0  0  0
  145.9540   72.7780  218.9700 N   0  0  0  0  0  0  0  0  0  0  0  0
  144.8860   73.4320  218.4660 C   0  0  0  0  0  0  0  0  0  0  0  0
  139.8860   71.5080  222.7850 C   0  0  0  0  0  0  0  0  0  0  0  0
  139.3250   70.2390  222.7060 C   0  0  0  0  0  0  0  0  0  0  0  0
  139.3620   69.4300  223.8250 C   0  0  0  0  0  0  0  0  0  0  0  0
  139.9280   69.8200  225.0200 C   0  0  0  0  0  0  0  0  0  0  0  0
  139.9510   68.9880  226.1250 C   0  0  0  0  0  0  0  0  0  0  0  0
  140.5370   69.4590  227.2800 C   0  0  0  0  0  0  0  0  0  0  0  0
  140.5870   68.4360  228.7070 Cl  0  0  0  0  0  0  0  0  0  0  0  0
  141.0740   70.7220  227.3040 C   0  0  0  0  0  0  0  0  0  0  0  0
  141.0720   71.5800  226.2240 C   0  0  0  0  0  0  0  0  0  0  0  0
  140.4770   71.1020  225.0520 C   0  0  0  0  0  0  0  0  0  0  0  0
  140.4370   71.8870  223.9540 N   0  0  0  0  0  0  0  0  0  0  0  0
  140.8460   73.9850  222.6400 H   0  0  0  0  0  0  0  0  0  0  0  0
  140.6705   73.9303  219.6798 H   0  0  0  0  0  0  0  0  0  0  0  0
  139.3639   74.9240  220.4714 H   0  0  0  0  0  0  0  0  0  0  0  0
  142.4910   78.0105  219.7916 H   0  0  0  0  0  0  0  0  0  0  0  0
  144.0092   77.2416  219.6050 H   0  0  0  0  0  0  0  0  0  0  0  0
  141.5941   77.1194  217.5655 H   0  0  0  0  0  0  0  0  0  0  0  0
  143.0639   77.9303  217.1953 H   0  0  0  0  0  0  0  0  0  0  0  0
  142.8788   75.2800  216.5757 H   0  0  0  0  0  0  0  0  0  0  0  0
  144.3762   75.7417  217.3403 H   0  0  0  0  0  0  0  0  0  0  0  0
  142.1198   74.1412  218.4933 H   0  0  0  0  0  0  0  0  0  0  0  0
  143.7826   74.8467  221.2985 H   0  0  0  0  0  0  0  0  0  0  0  0
  145.7439   73.6377  222.1961 H   0  0  0  0  0  0  0  0  0  0  0  0
  147.1598   72.2851  220.6485 H   0  0  0  0  0  0  0  0  0  0  0  0
  144.6650   73.3517  217.3914 H   0  0  0  0  0  0  0  0  0  0  0  0
  138.8616   69.8865  221.7727 H   0  0  0  0  0  0  0  0  0  0  0  0
  138.9182   68.4256  223.7594 H   0  0  0  0  0  0  0  0  0  0  0  0
  139.5141   67.9794  226.0829 H   0  0  0  0  0  0  0  0  0  0  0  0
  141.5335   71.0708  228.2406 H   0  0  0  0  0  0  0  0  0  0  0  0
  141.5143   72.5855  226.2814 H   0  0  0  0  0  0  0  0  0  0  0  0
  1  2  2  0
  2  3  1  0
  3  4  1  0
  4  5  1  0
  5  6  2  0
  5  7  1  0
  7  8  1  0
  8  9  1  0
  9 10  1  0
 10 11  1  0
 11 12  1  0
 12 13  2  0
 13 14  1  0
 14 15  2  0
 15 16  1  0
 16 17  2  0
  2 18  1  0
 18 19  2  0
 19 20  1  0
 20 21  2  0
 21 22  1  0
 22 23  2  0
 23 24  1  0
 23 25  1  0
 25 26  2  0
 26 27  1  0
 27 28  2  0
 11  7  1  0
 17 12  1  0
 28 18  1  0
 27 21  1  0
  3 29  1  0
  4 30  1  0
  4 31  1  0
  8 32  1  0
  8 33  1  0
  9 34  1  0
  9 35  1  0
 10 36  1  0
 10 37  1  0
 11 38  1  6
 13 39  1  0
 14 40  1  0
 15 41  1  0
 17 42  1  0
 19 43  1  0
 20 44  1  0
 22 45  1  0
 25 46  1  0
 26 47  1  0
M  END
>  <smiles>  (74) 
O=C(NCC(=O)N1CCCC1c1cccnc1)c1ccc2cc(Cl)ccc2n1

>  <score_type>  (74) 
oracle

>  <origin>  (74) 
autodockgpu

>  <m_score__min__energy>  (74) 
-8.5700000000000003

>  <m_primary>  (74) 
energy

>  <rmsd>  (74) 
2.5205566136512196

>  <m_score__min__rmsd>  (74) 
2.5205566136512196

>  <meeko>  (74) 
{"free_energy": -8.2, "intermolecular_energy": -9.69, "internal_energy": -1.64, "cluster_size": 19, "cluster_id": 1, "rank_in_cluster": 4}

>  <energy>  (74) 
-8.47

>  <cluster_rmsd>  (74) 
0.32

>  <cluster>  (74) 
2

$$$$

     RDKit          3D

 47 50  0  0  0  0  0  0  0  0999 V2000
  140.9570   72.4840  220.9690 O   0  0  0  0  0  0  0  0  0  0  0  0
  140.3300   72.7580  222.0060 C   0  0  0  0  0  0  0  0  0  0  0  0
  139.6640   74.0230  222.1540 N   0  0  0  0  0  0  0  0  0  0  0  0
  139.7470   74.9550  221.0720 C   0  0  0  0  0  0  0  0  0  0  0  0
  140.9040   75.8760  221.1900 C   0  0  0  0  0  0  0  0  0  0  0  0
  140.9800   76.5630  222.2390 O   0  0  0  0  0  0  0  0  0  0  0  0
  141.8440   75.9300  220.1290 N   0  0  0  0  0  0  0  0  0  0  0  0
  142.5560   77.1310  219.6490 C   0  0  0  0  0  0  0  0  0  0  0  0
  142.2010   76.9730  218.1550 C   0  0  0  0  0  0  0  0  0  0  0  0
  142.7390   75.5500  217.9570 C   0  0  0  0  0  0  0  0  0  0  0  0
  142.3350   74.8760  219.2590 C   0  0  1  0  0  0  0  0  0  0  0  0
  143.5130   74.1580  219.8230 C   0  0  0  0  0  0  0  0  0  0  0  0
  144.5750   74.7990  220.4200 C   0  0  0  0  0  0  0  0  0  0  0  0
  145.6610   74.1220  220.9580 C   0  0  0  0  0  0  0  0  0  0  0  0
  145.6850   72.7470  220.8960 C   0  0  0  0  0  0  0  0  0  0  0  0
  144.6570   72.1060  220.3180 N   0  0  0  0  0  0  0  0  0  0  0  0
  143.5980   72.7590  219.7940 C   0  0  0  0  0  0  0  0  0  0  0  0
  140.2470   71.8060  223.1110 C   0  0  0  0  0  0  0  0  0  0  0  0
  139.6680   70.5630  222.8840 C   0  0  0  0  0  0  0  0  0  0  0  0
  139.5930   69.6680  223.9330 C   0  0  0  0  0  0  0  0  0  0  0  0
  140.0630   69.9480  225.1990 C   0  0  0  0  0  0  0  0  0  0  0  0
  139.9740   69.0310  226.2320 C   0  0  0  0  0  0  0  0  0  0  0  0
  140.4700   69.3950  227.4650 C   0  0  0  0  0  0  0  0  0  0  0  0
  140.3780   68.2620  228.8040 Cl  0  0  0  0  0  0  0  0  0  0  0  0
  141.0310   70.6350  227.6350 C   0  0  0  0  0  0  0  0  0  0  0  0
  141.1380   71.5750  226.6310 C   0  0  0  0  0  0  0  0  0  0  0  0
  140.6350   71.2080  225.3800 C   0  0  0  0  0  0  0  0  0  0  0  0
  140.7050   72.0770  224.3480 N   0  0  0  0  0  0  0  0  0  0  0  0
  139.1370   74.2240  223.0550 H   0  0  0  0  0  0  0  0  0  0  0  0
  139.8405   74.3929  220.1311 H   0  0  0  0  0  0  0  0  0  0  0  0
  138.8339   75.5680  221.0940 H   0  0  0  0  0  0  0  0  0  0  0  0
  142.1547   78.0594  220.0813 H   0  0  0  0  0  0  0  0  0  0  0  0
  143.6253   77.2023  219.8969 H   0  0  0  0  0  0  0  0  0  0  0  0
  141.1178   77.0377  217.9750 H   0  0  0  0  0  0  0  0  0  0  0  0
  142.6057   77.7405  217.4789 H   0  0  0  0  0  0  0  0  0  0  0  0
  142.2683   75.0615  217.0911 H   0  0  0  0  0  0  0  0  0  0  0  0
  143.8190   75.5084  217.7522 H   0  0  0  0  0  0  0  0  0  0  0  0
  141.5463   74.1210  219.1257 H   0  0  0  0  0  0  0  0  0  0  0  0
  144.5625   75.8976  220.4732 H   0  0  0  0  0  0  0  0  0  0  0  0
  146.4886   74.6751  221.4261 H   0  0  0  0  0  0  0  0  0  0  0  0
  146.5323   72.1831  221.3131 H   0  0  0  0  0  0  0  0  0  0  0  0
  142.7835   72.1803  219.3339 H   0  0  0  0  0  0  0  0  0  0  0  0
  139.2779   70.2979  221.8902 H   0  0  0  0  0  0  0  0  0  0  0  0
  139.1363   68.6842  223.7500 H   0  0  0  0  0  0  0  0  0  0  0  0
  139.5209   68.0413  226.0734 H   0  0  0  0  0  0  0  0  0  0  0  0
  141.4186   70.8954  228.6310 H   0  0  0  0  0  0  0  0  0  0  0  0
  141.5947   72.5603  226.8058 H   0  0  0  0  0  0  0  0  0  0  0  0
  1  2  2  0
  2  3  1  0
  3  4  1  0
  4  5  1  0
  5  6  2  0
  5  7  1  0
  7  8  1  0
  8  9  1  0
  9 10  1  0
 10 11  1  0
 11 12  1  0
 12 13  2  0
 13 14  1  0
 14 15  2  0
 15 16  1  0
 16 17  2  0
  2 18  1  0
 18 19  2  0
 19 20  1  0
 20 21  2  0
 21 22  1  0
 22 23  2  0
 23 24  1  0
 23 25  1  0
 25 26  2  0
 26 27  1  0
 27 28  2  0
 11  7  1  0
 17 12  1  0
 28 18  1  0
 27 21  1  0
  3 29  1  0
  4 30  1  0
  4 31  1  0
  8 32  1  0
  8 33  1  0
  9 34  1  0
  9 35  1  0
 10 36  1  0
 10 37  1  0
 11 38  1  6
 13 39  1  0
 14 40  1  0
 15 41  1  0
 17 42  1  0
 19 43  1  0
 20 44  1  0
 22 45  1  0
 25 46  1  0
 26 47  1  0
M  END
>  <smiles>  (75) 
O=C(NCC(=O)N1CCCC1c1cccnc1)c1ccc2cc(Cl)ccc2n1

>  <score_type>  (75) 
oracle

>  <origin>  (75) 
autodockgpu

>  <m_score__min__energy>  (75) 
-8.5700000000000003

>  <m_primary>  (75) 
energy

>  <rmsd>  (75) 
2.359311110225423

>  <m_score__min__rmsd>  (75) 
2.359311110225423

>  <meeko>  (75) 
{"free_energy": -8.17, "intermolecular_energy": -9.66, "internal_energy": -1.55, "cluster_size": 19, "cluster_id": 1, "rank_in_cluster": 5}

>  <energy>  (75) 
-8.46

>  <cluster_rmsd>  (75) 
1.21

>  <cluster>  (75) 
2

$$$$

     RDKit          3D

 47 50  0  0  0  0  0  0  0  0999 V2000
  140.1440   72.4990  220.7450 O   0  0  0  0  0  0  0  0  0  0  0  0
  139.8870   72.8540  221.9080 C   0  0  0  0  0  0  0  0  0  0  0  0
  139.5130   74.2110  222.2000 N   0  0  0  0  0  0  0  0  0  0  0  0
  139.4460   75.1360  221.1120 C   0  0  0  0  0  0  0  0  0  0  0  0
  140.2580   76.3570  221.3410 C   0  0  0  0  0  0  0  0  0  0  0  0
  141.4930   76.2660  221.1350 O   0  0  0  0  0  0  0  0  0  0  0  0
  139.6040   77.5400  221.7730 N   0  0  0  0  0  0  0  0  0  0  0  0
  138.4840   77.6220  222.7320 C   0  0  0  0  0  0  0  0  0  0  0  0
  137.5490   78.4780  221.8510 C   0  0  0  0  0  0  0  0  0  0  0  0
  138.5090   79.6450  221.5890 C   0  0  0  0  0  0  0  0  0  0  0  0
  139.8360   78.9250  221.4050 C   0  0  1  0  0  0  0  0  0  0  0  0
  140.8710   79.5860  222.2500 C   0  0  0  0  0  0  0  0  0  0  0  0
  142.2000   79.2240  222.2400 C   0  0  0  0  0  0  0  0  0  0  0  0
  143.1610   79.8550  223.0180 C   0  0  0  0  0  0  0  0  0  0  0  0
  142.7770   80.8910  223.8390 C   0  0  0  0  0  0  0  0  0  0  0  0
  141.4850   81.2580  223.8600 N   0  0  0  0  0  0  0  0  0  0  0  0
  140.5470   80.6470  223.1050 C   0  0  0  0  0  0  0  0  0  0  0  0
  139.9560   71.9080  223.0190 C   0  0  0  0  0  0  0  0  0  0  0  0
  139.5100   70.6070  222.8210 C   0  0  0  0  0  0  0  0  0  0  0  0
  139.5780   69.7180  223.8760 C   0  0  0  0  0  0  0  0  0  0  0  0
  140.0670   70.0580  225.1200 C   0  0  0  0  0  0  0  0  0  0  0  0
  140.1240   69.1460  226.1580 C   0  0  0  0  0  0  0  0  0  0  0  0
  140.6290   69.5720  227.3680 C   0  0  0  0  0  0  0  0  0  0  0  0
  140.7180   68.4470  228.7140 Cl  0  0  0  0  0  0  0  0  0  0  0  0
  141.0550   70.8690  227.5090 C   0  0  0  0  0  0  0  0  0  0  0  0
  141.0150   71.8060  226.4990 C   0  0  0  0  0  0  0  0  0  0  0  0
  140.5030   71.3750  225.2710 C   0  0  0  0  0  0  0  0  0  0  0  0
  140.4340   72.2380  224.2340 N   0  0  0  0  0  0  0  0  0  0  0  0
  139.2990   74.4800  223.2060 H   0  0  0  0  0  0  0  0  0  0  0  0
  139.8125   74.6361  220.2033 H   0  0  0  0  0  0  0  0  0  0  0  0
  138.3970   75.4514  221.0111 H   0  0  0  0  0  0  0  0  0  0  0  0
  138.0565   76.6358  222.9659 H   0  0  0  0  0  0  0  0  0  0  0  0
  138.7181   78.0165  223.7318 H   0  0  0  0  0  0  0  0  0  0  0  0
  137.2605   77.9601  220.9244 H   0  0  0  0  0  0  0  0  0  0  0  0
  136.5778   78.7429  222.2943 H   0  0  0  0  0  0  0  0  0  0  0  0
  138.2260   80.2000  220.6824 H   0  0  0  0  0  0  0  0  0  0  0  0
  138.5201   80.3994  222.3895 H   0  0  0  0  0  0  0  0  0  0  0  0
  140.2075   78.9659  220.3704 H   0  0  0  0  0  0  0  0  0  0  0  0
  142.5141   78.3973  221.5858 H   0  0  0  0  0  0  0  0  0  0  0  0
  144.2119   79.5325  222.9791 H   0  0  0  0  0  0  0  0  0  0  0  0
  143.5159   81.4097  224.4675 H   0  0  0  0  0  0  0  0  0  0  0  0
  139.5037   80.9907  223.1628 H   0  0  0  0  0  0  0  0  0  0  0  0
  139.1114   70.2919  221.8454 H   0  0  0  0  0  0  0  0  0  0  0  0
  139.2249   68.6885  223.7162 H   0  0  0  0  0  0  0  0  0  0  0  0
  139.7766   68.1112  226.0222 H   0  0  0  0  0  0  0  0  0  0  0  0
  141.4522   71.1793  228.4867 H   0  0  0  0  0  0  0  0  0  0  0  0
  141.3668   72.8371  226.6506 H   0  0  0  0  0  0  0  0  0  0  0  0
  1  2  2  0
  2  3  1  0
  3  4  1  0
  4  5  1  0
  5  6  2  0
  5  7  1  0
  7  8  1  0
  8  9  1  0
  9 10  1  0
 10 11  1  0
 11 12  1  0
 12 13  2  0
 13 14  1  0
 14 15  2  0
 15 16  1  0
 16 17  2  0
  2 18  1  0
 18 19  2  0
 19 20  1  0
 20 21  2  0
 21 22  1  0
 22 23  2  0
 23 24  1  0
 23 25  1  0
 25 26  2  0
 26 27  1  0
 27 28  2  0
 11  7  1  0
 17 12  1  0
 28 18  1  0
 27 21  1  0
  3 29  1  0
  4 30  1  0
  4 31  1  0
  8 32  1  0
  8 33  1  0
  9 34  1  0
  9 35  1  0
 10 36  1  0
 10 37  1  0
 11 38  1  6
 13 39  1  0
 14 40  1  0
 15 41  1  0
 17 42  1  0
 19 43  1  0
 20 44  1  0
 22 45  1  0
 25 46  1  0
 26 47  1  0
M  END
>  <smiles>  (76) 
O=C(NCC(=O)N1CCCC1c1cccnc1)c1ccc2cc(Cl)ccc2n1

>  <score_type>  (76) 
oracle

>  <origin>  (76) 
autodockgpu

>  <m_score__min__energy>  (76) 
-8.5700000000000003

>  <m_primary>  (76) 
energy

>  <rmsd>  (76) 
2.9228950489567893

>  <m_score__min__rmsd>  (76) 
2.9228950489567893

>  <meeko>  (76) 
{"free_energy": -8.46, "intermolecular_energy": -9.95, "internal_energy": -1.23, "cluster_size": 17, "cluster_id": 2, "rank_in_cluster": 6}

>  <energy>  (76) 
-8.46

>  <cluster_rmsd>  (76) 
0.64

>  <cluster>  (76) 
2

$$$$

     RDKit          3D

 47 50  0  0  0  0  0  0  0  0999 V2000
  139.9180   72.1030  220.6930 O   0  0  0  0  0  0  0  0  0  0  0  0
  139.8250   72.5030  221.8660 C   0  0  0  0  0  0  0  0  0  0  0  0
  139.6240   73.8960  222.1570 N   0  0  0  0  0  0  0  0  0  0  0  0
  139.5350   74.8050  221.0560 C   0  0  0  0  0  0  0  0  0  0  0  0
  140.4070   75.9940  221.2170 C   0  0  0  0  0  0  0  0  0  0  0  0
  140.1450   76.7670  222.1710 O   0  0  0  0  0  0  0  0  0  0  0  0
  141.4720   76.1890  220.3000 N   0  0  0  0  0  0  0  0  0  0  0  0
  142.2380   77.4340  220.0970 C   0  0  0  0  0  0  0  0  0  0  0  0
  142.0700   77.5090  218.5650 C   0  0  0  0  0  0  0  0  0  0  0  0
  142.6280   76.1220  218.2210 C   0  0  0  0  0  0  0  0  0  0  0  0
  142.0660   75.2680  219.3460 C   0  0  1  0  0  0  0  0  0  0  0  0
  143.1640   74.4500  219.9350 C   0  0  0  0  0  0  0  0  0  0  0  0
  143.0100   73.1350  220.3130 C   0  0  0  0  0  0  0  0  0  0  0  0
  144.0430   72.3750  220.8450 C   0  0  0  0  0  0  0  0  0  0  0  0
  145.2810   72.9560  221.0050 C   0  0  0  0  0  0  0  0  0  0  0  0
  145.4500   74.2370  220.6400 N   0  0  0  0  0  0  0  0  0  0  0  0
  144.4480   74.9790  220.1220 C   0  0  0  0  0  0  0  0  0  0  0  0
  139.9160   71.5740  222.9900 C   0  0  0  0  0  0  0  0  0  0  0  0
  139.4730   70.2680  222.8190 C   0  0  0  0  0  0  0  0  0  0  0  0
  139.5620   69.3960  223.8860 C   0  0  0  0  0  0  0  0  0  0  0  0
  140.0700   69.7560  225.1160 C   0  0  0  0  0  0  0  0  0  0  0  0
  140.1480   68.8610  226.1670 C   0  0  0  0  0  0  0  0  0  0  0  0
  140.6690   69.3070  227.3620 C   0  0  0  0  0  0  0  0  0  0  0  0
  140.7860   68.2030  228.7230 Cl  0  0  0  0  0  0  0  0  0  0  0  0
  141.0920   70.6070  227.4770 C   0  0  0  0  0  0  0  0  0  0  0  0
  141.0320   71.5290  226.4530 C   0  0  0  0  0  0  0  0  0  0  0  0
  140.5020   71.0770  225.2400 C   0  0  0  0  0  0  0  0  0  0  0  0
  140.4120   71.9240  224.1920 N   0  0  0  0  0  0  0  0  0  0  0  0
  139.5490   74.2030  223.1720 H   0  0  0  0  0  0  0  0  0  0  0  0
  139.8303   74.2749  220.1385 H   0  0  0  0  0  0  0  0  0  0  0  0
  138.4958   75.1622  221.0061 H   0  0  0  0  0  0  0  0  0  0  0  0
  141.7870   78.2946  220.6126 H   0  0  0  0  0  0  0  0  0  0  0  0
  143.2688   77.4465  220.4809 H   0  0  0  0  0  0  0  0  0  0  0  0
  141.0172   77.6204  218.2662 H   0  0  0  0  0  0  0  0  0  0  0  0
  142.5551   78.3616  218.0673 H   0  0  0  0  0  0  0  0  0  0  0  0
  142.2680   75.7783  217.2400 H   0  0  0  0  0  0  0  0  0  0  0  0
  143.7250   76.0911  218.1460 H   0  0  0  0  0  0  0  0  0  0  0  0
  141.2995   74.5572  219.0035 H   0  0  0  0  0  0  0  0  0  0  0  0
  142.0234   72.6650  220.1878 H   0  0  0  0  0  0  0  0  0  0  0  0
  143.8753   71.3269  221.1337 H   0  0  0  0  0  0  0  0  0  0  0  0
  146.1184   72.3797  221.4253 H   0  0  0  0  0  0  0  0  0  0  0  0
  144.6443   76.0239  219.8400 H   0  0  0  0  0  0  0  0  0  0  0  0
  139.0605   69.9361  221.8548 H   0  0  0  0  0  0  0  0  0  0  0  0
  139.2101   68.3630  223.7477 H   0  0  0  0  0  0  0  0  0  0  0  0
  139.8039   67.8225  226.0524 H   0  0  0  0  0  0  0  0  0  0  0  0
  141.5035   70.9335  228.4435 H   0  0  0  0  0  0  0  0  0  0  0  0
  141.3820   72.5637  226.5832 H   0  0  0  0  0  0  0  0  0  0  0  0
  1  2  2  0
  2  3  1  0
  3  4  1  0
  4  5  1  0
  5  6  2  0
  5  7  1  0
  7  8  1  0
  8  9  1  0
  9 10  1  0
 10 11  1  0
 11 12  1  0
 12 13  2  0
 13 14  1  0
 14 15  2  0
 15 16  1  0
 16 17  2  0
  2 18  1  0
 18 19  2  0
 19 20  1  0
 20 21  2  0
 21 22  1  0
 22 23  2  0
 23 24  1  0
 23 25  1  0
 25 26  2  0
 26 27  1  0
 27 28  2  0
 11  7  1  0
 17 12  1  0
 28 18  1  0
 27 21  1  0
  3 29  1  0
  4 30  1  0
  4 31  1  0
  8 32  1  0
  8 33  1  0
  9 34  1  0
  9 35  1  0
 10 36  1  0
 10 37  1  0
 11 38  1  6
 13 39  1  0
 14 40  1  0
 15 41  1  0
 17 42  1  0
 19 43  1  0
 20 44  1  0
 22 45  1  0
 25 46  1  0
 26 47  1  0
M  END
>  <smiles>  (77) 
O=C(NCC(=O)N1CCCC1c1cccnc1)c1ccc2cc(Cl)ccc2n1

>  <score_type>  (77) 
oracle

>  <origin>  (77) 
autodockgpu

>  <m_score__min__energy>  (77) 
-8.5700000000000003

>  <m_primary>  (77) 
energy

>  <rmsd>  (77) 
2.206044108710735

>  <m_score__min__rmsd>  (77) 
2.206044108710735

>  <meeko>  (77) 
{"free_energy": -8.13, "intermolecular_energy": -9.62, "internal_energy": -1.76, "cluster_size": 19, "cluster_id": 1, "rank_in_cluster": 9}

>  <energy>  (77) 
-8.46

>  <cluster_rmsd>  (77) 
0.5

>  <cluster>  (77) 
2

$$$$

     RDKit          3D

 47 50  0  0  0  0  0  0  0  0999 V2000
  140.2380   72.5440  220.8040 O   0  0  0  0  0  0  0  0  0  0  0  0
  139.9730   72.8880  221.9680 C   0  0  0  0  0  0  0  0  0  0  0  0
  139.6220   74.2480  222.2740 N   0  0  0  0  0  0  0  0  0  0  0  0
  139.5880   75.1900  221.1980 C   0  0  0  0  0  0  0  0  0  0  0  0
  140.7220   76.1460  221.2310 C   0  0  0  0  0  0  0  0  0  0  0  0
  140.7690   76.9400  222.2030 O   0  0  0  0  0  0  0  0  0  0  0  0
  141.6750   76.1100  220.1810 N   0  0  0  0  0  0  0  0  0  0  0  0
  142.4380   77.2570  219.6500 C   0  0  0  0  0  0  0  0  0  0  0  0
  142.0940   77.0370  218.1620 C   0  0  0  0  0  0  0  0  0  0  0  0
  142.5790   75.5870  218.0420 C   0  0  0  0  0  0  0  0  0  0  0  0
  142.1340   74.9950  219.3720 C   0  0  1  0  0  0  0  0  0  0  0  0
  143.2780   74.2620  219.9860 C   0  0  0  0  0  0  0  0  0  0  0  0
  144.4950   74.8470  220.2540 C   0  0  0  0  0  0  0  0  0  0  0  0
  145.5500   74.1620  220.8420 C   0  0  0  0  0  0  0  0  0  0  0  0
  145.3790   72.8370  221.1740 C   0  0  0  0  0  0  0  0  0  0  0  0
  144.1980   72.2510  220.9210 N   0  0  0  0  0  0  0  0  0  0  0  0
  143.1690   72.9130  220.3500 C   0  0  0  0  0  0  0  0  0  0  0  0
  140.0080   71.9250  223.0670 C   0  0  0  0  0  0  0  0  0  0  0  0
  139.5340   70.6380  222.8470 C   0  0  0  0  0  0  0  0  0  0  0  0
  139.5710   69.7340  223.8900 C   0  0  0  0  0  0  0  0  0  0  0  0
  140.0540   70.0450  225.1430 C   0  0  0  0  0  0  0  0  0  0  0  0
  140.0790   69.1190  226.1690 C   0  0  0  0  0  0  0  0  0  0  0  0
  140.5800   69.5160  227.3900 C   0  0  0  0  0  0  0  0  0  0  0  0
  140.6290   68.3710  228.7210 Cl  0  0  0  0  0  0  0  0  0  0  0  0
  141.0350   70.8000  227.5530 C   0  0  0  0  0  0  0  0  0  0  0  0
  141.0280   71.7520  226.5560 C   0  0  0  0  0  0  0  0  0  0  0  0
  140.5190   71.3500  225.3170 C   0  0  0  0  0  0  0  0  0  0  0  0
  140.4800   72.2280  224.2910 N   0  0  0  0  0  0  0  0  0  0  0  0
  139.4010   74.5080  223.2810 H   0  0  0  0  0  0  0  0  0  0  0  0
  139.6220   74.6380  220.2471 H   0  0  0  0  0  0  0  0  0  0  0  0
  138.6613   75.7738  221.2998 H   0  0  0  0  0  0  0  0  0  0  0  0
  142.0681   78.2208  220.0297 H   0  0  0  0  0  0  0  0  0  0  0  0
  143.5065   77.3000  219.9077 H   0  0  0  0  0  0  0  0  0  0  0  0
  141.0161   77.1333  217.9651 H   0  0  0  0  0  0  0  0  0  0  0  0
  142.5355   77.7535  217.4537 H   0  0  0  0  0  0  0  0  0  0  0  0
  142.0996   75.0737  217.1954 H   0  0  0  0  0  0  0  0  0  0  0  0
  143.6587   75.4940  217.8536 H   0  0  0  0  0  0  0  0  0  0  0  0
  141.3179   74.2649  219.2674 H   0  0  0  0  0  0  0  0  0  0  0  0
  144.6382   75.9053  219.9903 H   0  0  0  0  0  0  0  0  0  0  0  0
  146.5059   74.6693  221.0391 H   0  0  0  0  0  0  0  0  0  0  0  0
  146.1971   72.2675  221.6392 H   0  0  0  0  0  0  0  0  0  0  0  0
  142.2237   72.3814  220.1664 H   0  0  0  0  0  0  0  0  0  0  0  0
  139.1378   70.3454  221.8634 H   0  0  0  0  0  0  0  0  0  0  0  0
  139.1965   68.7151  223.7122 H   0  0  0  0  0  0  0  0  0  0  0  0
  139.7095   68.0944  226.0153 H   0  0  0  0  0  0  0  0  0  0  0  0
  141.4293   71.0872  228.5389 H   0  0  0  0  0  0  0  0  0  0  0  0
  141.4024   72.7723  226.7257 H   0  0  0  0  0  0  0  0  0  0  0  0
  1  2  2  0
  2  3  1  0
  3  4  1  0
  4  5  1  0
  5  6  2  0
  5  7  1  0
  7  8  1  0
  8  9  1  0
  9 10  1  0
 10 11  1  0
 11 12  1  0
 12 13  2  0
 13 14  1  0
 14 15  2  0
 15 16  1  0
 16 17  2  0
  2 18  1  0
 18 19  2  0
 19 20  1  0
 20 21  2  0
 21 22  1  0
 22 23  2  0
 23 24  1  0
 23 25  1  0
 25 26  2  0
 26 27  1  0
 27 28  2  0
 11  7  1  0
 17 12  1  0
 28 18  1  0
 27 21  1  0
  3 29  1  0
  4 30  1  0
  4 31  1  0
  8 32  1  0
  8 33  1  0
  9 34  1  0
  9 35  1  0
 10 36  1  0
 10 37  1  0
 11 38  1  6
 13 39  1  0
 14 40  1  0
 15 41  1  0
 17 42  1  0
 19 43  1  0
 20 44  1  0
 22 45  1  0
 25 46  1  0
 26 47  1  0
M  END
>  <smiles>  (78) 
O=C(NCC(=O)N1CCCC1c1cccnc1)c1ccc2cc(Cl)ccc2n1

>  <score_type>  (78) 
oracle

>  <origin>  (78) 
autodockgpu

>  <m_score__min__energy>  (78) 
-8.5700000000000003

>  <m_primary>  (78) 
energy

>  <rmsd>  (78) 
2.3276584955061588

>  <m_score__min__rmsd>  (78) 
2.3276584955061588

>  <meeko>  (78) 
{"free_energy": -8.12, "intermolecular_energy": -9.61, "internal_energy": -1.7, "cluster_size": 19, "cluster_id": 1, "rank_in_cluster": 12}

>  <energy>  (78) 
-8.46

>  <cluster_rmsd>  (78) 
0.59

>  <cluster>  (78) 
2

$$$$

     RDKit          3D

 47 50  0  0  0  0  0  0  0  0999 V2000
  140.1790   73.9090  222.2010 O   0  0  0  0  0  0  0  0  0  0  0  0
  139.8800   72.7160  222.0250 C   0  0  0  0  0  0  0  0  0  0  0  0
  139.4600   72.2420  220.7350 N   0  0  0  0  0  0  0  0  0  0  0  0
  139.3970   73.1850  219.6630 C   0  0  0  0  0  0  0  0  0  0  0  0
  140.6880   73.3340  218.9470 C   0  0  0  0  0  0  0  0  0  0  0  0
  140.9040   74.4370  218.3870 O   0  0  0  0  0  0  0  0  0  0  0  0
  141.5910   72.2400  218.9340 N   0  0  0  0  0  0  0  0  0  0  0  0
  141.8660   71.3430  217.7930 C   0  0  0  0  0  0  0  0  0  0  0  0
  141.6410   70.0140  218.5440 C   0  0  0  0  0  0  0  0  0  0  0  0
  142.6400   70.2400  219.6850 C   0  0  0  0  0  0  0  0  0  0  0  0
  142.4430   71.7180  219.9880 C   0  0  1  0  0  0  0  0  0  0  0  0
  143.7750   72.3860  220.0430 C   0  0  0  0  0  0  0  0  0  0  0  0
  144.0190   73.5270  220.7750 C   0  0  0  0  0  0  0  0  0  0  0  0
  145.2660   74.1340  220.8350 C   0  0  0  0  0  0  0  0  0  0  0  0
  146.3110   73.5770  220.1330 C   0  0  0  0  0  0  0  0  0  0  0  0
  146.0910   72.4640  219.4150 N   0  0  0  0  0  0  0  0  0  0  0  0
  144.8800   71.8700  219.3540 C   0  0  0  0  0  0  0  0  0  0  0  0
  139.9450   71.7530  223.1220 C   0  0  0  0  0  0  0  0  0  0  0  0
  139.4800   70.4610  222.9090 C   0  0  0  0  0  0  0  0  0  0  0  0
  139.5440   69.5560  223.9510 C   0  0  0  0  0  0  0  0  0  0  0  0
  140.0460   69.8720  225.1960 C   0  0  0  0  0  0  0  0  0  0  0  0
  140.0980   68.9450  226.2210 C   0  0  0  0  0  0  0  0  0  0  0  0
  140.6160   69.3470  227.4330 C   0  0  0  0  0  0  0  0  0  0  0  0
  140.7000   68.2010  228.7620 Cl  0  0  0  0  0  0  0  0  0  0  0  0
  141.0600   70.6350  227.5900 C   0  0  0  0  0  0  0  0  0  0  0  0
  141.0260   71.5880  226.5930 C   0  0  0  0  0  0  0  0  0  0  0  0
  140.5000   71.1810  225.3630 C   0  0  0  0  0  0  0  0  0  0  0  0
  140.4350   72.0590  224.3390 N   0  0  0  0  0  0  0  0  0  0  0  0
  139.2120   71.2150  220.6210 H   0  0  0  0  0  0  0  0  0  0  0  0
  138.6343   72.8493  218.9449 H   0  0  0  0  0  0  0  0  0  0  0  0
  139.1471   74.1635  220.0990 H   0  0  0  0  0  0  0  0  0  0  0  0
  141.1557   71.4845  216.9651 H   0  0  0  0  0  0  0  0  0  0  0  0
  142.8364   71.4675  217.2903 H   0  0  0  0  0  0  0  0  0  0  0  0
  140.6084   69.9116  218.9089 H   0  0  0  0  0  0  0  0  0  0  0  0
  141.7827   69.0967  217.9537 H   0  0  0  0  0  0  0  0  0  0  0  0
  142.3972   69.6169  220.5584 H   0  0  0  0  0  0  0  0  0  0  0  0
  143.6758   69.9737  219.4276 H   0  0  0  0  0  0  0  0  0  0  0  0
  141.9646   71.8979  220.9621 H   0  0  0  0  0  0  0  0  0  0  0  0
  143.1881   73.9777  221.3375 H   0  0  0  0  0  0  0  0  0  0  0  0
  145.4166   75.0447  221.4334 H   0  0  0  0  0  0  0  0  0  0  0  0
  147.3101   74.0364  220.1599 H   0  0  0  0  0  0  0  0  0  0  0  0
  144.7583   70.9594  218.7490 H   0  0  0  0  0  0  0  0  0  0  0  0
  139.0699   70.1652  221.9321 H   0  0  0  0  0  0  0  0  0  0  0  0
  139.1766   68.5335  223.7792 H   0  0  0  0  0  0  0  0  0  0  0  0
  139.7364   67.9167  226.0731 H   0  0  0  0  0  0  0  0  0  0  0  0
  141.4676   70.9257  228.5695 H   0  0  0  0  0  0  0  0  0  0  0  0
  141.3927   72.6121  226.7567 H   0  0  0  0  0  0  0  0  0  0  0  0
  1  2  2  0
  2  3  1  0
  3  4  1  0
  4  5  1  0
  5  6  2  0
  5  7  1  0
  7  8  1  0
  8  9  1  0
  9 10  1  0
 10 11  1  0
 11 12  1  0
 12 13  2  0
 13 14  1  0
 14 15  2  0
 15 16  1  0
 16 17  2  0
  2 18  1  0
 18 19  2  0
 19 20  1  0
 20 21  2  0
 21 22  1  0
 22 23  2  0
 23 24  1  0
 23 25  1  0
 25 26  2  0
 26 27  1  0
 27 28  2  0
 11  7  1  0
 17 12  1  0
 28 18  1  0
 27 21  1  0
  3 29  1  0
  4 30  1  0
  4 31  1  0
  8 32  1  0
  8 33  1  0
  9 34  1  0
  9 35  1  0
 10 36  1  0
 10 37  1  0
 11 38  1  1
 13 39  1  0
 14 40  1  0
 15 41  1  0
 17 42  1  0
 19 43  1  0
 20 44  1  0
 22 45  1  0
 25 46  1  0
 26 47  1  0
M  END
>  <smiles>  (79) 
O=C(NCC(=O)N1CCCC1c1cccnc1)c1ccc2cc(Cl)ccc2n1

>  <score_type>  (79) 
oracle

>  <origin>  (79) 
autodockgpu

>  <m_score__min__energy>  (79) 
-8.5700000000000003

>  <m_primary>  (79) 
energy

>  <rmsd>  (79) 
3.7455282211662952

>  <m_score__min__rmsd>  (79) 
3.7455282211662952

>  <meeko>  (79) 
{"free_energy": -7.68, "intermolecular_energy": -9.17, "internal_energy": -1.68, "cluster_size": 19, "cluster_id": 1, "rank_in_cluster": 17}

>  <energy>  (79) 
-8.42

>  <cluster_rmsd>  (79) 
0.87

>  <cluster>  (79) 
2

$$$$

     RDKit          3D

 47 50  0  0  0  0  0  0  0  0999 V2000
  138.6920   71.6700  220.7580 O   0  0  0  0  0  0  0  0  0  0  0  0
  138.9180   72.1490  221.8820 C   0  0  0  0  0  0  0  0  0  0  0  0
  138.8840   73.5690  222.1000 N   0  0  0  0  0  0  0  0  0  0  0  0
  138.5810   74.4110  220.9860 C   0  0  0  0  0  0  0  0  0  0  0  0
  139.7100   74.5310  220.0290 C   0  0  0  0  0  0  0  0  0  0  0  0
  139.6160   73.8880  218.9550 O   0  0  0  0  0  0  0  0  0  0  0  0
  140.8130   75.3530  220.3760 N   0  0  0  0  0  0  0  0  0  0  0  0
  140.9080   76.2460  221.5480 C   0  0  0  0  0  0  0  0  0  0  0  0
  141.3280   77.5170  220.7810 C   0  0  0  0  0  0  0  0  0  0  0  0
  142.5590   76.9410  220.0700 C   0  0  0  0  0  0  0  0  0  0  0  0
  142.0860   75.5430  219.7030 C   0  0  1  0  0  0  0  0  0  0  0  0
  143.1180   74.5530  220.1210 C   0  0  0  0  0  0  0  0  0  0  0  0
  142.8250   73.2490  220.4530 C   0  0  0  0  0  0  0  0  0  0  0  0
  143.7950   72.3280  220.8250 C   0  0  0  0  0  0  0  0  0  0  0  0
  145.1110   72.7280  220.8680 C   0  0  0  0  0  0  0  0  0  0  0  0
  145.4150   73.9960  220.5470 N   0  0  0  0  0  0  0  0  0  0  0  0
  144.4760   74.8950  220.1840 C   0  0  0  0  0  0  0  0  0  0  0  0
  139.2280   71.2870  223.0200 C   0  0  0  0  0  0  0  0  0  0  0  0
  138.8960   69.9400  222.9520 C   0  0  0  0  0  0  0  0  0  0  0  0
  139.1910   69.1310  224.0320 C   0  0  0  0  0  0  0  0  0  0  0  0
  139.8000   69.5950  225.1790 C   0  0  0  0  0  0  0  0  0  0  0  0
  140.0840   68.7620  226.2460 C   0  0  0  0  0  0  0  0  0  0  0  0
  140.6940   69.3110  227.3530 C   0  0  0  0  0  0  0  0  0  0  0  0
  141.0720   68.2890  228.7300 Cl  0  0  0  0  0  0  0  0  0  0  0  0
  141.0000   70.6490  227.3680 C   0  0  0  0  0  0  0  0  0  0  0  0
  140.7340   71.5110  226.3260 C   0  0  0  0  0  0  0  0  0  0  0  0
  140.1140   70.9550  225.2020 C   0  0  0  0  0  0  0  0  0  0  0  0
  139.8220   71.7380  224.1410 N   0  0  0  0  0  0  0  0  0  0  0  0
  139.0830   73.9440  223.0750 H   0  0  0  0  0  0  0  0  0  0  0  0
  137.7136   73.9920  220.4549 H   0  0  0  0  0  0  0  0  0  0  0  0
  138.3730   75.4170  221.3793 H   0  0  0  0  0  0  0  0  0  0  0  0
  139.9447   76.3655  222.0654 H   0  0  0  0  0  0  0  0  0  0  0  0
  141.5713   75.9205  222.3629 H   0  0  0  0  0  0  0  0  0  0  0  0
  140.5555   77.8502  220.0723 H   0  0  0  0  0  0  0  0  0  0  0  0
  141.5002   78.4149  221.3927 H   0  0  0  0  0  0  0  0  0  0  0  0
  142.8127   77.5255  219.1733 H   0  0  0  0  0  0  0  0  0  0  0  0
  143.4721   76.9538  220.6832 H   0  0  0  0  0  0  0  0  0  0  0  0
  141.9462   75.4068  218.6205 H   0  0  0  0  0  0  0  0  0  0  0  0
  141.7751   72.9224  220.4221 H   0  0  0  0  0  0  0  0  0  0  0  0
  143.5161   71.2953  221.0812 H   0  0  0  0  0  0  0  0  0  0  0  0
  145.9010   72.0206  221.1605 H   0  0  0  0  0  0  0  0  0  0  0  0
  144.7837   75.9205  219.9316 H   0  0  0  0  0  0  0  0  0  0  0  0
  138.4084   69.5262  222.0570 H   0  0  0  0  0  0  0  0  0  0  0  0
  138.9273   68.0646  223.9744 H   0  0  0  0  0  0  0  0  0  0  0  0
  139.8303   67.6922  226.2119 H   0  0  0  0  0  0  0  0  0  0  0  0
  141.4868   71.0579  228.2657 H   0  0  0  0  0  0  0  0  0  0  0  0
  140.9951   72.5784  226.3755 H   0  0  0  0  0  0  0  0  0  0  0  0
  1  2  2  0
  2  3  1  0
  3  4  1  0
  4  5  1  0
  5  6  2  0
  5  7  1  0
  7  8  1  0
  8  9  1  0
  9 10  1  0
 10 11  1  0
 11 12  1  0
 12 13  2  0
 13 14  1  0
 14 15  2  0
 15 16  1  0
 16 17  2  0
  2 18  1  0
 18 19  2  0
 19 20  1  0
 20 21  2  0
 21 22  1  0
 22 23  2  0
 23 24  1  0
 23 25  1  0
 25 26  2  0
 26 27  1  0
 27 28  2  0
 11  7  1  0
 17 12  1  0
 28 18  1  0
 27 21  1  0
  3 29  1  0
  4 30  1  0
  4 31  1  0
  8 32  1  0
  8 33  1  0
  9 34  1  0
  9 35  1  0
 10 36  1  0
 10 37  1  0
 11 38  1  6
 13 39  1  0
 14 40  1  0
 15 41  1  0
 17 42  1  0
 19 43  1  0
 20 44  1  0
 22 45  1  0
 25 46  1  0
 26 47  1  0
M  END
>  <smiles>  (80) 
O=C(NCC(=O)N1CCCC1c1cccnc1)c1ccc2cc(Cl)ccc2n1

>  <score_type>  (80) 
oracle

>  <origin>  (80) 
autodockgpu

>  <m_score__min__energy>  (80) 
-8.5700000000000003

>  <m_primary>  (80) 
energy

>  <rmsd>  (80) 
2.1060127271062075

>  <m_score__min__rmsd>  (80) 
2.1060127271062075

>  <meeko>  (80) 
{"free_energy": -7.69, "intermolecular_energy": -9.18, "internal_energy": -1.67, "cluster_size": 19, "cluster_id": 1, "rank_in_cluster": 16}

>  <energy>  (80) 
-8.4

>  <cluster_rmsd>  (80) 
0.59

>  <cluster>  (80) 
2

$$$$

     RDKit          3D

 47 50  0  0  0  0  0  0  0  0999 V2000
  133.8970   70.1880  226.5970 O   0  0  0  0  0  0  0  0  0  0  0  0
  134.1320   71.3070  226.1110 C   0  0  0  0  0  0  0  0  0  0  0  0
  135.1070   71.4690  225.0680 N   0  0  0  0  0  0  0  0  0  0  0  0
  135.7960   70.3040  224.6080 C   0  0  0  0  0  0  0  0  0  0  0  0
  137.1290   70.6110  224.0320 C   0  0  0  0  0  0  0  0  0  0  0  0
  137.2080   71.6160  223.2830 O   0  0  0  0  0  0  0  0  0  0  0  0
  138.2220   69.7660  224.3540 N   0  0  0  0  0  0  0  0  0  0  0  0
  139.1900   69.1830  223.4020 C   0  0  0  0  0  0  0  0  0  0  0  0
  139.0560   67.7200  223.8740 C   0  0  0  0  0  0  0  0  0  0  0  0
  139.3770   67.9430  225.3570 C   0  0  0  0  0  0  0  0  0  0  0  0
  138.6650   69.2570  225.6400 C   0  0  1  0  0  0  0  0  0  0  0  0
  139.6030   70.1800  226.3390 C   0  0  0  0  0  0  0  0  0  0  0  0
  139.8210   70.1500  227.6990 C   0  0  0  0  0  0  0  0  0  0  0  0
  140.7090   71.0020  228.3410 C   0  0  0  0  0  0  0  0  0  0  0  0
  141.4070   71.9220  227.5920 C   0  0  0  0  0  0  0  0  0  0  0  0
  141.2080   71.9640  226.2640 N   0  0  0  0  0  0  0  0  0  0  0  0
  140.3460   71.1380  225.6360 C   0  0  0  0  0  0  0  0  0  0  0  0
  133.4270   72.4970  226.5830 C   0  0  0  0  0  0  0  0  0  0  0  0
  132.2030   72.3440  227.2200 C   0  0  0  0  0  0  0  0  0  0  0  0
  131.5420   73.4730  227.6630 C   0  0  0  0  0  0  0  0  0  0  0  0
  132.0380   74.7500  227.5020 C   0  0  0  0  0  0  0  0  0  0  0  0
  131.3550   75.8630  227.9560 C   0  0  0  0  0  0  0  0  0  0  0  0
  131.9260   77.1010  227.7530 C   0  0  0  0  0  0  0  0  0  0  0  0
  131.0910   78.5420  228.3120 Cl  0  0  0  0  0  0  0  0  0  0  0  0
  133.1370   77.1960  227.1160 C   0  0  0  0  0  0  0  0  0  0  0  0
  133.8490   76.1110  226.6500 C   0  0  0  0  0  0  0  0  0  0  0  0
  133.2710   74.8540  226.8560 C   0  0  0  0  0  0  0  0  0  0  0  0
  133.9100   73.7450  226.4260 N   0  0  0  0  0  0  0  0  0  0  0  0
  135.2830   72.4410  224.6760 H   0  0  0  0  0  0  0  0  0  0  0  0
  135.9302   69.6175  225.4569 H   0  0  0  0  0  0  0  0  0  0  0  0
  135.1872   69.8541  223.8099 H   0  0  0  0  0  0  0  0  0  0  0  0
  138.8834   69.3173  222.3542 H   0  0  0  0  0  0  0  0  0  0  0  0
  140.2032   69.6112  223.4044 H   0  0  0  0  0  0  0  0  0  0  0  0
  138.0407   67.3248  223.7224 H   0  0  0  0  0  0  0  0  0  0  0  0
  139.6839   66.9845  223.3498 H   0  0  0  0  0  0  0  0  0  0  0  0
  138.9766   67.1292  225.9794 H   0  0  0  0  0  0  0  0  0  0  0  0
  140.4541   67.9651  225.5794 H   0  0  0  0  0  0  0  0  0  0  0  0
  137.7942   69.1405  226.3019 H   0  0  0  0  0  0  0  0  0  0  0  0
  139.2661   69.4175  228.3036 H   0  0  0  0  0  0  0  0  0  0  0  0
  140.8525   70.9430  229.4300 H   0  0  0  0  0  0  0  0  0  0  0  0
  142.1163   72.6117  228.0729 H   0  0  0  0  0  0  0  0  0  0  0  0
  140.2233   71.2183  224.5458 H   0  0  0  0  0  0  0  0  0  0  0  0
  131.7686   71.3444  227.3688 H   0  0  0  0  0  0  0  0  0  0  0  0
  130.5732   73.3477  228.1686 H   0  0  0  0  0  0  0  0  0  0  0  0
  130.3845   75.7635  228.4642 H   0  0  0  0  0  0  0  0  0  0  0  0
  133.5660   78.1980  226.9680 H   0  0  0  0  0  0  0  0  0  0  0  0
  134.8186   76.2276  226.1438 H   0  0  0  0  0  0  0  0  0  0  0  0
  1  2  2  0
  2  3  1  0
  3  4  1  0
  4  5  1  0
  5  6  2  0
  5  7  1  0
  7  8  1  0
  8  9  1  0
  9 10  1  0
 10 11  1  0
 11 12  1  0
 12 13  2  0
 13 14  1  0
 14 15  2  0
 15 16  1  0
 16 17  2  0
  2 18  1  0
 18 19  2  0
 19 20  1  0
 20 21  2  0
 21 22  1  0
 22 23  2  0
 23 24  1  0
 23 25  1  0
 25 26  2  0
 26 27  1  0
 27 28  2  0
 11  7  1  0
 17 12  1  0
 28 18  1  0
 27 21  1  0
  3 29  1  0
  4 30  1  0
  4 31  1  0
  8 32  1  0
  8 33  1  0
  9 34  1  0
  9 35  1  0
 10 36  1  0
 10 37  1  0
 11 38  1  1
 13 39  1  0
 14 40  1  0
 15 41  1  0
 17 42  1  0
 19 43  1  0
 20 44  1  0
 22 45  1  0
 25 46  1  0
 26 47  1  0
M  END
>  <smiles>  (81) 
O=C(NCC(=O)N1CCCC1c1cccnc1)c1ccc2cc(Cl)ccc2n1

>  <score_type>  (81) 
oracle

>  <origin>  (81) 
autodockgpu

>  <m_score__min__energy>  (81) 
-8.5700000000000003

>  <m_primary>  (81) 
energy

>  <rmsd>  (81) 
8.911822053600234

>  <m_score__min__rmsd>  (81) 
8.911822053600234

>  <meeko>  (81) 
{"free_energy": -8.15, "intermolecular_energy": -9.64, "internal_energy": -1.53, "cluster_size": 8, "cluster_id": 3, "rank_in_cluster": 4}

>  <energy>  (81) 
-8.37

>  <cluster_rmsd>  (81) 
0.73

>  <cluster>  (81) 
2

$$$$

     RDKit          3D

 47 50  0  0  0  0  0  0  0  0999 V2000
  139.5380   72.1420  220.8140 O   0  0  0  0  0  0  0  0  0  0  0  0
  139.6050   72.5350  221.9910 C   0  0  0  0  0  0  0  0  0  0  0  0
  139.5160   73.9340  222.3080 N   0  0  0  0  0  0  0  0  0  0  0  0
  139.3460   74.8560  221.2290 C   0  0  0  0  0  0  0  0  0  0  0  0
  139.4050   76.2730  221.6650 C   0  0  0  0  0  0  0  0  0  0  0  0
  138.8190   76.5630  222.7370 O   0  0  0  0  0  0  0  0  0  0  0  0
  140.1070   77.2070  220.8600 N   0  0  0  0  0  0  0  0  0  0  0  0
  139.5520   77.9910  219.7390 C   0  0  0  0  0  0  0  0  0  0  0  0
  140.6270   77.6140  218.6980 C   0  0  0  0  0  0  0  0  0  0  0  0
  141.8600   78.0580  219.4940 C   0  0  0  0  0  0  0  0  0  0  0  0
  141.4980   77.6210  220.9050 C   0  0  1  0  0  0  0  0  0  0  0  0
  141.7370   78.7550  221.8430 C   0  0  0  0  0  0  0  0  0  0  0  0
  141.7630   78.6110  223.2130 C   0  0  0  0  0  0  0  0  0  0  0  0
  142.0020   79.6690  224.0790 C   0  0  0  0  0  0  0  0  0  0  0  0
  142.2240   80.9220  223.5540 C   0  0  0  0  0  0  0  0  0  0  0  0
  142.2030   81.0800  222.2210 N   0  0  0  0  0  0  0  0  0  0  0  0
  141.9710   80.0540  221.3740 C   0  0  0  0  0  0  0  0  0  0  0  0
  139.7790   71.5920  223.0930 C   0  0  0  0  0  0  0  0  0  0  0  0
  139.4200   70.2630  222.9030 C   0  0  0  0  0  0  0  0  0  0  0  0
  139.5860   69.3770  223.9490 C   0  0  0  0  0  0  0  0  0  0  0  0
  140.0920   69.7470  225.1780 C   0  0  0  0  0  0  0  0  0  0  0  0
  140.2480   68.8370  226.2080 C   0  0  0  0  0  0  0  0  0  0  0  0
  140.7610   69.2940  227.4030 C   0  0  0  0  0  0  0  0  0  0  0  0
  140.9760   68.1730  228.7380 Cl  0  0  0  0  0  0  0  0  0  0  0  0
  141.0990   70.6170  227.5380 C   0  0  0  0  0  0  0  0  0  0  0  0
  140.9590   71.5530  226.5350 C   0  0  0  0  0  0  0  0  0  0  0  0
  140.4380   71.0910  225.3220 C   0  0  0  0  0  0  0  0  0  0  0  0
  140.2720   71.9500  224.2940 N   0  0  0  0  0  0  0  0  0  0  0  0
  139.5780   74.2350  223.3250 H   0  0  0  0  0  0  0  0  0  0  0  0
  140.1426   74.6826  220.4905 H   0  0  0  0  0  0  0  0  0  0  0  0
  138.3470   74.6836  220.8021 H   0  0  0  0  0  0  0  0  0  0  0  0
  138.5464   77.6543  219.4468 H   0  0  0  0  0  0  0  0  0  0  0  0
  139.3948   79.0648  219.9186 H   0  0  0  0  0  0  0  0  0  0  0  0
  140.6371   76.5356  218.4813 H   0  0  0  0  0  0  0  0  0  0  0  0
  140.5101   78.0611  217.6998 H   0  0  0  0  0  0  0  0  0  0  0  0
  142.7691   77.5506  219.1391 H   0  0  0  0  0  0  0  0  0  0  0  0
  142.0830   79.1315  219.4051 H   0  0  0  0  0  0  0  0  0  0  0  0
  142.1125   76.7835  221.2669 H   0  0  0  0  0  0  0  0  0  0  0  0
  141.5864   77.6126  223.6396 H   0  0  0  0  0  0  0  0  0  0  0  0
  142.0138   79.5088  225.1672 H   0  0  0  0  0  0  0  0  0  0  0  0
  142.4154   81.7796  224.2157 H   0  0  0  0  0  0  0  0  0  0  0  0
  141.9656   80.2429  220.2903 H   0  0  0  0  0  0  0  0  0  0  0  0
  139.0121   69.9239  221.9394 H   0  0  0  0  0  0  0  0  0  0  0  0
  139.3011   68.3257  223.7950 H   0  0  0  0  0  0  0  0  0  0  0  0
  139.9710   67.7805  226.0774 H   0  0  0  0  0  0  0  0  0  0  0  0
  141.5059   70.9509  228.5039 H   0  0  0  0  0  0  0  0  0  0  0  0
  141.2418   72.6060  226.6810 H   0  0  0  0  0  0  0  0  0  0  0  0
  1  2  2  0
  2  3  1  0
  3  4  1  0
  4  5  1  0
  5  6  2  0
  5  7  1  0
  7  8  1  0
  8  9  1  0
  9 10  1  0
 10 11  1  0
 11 12  1  0
 12 13  2  0
 13 14  1  0
 14 15  2  0
 15 16  1  0
 16 17  2  0
  2 18  1  0
 18 19  2  0
 19 20  1  0
 20 21  2  0
 21 22  1  0
 22 23  2  0
 23 24  1  0
 23 25  1  0
 25 26  2  0
 26 27  1  0
 27 28  2  0
 11  7  1  0
 17 12  1  0
 28 18  1  0
 27 21  1  0
  3 29  1  0
  4 30  1  0
  4 31  1  0
  8 32  1  0
  8 33  1  0
  9 34  1  0
  9 35  1  0
 10 36  1  0
 10 37  1  0
 11 38  1  1
 13 39  1  0
 14 40  1  0
 15 41  1  0
 17 42  1  0
 19 43  1  0
 20 44  1  0
 22 45  1  0
 25 46  1  0
 26 47  1  0
M  END
>  <smiles>  (82) 
O=C(NCC(=O)N1CCCC1c1cccnc1)c1ccc2cc(Cl)ccc2n1

>  <score_type>  (82) 
oracle

>  <origin>  (82) 
autodockgpu

>  <m_score__min__energy>  (82) 
-8.5700000000000003

>  <m_primary>  (82) 
energy

>  <rmsd>  (82) 
1.8190326305695204

>  <m_score__min__rmsd>  (82) 
1.8190326305695204

>  <meeko>  (82) 
{"free_energy": -8.4, "intermolecular_energy": -9.89, "internal_energy": -1.54, "cluster_size": 17, "cluster_id": 2, "rank_in_cluster": 11}

>  <energy>  (82) 
-8.34

>  <cluster_rmsd>  (82) 
1.09

>  <cluster>  (82) 
2

$$$$

     RDKit          3D

 47 50  0  0  0  0  0  0  0  0999 V2000
  140.3100   72.4950  220.7420 O   0  0  0  0  0  0  0  0  0  0  0  0
  140.0150   72.8460  221.8970 C   0  0  0  0  0  0  0  0  0  0  0  0
  139.6370   74.2030  222.1830 N   0  0  0  0  0  0  0  0  0  0  0  0
  139.6110   75.1340  221.0980 C   0  0  0  0  0  0  0  0  0  0  0  0
  140.7070   76.1310  221.1660 C   0  0  0  0  0  0  0  0  0  0  0  0
  140.6920   76.9280  222.1370 O   0  0  0  0  0  0  0  0  0  0  0  0
  141.6960   76.1290  220.1490 N   0  0  0  0  0  0  0  0  0  0  0  0
  142.4640   77.2960  219.6700 C   0  0  0  0  0  0  0  0  0  0  0  0
  142.1720   77.1060  218.1660 C   0  0  0  0  0  0  0  0  0  0  0  0
  142.6770   75.6640  218.0310 C   0  0  0  0  0  0  0  0  0  0  0  0
  142.1940   75.0380  219.3310 C   0  0  1  0  0  0  0  0  0  0  0  0
  143.3240   74.3030  219.9670 C   0  0  0  0  0  0  0  0  0  0  0  0
  143.2760   72.9620  220.2750 C   0  0  0  0  0  0  0  0  0  0  0  0
  144.3390   72.2800  220.8530 C   0  0  0  0  0  0  0  0  0  0  0  0
  145.4960   72.9700  221.1350 C   0  0  0  0  0  0  0  0  0  0  0  0
  145.5610   74.2780  220.8400 N   0  0  0  0  0  0  0  0  0  0  0  0
  144.5300   74.9450  220.2780 C   0  0  0  0  0  0  0  0  0  0  0  0
  140.0420   71.8940  223.0040 C   0  0  0  0  0  0  0  0  0  0  0  0
  139.5560   70.6090  222.7970 C   0  0  0  0  0  0  0  0  0  0  0  0
  139.5850   69.7140  223.8490 C   0  0  0  0  0  0  0  0  0  0  0  0
  140.0720   70.0330  225.0990 C   0  0  0  0  0  0  0  0  0  0  0  0
  140.0890   69.1170  226.1340 C   0  0  0  0  0  0  0  0  0  0  0  0
  140.5930   69.5220  227.3510 C   0  0  0  0  0  0  0  0  0  0  0  0
  140.6330   68.3890  228.6930 Cl  0  0  0  0  0  0  0  0  0  0  0  0
  141.0590   70.8030  227.5020 C   0  0  0  0  0  0  0  0  0  0  0  0
  141.0600   71.7450  226.4950 C   0  0  0  0  0  0  0  0  0  0  0  0
  140.5480   71.3350  225.2600 C   0  0  0  0  0  0  0  0  0  0  0  0
  140.5170   72.2040  224.2260 N   0  0  0  0  0  0  0  0  0  0  0  0
  139.3910   74.4680  223.1820 H   0  0  0  0  0  0  0  0  0  0  0  0
  139.7023   74.5759  220.1545 H   0  0  0  0  0  0  0  0  0  0  0  0
  138.6604   75.6842  221.1581 H   0  0  0  0  0  0  0  0  0  0  0  0
  142.0710   78.2471  220.0585 H   0  0  0  0  0  0  0  0  0  0  0  0
  143.5227   77.3442  219.9646 H   0  0  0  0  0  0  0  0  0  0  0  0
  141.1002   77.1955  217.9351 H   0  0  0  0  0  0  0  0  0  0  0  0
  142.6286   77.8428  217.4888 H   0  0  0  0  0  0  0  0  0  0  0  0
  142.2325   75.1648  217.1574 H   0  0  0  0  0  0  0  0  0  0  0  0
  143.7635   75.5866  217.8778 H   0  0  0  0  0  0  0  0  0  0  0  0
  141.3897   74.3025  219.1819 H   0  0  0  0  0  0  0  0  0  0  0  0
  142.3536   72.4052  220.0532 H   0  0  0  0  0  0  0  0  0  0  0  0
  144.2576   71.2071  221.0814 H   0  0  0  0  0  0  0  0  0  0  0  0
  146.3540   72.4577  221.5949 H   0  0  0  0  0  0  0  0  0  0  0  0
  144.6395   76.0175  220.0593 H   0  0  0  0  0  0  0  0  0  0  0  0
  139.1567   70.3106  221.8164 H   0  0  0  0  0  0  0  0  0  0  0  0
  139.2008   68.6970  223.6813 H   0  0  0  0  0  0  0  0  0  0  0  0
  139.7110   68.0940  225.9904 H   0  0  0  0  0  0  0  0  0  0  0  0
  141.4557   71.0965  228.4851 H   0  0  0  0  0  0  0  0  0  0  0  0
  141.4428   72.7638  226.6545 H   0  0  0  0  0  0  0  0  0  0  0  0
  1  2  2  0
  2  3  1  0
  3  4  1  0
  4  5  1  0
  5  6  2  0
  5  7  1  0
  7  8  1  0
  8  9  1  0
  9 10  1  0
 10 11  1  0
 11 12  1  0
 12 13  2  0
 13 14  1  0
 14 15  2  0
 15 16  1  0
 16 17  2  0
  2 18  1  0
 18 19  2  0
 19 20  1  0
 20 21  2  0
 21 22  1  0
 22 23  2  0
 23 24  1  0
 23 25  1  0
 25 26  2  0
 26 27  1  0
 27 28  2  0
 11  7  1  0
 17 12  1  0
 28 18  1  0
 27 21  1  0
  3 29  1  0
  4 30  1  0
  4 31  1  0
  8 32  1  0
  8 33  1  0
  9 34  1  0
  9 35  1  0
 10 36  1  0
 10 37  1  0
 11 38  1  6
 13 39  1  0
 14 40  1  0
 15 41  1  0
 17 42  1  0
 19 43  1  0
 20 44  1  0
 22 45  1  0
 25 46  1  0
 26 47  1  0
M  END
>  <smiles>  (83) 
O=C(NCC(=O)N1CCCC1c1cccnc1)c1ccc2cc(Cl)ccc2n1

>  <score_type>  (83) 
oracle

>  <origin>  (83) 
autodockgpu

>  <m_score__min__energy>  (83) 
-8.5700000000000003

>  <m_primary>  (83) 
energy

>  <rmsd>  (83) 
2.337938335804712

>  <m_score__min__rmsd>  (83) 
2.337938335804712

>  <meeko>  (83) 
{"free_energy": -8.13, "intermolecular_energy": -9.62, "internal_energy": -1.69, "cluster_size": 19, "cluster_id": 1, "rank_in_cluster": 8}

>  <energy>  (83) 
-8.08

>  <cluster_rmsd>  (83) 
0.64

>  <cluster>  (83) 
2

$$$$

     RDKit          3D

 47 50  0  0  0  0  0  0  0  0999 V2000
  133.5340   70.1760  226.6490 O   0  0  0  0  0  0  0  0  0  0  0  0
  133.8990   71.2890  226.2350 C   0  0  0  0  0  0  0  0  0  0  0  0
  134.9820   71.4100  225.2990 N   0  0  0  0  0  0  0  0  0  0  0  0
  135.6250   70.2110  224.8590 C   0  0  0  0  0  0  0  0  0  0  0  0
  136.8280   70.4710  224.0300 C   0  0  0  0  0  0  0  0  0  0  0  0
  136.7530   71.4080  223.1970 O   0  0  0  0  0  0  0  0  0  0  0  0
  137.9760   69.6610  224.2210 N   0  0  0  0  0  0  0  0  0  0  0  0
  138.8880   69.1690  223.1680 C   0  0  0  0  0  0  0  0  0  0  0  0
  138.8510   67.6800  223.5710 C   0  0  0  0  0  0  0  0  0  0  0  0
  139.2800   67.8440  225.0340 C   0  0  0  0  0  0  0  0  0  0  0  0
  138.5400   69.1090  225.4400 C   0  0  1  0  0  0  0  0  0  0  0  0
  139.4930   70.0380  226.1120 C   0  0  0  0  0  0  0  0  0  0  0  0
  139.7710   69.9910  227.4600 C   0  0  0  0  0  0  0  0  0  0  0  0
  140.6720   70.8490  228.0760 C   0  0  0  0  0  0  0  0  0  0  0  0
  141.3220   71.7910  227.3110 C   0  0  0  0  0  0  0  0  0  0  0  0
  141.0640   71.8500  225.9950 N   0  0  0  0  0  0  0  0  0  0  0  0
  140.1890   71.0180  225.3920 C   0  0  0  0  0  0  0  0  0  0  0  0
  133.2410   72.5140  226.6860 C   0  0  0  0  0  0  0  0  0  0  0  0
  132.0120   72.4200  227.3250 C   0  0  0  0  0  0  0  0  0  0  0  0
  131.3960   73.5810  227.7480 C   0  0  0  0  0  0  0  0  0  0  0  0
  131.9420   74.8340  227.5650 C   0  0  0  0  0  0  0  0  0  0  0  0
  131.3020   75.9820  227.9990 C   0  0  0  0  0  0  0  0  0  0  0  0
  131.9210   77.1930  227.7750 C   0  0  0  0  0  0  0  0  0  0  0  0
  131.1430   78.6750  228.3090 Cl  0  0  0  0  0  0  0  0  0  0  0  0
  133.1350   77.2290  227.1380 C   0  0  0  0  0  0  0  0  0  0  0  0
  133.8040   76.1090  226.6910 C   0  0  0  0  0  0  0  0  0  0  0  0
  133.1770   74.8800  226.9180 C   0  0  0  0  0  0  0  0  0  0  0  0
  133.7720   73.7390  226.5080 N   0  0  0  0  0  0  0  0  0  0  0  0
  135.2680   72.3780  224.9660 H   0  0  0  0  0  0  0  0  0  0  0  0
  135.9269   69.6301  225.7429 H   0  0  0  0  0  0  0  0  0  0  0  0
  134.9060   69.6615  224.2336 H   0  0  0  0  0  0  0  0  0  0  0  0
  138.4941   69.3412  222.1555 H   0  0  0  0  0  0  0  0  0  0  0  0
  139.8802   69.6410  223.1149 H   0  0  0  0  0  0  0  0  0  0  0  0
  137.8436   67.2482  223.4781 H   0  0  0  0  0  0  0  0  0  0  0  0
  139.4640   66.9996  222.9616 H   0  0  0  0  0  0  0  0  0  0  0  0
  138.9642   66.9835  225.6421 H   0  0  0  0  0  0  0  0  0  0  0  0
  140.3696   67.9034  225.1729 H   0  0  0  0  0  0  0  0  0  0  0  0
  137.7301   68.9208  226.1601 H   0  0  0  0  0  0  0  0  0  0  0  0
  139.2559   69.2396  228.0765 H   0  0  0  0  0  0  0  0  0  0  0  0
  140.8632   70.7773  229.1569 H   0  0  0  0  0  0  0  0  0  0  0  0
  142.0415   72.4844  227.7709 H   0  0  0  0  0  0  0  0  0  0  0  0
  140.0182   71.1115  224.3094 H   0  0  0  0  0  0  0  0  0  0  0  0
  131.5389   71.4409  227.4908 H   0  0  0  0  0  0  0  0  0  0  0  0
  130.4231   73.5027  228.2553 H   0  0  0  0  0  0  0  0  0  0  0  0
  130.3281   75.9294  228.5077 H   0  0  0  0  0  0  0  0  0  0  0  0
  133.6034   78.2106  226.9737 H   0  0  0  0  0  0  0  0  0  0  0  0
  134.7775   76.1787  226.1837 H   0  0  0  0  0  0  0  0  0  0  0  0
  1  2  2  0
  2  3  1  0
  3  4  1  0
  4  5  1  0
  5  6  2  0
  5  7  1  0
  7  8  1  0
  8  9  1  0
  9 10  1  0
 10 11  1  0
 11 12  1  0
 12 13  2  0
 13 14  1  0
 14 15  2  0
 15 16  1  0
 16 17  2  0
  2 18  1  0
 18 19  2  0
 19 20  1  0
 20 21  2  0
 21 22  1  0
 22 23  2  0
 23 24  1  0
 23 25  1  0
 25 26  2  0
 26 27  1  0
 27 28  2  0
 11  7  1  0
 17 12  1  0
 28 18  1  0
 27 21  1  0
  3 29  1  0
  4 30  1  0
  4 31  1  0
  8 32  1  0
  8 33  1  0
  9 34  1  0
  9 35  1  0
 10 36  1  0
 10 37  1  0
 11 38  1  1
 13 39  1  0
 14 40  1  0
 15 41  1  0
 17 42  1  0
 19 43  1  0
 20 44  1  0
 22 45  1  0
 25 46  1  0
 26 47  1  0
M  END
>  <smiles>  (84) 
O=C(NCC(=O)N1CCCC1c1cccnc1)c1ccc2cc(Cl)ccc2n1

>  <score_type>  (84) 
oracle

>  <origin>  (84) 
autodockgpu

>  <m_score__min__energy>  (84) 
-8.5700000000000003

>  <m_primary>  (84) 
energy

>  <rmsd>  (84) 
8.989642915720827

>  <m_score__min__rmsd>  (84) 
8.989642915720827

>  <meeko>  (84) 
{"free_energy": -8.07, "intermolecular_energy": -9.56, "internal_energy": -1.53, "cluster_size": 8, "cluster_id": 3, "rank_in_cluster": 6}

>  <energy>  (84) 
-8.06

>  <cluster_rmsd>  (84) 
0.7

>  <cluster>  (84) 
2

$$$$

     RDKit          3D

 47 50  0  0  0  0  0  0  0  0999 V2000
  140.1090   72.4760  220.8120 O   0  0  0  0  0  0  0  0  0  0  0  0
  139.8620   72.8170  221.9810 C   0  0  0  0  0  0  0  0  0  0  0  0
  139.4850   74.1680  222.2920 N   0  0  0  0  0  0  0  0  0  0  0  0
  139.4030   75.1060  221.2150 C   0  0  0  0  0  0  0  0  0  0  0  0
  139.4070   76.5160  221.6750 C   0  0  0  0  0  0  0  0  0  0  0  0
  138.7800   76.7720  222.7320 O   0  0  0  0  0  0  0  0  0  0  0  0
  140.1070   77.4820  220.9070 N   0  0  0  0  0  0  0  0  0  0  0  0
  139.5410   78.3330  219.8410 C   0  0  0  0  0  0  0  0  0  0  0  0
  140.5910   77.9980  218.7600 C   0  0  0  0  0  0  0  0  0  0  0  0
  141.8460   78.3820  219.5540 C   0  0  0  0  0  0  0  0  0  0  0  0
  141.5050   77.8750  220.9470 C   0  0  1  0  0  0  0  0  0  0  0  0
  141.7770   78.9530  221.9390 C   0  0  0  0  0  0  0  0  0  0  0  0
  141.9640   80.2720  221.5910 C   0  0  0  0  0  0  0  0  0  0  0  0
  142.2020   81.2740  222.5230 C   0  0  0  0  0  0  0  0  0  0  0  0
  142.2550   80.9410  223.8570 C   0  0  0  0  0  0  0  0  0  0  0  0
  142.0730   79.6600  224.2150 N   0  0  0  0  0  0  0  0  0  0  0  0
  141.8420   78.6830  223.3130 C   0  0  0  0  0  0  0  0  0  0  0  0
  139.9480   71.8590  223.0810 C   0  0  0  0  0  0  0  0  0  0  0  0
  139.5190   70.5540  222.8700 C   0  0  0  0  0  0  0  0  0  0  0  0
  139.6020   69.6540  223.9140 C   0  0  0  0  0  0  0  0  0  0  0  0
  140.0890   69.9870  225.1600 C   0  0  0  0  0  0  0  0  0  0  0  0
  140.1610   69.0640  226.1880 C   0  0  0  0  0  0  0  0  0  0  0  0
  140.6620   69.4830  227.4020 C   0  0  0  0  0  0  0  0  0  0  0  0
  140.7700   68.3440  228.7350 Cl  0  0  0  0  0  0  0  0  0  0  0  0
  141.0710   70.7840  227.5570 C   0  0  0  0  0  0  0  0  0  0  0  0
  141.0160   71.7320  226.5580 C   0  0  0  0  0  0  0  0  0  0  0  0
  140.5070   71.3080  225.3260 C   0  0  0  0  0  0  0  0  0  0  0  0
  140.4230   72.1810  224.2990 N   0  0  0  0  0  0  0  0  0  0  0  0
  139.2810   74.4260  223.3030 H   0  0  0  0  0  0  0  0  0  0  0  0
  140.2648   74.9518  220.5491 H   0  0  0  0  0  0  0  0  0  0  0  0
  138.4485   74.9308  220.6971 H   0  0  0  0  0  0  0  0  0  0  0  0
  138.5253   78.0258  219.5513 H   0  0  0  0  0  0  0  0  0  0  0  0
  139.4020   79.3975  220.0809 H   0  0  0  0  0  0  0  0  0  0  0  0
  140.5813   76.9328  218.4858 H   0  0  0  0  0  0  0  0  0  0  0  0
  140.4616   78.4999  217.7898 H   0  0  0  0  0  0  0  0  0  0  0  0
  142.7406   77.8820  219.1544 H   0  0  0  0  0  0  0  0  0  0  0  0
  142.0829   79.4556  219.5180 H   0  0  0  0  0  0  0  0  0  0  0  0
  142.1150   77.0118  221.2517 H   0  0  0  0  0  0  0  0  0  0  0  0
  141.9231   80.5447  220.5261 H   0  0  0  0  0  0  0  0  0  0  0  0
  142.3456   82.3157  222.2002 H   0  0  0  0  0  0  0  0  0  0  0  0
  142.4436   81.7124  224.6182 H   0  0  0  0  0  0  0  0  0  0  0  0
  141.7014   77.6502  223.6644 H   0  0  0  0  0  0  0  0  0  0  0  0
  139.1217   70.2446  221.8920 H   0  0  0  0  0  0  0  0  0  0  0  0
  139.2632   68.6215  223.7432 H   0  0  0  0  0  0  0  0  0  0  0  0
  139.8281   68.0259  226.0410 H   0  0  0  0  0  0  0  0  0  0  0  0
  141.4664   71.0883  228.5373 H   0  0  0  0  0  0  0  0  0  0  0  0
  141.3541   72.7660  226.7207 H   0  0  0  0  0  0  0  0  0  0  0  0
  1  2  2  0
  2  3  1  0
  3  4  1  0
  4  5  1  0
  5  6  2  0
  5  7  1  0
  7  8  1  0
  8  9  1  0
  9 10  1  0
 10 11  1  0
 11 12  1  0
 12 13  2  0
 13 14  1  0
 14 15  2  0
 15 16  1  0
 16 17  2  0
  2 18  1  0
 18 19  2  0
 19 20  1  0
 20 21  2  0
 21 22  1  0
 22 23  2  0
 23 24  1  0
 23 25  1  0
 25 26  2  0
 26 27  1  0
 27 28  2  0
 11  7  1  0
 17 12  1  0
 28 18  1  0
 27 21  1  0
  3 29  1  0
  4 30  1  0
  4 31  1  0
  8 32  1  0
  8 33  1  0
  9 34  1  0
  9 35  1  0
 10 36  1  0
 10 37  1  0
 11 38  1  1
 13 39  1  0
 14 40  1  0
 15 41  1  0
 17 42  1  0
 19 43  1  0
 20 44  1  0
 22 45  1  0
 25 46  1  0
 26 47  1  0
M  END
>  <smiles>  (85) 
O=C(NCC(=O)N1CCCC1c1cccnc1)c1ccc2cc(Cl)ccc2n1

>  <score_type>  (85) 
oracle

>  <origin>  (85) 
autodockgpu

>  <m_score__min__energy>  (85) 
-8.5700000000000003

>  <m_primary>  (85) 
energy

>  <rmsd>  (85) 
2.034966246639557

>  <m_score__min__rmsd>  (85) 
2.034966246639557

>  <meeko>  (85) 
{"free_energy": -8.52, "intermolecular_energy": -10.01, "internal_energy": -1.5, "cluster_size": 17, "cluster_id": 2, "rank_in_cluster": 1}

>  <energy>  (85) 
-7.84

>  <cluster_rmsd>  (85) 
1.5

>  <cluster>  (85) 
2

$$$$

     RDKit          3D

 47 50  0  0  0  0  0  0  0  0999 V2000
  139.0590   72.8580  220.6520 O   0  0  0  0  0  0  0  0  0  0  0  0
  140.0020   72.7990  221.4590 C   0  0  0  0  0  0  0  0  0  0  0  0
  141.1830   73.5970  221.2730 N   0  0  0  0  0  0  0  0  0  0  0  0
  141.2390   74.4570  220.1330 C   0  0  0  0  0  0  0  0  0  0  0  0
  141.5530   75.8640  220.4850 C   0  0  0  0  0  0  0  0  0  0  0  0
  142.6420   76.3260  220.0620 O   0  0  0  0  0  0  0  0  0  0  0  0
  140.6230   76.5960  221.2660 N   0  0  0  0  0  0  0  0  0  0  0  0
  139.7730   76.0600  222.3490 C   0  0  0  0  0  0  0  0  0  0  0  0
  138.4320   76.6130  221.8230 C   0  0  0  0  0  0  0  0  0  0  0  0
  138.8310   78.0910  221.7310 C   0  0  0  0  0  0  0  0  0  0  0  0
  140.2590   78.0010  221.2150 C   0  0  1  0  0  0  0  0  0  0  0  0
  141.1380   78.8610  222.0580 C   0  0  0  0  0  0  0  0  0  0  0  0
  141.3480   78.6410  223.4010 C   0  0  0  0  0  0  0  0  0  0  0  0
  142.1810   79.4370  224.1760 C   0  0  0  0  0  0  0  0  0  0  0  0
  142.8300   80.4950  223.5820 C   0  0  0  0  0  0  0  0  0  0  0  0
  142.6370   80.7230  222.2730 N   0  0  0  0  0  0  0  0  0  0  0  0
  141.8280   79.9520  221.5150 C   0  0  0  0  0  0  0  0  0  0  0  0
  139.9450   71.9190  222.6240 C   0  0  0  0  0  0  0  0  0  0  0  0
  139.2470   70.7220  222.5270 C   0  0  0  0  0  0  0  0  0  0  0  0
  139.1960   69.8950  223.6320 C   0  0  0  0  0  0  0  0  0  0  0  0
  139.8050   70.2000  224.8310 C   0  0  0  0  0  0  0  0  0  0  0  0
  139.7380   69.3530  225.9220 C   0  0  0  0  0  0  0  0  0  0  0  0
  140.3760   69.7370  227.0820 C   0  0  0  0  0  0  0  0  0  0  0  0
  140.3160   68.6910  228.4920 Cl  0  0  0  0  0  0  0  0  0  0  0  0
  141.0510   70.9310  227.1240 C   0  0  0  0  0  0  0  0  0  0  0  0
  141.1410   71.8020  226.0590 C   0  0  0  0  0  0  0  0  0  0  0  0
  140.4930   71.4130  224.8820 C   0  0  0  0  0  0  0  0  0  0  0  0
  140.5380   72.2150  223.7960 N   0  0  0  0  0  0  0  0  0  0  0  0
  141.9710   73.5220  221.9840 H   0  0  0  0  0  0  0  0  0  0  0  0
  142.0167   74.0842  219.4502 H   0  0  0  0  0  0  0  0  0  0  0  0
  140.2439   74.4485  219.6643 H   0  0  0  0  0  0  0  0  0  0  0  0
  139.7878   74.9609  222.3913 H   0  0  0  0  0  0  0  0  0  0  0  0
  140.0512   76.3359  223.3768 H   0  0  0  0  0  0  0  0  0  0  0  0
  138.1637   76.1922  220.8427 H   0  0  0  0  0  0  0  0  0  0  0  0
  137.5451   76.3899  222.4343 H   0  0  0  0  0  0  0  0  0  0  0  0
  138.1852   78.6363  221.0271 H   0  0  0  0  0  0  0  0  0  0  0  0
  138.7363   78.6362  222.6817 H   0  0  0  0  0  0  0  0  0  0  0  0
  140.3674   78.3651  220.1827 H   0  0  0  0  0  0  0  0  0  0  0  0
  140.8325   77.7964  223.8817 H   0  0  0  0  0  0  0  0  0  0  0  0
  142.3197   79.2254  225.2465 H   0  0  0  0  0  0  0  0  0  0  0  0
  143.4961   81.1435  224.1700 H   0  0  0  0  0  0  0  0  0  0  0  0
  141.7083   80.1862  220.4469 H   0  0  0  0  0  0  0  0  0  0  0  0
  138.7454   70.4387  221.5899 H   0  0  0  0  0  0  0  0  0  0  0  0
  138.6430   68.9475  223.5518 H   0  0  0  0  0  0  0  0  0  0  0  0
  139.1913   68.4001  225.8658 H   0  0  0  0  0  0  0  0  0  0  0  0
  141.5502   71.2099  228.0637 H   0  0  0  0  0  0  0  0  0  0  0  0
  141.6924   72.7511  226.1310 H   0  0  0  0  0  0  0  0  0  0  0  0
  1  2  2  0
  2  3  1  0
  3  4  1  0
  4  5  1  0
  5  6  2  0
  5  7  1  0
  7  8  1  0
  8  9  1  0
  9 10  1  0
 10 11  1  0
 11 12  1  0
 12 13  2  0
 13 14  1  0
 14 15  2  0
 15 16  1  0
 16 17  2  0
  2 18  1  0
 18 19  2  0
 19 20  1  0
 20 21  2  0
 21 22  1  0
 22 23  2  0
 23 24  1  0
 23 25  1  0
 25 26  2  0
 26 27  1  0
 27 28  2  0
 11  7  1  0
 17 12  1  0
 28 18  1  0
 27 21  1  0
  3 29  1  0
  4 30  1  0
  4 31  1  0
  8 32  1  0
  8 33  1  0
  9 34  1  0
  9 35  1  0
 10 36  1  0
 10 37  1  0
 11 38  1  6
 13 39  1  0
 14 40  1  0
 15 41  1  0
 17 42  1  0
 19 43  1  0
 20 44  1  0
 22 45  1  0
 25 46  1  0
 26 47  1  0
M  END
>  <smiles>  (86) 
O=C(NCC(=O)N1CCCC1c1cccnc1)c1ccc2cc(Cl)ccc2n1

>  <score_type>  (86) 
oracle

>  <origin>  (86) 
autodockgpu

>  <m_score__min__energy>  (86) 
-8.5700000000000003

>  <m_primary>  (86) 
energy

>  <rmsd>  (86) 
2.813085965181062

>  <m_score__min__rmsd>  (86) 
2.813085965181062

>  <meeko>  (86) 
{"free_energy": -7.84, "intermolecular_energy": -9.33, "internal_energy": -1.47, "cluster_size": 17, "cluster_id": 2, "rank_in_cluster": 16}

>  <energy>  (86) 
-7.69

>  <cluster_rmsd>  (86) 
1.03

>  <cluster>  (86) 
2

$$$$

     RDKit          3D

 47 50  0  0  0  0  0  0  0  0999 V2000
  138.6970   71.6550  220.7660 O   0  0  0  0  0  0  0  0  0  0  0  0
  138.9200   72.1320  221.8920 C   0  0  0  0  0  0  0  0  0  0  0  0
  138.8830   73.5520  222.1120 N   0  0  0  0  0  0  0  0  0  0  0  0
  138.5820   74.3960  220.9970 C   0  0  0  0  0  0  0  0  0  0  0  0
  139.7120   74.5180  220.0430 C   0  0  0  0  0  0  0  0  0  0  0  0
  139.6230   73.8720  218.9700 O   0  0  0  0  0  0  0  0  0  0  0  0
  140.8120   75.3440  220.3910 N   0  0  0  0  0  0  0  0  0  0  0  0
  140.9050   76.2300  221.5680 C   0  0  0  0  0  0  0  0  0  0  0  0
  141.3150   77.5080  220.8070 C   0  0  0  0  0  0  0  0  0  0  0  0
  142.5470   76.9440  220.0890 C   0  0  0  0  0  0  0  0  0  0  0  0
  142.0810   75.5460  219.7140 C   0  0  1  0  0  0  0  0  0  0  0  0
  143.1210   74.5590  220.1230 C   0  0  0  0  0  0  0  0  0  0  0  0
  144.4590   74.8670  220.2220 C   0  0  0  0  0  0  0  0  0  0  0  0
  145.4200   73.9470  220.6200 C   0  0  0  0  0  0  0  0  0  0  0  0
  145.0240   72.6660  220.9300 C   0  0  0  0  0  0  0  0  0  0  0  0
  143.7230   72.3480  220.8410 N   0  0  0  0  0  0  0  0  0  0  0  0
  142.7850   73.2390  220.4550 C   0  0  0  0  0  0  0  0  0  0  0  0
  139.2290   71.2700  223.0300 C   0  0  0  0  0  0  0  0  0  0  0  0
  138.8970   69.9220  222.9600 C   0  0  0  0  0  0  0  0  0  0  0  0
  139.1910   69.1130  224.0400 C   0  0  0  0  0  0  0  0  0  0  0  0
  139.7980   69.5760  225.1870 C   0  0  0  0  0  0  0  0  0  0  0  0
  140.0810   68.7420  226.2540 C   0  0  0  0  0  0  0  0  0  0  0  0
  140.6900   69.2900  227.3620 C   0  0  0  0  0  0  0  0  0  0  0  0
  141.0670   68.2670  228.7390 Cl  0  0  0  0  0  0  0  0  0  0  0  0
  140.9960   70.6280  227.3790 C   0  0  0  0  0  0  0  0  0  0  0  0
  140.7310   71.4910  226.3370 C   0  0  0  0  0  0  0  0  0  0  0  0
  140.1120   70.9360  225.2120 C   0  0  0  0  0  0  0  0  0  0  0  0
  139.8220   71.7200  224.1520 N   0  0  0  0  0  0  0  0  0  0  0  0
  139.0790   73.9260  223.0870 H   0  0  0  0  0  0  0  0  0  0  0  0
  137.7160   73.9771  220.4635 H   0  0  0  0  0  0  0  0  0  0  0  0
  138.3730   75.4014  221.3912 H   0  0  0  0  0  0  0  0  0  0  0  0
  139.9425   76.3406  222.0889 H   0  0  0  0  0  0  0  0  0  0  0  0
  141.5725   75.9037  222.3792 H   0  0  0  0  0  0  0  0  0  0  0  0
  140.5383   77.8406  220.1026 H   0  0  0  0  0  0  0  0  0  0  0  0
  141.4837   78.4033  221.4234 H   0  0  0  0  0  0  0  0  0  0  0  0
  142.7949   77.5359  219.1956 H   0  0  0  0  0  0  0  0  0  0  0  0
  143.4617   76.9580  220.6998 H   0  0  0  0  0  0  0  0  0  0  0  0
  141.9381   75.4162  218.6311 H   0  0  0  0  0  0  0  0  0  0  0  0
  144.7818   75.8890  219.9744 H   0  0  0  0  0  0  0  0  0  0  0  0
  146.4790   74.2370  220.6863 H   0  0  0  0  0  0  0  0  0  0  0  0
  145.7623   71.9142  221.2458 H   0  0  0  0  0  0  0  0  0  0  0  0
  141.7331   72.9220  220.3997 H   0  0  0  0  0  0  0  0  0  0  0  0
  138.4108   69.5087  222.0640 H   0  0  0  0  0  0  0  0  0  0  0  0
  138.9276   68.0466  223.9816 H   0  0  0  0  0  0  0  0  0  0  0  0
  139.8272   67.6723  226.2189 H   0  0  0  0  0  0  0  0  0  0  0  0
  141.4817   71.0360  228.2777 H   0  0  0  0  0  0  0  0  0  0  0  0
  140.9922   72.5583  226.3876 H   0  0  0  0  0  0  0  0  0  0  0  0
  1  2  2  0
  2  3  1  0
  3  4  1  0
  4  5  1  0
  5  6  2  0
  5  7  1  0
  7  8  1  0
  8  9  1  0
  9 10  1  0
 10 11  1  0
 11 12  1  0
 12 13  2  0
 13 14  1  0
 14 15  2  0
 15 16  1  0
 16 17  2  0
  2 18  1  0
 18 19  2  0
 19 20  1  0
 20 21  2  0
 21 22  1  0
 22 23  2  0
 23 24  1  0
 23 25  1  0
 25 26  2  0
 26 27  1  0
 27 28  2  0
 11  7  1  0
 17 12  1  0
 28 18  1  0
 27 21  1  0
  3 29  1  0
  4 30  1  0
  4 31  1  0
  8 32  1  0
  8 33  1  0
  9 34  1  0
  9 35  1  0
 10 36  1  0
 10 37  1  0
 11 38  1  6
 13 39  1  0
 14 40  1  0
 15 41  1  0
 17 42  1  0
 19 43  1  0
 20 44  1  0
 22 45  1  0
 25 46  1  0
 26 47  1  0
M  END
>  <smiles>  (87) 
O=C(NCC(=O)N1CCCC1c1cccnc1)c1ccc2cc(Cl)ccc2n1

>  <score_type>  (87) 
oracle

>  <origin>  (87) 
autodockgpu

>  <m_score__min__energy>  (87) 
-8.5700000000000003

>  <m_primary>  (87) 
energy

>  <rmsd>  (87) 
2.104647210579071

>  <m_score__min__rmsd>  (87) 
2.104647210579071

>  <meeko>  (87) 
{"free_energy": -7.75, "intermolecular_energy": -9.24, "internal_energy": -1.6, "cluster_size": 19, "cluster_id": 1, "rank_in_cluster": 15}

>  <energy>  (87) 
-8.23

>  <cluster_rmsd>  (87) 
0.0

>  <cluster>  (87) 
3

$$$$

     RDKit          3D

 47 50  0  0  0  0  0  0  0  0999 V2000
  140.8230   72.6880  220.9150 O   0  0  0  0  0  0  0  0  0  0  0  0
  140.1750   72.9230  221.9490 C   0  0  0  0  0  0  0  0  0  0  0  0
  139.4310   74.1440  222.0930 N   0  0  0  0  0  0  0  0  0  0  0  0
  139.4590   75.0780  221.0110 C   0  0  0  0  0  0  0  0  0  0  0  0
  140.2380   76.3010  221.3240 C   0  0  0  0  0  0  0  0  0  0  0  0
  141.4790   76.2480  221.1380 O   0  0  0  0  0  0  0  0  0  0  0  0
  139.5500   77.4430  221.8070 N   0  0  0  0  0  0  0  0  0  0  0  0
  138.4570   77.4530  222.8010 C   0  0  0  0  0  0  0  0  0  0  0  0
  137.4600   78.2900  221.9720 C   0  0  0  0  0  0  0  0  0  0  0  0
  138.3620   79.5030  221.7130 C   0  0  0  0  0  0  0  0  0  0  0  0
  139.7120   78.8460  221.4690 C   0  0  1  0  0  0  0  0  0  0  0  0
  140.7440   79.5290  222.3000 C   0  0  0  0  0  0  0  0  0  0  0  0
  142.0690   79.1510  222.3220 C   0  0  0  0  0  0  0  0  0  0  0  0
  143.0270   79.8030  223.0860 C   0  0  0  0  0  0  0  0  0  0  0  0
  142.6450   80.8750  223.8590 C   0  0  0  0  0  0  0  0  0  0  0  0
  141.3580   81.2580  223.8480 N   0  0  0  0  0  0  0  0  0  0  0  0
  140.4230   80.6280  223.1070 C   0  0  0  0  0  0  0  0  0  0  0  0
  140.1470   71.9680  223.0550 C   0  0  0  0  0  0  0  0  0  0  0  0
  139.6100   70.7050  222.8380 C   0  0  0  0  0  0  0  0  0  0  0  0
  139.5870   69.8080  223.8880 C   0  0  0  0  0  0  0  0  0  0  0  0
  140.0700   70.1040  225.1450 C   0  0  0  0  0  0  0  0  0  0  0  0
  140.0340   69.1850  226.1780 C   0  0  0  0  0  0  0  0  0  0  0  0
  140.5390   69.5660  227.4020 C   0  0  0  0  0  0  0  0  0  0  0  0
  140.5120   68.4310  228.7420 Cl  0  0  0  0  0  0  0  0  0  0  0  0
  141.0570   70.8270  227.5630 C   0  0  0  0  0  0  0  0  0  0  0  0
  141.1110   71.7700  226.5580 C   0  0  0  0  0  0  0  0  0  0  0  0
  140.5990   71.3840  225.3160 C   0  0  0  0  0  0  0  0  0  0  0  0
  140.6180   72.2550  224.2830 N   0  0  0  0  0  0  0  0  0  0  0  0
  138.8880   74.3120  222.9910 H   0  0  0  0  0  0  0  0  0  0  0  0
  139.9113   74.5881  220.1361 H   0  0  0  0  0  0  0  0  0  0  0  0
  138.4219   75.3882  220.8159 H   0  0  0  0  0  0  0  0  0  0  0  0
  138.0787   76.4439  223.0212 H   0  0  0  0  0  0  0  0  0  0  0  0
  138.7053   77.8320  223.8033 H   0  0  0  0  0  0  0  0  0  0  0  0
  137.1647   77.7841  221.0409 H   0  0  0  0  0  0  0  0  0  0  0  0
  136.4926   78.5017  222.4510 H   0  0  0  0  0  0  0  0  0  0  0  0
  138.0275   80.0689  220.8310 H   0  0  0  0  0  0  0  0  0  0  0  0
  138.3668   80.2357  222.5335 H   0  0  0  0  0  0  0  0  0  0  0  0
  140.0489   78.9295  220.4252 H   0  0  0  0  0  0  0  0  0  0  0  0
  142.3814   78.2944  221.7067 H   0  0  0  0  0  0  0  0  0  0  0  0
  144.0747   79.4680  223.0736 H   0  0  0  0  0  0  0  0  0  0  0  0
  143.3820   81.4098  224.4761 H   0  0  0  0  0  0  0  0  0  0  0  0
  139.3834   80.9861  223.1373 H   0  0  0  0  0  0  0  0  0  0  0  0
  139.2118   70.4256  221.8514 H   0  0  0  0  0  0  0  0  0  0  0  0
  139.1625   68.8084  223.7128 H   0  0  0  0  0  0  0  0  0  0  0  0
  139.6145   68.1794  226.0268 H   0  0  0  0  0  0  0  0  0  0  0  0
  141.4524   71.1016  228.5521 H   0  0  0  0  0  0  0  0  0  0  0  0
  141.5341   72.7716  226.7248 H   0  0  0  0  0  0  0  0  0  0  0  0
  1  2  2  0
  2  3  1  0
  3  4  1  0
  4  5  1  0
  5  6  2  0
  5  7  1  0
  7  8  1  0
  8  9  1  0
  9 10  1  0
 10 11  1  0
 11 12  1  0
 12 13  2  0
 13 14  1  0
 14 15  2  0
 15 16  1  0
 16 17  2  0
  2 18  1  0
 18 19  2  0
 19 20  1  0
 20 21  2  0
 21 22  1  0
 22 23  2  0
 23 24  1  0
 23 25  1  0
 25 26  2  0
 26 27  1  0
 27 28  2  0
 11  7  1  0
 17 12  1  0
 28 18  1  0
 27 21  1  0
  3 29  1  0
  4 30  1  0
  4 31  1  0
  8 32  1  0
  8 33  1  0
  9 34  1  0
  9 35  1  0
 10 36  1  0
 10 37  1  0
 11 38  1  6
 13 39  1  0
 14 40  1  0
 15 41  1  0
 17 42  1  0
 19 43  1  0
 20 44  1  0
 22 45  1  0
 25 46  1  0
 26 47  1  0
M  END
>  <smiles>  (88) 
O=C(NCC(=O)N1CCCC1c1cccnc1)c1ccc2cc(Cl)ccc2n1

>  <score_type>  (88) 
oracle

>  <origin>  (88) 
autodockgpu

>  <m_score__min__energy>  (88) 
-8.5700000000000003

>  <m_primary>  (88) 
energy

>  <rmsd>  (88) 
2.9591317527694443

>  <m_score__min__rmsd>  (88) 
2.9591317527694443

>  <meeko>  (88) 
{"free_energy": -8.47, "intermolecular_energy": -9.96, "internal_energy": -1.17, "cluster_size": 17, "cluster_id": 2, "rank_in_cluster": 4}

>  <energy>  (88) 
-8.23

>  <cluster_rmsd>  (88) 
1.58

>  <cluster>  (88) 
3

$$$$

     RDKit          3D

 47 50  0  0  0  0  0  0  0  0999 V2000
  139.2100   72.0320  220.8760 O   0  0  0  0  0  0  0  0  0  0  0  0
  139.4020   72.4370  222.0350 C   0  0  0  0  0  0  0  0  0  0  0  0
  139.4010   73.8430  222.3350 N   0  0  0  0  0  0  0  0  0  0  0  0
  139.1740   74.7580  221.2600 C   0  0  0  0  0  0  0  0  0  0  0  0
  139.3900   76.1730  221.6500 C   0  0  0  0  0  0  0  0  0  0  0  0
  138.8490   76.5590  222.7150 O   0  0  0  0  0  0  0  0  0  0  0  0
  140.1830   76.9980  220.8110 N   0  0  0  0  0  0  0  0  0  0  0  0
  139.7530   77.6430  219.5550 C   0  0  0  0  0  0  0  0  0  0  0  0
  140.9180   77.1370  218.6780 C   0  0  0  0  0  0  0  0  0  0  0  0
  142.0750   77.6680  219.5320 C   0  0  0  0  0  0  0  0  0  0  0  0
  141.5700   77.4080  220.9440 C   0  0  1  0  0  0  0  0  0  0  0  0
  141.7360   78.6460  221.7570 C   0  0  0  0  0  0  0  0  0  0  0  0
  141.8260   78.6420  223.1310 C   0  0  0  0  0  0  0  0  0  0  0  0
  141.9960   79.7980  223.8810 C   0  0  0  0  0  0  0  0  0  0  0  0
  142.0800   81.0070  223.2290 C   0  0  0  0  0  0  0  0  0  0  0  0
  141.9950   81.0290  221.8890 N   0  0  0  0  0  0  0  0  0  0  0  0
  141.8290   79.9080  221.1560 C   0  0  0  0  0  0  0  0  0  0  0  0
  139.6350   71.5020  223.1320 C   0  0  0  0  0  0  0  0  0  0  0  0
  139.3300   70.1590  222.9460 C   0  0  0  0  0  0  0  0  0  0  0  0
  139.5520   69.2800  223.9880 C   0  0  0  0  0  0  0  0  0  0  0  0
  140.0630   69.6700  225.2080 C   0  0  0  0  0  0  0  0  0  0  0  0
  140.2770   68.7680  226.2340 C   0  0  0  0  0  0  0  0  0  0  0  0
  140.7910   69.2440  227.4210 C   0  0  0  0  0  0  0  0  0  0  0  0
  141.0760   68.1330  228.7510 Cl  0  0  0  0  0  0  0  0  0  0  0  0
  141.0740   70.5800  227.5520 C   0  0  0  0  0  0  0  0  0  0  0  0
  140.8770   71.5110  226.5530 C   0  0  0  0  0  0  0  0  0  0  0  0
  140.3540   71.0280  225.3490 C   0  0  0  0  0  0  0  0  0  0  0  0
  140.1340   71.8800  224.3240 N   0  0  0  0  0  0  0  0  0  0  0  0
  139.5690   74.1540  223.3370 H   0  0  0  0  0  0  0  0  0  0  0  0
  139.8624   74.5116  220.4382 H   0  0  0  0  0  0  0  0  0  0  0  0
  138.1214   74.6564  220.9571 H   0  0  0  0  0  0  0  0  0  0  0  0
  138.7751   77.2783  219.2076 H   0  0  0  0  0  0  0  0  0  0  0  0
  139.5971   78.7314  219.5878 H   0  0  0  0  0  0  0  0  0  0  0  0
  140.9309   76.0402  218.5948 H   0  0  0  0  0  0  0  0  0  0  0  0
  140.9063   77.4604  217.6267 H   0  0  0  0  0  0  0  0  0  0  0  0
  143.0054   77.1163  219.3322 H   0  0  0  0  0  0  0  0  0  0  0  0
  142.3239   78.7215  219.3365 H   0  0  0  0  0  0  0  0  0  0  0  0
  142.1319   76.6183  221.4642 H   0  0  0  0  0  0  0  0  0  0  0  0
  141.7602   77.6790  223.6585 H   0  0  0  0  0  0  0  0  0  0  0  0
  142.0624   79.7483  224.9779 H   0  0  0  0  0  0  0  0  0  0  0  0
  142.2145   81.9399  223.7961 H   0  0  0  0  0  0  0  0  0  0  0  0
  141.7652   79.9872  220.0607 H   0  0  0  0  0  0  0  0  0  0  0  0
  138.9204   69.8035  221.9890 H   0  0  0  0  0  0  0  0  0  0  0  0
  139.3095   68.2177  223.8374 H   0  0  0  0  0  0  0  0  0  0  0  0
  140.0436   67.7006  226.1065 H   0  0  0  0  0  0  0  0  0  0  0  0
  141.4826   70.9301  228.5114 H   0  0  0  0  0  0  0  0  0  0  0  0
  141.1180   72.5748  226.6956 H   0  0  0  0  0  0  0  0  0  0  0  0
  1  2  2  0
  2  3  1  0
  3  4  1  0
  4  5  1  0
  5  6  2  0
  5  7  1  0
  7  8  1  0
  8  9  1  0
  9 10  1  0
 10 11  1  0
 11 12  1  0
 12 13  2  0
 13 14  1  0
 14 15  2  0
 15 16  1  0
 16 17  2  0
  2 18  1  0
 18 19  2  0
 19 20  1  0
 20 21  2  0
 21 22  1  0
 22 23  2  0
 23 24  1  0
 23 25  1  0
 25 26  2  0
 26 27  1  0
 27 28  2  0
 11  7  1  0
 17 12  1  0
 28 18  1  0
 27 21  1  0
  3 29  1  0
  4 30  1  0
  4 31  1  0
  8 32  1  0
  8 33  1  0
  9 34  1  0
  9 35  1  0
 10 36  1  0
 10 37  1  0
 11 38  1  1
 13 39  1  0
 14 40  1  0
 15 41  1  0
 17 42  1  0
 19 43  1  0
 20 44  1  0
 22 45  1  0
 25 46  1  0
 26 47  1  0
M  END
>  <smiles>  (89) 
O=C(NCC(=O)N1CCCC1c1cccnc1)c1ccc2cc(Cl)ccc2n1

>  <score_type>  (89) 
oracle

>  <origin>  (89) 
autodockgpu

>  <m_score__min__energy>  (89) 
-8.5700000000000003

>  <m_primary>  (89) 
energy

>  <rmsd>  (89) 
1.6947052418063555

>  <m_score__min__rmsd>  (89) 
1.6947052418063555

>  <meeko>  (89) 
{"free_energy": -8.37, "intermolecular_energy": -9.86, "internal_energy": -1.51, "cluster_size": 17, "cluster_id": 2, "rank_in_cluster": 12}

>  <energy>  (89) 
-8.17

>  <cluster_rmsd>  (89) 
0.07

>  <cluster>  (89) 
3

$$$$

     RDKit          3D

 47 50  0  0  0  0  0  0  0  0999 V2000
  140.2730   74.1210  222.3030 O   0  0  0  0  0  0  0  0  0  0  0  0
  139.9970   72.9290  222.0850 C   0  0  0  0  0  0  0  0  0  0  0  0
  139.6140   72.4890  220.7720 N   0  0  0  0  0  0  0  0  0  0  0  0
  139.5610   73.4630  219.7270 C   0  0  0  0  0  0  0  0  0  0  0  0
  140.8190   73.5390  218.9440 C   0  0  0  0  0  0  0  0  0  0  0  0
  140.9840   72.6770  218.0460 O   0  0  0  0  0  0  0  0  0  0  0  0
  141.7500   74.5650  219.2480 N   0  0  0  0  0  0  0  0  0  0  0  0
  141.6000   75.6080  220.2820 C   0  0  0  0  0  0  0  0  0  0  0  0
  141.8980   76.8180  219.3720 C   0  0  0  0  0  0  0  0  0  0  0  0
  143.2630   76.3580  218.8450 C   0  0  0  0  0  0  0  0  0  0  0  0
  143.0390   74.8660  218.6500 C   0  0  1  0  0  0  0  0  0  0  0  0
  144.1620   74.1180  219.2820 C   0  0  0  0  0  0  0  0  0  0  0  0
  144.4180   74.1380  220.6350 C   0  0  0  0  0  0  0  0  0  0  0  0
  145.4570   73.4250  221.2190 C   0  0  0  0  0  0  0  0  0  0  0  0
  146.2720   72.6610  220.4160 C   0  0  0  0  0  0  0  0  0  0  0  0
  146.0360   72.6280  219.0940 N   0  0  0  0  0  0  0  0  0  0  0  0
  145.0280   73.3200  218.5220 C   0  0  0  0  0  0  0  0  0  0  0  0
  140.0500   71.9340  223.1530 C   0  0  0  0  0  0  0  0  0  0  0  0
  139.6050   70.6440  222.8930 C   0  0  0  0  0  0  0  0  0  0  0  0
  139.6580   69.7090  223.9080 C   0  0  0  0  0  0  0  0  0  0  0  0
  140.1320   69.9930  225.1720 C   0  0  0  0  0  0  0  0  0  0  0  0
  140.1740   69.0360  226.1690 C   0  0  0  0  0  0  0  0  0  0  0  0
  140.6630   69.4070  227.4030 C   0  0  0  0  0  0  0  0  0  0  0  0
  140.7340   68.2230  228.6990 Cl  0  0  0  0  0  0  0  0  0  0  0  0
  141.0900   70.6950  227.6070 C   0  0  0  0  0  0  0  0  0  0  0  0
  141.0640   71.6770  226.6390 C   0  0  0  0  0  0  0  0  0  0  0  0
  140.5680   71.3010  225.3870 C   0  0  0  0  0  0  0  0  0  0  0  0
  140.5120   72.2090  224.3880 N   0  0  0  0  0  0  0  0  0  0  0  0
  139.3840   71.4620  220.6210 H   0  0  0  0  0  0  0  0  0  0  0  0
  138.7384   73.2017  219.0451 H   0  0  0  0  0  0  0  0  0  0  0  0
  139.4059   74.4447  220.1984 H   0  0  0  0  0  0  0  0  0  0  0  0
  140.5849   75.6390  220.7045 H   0  0  0  0  0  0  0  0  0  0  0  0
  142.2239   75.5029  221.1819 H   0  0  0  0  0  0  0  0  0  0  0  0
  141.1559   76.9269  218.5674 H   0  0  0  0  0  0  0  0  0  0  0  0
  141.8758   77.8045  219.8581 H   0  0  0  0  0  0  0  0  0  0  0  0
  143.5120   76.8526  217.8945 H   0  0  0  0  0  0  0  0  0  0  0  0
  144.1014   76.5971  219.5157 H   0  0  0  0  0  0  0  0  0  0  0  0
  143.0242   74.5678  217.5913 H   0  0  0  0  0  0  0  0  0  0  0  0
  143.7699   74.7465  221.2828 H   0  0  0  0  0  0  0  0  0  0  0  0
  145.6254   73.4704  222.3051 H   0  0  0  0  0  0  0  0  0  0  0  0
  147.1037   72.0863  220.8496 H   0  0  0  0  0  0  0  0  0  0  0  0
  144.8828   73.2561  217.4335 H   0  0  0  0  0  0  0  0  0  0  0  0
  139.2185   70.3729  221.8995 H   0  0  0  0  0  0  0  0  0  0  0  0
  139.3052   68.6884  223.6984 H   0  0  0  0  0  0  0  0  0  0  0  0
  139.8273   68.0088  225.9828 H   0  0  0  0  0  0  0  0  0  0  0  0
  141.4762   70.9602  228.6023 H   0  0  0  0  0  0  0  0  0  0  0  0
  141.4143   72.7000  226.8409 H   0  0  0  0  0  0  0  0  0  0  0  0
  1  2  2  0
  2  3  1  0
  3  4  1  0
  4  5  1  0
  5  6  2  0
  5  7  1  0
  7  8  1  0
  8  9  1  0
  9 10  1  0
 10 11  1  0
 11 12  1  0
 12 13  2  0
 13 14  1  0
 14 15  2  0
 15 16  1  0
 16 17  2  0
  2 18  1  0
 18 19  2  0
 19 20  1  0
 20 21  2  0
 21 22  1  0
 22 23  2  0
 23 24  1  0
 23 25  1  0
 25 26  2  0
 26 27  1  0
 27 28  2  0
 11  7  1  0
 17 12  1  0
 28 18  1  0
 27 21  1  0
  3 29  1  0
  4 30  1  0
  4 31  1  0
  8 32  1  0
  8 33  1  0
  9 34  1  0
  9 35  1  0
 10 36  1  0
 10 37  1  0
 11 38  1  6
 13 39  1  0
 14 40  1  0
 15 41  1  0
 17 42  1  0
 19 43  1  0
 20 44  1  0
 22 45  1  0
 25 46  1  0
 26 47  1  0
M  END
>  <smiles>  (90) 
O=C(NCC(=O)N1CCCC1c1cccnc1)c1ccc2cc(Cl)ccc2n1

>  <score_type>  (90) 
oracle

>  <origin>  (90) 
autodockgpu

>  <m_score__min__energy>  (90) 
-8.5700000000000003

>  <m_primary>  (90) 
energy

>  <rmsd>  (90) 
2.467742154391423

>  <m_score__min__rmsd>  (90) 
2.467742154391423

>  <meeko>  (90) 
{"free_energy": -8.47, "intermolecular_energy": -9.96, "internal_energy": -1.27, "cluster_size": 19, "cluster_id": 1, "rank_in_cluster": 2}

>  <energy>  (90) 
-8.15

>  <cluster_rmsd>  (90) 
1.64

>  <cluster>  (90) 
3

$$$$

     RDKit          3D

 47 50  0  0  0  0  0  0  0  0999 V2000
  141.1360   73.1510  220.6350 O   0  0  0  0  0  0  0  0  0  0  0  0
  140.4900   73.9490  221.3350 C   0  0  0  0  0  0  0  0  0  0  0  0
  139.4090   73.4950  222.1650 N   0  0  0  0  0  0  0  0  0  0  0  0
  139.1000   72.0990  222.1600 C   0  0  0  0  0  0  0  0  0  0  0  0
  139.8540   71.3360  223.1850 C   0  0  0  0  0  0  0  0  0  0  0  0
  140.9970   71.7610  223.4840 O   0  0  0  0  0  0  0  0  0  0  0  0
  139.2520   70.1890  223.7620 N   0  0  0  0  0  0  0  0  0  0  0  0
  139.1960   68.8370  223.1710 C   0  0  0  0  0  0  0  0  0  0  0  0
  137.6750   68.6290  223.3230 C   0  0  0  0  0  0  0  0  0  0  0  0
  137.5740   68.8840  224.8320 C   0  0  0  0  0  0  0  0  0  0  0  0
  138.5500   70.0340  225.0240 C   0  0  1  0  0  0  0  0  0  0  0  0
  139.4600   69.7180  226.1610 C   0  0  0  0  0  0  0  0  0  0  0  0
  139.6660   68.4410  226.6330 C   0  0  0  0  0  0  0  0  0  0  0  0
  140.5280   68.1520  227.6820 C   0  0  0  0  0  0  0  0  0  0  0  0
  141.2110   69.1840  228.2840 C   0  0  0  0  0  0  0  0  0  0  0  0
  141.0240   70.4360  227.8360 N   0  0  0  0  0  0  0  0  0  0  0  0
  140.1870   70.7220  226.8160 C   0  0  0  0  0  0  0  0  0  0  0  0
  140.8060   75.3760  221.3400 C   0  0  0  0  0  0  0  0  0  0  0  0
  141.7490   75.8580  220.4410 C   0  0  0  0  0  0  0  0  0  0  0  0
  142.0420   77.2070  220.4510 C   0  0  0  0  0  0  0  0  0  0  0  0
  141.4450   78.1030  221.3120 C   0  0  0  0  0  0  0  0  0  0  0  0
  141.7580   79.4500  221.3000 C   0  0  0  0  0  0  0  0  0  0  0  0
  141.1130   80.2740  222.1960 C   0  0  0  0  0  0  0  0  0  0  0  0
  141.4810   81.9920  222.2160 Cl  0  0  0  0  0  0  0  0  0  0  0  0
  140.1900   79.7460  223.0640 C   0  0  0  0  0  0  0  0  0  0  0  0
  139.8500   78.4100  223.1070 C   0  0  0  0  0  0  0  0  0  0  0  0
  140.5050   77.5730  222.1980 C   0  0  0  0  0  0  0  0  0  0  0  0
  140.2240   76.2520  222.1810 N   0  0  0  0  0  0  0  0  0  0  0  0
  138.8770   74.2050  222.7520 H   0  0  0  0  0  0  0  0  0  0  0  0
  138.0240   71.9772  222.3531 H   0  0  0  0  0  0  0  0  0  0  0  0
  139.3874   71.7013  221.1755 H   0  0  0  0  0  0  0  0  0  0  0  0
  139.5197   68.8234  222.1198 H   0  0  0  0  0  0  0  0  0  0  0  0
  139.8453   68.0738  223.6248 H   0  0  0  0  0  0  0  0  0  0  0  0
  137.0944   69.3572  222.7377 H   0  0  0  0  0  0  0  0  0  0  0  0
  137.2821   67.6644  222.9692 H   0  0  0  0  0  0  0  0  0  0  0  0
  136.5530   69.1738  225.1210 H   0  0  0  0  0  0  0  0  0  0  0  0
  137.8020   68.0012  225.4473 H   0  0  0  0  0  0  0  0  0  0  0  0
  138.0529   70.9815  225.2793 H   0  0  0  0  0  0  0  0  0  0  0  0
  139.1225   67.6116  226.1569 H   0  0  0  0  0  0  0  0  0  0  0  0
  140.6628   67.1160  228.0262 H   0  0  0  0  0  0  0  0  0  0  0  0
  141.8993   68.9864  229.1190 H   0  0  0  0  0  0  0  0  0  0  0  0
  140.0728   71.7668  226.4914 H   0  0  0  0  0  0  0  0  0  0  0  0
  142.2515   75.1792  219.7362 H   0  0  0  0  0  0  0  0  0  0  0  0
  142.7883   77.5855  219.7371 H   0  0  0  0  0  0  0  0  0  0  0  0
  142.5007   79.8520  220.5952 H   0  0  0  0  0  0  0  0  0  0  0  0
  139.6917   80.4293  223.7674 H   0  0  0  0  0  0  0  0  0  0  0  0
  139.1043   78.0239  223.8175 H   0  0  0  0  0  0  0  0  0  0  0  0
  1  2  2  0
  2  3  1  0
  3  4  1  0
  4  5  1  0
  5  6  2  0
  5  7  1  0
  7  8  1  0
  8  9  1  0
  9 10  1  0
 10 11  1  0
 11 12  1  0
 12 13  2  0
 13 14  1  0
 14 15  2  0
 15 16  1  0
 16 17  2  0
  2 18  1  0
 18 19  2  0
 19 20  1  0
 20 21  2  0
 21 22  1  0
 22 23  2  0
 23 24  1  0
 23 25  1  0
 25 26  2  0
 26 27  1  0
 27 28  2  0
 11  7  1  0
 17 12  1  0
 28 18  1  0
 27 21  1  0
  3 29  1  0
  4 30  1  0
  4 31  1  0
  8 32  1  0
  8 33  1  0
  9 34  1  0
  9 35  1  0
 10 36  1  0
 10 37  1  0
 11 38  1  1
 13 39  1  0
 14 40  1  0
 15 41  1  0
 17 42  1  0
 19 43  1  0
 20 44  1  0
 22 45  1  0
 25 46  1  0
 26 47  1  0
M  END
>  <smiles>  (91) 
O=C(NCC(=O)N1CCCC1c1cccnc1)c1ccc2cc(Cl)ccc2n1

>  <score_type>  (91) 
oracle

>  <origin>  (91) 
autodockgpu

>  <m_score__min__energy>  (91) 
-8.5700000000000003

>  <m_primary>  (91) 
energy

>  <rmsd>  (91) 
8.381734173170509

>  <m_score__min__rmsd>  (91) 
8.381734173170509

>  <meeko>  (91) 
{"free_energy": -7.92, "intermolecular_energy": -9.41, "internal_energy": -1.37, "cluster_size": 3, "cluster_id": 4, "rank_in_cluster": 3}

>  <energy>  (91) 
-8.11

>  <cluster_rmsd>  (91) 
0.53

>  <cluster>  (91) 
3

$$$$

     RDKit          3D

 47 50  0  0  0  0  0  0  0  0999 V2000
  140.0030   72.4460  220.7240 O   0  0  0  0  0  0  0  0  0  0  0  0
  139.8590   72.8060  221.9050 C   0  0  0  0  0  0  0  0  0  0  0  0
  139.6120   74.1840  222.2310 N   0  0  0  0  0  0  0  0  0  0  0  0
  139.5370   75.1240  221.1570 C   0  0  0  0  0  0  0  0  0  0  0  0
  139.6190   76.5330  221.6160 C   0  0  0  0  0  0  0  0  0  0  0  0
  139.0820   76.8050  222.7180 O   0  0  0  0  0  0  0  0  0  0  0  0
  140.2880   77.4790  220.7970 N   0  0  0  0  0  0  0  0  0  0  0  0
  139.7120   78.2110  219.6510 C   0  0  0  0  0  0  0  0  0  0  0  0
  140.8170   77.8610  218.6330 C   0  0  0  0  0  0  0  0  0  0  0  0
  142.0180   78.3800  219.4330 C   0  0  0  0  0  0  0  0  0  0  0  0
  141.6580   77.9590  220.8500 C   0  0  1  0  0  0  0  0  0  0  0  0
  141.8310   79.1240  221.7640 C   0  0  0  0  0  0  0  0  0  0  0  0
  142.1960   79.0010  223.0860 C   0  0  0  0  0  0  0  0  0  0  0  0
  142.3720   80.0910  223.9270 C   0  0  0  0  0  0  0  0  0  0  0  0
  142.1740   81.3570  223.4240 C   0  0  0  0  0  0  0  0  0  0  0  0
  141.8190   81.4960  222.1360 N   0  0  0  0  0  0  0  0  0  0  0  0
  141.6470   80.4390  221.3150 C   0  0  0  0  0  0  0  0  0  0  0  0
  139.9370   71.8450  223.0020 C   0  0  0  0  0  0  0  0  0  0  0  0
  139.5040   70.5420  222.7850 C   0  0  0  0  0  0  0  0  0  0  0  0
  139.5790   69.6390  223.8260 C   0  0  0  0  0  0  0  0  0  0  0  0
  140.0640   69.9650  225.0760 C   0  0  0  0  0  0  0  0  0  0  0  0
  140.1280   69.0390  226.1010 C   0  0  0  0  0  0  0  0  0  0  0  0
  140.6270   69.4530  227.3170 C   0  0  0  0  0  0  0  0  0  0  0  0
  140.7260   68.3090  228.6470 Cl  0  0  0  0  0  0  0  0  0  0  0  0
  141.0400   70.7510  227.4780 C   0  0  0  0  0  0  0  0  0  0  0  0
  140.9930   71.7030  226.4810 C   0  0  0  0  0  0  0  0  0  0  0  0
  140.4860   71.2840  225.2470 C   0  0  0  0  0  0  0  0  0  0  0  0
  140.4090   72.1610  224.2220 N   0  0  0  0  0  0  0  0  0  0  0  0
  139.4950   74.4570  223.2520 H   0  0  0  0  0  0  0  0  0  0  0  0
  140.3690   74.9318  220.4636 H   0  0  0  0  0  0  0  0  0  0  0  0
  138.5595   74.9917  220.6702 H   0  0  0  0  0  0  0  0  0  0  0  0
  138.7271   77.8212  219.3543 H   0  0  0  0  0  0  0  0  0  0  0  0
  139.5026   79.2801  219.8035 H   0  0  0  0  0  0  0  0  0  0  0  0
  140.8798   76.7796  218.4419 H   0  0  0  0  0  0  0  0  0  0  0  0
  140.6928   78.2796  217.6234 H   0  0  0  0  0  0  0  0  0  0  0  0
  142.9541   77.9073  219.1010 H   0  0  0  0  0  0  0  0  0  0  0  0
  142.1925   79.4603  219.3215 H   0  0  0  0  0  0  0  0  0  0  0  0
  142.3062   77.1601  221.2395 H   0  0  0  0  0  0  0  0  0  0  0  0
  142.3555   77.9922  223.4945 H   0  0  0  0  0  0  0  0  0  0  0  0
  142.6646   79.9457  224.9774 H   0  0  0  0  0  0  0  0  0  0  0  0
  142.3044   82.2404  224.0663 H   0  0  0  0  0  0  0  0  0  0  0  0
  141.3555   80.6134  220.2688 H   0  0  0  0  0  0  0  0  0  0  0  0
  139.1099   70.2371  221.8043 H   0  0  0  0  0  0  0  0  0  0  0  0
  139.2353   68.6089  223.6506 H   0  0  0  0  0  0  0  0  0  0  0  0
  139.7907   68.0029  225.9502 H   0  0  0  0  0  0  0  0  0  0  0  0
  141.4322   71.0507  228.4610 H   0  0  0  0  0  0  0  0  0  0  0  0
  141.3355   72.7350  226.6475 H   0  0  0  0  0  0  0  0  0  0  0  0
  1  2  2  0
  2  3  1  0
  3  4  1  0
  4  5  1  0
  5  6  2  0
  5  7  1  0
  7  8  1  0
  8  9  1  0
  9 10  1  0
 10 11  1  0
 11 12  1  0
 12 13  2  0
 13 14  1  0
 14 15  2  0
 15 16  1  0
 16 17  2  0
  2 18  1  0
 18 19  2  0
 19 20  1  0
 20 21  2  0
 21 22  1  0
 22 23  2  0
 23 24  1  0
 23 25  1  0
 25 26  2  0
 26 27  1  0
 27 28  2  0
 11  7  1  0
 17 12  1  0
 28 18  1  0
 27 21  1  0
  3 29  1  0
  4 30  1  0
  4 31  1  0
  8 32  1  0
  8 33  1  0
  9 34  1  0
  9 35  1  0
 10 36  1  0
 10 37  1  0
 11 38  1  1
 13 39  1  0
 14 40  1  0
 15 41  1  0
 17 42  1  0
 19 43  1  0
 20 44  1  0
 22 45  1  0
 25 46  1  0
 26 47  1  0
M  END
>  <smiles>  (92) 
O=C(NCC(=O)N1CCCC1c1cccnc1)c1ccc2cc(Cl)ccc2n1

>  <score_type>  (92) 
oracle

>  <origin>  (92) 
autodockgpu

>  <m_score__min__energy>  (92) 
-8.5700000000000003

>  <m_primary>  (92) 
energy

>  <rmsd>  (92) 
2.013029779510556

>  <m_score__min__rmsd>  (92) 
2.013029779510556

>  <meeko>  (92) 
{"free_energy": -8.46, "intermolecular_energy": -9.95, "internal_energy": -1.55, "cluster_size": 17, "cluster_id": 2, "rank_in_cluster": 9}

>  <energy>  (92) 
-8.07

>  <cluster_rmsd>  (92) 
1.67

>  <cluster>  (92) 
3

$$$$

     RDKit          3D

 47 50  0  0  0  0  0  0  0  0999 V2000
  140.6010   72.7220  220.9870 O   0  0  0  0  0  0  0  0  0  0  0  0
  139.9060   72.8580  222.0080 C   0  0  0  0  0  0  0  0  0  0  0  0
  139.0150   73.9770  222.1500 N   0  0  0  0  0  0  0  0  0  0  0  0
  138.9540   74.9250  221.0820 C   0  0  0  0  0  0  0  0  0  0  0  0
  138.9680   76.3310  221.5560 C   0  0  0  0  0  0  0  0  0  0  0  0
  137.8700   76.8220  221.9150 O   0  0  0  0  0  0  0  0  0  0  0  0
  140.2020   77.0320  221.5770 N   0  0  0  0  0  0  0  0  0  0  0  0
  140.9120   77.5210  222.7750 C   0  0  0  0  0  0  0  0  0  0  0  0
  141.1010   78.9760  222.2980 C   0  0  0  0  0  0  0  0  0  0  0  0
  141.8120   78.6770  220.9730 C   0  0  0  0  0  0  0  0  0  0  0  0
  141.0600   77.4490  220.4820 C   0  0  1  0  0  0  0  0  0  0  0  0
  142.0420   76.4020  220.0810 C   0  0  0  0  0  0  0  0  0  0  0  0
  142.2340   75.2350  220.7860 C   0  0  0  0  0  0  0  0  0  0  0  0
  143.1390   74.2570  220.3970 C   0  0  0  0  0  0  0  0  0  0  0  0
  143.8830   74.4560  219.2550 C   0  0  0  0  0  0  0  0  0  0  0  0
  143.7080   75.5880  218.5550 N   0  0  0  0  0  0  0  0  0  0  0  0
  142.8280   76.5410  218.9290 C   0  0  0  0  0  0  0  0  0  0  0  0
  139.9690   71.8890  223.0990 C   0  0  0  0  0  0  0  0  0  0  0  0
  139.5210   70.5930  222.8730 C   0  0  0  0  0  0  0  0  0  0  0  0
  139.5830   69.6830  223.9090 C   0  0  0  0  0  0  0  0  0  0  0  0
  140.0680   69.9960  225.1610 C   0  0  0  0  0  0  0  0  0  0  0  0
  140.1200   69.0620  226.1810 C   0  0  0  0  0  0  0  0  0  0  0  0
  140.6200   69.4620  227.4010 C   0  0  0  0  0  0  0  0  0  0  0  0
  140.7020   68.3090  228.7240 Cl  0  0  0  0  0  0  0  0  0  0  0  0
  141.0480   70.7550  227.5710 C   0  0  0  0  0  0  0  0  0  0  0  0
  141.0140   71.7130  226.5800 C   0  0  0  0  0  0  0  0  0  0  0  0
  140.5060   71.3080  225.3420 C   0  0  0  0  0  0  0  0  0  0  0  0
  140.4420   72.1930  224.3230 N   0  0  0  0  0  0  0  0  0  0  0  0
  138.4340   74.0620  223.0360 H   0  0  0  0  0  0  0  0  0  0  0  0
  139.8210   74.7680  220.4235 H   0  0  0  0  0  0  0  0  0  0  0  0
  138.0032   74.7648  220.5525 H   0  0  0  0  0  0  0  0  0  0  0  0
  140.2985   77.4526  223.6854 H   0  0  0  0  0  0  0  0  0  0  0  0
  141.8217   76.9754  223.0661 H   0  0  0  0  0  0  0  0  0  0  0  0
  140.1417   79.4931  222.1484 H   0  0  0  0  0  0  0  0  0  0  0  0
  141.6328   79.6452  222.9903 H   0  0  0  0  0  0  0  0  0  0  0  0
  141.7125   79.5153  220.2678 H   0  0  0  0  0  0  0  0  0  0  0  0
  142.8961   78.5220  221.0760 H   0  0  0  0  0  0  0  0  0  0  0  0
  140.4420   77.6495  219.5944 H   0  0  0  0  0  0  0  0  0  0  0  0
  141.6432   75.0702  221.6991 H   0  0  0  0  0  0  0  0  0  0  0  0
  143.2600   73.3388  220.9906 H   0  0  0  0  0  0  0  0  0  0  0  0
  144.6088   73.6995  218.9220 H   0  0  0  0  0  0  0  0  0  0  0  0
  142.7255   77.4480  218.3151 H   0  0  0  0  0  0  0  0  0  0  0  0
  139.1255   70.2987  221.8896 H   0  0  0  0  0  0  0  0  0  0  0  0
  139.2281   68.6579  223.7268 H   0  0  0  0  0  0  0  0  0  0  0  0
  139.7723   68.0305  226.0223 H   0  0  0  0  0  0  0  0  0  0  0  0
  141.4416   71.0442  228.5566 H   0  0  0  0  0  0  0  0  0  0  0  0
  141.3674   72.7401  226.7539 H   0  0  0  0  0  0  0  0  0  0  0  0
  1  2  2  0
  2  3  1  0
  3  4  1  0
  4  5  1  0
  5  6  2  0
  5  7  1  0
  7  8  1  0
  8  9  1  0
  9 10  1  0
 10 11  1  0
 11 12  1  0
 12 13  2  0
 13 14  1  0
 14 15  2  0
 15 16  1  0
 16 17  2  0
  2 18  1  0
 18 19  2  0
 19 20  1  0
 20 21  2  0
 21 22  1  0
 22 23  2  0
 23 24  1  0
 23 25  1  0
 25 26  2  0
 26 27  1  0
 27 28  2  0
 11  7  1  0
 17 12  1  0
 28 18  1  0
 27 21  1  0
  3 29  1  0
  4 30  1  0
  4 31  1  0
  8 32  1  0
  8 33  1  0
  9 34  1  0
  9 35  1  0
 10 36  1  0
 10 37  1  0
 11 38  1  6
 13 39  1  0
 14 40  1  0
 15 41  1  0
 17 42  1  0
 19 43  1  0
 20 44  1  0
 22 45  1  0
 25 46  1  0
 26 47  1  0
M  END
>  <smiles>  (93) 
O=C(NCC(=O)N1CCCC1c1cccnc1)c1ccc2cc(Cl)ccc2n1

>  <score_type>  (93) 
oracle

>  <origin>  (93) 
autodockgpu

>  <m_score__min__energy>  (93) 
-8.5700000000000003

>  <m_primary>  (93) 
energy

>  <rmsd>  (93) 
2.754843120062469

>  <m_score__min__rmsd>  (93) 
2.754843120062469

>  <meeko>  (93) 
{"free_energy": -7.91, "intermolecular_energy": -9.4, "internal_energy": -1.5, "cluster_size": 2, "cluster_id": 5, "rank_in_cluster": 1}

>  <energy>  (93) 
-8.06

>  <cluster_rmsd>  (93) 
0.17

>  <cluster>  (93) 
3

$$$$

     RDKit          3D

 47 50  0  0  0  0  0  0  0  0999 V2000
  141.6510   73.1250  220.7320 O   0  0  0  0  0  0  0  0  0  0  0  0
  140.9390   73.9060  221.3850 C   0  0  0  0  0  0  0  0  0  0  0  0
  139.8940   73.4130  222.2400 N   0  0  0  0  0  0  0  0  0  0  0  0
  139.7010   71.9980  222.3150 C   0  0  0  0  0  0  0  0  0  0  0  0
  139.9170   71.4570  223.6790 C   0  0  0  0  0  0  0  0  0  0  0  0
  140.6960   72.0960  224.4280 O   0  0  0  0  0  0  0  0  0  0  0  0
  139.2430   70.2660  224.0550 N   0  0  0  0  0  0  0  0  0  0  0  0
  139.0610   69.0610  223.2220 C   0  0  0  0  0  0  0  0  0  0  0  0
  137.5330   68.9400  223.4010 C   0  0  0  0  0  0  0  0  0  0  0  0
  137.4990   68.9060  224.9340 C   0  0  0  0  0  0  0  0  0  0  0  0
  138.5700   69.9240  225.2960 C   0  0  1  0  0  0  0  0  0  0  0  0
  139.4860   69.3300  226.3100 C   0  0  0  0  0  0  0  0  0  0  0  0
  139.9660   70.0270  227.3960 C   0  0  0  0  0  0  0  0  0  0  0  0
  140.8060   69.4620  228.3460 C   0  0  0  0  0  0  0  0  0  0  0  0
  141.1820   68.1460  228.2020 C   0  0  0  0  0  0  0  0  0  0  0  0
  140.7220   67.4510  227.1490 N   0  0  0  0  0  0  0  0  0  0  0  0
  139.9050   67.9960  226.2240 C   0  0  0  0  0  0  0  0  0  0  0  0
  141.1370   75.3520  221.3080 C   0  0  0  0  0  0  0  0  0  0  0  0
  141.9210   75.8680  220.2840 C   0  0  0  0  0  0  0  0  0  0  0  0
  142.1040   77.2360  220.2170 C   0  0  0  0  0  0  0  0  0  0  0  0
  141.5460   78.1170  221.1200 C   0  0  0  0  0  0  0  0  0  0  0  0
  141.7460   79.4820  221.0280 C   0  0  0  0  0  0  0  0  0  0  0  0
  141.1500   80.2890  221.9730 C   0  0  0  0  0  0  0  0  0  0  0  0
  141.3790   82.0290  221.8960 Cl  0  0  0  0  0  0  0  0  0  0  0  0
  140.3870   79.7270  222.9650 C   0  0  0  0  0  0  0  0  0  0  0  0
  140.1630   78.3720  223.0890 C   0  0  0  0  0  0  0  0  0  0  0  0
  140.7670   77.5520  222.1310 C   0  0  0  0  0  0  0  0  0  0  0  0
  140.5940   76.2140  222.1880 N   0  0  0  0  0  0  0  0  0  0  0  0
  139.3040   74.1090  222.7850 H   0  0  0  0  0  0  0  0  0  0  0  0
  138.6711   71.7674  222.0051 H   0  0  0  0  0  0  0  0  0  0  0  0
  140.4430   71.5283  221.6525 H   0  0  0  0  0  0  0  0  0  0  0  0
  139.3504   69.2261  222.1737 H   0  0  0  0  0  0  0  0  0  0  0  0
  139.6605   68.1793  223.4928 H   0  0  0  0  0  0  0  0  0  0  0  0
  136.9956   69.8081  222.9916 H   0  0  0  0  0  0  0  0  0  0  0  0
  137.0528   68.0932  222.8888 H   0  0  0  0  0  0  0  0  0  0  0  0
  136.5138   69.2082  225.3189 H   0  0  0  0  0  0  0  0  0  0  0  0
  137.6742   67.9070  225.3598 H   0  0  0  0  0  0  0  0  0  0  0  0
  138.1590   70.8386  225.7484 H   0  0  0  0  0  0  0  0  0  0  0  0
  139.6704   71.0797  227.5164 H   0  0  0  0  0  0  0  0  0  0  0  0
  141.1649   70.0561  229.1993 H   0  0  0  0  0  0  0  0  0  0  0  0
  141.8483   67.6713  228.9373 H   0  0  0  0  0  0  0  0  0  0  0  0
  139.5596   67.3781  225.3821 H   0  0  0  0  0  0  0  0  0  0  0  0
  142.3862   75.2019  219.5424 H   0  0  0  0  0  0  0  0  0  0  0  0
  142.7245   77.6420  219.4045 H   0  0  0  0  0  0  0  0  0  0  0  0
  142.3625   79.9112  220.2244 H   0  0  0  0  0  0  0  0  0  0  0  0
  139.9264   80.3973  223.7057 H   0  0  0  0  0  0  0  0  0  0  0  0
  139.5427   77.9586  223.8979 H   0  0  0  0  0  0  0  0  0  0  0  0
  1  2  2  0
  2  3  1  0
  3  4  1  0
  4  5  1  0
  5  6  2  0
  5  7  1  0
  7  8  1  0
  8  9  1  0
  9 10  1  0
 10 11  1  0
 11 12  1  0
 12 13  2  0
 13 14  1  0
 14 15  2  0
 15 16  1  0
 16 17  2  0
  2 18  1  0
 18 19  2  0
 19 20  1  0
 20 21  2  0
 21 22  1  0
 22 23  2  0
 23 24  1  0
 23 25  1  0
 25 26  2  0
 26 27  1  0
 27 28  2  0
 11  7  1  0
 17 12  1  0
 28 18  1  0
 27 21  1  0
  3 29  1  0
  4 30  1  0
  4 31  1  0
  8 32  1  0
  8 33  1  0
  9 34  1  0
  9 35  1  0
 10 36  1  0
 10 37  1  0
 11 38  1  1
 13 39  1  0
 14 40  1  0
 15 41  1  0
 17 42  1  0
 19 43  1  0
 20 44  1  0
 22 45  1  0
 25 46  1  0
 26 47  1  0
M  END
>  <smiles>  (94) 
O=C(NCC(=O)N1CCCC1c1cccnc1)c1ccc2cc(Cl)ccc2n1

>  <score_type>  (94) 
oracle

>  <origin>  (94) 
autodockgpu

>  <m_score__min__energy>  (94) 
-8.5700000000000003

>  <m_primary>  (94) 
energy

>  <rmsd>  (94) 
8.461678499122367

>  <m_score__min__rmsd>  (94) 
8.461678499122367

>  <meeko>  (94) 
{"free_energy": -8.14, "intermolecular_energy": -9.63, "internal_energy": -1.35, "cluster_size": 3, "cluster_id": 4, "rank_in_cluster": 2}

>  <energy>  (94) 
-8.05

>  <cluster_rmsd>  (94) 
0.83

>  <cluster>  (94) 
3

$$$$

     RDKit          3D

 47 50  0  0  0  0  0  0  0  0999 V2000
  140.2310   72.4880  220.7890 O   0  0  0  0  0  0  0  0  0  0  0  0
  139.9740   72.8370  221.9530 C   0  0  0  0  0  0  0  0  0  0  0  0
  139.6240   74.1980  222.2550 N   0  0  0  0  0  0  0  0  0  0  0  0
  139.5820   75.1350  221.1750 C   0  0  0  0  0  0  0  0  0  0  0  0
  140.6820   76.1290  221.2290 C   0  0  0  0  0  0  0  0  0  0  0  0
  140.6850   76.9220  222.2030 O   0  0  0  0  0  0  0  0  0  0  0  0
  141.6540   76.1290  220.1960 N   0  0  0  0  0  0  0  0  0  0  0  0
  142.4110   77.2970  219.7040 C   0  0  0  0  0  0  0  0  0  0  0  0
  142.0950   77.1070  218.2060 C   0  0  0  0  0  0  0  0  0  0  0  0
  142.6000   75.6660  218.0620 C   0  0  0  0  0  0  0  0  0  0  0  0
  142.1400   75.0390  219.3690 C   0  0  1  0  0  0  0  0  0  0  0  0
  143.2810   74.3050  219.9860 C   0  0  0  0  0  0  0  0  0  0  0  0
  143.2440   72.9620  220.2870 C   0  0  0  0  0  0  0  0  0  0  0  0
  144.3170   72.2820  220.8470 C   0  0  0  0  0  0  0  0  0  0  0  0
  145.4750   72.9750  221.1180 C   0  0  0  0  0  0  0  0  0  0  0  0
  145.5290   74.2860  220.8300 N   0  0  0  0  0  0  0  0  0  0  0  0
  144.4890   74.9510  220.2850 C   0  0  0  0  0  0  0  0  0  0  0  0
  140.0180   71.8800  223.0560 C   0  0  0  0  0  0  0  0  0  0  0  0
  139.5410   70.5920  222.8460 C   0  0  0  0  0  0  0  0  0  0  0  0
  139.5850   69.6920  223.8930 C   0  0  0  0  0  0  0  0  0  0  0  0
  140.0790   70.0100  225.1410 C   0  0  0  0  0  0  0  0  0  0  0  0
  140.1120   69.0880  226.1710 C   0  0  0  0  0  0  0  0  0  0  0  0
  140.6230   69.4910  227.3860 C   0  0  0  0  0  0  0  0  0  0  0  0
  140.6820   68.3530  228.7220 Cl  0  0  0  0  0  0  0  0  0  0  0  0
  141.0790   70.7760  227.5400 C   0  0  0  0  0  0  0  0  0  0  0  0
  141.0650   71.7230  226.5370 C   0  0  0  0  0  0  0  0  0  0  0  0
  140.5460   71.3150  225.3050 C   0  0  0  0  0  0  0  0  0  0  0  0
  140.4990   72.1880  224.2750 N   0  0  0  0  0  0  0  0  0  0  0  0
  139.4100   74.4630  223.2620 H   0  0  0  0  0  0  0  0  0  0  0  0
  139.6555   74.5815  220.2273 H   0  0  0  0  0  0  0  0  0  0  0  0
  138.6341   75.6875  221.2544 H   0  0  0  0  0  0  0  0  0  0  0  0
  142.0225   78.2473  220.0990 H   0  0  0  0  0  0  0  0  0  0  0  0
  143.4744   77.3471  219.9807 H   0  0  0  0  0  0  0  0  0  0  0  0
  141.0195   77.1948  217.9927 H   0  0  0  0  0  0  0  0  0  0  0  0
  142.5394   77.8448  217.5217 H   0  0  0  0  0  0  0  0  0  0  0  0
  142.1418   75.1664  217.1957 H   0  0  0  0  0  0  0  0  0  0  0  0
  143.6839   75.5904  217.8906 H   0  0  0  0  0  0  0  0  0  0  0  0
  141.3344   74.3025  219.2326 H   0  0  0  0  0  0  0  0  0  0  0  0
  142.3216   72.4019  220.0739 H   0  0  0  0  0  0  0  0  0  0  0  0
  144.2430   71.2075  221.0704 H   0  0  0  0  0  0  0  0  0  0  0  0
  146.3416   72.4639  221.5629 H   0  0  0  0  0  0  0  0  0  0  0  0
  144.5913   76.0250  220.0703 H   0  0  0  0  0  0  0  0  0  0  0  0
  139.1369   70.2953  221.8669 H   0  0  0  0  0  0  0  0  0  0  0  0
  139.2080   68.6727  223.7233 H   0  0  0  0  0  0  0  0  0  0  0  0
  139.7412   68.0627  226.0250 H   0  0  0  0  0  0  0  0  0  0  0  0
  141.4796   71.0684  228.5218 H   0  0  0  0  0  0  0  0  0  0  0  0
  141.4418   72.7438  226.6981 H   0  0  0  0  0  0  0  0  0  0  0  0
  1  2  2  0
  2  3  1  0
  3  4  1  0
  4  5  1  0
  5  6  2  0
  5  7  1  0
  7  8  1  0
  8  9  1  0
  9 10  1  0
 10 11  1  0
 11 12  1  0
 12 13  2  0
 13 14  1  0
 14 15  2  0
 15 16  1  0
 16 17  2  0
  2 18  1  0
 18 19  2  0
 19 20  1  0
 20 21  2  0
 21 22  1  0
 22 23  2  0
 23 24  1  0
 23 25  1  0
 25 26  2  0
 26 27  1  0
 27 28  2  0
 11  7  1  0
 17 12  1  0
 28 18  1  0
 27 21  1  0
  3 29  1  0
  4 30  1  0
  4 31  1  0
  8 32  1  0
  8 33  1  0
  9 34  1  0
  9 35  1  0
 10 36  1  0
 10 37  1  0
 11 38  1  6
 13 39  1  0
 14 40  1  0
 15 41  1  0
 17 42  1  0
 19 43  1  0
 20 44  1  0
 22 45  1  0
 25 46  1  0
 26 47  1  0
M  END
>  <smiles>  (95) 
O=C(NCC(=O)N1CCCC1c1cccnc1)c1ccc2cc(Cl)ccc2n1

>  <score_type>  (95) 
oracle

>  <origin>  (95) 
autodockgpu

>  <m_score__min__energy>  (95) 
-8.5700000000000003

>  <m_primary>  (95) 
energy

>  <rmsd>  (95) 
2.311620702098889

>  <m_score__min__rmsd>  (95) 
2.311620702098889

>  <meeko>  (95) 
{"free_energy": -8.12, "intermolecular_energy": -9.62, "internal_energy": -1.7, "cluster_size": 19, "cluster_id": 1, "rank_in_cluster": 10}

>  <energy>  (95) 
-8.15

>  <cluster_rmsd>  (95) 
0.0

>  <cluster>  (95) 
4

$$$$

     RDKit          3D

 47 50  0  0  0  0  0  0  0  0999 V2000
  134.8030   68.5130  225.4370 O   0  0  0  0  0  0  0  0  0  0  0  0
  135.0040   69.6880  225.0850 C   0  0  0  0  0  0  0  0  0  0  0  0
  135.9810   70.0010  224.0790 N   0  0  0  0  0  0  0  0  0  0  0  0
  136.7140   68.9190  223.4970 C   0  0  0  0  0  0  0  0  0  0  0  0
  138.1400   68.9010  223.9070 C   0  0  0  0  0  0  0  0  0  0  0  0
  138.6080   67.8010  224.2920 O   0  0  0  0  0  0  0  0  0  0  0  0
  138.8840   70.1080  223.8430 N   0  0  0  0  0  0  0  0  0  0  0  0
  138.3990   71.4110  223.3450 C   0  0  0  0  0  0  0  0  0  0  0  0
  139.5560   71.6750  222.3590 C   0  0  0  0  0  0  0  0  0  0  0  0
  140.7180   71.5410  223.3500 C   0  0  0  0  0  0  0  0  0  0  0  0
  140.2600   70.3800  224.2190 C   0  0  1  0  0  0  0  0  0  0  0  0
  140.4070   70.7560  225.6540 C   0  0  0  0  0  0  0  0  0  0  0  0
  141.1140   71.8580  226.0780 C   0  0  0  0  0  0  0  0  0  0  0  0
  141.2330   72.2110  227.4160 C   0  0  0  0  0  0  0  0  0  0  0  0
  140.6200   71.4280  228.3670 C   0  0  0  0  0  0  0  0  0  0  0  0
  139.9240   70.3500  227.9710 N   0  0  0  0  0  0  0  0  0  0  0  0
  139.8060   70.0030  226.6710 C   0  0  0  0  0  0  0  0  0  0  0  0
  134.2550   70.7920  225.6800 C   0  0  0  0  0  0  0  0  0  0  0  0
  133.1480   70.5050  226.4690 C   0  0  0  0  0  0  0  0  0  0  0  0
  132.4450   71.5530  227.0280 C   0  0  0  0  0  0  0  0  0  0  0  0
  132.7860   72.8760  226.8410 C   0  0  0  0  0  0  0  0  0  0  0  0
  132.0630   73.9070  227.4140 C   0  0  0  0  0  0  0  0  0  0  0  0
  132.4760   75.2000  227.1740 C   0  0  0  0  0  0  0  0  0  0  0  0
  131.5860   76.5390  227.8810 Cl  0  0  0  0  0  0  0  0  0  0  0  0
  133.5750   75.4280  226.3860 C   0  0  0  0  0  0  0  0  0  0  0  0
  134.3220   74.4290  225.7980 C   0  0  0  0  0  0  0  0  0  0  0  0
  133.9040   73.1170  226.0410 C   0  0  0  0  0  0  0  0  0  0  0  0
  134.5860   72.0850  225.4980 N   0  0  0  0  0  0  0  0  0  0  0  0
  136.1270   71.0160  223.8020 H   0  0  0  0  0  0  0  0  0  0  0  0
  136.2477   67.9722  223.8071 H   0  0  0  0  0  0  0  0  0  0  0  0
  136.6861   69.0508  222.4053 H   0  0  0  0  0  0  0  0  0  0  0  0
  137.4248   71.3329  222.8401 H   0  0  0  0  0  0  0  0  0  0  0  0
  138.2077   72.1875  224.1003 H   0  0  0  0  0  0  0  0  0  0  0  0
  139.6018   70.9211  221.5593 H   0  0  0  0  0  0  0  0  0  0  0  0
  139.5062   72.6207  221.7994 H   0  0  0  0  0  0  0  0  0  0  0  0
  141.6596   71.3057  222.8324 H   0  0  0  0  0  0  0  0  0  0  0  0
  140.9281   72.4615  223.9143 H   0  0  0  0  0  0  0  0  0  0  0  0
  140.8614   69.4705  224.0737 H   0  0  0  0  0  0  0  0  0  0  0  0
  141.6072   72.4878  225.3230 H   0  0  0  0  0  0  0  0  0  0  0  0
  141.8076   73.1015  227.7105 H   0  0  0  0  0  0  0  0  0  0  0  0
  140.6988   71.6810  229.4346 H   0  0  0  0  0  0  0  0  0  0  0  0
  139.2244   69.1082  226.4046 H   0  0  0  0  0  0  0  0  0  0  0  0
  132.8383   69.4642  226.6445 H   0  0  0  0  0  0  0  0  0  0  0  0
  131.5700   71.3216  227.6532 H   0  0  0  0  0  0  0  0  0  0  0  0
  131.1842   73.7009  228.0428 H   0  0  0  0  0  0  0  0  0  0  0  0
  133.8790   76.4708  226.2125 H   0  0  0  0  0  0  0  0  0  0  0  0
  135.1987   74.6521  225.1721 H   0  0  0  0  0  0  0  0  0  0  0  0
  1  2  2  0
  2  3  1  0
  3  4  1  0
  4  5  1  0
  5  6  2  0
  5  7  1  0
  7  8  1  0
  8  9  1  0
  9 10  1  0
 10 11  1  0
 11 12  1  0
 12 13  2  0
 13 14  1  0
 14 15  2  0
 15 16  1  0
 16 17  2  0
  2 18  1  0
 18 19  2  0
 19 20  1  0
 20 21  2  0
 21 22  1  0
 22 23  2  0
 23 24  1  0
 23 25  1  0
 25 26  2  0
 26 27  1  0
 27 28  2  0
 11  7  1  0
 17 12  1  0
 28 18  1  0
 27 21  1  0
  3 29  1  0
  4 30  1  0
  4 31  1  0
  8 32  1  0
  8 33  1  0
  9 34  1  0
  9 35  1  0
 10 36  1  0
 10 37  1  0
 11 38  1  1
 13 39  1  0
 14 40  1  0
 15 41  1  0
 17 42  1  0
 19 43  1  0
 20 44  1  0
 22 45  1  0
 25 46  1  0
 26 47  1  0
M  END
>  <smiles>  (96) 
O=C(NCC(=O)N1CCCC1c1cccnc1)c1ccc2cc(Cl)ccc2n1

>  <score_type>  (96) 
oracle

>  <origin>  (96) 
autodockgpu

>  <m_score__min__energy>  (96) 
-8.5700000000000003

>  <m_primary>  (96) 
energy

>  <rmsd>  (96) 
7.250907739623911

>  <m_score__min__rmsd>  (96) 
7.250907739623911

>  <meeko>  (96) 
{"free_energy": -8.11, "intermolecular_energy": -9.61, "internal_energy": -1.48, "cluster_size": 8, "cluster_id": 3, "rank_in_cluster": 5}

>  <energy>  (96) 
-8.14

>  <cluster_rmsd>  (96) 
0.17

>  <cluster>  (96) 
4

$$$$

     RDKit          3D

 47 50  0  0  0  0  0  0  0  0999 V2000
  139.6610   72.1470  220.8110 O   0  0  0  0  0  0  0  0  0  0  0  0
  139.6720   72.5350  221.9910 C   0  0  0  0  0  0  0  0  0  0  0  0
  139.5400   73.9300  222.3110 N   0  0  0  0  0  0  0  0  0  0  0  0
  139.3970   74.8550  221.2310 C   0  0  0  0  0  0  0  0  0  0  0  0
  139.8180   76.2320  221.5890 C   0  0  0  0  0  0  0  0  0  0  0  0
  139.5480   76.6250  222.7510 O   0  0  0  0  0  0  0  0  0  0  0  0
  140.4900   77.0150  220.6160 N   0  0  0  0  0  0  0  0  0  0  0  0
  139.9630   77.4140  219.2950 C   0  0  0  0  0  0  0  0  0  0  0  0
  141.1670   76.9300  218.4610 C   0  0  0  0  0  0  0  0  0  0  0  0
  142.2640   77.7140  219.1920 C   0  0  0  0  0  0  0  0  0  0  0  0
  141.8170   77.6030  220.6420 C   0  0  1  0  0  0  0  0  0  0  0  0
  141.8410   78.9570  221.2650 C   0  0  0  0  0  0  0  0  0  0  0  0
  141.5760   80.1150  220.5680 C   0  0  0  0  0  0  0  0  0  0  0  0
  141.5850   81.3720  221.1590 C   0  0  0  0  0  0  0  0  0  0  0  0
  141.8700   81.4730  222.5020 C   0  0  0  0  0  0  0  0  0  0  0  0
  142.1290   80.3540  223.1970 N   0  0  0  0  0  0  0  0  0  0  0  0
  142.1220   79.1300  222.6270 C   0  0  0  0  0  0  0  0  0  0  0  0
  139.8190   71.5890  223.0950 C   0  0  0  0  0  0  0  0  0  0  0  0
  139.4400   70.2660  222.9000 C   0  0  0  0  0  0  0  0  0  0  0  0
  139.5810   69.3780  223.9480 C   0  0  0  0  0  0  0  0  0  0  0  0
  140.0800   69.7390  225.1820 C   0  0  0  0  0  0  0  0  0  0  0  0
  140.2110   68.8270  226.2140 C   0  0  0  0  0  0  0  0  0  0  0  0
  140.7180   69.2740  227.4140 C   0  0  0  0  0  0  0  0  0  0  0  0
  140.9010   68.1500  228.7510 Cl  0  0  0  0  0  0  0  0  0  0  0  0
  141.0760   70.5920  227.5530 C   0  0  0  0  0  0  0  0  0  0  0  0
  140.9620   71.5300  226.5490 C   0  0  0  0  0  0  0  0  0  0  0  0
  140.4460   71.0770  225.3310 C   0  0  0  0  0  0  0  0  0  0  0  0
  140.3050   71.9390  224.3010 N   0  0  0  0  0  0  0  0  0  0  0  0
  139.5530   74.2260  223.3320 H   0  0  0  0  0  0  0  0  0  0  0  0
  140.0127   74.5080  220.3881 H   0  0  0  0  0  0  0  0  0  0  0  0
  138.3292   74.8943  220.9699 H   0  0  0  0  0  0  0  0  0  0  0  0
  139.0325   76.8875  219.0362 H   0  0  0  0  0  0  0  0  0  0  0  0
  139.6737   78.4688  219.1775 H   0  0  0  0  0  0  0  0  0  0  0  0
  141.3137   75.8423  218.5338 H   0  0  0  0  0  0  0  0  0  0  0  0
  141.0988   77.0942  217.3755 H   0  0  0  0  0  0  0  0  0  0  0  0
  143.2519   77.2542  219.0417 H   0  0  0  0  0  0  0  0  0  0  0  0
  142.3787   78.7500  218.8406 H   0  0  0  0  0  0  0  0  0  0  0  0
  142.4806   76.9701  221.2494 H   0  0  0  0  0  0  0  0  0  0  0  0
  141.3468   80.0410  219.4947 H   0  0  0  0  0  0  0  0  0  0  0  0
  141.3681   82.2714  220.5640 H   0  0  0  0  0  0  0  0  0  0  0  0
  141.8853   82.4548  222.9977 H   0  0  0  0  0  0  0  0  0  0  0  0
  142.3420   78.2479  223.2463 H   0  0  0  0  0  0  0  0  0  0  0  0
  139.0366   69.9337  221.9321 H   0  0  0  0  0  0  0  0  0  0  0  0
  139.2806   68.3315  223.7910 H   0  0  0  0  0  0  0  0  0  0  0  0
  139.9186   67.7751  226.0800 H   0  0  0  0  0  0  0  0  0  0  0  0
  141.4778   70.9192  228.5233 H   0  0  0  0  0  0  0  0  0  0  0  0
  141.2608   72.5781  226.6981 H   0  0  0  0  0  0  0  0  0  0  0  0
  1  2  2  0
  2  3  1  0
  3  4  1  0
  4  5  1  0
  5  6  2  0
  5  7  1  0
  7  8  1  0
  8  9  1  0
  9 10  1  0
 10 11  1  0
 11 12  1  0
 12 13  2  0
 13 14  1  0
 14 15  2  0
 15 16  1  0
 16 17  2  0
  2 18  1  0
 18 19  2  0
 19 20  1  0
 20 21  2  0
 21 22  1  0
 22 23  2  0
 23 24  1  0
 23 25  1  0
 25 26  2  0
 26 27  1  0
 27 28  2  0
 11  7  1  0
 17 12  1  0
 28 18  1  0
 27 21  1  0
  3 29  1  0
  4 30  1  0
  4 31  1  0
  8 32  1  0
  8 33  1  0
  9 34  1  0
  9 35  1  0
 10 36  1  0
 10 37  1  0
 11 38  1  1
 13 39  1  0
 14 40  1  0
 15 41  1  0
 17 42  1  0
 19 43  1  0
 20 44  1  0
 22 45  1  0
 25 46  1  0
 26 47  1  0
M  END
>  <smiles>  (97) 
O=C(NCC(=O)N1CCCC1c1cccnc1)c1ccc2cc(Cl)ccc2n1

>  <score_type>  (97) 
oracle

>  <origin>  (97) 
autodockgpu

>  <m_score__min__energy>  (97) 
-8.5700000000000003

>  <m_primary>  (97) 
energy

>  <rmsd>  (97) 
1.6843806118081783

>  <m_score__min__rmsd>  (97) 
1.6843806118081783

>  <meeko>  (97) 
{"free_energy": -8.08, "intermolecular_energy": -9.57, "internal_energy": -1.55, "cluster_size": 17, "cluster_id": 2, "rank_in_cluster": 14}

>  <energy>  (97) 
-7.92

>  <cluster_rmsd>  (97) 
0.69

>  <cluster>  (97) 
4

$$$$

     RDKit          3D

 47 50  0  0  0  0  0  0  0  0999 V2000
  140.3800   72.3630  220.7380 O   0  0  0  0  0  0  0  0  0  0  0  0
  140.0380   72.7150  221.8800 C   0  0  0  0  0  0  0  0  0  0  0  0
  139.6080   74.0620  222.1390 N   0  0  0  0  0  0  0  0  0  0  0  0
  139.5860   74.9810  221.0440 C   0  0  0  0  0  0  0  0  0  0  0  0
  139.3510   76.3830  221.4710 C   0  0  0  0  0  0  0  0  0  0  0  0
  138.5700   76.5590  222.4390 O   0  0  0  0  0  0  0  0  0  0  0  0
  140.0110   77.4280  220.7750 N   0  0  0  0  0  0  0  0  0  0  0  0
  139.3930   78.3760  219.8260 C   0  0  0  0  0  0  0  0  0  0  0  0
  140.3940   78.1620  218.6710 C   0  0  0  0  0  0  0  0  0  0  0  0
  141.6820   78.4760  219.4440 C   0  0  0  0  0  0  0  0  0  0  0  0
  141.4060   77.8280  220.7920 C   0  0  1  0  0  0  0  0  0  0  0  0
  141.7180   78.8040  221.8750 C   0  0  0  0  0  0  0  0  0  0  0  0
  141.5610   78.5230  223.2140 C   0  0  0  0  0  0  0  0  0  0  0  0
  141.8690   79.4310  224.2180 C   0  0  0  0  0  0  0  0  0  0  0  0
  142.3540   80.6710  223.8670 C   0  0  0  0  0  0  0  0  0  0  0  0
  142.5140   80.9610  222.5660 N   0  0  0  0  0  0  0  0  0  0  0  0
  142.2160   80.0820  221.5860 C   0  0  0  0  0  0  0  0  0  0  0  0
  140.0610   71.7750  222.9980 C   0  0  0  0  0  0  0  0  0  0  0  0
  139.5730   70.4890  222.8040 C   0  0  0  0  0  0  0  0  0  0  0  0
  139.5980   69.6060  223.8660 C   0  0  0  0  0  0  0  0  0  0  0  0
  140.0830   69.9380  225.1130 C   0  0  0  0  0  0  0  0  0  0  0  0
  140.0960   69.0330  226.1580 C   0  0  0  0  0  0  0  0  0  0  0  0
  140.6000   69.4500  227.3710 C   0  0  0  0  0  0  0  0  0  0  0  0
  140.6350   68.3320  228.7260 Cl  0  0  0  0  0  0  0  0  0  0  0  0
  141.0690   70.7320  227.5090 C   0  0  0  0  0  0  0  0  0  0  0  0
  141.0740   71.6630  226.4910 C   0  0  0  0  0  0  0  0  0  0  0  0
  140.5620   71.2410  225.2600 C   0  0  0  0  0  0  0  0  0  0  0  0
  140.5350   72.0980  224.2170 N   0  0  0  0  0  0  0  0  0  0  0  0
  139.3220   74.3290  223.1280 H   0  0  0  0  0  0  0  0  0  0  0  0
  140.5538   74.9301  220.5237 H   0  0  0  0  0  0  0  0  0  0  0  0
  138.7523   74.6919  220.3872 H   0  0  0  0  0  0  0  0  0  0  0  0
  138.3668   78.0894  219.5525 H   0  0  0  0  0  0  0  0  0  0  0  0
  139.2598   79.4096  220.1779 H   0  0  0  0  0  0  0  0  0  0  0  0
  140.3772   77.1299  218.2909 H   0  0  0  0  0  0  0  0  0  0  0  0
  140.2183   78.7578  217.7632 H   0  0  0  0  0  0  0  0  0  0  0  0
  142.5602   78.0272  218.9569 H   0  0  0  0  0  0  0  0  0  0  0  0
  141.9119   79.5499  219.5063 H   0  0  0  0  0  0  0  0  0  0  0  0
  142.0326   76.9438  220.9805 H   0  0  0  0  0  0  0  0  0  0  0  0
  141.1740   77.5342  223.5011 H   0  0  0  0  0  0  0  0  0  0  0  0
  141.7280   79.1644  225.2759 H   0  0  0  0  0  0  0  0  0  0  0  0
  142.6062   81.4119  224.6400 H   0  0  0  0  0  0  0  0  0  0  0  0
  142.3674   80.3752  220.5367 H   0  0  0  0  0  0  0  0  0  0  0  0
  139.1753   70.1805  221.8259 H   0  0  0  0  0  0  0  0  0  0  0  0
  139.2120   68.5880  223.7090 H   0  0  0  0  0  0  0  0  0  0  0  0
  139.7151   68.0097  226.0251 H   0  0  0  0  0  0  0  0  0  0  0  0
  141.4645   71.0355  228.4896 H   0  0  0  0  0  0  0  0  0  0  0  0
  141.4599   72.6823  226.6396 H   0  0  0  0  0  0  0  0  0  0  0  0
  1  2  2  0
  2  3  1  0
  3  4  1  0
  4  5  1  0
  5  6  2  0
  5  7  1  0
  7  8  1  0
  8  9  1  0
  9 10  1  0
 10 11  1  0
 11 12  1  0
 12 13  2  0
 13 14  1  0
 14 15  2  0
 15 16  1  0
 16 17  2  0
  2 18  1  0
 18 19  2  0
 19 20  1  0
 20 21  2  0
 21 22  1  0
 22 23  2  0
 23 24  1  0
 23 25  1  0
 25 26  2  0
 26 27  1  0
 27 28  2  0
 11  7  1  0
 17 12  1  0
 28 18  1  0
 27 21  1  0
  3 29  1  0
  4 30  1  0
  4 31  1  0
  8 32  1  0
  8 33  1  0
  9 34  1  0
  9 35  1  0
 10 36  1  0
 10 37  1  0
 11 38  1  1
 13 39  1  0
 14 40  1  0
 15 41  1  0
 17 42  1  0
 19 43  1  0
 20 44  1  0
 22 45  1  0
 25 46  1  0
 26 47  1  0
M  END
>  <smiles>  (98) 
O=C(NCC(=O)N1CCCC1c1cccnc1)c1ccc2cc(Cl)ccc2n1

>  <score_type>  (98) 
oracle

>  <origin>  (98) 
autodockgpu

>  <m_score__min__energy>  (98) 
-8.5700000000000003

>  <m_primary>  (98) 
energy

>  <rmsd>  (98) 
2.020797769275324

>  <m_score__min__rmsd>  (98) 
2.020797769275324

>  <meeko>  (98) 
{"free_energy": -8.46, "intermolecular_energy": -9.95, "internal_energy": -1.52, "cluster_size": 17, "cluster_id": 2, "rank_in_cluster": 8}

>  <energy>  (98) 
-7.91

>  <cluster_rmsd>  (98) 
0.0

>  <cluster>  (98) 
5

$$$$

     RDKit          3D

 47 50  0  0  0  0  0  0  0  0999 V2000
  139.6380   72.1160  220.8220 O   0  0  0  0  0  0  0  0  0  0  0  0
  139.6490   72.5110  222.0000 C   0  0  0  0  0  0  0  0  0  0  0  0
  139.5170   73.9070  222.3120 N   0  0  0  0  0  0  0  0  0  0  0  0
  139.3720   74.8260  221.2260 C   0  0  0  0  0  0  0  0  0  0  0  0
  139.3560   76.2430  221.6660 C   0  0  0  0  0  0  0  0  0  0  0  0
  138.6960   76.5100  222.7000 O   0  0  0  0  0  0  0  0  0  0  0  0
  140.0750   77.2010  220.9070 N   0  0  0  0  0  0  0  0  0  0  0  0
  139.5280   78.0680  219.8430 C   0  0  0  0  0  0  0  0  0  0  0  0
  140.5770   77.7220  218.7650 C   0  0  0  0  0  0  0  0  0  0  0  0
  141.8340   78.0800  219.5660 C   0  0  0  0  0  0  0  0  0  0  0  0
  141.4790   77.5710  220.9550 C   0  0  1  0  0  0  0  0  0  0  0  0
  141.7650   78.6380  221.9550 C   0  0  0  0  0  0  0  0  0  0  0  0
  142.1910   79.9020  221.6110 C   0  0  0  0  0  0  0  0  0  0  0  0
  142.4400   80.8970  222.5470 C   0  0  0  0  0  0  0  0  0  0  0  0
  142.2560   80.6140  223.8820 C   0  0  0  0  0  0  0  0  0  0  0  0
  141.8400   79.3870  224.2350 N   0  0  0  0  0  0  0  0  0  0  0  0
  141.5970   78.4180  223.3280 C   0  0  0  0  0  0  0  0  0  0  0  0
  139.7970   71.5710  223.1090 C   0  0  0  0  0  0  0  0  0  0  0  0
  139.4090   70.2500  222.9260 C   0  0  0  0  0  0  0  0  0  0  0  0
  139.5510   69.3670  223.9780 C   0  0  0  0  0  0  0  0  0  0  0  0
  140.0600   69.7330  225.2070 C   0  0  0  0  0  0  0  0  0  0  0  0
  140.1920   68.8270  226.2440 C   0  0  0  0  0  0  0  0  0  0  0  0
  140.7110   69.2800  227.4370 C   0  0  0  0  0  0  0  0  0  0  0  0
  140.8950   68.1630  228.7810 Cl  0  0  0  0  0  0  0  0  0  0  0  0
  141.0780   70.5960  227.5650 C   0  0  0  0  0  0  0  0  0  0  0  0
  140.9630   71.5280  226.5560 C   0  0  0  0  0  0  0  0  0  0  0  0
  140.4360   71.0700  225.3440 C   0  0  0  0  0  0  0  0  0  0  0  0
  140.2940   71.9260  224.3090 N   0  0  0  0  0  0  0  0  0  0  0  0
  139.5300   74.2100  223.3310 H   0  0  0  0  0  0  0  0  0  0  0  0
  140.2130   74.6838  220.5314 H   0  0  0  0  0  0  0  0  0  0  0  0
  138.4043   74.6189  220.7457 H   0  0  0  0  0  0  0  0  0  0  0  0
  138.5086   77.7795  219.5469 H   0  0  0  0  0  0  0  0  0  0  0  0
  139.4057   79.1332  220.0886 H   0  0  0  0  0  0  0  0  0  0  0  0
  140.5507   76.6587  218.4845 H   0  0  0  0  0  0  0  0  0  0  0  0
  140.4603   78.2318  217.7973 H   0  0  0  0  0  0  0  0  0  0  0  0
  142.7217   77.5673  219.1671 H   0  0  0  0  0  0  0  0  0  0  0  0
  142.0888   79.1497  219.5371 H   0  0  0  0  0  0  0  0  0  0  0  0
  142.0737   76.6963  221.2571 H   0  0  0  0  0  0  0  0  0  0  0  0
  142.3408   80.1337  220.5462 H   0  0  0  0  0  0  0  0  0  0  0  0
  142.7783   81.8938  222.2277 H   0  0  0  0  0  0  0  0  0  0  0  0
  142.4468   81.3809  224.6472 H   0  0  0  0  0  0  0  0  0  0  0  0
  141.2586   77.4307  223.6755 H   0  0  0  0  0  0  0  0  0  0  0  0
  138.9971   69.9142  221.9629 H   0  0  0  0  0  0  0  0  0  0  0  0
  139.2435   68.3214  223.8290 H   0  0  0  0  0  0  0  0  0  0  0  0
  139.8915   67.7762  226.1197 H   0  0  0  0  0  0  0  0  0  0  0  0
  141.4885   70.9269  228.5304 H   0  0  0  0  0  0  0  0  0  0  0  0
  141.2691   72.5752  226.6963 H   0  0  0  0  0  0  0  0  0  0  0  0
  1  2  2  0
  2  3  1  0
  3  4  1  0
  4  5  1  0
  5  6  2  0
  5  7  1  0
  7  8  1  0
  8  9  1  0
  9 10  1  0
 10 11  1  0
 11 12  1  0
 12 13  2  0
 13 14  1  0
 14 15  2  0
 15 16  1  0
 16 17  2  0
  2 18  1  0
 18 19  2  0
 19 20  1  0
 20 21  2  0
 21 22  1  0
 22 23  2  0
 23 24  1  0
 23 25  1  0
 25 26  2  0
 26 27  1  0
 27 28  2  0
 11  7  1  0
 17 12  1  0
 28 18  1  0
 27 21  1  0
  3 29  1  0
  4 30  1  0
  4 31  1  0
  8 32  1  0
  8 33  1  0
  9 34  1  0
  9 35  1  0
 10 36  1  0
 10 37  1  0
 11 38  1  1
 13 39  1  0
 14 40  1  0
 15 41  1  0
 17 42  1  0
 19 43  1  0
 20 44  1  0
 22 45  1  0
 25 46  1  0
 26 47  1  0
M  END
>  <smiles>  (99) 
O=C(NCC(=O)N1CCCC1c1cccnc1)c1ccc2cc(Cl)ccc2n1

>  <score_type>  (99) 
oracle

>  <origin>  (99) 
autodockgpu

>  <m_score__min__energy>  (99) 
-8.5700000000000003

>  <m_primary>  (99) 
energy

>  <rmsd>  (99) 
1.8451920713820773

>  <m_score__min__rmsd>  (99) 
1.8451920713820773

>  <meeko>  (99) 
{"free_energy": -8.47, "intermolecular_energy": -9.96, "internal_energy": -1.5, "cluster_size": 17, "cluster_id": 2, "rank_in_cluster": 5}

>  <energy>  (99) 
-7.39

>  <cluster_rmsd>  (99) 
0.93

>  <cluster>  (99) 
5

$$$$

     RDKit          3D

 47 50  0  0  0  0  0  0  0  0999 V2000
  140.0340   74.0630  220.3570 O   0  0  0  0  0  0  0  0  0  0  0  0
  139.8200   74.0650  221.5810 C   0  0  0  0  0  0  0  0  0  0  0  0
  139.6580   75.2980  222.3010 N   0  0  0  0  0  0  0  0  0  0  0  0
  139.7520   76.5210  221.5650 C   0  0  0  0  0  0  0  0  0  0  0  0
  139.5970   77.7230  222.4210 C   0  0  0  0  0  0  0  0  0  0  0  0
  138.5360   77.8150  223.0860 O   0  0  0  0  0  0  0  0  0  0  0  0
  140.6380   78.6870  222.4390 N   0  0  0  0  0  0  0  0  0  0  0  0
  141.8420   78.6600  223.2940 C   0  0  0  0  0  0  0  0  0  0  0  0
  141.7020   80.0900  223.8570 C   0  0  0  0  0  0  0  0  0  0  0  0
  141.6450   80.8410  222.5210 C   0  0  0  0  0  0  0  0  0  0  0  0
  140.7970   79.9080  221.6710 C   0  0  1  0  0  0  0  0  0  0  0  0
  141.4750   79.6880  220.3620 C   0  0  0  0  0  0  0  0  0  0  0  0
  141.8080   78.4410  219.8820 C   0  0  0  0  0  0  0  0  0  0  0  0
  142.4250   78.2430  218.6540 C   0  0  0  0  0  0  0  0  0  0  0  0
  142.7220   79.3380  217.8750 C   0  0  0  0  0  0  0  0  0  0  0  0
  142.4040   80.5620  218.3270 N   0  0  0  0  0  0  0  0  0  0  0  0
  141.8040   80.7600  219.5200 C   0  0  0  0  0  0  0  0  0  0  0  0
  139.7240   72.8150  222.3320 C   0  0  0  0  0  0  0  0  0  0  0  0
  138.9720   71.7720  221.8060 C   0  0  0  0  0  0  0  0  0  0  0  0
  138.8860   70.5940  222.5220 C   0  0  0  0  0  0  0  0  0  0  0  0
  139.5100   70.4010  223.7360 C   0  0  0  0  0  0  0  0  0  0  0  0
  139.4070   69.2090  224.4310 C   0  0  0  0  0  0  0  0  0  0  0  0
  140.0640   69.1030  225.6370 C   0  0  0  0  0  0  0  0  0  0  0  0
  139.9580   67.6080  226.5530 Cl  0  0  0  0  0  0  0  0  0  0  0  0
  140.7920   70.1650  226.1120 C   0  0  0  0  0  0  0  0  0  0  0  0
  140.9200   71.3670  225.4490 C   0  0  0  0  0  0  0  0  0  0  0  0
  140.2530   71.4760  224.2250 C   0  0  0  0  0  0  0  0  0  0  0  0
  140.3320   72.6240  223.5180 N   0  0  0  0  0  0  0  0  0  0  0  0
  139.4760   75.2630  223.3470 H   0  0  0  0  0  0  0  0  0  0  0  0
  140.7370   76.5622  221.0770 H   0  0  0  0  0  0  0  0  0  0  0  0
  138.9316   76.5294  220.8323 H   0  0  0  0  0  0  0  0  0  0  0  0
  141.7844   77.8910  224.0784 H   0  0  0  0  0  0  0  0  0  0  0  0
  142.7933   78.4160  222.7986 H   0  0  0  0  0  0  0  0  0  0  0  0
  140.7819   80.2175  224.4462 H   0  0  0  0  0  0  0  0  0  0  0  0
  142.4861   80.4115  224.5583 H   0  0  0  0  0  0  0  0  0  0  0  0
  141.1655   81.8244  222.6352 H   0  0  0  0  0  0  0  0  0  0  0  0
  142.6340   81.0574  222.0909 H   0  0  0  0  0  0  0  0  0  0  0  0
  139.8039   80.3208  221.4401 H   0  0  0  0  0  0  0  0  0  0  0  0
  141.5745   77.5614  220.4998 H   0  0  0  0  0  0  0  0  0  0  0  0
  142.6723   77.2280  218.3096 H   0  0  0  0  0  0  0  0  0  0  0  0
  143.2118   79.2127  216.8981 H   0  0  0  0  0  0  0  0  0  0  0  0
  141.5677   81.7859  219.8389 H   0  0  0  0  0  0  0  0  0  0  0  0
  138.4564   71.8819  220.8405 H   0  0  0  0  0  0  0  0  0  0  0  0
  138.2905   69.7695  222.1030 H   0  0  0  0  0  0  0  0  0  0  0  0
  138.8175   68.3703  224.0320 H   0  0  0  0  0  0  0  0  0  0  0  0
  141.3037   70.0504  227.0790 H   0  0  0  0  0  0  0  0  0  0  0  0
  141.5148   72.1956  225.8608 H   0  0  0  0  0  0  0  0  0  0  0  0
  1  2  2  0
  2  3  1  0
  3  4  1  0
  4  5  1  0
  5  6  2  0
  5  7  1  0
  7  8  1  0
  8  9  1  0
  9 10  1  0
 10 11  1  0
 11 12  1  0
 12 13  2  0
 13 14  1  0
 14 15  2  0
 15 16  1  0
 16 17  2  0
  2 18  1  0
 18 19  2  0
 19 20  1  0
 20 21  2  0
 21 22  1  0
 22 23  2  0
 23 24  1  0
 23 25  1  0
 25 26  2  0
 26 27  1  0
 27 28  2  0
 11  7  1  0
 17 12  1  0
 28 18  1  0
 27 21  1  0
  3 29  1  0
  4 30  1  0
  4 31  1  0
  8 32  1  0
  8 33  1  0
  9 34  1  0
  9 35  1  0
 10 36  1  0
 10 37  1  0
 11 38  1  6
 13 39  1  0
 14 40  1  0
 15 41  1  0
 17 42  1  0
 19 43  1  0
 20 44  1  0
 22 45  1  0
 25 46  1  0
 26 47  1  0
M  END
>  <smiles>  (100) 
O=C(NCC(=O)N1CCCC1c1cccnc1)c1ccc2cc(Cl)ccc2n1

>  <score_type>  (100) 
oracle

>  <origin>  (100) 
autodockgpu

>  <m_score__min__energy>  (100) 
-8.5700000000000003

>  <m_primary>  (100) 
energy

>  <rmsd>  (100) 
4.131307105927414

>  <m_score__min__rmsd>  (100) 
4.131307105927414

>  <meeko>  (100) 
{"free_energy": -7.82, "intermolecular_energy": -9.31, "internal_energy": -1.33, "cluster_size": 1, "cluster_id": 6, "rank_in_cluster": 1}

>  <energy>  (100) 
-7.82

>  <cluster_rmsd>  (100) 
0.0

>  <cluster>  (100) 
6

$$$$
