
     RDKit          3D

 38 39  0  0  0  0  0  0  0  0999 V2000
  141.1940   79.1460  223.5630 C   0  0  0  0  0  0  0  0  0  0  0  0
  141.4630   78.2520  222.4470 N   0  0  0  0  0  0  0  0  0  0  0  0
  140.8270   78.5170  221.2220 C   0  0  0  0  0  0  0  0  0  0  0  0
  140.0410   79.4680  221.0130 O   0  0  0  0  0  0  0  0  0  0  0  0
  141.1090   77.5890  220.0740 C   0  0  0  0  0  0  0  0  0  0  0  0
  140.2860   76.4200  220.0780 N   0  0  0  0  0  0  0  0  0  0  0  0
  140.4920   75.4210  221.0900 C   0  0  0  0  0  0  0  0  0  0  0  0
  141.3790   75.5480  221.9720 O   0  0  0  0  0  0  0  0  0  0  0  0
  139.6230   74.2370  221.0560 C   0  0  0  0  0  0  0  0  0  0  0  0
  139.9040   73.3360  222.1470 N   0  0  0  0  0  0  0  0  0  0  0  0
  139.0420   72.2210  222.3440 C   0  0  0  0  0  0  0  0  0  0  0  0
  138.0490   72.0210  221.5830 O   0  0  0  0  0  0  0  0  0  0  0  0
  139.3220   71.2970  223.4530 C   0  0  0  0  0  0  0  0  0  0  0  0
  138.9580   69.9670  223.3230 C   0  0  0  0  0  0  0  0  0  0  0  0
  139.2320   69.1070  224.3890 C   0  0  0  0  0  0  0  0  0  0  0  0
  139.8540   69.6060  225.5330 C   0  0  0  0  0  0  0  0  0  0  0  0
  140.1080   68.7230  226.5650 C   0  0  0  0  0  0  0  0  0  0  0  0
  140.7310   69.2090  227.7170 C   0  0  0  0  0  0  0  0  0  0  0  0
  141.0790   68.1260  229.0660 Cl  0  0  0  0  0  0  0  0  0  0  0  0
  141.0660   70.5500  227.7780 C   0  0  0  0  0  0  0  0  0  0  0  0
  140.8210   71.4400  226.7630 C   0  0  0  0  0  0  0  0  0  0  0  0
  140.2040   70.9500  225.6260 C   0  0  0  0  0  0  0  0  0  0  0  0
  139.9110   71.7180  224.5660 N   0  0  0  0  0  0  0  0  0  0  0  0
  141.3554   78.6096  224.5097 H   0  0  0  0  0  0  0  0  0  0  0  0
  141.8717   80.0109  223.5115 H   0  0  0  0  0  0  0  0  0  0  0  0
  140.1516   79.4934  223.5115 H   0  0  0  0  0  0  0  0  0  0  0  0
  142.1070   77.4280  222.5280 H   0  0  0  0  0  0  0  0  0  0  0  0
  140.9373   78.1339  219.1340 H   0  0  0  0  0  0  0  0  0  0  0  0
  142.1520   77.2541  220.1737 H   0  0  0  0  0  0  0  0  0  0  0  0
  139.5270   76.2730  219.3540 H   0  0  0  0  0  0  0  0  0  0  0  0
  138.5745   74.5626  221.1239 H   0  0  0  0  0  0  0  0  0  0  0  0
  139.8100   73.7020  220.1133 H   0  0  0  0  0  0  0  0  0  0  0  0
  140.7080   73.4500  222.8080 H   0  0  0  0  0  0  0  0  0  0  0  0
  138.4685   69.5995  222.4090 H   0  0  0  0  0  0  0  0  0  0  0  0
  138.9590   68.0433  224.3265 H   0  0  0  0  0  0  0  0  0  0  0  0
  139.8264   67.6629  226.4815 H   0  0  0  0  0  0  0  0  0  0  0  0
  141.5554   70.9229  228.6899 H   0  0  0  0  0  0  0  0  0  0  0  0
  141.1036   72.4995  226.8498 H   0  0  0  0  0  0  0  0  0  0  0  0
  1  2  1  0
  2  3  1  0
  3  4  2  0
  3  5  1  0
  5  6  1  0
  6  7  1  0
  7  8  2  0
  7  9  1  0
  9 10  1  0
 10 11  1  0
 11 12  2  0
 11 13  1  0
 13 14  2  0
 14 15  1  0
 15 16  2  0
 16 17  1  0
 17 18  2  0
 18 19  1  0
 18 20  1  0
 20 21  2  0
 21 22  1  0
 22 23  2  0
 23 13  1  0
 22 16  1  0
  1 24  1  0
  1 25  1  0
  1 26  1  0
  2 27  1  0
  5 28  1  0
  5 29  1  0
  6 30  1  0
  9 31  1  0
  9 32  1  0
 10 33  1  0
 14 34  1  0
 15 35  1  0
 17 36  1  0
 20 37  1  0
 21 38  1  0
M  END
>  <smiles>  (1) 
CNC(=O)CNC(=O)CNC(=O)c1ccc2cc(Cl)ccc2n1

>  <score_type>  (1) 
oracle

>  <origin>  (1) 
autodockgpu

>  <m_score__min__energy>  (1) 
-7.2199999999999998

>  <m_primary>  (1) 
energy

>  <rmsd>  (1) 
1.2320395440725356

>  <m_score__min__rmsd>  (1) 
1.2320395440725356

>  <meeko>  (1) 
{"free_energy": -6.03, "intermolecular_energy": -7.52, "internal_energy": -2.12, "cluster_size": 19, "cluster_id": 1, "rank_in_cluster": 18}

>  <energy>  (1) 
-7.22

>  <cluster_rmsd>  (1) 
0.0

>  <cluster>  (1) 
1

$$$$

     RDKit          3D

 38 39  0  0  0  0  0  0  0  0999 V2000
  134.7300   73.9700  225.1120 C   0  0  0  0  0  0  0  0  0  0  0  0
  135.7970   74.3670  224.2060 N   0  0  0  0  0  0  0  0  0  0  0  0
  135.7750   75.6760  223.6940 C   0  0  0  0  0  0  0  0  0  0  0  0
  134.9040   76.5340  223.9580 O   0  0  0  0  0  0  0  0  0  0  0  0
  136.8800   76.0780  222.7580 C   0  0  0  0  0  0  0  0  0  0  0  0
  137.6260   74.9660  222.2560 N   0  0  0  0  0  0  0  0  0  0  0  0
  137.2140   74.3410  221.0300 C   0  0  0  0  0  0  0  0  0  0  0  0
  136.2110   74.7460  220.3870 O   0  0  0  0  0  0  0  0  0  0  0  0
  138.0090   73.2030  220.5520 C   0  0  0  0  0  0  0  0  0  0  0  0
  138.2560   72.2430  221.6000 N   0  0  0  0  0  0  0  0  0  0  0  0
  139.3400   72.4760  222.4910 C   0  0  0  0  0  0  0  0  0  0  0  0
  140.0760   73.5000  222.3700 O   0  0  0  0  0  0  0  0  0  0  0  0
  139.5990   71.5030  223.5630 C   0  0  0  0  0  0  0  0  0  0  0  0
  139.2910   70.1710  223.3450 C   0  0  0  0  0  0  0  0  0  0  0  0
  139.5450   69.2640  224.3770 C   0  0  0  0  0  0  0  0  0  0  0  0
  140.0910   69.7210  225.5760 C   0  0  0  0  0  0  0  0  0  0  0  0
  140.3270   68.7920  226.5720 C   0  0  0  0  0  0  0  0  0  0  0  0
  140.8740   69.2370  227.7780 C   0  0  0  0  0  0  0  0  0  0  0  0
  141.1950   68.0950  229.0840 Cl  0  0  0  0  0  0  0  0  0  0  0  0
  141.1550   70.5830  227.9260 C   0  0  0  0  0  0  0  0  0  0  0  0
  140.9280   71.5180  226.9470 C   0  0  0  0  0  0  0  0  0  0  0  0
  140.3860   71.0690  225.7560 C   0  0  0  0  0  0  0  0  0  0  0  0
  140.1170   71.8830  224.7250 N   0  0  0  0  0  0  0  0  0  0  0  0
  135.0664   74.0952  226.1518 H   0  0  0  0  0  0  0  0  0  0  0  0
  133.8453   74.5991  224.9346 H   0  0  0  0  0  0  0  0  0  0  0  0
  134.4717   72.9156  224.9346 H   0  0  0  0  0  0  0  0  0  0  0  0
  136.5700   73.7140  223.9270 H   0  0  0  0  0  0  0  0  0  0  0  0
  136.4382   76.6157  221.9061 H   0  0  0  0  0  0  0  0  0  0  0  0
  137.5778   76.7089  223.3281 H   0  0  0  0  0  0  0  0  0  0  0  0
  138.4770   74.5930  222.7650 H   0  0  0  0  0  0  0  0  0  0  0  0
  137.4643   72.7063  219.7355 H   0  0  0  0  0  0  0  0  0  0  0  0
  138.9797   73.5865  220.2045 H   0  0  0  0  0  0  0  0  0  0  0  0
  137.6830   71.3790  221.7490 H   0  0  0  0  0  0  0  0  0  0  0  0
  138.8600   69.8373  222.3896 H   0  0  0  0  0  0  0  0  0  0  0  0
  139.3157   68.1963  224.2445 H   0  0  0  0  0  0  0  0  0  0  0  0
  140.0900   67.7288  226.4188 H   0  0  0  0  0  0  0  0  0  0  0  0
  141.5838   70.9229  228.8803 H   0  0  0  0  0  0  0  0  0  0  0  0
  141.1671   72.5803  227.1030 H   0  0  0  0  0  0  0  0  0  0  0  0
  1  2  1  0
  2  3  1  0
  3  4  2  0
  3  5  1  0
  5  6  1  0
  6  7  1  0
  7  8  2  0
  7  9  1  0
  9 10  1  0
 10 11  1  0
 11 12  2  0
 11 13  1  0
 13 14  2  0
 14 15  1  0
 15 16  2  0
 16 17  1  0
 17 18  2  0
 18 19  1  0
 18 20  1  0
 20 21  2  0
 21 22  1  0
 22 23  2  0
 23 13  1  0
 22 16  1  0
  1 24  1  0
  1 25  1  0
  1 26  1  0
  2 27  1  0
  5 28  1  0
  5 29  1  0
  6 30  1  0
  9 31  1  0
  9 32  1  0
 10 33  1  0
 14 34  1  0
 15 35  1  0
 17 36  1  0
 20 37  1  0
 21 38  1  0
M  END
>  <smiles>  (2) 
CNC(=O)CNC(=O)CNC(=O)c1ccc2cc(Cl)ccc2n1

>  <score_type>  (2) 
oracle

>  <origin>  (2) 
autodockgpu

>  <m_score__min__energy>  (2) 
-7.2199999999999998

>  <m_primary>  (2) 
energy

>  <rmsd>  (2) 
3.668242569084082

>  <m_score__min__rmsd>  (2) 
3.668242569084082

>  <meeko>  (2) 
{"free_energy": -6.63, "intermolecular_energy": -8.12, "internal_energy": -1.74, "cluster_size": 3, "cluster_id": 3, "rank_in_cluster": 1}

>  <energy>  (2) 
-7.21

>  <cluster_rmsd>  (2) 
0.07

>  <cluster>  (2) 
1

$$$$

     RDKit          3D

 38 39  0  0  0  0  0  0  0  0999 V2000
  142.6300   80.5340  223.6800 C   0  0  0  0  0  0  0  0  0  0  0  0
  142.5760   79.4670  222.6940 N   0  0  0  0  0  0  0  0  0  0  0  0
  141.4550   78.6190  222.6990 C   0  0  0  0  0  0  0  0  0  0  0  0
  140.4920   78.7100  223.4920 O   0  0  0  0  0  0  0  0  0  0  0  0
  141.4080   77.5180  221.6770 C   0  0  0  0  0  0  0  0  0  0  0  0
  140.2440   76.6950  221.7890 N   0  0  0  0  0  0  0  0  0  0  0  0
  139.9850   75.7060  220.7800 C   0  0  0  0  0  0  0  0  0  0  0  0
  140.7560   75.5460  219.7990 O   0  0  0  0  0  0  0  0  0  0  0  0
  138.7790   74.8820  220.9360 C   0  0  0  0  0  0  0  0  0  0  0  0
  138.9020   73.9550  222.0340 N   0  0  0  0  0  0  0  0  0  0  0  0
  139.6850   72.7830  221.8480 C   0  0  0  0  0  0  0  0  0  0  0  0
  140.2630   72.5530  220.7440 O   0  0  0  0  0  0  0  0  0  0  0  0
  139.8150   71.8330  222.9630 C   0  0  0  0  0  0  0  0  0  0  0  0
  139.4110   70.5220  222.7750 C   0  0  0  0  0  0  0  0  0  0  0  0
  139.5440   69.6360  223.8470 C   0  0  0  0  0  0  0  0  0  0  0  0
  140.0710   70.0930  225.0550 C   0  0  0  0  0  0  0  0  0  0  0  0
  140.1860   69.1860  226.0910 C   0  0  0  0  0  0  0  0  0  0  0  0
  140.7120   69.6290  227.3070 C   0  0  0  0  0  0  0  0  0  0  0  0
  140.8810   68.5140  228.6640 Cl  0  0  0  0  0  0  0  0  0  0  0  0
  141.0950   70.9540  227.4230 C   0  0  0  0  0  0  0  0  0  0  0  0
  140.9880   71.8670  226.4040 C   0  0  0  0  0  0  0  0  0  0  0  0
  140.4650   71.4190  225.2050 C   0  0  0  0  0  0  0  0  0  0  0  0
  140.3100   72.2130  224.1350 N   0  0  0  0  0  0  0  0  0  0  0  0
  142.6081   80.1006  224.6908 H   0  0  0  0  0  0  0  0  0  0  0  0
  143.5584   81.1089  223.5476 H   0  0  0  0  0  0  0  0  0  0  0  0
  141.7644   81.1997  223.5476 H   0  0  0  0  0  0  0  0  0  0  0  0
  143.3390   79.3130  221.9880 H   0  0  0  0  0  0  0  0  0  0  0  0
  141.4210   77.9707  220.6745 H   0  0  0  0  0  0  0  0  0  0  0  0
  142.2822   76.8733  221.8505 H   0  0  0  0  0  0  0  0  0  0  0  0
  139.5690   76.7960  222.5990 H   0  0  0  0  0  0  0  0  0  0  0  0
  137.9186   75.5417  221.1217 H   0  0  0  0  0  0  0  0  0  0  0  0
  138.6399   74.3013  220.0122 H   0  0  0  0  0  0  0  0  0  0  0  0
  138.4470   74.0910  222.9680 H   0  0  0  0  0  0  0  0  0  0  0  0
  138.9981   70.1885  221.8115 H   0  0  0  0  0  0  0  0  0  0  0  0
  139.2354   68.5857  223.7392 H   0  0  0  0  0  0  0  0  0  0  0  0
  139.8709   68.1401  225.9614 H   0  0  0  0  0  0  0  0  0  0  0  0
  141.5077   71.2938  228.3844 H   0  0  0  0  0  0  0  0  0  0  0  0
  141.3052   72.9120  226.5357 H   0  0  0  0  0  0  0  0  0  0  0  0
  1  2  1  0
  2  3  1  0
  3  4  2  0
  3  5  1  0
  5  6  1  0
  6  7  1  0
  7  8  2  0
  7  9  1  0
  9 10  1  0
 10 11  1  0
 11 12  2  0
 11 13  1  0
 13 14  2  0
 14 15  1  0
 15 16  2  0
 16 17  1  0
 17 18  2  0
 18 19  1  0
 18 20  1  0
 20 21  2  0
 21 22  1  0
 22 23  2  0
 23 13  1  0
 22 16  1  0
  1 24  1  0
  1 25  1  0
  1 26  1  0
  2 27  1  0
  5 28  1  0
  5 29  1  0
  6 30  1  0
  9 31  1  0
  9 32  1  0
 10 33  1  0
 14 34  1  0
 15 35  1  0
 17 36  1  0
 20 37  1  0
 21 38  1  0
M  END
>  <smiles>  (3) 
CNC(=O)CNC(=O)CNC(=O)c1ccc2cc(Cl)ccc2n1

>  <score_type>  (3) 
oracle

>  <origin>  (3) 
autodockgpu

>  <m_score__min__energy>  (3) 
-7.2199999999999998

>  <m_primary>  (3) 
energy

>  <rmsd>  (3) 
1.6850490269509921

>  <m_score__min__rmsd>  (3) 
1.6850490269509921

>  <meeko>  (3) 
{"free_energy": -7.11, "intermolecular_energy": -8.6, "internal_energy": -1.44, "cluster_size": 19, "cluster_id": 1, "rank_in_cluster": 3}

>  <energy>  (3) 
-7.11

>  <cluster_rmsd>  (3) 
0.19

>  <cluster>  (3) 
1

$$$$

     RDKit          3D

 38 39  0  0  0  0  0  0  0  0999 V2000
  142.6590   80.5670  223.7020 C   0  0  0  0  0  0  0  0  0  0  0  0
  142.5940   79.5260  222.6880 N   0  0  0  0  0  0  0  0  0  0  0  0
  141.4660   78.6870  222.6760 C   0  0  0  0  0  0  0  0  0  0  0  0
  140.5050   78.7650  223.4740 O   0  0  0  0  0  0  0  0  0  0  0  0
  141.4070   77.6130  221.6260 C   0  0  0  0  0  0  0  0  0  0  0  0
  140.2240   76.8130  221.7050 N   0  0  0  0  0  0  0  0  0  0  0  0
  140.0830   75.6830  220.8300 C   0  0  0  0  0  0  0  0  0  0  0  0
  140.9730   75.3790  219.9940 O   0  0  0  0  0  0  0  0  0  0  0  0
  138.8530   74.8890  220.9450 C   0  0  0  0  0  0  0  0  0  0  0  0
  138.9240   73.9460  222.0350 N   0  0  0  0  0  0  0  0  0  0  0  0
  139.8180   72.8460  221.9230 C   0  0  0  0  0  0  0  0  0  0  0  0
  140.5380   72.6930  220.8910 O   0  0  0  0  0  0  0  0  0  0  0  0
  139.8970   71.8810  223.0290 C   0  0  0  0  0  0  0  0  0  0  0  0
  139.4470   70.5880  222.8220 C   0  0  0  0  0  0  0  0  0  0  0  0
  139.5320   69.6870  223.8870 C   0  0  0  0  0  0  0  0  0  0  0  0
  140.0570   70.1120  225.1070 C   0  0  0  0  0  0  0  0  0  0  0  0
  140.1240   69.1910  226.1350 C   0  0  0  0  0  0  0  0  0  0  0  0
  140.6480   69.6030  227.3630 C   0  0  0  0  0  0  0  0  0  0  0  0
  140.7560   68.4690  228.7100 Cl  0  0  0  0  0  0  0  0  0  0  0  0
  141.0780   70.9110  227.4980 C   0  0  0  0  0  0  0  0  0  0  0  0
  141.0200   71.8380  226.4880 C   0  0  0  0  0  0  0  0  0  0  0  0
  140.4990   71.4210  225.2760 C   0  0  0  0  0  0  0  0  0  0  0  0
  140.3890   72.2310  224.2120 N   0  0  0  0  0  0  0  0  0  0  0  0
  142.6303   80.1079  224.7012 H   0  0  0  0  0  0  0  0  0  0  0  0
  143.5943   81.1342  223.5858 H   0  0  0  0  0  0  0  0  0  0  0  0
  141.8015   81.2461  223.5858 H   0  0  0  0  0  0  0  0  0  0  0  0
  143.3520   79.3840  221.9770 H   0  0  0  0  0  0  0  0  0  0  0  0
  141.4410   78.0901  220.6354 H   0  0  0  0  0  0  0  0  0  0  0  0
  142.2652   76.9453  221.7924 H   0  0  0  0  0  0  0  0  0  0  0  0
  139.4500   77.0320  222.3940 H   0  0  0  0  0  0  0  0  0  0  0  0
  138.0052   75.5686  221.1167 H   0  0  0  0  0  0  0  0  0  0  0  0
  138.7228   74.3228  220.0109 H   0  0  0  0  0  0  0  0  0  0  0  0
  138.3530   74.0210  222.9110 H   0  0  0  0  0  0  0  0  0  0  0  0
  139.0354   70.2796  221.8496 H   0  0  0  0  0  0  0  0  0  0  0  0
  139.1871   68.6498  223.7637 H   0  0  0  0  0  0  0  0  0  0  0  0
  139.7733   68.1585  225.9901 H   0  0  0  0  0  0  0  0  0  0  0  0
  141.4891   71.2252  228.4687 H   0  0  0  0  0  0  0  0  0  0  0  0
  141.3729   72.8693  226.6357 H   0  0  0  0  0  0  0  0  0  0  0  0
  1  2  1  0
  2  3  1  0
  3  4  2  0
  3  5  1  0
  5  6  1  0
  6  7  1  0
  7  8  2  0
  7  9  1  0
  9 10  1  0
 10 11  1  0
 11 12  2  0
 11 13  1  0
 13 14  2  0
 14 15  1  0
 15 16  2  0
 16 17  1  0
 17 18  2  0
 18 19  1  0
 18 20  1  0
 20 21  2  0
 21 22  1  0
 22 23  2  0
 23 13  1  0
 22 16  1  0
  1 24  1  0
  1 25  1  0
  1 26  1  0
  2 27  1  0
  5 28  1  0
  5 29  1  0
  6 30  1  0
  9 31  1  0
  9 32  1  0
 10 33  1  0
 14 34  1  0
 15 35  1  0
 17 36  1  0
 20 37  1  0
 21 38  1  0
M  END
>  <smiles>  (4) 
CNC(=O)CNC(=O)CNC(=O)c1ccc2cc(Cl)ccc2n1

>  <score_type>  (4) 
oracle

>  <origin>  (4) 
autodockgpu

>  <m_score__min__energy>  (4) 
-7.2199999999999998

>  <m_primary>  (4) 
energy

>  <rmsd>  (4) 
1.7099154782817614

>  <m_score__min__rmsd>  (4) 
1.7099154782817614

>  <meeko>  (4) 
{"free_energy": -7.21, "intermolecular_energy": -8.7, "internal_energy": -1.4, "cluster_size": 19, "cluster_id": 1, "rank_in_cluster": 2}

>  <energy>  (4) 
-6.93

>  <cluster_rmsd>  (4) 
0.57

>  <cluster>  (4) 
1

$$$$

     RDKit          3D

 38 39  0  0  0  0  0  0  0  0999 V2000
  144.1400   74.0990  220.4750 C   0  0  0  0  0  0  0  0  0  0  0  0
  142.8750   74.8160  220.4920 N   0  0  0  0  0  0  0  0  0  0  0  0
  142.7660   75.9810  219.7140 C   0  0  0  0  0  0  0  0  0  0  0  0
  143.6800   76.4560  219.0020 O   0  0  0  0  0  0  0  0  0  0  0  0
  141.4560   76.7160  219.7360 C   0  0  0  0  0  0  0  0  0  0  0  0
  140.3220   75.8460  219.7670 N   0  0  0  0  0  0  0  0  0  0  0  0
  139.8880   75.3030  221.0240 C   0  0  0  0  0  0  0  0  0  0  0  0
  140.4820   75.5730  222.0990 O   0  0  0  0  0  0  0  0  0  0  0  0
  138.7190   74.4150  221.0080 C   0  0  0  0  0  0  0  0  0  0  0  0
  138.7600   73.4570  222.0860 N   0  0  0  0  0  0  0  0  0  0  0  0
  139.8990   72.6130  222.2010 C   0  0  0  0  0  0  0  0  0  0  0  0
  140.8580   72.6960  221.3770 O   0  0  0  0  0  0  0  0  0  0  0  0
  139.9480   71.6340  223.2970 C   0  0  0  0  0  0  0  0  0  0  0  0
  139.4790   70.3510  223.0690 C   0  0  0  0  0  0  0  0  0  0  0  0
  139.5350   69.4370  224.1250 C   0  0  0  0  0  0  0  0  0  0  0  0
  140.0540   69.8390  225.3550 C   0  0  0  0  0  0  0  0  0  0  0  0
  140.0930   68.9050  226.3730 C   0  0  0  0  0  0  0  0  0  0  0  0
  140.6100   69.2940  227.6110 C   0  0  0  0  0  0  0  0  0  0  0  0
  140.6830   68.1430  228.9470 Cl  0  0  0  0  0  0  0  0  0  0  0  0
  141.0610   70.5930  227.7670 C   0  0  0  0  0  0  0  0  0  0  0  0
  141.0300   71.5320  226.7670 C   0  0  0  0  0  0  0  0  0  0  0  0
  140.5160   71.1380  225.5440 C   0  0  0  0  0  0  0  0  0  0  0  0
  140.4320   71.9620  224.4890 N   0  0  0  0  0  0  0  0  0  0  0  0
  144.4695   73.9122  221.5077 H   0  0  0  0  0  0  0  0  0  0  0  0
  144.0108   73.1398  219.9522 H   0  0  0  0  0  0  0  0  0  0  0  0
  144.8966   74.7026  219.9522 H   0  0  0  0  0  0  0  0  0  0  0  0
  142.0520   74.4930  221.0590 H   0  0  0  0  0  0  0  0  0  0  0  0
  141.4296   77.3566  220.6298 H   0  0  0  0  0  0  0  0  0  0  0  0
  141.3938   77.3007  218.8063 H   0  0  0  0  0  0  0  0  0  0  0  0
  139.7920   75.5930  218.8850 H   0  0  0  0  0  0  0  0  0  0  0  0
  137.8080   75.0236  221.1068 H   0  0  0  0  0  0  0  0  0  0  0  0
  138.7229   73.8612  220.0576 H   0  0  0  0  0  0  0  0  0  0  0  0
  137.9970   73.3420  222.7950 H   0  0  0  0  0  0  0  0  0  0  0  0
  139.0752   70.0605  222.0879 H   0  0  0  0  0  0  0  0  0  0  0  0
  139.1722   68.4078  223.9866 H   0  0  0  0  0  0  0  0  0  0  0  0
  139.7260   67.8806  226.2123 H   0  0  0  0  0  0  0  0  0  0  0  0
  141.4664   70.8888  228.7459 H   0  0  0  0  0  0  0  0  0  0  0  0
  141.3984   72.5555  226.9306 H   0  0  0  0  0  0  0  0  0  0  0  0
  1  2  1  0
  2  3  1  0
  3  4  2  0
  3  5  1  0
  5  6  1  0
  6  7  1  0
  7  8  2  0
  7  9  1  0
  9 10  1  0
 10 11  1  0
 11 12  2  0
 11 13  1  0
 13 14  2  0
 14 15  1  0
 15 16  2  0
 16 17  1  0
 17 18  2  0
 18 19  1  0
 18 20  1  0
 20 21  2  0
 21 22  1  0
 22 23  2  0
 23 13  1  0
 22 16  1  0
  1 24  1  0
  1 25  1  0
  1 26  1  0
  2 27  1  0
  5 28  1  0
  5 29  1  0
  6 30  1  0
  9 31  1  0
  9 32  1  0
 10 33  1  0
 14 34  1  0
 15 35  1  0
 17 36  1  0
 20 37  1  0
 21 38  1  0
M  END
>  <smiles>  (5) 
CNC(=O)CNC(=O)CNC(=O)c1ccc2cc(Cl)ccc2n1

>  <score_type>  (5) 
oracle

>  <origin>  (5) 
autodockgpu

>  <m_score__min__energy>  (5) 
-7.2199999999999998

>  <m_primary>  (5) 
energy

>  <rmsd>  (5) 
2.3601186851512534

>  <m_score__min__rmsd>  (5) 
2.3601186851512534

>  <meeko>  (5) 
{"free_energy": -6.33, "intermolecular_energy": -7.82, "internal_energy": -2.3, "cluster_size": 19, "cluster_id": 1, "rank_in_cluster": 11}

>  <energy>  (5) 
-6.78

>  <cluster_rmsd>  (5) 
1.25

>  <cluster>  (5) 
1

$$$$

     RDKit          3D

 38 39  0  0  0  0  0  0  0  0999 V2000
  136.9770   75.7270  222.3630 C   0  0  0  0  0  0  0  0  0  0  0  0
  138.3740   75.9420  222.0200 N   0  0  0  0  0  0  0  0  0  0  0  0
  138.9810   77.1390  222.4410 C   0  0  0  0  0  0  0  0  0  0  0  0
  138.4090   78.0410  223.0930 O   0  0  0  0  0  0  0  0  0  0  0  0
  140.4240   77.3540  222.0810 C   0  0  0  0  0  0  0  0  0  0  0  0
  141.1180   76.1400  221.7860 N   0  0  0  0  0  0  0  0  0  0  0  0
  140.8560   75.4660  220.5450 C   0  0  0  0  0  0  0  0  0  0  0  0
  140.0290   75.9170  219.7110 O   0  0  0  0  0  0  0  0  0  0  0  0
  141.5930   74.2220  220.2830 C   0  0  0  0  0  0  0  0  0  0  0  0
  141.5090   73.3060  221.3940 N   0  0  0  0  0  0  0  0  0  0  0  0
  140.2280   72.8250  221.7810 C   0  0  0  0  0  0  0  0  0  0  0  0
  139.1810   73.1910  221.1690 O   0  0  0  0  0  0  0  0  0  0  0  0
  140.1340   71.8900  222.9120 C   0  0  0  0  0  0  0  0  0  0  0  0
  139.5000   70.6740  222.7230 C   0  0  0  0  0  0  0  0  0  0  0  0
  139.4220   69.8010  223.8110 C   0  0  0  0  0  0  0  0  0  0  0  0
  139.9760   70.1760  225.0350 C   0  0  0  0  0  0  0  0  0  0  0  0
  139.8770   69.2850  226.0860 C   0  0  0  0  0  0  0  0  0  0  0  0
  140.4280   69.6480  227.3180 C   0  0  0  0  0  0  0  0  0  0  0  0
  140.3300   68.5490  228.6950 Cl  0  0  0  0  0  0  0  0  0  0  0  0
  141.0450   70.8800  227.4350 C   0  0  0  0  0  0  0  0  0  0  0  0
  141.1520   71.7770  226.4010 C   0  0  0  0  0  0  0  0  0  0  0  0
  140.6040   71.4090  225.1850 C   0  0  0  0  0  0  0  0  0  0  0  0
  140.6430   72.1960  224.1000 N   0  0  0  0  0  0  0  0  0  0  0  0
  136.8666   75.7100  223.4573 H   0  0  0  0  0  0  0  0  0  0  0  0
  136.3673   76.5419  221.9456 H   0  0  0  0  0  0  0  0  0  0  0  0
  136.6406   74.7665  221.9456 H   0  0  0  0  0  0  0  0  0  0  0  0
  138.9350   75.2420  221.4750 H   0  0  0  0  0  0  0  0  0  0  0  0
  140.4701   78.0067  221.1968 H   0  0  0  0  0  0  0  0  0  0  0  0
  140.9148   77.8067  222.9551 H   0  0  0  0  0  0  0  0  0  0  0  0
  141.8230   75.7250  222.4600 H   0  0  0  0  0  0  0  0  0  0  0  0
  141.1698   73.7386  219.3901 H   0  0  0  0  0  0  0  0  0  0  0  0
  142.6519   74.4775  220.1296 H   0  0  0  0  0  0  0  0  0  0  0  0
  142.3390   72.9690  221.9380 H   0  0  0  0  0  0  0  0  0  0  0  0
  139.0711   70.4036  221.7468 H   0  0  0  0  0  0  0  0  0  0  0  0
  138.9271   68.8246  223.7031 H   0  0  0  0  0  0  0  0  0  0  0  0
  139.3769   68.3139  225.9564 H   0  0  0  0  0  0  0  0  0  0  0  0
  141.4735   71.1565  228.4097 H   0  0  0  0  0  0  0  0  0  0  0  0
  141.6524   72.7475  226.5338 H   0  0  0  0  0  0  0  0  0  0  0  0
  1  2  1  0
  2  3  1  0
  3  4  2  0
  3  5  1  0
  5  6  1  0
  6  7  1  0
  7  8  2  0
  7  9  1  0
  9 10  1  0
 10 11  1  0
 11 12  2  0
 11 13  1  0
 13 14  2  0
 14 15  1  0
 15 16  2  0
 16 17  1  0
 17 18  2  0
 18 19  1  0
 18 20  1  0
 20 21  2  0
 21 22  1  0
 22 23  2  0
 23 13  1  0
 22 16  1  0
  1 24  1  0
  1 25  1  0
  1 26  1  0
  2 27  1  0
  5 28  1  0
  5 29  1  0
  6 30  1  0
  9 31  1  0
  9 32  1  0
 10 33  1  0
 14 34  1  0
 15 35  1  0
 17 36  1  0
 20 37  1  0
 21 38  1  0
M  END
>  <smiles>  (6) 
CNC(=O)CNC(=O)CNC(=O)c1ccc2cc(Cl)ccc2n1

>  <score_type>  (6) 
oracle

>  <origin>  (6) 
autodockgpu

>  <m_score__min__energy>  (6) 
-7.2199999999999998

>  <m_primary>  (6) 
energy

>  <rmsd>  (6) 
2.6475110715451753

>  <m_score__min__rmsd>  (6) 
2.6475110715451753

>  <meeko>  (6) 
{"free_energy": -5.73, "intermolecular_energy": -7.22, "internal_energy": -2.46, "cluster_size": 19, "cluster_id": 1, "rank_in_cluster": 19}

>  <energy>  (6) 
-6.7

>  <cluster_rmsd>  (6) 
1.26

>  <cluster>  (6) 
1

$$$$

     RDKit          3D

 38 39  0  0  0  0  0  0  0  0999 V2000
  139.9340   71.8830  228.6650 C   0  0  0  0  0  0  0  0  0  0  0  0
  140.1940   71.0170  227.5260 N   0  0  0  0  0  0  0  0  0  0  0  0
  141.2810   71.3320  226.6930 C   0  0  0  0  0  0  0  0  0  0  0  0
  142.0500   72.3060  226.8550 O   0  0  0  0  0  0  0  0  0  0  0  0
  141.5430   70.4320  225.5170 C   0  0  0  0  0  0  0  0  0  0  0  0
  140.8570   70.8410  224.3310 N   0  0  0  0  0  0  0  0  0  0  0  0
  139.4210   70.8480  224.3180 C   0  0  0  0  0  0  0  0  0  0  0  0
  138.7510   70.5010  225.3240 O   0  0  0  0  0  0  0  0  0  0  0  0
  138.7590   71.2750  223.0790 C   0  0  0  0  0  0  0  0  0  0  0  0
  139.1360   72.6160  222.7050 N   0  0  0  0  0  0  0  0  0  0  0  0
  140.3510   72.8050  221.9900 C   0  0  0  0  0  0  0  0  0  0  0  0
  141.0890   71.8210  221.6870 O   0  0  0  0  0  0  0  0  0  0  0  0
  140.7430   74.1680  221.6050 C   0  0  0  0  0  0  0  0  0  0  0  0
  141.6520   74.3370  220.5740 C   0  0  0  0  0  0  0  0  0  0  0  0
  142.0110   75.6420  220.2250 C   0  0  0  0  0  0  0  0  0  0  0  0
  141.4510   76.7170  220.9140 C   0  0  0  0  0  0  0  0  0  0  0  0
  141.8310   77.9910  220.5380 C   0  0  0  0  0  0  0  0  0  0  0  0
  141.2780   79.0780  221.2210 C   0  0  0  0  0  0  0  0  0  0  0  0
  141.7290   80.7260  220.7830 Cl  0  0  0  0  0  0  0  0  0  0  0  0
  140.3760   78.8340  222.2410 C   0  0  0  0  0  0  0  0  0  0  0  0
  139.9880   77.5750  222.6270 C   0  0  0  0  0  0  0  0  0  0  0  0
  140.5410   76.5060  221.9460 C   0  0  0  0  0  0  0  0  0  0  0  0
  140.2420   75.2290  222.2280 N   0  0  0  0  0  0  0  0  0  0  0  0
  140.1020   71.3234  229.5970 H   0  0  0  0  0  0  0  0  0  0  0  0
  140.6119   72.7486  228.6298 H   0  0  0  0  0  0  0  0  0  0  0  0
  138.8915   72.2321  228.6298 H   0  0  0  0  0  0  0  0  0  0  0  0
  139.6020   70.1770  227.3100 H   0  0  0  0  0  0  0  0  0  0  0  0
  142.6238   70.4296  225.3125 H   0  0  0  0  0  0  0  0  0  0  0  0
  141.1704   69.4314  225.7816 H   0  0  0  0  0  0  0  0  0  0  0  0
  141.3830   71.1410  223.4610 H   0  0  0  0  0  0  0  0  0  0  0  0
  139.0416   70.5867  222.2689 H   0  0  0  0  0  0  0  0  0  0  0  0
  137.6724   71.2602  223.2493 H   0  0  0  0  0  0  0  0  0  0  0  0
  138.5680   73.4680  222.9290 H   0  0  0  0  0  0  0  0  0  0  0  0
  142.0782   73.4712  220.0461 H   0  0  0  0  0  0  0  0  0  0  0  0
  142.7305   75.8197  219.4122 H   0  0  0  0  0  0  0  0  0  0  0  0
  142.5511   78.1461  219.7211 H   0  0  0  0  0  0  0  0  0  0  0  0
  139.9460   79.6961  222.7720 H   0  0  0  0  0  0  0  0  0  0  0  0
  139.2673   77.4229  223.4439 H   0  0  0  0  0  0  0  0  0  0  0  0
  1  2  1  0
  2  3  1  0
  3  4  2  0
  3  5  1  0
  5  6  1  0
  6  7  1  0
  7  8  2  0
  7  9  1  0
  9 10  1  0
 10 11  1  0
 11 12  2  0
 11 13  1  0
 13 14  2  0
 14 15  1  0
 15 16  2  0
 16 17  1  0
 17 18  2  0
 18 19  1  0
 18 20  1  0
 20 21  2  0
 21 22  1  0
 22 23  2  0
 23 13  1  0
 22 16  1  0
  1 24  1  0
  1 25  1  0
  1 26  1  0
  2 27  1  0
  5 28  1  0
  5 29  1  0
  6 30  1  0
  9 31  1  0
  9 32  1  0
 10 33  1  0
 14 34  1  0
 15 35  1  0
 17 36  1  0
 20 37  1  0
 21 38  1  0
M  END
>  <smiles>  (7) 
CNC(=O)CNC(=O)CNC(=O)c1ccc2cc(Cl)ccc2n1

>  <score_type>  (7) 
oracle

>  <origin>  (7) 
autodockgpu

>  <m_score__min__energy>  (7) 
-7.2199999999999998

>  <m_primary>  (7) 
energy

>  <rmsd>  (7) 
7.7976641362851495

>  <m_score__min__rmsd>  (7) 
7.7976641362851495

>  <meeko>  (7) 
{"free_energy": -5.65, "intermolecular_energy": -7.14, "internal_energy": -2.5, "cluster_size": 3, "cluster_id": 5, "rank_in_cluster": 2}

>  <energy>  (7) 
-6.69

>  <cluster_rmsd>  (7) 
1.44

>  <cluster>  (7) 
1

$$$$

     RDKit          3D

 38 39  0  0  0  0  0  0  0  0999 V2000
  143.7720   71.4550  219.9230 C   0  0  0  0  0  0  0  0  0  0  0  0
  143.1900   72.7880  219.9160 N   0  0  0  0  0  0  0  0  0  0  0  0
  144.0450   73.8830  220.1310 C   0  0  0  0  0  0  0  0  0  0  0  0
  145.2780   73.8010  220.3310 O   0  0  0  0  0  0  0  0  0  0  0  0
  143.4360   75.2570  220.1230 C   0  0  0  0  0  0  0  0  0  0  0  0
  142.2040   75.3320  220.8430 N   0  0  0  0  0  0  0  0  0  0  0  0
  140.9800   74.9830  220.1770 C   0  0  0  0  0  0  0  0  0  0  0  0
  140.9650   74.6130  218.9750 O   0  0  0  0  0  0  0  0  0  0  0  0
  139.7380   75.0740  220.9560 C   0  0  0  0  0  0  0  0  0  0  0  0
  139.7340   74.1550  222.0680 N   0  0  0  0  0  0  0  0  0  0  0  0
  140.0310   72.7860  221.8180 C   0  0  0  0  0  0  0  0  0  0  0  0
  140.2920   72.3790  220.6470 O   0  0  0  0  0  0  0  0  0  0  0  0
  140.0300   71.8430  222.9460 C   0  0  0  0  0  0  0  0  0  0  0  0
  139.5260   70.5680  222.7500 C   0  0  0  0  0  0  0  0  0  0  0  0
  139.5350   69.6880  223.8360 C   0  0  0  0  0  0  0  0  0  0  0  0
  140.0420   70.1150  225.0630 C   0  0  0  0  0  0  0  0  0  0  0  0
  140.0320   69.2140  226.1110 C   0  0  0  0  0  0  0  0  0  0  0  0
  140.5370   69.6280  227.3470 C   0  0  0  0  0  0  0  0  0  0  0  0
  140.5490   68.5200  228.7200 Cl  0  0  0  0  0  0  0  0  0  0  0  0
  141.0240   70.9170  227.4690 C   0  0  0  0  0  0  0  0  0  0  0  0
  141.0410   71.8230  226.4390 C   0  0  0  0  0  0  0  0  0  0  0  0
  140.5380   71.4050  225.2200 C   0  0  0  0  0  0  0  0  0  0  0  0
  140.5000   72.1960  224.1370 N   0  0  0  0  0  0  0  0  0  0  0  0
  143.9167   71.1236  220.9618 H   0  0  0  0  0  0  0  0  0  0  0  0
  143.0966   70.7573  219.4062 H   0  0  0  0  0  0  0  0  0  0  0  0
  144.7428   71.4761  219.4062 H   0  0  0  0  0  0  0  0  0  0  0  0
  142.1660   72.9550  219.7570 H   0  0  0  0  0  0  0  0  0  0  0  0
  144.1503   75.9584  220.5788 H   0  0  0  0  0  0  0  0  0  0  0  0
  143.2177   75.5112  219.0753 H   0  0  0  0  0  0  0  0  0  0  0  0
  142.1710   75.6380  221.8570 H   0  0  0  0  0  0  0  0  0  0  0  0
  139.6336   76.0991  221.3410 H   0  0  0  0  0  0  0  0  0  0  0  0
  138.8994   74.8128  220.2938 H   0  0  0  0  0  0  0  0  0  0  0  0
  139.5250   74.4330  223.0560 H   0  0  0  0  0  0  0  0  0  0  0  0
  139.1313   70.2578  221.7712 H   0  0  0  0  0  0  0  0  0  0  0  0
  139.1449   68.6657  223.7236 H   0  0  0  0  0  0  0  0  0  0  0  0
  139.6365   68.1965  225.9758 H   0  0  0  0  0  0  0  0  0  0  0  0
  141.4194   71.2329  228.4456 H   0  0  0  0  0  0  0  0  0  0  0  0
  141.4381   72.8395  226.5767 H   0  0  0  0  0  0  0  0  0  0  0  0
  1  2  1  0
  2  3  1  0
  3  4  2  0
  3  5  1  0
  5  6  1  0
  6  7  1  0
  7  8  2  0
  7  9  1  0
  9 10  1  0
 10 11  1  0
 11 12  2  0
 11 13  1  0
 13 14  2  0
 14 15  1  0
 15 16  2  0
 16 17  1  0
 17 18  2  0
 18 19  1  0
 18 20  1  0
 20 21  2  0
 21 22  1  0
 22 23  2  0
 23 13  1  0
 22 16  1  0
  1 24  1  0
  1 25  1  0
  1 26  1  0
  2 27  1  0
  5 28  1  0
  5 29  1  0
  6 30  1  0
  9 31  1  0
  9 32  1  0
 10 33  1  0
 14 34  1  0
 15 35  1  0
 17 36  1  0
 20 37  1  0
 21 38  1  0
M  END
>  <smiles>  (8) 
CNC(=O)CNC(=O)CNC(=O)c1ccc2cc(Cl)ccc2n1

>  <score_type>  (8) 
oracle

>  <origin>  (8) 
autodockgpu

>  <m_score__min__energy>  (8) 
-7.2199999999999998

>  <m_primary>  (8) 
energy

>  <rmsd>  (8) 
3.4215585186893716

>  <m_score__min__rmsd>  (8) 
3.4215585186893716

>  <meeko>  (8) 
{"free_energy": -6.49, "intermolecular_energy": -7.98, "internal_energy": -2.56, "cluster_size": 18, "cluster_id": 2, "rank_in_cluster": 10}

>  <energy>  (8) 
-6.65

>  <cluster_rmsd>  (8) 
1.98

>  <cluster>  (8) 
1

$$$$

     RDKit          3D

 38 39  0  0  0  0  0  0  0  0999 V2000
  144.0630   71.6530  220.4180 C   0  0  0  0  0  0  0  0  0  0  0  0
  143.3790   72.9190  220.2070 N   0  0  0  0  0  0  0  0  0  0  0  0
  144.1510   74.0940  220.2040 C   0  0  0  0  0  0  0  0  0  0  0  0
  145.3910   74.1370  220.3690 O   0  0  0  0  0  0  0  0  0  0  0  0
  143.4370   75.3980  219.9860 C   0  0  0  0  0  0  0  0  0  0  0  0
  142.2200   75.5050  220.7280 N   0  0  0  0  0  0  0  0  0  0  0  0
  141.0150   74.9430  220.1860 C   0  0  0  0  0  0  0  0  0  0  0  0
  141.0030   74.3580  219.0730 O   0  0  0  0  0  0  0  0  0  0  0  0
  139.7890   75.0760  220.9840 C   0  0  0  0  0  0  0  0  0  0  0  0
  139.7680   74.1530  222.0930 N   0  0  0  0  0  0  0  0  0  0  0  0
  140.0750   72.7870  221.8440 C   0  0  0  0  0  0  0  0  0  0  0  0
  140.3600   72.3840  220.6770 O   0  0  0  0  0  0  0  0  0  0  0  0
  140.0570   71.8400  222.9690 C   0  0  0  0  0  0  0  0  0  0  0  0
  139.5270   70.5760  222.7700 C   0  0  0  0  0  0  0  0  0  0  0  0
  139.5190   69.6930  223.8530 C   0  0  0  0  0  0  0  0  0  0  0  0
  140.0370   70.1050  225.0800 C   0  0  0  0  0  0  0  0  0  0  0  0
  140.0120   69.2010  226.1250 C   0  0  0  0  0  0  0  0  0  0  0  0
  140.5280   69.6000  227.3610 C   0  0  0  0  0  0  0  0  0  0  0  0
  140.5200   68.4870  228.7300 Cl  0  0  0  0  0  0  0  0  0  0  0  0
  141.0410   70.8780  227.4870 C   0  0  0  0  0  0  0  0  0  0  0  0
  141.0750   71.7880  226.4590 C   0  0  0  0  0  0  0  0  0  0  0  0
  140.5610   71.3840  225.2400 C   0  0  0  0  0  0  0  0  0  0  0  0
  140.5370   72.1790  224.1600 N   0  0  0  0  0  0  0  0  0  0  0  0
  144.1639   71.4662  221.4973 H   0  0  0  0  0  0  0  0  0  0  0  0
  143.4810   70.8407  219.9581 H   0  0  0  0  0  0  0  0  0  0  0  0
  145.0614   71.6946  219.9581 H   0  0  0  0  0  0  0  0  0  0  0  0
  142.3410   72.9810  220.0590 H   0  0  0  0  0  0  0  0  0  0  0  0
  144.1050   76.2173  220.2901 H   0  0  0  0  0  0  0  0  0  0  0  0
  143.1750   75.4526  218.9191 H   0  0  0  0  0  0  0  0  0  0  0  0
  142.1860   75.9890  221.6710 H   0  0  0  0  0  0  0  0  0  0  0  0
  139.7279   76.1027  221.3742 H   0  0  0  0  0  0  0  0  0  0  0  0
  138.9316   74.8482  220.3336 H   0  0  0  0  0  0  0  0  0  0  0  0
  139.5400   74.4270  223.0780 H   0  0  0  0  0  0  0  0  0  0  0  0
  139.1252   70.2767  221.7907 H   0  0  0  0  0  0  0  0  0  0  0  0
  139.1068   68.6797  223.7382 H   0  0  0  0  0  0  0  0  0  0  0  0
  139.5961   68.1920  225.9873 H   0  0  0  0  0  0  0  0  0  0  0  0
  141.4439   71.1824  228.4642 H   0  0  0  0  0  0  0  0  0  0  0  0
  141.4933   72.7957  226.5991 H   0  0  0  0  0  0  0  0  0  0  0  0
  1  2  1  0
  2  3  1  0
  3  4  2  0
  3  5  1  0
  5  6  1  0
  6  7  1  0
  7  8  2  0
  7  9  1  0
  9 10  1  0
 10 11  1  0
 11 12  2  0
 11 13  1  0
 13 14  2  0
 14 15  1  0
 15 16  2  0
 16 17  1  0
 17 18  2  0
 18 19  1  0
 18 20  1  0
 20 21  2  0
 21 22  1  0
 22 23  2  0
 23 13  1  0
 22 16  1  0
  1 24  1  0
  1 25  1  0
  1 26  1  0
  2 27  1  0
  5 28  1  0
  5 29  1  0
  6 30  1  0
  9 31  1  0
  9 32  1  0
 10 33  1  0
 14 34  1  0
 15 35  1  0
 17 36  1  0
 20 37  1  0
 21 38  1  0
M  END
>  <smiles>  (9) 
CNC(=O)CNC(=O)CNC(=O)c1ccc2cc(Cl)ccc2n1

>  <score_type>  (9) 
oracle

>  <origin>  (9) 
autodockgpu

>  <m_score__min__energy>  (9) 
-7.2199999999999998

>  <m_primary>  (9) 
energy

>  <rmsd>  (9) 
3.3571211398810026

>  <m_score__min__rmsd>  (9) 
3.3571211398810026

>  <meeko>  (9) 
{"free_energy": -6.58, "intermolecular_energy": -8.07, "internal_energy": -2.46, "cluster_size": 18, "cluster_id": 2, "rank_in_cluster": 5}

>  <energy>  (9) 
-6.63

>  <cluster_rmsd>  (9) 
1.32

>  <cluster>  (9) 
1

$$$$

     RDKit          3D

 38 39  0  0  0  0  0  0  0  0999 V2000
  141.7400   79.2820  223.5030 C   0  0  0  0  0  0  0  0  0  0  0  0
  141.6880   78.2910  222.4400 N   0  0  0  0  0  0  0  0  0  0  0  0
  141.4380   78.7400  221.1320 C   0  0  0  0  0  0  0  0  0  0  0  0
  141.2540   79.9340  220.8060 O   0  0  0  0  0  0  0  0  0  0  0  0
  141.3850   77.7090  220.0390 C   0  0  0  0  0  0  0  0  0  0  0  0
  140.2990   76.7900  220.1830 N   0  0  0  0  0  0  0  0  0  0  0  0
  140.4130   75.7120  221.1250 C   0  0  0  0  0  0  0  0  0  0  0  0
  141.4450   75.5550  221.8260 O   0  0  0  0  0  0  0  0  0  0  0  0
  139.2740   74.7920  221.2390 C   0  0  0  0  0  0  0  0  0  0  0  0
  139.4490   73.8550  222.3220 N   0  0  0  0  0  0  0  0  0  0  0  0
  139.5230   72.4690  222.0130 C   0  0  0  0  0  0  0  0  0  0  0  0
  139.4380   72.0610  220.8170 O   0  0  0  0  0  0  0  0  0  0  0  0
  139.7020   71.5070  223.1110 C   0  0  0  0  0  0  0  0  0  0  0  0
  139.3380   70.1860  222.9080 C   0  0  0  0  0  0  0  0  0  0  0  0
  139.5160   69.2890  223.9650 C   0  0  0  0  0  0  0  0  0  0  0  0
  140.0470   69.7440  225.1710 C   0  0  0  0  0  0  0  0  0  0  0  0
  140.2080   68.8260  226.1910 C   0  0  0  0  0  0  0  0  0  0  0  0
  140.7380   69.2680  227.4050 C   0  0  0  0  0  0  0  0  0  0  0  0
  140.9650   68.1380  228.7420 Cl  0  0  0  0  0  0  0  0  0  0  0  0
  141.0800   70.6020  227.5370 C   0  0  0  0  0  0  0  0  0  0  0  0
  140.9270   71.5270  226.5340 C   0  0  0  0  0  0  0  0  0  0  0  0
  140.4010   71.0800  225.3360 C   0  0  0  0  0  0  0  0  0  0  0  0
  140.2030   71.8850  224.2810 N   0  0  0  0  0  0  0  0  0  0  0  0
  141.7134   78.7748  224.4787 H   0  0  0  0  0  0  0  0  0  0  0  0
  142.6699   79.8633  223.4172 H   0  0  0  0  0  0  0  0  0  0  0  0
  140.8761   79.9575  223.4172 H   0  0  0  0  0  0  0  0  0  0  0  0
  141.8290   77.2660  222.6180 H   0  0  0  0  0  0  0  0  0  0  0  0
  141.2788   78.2272  219.0746 H   0  0  0  0  0  0  0  0  0  0  0  0
  142.3160   77.1258  220.0947 H   0  0  0  0  0  0  0  0  0  0  0  0
  139.4110   76.8860  219.6120 H   0  0  0  0  0  0  0  0  0  0  0  0
  138.3601   75.3772  221.4186 H   0  0  0  0  0  0  0  0  0  0  0  0
  139.2000   74.2214  220.3015 H   0  0  0  0  0  0  0  0  0  0  0  0
  139.5250   74.1330  223.3290 H   0  0  0  0  0  0  0  0  0  0  0  0
  138.9221   69.8535  221.9455 H   0  0  0  0  0  0  0  0  0  0  0  0
  139.2390   68.2311  223.8461 H   0  0  0  0  0  0  0  0  0  0  0  0
  139.9255   67.7723  226.0501 H   0  0  0  0  0  0  0  0  0  0  0  0
  141.4970   70.9398  228.4972 H   0  0  0  0  0  0  0  0  0  0  0  0
  141.2111   72.5799  226.6775 H   0  0  0  0  0  0  0  0  0  0  0  0
  1  2  1  0
  2  3  1  0
  3  4  2  0
  3  5  1  0
  5  6  1  0
  6  7  1  0
  7  8  2  0
  7  9  1  0
  9 10  1  0
 10 11  1  0
 11 12  2  0
 11 13  1  0
 13 14  2  0
 14 15  1  0
 15 16  2  0
 16 17  1  0
 17 18  2  0
 18 19  1  0
 18 20  1  0
 20 21  2  0
 21 22  1  0
 22 23  2  0
 23 13  1  0
 22 16  1  0
  1 24  1  0
  1 25  1  0
  1 26  1  0
  2 27  1  0
  5 28  1  0
  5 29  1  0
  6 30  1  0
  9 31  1  0
  9 32  1  0
 10 33  1  0
 14 34  1  0
 15 35  1  0
 17 36  1  0
 20 37  1  0
 21 38  1  0
M  END
>  <smiles>  (10) 
CNC(=O)CNC(=O)CNC(=O)c1ccc2cc(Cl)ccc2n1

>  <score_type>  (10) 
oracle

>  <origin>  (10) 
autodockgpu

>  <m_score__min__energy>  (10) 
-7.2199999999999998

>  <m_primary>  (10) 
energy

>  <rmsd>  (10) 
1.3773372507963533

>  <m_score__min__rmsd>  (10) 
1.3773372507963533

>  <meeko>  (10) 
{"free_energy": -6.7, "intermolecular_energy": -8.19, "internal_energy": -1.9, "cluster_size": 19, "cluster_id": 1, "rank_in_cluster": 6}

>  <energy>  (10) 
-6.48

>  <cluster_rmsd>  (10) 
1.38

>  <cluster>  (10) 
1

$$$$

     RDKit          3D

 38 39  0  0  0  0  0  0  0  0999 V2000
  144.0230   71.6470  220.2780 C   0  0  0  0  0  0  0  0  0  0  0  0
  143.3530   72.9270  220.1070 N   0  0  0  0  0  0  0  0  0  0  0  0
  144.1340   74.0940  220.1730 C   0  0  0  0  0  0  0  0  0  0  0  0
  145.3690   74.1200  220.3700 O   0  0  0  0  0  0  0  0  0  0  0  0
  143.4340   75.4120  219.9960 C   0  0  0  0  0  0  0  0  0  0  0  0
  142.2130   75.5070  220.7340 N   0  0  0  0  0  0  0  0  0  0  0  0
  141.0050   74.9820  220.1620 C   0  0  0  0  0  0  0  0  0  0  0  0
  140.9940   74.4420  219.0260 O   0  0  0  0  0  0  0  0  0  0  0  0
  139.7750   75.1000  220.9550 C   0  0  0  0  0  0  0  0  0  0  0  0
  139.7620   74.1760  222.0630 N   0  0  0  0  0  0  0  0  0  0  0  0
  140.0760   72.8110  221.8130 C   0  0  0  0  0  0  0  0  0  0  0  0
  140.3610   72.4120  220.6450 O   0  0  0  0  0  0  0  0  0  0  0  0
  140.0650   71.8640  222.9360 C   0  0  0  0  0  0  0  0  0  0  0  0
  139.5470   70.5950  222.7360 C   0  0  0  0  0  0  0  0  0  0  0  0
  139.5470   69.7100  223.8180 C   0  0  0  0  0  0  0  0  0  0  0  0
  140.0600   70.1260  225.0460 C   0  0  0  0  0  0  0  0  0  0  0  0
  140.0410   69.2210  226.0910 C   0  0  0  0  0  0  0  0  0  0  0  0
  140.5520   69.6240  227.3270 C   0  0  0  0  0  0  0  0  0  0  0  0
  140.5530   68.5100  228.6960 Cl  0  0  0  0  0  0  0  0  0  0  0  0
  141.0530   70.9070  227.4550 C   0  0  0  0  0  0  0  0  0  0  0  0
  141.0790   71.8170  226.4280 C   0  0  0  0  0  0  0  0  0  0  0  0
  140.5710   71.4100  225.2080 C   0  0  0  0  0  0  0  0  0  0  0  0
  140.5410   72.2060  224.1280 N   0  0  0  0  0  0  0  0  0  0  0  0
  144.1353   71.4324  221.3510 H   0  0  0  0  0  0  0  0  0  0  0  0
  143.4244   70.8539  219.8061 H   0  0  0  0  0  0  0  0  0  0  0  0
  145.0159   71.6869  219.8061 H   0  0  0  0  0  0  0  0  0  0  0  0
  142.3200   73.0030  219.9380 H   0  0  0  0  0  0  0  0  0  0  0  0
  144.1084   76.2135  220.3319 H   0  0  0  0  0  0  0  0  0  0  0  0
  143.1788   75.5050  218.9301 H   0  0  0  0  0  0  0  0  0  0  0  0
  142.1780   75.9530  221.6940 H   0  0  0  0  0  0  0  0  0  0  0  0
  139.7000   76.1256  221.3456 H   0  0  0  0  0  0  0  0  0  0  0  0
  138.9225   74.8629  220.3016 H   0  0  0  0  0  0  0  0  0  0  0  0
  139.5340   74.4480  223.0490 H   0  0  0  0  0  0  0  0  0  0  0  0
  139.1481   70.2931  221.7563 H   0  0  0  0  0  0  0  0  0  0  0  0
  139.1452   68.6927  223.7015 H   0  0  0  0  0  0  0  0  0  0  0  0
  139.6336   68.2087  225.9526 H   0  0  0  0  0  0  0  0  0  0  0  0
  141.4521   71.2145  228.4328 H   0  0  0  0  0  0  0  0  0  0  0  0
  141.4872   72.8286  226.5695 H   0  0  0  0  0  0  0  0  0  0  0  0
  1  2  1  0
  2  3  1  0
  3  4  2  0
  3  5  1  0
  5  6  1  0
  6  7  1  0
  7  8  2  0
  7  9  1  0
  9 10  1  0
 10 11  1  0
 11 12  2  0
 11 13  1  0
 13 14  2  0
 14 15  1  0
 15 16  2  0
 16 17  1  0
 17 18  2  0
 18 19  1  0
 18 20  1  0
 20 21  2  0
 21 22  1  0
 22 23  2  0
 23 13  1  0
 22 16  1  0
  1 24  1  0
  1 25  1  0
  1 26  1  0
  2 27  1  0
  5 28  1  0
  5 29  1  0
  6 30  1  0
  9 31  1  0
  9 32  1  0
 10 33  1  0
 14 34  1  0
 15 35  1  0
 17 36  1  0
 20 37  1  0
 21 38  1  0
M  END
>  <smiles>  (11) 
CNC(=O)CNC(=O)CNC(=O)c1ccc2cc(Cl)ccc2n1

>  <score_type>  (11) 
oracle

>  <origin>  (11) 
autodockgpu

>  <m_score__min__energy>  (11) 
-7.2199999999999998

>  <m_primary>  (11) 
energy

>  <rmsd>  (11) 
3.3693518129166455

>  <m_score__min__rmsd>  (11) 
3.3693518129166455

>  <meeko>  (11) 
{"free_energy": -6.57, "intermolecular_energy": -8.06, "internal_energy": -2.49, "cluster_size": 18, "cluster_id": 2, "rank_in_cluster": 7}

>  <energy>  (11) 
-6.33

>  <cluster_rmsd>  (11) 
1.93

>  <cluster>  (11) 
1

$$$$

     RDKit          3D

 38 39  0  0  0  0  0  0  0  0999 V2000
  146.6440   73.4770  221.2390 C   0  0  0  0  0  0  0  0  0  0  0  0
  145.6700   74.4060  220.6890 N   0  0  0  0  0  0  0  0  0  0  0  0
  144.3550   73.9480  220.4970 C   0  0  0  0  0  0  0  0  0  0  0  0
  143.9520   72.7940  220.7650 O   0  0  0  0  0  0  0  0  0  0  0  0
  143.3550   74.9150  219.9280 C   0  0  0  0  0  0  0  0  0  0  0  0
  142.0000   74.5480  220.1960 N   0  0  0  0  0  0  0  0  0  0  0  0
  141.1040   75.5260  220.7470 C   0  0  0  0  0  0  0  0  0  0  0  0
  141.4820   76.6980  221.0010 O   0  0  0  0  0  0  0  0  0  0  0  0
  139.7210   75.1050  221.0060 C   0  0  0  0  0  0  0  0  0  0  0  0
  139.6410   74.1820  222.1120 N   0  0  0  0  0  0  0  0  0  0  0  0
  140.0740   72.8420  221.9110 C   0  0  0  0  0  0  0  0  0  0  0  0
  140.5210   72.4630  220.7870 O   0  0  0  0  0  0  0  0  0  0  0  0
  139.9960   71.8950  223.0320 C   0  0  0  0  0  0  0  0  0  0  0  0
  139.3100   70.7050  222.8560 C   0  0  0  0  0  0  0  0  0  0  0  0
  139.2480   69.8200  223.9360 C   0  0  0  0  0  0  0  0  0  0  0  0
  139.8690   70.1570  225.1380 C   0  0  0  0  0  0  0  0  0  0  0  0
  139.7840   69.2550  226.1810 C   0  0  0  0  0  0  0  0  0  0  0  0
  140.4020   69.5790  227.3910 C   0  0  0  0  0  0  0  0  0  0  0  0
  140.3260   68.4640  228.7570 Cl  0  0  0  0  0  0  0  0  0  0  0  0
  141.0700   70.7860  227.4960 C   0  0  0  0  0  0  0  0  0  0  0  0
  141.1630   71.6930  226.4700 C   0  0  0  0  0  0  0  0  0  0  0  0
  140.5490   71.3630  225.2760 C   0  0  0  0  0  0  0  0  0  0  0  0
  140.5690   72.1650  224.2000 N   0  0  0  0  0  0  0  0  0  0  0  0
  146.6057   73.5135  222.3377 H   0  0  0  0  0  0  0  0  0  0  0  0
  146.4117   72.4574  220.8977 H   0  0  0  0  0  0  0  0  0  0  0  0
  147.6514   73.7573  220.8977 H   0  0  0  0  0  0  0  0  0  0  0  0
  145.9170   75.3950  220.4340 H   0  0  0  0  0  0  0  0  0  0  0  0
  143.5411   75.9074  220.3645 H   0  0  0  0  0  0  0  0  0  0  0  0
  143.4838   74.9128  218.8356 H   0  0  0  0  0  0  0  0  0  0  0  0
  141.6390   73.5710  219.9970 H   0  0  0  0  0  0  0  0  0  0  0  0
  139.1159   75.9935  221.2391 H   0  0  0  0  0  0  0  0  0  0  0  0
  139.3442   74.5954  220.1069 H   0  0  0  0  0  0  0  0  0  0  0  0
  139.2800   74.4370  223.0620 H   0  0  0  0  0  0  0  0  0  0  0  0
  138.8291   70.4639  221.8965 H   0  0  0  0  0  0  0  0  0  0  0  0
  138.7128   68.8639  223.8383 H   0  0  0  0  0  0  0  0  0  0  0  0
  139.2428   68.3048  226.0615 H   0  0  0  0  0  0  0  0  0  0  0  0
  141.5526   71.0320  228.4534 H   0  0  0  0  0  0  0  0  0  0  0  0
  141.7036   72.6431  226.5926 H   0  0  0  0  0  0  0  0  0  0  0  0
  1  2  1  0
  2  3  1  0
  3  4  2  0
  3  5  1  0
  5  6  1  0
  6  7  1  0
  7  8  2  0
  7  9  1  0
  9 10  1  0
 10 11  1  0
 11 12  2  0
 11 13  1  0
 13 14  2  0
 14 15  1  0
 15 16  2  0
 16 17  1  0
 17 18  2  0
 18 19  1  0
 18 20  1  0
 20 21  2  0
 21 22  1  0
 22 23  2  0
 23 13  1  0
 22 16  1  0
  1 24  1  0
  1 25  1  0
  1 26  1  0
  2 27  1  0
  5 28  1  0
  5 29  1  0
  6 30  1  0
  9 31  1  0
  9 32  1  0
 10 33  1  0
 14 34  1  0
 15 35  1  0
 17 36  1  0
 20 37  1  0
 21 38  1  0
M  END
>  <smiles>  (12) 
CNC(=O)CNC(=O)CNC(=O)c1ccc2cc(Cl)ccc2n1

>  <score_type>  (12) 
oracle

>  <origin>  (12) 
autodockgpu

>  <m_score__min__energy>  (12) 
-7.2199999999999998

>  <m_primary>  (12) 
energy

>  <rmsd>  (12) 
3.236526027291508

>  <m_score__min__rmsd>  (12) 
3.236526027291508

>  <meeko>  (12) 
{"free_energy": -6.69, "intermolecular_energy": -8.18, "internal_energy": -1.96, "cluster_size": 18, "cluster_id": 2, "rank_in_cluster": 3}

>  <energy>  (12) 
-6.33

>  <cluster_rmsd>  (12) 
1.91

>  <cluster>  (12) 
1

$$$$

     RDKit          3D

 38 39  0  0  0  0  0  0  0  0999 V2000
  146.6130   73.3760  221.2760 C   0  0  0  0  0  0  0  0  0  0  0  0
  145.5810   74.2210  220.6950 N   0  0  0  0  0  0  0  0  0  0  0  0
  144.2550   73.7560  220.7210 C   0  0  0  0  0  0  0  0  0  0  0  0
  143.8880   72.6630  221.2090 O   0  0  0  0  0  0  0  0  0  0  0  0
  143.1950   74.6340  220.1180 C   0  0  0  0  0  0  0  0  0  0  0  0
  141.8860   74.3730  220.6320 N   0  0  0  0  0  0  0  0  0  0  0  0
  140.8610   75.3660  220.4790 C   0  0  0  0  0  0  0  0  0  0  0  0
  141.0850   76.4630  219.9050 O   0  0  0  0  0  0  0  0  0  0  0  0
  139.5320   75.0550  221.0210 C   0  0  0  0  0  0  0  0  0  0  0  0
  139.6080   74.1350  222.1300 N   0  0  0  0  0  0  0  0  0  0  0  0
  139.7780   72.7510  221.8530 C   0  0  0  0  0  0  0  0  0  0  0  0
  139.8590   72.3290  220.6600 O   0  0  0  0  0  0  0  0  0  0  0  0
  139.8560   71.8070  222.9770 C   0  0  0  0  0  0  0  0  0  0  0  0
  139.3980   70.5130  222.7970 C   0  0  0  0  0  0  0  0  0  0  0  0
  139.4820   69.6330  223.8800 C   0  0  0  0  0  0  0  0  0  0  0  0
  140.0170   70.0780  225.0880 C   0  0  0  0  0  0  0  0  0  0  0  0
  140.0830   69.1770  226.1340 C   0  0  0  0  0  0  0  0  0  0  0  0
  140.6160   69.6100  227.3500 C   0  0  0  0  0  0  0  0  0  0  0  0
  140.7240   68.5020  228.7190 Cl  0  0  0  0  0  0  0  0  0  0  0  0
  141.0540   70.9170  227.4580 C   0  0  0  0  0  0  0  0  0  0  0  0
  140.9960   71.8250  226.4300 C   0  0  0  0  0  0  0  0  0  0  0  0
  140.4660   71.3870  225.2290 C   0  0  0  0  0  0  0  0  0  0  0  0
  140.3560   72.1770  224.1510 N   0  0  0  0  0  0  0  0  0  0  0  0
  146.5527   73.4254  222.3732 H   0  0  0  0  0  0  0  0  0  0  0  0
  146.4643   72.3369  220.9470 H   0  0  0  0  0  0  0  0  0  0  0  0
  147.6023   73.7268  220.9470 H   0  0  0  0  0  0  0  0  0  0  0  0
  145.7940   75.1530  220.2630 H   0  0  0  0  0  0  0  0  0  0  0  0
  143.4498   75.6834  220.3275 H   0  0  0  0  0  0  0  0  0  0  0  0
  143.1702   74.4216  219.0390 H   0  0  0  0  0  0  0  0  0  0  0  0
  141.6540   73.4620  221.1210 H   0  0  0  0  0  0  0  0  0  0  0  0
  139.0599   75.9876  221.3636 H   0  0  0  0  0  0  0  0  0  0  0  0
  138.9396   74.5819  220.2240 H   0  0  0  0  0  0  0  0  0  0  0  0
  139.5460   74.4250  223.1350 H   0  0  0  0  0  0  0  0  0  0  0  0
  138.9812   70.1876  221.8324 H   0  0  0  0  0  0  0  0  0  0  0  0
  139.1283   68.5963  223.7797 H   0  0  0  0  0  0  0  0  0  0  0  0
  139.7245   68.1443  226.0117 H   0  0  0  0  0  0  0  0  0  0  0  0
  141.4719   71.2474  228.4204 H   0  0  0  0  0  0  0  0  0  0  0  0
  141.3556   72.8570  226.5556 H   0  0  0  0  0  0  0  0  0  0  0  0
  1  2  1  0
  2  3  1  0
  3  4  2  0
  3  5  1  0
  5  6  1  0
  6  7  1  0
  7  8  2  0
  7  9  1  0
  9 10  1  0
 10 11  1  0
 11 12  2  0
 11 13  1  0
 13 14  2  0
 14 15  1  0
 15 16  2  0
 16 17  1  0
 17 18  2  0
 18 19  1  0
 18 20  1  0
 20 21  2  0
 21 22  1  0
 22 23  2  0
 23 13  1  0
 22 16  1  0
  1 24  1  0
  1 25  1  0
  1 26  1  0
  2 27  1  0
  5 28  1  0
  5 29  1  0
  6 30  1  0
  9 31  1  0
  9 32  1  0
 10 33  1  0
 14 34  1  0
 15 35  1  0
 17 36  1  0
 20 37  1  0
 21 38  1  0
M  END
>  <smiles>  (13) 
CNC(=O)CNC(=O)CNC(=O)c1ccc2cc(Cl)ccc2n1

>  <score_type>  (13) 
oracle

>  <origin>  (13) 
autodockgpu

>  <m_score__min__energy>  (13) 
-7.2199999999999998

>  <m_primary>  (13) 
energy

>  <rmsd>  (13) 
3.2270503411440985

>  <m_score__min__rmsd>  (13) 
3.2270503411440985

>  <meeko>  (13) 
{"free_energy": -6.59, "intermolecular_energy": -8.08, "internal_energy": -2.19, "cluster_size": 18, "cluster_id": 2, "rank_in_cluster": 4}

>  <energy>  (13) 
-6.23

>  <cluster_rmsd>  (13) 
1.9

>  <cluster>  (13) 
1

$$$$

     RDKit          3D

 38 39  0  0  0  0  0  0  0  0999 V2000
  146.1160   73.3910  221.7190 C   0  0  0  0  0  0  0  0  0  0  0  0
  145.1270   73.7820  220.7270 N   0  0  0  0  0  0  0  0  0  0  0  0
  145.3110   73.3450  219.4040 C   0  0  0  0  0  0  0  0  0  0  0  0
  146.2660   72.6400  219.0080 O   0  0  0  0  0  0  0  0  0  0  0  0
  144.2850   73.7540  218.3840 C   0  0  0  0  0  0  0  0  0  0  0  0
  142.9590   73.3410  218.7230 N   0  0  0  0  0  0  0  0  0  0  0  0
  142.1500   74.1900  219.5520 C   0  0  0  0  0  0  0  0  0  0  0  0
  142.5800   75.2880  219.9900 O   0  0  0  0  0  0  0  0  0  0  0  0
  140.7940   73.7270  219.8730 C   0  0  0  0  0  0  0  0  0  0  0  0
  140.8040   72.7110  220.8970 N   0  0  0  0  0  0  0  0  0  0  0  0
  140.1510   72.9850  222.1310 C   0  0  0  0  0  0  0  0  0  0  0  0
  139.5740   74.0950  222.3310 O   0  0  0  0  0  0  0  0  0  0  0  0
  140.1560   71.9540  223.1790 C   0  0  0  0  0  0  0  0  0  0  0  0
  139.6930   70.6860  222.8720 C   0  0  0  0  0  0  0  0  0  0  0  0
  139.7060   69.7220  223.8840 C   0  0  0  0  0  0  0  0  0  0  0  0
  140.1770   70.0620  225.1520 C   0  0  0  0  0  0  0  0  0  0  0  0
  140.1740   69.0810  226.1250 C   0  0  0  0  0  0  0  0  0  0  0  0
  140.6430   69.4070  227.3990 C   0  0  0  0  0  0  0  0  0  0  0  0
  140.6610   68.1930  228.6800 Cl  0  0  0  0  0  0  0  0  0  0  0  0
  141.0900   70.6950  227.6350 C   0  0  0  0  0  0  0  0  0  0  0  0
  141.1000   71.6820  226.6800 C   0  0  0  0  0  0  0  0  0  0  0  0
  140.6340   71.3490  225.4210 C   0  0  0  0  0  0  0  0  0  0  0  0
  140.5930   72.2230  224.4040 N   0  0  0  0  0  0  0  0  0  0  0  0
  145.7075   73.5525  222.7275 H   0  0  0  0  0  0  0  0  0  0  0  0
  146.3641   72.3271  221.5899 H   0  0  0  0  0  0  0  0  0  0  0  0
  147.0245   73.9976  221.5899 H   0  0  0  0  0  0  0  0  0  0  0  0
  144.2920   74.3720  220.9660 H   0  0  0  0  0  0  0  0  0  0  0  0
  144.2979   74.8503  218.2952 H   0  0  0  0  0  0  0  0  0  0  0  0
  144.5496   73.2600  217.4375 H   0  0  0  0  0  0  0  0  0  0  0  0
  142.5570   72.4250  218.3750 H   0  0  0  0  0  0  0  0  0  0  0  0
  140.1997   74.5827  220.2260 H   0  0  0  0  0  0  0  0  0  0  0  0
  140.3567   73.2911  218.9626 H   0  0  0  0  0  0  0  0  0  0  0  0
  141.2650   71.7760  220.7890 H   0  0  0  0  0  0  0  0  0  0  0  0
  139.3264   70.4447  221.8633 H   0  0  0  0  0  0  0  0  0  0  0  0
  139.3472   68.7020  223.6818 H   0  0  0  0  0  0  0  0  0  0  0  0
  139.8107   68.0671  225.9012 H   0  0  0  0  0  0  0  0  0  0  0  0
  141.4572   70.9418  228.6421 H   0  0  0  0  0  0  0  0  0  0  0  0
  141.4635   72.6951  226.9069 H   0  0  0  0  0  0  0  0  0  0  0  0
  1  2  1  0
  2  3  1  0
  3  4  2  0
  3  5  1  0
  5  6  1  0
  6  7  1  0
  7  8  2  0
  7  9  1  0
  9 10  1  0
 10 11  1  0
 11 12  2  0
 11 13  1  0
 13 14  2  0
 14 15  1  0
 15 16  2  0
 16 17  1  0
 17 18  2  0
 18 19  1  0
 18 20  1  0
 20 21  2  0
 21 22  1  0
 22 23  2  0
 23 13  1  0
 22 16  1  0
  1 24  1  0
  1 25  1  0
  1 26  1  0
  2 27  1  0
  5 28  1  0
  5 29  1  0
  6 30  1  0
  9 31  1  0
  9 32  1  0
 10 33  1  0
 14 34  1  0
 15 35  1  0
 17 36  1  0
 20 37  1  0
 21 38  1  0
M  END
>  <smiles>  (14) 
CNC(=O)CNC(=O)CNC(=O)c1ccc2cc(Cl)ccc2n1

>  <score_type>  (14) 
oracle

>  <origin>  (14) 
autodockgpu

>  <m_score__min__energy>  (14) 
-7.2199999999999998

>  <m_primary>  (14) 
energy

>  <rmsd>  (14) 
3.685928256383552

>  <m_score__min__rmsd>  (14) 
3.685928256383552

>  <meeko>  (14) 
{"free_energy": -6.83, "intermolecular_energy": -8.32, "internal_energy": -1.56, "cluster_size": 18, "cluster_id": 2, "rank_in_cluster": 1}

>  <energy>  (14) 
-6.21

>  <cluster_rmsd>  (14) 
1.9

>  <cluster>  (14) 
1

$$$$

     RDKit          3D

 38 39  0  0  0  0  0  0  0  0999 V2000
  146.2140   73.3780  221.5070 C   0  0  0  0  0  0  0  0  0  0  0  0
  145.1930   74.0020  220.6790 N   0  0  0  0  0  0  0  0  0  0  0  0
  145.1250   73.6320  219.3250 C   0  0  0  0  0  0  0  0  0  0  0  0
  145.8790   72.8020  218.7690 O   0  0  0  0  0  0  0  0  0  0  0  0
  144.0670   74.2810  218.4770 C   0  0  0  0  0  0  0  0  0  0  0  0
  142.8030   73.6180  218.5460 N   0  0  0  0  0  0  0  0  0  0  0  0
  142.0470   73.6750  219.7650 C   0  0  0  0  0  0  0  0  0  0  0  0
  142.4690   74.2930  220.7760 O   0  0  0  0  0  0  0  0  0  0  0  0
  140.7530   72.9790  219.7910 C   0  0  0  0  0  0  0  0  0  0  0  0
  140.6710   72.0420  220.8850 N   0  0  0  0  0  0  0  0  0  0  0  0
  140.3050   72.5290  222.1700 C   0  0  0  0  0  0  0  0  0  0  0  0
  140.0570   73.7580  222.3550 O   0  0  0  0  0  0  0  0  0  0  0  0
  140.2180   71.5800  223.2890 C   0  0  0  0  0  0  0  0  0  0  0  0
  139.6310   70.3440  223.0740 C   0  0  0  0  0  0  0  0  0  0  0  0
  139.5590   69.4580  224.1530 C   0  0  0  0  0  0  0  0  0  0  0  0
  140.0710   69.8410  225.3920 C   0  0  0  0  0  0  0  0  0  0  0  0
  139.9800   68.9360  226.4330 C   0  0  0  0  0  0  0  0  0  0  0  0
  140.4890   69.3050  227.6800 C   0  0  0  0  0  0  0  0  0  0  0  0
  140.3990   68.1900  229.0440 Cl  0  0  0  0  0  0  0  0  0  0  0  0
  141.0600   70.5570  227.8220 C   0  0  0  0  0  0  0  0  0  0  0  0
  141.1590   71.4670  226.8000 C   0  0  0  0  0  0  0  0  0  0  0  0
  140.6520   71.0920  225.5680 C   0  0  0  0  0  0  0  0  0  0  0  0
  140.6880   71.8920  224.4910 N   0  0  0  0  0  0  0  0  0  0  0  0
  145.9677   73.5285  222.5685 H   0  0  0  0  0  0  0  0  0  0  0  0
  146.2547   72.3005  221.2892 H   0  0  0  0  0  0  0  0  0  0  0  0
  147.1914   73.8332  221.2892 H   0  0  0  0  0  0  0  0  0  0  0  0
  144.5160   74.7090  221.0580 H   0  0  0  0  0  0  0  0  0  0  0  0
  143.9358   75.3192  218.8160 H   0  0  0  0  0  0  0  0  0  0  0  0
  144.4074   74.2264  217.4324 H   0  0  0  0  0  0  0  0  0  0  0  0
  142.4090   73.0860  217.7180 H   0  0  0  0  0  0  0  0  0  0  0  0
  139.9503   73.7234  219.8987 H   0  0  0  0  0  0  0  0  0  0  0  0
  140.6476   72.4175  218.8510 H   0  0  0  0  0  0  0  0  0  0  0  0
  140.8650   71.0160  220.7920 H   0  0  0  0  0  0  0  0  0  0  0  0
  139.2341   70.0683  222.0858 H   0  0  0  0  0  0  0  0  0  0  0  0
  139.1017   68.4657  224.0254 H   0  0  0  0  0  0  0  0  0  0  0  0
  139.5179   67.9492  226.2828 H   0  0  0  0  0  0  0  0  0  0  0  0
  141.4565   70.8385  228.8087 H   0  0  0  0  0  0  0  0  0  0  0  0
  141.6218   72.4531  226.9533 H   0  0  0  0  0  0  0  0  0  0  0  0
  1  2  1  0
  2  3  1  0
  3  4  2  0
  3  5  1  0
  5  6  1  0
  6  7  1  0
  7  8  2  0
  7  9  1  0
  9 10  1  0
 10 11  1  0
 11 12  2  0
 11 13  1  0
 13 14  2  0
 14 15  1  0
 15 16  2  0
 16 17  1  0
 17 18  2  0
 18 19  1  0
 18 20  1  0
 20 21  2  0
 21 22  1  0
 22 23  2  0
 23 13  1  0
 22 16  1  0
  1 24  1  0
  1 25  1  0
  1 26  1  0
  2 27  1  0
  5 28  1  0
  5 29  1  0
  6 30  1  0
  9 31  1  0
  9 32  1  0
 10 33  1  0
 14 34  1  0
 15 35  1  0
 17 36  1  0
 20 37  1  0
 21 38  1  0
M  END
>  <smiles>  (15) 
CNC(=O)CNC(=O)CNC(=O)c1ccc2cc(Cl)ccc2n1

>  <score_type>  (15) 
oracle

>  <origin>  (15) 
autodockgpu

>  <m_score__min__energy>  (15) 
-7.2199999999999998

>  <m_primary>  (15) 
energy

>  <rmsd>  (15) 
3.566554614669034

>  <m_score__min__rmsd>  (15) 
3.566554614669034

>  <meeko>  (15) 
{"free_energy": -6.78, "intermolecular_energy": -8.28, "internal_energy": -1.53, "cluster_size": 18, "cluster_id": 2, "rank_in_cluster": 2}

>  <energy>  (15) 
-6.2

>  <cluster_rmsd>  (15) 
1.53

>  <cluster>  (15) 
1

$$$$

     RDKit          3D

 38 39  0  0  0  0  0  0  0  0999 V2000
  135.7170   74.1610  223.5680 C   0  0  0  0  0  0  0  0  0  0  0  0
  136.6820   74.7380  222.6460 N   0  0  0  0  0  0  0  0  0  0  0  0
  136.2000   75.5670  221.6180 C   0  0  0  0  0  0  0  0  0  0  0  0
  134.9960   75.8510  221.4320 O   0  0  0  0  0  0  0  0  0  0  0  0
  137.2050   76.1590  220.6690 C   0  0  0  0  0  0  0  0  0  0  0  0
  138.3190   75.2980  220.4190 N   0  0  0  0  0  0  0  0  0  0  0  0
  139.3830   75.2310  221.3800 C   0  0  0  0  0  0  0  0  0  0  0  0
  139.3620   75.9120  222.4370 O   0  0  0  0  0  0  0  0  0  0  0  0
  140.5070   74.3330  221.0820 C   0  0  0  0  0  0  0  0  0  0  0  0
  140.7070   73.3600  222.1280 N   0  0  0  0  0  0  0  0  0  0  0  0
  139.6080   72.5460  222.5160 C   0  0  0  0  0  0  0  0  0  0  0  0
  138.4760   72.6700  221.9600 O   0  0  0  0  0  0  0  0  0  0  0  0
  139.8030   71.5510  223.5810 C   0  0  0  0  0  0  0  0  0  0  0  0
  139.4340   70.2380  223.3450 C   0  0  0  0  0  0  0  0  0  0  0  0
  139.6280   69.3090  224.3710 C   0  0  0  0  0  0  0  0  0  0  0  0
  140.1800   69.7270  225.5810 C   0  0  0  0  0  0  0  0  0  0  0  0
  140.3560   68.7780  226.5700 C   0  0  0  0  0  0  0  0  0  0  0  0
  140.9080   69.1830  227.7880 C   0  0  0  0  0  0  0  0  0  0  0  0
  141.1550   68.0130  229.0860 Cl  0  0  0  0  0  0  0  0  0  0  0  0
  141.2540   70.5120  227.9540 C   0  0  0  0  0  0  0  0  0  0  0  0
  141.0860   71.4670  226.9820 C   0  0  0  0  0  0  0  0  0  0  0  0
  140.5380   71.0570  225.7800 C   0  0  0  0  0  0  0  0  0  0  0  0
  140.3240   71.8940  224.7530 N   0  0  0  0  0  0  0  0  0  0  0  0
  136.0381   74.3530  224.6024 H   0  0  0  0  0  0  0  0  0  0  0  0
  134.7305   74.6176  223.3995 H   0  0  0  0  0  0  0  0  0  0  0  0
  135.6523   73.0759  223.3995 H   0  0  0  0  0  0  0  0  0  0  0  0
  137.7130   74.5560  222.7230 H   0  0  0  0  0  0  0  0  0  0  0  0
  136.7026   76.3672  219.7129 H   0  0  0  0  0  0  0  0  0  0  0  0
  137.5975   77.0737  221.1373 H   0  0  0  0  0  0  0  0  0  0  0  0
  138.3770   74.7070  219.5410 H   0  0  0  0  0  0  0  0  0  0  0  0
  140.3007   73.8051  220.1393 H   0  0  0  0  0  0  0  0  0  0  0  0
  141.4195   74.9421  221.0025 H   0  0  0  0  0  0  0  0  0  0  0  0
  141.6190   73.2130  222.6240 H   0  0  0  0  0  0  0  0  0  0  0  0
  139.0015   69.9351  222.3800 H   0  0  0  0  0  0  0  0  0  0  0  0
  139.3472   68.2555  224.2248 H   0  0  0  0  0  0  0  0  0  0  0  0
  140.0686   67.7295  226.4025 H   0  0  0  0  0  0  0  0  0  0  0  0
  141.6872   70.8204  228.9169 H   0  0  0  0  0  0  0  0  0  0  0  0
  141.3752   72.5146  227.1521 H   0  0  0  0  0  0  0  0  0  0  0  0
  1  2  1  0
  2  3  1  0
  3  4  2  0
  3  5  1  0
  5  6  1  0
  6  7  1  0
  7  8  2  0
  7  9  1  0
  9 10  1  0
 10 11  1  0
 11 12  2  0
 11 13  1  0
 13 14  2  0
 14 15  1  0
 15 16  2  0
 16 17  1  0
 17 18  2  0
 18 19  1  0
 18 20  1  0
 20 21  2  0
 21 22  1  0
 22 23  2  0
 23 13  1  0
 22 16  1  0
  1 24  1  0
  1 25  1  0
  1 26  1  0
  2 27  1  0
  5 28  1  0
  5 29  1  0
  6 30  1  0
  9 31  1  0
  9 32  1  0
 10 33  1  0
 14 34  1  0
 15 35  1  0
 17 36  1  0
 20 37  1  0
 21 38  1  0
M  END
>  <smiles>  (16) 
CNC(=O)CNC(=O)CNC(=O)c1ccc2cc(Cl)ccc2n1

>  <score_type>  (16) 
oracle

>  <origin>  (16) 
autodockgpu

>  <m_score__min__energy>  (16) 
-7.2199999999999998

>  <m_primary>  (16) 
energy

>  <rmsd>  (16) 
3.1325578776490524

>  <m_score__min__rmsd>  (16) 
3.1325578776490524

>  <meeko>  (16) 
{"free_energy": -5.2, "intermolecular_energy": -6.69, "internal_energy": -2.47, "cluster_size": 3, "cluster_id": 3, "rank_in_cluster": 3}

>  <energy>  (16) 
-6.08

>  <cluster_rmsd>  (16) 
1.29

>  <cluster>  (16) 
1

$$$$

     RDKit          3D

 38 39  0  0  0  0  0  0  0  0999 V2000
  142.9400   78.4680  217.8920 C   0  0  0  0  0  0  0  0  0  0  0  0
  142.9460   77.5300  219.0030 N   0  0  0  0  0  0  0  0  0  0  0  0
  143.1070   76.1640  218.7130 C   0  0  0  0  0  0  0  0  0  0  0  0
  143.2490   75.6870  217.5650 O   0  0  0  0  0  0  0  0  0  0  0  0
  143.1110   75.2010  219.8670 C   0  0  0  0  0  0  0  0  0  0  0  0
  141.8050   74.7430  220.2230 N   0  0  0  0  0  0  0  0  0  0  0  0
  140.8770   75.6630  220.8200 C   0  0  0  0  0  0  0  0  0  0  0  0
  141.1860   76.8620  221.0380 O   0  0  0  0  0  0  0  0  0  0  0  0
  139.5460   75.1490  221.1690 C   0  0  0  0  0  0  0  0  0  0  0  0
  139.6070   74.1960  222.2500 N   0  0  0  0  0  0  0  0  0  0  0  0
  139.8640   72.8320  221.9390 C   0  0  0  0  0  0  0  0  0  0  0  0
  140.0350   72.4580  220.7410 O   0  0  0  0  0  0  0  0  0  0  0  0
  139.9270   71.8550  223.0350 C   0  0  0  0  0  0  0  0  0  0  0  0
  139.4780   70.5650  222.8080 C   0  0  0  0  0  0  0  0  0  0  0  0
  139.5470   69.6520  223.8640 C   0  0  0  0  0  0  0  0  0  0  0  0
  140.0590   70.0630  225.0950 C   0  0  0  0  0  0  0  0  0  0  0  0
  140.1110   69.1300  226.1130 C   0  0  0  0  0  0  0  0  0  0  0  0
  140.6210   69.5270  227.3520 C   0  0  0  0  0  0  0  0  0  0  0  0
  140.7100   68.3780  228.6880 Cl  0  0  0  0  0  0  0  0  0  0  0  0
  141.0510   70.8330  227.5070 C   0  0  0  0  0  0  0  0  0  0  0  0
  141.0070   71.7710  226.5070 C   0  0  0  0  0  0  0  0  0  0  0  0
  140.5000   71.3690  225.2840 C   0  0  0  0  0  0  0  0  0  0  0  0
  140.4040   72.1910  224.2280 N   0  0  0  0  0  0  0  0  0  0  0  0
  142.9334   79.4969  218.2809 H   0  0  0  0  0  0  0  0  0  0  0  0
  143.8391   78.3141  217.2773 H   0  0  0  0  0  0  0  0  0  0  0  0
  142.0429   78.3026  217.2773 H   0  0  0  0  0  0  0  0  0  0  0  0
  142.8330   77.8380  220.0010 H   0  0  0  0  0  0  0  0  0  0  0  0
  143.7243   74.3299  219.5932 H   0  0  0  0  0  0  0  0  0  0  0  0
  143.5182   75.7360  220.7376 H   0  0  0  0  0  0  0  0  0  0  0  0
  141.5030   73.7410  220.0560 H   0  0  0  0  0  0  0  0  0  0  0  0
  138.9072   75.9915  221.4725 H   0  0  0  0  0  0  0  0  0  0  0  0
  139.1338   74.6388  220.2859 H   0  0  0  0  0  0  0  0  0  0  0  0
  139.4720   74.4470  223.2590 H   0  0  0  0  0  0  0  0  0  0  0  0
  139.0793   70.2679  221.8268 H   0  0  0  0  0  0  0  0  0  0  0  0
  139.2003   68.6173  223.7256 H   0  0  0  0  0  0  0  0  0  0  0  0
  139.7596   68.1001  225.9520 H   0  0  0  0  0  0  0  0  0  0  0  0
  141.4502   71.1358  228.4863 H   0  0  0  0  0  0  0  0  0  0  0  0
  141.3601   72.7999  226.6706 H   0  0  0  0  0  0  0  0  0  0  0  0
  1  2  1  0
  2  3  1  0
  3  4  2  0
  3  5  1  0
  5  6  1  0
  6  7  1  0
  7  8  2  0
  7  9  1  0
  9 10  1  0
 10 11  1  0
 11 12  2  0
 11 13  1  0
 13 14  2  0
 14 15  1  0
 15 16  2  0
 16 17  1  0
 17 18  2  0
 18 19  1  0
 18 20  1  0
 20 21  2  0
 21 22  1  0
 22 23  2  0
 23 13  1  0
 22 16  1  0
  1 24  1  0
  1 25  1  0
  1 26  1  0
  2 27  1  0
  5 28  1  0
  5 29  1  0
  6 30  1  0
  9 31  1  0
  9 32  1  0
 10 33  1  0
 14 34  1  0
 15 35  1  0
 17 36  1  0
 20 37  1  0
 21 38  1  0
M  END
>  <smiles>  (17) 
CNC(=O)CNC(=O)CNC(=O)c1ccc2cc(Cl)ccc2n1

>  <score_type>  (17) 
oracle

>  <origin>  (17) 
autodockgpu

>  <m_score__min__energy>  (17) 
-7.2199999999999998

>  <m_primary>  (17) 
energy

>  <rmsd>  (17) 
2.3695129838868403

>  <m_score__min__rmsd>  (17) 
2.3695129838868403

>  <meeko>  (17) 
{"free_energy": -6.25, "intermolecular_energy": -7.74, "internal_energy": -2.43, "cluster_size": 5, "cluster_id": 4, "rank_in_cluster": 2}

>  <energy>  (17) 
-6.05

>  <cluster_rmsd>  (17) 
1.34

>  <cluster>  (17) 
1

$$$$

     RDKit          3D

 38 39  0  0  0  0  0  0  0  0999 V2000
  146.1880   73.4330  221.6070 C   0  0  0  0  0  0  0  0  0  0  0  0
  145.0710   73.7360  220.7260 N   0  0  0  0  0  0  0  0  0  0  0  0
  145.0520   73.1370  219.4540 C   0  0  0  0  0  0  0  0  0  0  0  0
  145.9270   72.3560  219.0170 O   0  0  0  0  0  0  0  0  0  0  0  0
  143.8950   73.4560  218.5500 C   0  0  0  0  0  0  0  0  0  0  0  0
  142.6700   73.6700  219.2550 N   0  0  0  0  0  0  0  0  0  0  0  0
  142.4370   74.9400  219.8850 C   0  0  0  0  0  0  0  0  0  0  0  0
  143.2840   75.8680  219.8330 O   0  0  0  0  0  0  0  0  0  0  0  0
  141.1650   75.1160  220.5970 C   0  0  0  0  0  0  0  0  0  0  0  0
  141.0310   74.1860  221.6920 N   0  0  0  0  0  0  0  0  0  0  0  0
  140.4260   72.9240  221.4390 C   0  0  0  0  0  0  0  0  0  0  0  0
  140.0120   72.6190  220.2810 O   0  0  0  0  0  0  0  0  0  0  0  0
  140.2850   71.9700  222.5490 C   0  0  0  0  0  0  0  0  0  0  0  0
  139.6930   70.7420  222.3040 C   0  0  0  0  0  0  0  0  0  0  0  0
  139.5690   69.8510  223.3740 C   0  0  0  0  0  0  0  0  0  0  0  0
  140.0390   70.2190  224.6340 C   0  0  0  0  0  0  0  0  0  0  0  0
  139.8990   69.3100  225.6640 C   0  0  0  0  0  0  0  0  0  0  0  0
  140.3650   69.6650  226.9320 C   0  0  0  0  0  0  0  0  0  0  0  0
  140.2110   68.5430  228.2850 Cl  0  0  0  0  0  0  0  0  0  0  0  0
  140.9460   70.9090  227.1030 C   0  0  0  0  0  0  0  0  0  0  0  0
  141.0940   71.8240  226.0910 C   0  0  0  0  0  0  0  0  0  0  0  0
  140.6290   71.4630  224.8390 C   0  0  0  0  0  0  0  0  0  0  0  0
  140.7150   72.2680  223.7690 N   0  0  0  0  0  0  0  0  0  0  0  0
  145.8633   73.5211  222.6543 H   0  0  0  0  0  0  0  0  0  0  0  0
  146.5376   72.4076  221.4165 H   0  0  0  0  0  0  0  0  0  0  0  0
  147.0078   74.1412  221.4165 H   0  0  0  0  0  0  0  0  0  0  0  0
  144.2910   74.3800  221.0060 H   0  0  0  0  0  0  0  0  0  0  0  0
  144.1356   74.3675  217.9831 H   0  0  0  0  0  0  0  0  0  0  0  0
  143.7455   72.5869  217.8925 H   0  0  0  0  0  0  0  0  0  0  0  0
  141.9290   72.9160  219.3230 H   0  0  0  0  0  0  0  0  0  0  0  0
  141.1173   76.1413  220.9927 H   0  0  0  0  0  0  0  0  0  0  0  0
  140.3465   74.9281  219.8865 H   0  0  0  0  0  0  0  0  0  0  0  0
  141.3530   74.3820  222.6690 H   0  0  0  0  0  0  0  0  0  0  0  0
  139.3319   70.4763  221.2995 H   0  0  0  0  0  0  0  0  0  0  0  0
  139.1036   68.8658  223.2228 H   0  0  0  0  0  0  0  0  0  0  0  0
  139.4316   68.3296  225.4900 H   0  0  0  0  0  0  0  0  0  0  0  0
  141.3093   71.1795  228.1054 H   0  0  0  0  0  0  0  0  0  0  0  0
  141.5627   72.8033  226.2679 H   0  0  0  0  0  0  0  0  0  0  0  0
  1  2  1  0
  2  3  1  0
  3  4  2  0
  3  5  1  0
  5  6  1  0
  6  7  1  0
  7  8  2  0
  7  9  1  0
  9 10  1  0
 10 11  1  0
 11 12  2  0
 11 13  1  0
 13 14  2  0
 14 15  1  0
 15 16  2  0
 16 17  1  0
 17 18  2  0
 18 19  1  0
 18 20  1  0
 20 21  2  0
 21 22  1  0
 22 23  2  0
 23 13  1  0
 22 16  1  0
  1 24  1  0
  1 25  1  0
  1 26  1  0
  2 27  1  0
  5 28  1  0
  5 29  1  0
  6 30  1  0
  9 31  1  0
  9 32  1  0
 10 33  1  0
 14 34  1  0
 15 35  1  0
 17 36  1  0
 20 37  1  0
 21 38  1  0
M  END
>  <smiles>  (18) 
CNC(=O)CNC(=O)CNC(=O)c1ccc2cc(Cl)ccc2n1

>  <score_type>  (18) 
oracle

>  <origin>  (18) 
autodockgpu

>  <m_score__min__energy>  (18) 
-7.2199999999999998

>  <m_primary>  (18) 
energy

>  <rmsd>  (18) 
3.7444344330345127

>  <m_score__min__rmsd>  (18) 
3.7444344330345127

>  <meeko>  (18) 
{"free_energy": -6.22, "intermolecular_energy": -7.72, "internal_energy": -2.6, "cluster_size": 18, "cluster_id": 2, "rank_in_cluster": 14}

>  <energy>  (18) 
-6.03

>  <cluster_rmsd>  (18) 
1.51

>  <cluster>  (18) 
1

$$$$

     RDKit          3D

 38 39  0  0  0  0  0  0  0  0999 V2000
  141.8950   79.2450  223.8570 C   0  0  0  0  0  0  0  0  0  0  0  0
  140.7340   78.8080  223.0990 N   0  0  0  0  0  0  0  0  0  0  0  0
  140.7220   79.0460  221.7130 C   0  0  0  0  0  0  0  0  0  0  0  0
  141.6390   79.6090  221.0750 O   0  0  0  0  0  0  0  0  0  0  0  0
  139.5180   78.5920  220.9370 C   0  0  0  0  0  0  0  0  0  0  0  0
  139.5940   77.2240  220.5290 N   0  0  0  0  0  0  0  0  0  0  0  0
  139.4440   76.1890  221.5130 C   0  0  0  0  0  0  0  0  0  0  0  0
  139.2480   76.4550  222.7260 O   0  0  0  0  0  0  0  0  0  0  0  0
  139.5280   74.7980  221.0480 C   0  0  0  0  0  0  0  0  0  0  0  0
  139.6120   73.8690  222.1490 N   0  0  0  0  0  0  0  0  0  0  0  0
  139.8000   72.4900  221.8600 C   0  0  0  0  0  0  0  0  0  0  0  0
  139.8910   72.0800  220.6640 O   0  0  0  0  0  0  0  0  0  0  0  0
  139.8870   71.5370  222.9760 C   0  0  0  0  0  0  0  0  0  0  0  0
  139.4470   70.2380  222.7820 C   0  0  0  0  0  0  0  0  0  0  0  0
  139.5380   69.3490  223.8570 C   0  0  0  0  0  0  0  0  0  0  0  0
  140.0620   69.7910  225.0720 C   0  0  0  0  0  0  0  0  0  0  0  0
  140.1350   68.8810  226.1090 C   0  0  0  0  0  0  0  0  0  0  0  0
  140.6570   69.3100  227.3320 C   0  0  0  0  0  0  0  0  0  0  0  0
  140.7750   68.1910  228.6910 Cl  0  0  0  0  0  0  0  0  0  0  0  0
  141.0770   70.6220  227.4540 C   0  0  0  0  0  0  0  0  0  0  0  0
  141.0110   71.5380  226.4340 C   0  0  0  0  0  0  0  0  0  0  0  0
  140.4930   71.1050  225.2270 C   0  0  0  0  0  0  0  0  0  0  0  0
  140.3760   71.9030  224.1550 N   0  0  0  0  0  0  0  0  0  0  0  0
  141.6818   79.1647  224.9331 H   0  0  0  0  0  0  0  0  0  0  0  0
  142.7573   78.6099  223.6057 H   0  0  0  0  0  0  0  0  0  0  0  0
  142.1245   80.2910  223.6057 H   0  0  0  0  0  0  0  0  0  0  0  0
  139.9160   78.3270  223.5480 H   0  0  0  0  0  0  0  0  0  0  0  0
  138.6265   78.7194  221.5687 H   0  0  0  0  0  0  0  0  0  0  0  0
  139.4682   79.2032  220.0238 H   0  0  0  0  0  0  0  0  0  0  0  0
  139.7570   76.9550  219.5160 H   0  0  0  0  0  0  0  0  0  0  0  0
  138.6315   74.5663  220.4543 H   0  0  0  0  0  0  0  0  0  0  0  0
  140.4407   74.6943  220.4428 H   0  0  0  0  0  0  0  0  0  0  0  0
  139.5420   74.1490  223.1560 H   0  0  0  0  0  0  0  0  0  0  0  0
  139.0389   69.9161  221.8126 H   0  0  0  0  0  0  0  0  0  0  0  0
  139.1989   68.3085  223.7457 H   0  0  0  0  0  0  0  0  0  0  0  0
  139.7908   67.8448  225.9752 H   0  0  0  0  0  0  0  0  0  0  0  0
  141.4862   70.9492  228.4212 H   0  0  0  0  0  0  0  0  0  0  0  0
  141.3558   72.5736  226.5709 H   0  0  0  0  0  0  0  0  0  0  0  0
  1  2  1  0
  2  3  1  0
  3  4  2  0
  3  5  1  0
  5  6  1  0
  6  7  1  0
  7  8  2  0
  7  9  1  0
  9 10  1  0
 10 11  1  0
 11 12  2  0
 11 13  1  0
 13 14  2  0
 14 15  1  0
 15 16  2  0
 16 17  1  0
 17 18  2  0
 18 19  1  0
 18 20  1  0
 20 21  2  0
 21 22  1  0
 22 23  2  0
 23 13  1  0
 22 16  1  0
  1 24  1  0
  1 25  1  0
  1 26  1  0
  2 27  1  0
  5 28  1  0
  5 29  1  0
  6 30  1  0
  9 31  1  0
  9 32  1  0
 10 33  1  0
 14 34  1  0
 15 35  1  0
 17 36  1  0
 20 37  1  0
 21 38  1  0
M  END
>  <smiles>  (19) 
CNC(=O)CNC(=O)CNC(=O)c1ccc2cc(Cl)ccc2n1

>  <score_type>  (19) 
oracle

>  <origin>  (19) 
autodockgpu

>  <m_score__min__energy>  (19) 
-7.2199999999999998

>  <m_primary>  (19) 
energy

>  <rmsd>  (19) 
1.7852485869702268

>  <m_score__min__rmsd>  (19) 
1.7852485869702268

>  <meeko>  (19) 
{"free_energy": -6.05, "intermolecular_energy": -7.55, "internal_energy": -2.13, "cluster_size": 19, "cluster_id": 1, "rank_in_cluster": 17}

>  <energy>  (19) 
-5.73

>  <cluster_rmsd>  (19) 
1.65

>  <cluster>  (19) 
1

$$$$

     RDKit          3D

 38 39  0  0  0  0  0  0  0  0999 V2000
  141.8540   79.0920  224.2170 C   0  0  0  0  0  0  0  0  0  0  0  0
  140.8330   78.7000  223.2580 N   0  0  0  0  0  0  0  0  0  0  0  0
  140.9050   79.2380  221.9610 C   0  0  0  0  0  0  0  0  0  0  0  0
  141.7840   80.0340  221.5620 O   0  0  0  0  0  0  0  0  0  0  0  0
  139.8460   78.8280  220.9760 C   0  0  0  0  0  0  0  0  0  0  0  0
  139.9470   77.4590  220.5760 N   0  0  0  0  0  0  0  0  0  0  0  0
  139.3920   76.4390  221.4210 C   0  0  0  0  0  0  0  0  0  0  0  0
  138.8200   76.7190  222.5050 O   0  0  0  0  0  0  0  0  0  0  0  0
  139.5180   75.0470  220.9700 C   0  0  0  0  0  0  0  0  0  0  0  0
  139.5680   74.1270  222.0800 N   0  0  0  0  0  0  0  0  0  0  0  0
  139.8920   72.7670  221.8200 C   0  0  0  0  0  0  0  0  0  0  0  0
  140.1320   72.3670  220.6420 O   0  0  0  0  0  0  0  0  0  0  0  0
  139.9460   71.8230  222.9460 C   0  0  0  0  0  0  0  0  0  0  0  0
  139.4920   70.5290  222.7550 C   0  0  0  0  0  0  0  0  0  0  0  0
  139.5520   69.6480  223.8390 C   0  0  0  0  0  0  0  0  0  0  0  0
  140.0580   70.0930  225.0600 C   0  0  0  0  0  0  0  0  0  0  0  0
  140.1010   69.1920  226.1060 C   0  0  0  0  0  0  0  0  0  0  0  0
  140.6060   69.6240  227.3350 C   0  0  0  0  0  0  0  0  0  0  0  0
  140.6830   68.5160  228.7050 Cl  0  0  0  0  0  0  0  0  0  0  0  0
  141.0410   70.9320  227.4530 C   0  0  0  0  0  0  0  0  0  0  0  0
  141.0060   71.8400  226.4240 C   0  0  0  0  0  0  0  0  0  0  0  0
  140.5040   71.4030  225.2110 C   0  0  0  0  0  0  0  0  0  0  0  0
  140.4180   72.1930  224.1310 N   0  0  0  0  0  0  0  0  0  0  0  0
  141.4731   78.9457  225.2385 H   0  0  0  0  0  0  0  0  0  0  0  0
  142.7525   78.4749  224.0689 H   0  0  0  0  0  0  0  0  0  0  0  0
  142.1086   80.1518  224.0689 H   0  0  0  0  0  0  0  0  0  0  0  0
  140.0560   78.0380  223.5010 H   0  0  0  0  0  0  0  0  0  0  0  0
  138.8599   78.9853  221.4374 H   0  0  0  0  0  0  0  0  0  0  0  0
  139.9836   79.4426  220.0741 H   0  0  0  0  0  0  0  0  0  0  0  0
  140.4200   77.1790  219.6700 H   0  0  0  0  0  0  0  0  0  0  0  0
  138.6521   74.7973  220.3392 H   0  0  0  0  0  0  0  0  0  0  0  0
  140.4578   74.9539  220.4060 H   0  0  0  0  0  0  0  0  0  0  0  0
  139.3790   74.3990  223.0740 H   0  0  0  0  0  0  0  0  0  0  0  0
  139.0966   70.2043  221.7812 H   0  0  0  0  0  0  0  0  0  0  0  0
  139.2024   68.6108  223.7295 H   0  0  0  0  0  0  0  0  0  0  0  0
  139.7462   68.1591  225.9746 H   0  0  0  0  0  0  0  0  0  0  0  0
  141.4366   71.2626  228.4247 H   0  0  0  0  0  0  0  0  0  0  0  0
  141.3622   72.8720  226.5582 H   0  0  0  0  0  0  0  0  0  0  0  0
  1  2  1  0
  2  3  1  0
  3  4  2  0
  3  5  1  0
  5  6  1  0
  6  7  1  0
  7  8  2  0
  7  9  1  0
  9 10  1  0
 10 11  1  0
 11 12  2  0
 11 13  1  0
 13 14  2  0
 14 15  1  0
 15 16  2  0
 16 17  1  0
 17 18  2  0
 18 19  1  0
 18 20  1  0
 20 21  2  0
 21 22  1  0
 22 23  2  0
 23 13  1  0
 22 16  1  0
  1 24  1  0
  1 25  1  0
  1 26  1  0
  2 27  1  0
  5 28  1  0
  5 29  1  0
  6 30  1  0
  9 31  1  0
  9 32  1  0
 10 33  1  0
 14 34  1  0
 15 35  1  0
 17 36  1  0
 20 37  1  0
 21 38  1  0
M  END
>  <smiles>  (20) 
CNC(=O)CNC(=O)CNC(=O)c1ccc2cc(Cl)ccc2n1

>  <score_type>  (20) 
oracle

>  <origin>  (20) 
autodockgpu

>  <m_score__min__energy>  (20) 
-7.2199999999999998

>  <m_primary>  (20) 
energy

>  <rmsd>  (20) 
1.9477146329908364

>  <m_score__min__rmsd>  (20) 
1.9477146329908364

>  <meeko>  (20) 
{"free_energy": -6.08, "intermolecular_energy": -7.57, "internal_energy": -2.01, "cluster_size": 19, "cluster_id": 1, "rank_in_cluster": 16}

>  <energy>  (20) 
-6.83

>  <cluster_rmsd>  (20) 
0.0

>  <cluster>  (20) 
2

$$$$

     RDKit          3D

 38 39  0  0  0  0  0  0  0  0999 V2000
  144.1850   75.2060  220.0600 C   0  0  0  0  0  0  0  0  0  0  0  0
  142.8240   75.6690  220.2820 N   0  0  0  0  0  0  0  0  0  0  0  0
  142.1320   76.2300  219.1950 C   0  0  0  0  0  0  0  0  0  0  0  0
  142.5980   76.3650  218.0410 O   0  0  0  0  0  0  0  0  0  0  0  0
  140.7270   76.7060  219.4330 C   0  0  0  0  0  0  0  0  0  0  0  0
  139.8050   75.6420  219.6790 N   0  0  0  0  0  0  0  0  0  0  0  0
  139.6600   75.1340  221.0140 C   0  0  0  0  0  0  0  0  0  0  0  0
  140.3260   75.6010  221.9740 O   0  0  0  0  0  0  0  0  0  0  0  0
  138.7010   74.0410  221.2210 C   0  0  0  0  0  0  0  0  0  0  0  0
  139.0760   73.2020  222.3330 N   0  0  0  0  0  0  0  0  0  0  0  0
  138.7090   71.8280  222.3010 C   0  0  0  0  0  0  0  0  0  0  0  0
  138.0670   71.3480  221.3210 O   0  0  0  0  0  0  0  0  0  0  0  0
  139.0870   70.9670  223.4310 C   0  0  0  0  0  0  0  0  0  0  0  0
  138.8010   69.6140  223.3650 C   0  0  0  0  0  0  0  0  0  0  0  0
  139.1690   68.8140  224.4500 C   0  0  0  0  0  0  0  0  0  0  0  0
  139.8040   69.3940  225.5480 C   0  0  0  0  0  0  0  0  0  0  0  0
  140.1520   68.5680  226.6000 C   0  0  0  0  0  0  0  0  0  0  0  0
  140.7880   69.1360  227.7070 C   0  0  0  0  0  0  0  0  0  0  0  0
  141.2540   68.1290  229.0790 Cl  0  0  0  0  0  0  0  0  0  0  0  0
  141.0420   70.4950  227.7040 C   0  0  0  0  0  0  0  0  0  0  0  0
  140.7030   71.3290  226.6680 C   0  0  0  0  0  0  0  0  0  0  0  0
  140.0740   70.7580  225.5760 C   0  0  0  0  0  0  0  0  0  0  0  0
  139.6930   71.4660  224.5020 N   0  0  0  0  0  0  0  0  0  0  0  0
  144.6779   75.0383  221.0290 H   0  0  0  0  0  0  0  0  0  0  0  0
  144.1639   74.2645  219.4916 H   0  0  0  0  0  0  0  0  0  0  0  0
  144.7424   75.9651  219.4916 H   0  0  0  0  0  0  0  0  0  0  0  0
  142.3500   75.5980  221.2160 H   0  0  0  0  0  0  0  0  0  0  0  0
  140.7282   77.3760  220.3054 H   0  0  0  0  0  0  0  0  0  0  0  0
  140.3967   77.2190  218.5177 H   0  0  0  0  0  0  0  0  0  0  0  0
  139.2240   75.2190  218.8990 H   0  0  0  0  0  0  0  0  0  0  0  0
  137.7081   74.4713  221.4187 H   0  0  0  0  0  0  0  0  0  0  0  0
  138.6895   73.4200  220.3131 H   0  0  0  0  0  0  0  0  0  0  0  0
  139.6060   73.5430  223.1700 H   0  0  0  0  0  0  0  0  0  0  0  0
  138.2998   69.1823  222.4861 H   0  0  0  0  0  0  0  0  0  0  0  0
  138.9593   67.7342  224.4382 H   0  0  0  0  0  0  0  0  0  0  0  0
  139.9338   67.4904  226.5667 H   0  0  0  0  0  0  0  0  0  0  0  0
  141.5434   70.9319  228.5802 H   0  0  0  0  0  0  0  0  0  0  0  0
  140.9222   72.4063  226.7044 H   0  0  0  0  0  0  0  0  0  0  0  0
  1  2  1  0
  2  3  1  0
  3  4  2  0
  3  5  1  0
  5  6  1  0
  6  7  1  0
  7  8  2  0
  7  9  1  0
  9 10  1  0
 10 11  1  0
 11 12  2  0
 11 13  1  0
 13 14  2  0
 14 15  1  0
 15 16  2  0
 16 17  1  0
 17 18  2  0
 18 19  1  0
 18 20  1  0
 20 21  2  0
 21 22  1  0
 22 23  2  0
 23 13  1  0
 22 16  1  0
  1 24  1  0
  1 25  1  0
  1 26  1  0
  2 27  1  0
  5 28  1  0
  5 29  1  0
  6 30  1  0
  9 31  1  0
  9 32  1  0
 10 33  1  0
 14 34  1  0
 15 35  1  0
 17 36  1  0
 20 37  1  0
 21 38  1  0
M  END
>  <smiles>  (21) 
CNC(=O)CNC(=O)CNC(=O)c1ccc2cc(Cl)ccc2n1

>  <score_type>  (21) 
oracle

>  <origin>  (21) 
autodockgpu

>  <m_score__min__energy>  (21) 
-7.2199999999999998

>  <m_primary>  (21) 
energy

>  <rmsd>  (21) 
2.011101943858331

>  <m_score__min__rmsd>  (21) 
2.011101943858331

>  <meeko>  (21) 
{"free_energy": -6.0, "intermolecular_energy": -7.49, "internal_energy": -2.12, "cluster_size": 5, "cluster_id": 4, "rank_in_cluster": 5}

>  <energy>  (21) 
-6.78

>  <cluster_rmsd>  (21) 
0.54

>  <cluster>  (21) 
2

$$$$

     RDKit          3D

 38 39  0  0  0  0  0  0  0  0999 V2000
  143.9500   71.6700  220.2640 C   0  0  0  0  0  0  0  0  0  0  0  0
  143.2880   72.9560  220.1180 N   0  0  0  0  0  0  0  0  0  0  0  0
  144.0870   74.1130  220.1130 C   0  0  0  0  0  0  0  0  0  0  0  0
  145.3330   74.1230  220.2260 O   0  0  0  0  0  0  0  0  0  0  0  0
  143.3960   75.4390  219.9620 C   0  0  0  0  0  0  0  0  0  0  0  0
  142.1900   75.5360  220.7250 N   0  0  0  0  0  0  0  0  0  0  0  0
  140.9710   75.0080  220.1800 C   0  0  0  0  0  0  0  0  0  0  0  0
  140.9360   74.4630  219.0470 O   0  0  0  0  0  0  0  0  0  0  0  0
  139.7580   75.1300  220.9990 C   0  0  0  0  0  0  0  0  0  0  0  0
  139.7600   74.2000  222.1020 N   0  0  0  0  0  0  0  0  0  0  0  0
  140.0370   72.8310  221.8350 C   0  0  0  0  0  0  0  0  0  0  0  0
  140.2750   72.4320  220.6560 O   0  0  0  0  0  0  0  0  0  0  0  0
  140.0420   71.8770  222.9530 C   0  0  0  0  0  0  0  0  0  0  0  0
  139.5530   70.5990  222.7440 C   0  0  0  0  0  0  0  0  0  0  0  0
  139.5680   69.7090  223.8220 C   0  0  0  0  0  0  0  0  0  0  0  0
  140.0660   70.1290  225.0550 C   0  0  0  0  0  0  0  0  0  0  0  0
  140.0630   69.2190  226.0940 C   0  0  0  0  0  0  0  0  0  0  0  0
  140.5590   69.6270  227.3350 C   0  0  0  0  0  0  0  0  0  0  0  0
  140.5780   68.5060  228.6980 Cl  0  0  0  0  0  0  0  0  0  0  0  0
  141.0310   70.9200  227.4720 C   0  0  0  0  0  0  0  0  0  0  0  0
  141.0410   71.8360  226.4500 C   0  0  0  0  0  0  0  0  0  0  0  0
  140.5480   71.4230  225.2250 C   0  0  0  0  0  0  0  0  0  0  0  0
  140.5040   72.2240  224.1490 N   0  0  0  0  0  0  0  0  0  0  0  0
  144.0693   71.4383  221.3327 H   0  0  0  0  0  0  0  0  0  0  0  0
  143.3423   70.8883  219.7849 H   0  0  0  0  0  0  0  0  0  0  0  0
  144.9394   71.7104  219.7849 H   0  0  0  0  0  0  0  0  0  0  0  0
  142.2470   73.0460  220.0180 H   0  0  0  0  0  0  0  0  0  0  0  0
  144.0837   76.2313  220.2928 H   0  0  0  0  0  0  0  0  0  0  0  0
  143.1218   75.5459  218.9021 H   0  0  0  0  0  0  0  0  0  0  0  0
  142.1750   75.9870  221.6830 H   0  0  0  0  0  0  0  0  0  0  0  0
  139.6985   76.1538  221.3967 H   0  0  0  0  0  0  0  0  0  0  0  0
  138.8909   74.9022  220.3615 H   0  0  0  0  0  0  0  0  0  0  0  0
  139.5700   74.4720  223.0960 H   0  0  0  0  0  0  0  0  0  0  0  0
  139.1650   70.2935  221.7611 H   0  0  0  0  0  0  0  0  0  0  0  0
  139.1893   68.6837  223.6984 H   0  0  0  0  0  0  0  0  0  0  0  0
  139.6797   68.1983  225.9482 H   0  0  0  0  0  0  0  0  0  0  0  0
  141.4193   71.2309  228.4531 H   0  0  0  0  0  0  0  0  0  0  0  0
  141.4250   72.8560  226.5986 H   0  0  0  0  0  0  0  0  0  0  0  0
  1  2  1  0
  2  3  1  0
  3  4  2  0
  3  5  1  0
  5  6  1  0
  6  7  1  0
  7  8  2  0
  7  9  1  0
  9 10  1  0
 10 11  1  0
 11 12  2  0
 11 13  1  0
 13 14  2  0
 14 15  1  0
 15 16  2  0
 16 17  1  0
 17 18  2  0
 18 19  1  0
 18 20  1  0
 20 21  2  0
 21 22  1  0
 22 23  2  0
 23 13  1  0
 22 16  1  0
  1 24  1  0
  1 25  1  0
  1 26  1  0
  2 27  1  0
  5 28  1  0
  5 29  1  0
  6 30  1  0
  9 31  1  0
  9 32  1  0
 10 33  1  0
 14 34  1  0
 15 35  1  0
 17 36  1  0
 20 37  1  0
 21 38  1  0
M  END
>  <smiles>  (22) 
CNC(=O)CNC(=O)CNC(=O)c1ccc2cc(Cl)ccc2n1

>  <score_type>  (22) 
oracle

>  <origin>  (22) 
autodockgpu

>  <m_score__min__energy>  (22) 
-7.2199999999999998

>  <m_primary>  (22) 
energy

>  <rmsd>  (22) 
3.3523615271441694

>  <m_score__min__rmsd>  (22) 
3.3523615271441694

>  <meeko>  (22) 
{"free_energy": -6.55, "intermolecular_energy": -8.04, "internal_energy": -2.52, "cluster_size": 18, "cluster_id": 2, "rank_in_cluster": 8}

>  <energy>  (22) 
-6.69

>  <cluster_rmsd>  (22) 
1.61

>  <cluster>  (22) 
2

$$$$

     RDKit          3D

 38 39  0  0  0  0  0  0  0  0999 V2000
  141.7400   79.9830  222.6380 C   0  0  0  0  0  0  0  0  0  0  0  0
  142.0680   78.7260  221.9830 N   0  0  0  0  0  0  0  0  0  0  0  0
  141.7970   78.6080  220.6090 C   0  0  0  0  0  0  0  0  0  0  0  0
  141.2930   79.5060  219.8980 O   0  0  0  0  0  0  0  0  0  0  0  0
  142.1380   77.3060  219.9390 C   0  0  0  0  0  0  0  0  0  0  0  0
  141.0650   76.3610  219.9660 N   0  0  0  0  0  0  0  0  0  0  0  0
  140.5910   75.8740  221.2310 C   0  0  0  0  0  0  0  0  0  0  0  0
  141.0960   76.2580  222.3170 O   0  0  0  0  0  0  0  0  0  0  0  0
  139.4870   74.9050  221.2110 C   0  0  0  0  0  0  0  0  0  0  0  0
  139.5860   73.9580  222.2940 N   0  0  0  0  0  0  0  0  0  0  0  0
  139.7400   72.5800  221.9780 C   0  0  0  0  0  0  0  0  0  0  0  0
  139.7880   72.1880  220.7740 O   0  0  0  0  0  0  0  0  0  0  0  0
  139.8420   71.6080  223.0760 C   0  0  0  0  0  0  0  0  0  0  0  0
  139.4130   70.3080  222.8610 C   0  0  0  0  0  0  0  0  0  0  0  0
  139.5190   69.4010  223.9190 C   0  0  0  0  0  0  0  0  0  0  0  0
  140.0450   69.8260  225.1390 C   0  0  0  0  0  0  0  0  0  0  0  0
  140.1330   68.8980  226.1590 C   0  0  0  0  0  0  0  0  0  0  0  0
  140.6580   69.3090  227.3870 C   0  0  0  0  0  0  0  0  0  0  0  0
  140.7930   68.1670  228.7250 Cl  0  0  0  0  0  0  0  0  0  0  0  0
  141.0650   70.6230  227.5300 C   0  0  0  0  0  0  0  0  0  0  0  0
  140.9850   71.5570  226.5280 C   0  0  0  0  0  0  0  0  0  0  0  0
  140.4640   71.1400  225.3160 C   0  0  0  0  0  0  0  0  0  0  0  0
  140.3340   71.9570  224.2590 N   0  0  0  0  0  0  0  0  0  0  0  0
  141.7752   79.8480  223.7291 H   0  0  0  0  0  0  0  0  0  0  0  0
  142.4675   80.7525  222.3401 H   0  0  0  0  0  0  0  0  0  0  0  0
  140.7294   80.2989  222.3401 H   0  0  0  0  0  0  0  0  0  0  0  0
  142.4930   77.9170  222.4980 H   0  0  0  0  0  0  0  0  0  0  0  0
  142.3978   77.5102  218.8898 H   0  0  0  0  0  0  0  0  0  0  0  0
  142.9781   76.8629  220.4938 H   0  0  0  0  0  0  0  0  0  0  0  0
  140.6110   76.0120  219.0750 H   0  0  0  0  0  0  0  0  0  0  0  0
  138.5347   75.4484  221.2991 H   0  0  0  0  0  0  0  0  0  0  0  0
  139.5382   74.3479  220.2639 H   0  0  0  0  0  0  0  0  0  0  0  0
  139.5520   74.2220  223.3070 H   0  0  0  0  0  0  0  0  0  0  0  0
  139.0020   69.9997  221.8883 H   0  0  0  0  0  0  0  0  0  0  0  0
  139.1899   68.3593  223.7905 H   0  0  0  0  0  0  0  0  0  0  0  0
  139.7980   67.8612  226.0080 H   0  0  0  0  0  0  0  0  0  0  0  0
  141.4757   70.9368  228.5010 H   0  0  0  0  0  0  0  0  0  0  0  0
  141.3208   72.5932  226.6818 H   0  0  0  0  0  0  0  0  0  0  0  0
  1  2  1  0
  2  3  1  0
  3  4  2  0
  3  5  1  0
  5  6  1  0
  6  7  1  0
  7  8  2  0
  7  9  1  0
  9 10  1  0
 10 11  1  0
 11 12  2  0
 11 13  1  0
 13 14  2  0
 14 15  1  0
 15 16  2  0
 16 17  1  0
 17 18  2  0
 18 19  1  0
 18 20  1  0
 20 21  2  0
 21 22  1  0
 22 23  2  0
 23 13  1  0
 22 16  1  0
  1 24  1  0
  1 25  1  0
  1 26  1  0
  2 27  1  0
  5 28  1  0
  5 29  1  0
  6 30  1  0
  9 31  1  0
  9 32  1  0
 10 33  1  0
 14 34  1  0
 15 35  1  0
 17 36  1  0
 20 37  1  0
 21 38  1  0
M  END
>  <smiles>  (23) 
CNC(=O)CNC(=O)CNC(=O)c1ccc2cc(Cl)ccc2n1

>  <score_type>  (23) 
oracle

>  <origin>  (23) 
autodockgpu

>  <m_score__min__energy>  (23) 
-7.2199999999999998

>  <m_primary>  (23) 
energy

>  <rmsd>  (23) 
1.415240458107158

>  <m_score__min__rmsd>  (23) 
1.415240458107158

>  <meeko>  (23) 
{"free_energy": -6.69, "intermolecular_energy": -8.18, "internal_energy": -1.82, "cluster_size": 19, "cluster_id": 1, "rank_in_cluster": 7}

>  <energy>  (23) 
-6.59

>  <cluster_rmsd>  (23) 
1.58

>  <cluster>  (23) 
2

$$$$

     RDKit          3D

 38 39  0  0  0  0  0  0  0  0999 V2000
  146.2940   73.4630  221.8310 C   0  0  0  0  0  0  0  0  0  0  0  0
  145.2470   73.8250  220.8890 N   0  0  0  0  0  0  0  0  0  0  0  0
  145.1770   73.1170  219.6760 C   0  0  0  0  0  0  0  0  0  0  0  0
  145.9510   72.1940  219.3390 O   0  0  0  0  0  0  0  0  0  0  0  0
  144.0920   73.4980  218.7080 C   0  0  0  0  0  0  0  0  0  0  0  0
  142.8180   73.6780  219.3310 N   0  0  0  0  0  0  0  0  0  0  0  0
  142.4990   74.9480  219.9200 C   0  0  0  0  0  0  0  0  0  0  0  0
  143.3140   75.9060  219.9040 O   0  0  0  0  0  0  0  0  0  0  0  0
  141.1790   75.0880  220.5490 C   0  0  0  0  0  0  0  0  0  0  0  0
  141.0170   74.1840  221.6610 N   0  0  0  0  0  0  0  0  0  0  0  0
  140.4850   72.8890  221.4110 C   0  0  0  0  0  0  0  0  0  0  0  0
  140.1590   72.5330  220.2390 O   0  0  0  0  0  0  0  0  0  0  0  0
  140.3170   71.9620  222.5390 C   0  0  0  0  0  0  0  0  0  0  0  0
  139.7110   70.7370  222.3130 C   0  0  0  0  0  0  0  0  0  0  0  0
  139.5610   69.8710  223.4000 C   0  0  0  0  0  0  0  0  0  0  0  0
  140.0180   70.2610  224.6580 C   0  0  0  0  0  0  0  0  0  0  0  0
  139.8510   69.3760  225.7060 C   0  0  0  0  0  0  0  0  0  0  0  0
  140.3040   69.7540  226.9730 C   0  0  0  0  0  0  0  0  0  0  0  0
  140.1160   68.6640  228.3470 Cl  0  0  0  0  0  0  0  0  0  0  0  0
  140.8990   70.9930  227.1250 C   0  0  0  0  0  0  0  0  0  0  0  0
  141.0730   71.8840  226.0950 C   0  0  0  0  0  0  0  0  0  0  0  0
  140.6210   71.5010  224.8440 C   0  0  0  0  0  0  0  0  0  0  0  0
  140.7330   72.2810  223.7590 N   0  0  0  0  0  0  0  0  0  0  0  0
  145.9231   73.5912  222.8586 H   0  0  0  0  0  0  0  0  0  0  0  0
  146.5820   72.4131  221.6735 H   0  0  0  0  0  0  0  0  0  0  0  0
  147.1690   74.1108  221.6735 H   0  0  0  0  0  0  0  0  0  0  0  0
  144.5520   74.5870  221.0840 H   0  0  0  0  0  0  0  0  0  0  0  0
  144.3770   74.4401  218.2168 H   0  0  0  0  0  0  0  0  0  0  0  0
  143.9902   72.6712  217.9897 H   0  0  0  0  0  0  0  0  0  0  0  0
  142.1020   72.8970  219.3660 H   0  0  0  0  0  0  0  0  0  0  0  0
  141.0644   76.1207  220.9101 H   0  0  0  0  0  0  0  0  0  0  0  0
  140.4142   74.8450  219.7966 H   0  0  0  0  0  0  0  0  0  0  0  0
  141.2670   74.4230  222.6500 H   0  0  0  0  0  0  0  0  0  0  0  0
  139.3589   70.4546  221.3098 H   0  0  0  0  0  0  0  0  0  0  0  0
  139.0856   68.8885  223.2637 H   0  0  0  0  0  0  0  0  0  0  0  0
  139.3733   68.3980  225.5470 H   0  0  0  0  0  0  0  0  0  0  0  0
  141.2524   71.2805  228.1262 H   0  0  0  0  0  0  0  0  0  0  0  0
  141.5515   72.8611  226.2571 H   0  0  0  0  0  0  0  0  0  0  0  0
  1  2  1  0
  2  3  1  0
  3  4  2  0
  3  5  1  0
  5  6  1  0
  6  7  1  0
  7  8  2  0
  7  9  1  0
  9 10  1  0
 10 11  1  0
 11 12  2  0
 11 13  1  0
 13 14  2  0
 14 15  1  0
 15 16  2  0
 16 17  1  0
 17 18  2  0
 18 19  1  0
 18 20  1  0
 20 21  2  0
 21 22  1  0
 22 23  2  0
 23 13  1  0
 22 16  1  0
  1 24  1  0
  1 25  1  0
  1 26  1  0
  2 27  1  0
  5 28  1  0
  5 29  1  0
  6 30  1  0
  9 31  1  0
  9 32  1  0
 10 33  1  0
 14 34  1  0
 15 35  1  0
 17 36  1  0
 20 37  1  0
 21 38  1  0
M  END
>  <smiles>  (24) 
CNC(=O)CNC(=O)CNC(=O)c1ccc2cc(Cl)ccc2n1

>  <score_type>  (24) 
oracle

>  <origin>  (24) 
autodockgpu

>  <m_score__min__energy>  (24) 
-7.2199999999999998

>  <m_primary>  (24) 
energy

>  <rmsd>  (24) 
3.7582608587420836

>  <m_score__min__rmsd>  (24) 
3.7582608587420836

>  <meeko>  (24) 
{"free_energy": -6.16, "intermolecular_energy": -7.65, "internal_energy": -2.64, "cluster_size": 18, "cluster_id": 2, "rank_in_cluster": 16}

>  <energy>  (24) 
-6.58

>  <cluster_rmsd>  (24) 
1.7

>  <cluster>  (24) 
2

$$$$

     RDKit          3D

 38 39  0  0  0  0  0  0  0  0999 V2000
  144.0260   74.0420  220.3210 C   0  0  0  0  0  0  0  0  0  0  0  0
  142.7770   74.7860  220.3690 N   0  0  0  0  0  0  0  0  0  0  0  0
  142.7340   76.0450  219.7450 C   0  0  0  0  0  0  0  0  0  0  0  0
  143.6930   76.5810  219.1460 O   0  0  0  0  0  0  0  0  0  0  0  0
  141.4400   76.8070  219.8000 C   0  0  0  0  0  0  0  0  0  0  0  0
  140.2900   75.9610  219.8750 N   0  0  0  0  0  0  0  0  0  0  0  0
  139.9460   75.3560  221.1320 C   0  0  0  0  0  0  0  0  0  0  0  0
  140.6320   75.5500  222.1670 O   0  0  0  0  0  0  0  0  0  0  0  0
  138.7560   74.4950  221.1630 C   0  0  0  0  0  0  0  0  0  0  0  0
  138.8160   73.5370  222.2400 N   0  0  0  0  0  0  0  0  0  0  0  0
  139.8970   72.6130  222.2670 C   0  0  0  0  0  0  0  0  0  0  0  0
  140.7890   72.6270  221.3660 O   0  0  0  0  0  0  0  0  0  0  0  0
  139.9670   71.6340  223.3610 C   0  0  0  0  0  0  0  0  0  0  0  0
  139.5340   70.3390  223.1280 C   0  0  0  0  0  0  0  0  0  0  0  0
  139.6090   69.4250  224.1820 C   0  0  0  0  0  0  0  0  0  0  0  0
  140.1080   69.8390  225.4170 C   0  0  0  0  0  0  0  0  0  0  0  0
  140.1660   68.9040  226.4330 C   0  0  0  0  0  0  0  0  0  0  0  0
  140.6640   69.3040  227.6760 C   0  0  0  0  0  0  0  0  0  0  0  0
  140.7590   68.1530  229.0090 Cl  0  0  0  0  0  0  0  0  0  0  0  0
  141.0770   70.6150  227.8370 C   0  0  0  0  0  0  0  0  0  0  0  0
  141.0270   71.5550  226.8380 C   0  0  0  0  0  0  0  0  0  0  0  0
  140.5320   71.1490  225.6110 C   0  0  0  0  0  0  0  0  0  0  0  0
  140.4330   71.9730  224.5570 N   0  0  0  0  0  0  0  0  0  0  0  0
  144.3702   73.8369  221.3454 H   0  0  0  0  0  0  0  0  0  0  0  0
  143.8665   73.0916  219.7906 H   0  0  0  0  0  0  0  0  0  0  0  0
  144.7858   74.6348  219.7906 H   0  0  0  0  0  0  0  0  0  0  0  0
  141.9190   74.4170  220.8490 H   0  0  0  0  0  0  0  0  0  0  0  0
  141.4544   77.4565  220.6876 H   0  0  0  0  0  0  0  0  0  0  0  0
  141.3608   77.3837  218.8666 H   0  0  0  0  0  0  0  0  0  0  0  0
  139.6830   75.7710  219.0270 H   0  0  0  0  0  0  0  0  0  0  0  0
  137.8641   75.1249  221.2960 H   0  0  0  0  0  0  0  0  0  0  0  0
  138.7103   73.9404  220.2141 H   0  0  0  0  0  0  0  0  0  0  0  0
  138.1090   73.4780  223.0100 H   0  0  0  0  0  0  0  0  0  0  0  0
  139.1434   70.0397  222.1442 H   0  0  0  0  0  0  0  0  0  0  0  0
  139.2768   68.3862  224.0389 H   0  0  0  0  0  0  0  0  0  0  0  0
  139.8285   67.8703  226.2674 H   0  0  0  0  0  0  0  0  0  0  0  0
  141.4666   70.9204  228.8193 H   0  0  0  0  0  0  0  0  0  0  0  0
  141.3662   72.5879  227.0057 H   0  0  0  0  0  0  0  0  0  0  0  0
  1  2  1  0
  2  3  1  0
  3  4  2  0
  3  5  1  0
  5  6  1  0
  6  7  1  0
  7  8  2  0
  7  9  1  0
  9 10  1  0
 10 11  1  0
 11 12  2  0
 11 13  1  0
 13 14  2  0
 14 15  1  0
 15 16  2  0
 16 17  1  0
 17 18  2  0
 18 19  1  0
 18 20  1  0
 20 21  2  0
 21 22  1  0
 22 23  2  0
 23 13  1  0
 22 16  1  0
  1 24  1  0
  1 25  1  0
  1 26  1  0
  2 27  1  0
  5 28  1  0
  5 29  1  0
  6 30  1  0
  9 31  1  0
  9 32  1  0
 10 33  1  0
 14 34  1  0
 15 35  1  0
 17 36  1  0
 20 37  1  0
 21 38  1  0
M  END
>  <smiles>  (25) 
CNC(=O)CNC(=O)CNC(=O)c1ccc2cc(Cl)ccc2n1

>  <score_type>  (25) 
oracle

>  <origin>  (25) 
autodockgpu

>  <m_score__min__energy>  (25) 
-7.2199999999999998

>  <m_primary>  (25) 
energy

>  <rmsd>  (25) 
2.371664895055909

>  <m_score__min__rmsd>  (25) 
2.371664895055909

>  <meeko>  (25) 
{"free_energy": -6.33, "intermolecular_energy": -7.82, "internal_energy": -2.29, "cluster_size": 19, "cluster_id": 1, "rank_in_cluster": 12}

>  <energy>  (25) 
-6.57

>  <cluster_rmsd>  (25) 
1.7

>  <cluster>  (25) 
2

$$$$

     RDKit          3D

 38 39  0  0  0  0  0  0  0  0999 V2000
  143.4170   71.3430  219.4730 C   0  0  0  0  0  0  0  0  0  0  0  0
  142.9440   72.7100  219.6170 N   0  0  0  0  0  0  0  0  0  0  0  0
  143.8830   73.7020  219.9490 C   0  0  0  0  0  0  0  0  0  0  0  0
  145.1050   73.5000  220.1320 O   0  0  0  0  0  0  0  0  0  0  0  0
  143.3870   75.1130  220.0960 C   0  0  0  0  0  0  0  0  0  0  0  0
  142.1840   75.2100  220.8620 N   0  0  0  0  0  0  0  0  0  0  0  0
  140.9180   75.0280  220.2070 C   0  0  0  0  0  0  0  0  0  0  0  0
  140.8420   74.7870  218.9750 O   0  0  0  0  0  0  0  0  0  0  0  0
  139.7090   75.1360  221.0330 C   0  0  0  0  0  0  0  0  0  0  0  0
  139.7260   74.2030  222.1330 N   0  0  0  0  0  0  0  0  0  0  0  0
  139.9980   72.8350  221.8580 C   0  0  0  0  0  0  0  0  0  0  0  0
  140.2190   72.4390  220.6740 O   0  0  0  0  0  0  0  0  0  0  0  0
  140.0180   71.8780  222.9730 C   0  0  0  0  0  0  0  0  0  0  0  0
  139.5430   70.5940  222.7620 C   0  0  0  0  0  0  0  0  0  0  0  0
  139.5720   69.7010  223.8360 C   0  0  0  0  0  0  0  0  0  0  0  0
  140.0690   70.1230  225.0680 C   0  0  0  0  0  0  0  0  0  0  0  0
  140.0810   69.2090  226.1050 C   0  0  0  0  0  0  0  0  0  0  0  0
  140.5760   69.6190  227.3460 C   0  0  0  0  0  0  0  0  0  0  0  0
  140.6130   68.4940  228.7050 Cl  0  0  0  0  0  0  0  0  0  0  0  0
  141.0340   70.9170  227.4850 C   0  0  0  0  0  0  0  0  0  0  0  0
  141.0300   71.8360  226.4660 C   0  0  0  0  0  0  0  0  0  0  0  0
  140.5370   71.4220  225.2410 C   0  0  0  0  0  0  0  0  0  0  0  0
  140.4810   72.2260  224.1680 N   0  0  0  0  0  0  0  0  0  0  0  0
  143.5699   70.9011  220.4687 H   0  0  0  0  0  0  0  0  0  0  0  0
  142.6708   70.7530  218.9207 H   0  0  0  0  0  0  0  0  0  0  0  0
  144.3683   71.3404  218.9207 H   0  0  0  0  0  0  0  0  0  0  0  0
  141.9370   72.9760  219.4830 H   0  0  0  0  0  0  0  0  0  0  0  0
  144.1672   75.7078  220.5935 H   0  0  0  0  0  0  0  0  0  0  0  0
  143.1628   75.4876  219.0863 H   0  0  0  0  0  0  0  0  0  0  0  0
  142.2020   75.4120  221.9020 H   0  0  0  0  0  0  0  0  0  0  0  0
  139.6421   76.1581  221.4342 H   0  0  0  0  0  0  0  0  0  0  0  0
  138.8405   74.9019  220.3998 H   0  0  0  0  0  0  0  0  0  0  0  0
  139.5500   74.4720  223.1300 H   0  0  0  0  0  0  0  0  0  0  0  0
  139.1551   70.2871  221.7795 H   0  0  0  0  0  0  0  0  0  0  0  0
  139.2051   68.6717  223.7102 H   0  0  0  0  0  0  0  0  0  0  0  0
  139.7100   68.1841  225.9570 H   0  0  0  0  0  0  0  0  0  0  0  0
  141.4224   71.2293  228.4656 H   0  0  0  0  0  0  0  0  0  0  0  0
  141.4033   72.8597  226.6167 H   0  0  0  0  0  0  0  0  0  0  0  0
  1  2  1  0
  2  3  1  0
  3  4  2  0
  3  5  1  0
  5  6  1  0
  6  7  1  0
  7  8  2  0
  7  9  1  0
  9 10  1  0
 10 11  1  0
 11 12  2  0
 11 13  1  0
 13 14  2  0
 14 15  1  0
 15 16  2  0
 16 17  1  0
 17 18  2  0
 18 19  1  0
 18 20  1  0
 20 21  2  0
 21 22  1  0
 22 23  2  0
 23 13  1  0
 22 16  1  0
  1 24  1  0
  1 25  1  0
  1 26  1  0
  2 27  1  0
  5 28  1  0
  5 29  1  0
  6 30  1  0
  9 31  1  0
  9 32  1  0
 10 33  1  0
 14 34  1  0
 15 35  1  0
 17 36  1  0
 20 37  1  0
 21 38  1  0
M  END
>  <smiles>  (26) 
CNC(=O)CNC(=O)CNC(=O)c1ccc2cc(Cl)ccc2n1

>  <score_type>  (26) 
oracle

>  <origin>  (26) 
autodockgpu

>  <m_score__min__energy>  (26) 
-7.2199999999999998

>  <m_primary>  (26) 
energy

>  <rmsd>  (26) 
3.4676435049918064

>  <m_score__min__rmsd>  (26) 
3.4676435049918064

>  <meeko>  (26) 
{"free_energy": -6.33, "intermolecular_energy": -7.83, "internal_energy": -2.58, "cluster_size": 18, "cluster_id": 2, "rank_in_cluster": 13}

>  <energy>  (26) 
-6.57

>  <cluster_rmsd>  (26) 
1.7

>  <cluster>  (26) 
2

$$$$

     RDKit          3D

 38 39  0  0  0  0  0  0  0  0999 V2000
  133.2580   76.5440  224.5200 C   0  0  0  0  0  0  0  0  0  0  0  0
  133.9090   75.2660  224.2780 N   0  0  0  0  0  0  0  0  0  0  0  0
  133.9810   74.3500  225.3420 C   0  0  0  0  0  0  0  0  0  0  0  0
  133.5260   74.5490  226.4910 O   0  0  0  0  0  0  0  0  0  0  0  0
  134.6560   73.0320  225.0850 C   0  0  0  0  0  0  0  0  0  0  0  0
  135.7960   73.1400  224.2290 N   0  0  0  0  0  0  0  0  0  0  0  0
  135.6070   73.1460  222.8060 C   0  0  0  0  0  0  0  0  0  0  0  0
  134.4620   73.0580  222.2920 O   0  0  0  0  0  0  0  0  0  0  0  0
  136.8060   73.2590  221.9660 C   0  0  0  0  0  0  0  0  0  0  0  0
  137.5750   74.4370  222.2850 N   0  0  0  0  0  0  0  0  0  0  0  0
  136.9390   75.7070  222.1980 C   0  0  0  0  0  0  0  0  0  0  0  0
  135.7260   75.8050  221.8470 O   0  0  0  0  0  0  0  0  0  0  0  0
  137.7150   76.9120  222.5230 C   0  0  0  0  0  0  0  0  0  0  0  0
  137.0390   78.0900  222.7950 C   0  0  0  0  0  0  0  0  0  0  0  0
  137.7960   79.2230  223.1010 C   0  0  0  0  0  0  0  0  0  0  0  0
  139.1880   79.1360  223.1220 C   0  0  0  0  0  0  0  0  0  0  0  0
  139.9000   80.2790  223.4290 C   0  0  0  0  0  0  0  0  0  0  0  0
  141.2960   80.2060  223.4530 C   0  0  0  0  0  0  0  0  0  0  0  0
  142.2560   81.6350  223.8380 Cl  0  0  0  0  0  0  0  0  0  0  0  0
  141.9040   78.9960  223.1700 C   0  0  0  0  0  0  0  0  0  0  0  0
  141.2110   77.8510  222.8630 C   0  0  0  0  0  0  0  0  0  0  0  0
  139.8310   77.9340  222.8410 C   0  0  0  0  0  0  0  0  0  0  0  0
  139.0420   76.8860  222.5560 N   0  0  0  0  0  0  0  0  0  0  0  0
  133.1722   76.7124  225.6036 H   0  0  0  0  0  0  0  0  0  0  0  0
  133.8550   77.3507  224.0697 H   0  0  0  0  0  0  0  0  0  0  0  0
  132.2544   76.5354  224.0697 H   0  0  0  0  0  0  0  0  0  0  0  0
  134.3210   75.0100  223.3470 H   0  0  0  0  0  0  0  0  0  0  0  0
  134.9808   72.6120  226.0484 H   0  0  0  0  0  0  0  0  0  0  0  0
  133.9261   72.3847  224.5768 H   0  0  0  0  0  0  0  0  0  0  0  0
  136.7780   73.2170  224.6200 H   0  0  0  0  0  0  0  0  0  0  0  0
  137.4350   72.3702  222.1221 H   0  0  0  0  0  0  0  0  0  0  0  0
  136.4826   73.3356  220.9174 H   0  0  0  0  0  0  0  0  0  0  0  0
  138.5800   74.4180  222.5800 H   0  0  0  0  0  0  0  0  0  0  0  0
  135.9401   78.1318  222.7707 H   0  0  0  0  0  0  0  0  0  0  0  0
  137.2977   80.1780  223.3240 H   0  0  0  0  0  0  0  0  0  0  0  0
  139.3813   81.2237  223.6493 H   0  0  0  0  0  0  0  0  0  0  0  0
  143.0028   78.9485  223.1921 H   0  0  0  0  0  0  0  0  0  0  0  0
  141.7319   76.9073  222.6438 H   0  0  0  0  0  0  0  0  0  0  0  0
  1  2  1  0
  2  3  1  0
  3  4  2  0
  3  5  1  0
  5  6  1  0
  6  7  1  0
  7  8  2  0
  7  9  1  0
  9 10  1  0
 10 11  1  0
 11 12  2  0
 11 13  1  0
 13 14  2  0
 14 15  1  0
 15 16  2  0
 16 17  1  0
 17 18  2  0
 18 19  1  0
 18 20  1  0
 20 21  2  0
 21 22  1  0
 22 23  2  0
 23 13  1  0
 22 16  1  0
  1 24  1  0
  1 25  1  0
  1 26  1  0
  2 27  1  0
  5 28  1  0
  5 29  1  0
  6 30  1  0
  9 31  1  0
  9 32  1  0
 10 33  1  0
 14 34  1  0
 15 35  1  0
 17 36  1  0
 20 37  1  0
 21 38  1  0
M  END
>  <smiles>  (27) 
CNC(=O)CNC(=O)CNC(=O)c1ccc2cc(Cl)ccc2n1

>  <score_type>  (27) 
oracle

>  <origin>  (27) 
autodockgpu

>  <m_score__min__energy>  (27) 
-7.2199999999999998

>  <m_primary>  (27) 
energy

>  <rmsd>  (27) 
8.285831746045067

>  <m_score__min__rmsd>  (27) 
8.285831746045067

>  <meeko>  (27) 
{"free_energy": -5.38, "intermolecular_energy": -6.87, "internal_energy": -2.69, "cluster_size": 2, "cluster_id": 6, "rank_in_cluster": 2}

>  <energy>  (27) 
-6.55

>  <cluster_rmsd>  (27) 
1.71

>  <cluster>  (27) 
2

$$$$

     RDKit          3D

 38 39  0  0  0  0  0  0  0  0999 V2000
  144.6340   74.4280  220.1140 C   0  0  0  0  0  0  0  0  0  0  0  0
  143.4810   75.2720  220.3850 N   0  0  0  0  0  0  0  0  0  0  0  0
  143.0750   76.1760  219.3870 C   0  0  0  0  0  0  0  0  0  0  0  0
  143.6330   76.3130  218.2750 O   0  0  0  0  0  0  0  0  0  0  0  0
  141.8830   77.0440  219.6750 C   0  0  0  0  0  0  0  0  0  0  0  0
  140.6690   76.3050  219.8210 N   0  0  0  0  0  0  0  0  0  0  0  0
  140.4960   75.4590  220.9690 C   0  0  0  0  0  0  0  0  0  0  0  0
  141.3880   75.3510  221.8490 O   0  0  0  0  0  0  0  0  0  0  0  0
  139.2320   74.7180  221.0780 C   0  0  0  0  0  0  0  0  0  0  0  0
  139.2560   73.7760  222.1690 N   0  0  0  0  0  0  0  0  0  0  0  0
  139.9830   72.5640  222.0040 C   0  0  0  0  0  0  0  0  0  0  0  0
  140.5960   72.3140  220.9230 O   0  0  0  0  0  0  0  0  0  0  0  0
  140.0130   71.5980  223.1120 C   0  0  0  0  0  0  0  0  0  0  0  0
  139.5190   70.3220  222.8990 C   0  0  0  0  0  0  0  0  0  0  0  0
  139.5570   69.4200  223.9670 C   0  0  0  0  0  0  0  0  0  0  0  0
  140.0830   69.8270  225.1920 C   0  0  0  0  0  0  0  0  0  0  0  0
  140.1030   68.9060  226.2220 C   0  0  0  0  0  0  0  0  0  0  0  0
  140.6270   69.2990  227.4560 C   0  0  0  0  0  0  0  0  0  0  0  0
  140.6760   68.1640  228.8050 Cl  0  0  0  0  0  0  0  0  0  0  0  0
  141.1030   70.5910  227.5950 C   0  0  0  0  0  0  0  0  0  0  0  0
  141.0910   71.5180  226.5830 C   0  0  0  0  0  0  0  0  0  0  0  0
  140.5690   71.1190  225.3660 C   0  0  0  0  0  0  0  0  0  0  0  0
  140.5020   71.9320  224.3000 N   0  0  0  0  0  0  0  0  0  0  0  0
  145.0806   74.1011  221.0646 H   0  0  0  0  0  0  0  0  0  0  0  0
  144.3162   73.5476  219.5362 H   0  0  0  0  0  0  0  0  0  0  0  0
  145.3772   74.9970  219.5362 H   0  0  0  0  0  0  0  0  0  0  0  0
  142.9500   75.2270  221.2890 H   0  0  0  0  0  0  0  0  0  0  0  0
  142.0702   77.5962  220.6078 H   0  0  0  0  0  0  0  0  0  0  0  0
  141.7538   77.7168  218.8144 H   0  0  0  0  0  0  0  0  0  0  0  0
  139.8910   76.3670  219.1030 H   0  0  0  0  0  0  0  0  0  0  0  0
  138.4130   75.4335  221.2433 H   0  0  0  0  0  0  0  0  0  0  0  0
  139.0836   74.1559  220.1442 H   0  0  0  0  0  0  0  0  0  0  0  0
  138.7690   73.9280  223.0840 H   0  0  0  0  0  0  0  0  0  0  0  0
  139.1099   70.0274  221.9213 H   0  0  0  0  0  0  0  0  0  0  0  0
  139.1745   68.3964  223.8412 H   0  0  0  0  0  0  0  0  0  0  0  0
  139.7154   67.8873  226.0738 H   0  0  0  0  0  0  0  0  0  0  0  0
  141.5135   70.8915  228.5703 H   0  0  0  0  0  0  0  0  0  0  0  0
  141.4803   72.5357  226.7335 H   0  0  0  0  0  0  0  0  0  0  0  0
  1  2  1  0
  2  3  1  0
  3  4  2  0
  3  5  1  0
  5  6  1  0
  6  7  1  0
  7  8  2  0
  7  9  1  0
  9 10  1  0
 10 11  1  0
 11 12  2  0
 11 13  1  0
 13 14  2  0
 14 15  1  0
 15 16  2  0
 16 17  1  0
 17 18  2  0
 18 19  1  0
 18 20  1  0
 20 21  2  0
 21 22  1  0
 22 23  2  0
 23 13  1  0
 22 16  1  0
  1 24  1  0
  1 25  1  0
  1 26  1  0
  2 27  1  0
  5 28  1  0
  5 29  1  0
  6 30  1  0
  9 31  1  0
  9 32  1  0
 10 33  1  0
 14 34  1  0
 15 35  1  0
 17 36  1  0
 20 37  1  0
 21 38  1  0
M  END
>  <smiles>  (28) 
CNC(=O)CNC(=O)CNC(=O)c1ccc2cc(Cl)ccc2n1

>  <score_type>  (28) 
oracle

>  <origin>  (28) 
autodockgpu

>  <m_score__min__energy>  (28) 
-7.2199999999999998

>  <m_primary>  (28) 
energy

>  <rmsd>  (28) 
2.44931561721911

>  <m_score__min__rmsd>  (28) 
2.44931561721911

>  <meeko>  (28) 
{"free_energy": -6.65, "intermolecular_energy": -8.14, "internal_energy": -1.68, "cluster_size": 19, "cluster_id": 1, "rank_in_cluster": 8}

>  <energy>  (28) 
-6.51

>  <cluster_rmsd>  (28) 
1.67

>  <cluster>  (28) 
2

$$$$

     RDKit          3D

 38 39  0  0  0  0  0  0  0  0999 V2000
  144.8920   72.0720  220.0940 C   0  0  0  0  0  0  0  0  0  0  0  0
  143.8490   73.0570  219.8580 N   0  0  0  0  0  0  0  0  0  0  0  0
  144.1580   74.4110  220.0750 C   0  0  0  0  0  0  0  0  0  0  0  0
  145.2690   74.8400  220.4590 O   0  0  0  0  0  0  0  0  0  0  0  0
  143.0740   75.4230  219.8290 C   0  0  0  0  0  0  0  0  0  0  0  0
  141.7640   74.9250  220.1110 N   0  0  0  0  0  0  0  0  0  0  0  0
  140.8520   75.7370  220.8670 C   0  0  0  0  0  0  0  0  0  0  0  0
  141.1780   76.8760  221.2890 O   0  0  0  0  0  0  0  0  0  0  0  0
  139.5170   75.1860  221.1320 C   0  0  0  0  0  0  0  0  0  0  0  0
  139.5380   74.2240  222.2070 N   0  0  0  0  0  0  0  0  0  0  0  0
  139.9970   72.9070  221.9290 C   0  0  0  0  0  0  0  0  0  0  0  0
  140.3790   72.5810  220.7650 O   0  0  0  0  0  0  0  0  0  0  0  0
  140.0220   71.9200  223.0180 C   0  0  0  0  0  0  0  0  0  0  0  0
  139.5530   70.6410  222.7730 C   0  0  0  0  0  0  0  0  0  0  0  0
  139.5860   69.7190  223.8230 C   0  0  0  0  0  0  0  0  0  0  0  0
  140.0830   70.1110  225.0660 C   0  0  0  0  0  0  0  0  0  0  0  0
  140.0990   69.1700  226.0780 C   0  0  0  0  0  0  0  0  0  0  0  0
  140.5940   69.5480  227.3290 C   0  0  0  0  0  0  0  0  0  0  0  0
  140.6370   68.3870  228.6570 Cl  0  0  0  0  0  0  0  0  0  0  0  0
  141.0460   70.8440  227.5020 C   0  0  0  0  0  0  0  0  0  0  0  0
  141.0380   71.7900  226.5080 C   0  0  0  0  0  0  0  0  0  0  0  0
  140.5450   71.4070  225.2730 C   0  0  0  0  0  0  0  0  0  0  0  0
  140.4850   72.2380  224.2220 N   0  0  0  0  0  0  0  0  0  0  0  0
  145.0327   71.9392  221.1768 H   0  0  0  0  0  0  0  0  0  0  0  0
  144.5996   71.1128  219.6418 H   0  0  0  0  0  0  0  0  0  0  0  0
  145.8329   72.4188  219.6418 H   0  0  0  0  0  0  0  0  0  0  0  0
  142.8860   72.7910  219.5350 H   0  0  0  0  0  0  0  0  0  0  0  0
  143.2607   76.2979  220.4691 H   0  0  0  0  0  0  0  0  0  0  0  0
  143.1030   75.6796  218.7597 H   0  0  0  0  0  0  0  0  0  0  0  0
  141.4480   73.9710  219.7740 H   0  0  0  0  0  0  0  0  0  0  0  0
  138.8397   76.0090  221.4039 H   0  0  0  0  0  0  0  0  0  0  0  0
  139.1716   74.6740  220.2218 H   0  0  0  0  0  0  0  0  0  0  0  0
  139.2340   74.4350  223.1870 H   0  0  0  0  0  0  0  0  0  0  0  0
  139.1663   70.3589  221.7826 H   0  0  0  0  0  0  0  0  0  0  0  0
  139.2228   68.6920  223.6703 H   0  0  0  0  0  0  0  0  0  0  0  0
  139.7310   68.1482  225.9030 H   0  0  0  0  0  0  0  0  0  0  0  0
  141.4331   71.1320  228.4906 H   0  0  0  0  0  0  0  0  0  0  0  0
  141.4081   72.8105  226.6855 H   0  0  0  0  0  0  0  0  0  0  0  0
  1  2  1  0
  2  3  1  0
  3  4  2  0
  3  5  1  0
  5  6  1  0
  6  7  1  0
  7  8  2  0
  7  9  1  0
  9 10  1  0
 10 11  1  0
 11 12  2  0
 11 13  1  0
 13 14  2  0
 14 15  1  0
 15 16  2  0
 16 17  1  0
 17 18  2  0
 18 19  1  0
 18 20  1  0
 20 21  2  0
 21 22  1  0
 22 23  2  0
 23 13  1  0
 22 16  1  0
  1 24  1  0
  1 25  1  0
  1 26  1  0
  2 27  1  0
  5 28  1  0
  5 29  1  0
  6 30  1  0
  9 31  1  0
  9 32  1  0
 10 33  1  0
 14 34  1  0
 15 35  1  0
 17 36  1  0
 20 37  1  0
 21 38  1  0
M  END
>  <smiles>  (29) 
CNC(=O)CNC(=O)CNC(=O)c1ccc2cc(Cl)ccc2n1

>  <score_type>  (29) 
oracle

>  <origin>  (29) 
autodockgpu

>  <m_score__min__energy>  (29) 
-7.2199999999999998

>  <m_primary>  (29) 
energy

>  <rmsd>  (29) 
3.29536995322759

>  <m_score__min__rmsd>  (29) 
3.29536995322759

>  <meeko>  (29) 
{"free_energy": -6.17, "intermolecular_energy": -7.66, "internal_energy": -1.96, "cluster_size": 18, "cluster_id": 2, "rank_in_cluster": 15}

>  <energy>  (29) 
-6.49

>  <cluster_rmsd>  (29) 
1.67

>  <cluster>  (29) 
2

$$$$

     RDKit          3D

 38 39  0  0  0  0  0  0  0  0999 V2000
  145.1640   73.1060  216.7530 C   0  0  0  0  0  0  0  0  0  0  0  0
  144.6220   74.1270  217.6350 N   0  0  0  0  0  0  0  0  0  0  0  0
  143.3890   73.8720  218.2610 C   0  0  0  0  0  0  0  0  0  0  0  0
  142.7170   72.8260  218.1190 O   0  0  0  0  0  0  0  0  0  0  0  0
  142.8350   74.9320  219.1700 C   0  0  0  0  0  0  0  0  0  0  0  0
  141.5270   74.6290  219.6590 N   0  0  0  0  0  0  0  0  0  0  0  0
  140.9090   75.5130  220.6070 C   0  0  0  0  0  0  0  0  0  0  0  0
  141.4910   76.5490  221.0190 O   0  0  0  0  0  0  0  0  0  0  0  0
  139.5640   75.1620  221.0810 C   0  0  0  0  0  0  0  0  0  0  0  0
  139.6100   74.2220  222.1740 N   0  0  0  0  0  0  0  0  0  0  0  0
  139.9310   72.8660  221.8890 C   0  0  0  0  0  0  0  0  0  0  0  0
  140.1700   72.4870  220.7030 O   0  0  0  0  0  0  0  0  0  0  0  0
  139.9800   71.9010  222.9970 C   0  0  0  0  0  0  0  0  0  0  0  0
  139.5130   70.6140  222.7840 C   0  0  0  0  0  0  0  0  0  0  0  0
  139.5700   69.7140  223.8520 C   0  0  0  0  0  0  0  0  0  0  0  0
  140.0860   70.1320  225.0780 C   0  0  0  0  0  0  0  0  0  0  0  0
  140.1250   69.2110  226.1070 C   0  0  0  0  0  0  0  0  0  0  0  0
  140.6390   69.6160  227.3410 C   0  0  0  0  0  0  0  0  0  0  0  0
  140.7120   68.4820  228.6910 Cl  0  0  0  0  0  0  0  0  0  0  0  0
  141.0870   70.9170  227.4810 C   0  0  0  0  0  0  0  0  0  0  0  0
  141.0570   71.8440  226.4690 C   0  0  0  0  0  0  0  0  0  0  0  0
  140.5450   71.4340  225.2510 C   0  0  0  0  0  0  0  0  0  0  0  0
  140.4610   72.2440  224.1860 N   0  0  0  0  0  0  0  0  0  0  0  0
  145.5957   72.2929  217.3551 H   0  0  0  0  0  0  0  0  0  0  0  0
  144.3599   72.7052  216.1183 H   0  0  0  0  0  0  0  0  0  0  0  0
  145.9465   73.5475  216.1183 H   0  0  0  0  0  0  0  0  0  0  0  0
  145.1150   75.0370  217.8140 H   0  0  0  0  0  0  0  0  0  0  0  0
  143.5121   75.0437  220.0297 H   0  0  0  0  0  0  0  0  0  0  0  0
  142.7568   75.8580  218.5815 H   0  0  0  0  0  0  0  0  0  0  0  0
  141.0000   73.7660  219.3380 H   0  0  0  0  0  0  0  0  0  0  0  0
  139.0556   76.0769  221.4193 H   0  0  0  0  0  0  0  0  0  0  0  0
  139.0197   74.6922  220.2485 H   0  0  0  0  0  0  0  0  0  0  0  0
  139.4200   74.4760  223.1730 H   0  0  0  0  0  0  0  0  0  0  0  0
  139.1105   70.3104  221.8063 H   0  0  0  0  0  0  0  0  0  0  0  0
  139.2100   68.6822  223.7260 H   0  0  0  0  0  0  0  0  0  0  0  0
  139.7602   68.1840  225.9582 H   0  0  0  0  0  0  0  0  0  0  0  0
  141.4895   71.2259  228.4570 H   0  0  0  0  0  0  0  0  0  0  0  0
  141.4246   72.8697  226.6202 H   0  0  0  0  0  0  0  0  0  0  0  0
  1  2  1  0
  2  3  1  0
  3  4  2  0
  3  5  1  0
  5  6  1  0
  6  7  1  0
  7  8  2  0
  7  9  1  0
  9 10  1  0
 10 11  1  0
 11 12  2  0
 11 13  1  0
 13 14  2  0
 14 15  1  0
 15 16  2  0
 16 17  1  0
 17 18  2  0
 18 19  1  0
 18 20  1  0
 20 21  2  0
 21 22  1  0
 22 23  2  0
 23 13  1  0
 22 16  1  0
  1 24  1  0
  1 25  1  0
  1 26  1  0
  2 27  1  0
  5 28  1  0
  5 29  1  0
  6 30  1  0
  9 31  1  0
  9 32  1  0
 10 33  1  0
 14 34  1  0
 15 35  1  0
 17 36  1  0
 20 37  1  0
 21 38  1  0
M  END
>  <smiles>  (30) 
CNC(=O)CNC(=O)CNC(=O)c1ccc2cc(Cl)ccc2n1

>  <score_type>  (30) 
oracle

>  <origin>  (30) 
autodockgpu

>  <m_score__min__energy>  (30) 
-7.2199999999999998

>  <m_primary>  (30) 
energy

>  <rmsd>  (30) 
3.5316965413491097

>  <m_score__min__rmsd>  (30) 
3.5316965413491097

>  <meeko>  (30) 
{"free_energy": -5.85, "intermolecular_energy": -7.34, "internal_energy": -2.23, "cluster_size": 18, "cluster_id": 2, "rank_in_cluster": 18}

>  <energy>  (30) 
-6.41

>  <cluster_rmsd>  (30) 
1.66

>  <cluster>  (30) 
2

$$$$

     RDKit          3D

 38 39  0  0  0  0  0  0  0  0999 V2000
  142.7200   80.6240  223.7160 C   0  0  0  0  0  0  0  0  0  0  0  0
  142.6410   79.5870  222.7000 N   0  0  0  0  0  0  0  0  0  0  0  0
  141.4960   78.7710  222.6780 C   0  0  0  0  0  0  0  0  0  0  0  0
  140.5320   78.8670  223.4700 O   0  0  0  0  0  0  0  0  0  0  0  0
  141.4220   77.7010  221.6260 C   0  0  0  0  0  0  0  0  0  0  0  0
  140.2380   76.9050  221.7140 N   0  0  0  0  0  0  0  0  0  0  0  0
  140.1110   75.7410  220.8820 C   0  0  0  0  0  0  0  0  0  0  0  0
  141.0160   75.4050  220.0760 O   0  0  0  0  0  0  0  0  0  0  0  0
  138.8780   74.9520  221.0060 C   0  0  0  0  0  0  0  0  0  0  0  0
  138.9560   74.0030  222.0900 N   0  0  0  0  0  0  0  0  0  0  0  0
  139.8240   72.8850  221.9520 C   0  0  0  0  0  0  0  0  0  0  0  0
  140.5140   72.7220  220.9010 O   0  0  0  0  0  0  0  0  0  0  0  0
  139.9100   71.9140  223.0510 C   0  0  0  0  0  0  0  0  0  0  0  0
  139.4850   70.6140  222.8300 C   0  0  0  0  0  0  0  0  0  0  0  0
  139.5760   69.7080  223.8900 C   0  0  0  0  0  0  0  0  0  0  0  0
  140.0830   70.1330  225.1180 C   0  0  0  0  0  0  0  0  0  0  0  0
  140.1560   69.2060  226.1390 C   0  0  0  0  0  0  0  0  0  0  0  0
  140.6620   69.6170  227.3750 C   0  0  0  0  0  0  0  0  0  0  0  0
  140.7780   68.4760  228.7150 Cl  0  0  0  0  0  0  0  0  0  0  0  0
  141.0680   70.9320  227.5240 C   0  0  0  0  0  0  0  0  0  0  0  0
  141.0020   71.8650  226.5190 C   0  0  0  0  0  0  0  0  0  0  0  0
  140.4990   71.4480  225.3000 C   0  0  0  0  0  0  0  0  0  0  0  0
  140.3850   72.2640  224.2410 N   0  0  0  0  0  0  0  0  0  0  0  0
  142.6849   80.1629  224.7141 H   0  0  0  0  0  0  0  0  0  0  0  0
  143.6630   81.1786  223.6013 H   0  0  0  0  0  0  0  0  0  0  0  0
  141.8719   81.3151  223.6013 H   0  0  0  0  0  0  0  0  0  0  0  0
  143.4010   79.4310  221.9930 H   0  0  0  0  0  0  0  0  0  0  0  0
  141.4476   78.1812  220.6367 H   0  0  0  0  0  0  0  0  0  0  0  0
  142.2793   77.0296  221.7821 H   0  0  0  0  0  0  0  0  0  0  0  0
  139.4510   77.1510  222.3800 H   0  0  0  0  0  0  0  0  0  0  0  0
  138.0354   75.6347  221.1904 H   0  0  0  0  0  0  0  0  0  0  0  0
  138.7352   74.3914  220.0704 H   0  0  0  0  0  0  0  0  0  0  0  0
  138.4100   74.0860  222.9800 H   0  0  0  0  0  0  0  0  0  0  0  0
  139.0886   70.3049  221.8515 H   0  0  0  0  0  0  0  0  0  0  0  0
  139.2498   68.6660  223.7568 H   0  0  0  0  0  0  0  0  0  0  0  0
  139.8238   68.1690  225.9831 H   0  0  0  0  0  0  0  0  0  0  0  0
  141.4650   71.2464  228.5005 H   0  0  0  0  0  0  0  0  0  0  0  0
  141.3354   72.9013  226.6768 H   0  0  0  0  0  0  0  0  0  0  0  0
  1  2  1  0
  2  3  1  0
  3  4  2  0
  3  5  1  0
  5  6  1  0
  6  7  1  0
  7  8  2  0
  7  9  1  0
  9 10  1  0
 10 11  1  0
 11 12  2  0
 11 13  1  0
 13 14  2  0
 14 15  1  0
 15 16  2  0
 16 17  1  0
 17 18  2  0
 18 19  1  0
 18 20  1  0
 20 21  2  0
 21 22  1  0
 22 23  2  0
 23 13  1  0
 22 16  1  0
  1 24  1  0
  1 25  1  0
  1 26  1  0
  2 27  1  0
  5 28  1  0
  5 29  1  0
  6 30  1  0
  9 31  1  0
  9 32  1  0
 10 33  1  0
 14 34  1  0
 15 35  1  0
 17 36  1  0
 20 37  1  0
 21 38  1  0
M  END
>  <smiles>  (31) 
CNC(=O)CNC(=O)CNC(=O)c1ccc2cc(Cl)ccc2n1

>  <score_type>  (31) 
oracle

>  <origin>  (31) 
autodockgpu

>  <m_score__min__energy>  (31) 
-7.2199999999999998

>  <m_primary>  (31) 
energy

>  <rmsd>  (31) 
1.7476532174308497

>  <m_score__min__rmsd>  (31) 
1.7476532174308497

>  <meeko>  (31) 
{"free_energy": -7.22, "intermolecular_energy": -8.72, "internal_energy": -1.4, "cluster_size": 19, "cluster_id": 1, "rank_in_cluster": 1}

>  <energy>  (31) 
-6.39

>  <cluster_rmsd>  (31) 
1.62

>  <cluster>  (31) 
2

$$$$

     RDKit          3D

 38 39  0  0  0  0  0  0  0  0999 V2000
  133.8600   76.7360  225.0630 C   0  0  0  0  0  0  0  0  0  0  0  0
  134.3250   75.4350  224.6100 N   0  0  0  0  0  0  0  0  0  0  0  0
  134.1560   74.3370  225.4710 C   0  0  0  0  0  0  0  0  0  0  0  0
  133.6330   74.3910  226.6070 O   0  0  0  0  0  0  0  0  0  0  0  0
  134.6380   72.9950  224.9950 C   0  0  0  0  0  0  0  0  0  0  0  0
  135.8070   73.0750  224.1760 N   0  0  0  0  0  0  0  0  0  0  0  0
  135.6690   73.4150  222.7870 C   0  0  0  0  0  0  0  0  0  0  0  0
  134.5440   73.6440  222.2730 O   0  0  0  0  0  0  0  0  0  0  0  0
  136.8960   73.4860  221.9840 C   0  0  0  0  0  0  0  0  0  0  0  0
  137.6970   74.6350  222.3290 N   0  0  0  0  0  0  0  0  0  0  0  0
  137.0930   75.9220  222.2810 C   0  0  0  0  0  0  0  0  0  0  0  0
  135.8800   76.0610  221.9420 O   0  0  0  0  0  0  0  0  0  0  0  0
  137.9020   77.0980  222.6320 C   0  0  0  0  0  0  0  0  0  0  0  0
  137.2610   78.3000  222.8820 C   0  0  0  0  0  0  0  0  0  0  0  0
  138.0500   79.4050  223.2130 C   0  0  0  0  0  0  0  0  0  0  0  0
  139.4360   79.2660  223.2810 C   0  0  0  0  0  0  0  0  0  0  0  0
  140.1790   80.3820  223.6120 C   0  0  0  0  0  0  0  0  0  0  0  0
  141.5690   80.2570  223.6840 C   0  0  0  0  0  0  0  0  0  0  0  0
  142.5680   81.6500  224.1020 Cl  0  0  0  0  0  0  0  0  0  0  0  0
  142.1410   79.0250  223.4210 C   0  0  0  0  0  0  0  0  0  0  0  0
  141.4170   77.9070  223.0910 C   0  0  0  0  0  0  0  0  0  0  0  0
  140.0420   78.0410  223.0220 C   0  0  0  0  0  0  0  0  0  0  0  0
  139.2260   77.0230  222.7100 N   0  0  0  0  0  0  0  0  0  0  0  0
  133.8515   76.7598  226.1627 H   0  0  0  0  0  0  0  0  0  0  0  0
  134.5341   77.5185  224.6845 H   0  0  0  0  0  0  0  0  0  0  0  0
  132.8426   76.9139  224.6845 H   0  0  0  0  0  0  0  0  0  0  0  0
  134.7760   75.2930  223.6720 H   0  0  0  0  0  0  0  0  0  0  0  0
  134.8683   72.3744  225.8735 H   0  0  0  0  0  0  0  0  0  0  0  0
  133.8369   72.5590  224.3800 H   0  0  0  0  0  0  0  0  0  0  0  0
  136.7740   72.8910  224.5680 H   0  0  0  0  0  0  0  0  0  0  0  0
  137.4876   72.5749  222.1567 H   0  0  0  0  0  0  0  0  0  0  0  0
  136.6074   73.5759  220.9263 H   0  0  0  0  0  0  0  0  0  0  0  0
  138.7030   74.5820  222.6160 H   0  0  0  0  0  0  0  0  0  0  0  0
  136.1657   78.3823  222.8219 H   0  0  0  0  0  0  0  0  0  0  0  0
  137.5807   80.3784  223.4186 H   0  0  0  0  0  0  0  0  0  0  0  0
  139.6887   81.3457  223.8140 H   0  0  0  0  0  0  0  0  0  0  0  0
  143.2359   78.9369  223.4796 H   0  0  0  0  0  0  0  0  0  0  0  0
  141.9096   76.9443  222.8897 H   0  0  0  0  0  0  0  0  0  0  0  0
  1  2  1  0
  2  3  1  0
  3  4  2  0
  3  5  1  0
  5  6  1  0
  6  7  1  0
  7  8  2  0
  7  9  1  0
  9 10  1  0
 10 11  1  0
 11 12  2  0
 11 13  1  0
 13 14  2  0
 14 15  1  0
 15 16  2  0
 16 17  1  0
 17 18  2  0
 18 19  1  0
 18 20  1  0
 20 21  2  0
 21 22  1  0
 22 23  2  0
 23 13  1  0
 22 16  1  0
  1 24  1  0
  1 25  1  0
  1 26  1  0
  2 27  1  0
  5 28  1  0
  5 29  1  0
  6 30  1  0
  9 31  1  0
  9 32  1  0
 10 33  1  0
 14 34  1  0
 15 35  1  0
 17 36  1  0
 20 37  1  0
 21 38  1  0
M  END
>  <smiles>  (32) 
CNC(=O)CNC(=O)CNC(=O)c1ccc2cc(Cl)ccc2n1

>  <score_type>  (32) 
oracle

>  <origin>  (32) 
autodockgpu

>  <m_score__min__energy>  (32) 
-7.2199999999999998

>  <m_primary>  (32) 
energy

>  <rmsd>  (32) 
8.266791491583879

>  <m_score__min__rmsd>  (32) 
8.266791491583879

>  <meeko>  (32) 
{"free_energy": -5.56, "intermolecular_energy": -7.06, "internal_energy": -2.67, "cluster_size": 2, "cluster_id": 6, "rank_in_cluster": 1}

>  <energy>  (32) 
-6.33

>  <cluster_rmsd>  (32) 
1.66

>  <cluster>  (32) 
2

$$$$

     RDKit          3D

 38 39  0  0  0  0  0  0  0  0999 V2000
  142.9490   78.6890  217.9220 C   0  0  0  0  0  0  0  0  0  0  0  0
  142.9540   77.6730  218.9630 N   0  0  0  0  0  0  0  0  0  0  0  0
  143.1320   76.3330  218.5770 C   0  0  0  0  0  0  0  0  0  0  0  0
  143.2890   75.9420  217.3990 O   0  0  0  0  0  0  0  0  0  0  0  0
  143.1350   75.2900  219.6580 C   0  0  0  0  0  0  0  0  0  0  0  0
  141.8260   74.8310  220.0030 N   0  0  0  0  0  0  0  0  0  0  0  0
  140.9580   75.6890  220.7590 C   0  0  0  0  0  0  0  0  0  0  0  0
  141.3210   76.8350  221.1280 O   0  0  0  0  0  0  0  0  0  0  0  0
  139.6220   75.1770  221.0890 C   0  0  0  0  0  0  0  0  0  0  0  0
  139.6640   74.2350  222.1810 N   0  0  0  0  0  0  0  0  0  0  0  0
  139.9520   72.8730  221.8920 C   0  0  0  0  0  0  0  0  0  0  0  0
  140.1670   72.4910  220.7030 O   0  0  0  0  0  0  0  0  0  0  0  0
  139.9980   71.9070  222.9980 C   0  0  0  0  0  0  0  0  0  0  0  0
  139.5400   70.6180  222.7800 C   0  0  0  0  0  0  0  0  0  0  0  0
  139.5920   69.7160  223.8470 C   0  0  0  0  0  0  0  0  0  0  0  0
  140.0960   70.1360  225.0780 C   0  0  0  0  0  0  0  0  0  0  0  0
  140.1310   69.2130  226.1060 C   0  0  0  0  0  0  0  0  0  0  0  0
  140.6330   69.6190  227.3460 C   0  0  0  0  0  0  0  0  0  0  0  0
  140.7000   68.4840  228.6940 Cl  0  0  0  0  0  0  0  0  0  0  0  0
  141.0730   70.9230  227.4910 C   0  0  0  0  0  0  0  0  0  0  0  0
  141.0450   71.8510  226.4800 C   0  0  0  0  0  0  0  0  0  0  0  0
  140.5460   71.4400  225.2570 C   0  0  0  0  0  0  0  0  0  0  0  0
  140.4670   72.2520  224.1920 N   0  0  0  0  0  0  0  0  0  0  0  0
  142.9441   79.6873  218.3840 H   0  0  0  0  0  0  0  0  0  0  0  0
  143.8477   78.5784  217.2974 H   0  0  0  0  0  0  0  0  0  0  0  0
  142.0514   78.5696  217.2974 H   0  0  0  0  0  0  0  0  0  0  0  0
  142.8290   77.9070  219.9790 H   0  0  0  0  0  0  0  0  0  0  0  0
  143.7269   74.4298  219.3119 H   0  0  0  0  0  0  0  0  0  0  0  0
  143.5658   75.7538  220.5576 H   0  0  0  0  0  0  0  0  0  0  0  0
  141.4790   73.8720  219.7120 H   0  0  0  0  0  0  0  0  0  0  0  0
  138.9768   76.0218  221.3721 H   0  0  0  0  0  0  0  0  0  0  0  0
  139.2268   74.6571  220.2039 H   0  0  0  0  0  0  0  0  0  0  0  0
  139.4940   74.4930  223.1830 H   0  0  0  0  0  0  0  0  0  0  0  0
  139.1478   70.3137  221.7984 H   0  0  0  0  0  0  0  0  0  0  0  0
  139.2380   68.6827  223.7167 H   0  0  0  0  0  0  0  0  0  0  0  0
  139.7727   68.1844  225.9524 H   0  0  0  0  0  0  0  0  0  0  0  0
  141.4668   71.2329  228.4702 H   0  0  0  0  0  0  0  0  0  0  0  0
  141.4044   72.8789  226.6358 H   0  0  0  0  0  0  0  0  0  0  0  0
  1  2  1  0
  2  3  1  0
  3  4  2  0
  3  5  1  0
  5  6  1  0
  6  7  1  0
  7  8  2  0
  7  9  1  0
  9 10  1  0
 10 11  1  0
 11 12  2  0
 11 13  1  0
 13 14  2  0
 14 15  1  0
 15 16  2  0
 16 17  1  0
 17 18  2  0
 18 19  1  0
 18 20  1  0
 20 21  2  0
 21 22  1  0
 22 23  2  0
 23 13  1  0
 22 16  1  0
  1 24  1  0
  1 25  1  0
  1 26  1  0
  2 27  1  0
  5 28  1  0
  5 29  1  0
  6 30  1  0
  9 31  1  0
  9 32  1  0
 10 33  1  0
 14 34  1  0
 15 35  1  0
 17 36  1  0
 20 37  1  0
 21 38  1  0
M  END
>  <smiles>  (33) 
CNC(=O)CNC(=O)CNC(=O)c1ccc2cc(Cl)ccc2n1

>  <score_type>  (33) 
oracle

>  <origin>  (33) 
autodockgpu

>  <m_score__min__energy>  (33) 
-7.2199999999999998

>  <m_primary>  (33) 
energy

>  <rmsd>  (33) 
2.393034203268229

>  <m_score__min__rmsd>  (33) 
2.393034203268229

>  <meeko>  (33) 
{"free_energy": -6.25, "intermolecular_energy": -7.74, "internal_energy": -2.44, "cluster_size": 5, "cluster_id": 4, "rank_in_cluster": 3}

>  <energy>  (33) 
-6.22

>  <cluster_rmsd>  (33) 
1.09

>  <cluster>  (33) 
2

$$$$

     RDKit          3D

 38 39  0  0  0  0  0  0  0  0999 V2000
  144.0820   74.0460  220.4610 C   0  0  0  0  0  0  0  0  0  0  0  0
  142.8740   74.8560  220.4750 N   0  0  0  0  0  0  0  0  0  0  0  0
  142.8220   75.9780  219.6300 C   0  0  0  0  0  0  0  0  0  0  0  0
  143.7410   76.3400  218.8610 O   0  0  0  0  0  0  0  0  0  0  0  0
  141.5700   76.8100  219.6500 C   0  0  0  0  0  0  0  0  0  0  0  0
  140.3780   76.0310  219.7740 N   0  0  0  0  0  0  0  0  0  0  0  0
  139.9480   75.6080  221.0770 C   0  0  0  0  0  0  0  0  0  0  0  0
  140.5960   75.9050  222.1140 O   0  0  0  0  0  0  0  0  0  0  0  0
  138.7180   74.8110  221.1570 C   0  0  0  0  0  0  0  0  0  0  0  0
  138.7940   73.8110  222.1950 N   0  0  0  0  0  0  0  0  0  0  0  0
  139.8610   72.8720  222.1550 C   0  0  0  0  0  0  0  0  0  0  0  0
  140.7280   72.9090  221.2320 O   0  0  0  0  0  0  0  0  0  0  0  0
  139.9460   71.8510  223.2090 C   0  0  0  0  0  0  0  0  0  0  0  0
  139.5340   70.5600  222.9230 C   0  0  0  0  0  0  0  0  0  0  0  0
  139.6240   69.6050  223.9400 C   0  0  0  0  0  0  0  0  0  0  0  0
  140.1170   69.9760  225.1900 C   0  0  0  0  0  0  0  0  0  0  0  0
  140.1890   69.0020  226.1680 C   0  0  0  0  0  0  0  0  0  0  0  0
  140.6810   69.3590  227.4260 C   0  0  0  0  0  0  0  0  0  0  0  0
  140.7950   68.1560  228.7120 Cl  0  0  0  0  0  0  0  0  0  0  0  0
  141.0740   70.6680  227.6400 C   0  0  0  0  0  0  0  0  0  0  0  0
  141.0090   71.6470  226.6800 C   0  0  0  0  0  0  0  0  0  0  0  0
  140.5200   71.2840  225.4380 C   0  0  0  0  0  0  0  0  0  0  0  0
  140.4080   72.1480  224.4180 N   0  0  0  0  0  0  0  0  0  0  0  0
  144.3948   73.8362  221.4945 H   0  0  0  0  0  0  0  0  0  0  0  0
  143.8822   73.0986  219.9389 H   0  0  0  0  0  0  0  0  0  0  0  0
  144.8826   74.5906  219.9389 H   0  0  0  0  0  0  0  0  0  0  0  0
  142.0510   74.6310  221.0870 H   0  0  0  0  0  0  0  0  0  0  0  0
  141.6247   77.5034  220.5021 H   0  0  0  0  0  0  0  0  0  0  0  0
  141.5149   77.3408  218.6881 H   0  0  0  0  0  0  0  0  0  0  0  0
  139.8020   75.7590  218.9270 H   0  0  0  0  0  0  0  0  0  0  0  0
  137.8724   75.4816  221.3698 H   0  0  0  0  0  0  0  0  0  0  0  0
  138.5813   74.2955  220.1949 H   0  0  0  0  0  0  0  0  0  0  0  0
  138.1070   73.7320  222.9820 H   0  0  0  0  0  0  0  0  0  0  0  0
  139.1483   70.2946  221.9276 H   0  0  0  0  0  0  0  0  0  0  0  0
  139.3079   68.5678  223.7551 H   0  0  0  0  0  0  0  0  0  0  0  0
  139.8668   67.9708  225.9610 H   0  0  0  0  0  0  0  0  0  0  0  0
  141.4597   70.9392  228.6338 H   0  0  0  0  0  0  0  0  0  0  0  0
  141.3323   72.6773  226.8896 H   0  0  0  0  0  0  0  0  0  0  0  0
  1  2  1  0
  2  3  1  0
  3  4  2  0
  3  5  1  0
  5  6  1  0
  6  7  1  0
  7  8  2  0
  7  9  1  0
  9 10  1  0
 10 11  1  0
 11 12  2  0
 11 13  1  0
 13 14  2  0
 14 15  1  0
 15 16  2  0
 16 17  1  0
 17 18  2  0
 18 19  1  0
 18 20  1  0
 20 21  2  0
 21 22  1  0
 22 23  2  0
 23 13  1  0
 22 16  1  0
  1 24  1  0
  1 25  1  0
  1 26  1  0
  2 27  1  0
  5 28  1  0
  5 29  1  0
  6 30  1  0
  9 31  1  0
  9 32  1  0
 10 33  1  0
 14 34  1  0
 15 35  1  0
 17 36  1  0
 20 37  1  0
 21 38  1  0
M  END
>  <smiles>  (34) 
CNC(=O)CNC(=O)CNC(=O)c1ccc2cc(Cl)ccc2n1

>  <score_type>  (34) 
oracle

>  <origin>  (34) 
autodockgpu

>  <m_score__min__energy>  (34) 
-7.2199999999999998

>  <m_primary>  (34) 
energy

>  <rmsd>  (34) 
2.436674772786665

>  <m_score__min__rmsd>  (34) 
2.436674772786665

>  <meeko>  (34) 
{"free_energy": -6.23, "intermolecular_energy": -7.72, "internal_energy": -2.34, "cluster_size": 19, "cluster_id": 1, "rank_in_cluster": 13}

>  <energy>  (34) 
-6.17

>  <cluster_rmsd>  (34) 
1.7

>  <cluster>  (34) 
2

$$$$

     RDKit          3D

 38 39  0  0  0  0  0  0  0  0999 V2000
  142.9490   78.7330  217.9500 C   0  0  0  0  0  0  0  0  0  0  0  0
  142.9500   77.6910  218.9640 N   0  0  0  0  0  0  0  0  0  0  0  0
  143.1170   76.3600  218.5430 C   0  0  0  0  0  0  0  0  0  0  0  0
  143.2660   75.9980  217.3550 O   0  0  0  0  0  0  0  0  0  0  0  0
  143.1160   75.2890  219.5970 C   0  0  0  0  0  0  0  0  0  0  0  0
  141.8030   74.8430  219.9470 N   0  0  0  0  0  0  0  0  0  0  0  0
  140.9700   75.6850  220.7590 C   0  0  0  0  0  0  0  0  0  0  0  0
  141.3660   76.8040  221.1730 O   0  0  0  0  0  0  0  0  0  0  0  0
  139.6290   75.1870  221.0930 C   0  0  0  0  0  0  0  0  0  0  0  0
  139.6640   74.2450  222.1860 N   0  0  0  0  0  0  0  0  0  0  0  0
  139.9770   72.8880  221.9010 C   0  0  0  0  0  0  0  0  0  0  0  0
  140.2200   72.5090  220.7170 O   0  0  0  0  0  0  0  0  0  0  0  0
  140.0150   71.9220  223.0090 C   0  0  0  0  0  0  0  0  0  0  0  0
  139.5510   70.6350  222.7900 C   0  0  0  0  0  0  0  0  0  0  0  0
  139.5960   69.7340  223.8570 C   0  0  0  0  0  0  0  0  0  0  0  0
  140.0990   70.1510  225.0890 C   0  0  0  0  0  0  0  0  0  0  0  0
  140.1270   69.2290  226.1180 C   0  0  0  0  0  0  0  0  0  0  0  0
  140.6290   69.6330  227.3580 C   0  0  0  0  0  0  0  0  0  0  0  0
  140.6870   68.4980  228.7080 Cl  0  0  0  0  0  0  0  0  0  0  0  0
  141.0750   70.9340  227.5040 C   0  0  0  0  0  0  0  0  0  0  0  0
  141.0540   71.8620  226.4930 C   0  0  0  0  0  0  0  0  0  0  0  0
  140.5560   71.4530  225.2690 C   0  0  0  0  0  0  0  0  0  0  0  0
  140.4840   72.2650  224.2030 N   0  0  0  0  0  0  0  0  0  0  0  0
  142.9481   79.7191  218.4375 H   0  0  0  0  0  0  0  0  0  0  0  0
  143.8472   78.6350  217.3227 H   0  0  0  0  0  0  0  0  0  0  0  0
  142.0510   78.6333  217.3227 H   0  0  0  0  0  0  0  0  0  0  0  0
  142.8300   77.8990  219.9860 H   0  0  0  0  0  0  0  0  0  0  0  0
  143.6888   74.4284  219.2212 H   0  0  0  0  0  0  0  0  0  0  0  0
  143.5660   75.7218  220.5026 H   0  0  0  0  0  0  0  0  0  0  0  0
  141.4290   73.9070  219.6200 H   0  0  0  0  0  0  0  0  0  0  0  0
  138.9934   76.0387  221.3771 H   0  0  0  0  0  0  0  0  0  0  0  0
  139.2261   74.6706  220.2093 H   0  0  0  0  0  0  0  0  0  0  0  0
  139.4710   74.5000  223.1840 H   0  0  0  0  0  0  0  0  0  0  0  0
  139.1597   70.3322  221.8075 H   0  0  0  0  0  0  0  0  0  0  0  0
  139.2370   68.7025  223.7261 H   0  0  0  0  0  0  0  0  0  0  0  0
  139.7631   68.2023  225.9648 H   0  0  0  0  0  0  0  0  0  0  0  0
  141.4681   71.2419  228.4841 H   0  0  0  0  0  0  0  0  0  0  0  0
  141.4180   72.8882  226.6495 H   0  0  0  0  0  0  0  0  0  0  0  0
  1  2  1  0
  2  3  1  0
  3  4  2  0
  3  5  1  0
  5  6  1  0
  6  7  1  0
  7  8  2  0
  7  9  1  0
  9 10  1  0
 10 11  1  0
 11 12  2  0
 11 13  1  0
 13 14  2  0
 14 15  1  0
 15 16  2  0
 16 17  1  0
 17 18  2  0
 18 19  1  0
 18 20  1  0
 20 21  2  0
 21 22  1  0
 22 23  2  0
 23 13  1  0
 22 16  1  0
  1 24  1  0
  1 25  1  0
  1 26  1  0
  2 27  1  0
  5 28  1  0
  5 29  1  0
  6 30  1  0
  9 31  1  0
  9 32  1  0
 10 33  1  0
 14 34  1  0
 15 35  1  0
 17 36  1  0
 20 37  1  0
 21 38  1  0
M  END
>  <smiles>  (35) 
CNC(=O)CNC(=O)CNC(=O)c1ccc2cc(Cl)ccc2n1

>  <score_type>  (35) 
oracle

>  <origin>  (35) 
autodockgpu

>  <m_score__min__energy>  (35) 
-7.2199999999999998

>  <m_primary>  (35) 
energy

>  <rmsd>  (35) 
2.391571921032005

>  <m_score__min__rmsd>  (35) 
2.391571921032005

>  <meeko>  (35) 
{"free_energy": -6.25, "intermolecular_energy": -7.74, "internal_energy": -2.43, "cluster_size": 5, "cluster_id": 4, "rank_in_cluster": 4}

>  <energy>  (35) 
-6.16

>  <cluster_rmsd>  (35) 
1.12

>  <cluster>  (35) 
2

$$$$

     RDKit          3D

 38 39  0  0  0  0  0  0  0  0999 V2000
  142.9360   78.5320  217.8770 C   0  0  0  0  0  0  0  0  0  0  0  0
  142.9110   77.6080  219.0000 N   0  0  0  0  0  0  0  0  0  0  0  0
  143.1600   76.2490  218.7420 C   0  0  0  0  0  0  0  0  0  0  0  0
  143.4030   75.7670  217.6130 O   0  0  0  0  0  0  0  0  0  0  0  0
  143.1330   75.3000  219.9070 C   0  0  0  0  0  0  0  0  0  0  0  0
  141.8250   74.8010  220.1970 N   0  0  0  0  0  0  0  0  0  0  0  0
  140.8460   75.6840  220.7660 C   0  0  0  0  0  0  0  0  0  0  0  0
  141.1110   76.8880  221.0180 O   0  0  0  0  0  0  0  0  0  0  0  0
  139.5160   75.1280  221.0460 C   0  0  0  0  0  0  0  0  0  0  0  0
  139.5480   74.1910  222.1420 N   0  0  0  0  0  0  0  0  0  0  0  0
  139.9680   72.8570  221.8820 C   0  0  0  0  0  0  0  0  0  0  0  0
  140.3070   72.4960  220.7160 O   0  0  0  0  0  0  0  0  0  0  0  0
  140.0040   71.8960  222.9940 C   0  0  0  0  0  0  0  0  0  0  0  0
  139.5280   70.6120  222.7830 C   0  0  0  0  0  0  0  0  0  0  0  0
  139.5710   69.7150  223.8530 C   0  0  0  0  0  0  0  0  0  0  0  0
  140.0830   70.1330  225.0810 C   0  0  0  0  0  0  0  0  0  0  0  0
  140.1080   69.2150  226.1140 C   0  0  0  0  0  0  0  0  0  0  0  0
  140.6190   69.6200  227.3500 C   0  0  0  0  0  0  0  0  0  0  0  0
  140.6740   68.4900  228.7030 Cl  0  0  0  0  0  0  0  0  0  0  0  0
  141.0760   70.9180  227.4880 C   0  0  0  0  0  0  0  0  0  0  0  0
  141.0590   71.8420  226.4730 C   0  0  0  0  0  0  0  0  0  0  0  0
  140.5510   71.4320  225.2530 C   0  0  0  0  0  0  0  0  0  0  0  0
  140.4800   72.2390  224.1840 N   0  0  0  0  0  0  0  0  0  0  0  0
  142.9640   79.5654  218.2530 H   0  0  0  0  0  0  0  0  0  0  0  0
  143.8293   78.3404  217.2644 H   0  0  0  0  0  0  0  0  0  0  0  0
  142.0337   78.3890  217.2644 H   0  0  0  0  0  0  0  0  0  0  0  0
  142.7160   77.9210  219.9830 H   0  0  0  0  0  0  0  0  0  0  0  0
  143.7897   74.4476  219.6788 H   0  0  0  0  0  0  0  0  0  0  0  0
  143.4732   75.8586  220.7915 H   0  0  0  0  0  0  0  0  0  0  0  0
  141.5590   73.7940  220.0000 H   0  0  0  0  0  0  0  0  0  0  0  0
  138.8323   75.9511  221.3009 H   0  0  0  0  0  0  0  0  0  0  0  0
  139.1727   74.5931  220.1482 H   0  0  0  0  0  0  0  0  0  0  0  0
  139.2780   74.4310  223.1260 H   0  0  0  0  0  0  0  0  0  0  0  0
  139.1289   70.3086  221.8039 H   0  0  0  0  0  0  0  0  0  0  0  0
  139.2035   68.6858  223.7278 H   0  0  0  0  0  0  0  0  0  0  0  0
  139.7348   68.1908  225.9668 H   0  0  0  0  0  0  0  0  0  0  0  0
  141.4752   71.2271  228.4653 H   0  0  0  0  0  0  0  0  0  0  0  0
  141.4335   72.8653  226.6232 H   0  0  0  0  0  0  0  0  0  0  0  0
  1  2  1  0
  2  3  1  0
  3  4  2  0
  3  5  1  0
  5  6  1  0
  6  7  1  0
  7  8  2  0
  7  9  1  0
  9 10  1  0
 10 11  1  0
 11 12  2  0
 11 13  1  0
 13 14  2  0
 14 15  1  0
 15 16  2  0
 16 17  1  0
 17 18  2  0
 18 19  1  0
 18 20  1  0
 20 21  2  0
 21 22  1  0
 22 23  2  0
 23 13  1  0
 22 16  1  0
  1 24  1  0
  1 25  1  0
  1 26  1  0
  2 27  1  0
  5 28  1  0
  5 29  1  0
  6 30  1  0
  9 31  1  0
  9 32  1  0
 10 33  1  0
 14 34  1  0
 15 35  1  0
 17 36  1  0
 20 37  1  0
 21 38  1  0
M  END
>  <smiles>  (36) 
CNC(=O)CNC(=O)CNC(=O)c1ccc2cc(Cl)ccc2n1

>  <score_type>  (36) 
oracle

>  <origin>  (36) 
autodockgpu

>  <m_score__min__energy>  (36) 
-7.2199999999999998

>  <m_primary>  (36) 
energy

>  <rmsd>  (36) 
2.3846653777772215

>  <m_score__min__rmsd>  (36) 
2.3846653777772215

>  <meeko>  (36) 
{"free_energy": -6.29, "intermolecular_energy": -7.78, "internal_energy": -2.4, "cluster_size": 5, "cluster_id": 4, "rank_in_cluster": 1}

>  <energy>  (36) 
-5.99

>  <cluster_rmsd>  (36) 
1.51

>  <cluster>  (36) 
2

$$$$

     RDKit          3D

 38 39  0  0  0  0  0  0  0  0999 V2000
  144.0440   71.6500  220.3630 C   0  0  0  0  0  0  0  0  0  0  0  0
  143.3670   72.9260  220.1920 N   0  0  0  0  0  0  0  0  0  0  0  0
  144.1470   74.0950  220.2070 C   0  0  0  0  0  0  0  0  0  0  0  0
  145.3890   74.1250  220.3580 O   0  0  0  0  0  0  0  0  0  0  0  0
  143.4400   75.4090  220.0300 C   0  0  0  0  0  0  0  0  0  0  0  0
  142.2140   75.4930  220.7610 N   0  0  0  0  0  0  0  0  0  0  0  0
  141.0170   74.9450  220.1870 C   0  0  0  0  0  0  0  0  0  0  0  0
  141.0190   74.3940  219.0570 O   0  0  0  0  0  0  0  0  0  0  0  0
  139.7810   75.0530  220.9740 C   0  0  0  0  0  0  0  0  0  0  0  0
  139.7700   74.1300  222.0830 N   0  0  0  0  0  0  0  0  0  0  0  0
  140.0730   72.7640  221.8320 C   0  0  0  0  0  0  0  0  0  0  0  0
  140.3460   72.3610  220.6620 O   0  0  0  0  0  0  0  0  0  0  0  0
  140.0640   71.8170  222.9560 C   0  0  0  0  0  0  0  0  0  0  0  0
  139.5440   70.5490  222.7580 C   0  0  0  0  0  0  0  0  0  0  0  0
  139.5460   69.6650  223.8410 C   0  0  0  0  0  0  0  0  0  0  0  0
  140.0610   70.0820  225.0680 C   0  0  0  0  0  0  0  0  0  0  0  0
  140.0440   69.1780  226.1130 C   0  0  0  0  0  0  0  0  0  0  0  0
  140.5580   69.5820  227.3480 C   0  0  0  0  0  0  0  0  0  0  0  0
  140.5610   68.4700  228.7180 Cl  0  0  0  0  0  0  0  0  0  0  0  0
  141.0600   70.8650  227.4740 C   0  0  0  0  0  0  0  0  0  0  0  0
  141.0850   71.7740  226.4460 C   0  0  0  0  0  0  0  0  0  0  0  0
  140.5740   71.3650  225.2270 C   0  0  0  0  0  0  0  0  0  0  0  0
  140.5420   72.1600  224.1470 N   0  0  0  0  0  0  0  0  0  0  0  0
  144.1575   71.4361  221.4360 H   0  0  0  0  0  0  0  0  0  0  0  0
  143.4498   70.8535  219.8912 H   0  0  0  0  0  0  0  0  0  0  0  0
  145.0366   71.6954  219.8912 H   0  0  0  0  0  0  0  0  0  0  0  0
  142.3280   72.9990  220.0590 H   0  0  0  0  0  0  0  0  0  0  0  0
  144.1071   76.2137  220.3728 H   0  0  0  0  0  0  0  0  0  0  0  0
  143.1910   75.5045  218.9628 H   0  0  0  0  0  0  0  0  0  0  0  0
  142.1680   75.9480  221.7170 H   0  0  0  0  0  0  0  0  0  0  0  0
  139.6950   76.0783  221.3631 H   0  0  0  0  0  0  0  0  0  0  0  0
  138.9341   74.8076  220.3163 H   0  0  0  0  0  0  0  0  0  0  0  0
  139.5500   74.4050  223.0700 H   0  0  0  0  0  0  0  0  0  0  0  0
  139.1421   70.2469  221.7796 H   0  0  0  0  0  0  0  0  0  0  0  0
  139.1441   68.6475  223.7261 H   0  0  0  0  0  0  0  0  0  0  0  0
  139.6361   68.1657  225.9761 H   0  0  0  0  0  0  0  0  0  0  0  0
  141.4608   71.1732  228.4509 H   0  0  0  0  0  0  0  0  0  0  0  0
  141.4942   72.7855  226.5854 H   0  0  0  0  0  0  0  0  0  0  0  0
  1  2  1  0
  2  3  1  0
  3  4  2  0
  3  5  1  0
  5  6  1  0
  6  7  1  0
  7  8  2  0
  7  9  1  0
  9 10  1  0
 10 11  1  0
 11 12  2  0
 11 13  1  0
 13 14  2  0
 14 15  1  0
 15 16  2  0
 16 17  1  0
 17 18  2  0
 18 19  1  0
 18 20  1  0
 20 21  2  0
 21 22  1  0
 22 23  2  0
 23 13  1  0
 22 16  1  0
  1 24  1  0
  1 25  1  0
  1 26  1  0
  2 27  1  0
  5 28  1  0
  5 29  1  0
  6 30  1  0
  9 31  1  0
  9 32  1  0
 10 33  1  0
 14 34  1  0
 15 35  1  0
 17 36  1  0
 20 37  1  0
 21 38  1  0
M  END
>  <smiles>  (37) 
CNC(=O)CNC(=O)CNC(=O)c1ccc2cc(Cl)ccc2n1

>  <score_type>  (37) 
oracle

>  <origin>  (37) 
autodockgpu

>  <m_score__min__energy>  (37) 
-7.2199999999999998

>  <m_primary>  (37) 
energy

>  <rmsd>  (37) 
3.3559995874761186

>  <m_score__min__rmsd>  (37) 
3.3559995874761186

>  <meeko>  (37) 
{"free_energy": -6.57, "intermolecular_energy": -8.06, "internal_energy": -2.5, "cluster_size": 18, "cluster_id": 2, "rank_in_cluster": 6}

>  <energy>  (37) 
-5.85

>  <cluster_rmsd>  (37) 
1.77

>  <cluster>  (37) 
2

$$$$

     RDKit          3D

 38 39  0  0  0  0  0  0  0  0999 V2000
  146.1310   73.3860  220.1730 C   0  0  0  0  0  0  0  0  0  0  0  0
  145.0610   74.0890  219.4830 N   0  0  0  0  0  0  0  0  0  0  0  0
  143.8010   74.1470  220.1040 C   0  0  0  0  0  0  0  0  0  0  0  0
  143.5250   73.6370  221.2130 O   0  0  0  0  0  0  0  0  0  0  0  0
  142.7010   74.8740  219.3840 C   0  0  0  0  0  0  0  0  0  0  0  0
  141.3940   74.4220  219.7470 N   0  0  0  0  0  0  0  0  0  0  0  0
  140.6200   75.1910  220.6820 C   0  0  0  0  0  0  0  0  0  0  0  0
  141.0640   76.2520  221.1900 O   0  0  0  0  0  0  0  0  0  0  0  0
  139.2840   74.6890  221.0250 C   0  0  0  0  0  0  0  0  0  0  0  0
  139.3260   73.7690  222.1350 N   0  0  0  0  0  0  0  0  0  0  0  0
  139.8910   72.4800  221.9270 C   0  0  0  0  0  0  0  0  0  0  0  0
  140.3480   72.1440  220.7940 O   0  0  0  0  0  0  0  0  0  0  0  0
  139.9390   71.5360  223.0530 C   0  0  0  0  0  0  0  0  0  0  0  0
  139.4330   70.2590  222.8760 C   0  0  0  0  0  0  0  0  0  0  0  0
  139.4880   69.3790  223.9600 C   0  0  0  0  0  0  0  0  0  0  0  0
  140.0410   69.8060  225.1660 C   0  0  0  0  0  0  0  0  0  0  0  0
  140.0770   68.9050  226.2130 C   0  0  0  0  0  0  0  0  0  0  0  0
  140.6290   69.3200  227.4280 C   0  0  0  0  0  0  0  0  0  0  0  0
  140.7000   68.2110  228.7980 Cl  0  0  0  0  0  0  0  0  0  0  0  0
  141.1150   70.6110  227.5320 C   0  0  0  0  0  0  0  0  0  0  0  0
  141.0880   71.5180  226.5030 C   0  0  0  0  0  0  0  0  0  0  0  0
  140.5390   71.0980  225.3040 C   0  0  0  0  0  0  0  0  0  0  0  0
  140.4540   71.8900  224.2240 N   0  0  0  0  0  0  0  0  0  0  0  0
  145.9895   73.4789  221.2599 H   0  0  0  0  0  0  0  0  0  0  0  0
  146.1132   72.3230  219.8905 H   0  0  0  0  0  0  0  0  0  0  0  0
  147.0995   73.8243  219.8905 H   0  0  0  0  0  0  0  0  0  0  0  0
  145.1990   74.5470  218.5490 H   0  0  0  0  0  0  0  0  0  0  0  0
  142.7780   75.9457  219.6195 H   0  0  0  0  0  0  0  0  0  0  0  0
  142.8280   74.6763  218.3094 H   0  0  0  0  0  0  0  0  0  0  0  0
  140.9820   73.5340  219.3420 H   0  0  0  0  0  0  0  0  0  0  0  0
  138.6415   75.5408  221.2927 H   0  0  0  0  0  0  0  0  0  0  0  0
  138.8857   74.1525  220.1512 H   0  0  0  0  0  0  0  0  0  0  0  0
  138.9630   73.9900  223.0930 H   0  0  0  0  0  0  0  0  0  0  0  0
  139.0017   69.9476  221.9132 H   0  0  0  0  0  0  0  0  0  0  0  0
  139.0972   68.3554  223.8621 H   0  0  0  0  0  0  0  0  0  0  0  0
  139.6808   67.8859  226.0931 H   0  0  0  0  0  0  0  0  0  0  0  0
  141.5470   70.9278  228.4928 H   0  0  0  0  0  0  0  0  0  0  0  0
  141.4859   72.5361  226.6258 H   0  0  0  0  0  0  0  0  0  0  0  0
  1  2  1  0
  2  3  1  0
  3  4  2  0
  3  5  1  0
  5  6  1  0
  6  7  1  0
  7  8  2  0
  7  9  1  0
  9 10  1  0
 10 11  1  0
 11 12  2  0
 11 13  1  0
 13 14  2  0
 14 15  1  0
 15 16  2  0
 16 17  1  0
 17 18  2  0
 18 19  1  0
 18 20  1  0
 20 21  2  0
 21 22  1  0
 22 23  2  0
 23 13  1  0
 22 16  1  0
  1 24  1  0
  1 25  1  0
  1 26  1  0
  2 27  1  0
  5 28  1  0
  5 29  1  0
  6 30  1  0
  9 31  1  0
  9 32  1  0
 10 33  1  0
 14 34  1  0
 15 35  1  0
 17 36  1  0
 20 37  1  0
 21 38  1  0
M  END
>  <smiles>  (38) 
CNC(=O)CNC(=O)CNC(=O)c1ccc2cc(Cl)ccc2n1

>  <score_type>  (38) 
oracle

>  <origin>  (38) 
autodockgpu

>  <m_score__min__energy>  (38) 
-7.2199999999999998

>  <m_primary>  (38) 
energy

>  <rmsd>  (38) 
3.018017400501583

>  <m_score__min__rmsd>  (38) 
3.018017400501583

>  <meeko>  (38) 
{"free_energy": -6.39, "intermolecular_energy": -7.88, "internal_energy": -1.82, "cluster_size": 18, "cluster_id": 2, "rank_in_cluster": 12}

>  <energy>  (38) 
-6.63

>  <cluster_rmsd>  (38) 
0.0

>  <cluster>  (38) 
3

$$$$

     RDKit          3D

 38 39  0  0  0  0  0  0  0  0999 V2000
  145.1870   73.7010  221.1810 C   0  0  0  0  0  0  0  0  0  0  0  0
  144.1110   74.4080  220.5050 N   0  0  0  0  0  0  0  0  0  0  0  0
  143.6290   73.8760  219.2960 C   0  0  0  0  0  0  0  0  0  0  0  0
  144.0560   72.8340  218.7510 O   0  0  0  0  0  0  0  0  0  0  0  0
  142.5170   74.6130  218.6030 C   0  0  0  0  0  0  0  0  0  0  0  0
  141.2520   74.4660  219.2540 N   0  0  0  0  0  0  0  0  0  0  0  0
  140.9260   75.3290  220.3550 C   0  0  0  0  0  0  0  0  0  0  0  0
  141.7250   76.2100  220.7630 O   0  0  0  0  0  0  0  0  0  0  0  0
  139.6160   75.1430  220.9930 C   0  0  0  0  0  0  0  0  0  0  0  0
  139.6830   74.2110  222.0920 N   0  0  0  0  0  0  0  0  0  0  0  0
  139.9010   72.8350  221.8030 C   0  0  0  0  0  0  0  0  0  0  0  0
  140.0330   72.4330  220.6090 O   0  0  0  0  0  0  0  0  0  0  0  0
  139.9710   71.8790  222.9170 C   0  0  0  0  0  0  0  0  0  0  0  0
  139.5450   70.5780  222.7090 C   0  0  0  0  0  0  0  0  0  0  0  0
  139.6200   69.6850  223.7820 C   0  0  0  0  0  0  0  0  0  0  0  0
  140.1140   70.1260  225.0090 C   0  0  0  0  0  0  0  0  0  0  0  0
  140.1720   69.2130  226.0450 C   0  0  0  0  0  0  0  0  0  0  0  0
  140.6640   69.6400  227.2810 C   0  0  0  0  0  0  0  0  0  0  0  0
  140.7600   68.5170  228.6380 Cl  0  0  0  0  0  0  0  0  0  0  0  0
  141.0720   70.9550  227.4160 C   0  0  0  0  0  0  0  0  0  0  0  0
  141.0210   71.8750  226.3980 C   0  0  0  0  0  0  0  0  0  0  0  0
  140.5320   71.4420  225.1790 C   0  0  0  0  0  0  0  0  0  0  0  0
  140.4320   72.2440  224.1080 N   0  0  0  0  0  0  0  0  0  0  0  0
  145.0554   73.7875  222.2697 H   0  0  0  0  0  0  0  0  0  0  0  0
  145.1666   72.6397  220.8923 H   0  0  0  0  0  0  0  0  0  0  0  0
  146.1530   74.1410  220.8923 H   0  0  0  0  0  0  0  0  0  0  0  0
  143.6890   75.2910  220.8870 H   0  0  0  0  0  0  0  0  0  0  0  0
  142.7723   75.6825  218.5725 H   0  0  0  0  0  0  0  0  0  0  0  0
  142.4180   74.1829  217.5954 H   0  0  0  0  0  0  0  0  0  0  0  0
  140.5490   73.7370  218.9430 H   0  0  0  0  0  0  0  0  0  0  0  0
  139.2627   76.1139  221.3705 H   0  0  0  0  0  0  0  0  0  0  0  0
  138.9241   74.7358  220.2410 H   0  0  0  0  0  0  0  0  0  0  0  0
  139.5800   74.4840  223.0980 H   0  0  0  0  0  0  0  0  0  0  0  0
  139.1596   70.2571  221.7300 H   0  0  0  0  0  0  0  0  0  0  0  0
  139.2918   68.6423  223.6592 H   0  0  0  0  0  0  0  0  0  0  0  0
  139.8387   68.1748  225.8999 H   0  0  0  0  0  0  0  0  0  0  0  0
  141.4586   71.2815  228.3927 H   0  0  0  0  0  0  0  0  0  0  0  0
  141.3550   72.9126  226.5458 H   0  0  0  0  0  0  0  0  0  0  0  0
  1  2  1  0
  2  3  1  0
  3  4  2  0
  3  5  1  0
  5  6  1  0
  6  7  1  0
  7  8  2  0
  7  9  1  0
  9 10  1  0
 10 11  1  0
 11 12  2  0
 11 13  1  0
 13 14  2  0
 14 15  1  0
 15 16  2  0
 16 17  1  0
 17 18  2  0
 18 19  1  0
 18 20  1  0
 20 21  2  0
 21 22  1  0
 22 23  2  0
 23 13  1  0
 22 16  1  0
  1 24  1  0
  1 25  1  0
  1 26  1  0
  2 27  1  0
  5 28  1  0
  5 29  1  0
  6 30  1  0
  9 31  1  0
  9 32  1  0
 10 33  1  0
 14 34  1  0
 15 35  1  0
 17 36  1  0
 20 37  1  0
 21 38  1  0
M  END
>  <smiles>  (39) 
CNC(=O)CNC(=O)CNC(=O)c1ccc2cc(Cl)ccc2n1

>  <score_type>  (39) 
oracle

>  <origin>  (39) 
autodockgpu

>  <m_score__min__energy>  (39) 
-7.2199999999999998

>  <m_primary>  (39) 
energy

>  <rmsd>  (39) 
2.954339466582906

>  <m_score__min__rmsd>  (39) 
2.954339466582906

>  <meeko>  (39) 
{"free_energy": -5.99, "intermolecular_energy": -7.48, "internal_energy": -2.56, "cluster_size": 18, "cluster_id": 2, "rank_in_cluster": 17}

>  <energy>  (39) 
-5.64

>  <cluster_rmsd>  (39) 
1.52

>  <cluster>  (39) 
3

$$$$

     RDKit          3D

 38 39  0  0  0  0  0  0  0  0999 V2000
  143.8990   71.4820  220.0720 C   0  0  0  0  0  0  0  0  0  0  0  0
  143.2890   72.8010  220.0200 N   0  0  0  0  0  0  0  0  0  0  0  0
  144.1220   73.9210  220.1800 C   0  0  0  0  0  0  0  0  0  0  0  0
  145.3590   73.8740  220.3640 O   0  0  0  0  0  0  0  0  0  0  0  0
  143.4830   75.2800  220.1250 C   0  0  0  0  0  0  0  0  0  0  0  0
  142.2450   75.3500  220.8360 N   0  0  0  0  0  0  0  0  0  0  0  0
  141.0350   74.9410  220.1790 C   0  0  0  0  0  0  0  0  0  0  0  0
  141.0370   74.5230  218.9930 O   0  0  0  0  0  0  0  0  0  0  0  0
  139.7870   75.0290  220.9480 C   0  0  0  0  0  0  0  0  0  0  0  0
  139.7790   74.1140  222.0640 N   0  0  0  0  0  0  0  0  0  0  0  0
  140.0790   72.7450  221.8220 C   0  0  0  0  0  0  0  0  0  0  0  0
  140.3470   72.3330  220.6530 O   0  0  0  0  0  0  0  0  0  0  0  0
  140.0740   71.8070  222.9530 C   0  0  0  0  0  0  0  0  0  0  0  0
  139.5600   70.5350  222.7650 C   0  0  0  0  0  0  0  0  0  0  0  0
  139.5650   69.6600  223.8540 C   0  0  0  0  0  0  0  0  0  0  0  0
  140.0790   70.0880  225.0780 C   0  0  0  0  0  0  0  0  0  0  0  0
  140.0660   69.1920  226.1300 C   0  0  0  0  0  0  0  0  0  0  0  0
  140.5770   69.6070  227.3620 C   0  0  0  0  0  0  0  0  0  0  0  0
  140.5840   68.5050  228.7400 Cl  0  0  0  0  0  0  0  0  0  0  0  0
  141.0740   70.8930  227.4780 C   0  0  0  0  0  0  0  0  0  0  0  0
  141.0950   71.7950  226.4430 C   0  0  0  0  0  0  0  0  0  0  0  0
  140.5860   71.3750  225.2270 C   0  0  0  0  0  0  0  0  0  0  0  0
  140.5500   72.1620  224.1410 N   0  0  0  0  0  0  0  0  0  0  0  0
  144.0372   71.1831  221.1215 H   0  0  0  0  0  0  0  0  0  0  0  0
  143.2454   70.7556  219.5669 H   0  0  0  0  0  0  0  0  0  0  0  0
  144.8758   71.5096  219.5669 H   0  0  0  0  0  0  0  0  0  0  0  0
  142.2590   72.9390  219.8700 H   0  0  0  0  0  0  0  0  0  0  0  0
  144.1788   76.0113  220.5620 H   0  0  0  0  0  0  0  0  0  0  0  0
  143.2656   75.4961  219.0686 H   0  0  0  0  0  0  0  0  0  0  0  0
  142.1980   75.6950  221.8370 H   0  0  0  0  0  0  0  0  0  0  0  0
  139.6747   76.0551  221.3282 H   0  0  0  0  0  0  0  0  0  0  0  0
  138.9547   74.7611  220.2805 H   0  0  0  0  0  0  0  0  0  0  0  0
  139.5640   74.3970  223.0500 H   0  0  0  0  0  0  0  0  0  0  0  0
  139.1603   70.2233  221.7887 H   0  0  0  0  0  0  0  0  0  0  0  0
  139.1663   68.6404  223.7469 H   0  0  0  0  0  0  0  0  0  0  0  0
  139.6630   68.1767  226.0004 H   0  0  0  0  0  0  0  0  0  0  0  0
  141.4741   71.2100  228.4524 H   0  0  0  0  0  0  0  0  0  0  0  0
  141.4997   72.8093  226.5751 H   0  0  0  0  0  0  0  0  0  0  0  0
  1  2  1  0
  2  3  1  0
  3  4  2  0
  3  5  1  0
  5  6  1  0
  6  7  1  0
  7  8  2  0
  7  9  1  0
  9 10  1  0
 10 11  1  0
 11 12  2  0
 11 13  1  0
 13 14  2  0
 14 15  1  0
 15 16  2  0
 16 17  1  0
 17 18  2  0
 18 19  1  0
 18 20  1  0
 20 21  2  0
 21 22  1  0
 22 23  2  0
 23 13  1  0
 22 16  1  0
  1 24  1  0
  1 25  1  0
  1 26  1  0
  2 27  1  0
  5 28  1  0
  5 29  1  0
  6 30  1  0
  9 31  1  0
  9 32  1  0
 10 33  1  0
 14 34  1  0
 15 35  1  0
 17 36  1  0
 20 37  1  0
 21 38  1  0
M  END
>  <smiles>  (40) 
CNC(=O)CNC(=O)CNC(=O)c1ccc2cc(Cl)ccc2n1

>  <score_type>  (40) 
oracle

>  <origin>  (40) 
autodockgpu

>  <m_score__min__energy>  (40) 
-7.2199999999999998

>  <m_primary>  (40) 
energy

>  <rmsd>  (40) 
3.4180849525009025

>  <m_score__min__rmsd>  (40) 
3.4180849525009025

>  <meeko>  (40) 
{"free_energy": -6.51, "intermolecular_energy": -8.0, "internal_energy": -2.55, "cluster_size": 18, "cluster_id": 2, "rank_in_cluster": 9}

>  <energy>  (40) 
-5.2

>  <cluster_rmsd>  (40) 
1.63

>  <cluster>  (40) 
3

$$$$

     RDKit          3D

 38 39  0  0  0  0  0  0  0  0999 V2000
  141.6930   79.4400  223.2570 C   0  0  0  0  0  0  0  0  0  0  0  0
  141.7650   78.4020  222.2410 N   0  0  0  0  0  0  0  0  0  0  0  0
  141.2920   78.7060  220.9530 C   0  0  0  0  0  0  0  0  0  0  0  0
  140.8080   79.8070  220.6080 O   0  0  0  0  0  0  0  0  0  0  0  0
  141.3700   77.6280  219.9080 C   0  0  0  0  0  0  0  0  0  0  0  0
  140.3250   76.6580  220.0200 N   0  0  0  0  0  0  0  0  0  0  0  0
  140.3450   75.7290  221.1160 C   0  0  0  0  0  0  0  0  0  0  0  0
  141.2590   75.7470  221.9790 O   0  0  0  0  0  0  0  0  0  0  0  0
  139.2520   74.7510  221.1910 C   0  0  0  0  0  0  0  0  0  0  0  0
  139.4380   73.8230  222.2800 N   0  0  0  0  0  0  0  0  0  0  0  0
  139.4380   72.4300  221.9920 C   0  0  0  0  0  0  0  0  0  0  0  0
  139.2770   72.0090  220.8070 O   0  0  0  0  0  0  0  0  0  0  0  0
  139.6270   71.4780  223.0950 C   0  0  0  0  0  0  0  0  0  0  0  0
  139.2430   70.1600  222.9140 C   0  0  0  0  0  0  0  0  0  0  0  0
  139.4320   69.2710  223.9760 C   0  0  0  0  0  0  0  0  0  0  0  0
  139.9920   69.7330  225.1670 C   0  0  0  0  0  0  0  0  0  0  0  0
  140.1620   68.8230  226.1930 C   0  0  0  0  0  0  0  0  0  0  0  0
  140.7230   69.2710  227.3920 C   0  0  0  0  0  0  0  0  0  0  0  0
  140.9620   68.1530  228.7360 Cl  0  0  0  0  0  0  0  0  0  0  0  0
  141.0820   70.6030  227.5020 C   0  0  0  0  0  0  0  0  0  0  0  0
  140.9200   71.5190  226.4930 C   0  0  0  0  0  0  0  0  0  0  0  0
  140.3650   71.0660  225.3100 C   0  0  0  0  0  0  0  0  0  0  0  0
  140.1550   71.8620  224.2510 N   0  0  0  0  0  0  0  0  0  0  0  0
  141.7250   78.9789  224.2552 H   0  0  0  0  0  0  0  0  0  0  0  0
  142.5458   80.1253  223.1422 H   0  0  0  0  0  0  0  0  0  0  0  0
  140.7538   80.0010  223.1422 H   0  0  0  0  0  0  0  0  0  0  0  0
  142.1550   77.4470  222.4380 H   0  0  0  0  0  0  0  0  0  0  0  0
  141.3059   78.0979  218.9155 H   0  0  0  0  0  0  0  0  0  0  0  0
  142.3236   77.0995  220.0542 H   0  0  0  0  0  0  0  0  0  0  0  0
  139.5360   76.6080  219.3150 H   0  0  0  0  0  0  0  0  0  0  0  0
  138.3033   75.2878  221.3386 H   0  0  0  0  0  0  0  0  0  0  0  0
  139.2400   74.1785  220.2518 H   0  0  0  0  0  0  0  0  0  0  0  0
  139.5750   74.1120  223.2780 H   0  0  0  0  0  0  0  0  0  0  0  0
  138.8028   69.8230  221.9639 H   0  0  0  0  0  0  0  0  0  0  0  0
  139.1413   68.2151  223.8732 H   0  0  0  0  0  0  0  0  0  0  0  0
  139.8631   67.7717  226.0690 H   0  0  0  0  0  0  0  0  0  0  0  0
  141.5213   70.9464  228.4502 H   0  0  0  0  0  0  0  0  0  0  0  0
  141.2192   72.5699  226.6199 H   0  0  0  0  0  0  0  0  0  0  0  0
  1  2  1  0
  2  3  1  0
  3  4  2  0
  3  5  1  0
  5  6  1  0
  6  7  1  0
  7  8  2  0
  7  9  1  0
  9 10  1  0
 10 11  1  0
 11 12  2  0
 11 13  1  0
 13 14  2  0
 14 15  1  0
 15 16  2  0
 16 17  1  0
 17 18  2  0
 18 19  1  0
 18 20  1  0
 20 21  2  0
 21 22  1  0
 22 23  2  0
 23 13  1  0
 22 16  1  0
  1 24  1  0
  1 25  1  0
  1 26  1  0
  2 27  1  0
  5 28  1  0
  5 29  1  0
  6 30  1  0
  9 31  1  0
  9 32  1  0
 10 33  1  0
 14 34  1  0
 15 35  1  0
 17 36  1  0
 20 37  1  0
 21 38  1  0
M  END
>  <smiles>  (41) 
CNC(=O)CNC(=O)CNC(=O)c1ccc2cc(Cl)ccc2n1

>  <score_type>  (41) 
oracle

>  <origin>  (41) 
autodockgpu

>  <m_score__min__energy>  (41) 
-7.2199999999999998

>  <m_primary>  (41) 
energy

>  <rmsd>  (41) 
1.28845719731056

>  <m_score__min__rmsd>  (41) 
1.28845719731056

>  <meeko>  (41) 
{"free_energy": -6.63, "intermolecular_energy": -8.13, "internal_energy": -1.94, "cluster_size": 19, "cluster_id": 1, "rank_in_cluster": 9}

>  <energy>  (41) 
-6.29

>  <cluster_rmsd>  (41) 
0.0

>  <cluster>  (41) 
4

$$$$

     RDKit          3D

 38 39  0  0  0  0  0  0  0  0999 V2000
  135.4160   75.2900  224.2790 C   0  0  0  0  0  0  0  0  0  0  0  0
  136.5600   75.3740  223.3850 N   0  0  0  0  0  0  0  0  0  0  0  0
  136.8900   76.6330  222.8530 C   0  0  0  0  0  0  0  0  0  0  0  0
  136.2730   77.6950  223.0890 O   0  0  0  0  0  0  0  0  0  0  0  0
  138.0740   76.7120  221.9300 C   0  0  0  0  0  0  0  0  0  0  0  0
  138.4760   75.4380  221.4190 N   0  0  0  0  0  0  0  0  0  0  0  0
  139.8660   75.2000  221.1450 C   0  0  0  0  0  0  0  0  0  0  0  0
  140.7380   76.0840  221.3410 O   0  0  0  0  0  0  0  0  0  0  0  0
  140.2340   73.8780  220.6220 C   0  0  0  0  0  0  0  0  0  0  0  0
  140.4680   72.9290  221.6830 N   0  0  0  0  0  0  0  0  0  0  0  0
  139.3550   72.4710  222.4420 C   0  0  0  0  0  0  0  0  0  0  0  0
  138.1830   72.8850  222.1960 O   0  0  0  0  0  0  0  0  0  0  0  0
  139.5850   71.5030  223.5240 C   0  0  0  0  0  0  0  0  0  0  0  0
  139.2550   70.1740  223.3140 C   0  0  0  0  0  0  0  0  0  0  0  0
  139.4820   69.2720  224.3570 C   0  0  0  0  0  0  0  0  0  0  0  0
  140.0240   69.7300  225.5570 C   0  0  0  0  0  0  0  0  0  0  0  0
  140.2330   68.8060  226.5630 C   0  0  0  0  0  0  0  0  0  0  0  0
  140.7750   69.2510  227.7720 C   0  0  0  0  0  0  0  0  0  0  0  0
  141.0620   68.1140  229.0910 Cl  0  0  0  0  0  0  0  0  0  0  0  0
  141.0800   70.5930  227.9110 C   0  0  0  0  0  0  0  0  0  0  0  0
  140.8790   71.5230  226.9220 C   0  0  0  0  0  0  0  0  0  0  0  0
  140.3410   71.0740  225.7300 C   0  0  0  0  0  0  0  0  0  0  0  0
  140.0980   71.8840  224.6880 N   0  0  0  0  0  0  0  0  0  0  0  0
  135.7634   75.3155  225.3224 H   0  0  0  0  0  0  0  0  0  0  0  0
  134.7439   76.1412  224.0954 H   0  0  0  0  0  0  0  0  0  0  0  0
  134.8754   74.3497  224.0954 H   0  0  0  0  0  0  0  0  0  0  0  0
  137.1380   74.5360  223.1290 H   0  0  0  0  0  0  0  0  0  0  0  0
  137.8135   77.3624  221.0820 H   0  0  0  0  0  0  0  0  0  0  0  0
  138.9170   77.1111  222.5131 H   0  0  0  0  0  0  0  0  0  0  0  0
  137.7740   74.6650  221.2390 H   0  0  0  0  0  0  0  0  0  0  0  0
  139.4171   73.5067  219.9857 H   0  0  0  0  0  0  0  0  0  0  0  0
  141.1655   73.9847  220.0467 H   0  0  0  0  0  0  0  0  0  0  0  0
  141.4130   72.5520  221.9330 H   0  0  0  0  0  0  0  0  0  0  0  0
  138.8280   69.8395  222.3570 H   0  0  0  0  0  0  0  0  0  0  0  0
  139.2346   68.2075  224.2319 H   0  0  0  0  0  0  0  0  0  0  0  0
  139.9790   67.7459  226.4159 H   0  0  0  0  0  0  0  0  0  0  0  0
  141.5068   70.9332  228.8660 H   0  0  0  0  0  0  0  0  0  0  0  0
  141.1354   72.5822  227.0714 H   0  0  0  0  0  0  0  0  0  0  0  0
  1  2  1  0
  2  3  1  0
  3  4  2  0
  3  5  1  0
  5  6  1  0
  6  7  1  0
  7  8  2  0
  7  9  1  0
  9 10  1  0
 10 11  1  0
 11 12  2  0
 11 13  1  0
 13 14  2  0
 14 15  1  0
 15 16  2  0
 16 17  1  0
 17 18  2  0
 18 19  1  0
 18 20  1  0
 20 21  2  0
 21 22  1  0
 22 23  2  0
 23 13  1  0
 22 16  1  0
  1 24  1  0
  1 25  1  0
  1 26  1  0
  2 27  1  0
  5 28  1  0
  5 29  1  0
  6 30  1  0
  9 31  1  0
  9 32  1  0
 10 33  1  0
 14 34  1  0
 15 35  1  0
 17 36  1  0
 20 37  1  0
 21 38  1  0
M  END
>  <smiles>  (42) 
CNC(=O)CNC(=O)CNC(=O)c1ccc2cc(Cl)ccc2n1

>  <score_type>  (42) 
oracle

>  <origin>  (42) 
autodockgpu

>  <m_score__min__energy>  (42) 
-7.2199999999999998

>  <m_primary>  (42) 
energy

>  <rmsd>  (42) 
2.9758331189298906

>  <m_score__min__rmsd>  (42) 
2.9758331189298906

>  <meeko>  (42) 
{"free_energy": -5.64, "intermolecular_energy": -7.13, "internal_energy": -2.36, "cluster_size": 3, "cluster_id": 3, "rank_in_cluster": 2}

>  <energy>  (42) 
-6.25

>  <cluster_rmsd>  (42) 
0.12

>  <cluster>  (42) 
4

$$$$

     RDKit          3D

 38 39  0  0  0  0  0  0  0  0999 V2000
  142.6170   80.4700  223.6750 C   0  0  0  0  0  0  0  0  0  0  0  0
  142.5710   79.4040  222.6860 N   0  0  0  0  0  0  0  0  0  0  0  0
  141.4610   78.5430  222.6950 C   0  0  0  0  0  0  0  0  0  0  0  0
  140.5000   78.6210  223.4930 O   0  0  0  0  0  0  0  0  0  0  0  0
  141.4210   77.4440  221.6710 C   0  0  0  0  0  0  0  0  0  0  0  0
  140.3310   76.5380  221.8570 N   0  0  0  0  0  0  0  0  0  0  0  0
  140.0190   75.5930  220.8220 C   0  0  0  0  0  0  0  0  0  0  0  0
  140.6800   75.5430  219.7530 O   0  0  0  0  0  0  0  0  0  0  0  0
  138.8920   74.6810  221.0570 C   0  0  0  0  0  0  0  0  0  0  0  0
  139.1450   73.7900  222.1630 N   0  0  0  0  0  0  0  0  0  0  0  0
  139.1290   72.3890  221.9220 C   0  0  0  0  0  0  0  0  0  0  0  0
  138.8970   71.9280  220.7640 O   0  0  0  0  0  0  0  0  0  0  0  0
  139.3860   71.4740  223.0430 C   0  0  0  0  0  0  0  0  0  0  0  0
  139.0240   70.1430  222.9170 C   0  0  0  0  0  0  0  0  0  0  0  0
  139.2780   69.2910  223.9950 C   0  0  0  0  0  0  0  0  0  0  0  0
  139.8780   69.7990  225.1470 C   0  0  0  0  0  0  0  0  0  0  0  0
  140.1120   68.9240  226.1900 C   0  0  0  0  0  0  0  0  0  0  0  0
  140.7130   69.4200  227.3500 C   0  0  0  0  0  0  0  0  0  0  0  0
  141.0350   68.3470  228.7140 Cl  0  0  0  0  0  0  0  0  0  0  0  0
  141.0480   70.7610  227.4060 C   0  0  0  0  0  0  0  0  0  0  0  0
  140.8230   71.6430  226.3790 C   0  0  0  0  0  0  0  0  0  0  0  0
  140.2270   71.1430  225.2350 C   0  0  0  0  0  0  0  0  0  0  0  0
  139.9550   71.9040  224.1640 N   0  0  0  0  0  0  0  0  0  0  0  0
  142.5982   80.0343  224.6849 H   0  0  0  0  0  0  0  0  0  0  0  0
  143.5411   81.0521  223.5440 H   0  0  0  0  0  0  0  0  0  0  0  0
  141.7465   81.1296  223.5440 H   0  0  0  0  0  0  0  0  0  0  0  0
  143.3320   79.2610  221.9770 H   0  0  0  0  0  0  0  0  0  0  0  0
  141.3306   77.8991  220.6736 H   0  0  0  0  0  0  0  0  0  0  0  0
  142.3493   76.8638  221.7790 H   0  0  0  0  0  0  0  0  0  0  0  0
  139.7480   76.5450  222.7430 H   0  0  0  0  0  0  0  0  0  0  0  0
  137.9930   75.2754  221.2772 H   0  0  0  0  0  0  0  0  0  0  0  0
  138.7513   74.0713  220.1523 H   0  0  0  0  0  0  0  0  0  0  0  0
  139.3410   74.1120  223.1400 H   0  0  0  0  0  0  0  0  0  0  0  0
  138.5513   69.7684  221.9971 H   0  0  0  0  0  0  0  0  0  0  0  0
  139.0065   68.2267  223.9354 H   0  0  0  0  0  0  0  0  0  0  0  0
  139.8322   67.8632  226.1094 H   0  0  0  0  0  0  0  0  0  0  0  0
  141.5205   71.1411  228.3238 H   0  0  0  0  0  0  0  0  0  0  0  0
  141.1047   72.7031  226.4619 H   0  0  0  0  0  0  0  0  0  0  0  0
  1  2  1  0
  2  3  1  0
  3  4  2  0
  3  5  1  0
  5  6  1  0
  6  7  1  0
  7  8  2  0
  7  9  1  0
  9 10  1  0
 10 11  1  0
 11 12  2  0
 11 13  1  0
 13 14  2  0
 14 15  1  0
 15 16  2  0
 16 17  1  0
 17 18  2  0
 18 19  1  0
 18 20  1  0
 20 21  2  0
 21 22  1  0
 22 23  2  0
 23 13  1  0
 22 16  1  0
  1 24  1  0
  1 25  1  0
  1 26  1  0
  2 27  1  0
  5 28  1  0
  5 29  1  0
  6 30  1  0
  9 31  1  0
  9 32  1  0
 10 33  1  0
 14 34  1  0
 15 35  1  0
 17 36  1  0
 20 37  1  0
 21 38  1  0
M  END
>  <smiles>  (43) 
CNC(=O)CNC(=O)CNC(=O)c1ccc2cc(Cl)ccc2n1

>  <score_type>  (43) 
oracle

>  <origin>  (43) 
autodockgpu

>  <m_score__min__energy>  (43) 
-7.2199999999999998

>  <m_primary>  (43) 
energy

>  <rmsd>  (43) 
1.5306650826682526

>  <m_score__min__rmsd>  (43) 
1.5306650826682526

>  <meeko>  (43) 
{"free_energy": -6.93, "intermolecular_energy": -8.42, "internal_energy": -1.57, "cluster_size": 19, "cluster_id": 1, "rank_in_cluster": 4}

>  <energy>  (43) 
-6.25

>  <cluster_rmsd>  (43) 
0.15

>  <cluster>  (43) 
4

$$$$

     RDKit          3D

 38 39  0  0  0  0  0  0  0  0999 V2000
  141.5380   78.7460  223.8070 C   0  0  0  0  0  0  0  0  0  0  0  0
  141.4450   78.0480  222.5340 N   0  0  0  0  0  0  0  0  0  0  0  0
  140.4300   78.4350  221.6420 C   0  0  0  0  0  0  0  0  0  0  0  0
  139.5930   79.3400  221.8570 O   0  0  0  0  0  0  0  0  0  0  0  0
  140.3400   77.7080  220.3290 C   0  0  0  0  0  0  0  0  0  0  0  0
  139.5130   76.5430  220.3850 N   0  0  0  0  0  0  0  0  0  0  0  0
  139.9140   75.4360  221.2080 C   0  0  0  0  0  0  0  0  0  0  0  0
  140.9770   75.4650  221.8790 O   0  0  0  0  0  0  0  0  0  0  0  0
  139.0340   74.2610  221.2350 C   0  0  0  0  0  0  0  0  0  0  0  0
  139.3320   73.3950  222.3500 N   0  0  0  0  0  0  0  0  0  0  0  0
  138.9780   72.0200  222.2540 C   0  0  0  0  0  0  0  0  0  0  0  0
  138.4130   71.5630  221.2160 O   0  0  0  0  0  0  0  0  0  0  0  0
  139.2780   71.1310  223.3850 C   0  0  0  0  0  0  0  0  0  0  0  0
  138.9440   69.7900  223.2880 C   0  0  0  0  0  0  0  0  0  0  0  0
  139.2380   68.9620  224.3750 C   0  0  0  0  0  0  0  0  0  0  0  0
  139.8500   69.5040  225.5060 C   0  0  0  0  0  0  0  0  0  0  0  0
  140.1250   68.6520  226.5580 C   0  0  0  0  0  0  0  0  0  0  0  0
  140.7370   69.1800  227.6980 C   0  0  0  0  0  0  0  0  0  0  0  0
  141.1100   68.1380  229.0720 Cl  0  0  0  0  0  0  0  0  0  0  0  0
  141.0430   70.5290  227.7250 C   0  0  0  0  0  0  0  0  0  0  0  0
  140.7770   71.3880  226.6880 C   0  0  0  0  0  0  0  0  0  0  0  0
  140.1700   70.8560  225.5650 C   0  0  0  0  0  0  0  0  0  0  0  0
  139.8590   71.5920  224.4860 N   0  0  0  0  0  0  0  0  0  0  0  0
  141.4416   78.0224  224.6298 H   0  0  0  0  0  0  0  0  0  0  0  0
  142.5116   79.2531  223.8769 H   0  0  0  0  0  0  0  0  0  0  0  0
  140.7311   79.4903  223.8769 H   0  0  0  0  0  0  0  0  0  0  0  0
  142.1030   77.2750  222.2660 H   0  0  0  0  0  0  0  0  0  0  0  0
  139.9253   78.3951  219.5768 H   0  0  0  0  0  0  0  0  0  0  0  0
  141.3559   77.3752  220.0697 H   0  0  0  0  0  0  0  0  0  0  0  0
  138.6090   76.4770  219.8360 H   0  0  0  0  0  0  0  0  0  0  0  0
  137.9904   74.5993  221.3157 H   0  0  0  0  0  0  0  0  0  0  0  0
  139.1941   73.6920  220.3073 H   0  0  0  0  0  0  0  0  0  0  0  0
  139.7960   73.7160  223.2320 H   0  0  0  0  0  0  0  0  0  0  0  0
  138.4625   69.3894  222.3838 H   0  0  0  0  0  0  0  0  0  0  0  0
  138.9889   67.8912  224.3392 H   0  0  0  0  0  0  0  0  0  0  0  0
  139.8685   67.5839  226.4998 H   0  0  0  0  0  0  0  0  0  0  0  0
  141.5255   70.9351  228.6262 H   0  0  0  0  0  0  0  0  0  0  0  0
  141.0359   72.4554  226.7477 H   0  0  0  0  0  0  0  0  0  0  0  0
  1  2  1  0
  2  3  1  0
  3  4  2  0
  3  5  1  0
  5  6  1  0
  6  7  1  0
  7  8  2  0
  7  9  1  0
  9 10  1  0
 10 11  1  0
 11 12  2  0
 11 13  1  0
 13 14  2  0
 14 15  1  0
 15 16  2  0
 16 17  1  0
 17 18  2  0
 18 19  1  0
 18 20  1  0
 20 21  2  0
 21 22  1  0
 22 23  2  0
 23 13  1  0
 22 16  1  0
  1 24  1  0
  1 25  1  0
  1 26  1  0
  2 27  1  0
  5 28  1  0
  5 29  1  0
  6 30  1  0
  9 31  1  0
  9 32  1  0
 10 33  1  0
 14 34  1  0
 15 35  1  0
 17 36  1  0
 20 37  1  0
 21 38  1  0
M  END
>  <smiles>  (44) 
CNC(=O)CNC(=O)CNC(=O)c1ccc2cc(Cl)ccc2n1

>  <score_type>  (44) 
oracle

>  <origin>  (44) 
autodockgpu

>  <m_score__min__energy>  (44) 
-7.2199999999999998

>  <m_primary>  (44) 
energy

>  <rmsd>  (44) 
1.1592161176627362

>  <m_score__min__rmsd>  (44) 
1.1592161176627362

>  <meeko>  (44) 
{"free_energy": -6.48, "intermolecular_energy": -7.97, "internal_energy": -2.06, "cluster_size": 19, "cluster_id": 1, "rank_in_cluster": 10}

>  <energy>  (44) 
-6.25

>  <cluster_rmsd>  (44) 
0.18

>  <cluster>  (44) 
4

$$$$

     RDKit          3D

 38 39  0  0  0  0  0  0  0  0999 V2000
  140.0390   67.3890  226.4710 C   0  0  0  0  0  0  0  0  0  0  0  0
  139.9140   68.8290  226.3100 N   0  0  0  0  0  0  0  0  0  0  0  0
  141.0590   69.5540  225.9370 C   0  0  0  0  0  0  0  0  0  0  0  0
  142.1880   69.0540  225.7300 O   0  0  0  0  0  0  0  0  0  0  0  0
  140.9220   71.0410  225.7730 C   0  0  0  0  0  0  0  0  0  0  0  0
  140.4720   71.4260  224.4720 N   0  0  0  0  0  0  0  0  0  0  0  0
  139.1230   71.1260  224.0790 C   0  0  0  0  0  0  0  0  0  0  0  0
  138.3280   70.5320  224.8510 O   0  0  0  0  0  0  0  0  0  0  0  0
  138.7040   71.5410  222.7340 C   0  0  0  0  0  0  0  0  0  0  0  0
  139.0690   72.9080  222.4560 N   0  0  0  0  0  0  0  0  0  0  0  0
  140.3490   73.1670  221.8910 C   0  0  0  0  0  0  0  0  0  0  0  0
  141.1530   72.2210  221.6360 O   0  0  0  0  0  0  0  0  0  0  0  0
  140.7290   74.5580  221.6040 C   0  0  0  0  0  0  0  0  0  0  0  0
  141.7140   74.8010  220.6620 C   0  0  0  0  0  0  0  0  0  0  0  0
  142.0600   76.1300  220.4060 C   0  0  0  0  0  0  0  0  0  0  0  0
  141.4130   77.1550  221.0960 C   0  0  0  0  0  0  0  0  0  0  0  0
  141.7840   78.4560  220.8130 C   0  0  0  0  0  0  0  0  0  0  0  0
  141.1430   79.4920  221.4960 C   0  0  0  0  0  0  0  0  0  0  0  0
  141.5780   81.1720  221.1760 Cl  0  0  0  0  0  0  0  0  0  0  0  0
  140.1680   79.1750  222.4250 C   0  0  0  0  0  0  0  0  0  0  0  0
  139.7880   77.8890  222.7170 C   0  0  0  0  0  0  0  0  0  0  0  0
  140.4280   76.8690  222.0360 C   0  0  0  0  0  0  0  0  0  0  0  0
  140.1460   75.5730  222.2310 N   0  0  0  0  0  0  0  0  0  0  0  0
  140.0606   67.1403  227.5423 H   0  0  0  0  0  0  0  0  0  0  0  0
  139.1807   66.8911  225.9962 H   0  0  0  0  0  0  0  0  0  0  0  0
  140.9703   67.0464  225.9962 H   0  0  0  0  0  0  0  0  0  0  0  0
  139.0080   69.3360  226.4620 H   0  0  0  0  0  0  0  0  0  0  0  0
  140.1992   71.4093  226.5159 H   0  0  0  0  0  0  0  0  0  0  0  0
  141.9211   71.4785  225.9155 H   0  0  0  0  0  0  0  0  0  0  0  0
  141.1090   71.9280  223.7900 H   0  0  0  0  0  0  0  0  0  0  0  0
  139.1863   70.8863  221.9932 H   0  0  0  0  0  0  0  0  0  0  0  0
  137.6082   71.4622  222.6783 H   0  0  0  0  0  0  0  0  0  0  0  0
  138.4480   73.7300  222.6460 H   0  0  0  0  0  0  0  0  0  0  0  0
  142.2086   73.9737  220.1319 H   0  0  0  0  0  0  0  0  0  0  0  0
  142.8378   76.3666  219.6650 H   0  0  0  0  0  0  0  0  0  0  0  0
  142.5648   78.6702  220.0683 H   0  0  0  0  0  0  0  0  0  0  0  0
  139.6704   79.9983  222.9585 H   0  0  0  0  0  0  0  0  0  0  0  0
  139.0066   77.6780  223.4619 H   0  0  0  0  0  0  0  0  0  0  0  0
  1  2  1  0
  2  3  1  0
  3  4  2  0
  3  5  1  0
  5  6  1  0
  6  7  1  0
  7  8  2  0
  7  9  1  0
  9 10  1  0
 10 11  1  0
 11 12  2  0
 11 13  1  0
 13 14  2  0
 14 15  1  0
 15 16  2  0
 16 17  1  0
 17 18  2  0
 18 19  1  0
 18 20  1  0
 20 21  2  0
 21 22  1  0
 22 23  2  0
 23 13  1  0
 22 16  1  0
  1 24  1  0
  1 25  1  0
  1 26  1  0
  2 27  1  0
  5 28  1  0
  5 29  1  0
  6 30  1  0
  9 31  1  0
  9 32  1  0
 10 33  1  0
 14 34  1  0
 15 35  1  0
 17 36  1  0
 20 37  1  0
 21 38  1  0
M  END
>  <smiles>  (45) 
CNC(=O)CNC(=O)CNC(=O)c1ccc2cc(Cl)ccc2n1

>  <score_type>  (45) 
oracle

>  <origin>  (45) 
autodockgpu

>  <m_score__min__energy>  (45) 
-7.2199999999999998

>  <m_primary>  (45) 
energy

>  <rmsd>  (45) 
8.299981620377828

>  <m_score__min__rmsd>  (45) 
8.299981620377828

>  <meeko>  (45) 
{"free_energy": -5.52, "intermolecular_energy": -7.02, "internal_energy": -2.49, "cluster_size": 3, "cluster_id": 5, "rank_in_cluster": 3}

>  <energy>  (45) 
-6.0

>  <cluster_rmsd>  (45) 
1.41

>  <cluster>  (45) 
4

$$$$

     RDKit          3D

 38 39  0  0  0  0  0  0  0  0999 V2000
  141.0690   71.8850  227.6650 C   0  0  0  0  0  0  0  0  0  0  0  0
  140.3150   71.1770  226.6430 N   0  0  0  0  0  0  0  0  0  0  0  0
  139.9290   69.8520  226.9070 C   0  0  0  0  0  0  0  0  0  0  0  0
  140.1840   69.2270  227.9610 O   0  0  0  0  0  0  0  0  0  0  0  0
  139.1500   69.1270  225.8460 C   0  0  0  0  0  0  0  0  0  0  0  0
  139.5540   69.4680  224.5180 N   0  0  0  0  0  0  0  0  0  0  0  0
  139.0750   70.6880  223.9300 C   0  0  0  0  0  0  0  0  0  0  0  0
  138.3070   71.4640  224.5550 O   0  0  0  0  0  0  0  0  0  0  0  0
  139.5160   70.9980  222.5640 C   0  0  0  0  0  0  0  0  0  0  0  0
  139.7450   72.4110  222.3840 N   0  0  0  0  0  0  0  0  0  0  0  0
  140.7720   72.8230  221.4890 C   0  0  0  0  0  0  0  0  0  0  0  0
  141.4720   71.9720  220.8640 O   0  0  0  0  0  0  0  0  0  0  0  0
  141.0110   74.2610  221.2990 C   0  0  0  0  0  0  0  0  0  0  0  0
  141.9430   74.6650  220.3570 C   0  0  0  0  0  0  0  0  0  0  0  0
  142.1550   76.0360  220.1930 C   0  0  0  0  0  0  0  0  0  0  0  0
  141.4330   76.9420  220.9710 C   0  0  0  0  0  0  0  0  0  0  0  0
  141.6720   78.2890  220.7770 C   0  0  0  0  0  0  0  0  0  0  0  0
  140.9560   79.2070  221.5490 C   0  0  0  0  0  0  0  0  0  0  0  0
  141.2210   80.9400  221.3450 Cl  0  0  0  0  0  0  0  0  0  0  0  0
  140.0410   78.7320  222.4720 C   0  0  0  0  0  0  0  0  0  0  0  0
  139.7920   77.3980  222.6760 C   0  0  0  0  0  0  0  0  0  0  0  0
  140.5060   76.4960  221.9070 C   0  0  0  0  0  0  0  0  0  0  0  0
  140.3530   75.1670  222.0120 N   0  0  0  0  0  0  0  0  0  0  0  0
  140.7277   71.5646  228.6604 H   0  0  0  0  0  0  0  0  0  0  0  0
  142.1396   71.6583  227.5539 H   0  0  0  0  0  0  0  0  0  0  0  0
  140.9100   72.9678  227.5539 H   0  0  0  0  0  0  0  0  0  0  0  0
  140.0540   71.6200  225.7270 H   0  0  0  0  0  0  0  0  0  0  0  0
  139.2905   68.0452  225.9871 H   0  0  0  0  0  0  0  0  0  0  0  0
  138.0965   69.4247  225.9535 H   0  0  0  0  0  0  0  0  0  0  0  0
  140.2000   68.8430  223.9560 H   0  0  0  0  0  0  0  0  0  0  0  0
  140.4516   70.4566  222.3601 H   0  0  0  0  0  0  0  0  0  0  0  0
  138.7215   70.6885  221.8690 H   0  0  0  0  0  0  0  0  0  0  0  0
  139.1990   73.1600  222.8730 H   0  0  0  0  0  0  0  0  0  0  0  0
  142.4986   73.9293  219.7570 H   0  0  0  0  0  0  0  0  0  0  0  0
  142.8861   76.3990  219.4556 H   0  0  0  0  0  0  0  0  0  0  0  0
  142.4075   78.6299  220.0334 H   0  0  0  0  0  0  0  0  0  0  0  0
  139.4829   79.4634  223.0750 H   0  0  0  0  0  0  0  0  0  0  0  0
  139.0555   77.0598  223.4198 H   0  0  0  0  0  0  0  0  0  0  0  0
  1  2  1  0
  2  3  1  0
  3  4  2  0
  3  5  1  0
  5  6  1  0
  6  7  1  0
  7  8  2  0
  7  9  1  0
  9 10  1  0
 10 11  1  0
 11 12  2  0
 11 13  1  0
 13 14  2  0
 14 15  1  0
 15 16  2  0
 16 17  1  0
 17 18  2  0
 18 19  1  0
 18 20  1  0
 20 21  2  0
 21 22  1  0
 22 23  2  0
 23 13  1  0
 22 16  1  0
  1 24  1  0
  1 25  1  0
  1 26  1  0
  2 27  1  0
  5 28  1  0
  5 29  1  0
  6 30  1  0
  9 31  1  0
  9 32  1  0
 10 33  1  0
 14 34  1  0
 15 35  1  0
 17 36  1  0
 20 37  1  0
 21 38  1  0
M  END
>  <smiles>  (46) 
CNC(=O)CNC(=O)CNC(=O)c1ccc2cc(Cl)ccc2n1

>  <score_type>  (46) 
oracle

>  <origin>  (46) 
autodockgpu

>  <m_score__min__energy>  (46) 
-7.2199999999999998

>  <m_primary>  (46) 
energy

>  <rmsd>  (46) 
8.004392005563199

>  <m_score__min__rmsd>  (46) 
8.004392005563199

>  <meeko>  (46) 
{"free_energy": -5.77, "intermolecular_energy": -7.26, "internal_energy": -2.03, "cluster_size": 3, "cluster_id": 5, "rank_in_cluster": 1}

>  <energy>  (46) 
-5.77

>  <cluster_rmsd>  (46) 
0.0

>  <cluster>  (46) 
5

$$$$

     RDKit          3D

 38 39  0  0  0  0  0  0  0  0999 V2000
  141.8710   79.9350  223.3810 C   0  0  0  0  0  0  0  0  0  0  0  0
  142.0510   78.8500  222.4290 N   0  0  0  0  0  0  0  0  0  0  0  0
  141.5950   79.0430  221.1130 C   0  0  0  0  0  0  0  0  0  0  0  0
  141.0420   80.0840  220.6930 O   0  0  0  0  0  0  0  0  0  0  0  0
  141.7840   77.9170  220.1360 C   0  0  0  0  0  0  0  0  0  0  0  0
  140.7030   76.9810  220.1390 N   0  0  0  0  0  0  0  0  0  0  0  0
  140.4930   76.1560  221.2960 C   0  0  0  0  0  0  0  0  0  0  0  0
  141.2370   76.2350  222.3070 O   0  0  0  0  0  0  0  0  0  0  0  0
  139.3710   75.2090  221.2550 C   0  0  0  0  0  0  0  0  0  0  0  0
  139.4430   74.2460  222.3260 N   0  0  0  0  0  0  0  0  0  0  0  0
  139.8270   72.9130  222.0150 C   0  0  0  0  0  0  0  0  0  0  0  0
  140.1000   72.5730  220.8250 O   0  0  0  0  0  0  0  0  0  0  0  0
  139.9040   71.9250  223.1010 C   0  0  0  0  0  0  0  0  0  0  0  0
  139.4700   70.6320  222.8610 C   0  0  0  0  0  0  0  0  0  0  0  0
  139.5510   69.7100  223.9080 C   0  0  0  0  0  0  0  0  0  0  0  0
  140.0600   70.1140  225.1420 C   0  0  0  0  0  0  0  0  0  0  0  0
  140.1240   69.1710  226.1510 C   0  0  0  0  0  0  0  0  0  0  0  0
  140.6320   69.5620  227.3930 C   0  0  0  0  0  0  0  0  0  0  0  0
  140.7360   68.4010  228.7170 Cl  0  0  0  0  0  0  0  0  0  0  0  0
  141.0470   70.8710  227.5610 C   0  0  0  0  0  0  0  0  0  0  0  0
  140.9900   71.8190  226.5700 C   0  0  0  0  0  0  0  0  0  0  0  0
  140.4860   71.4230  225.3440 C   0  0  0  0  0  0  0  0  0  0  0  0
  140.3790   72.2540  224.2970 N   0  0  0  0  0  0  0  0  0  0  0  0
  141.9367   79.5389  224.4051 H   0  0  0  0  0  0  0  0  0  0  0  0
  142.6561   80.6903  223.2289 H   0  0  0  0  0  0  0  0  0  0  0  0
  140.8841   80.3963  223.2289 H   0  0  0  0  0  0  0  0  0  0  0  0
  142.5040   77.9400  222.6910 H   0  0  0  0  0  0  0  0  0  0  0  0
  141.8753   78.3424  219.1257 H   0  0  0  0  0  0  0  0  0  0  0  0
  142.6899   77.3710  220.4379 H   0  0  0  0  0  0  0  0  0  0  0  0
  140.0530   76.8820  219.3080 H   0  0  0  0  0  0  0  0  0  0  0  0
  138.4287   75.7696  221.3431 H   0  0  0  0  0  0  0  0  0  0  0  0
  139.4191   74.6634  220.3011 H   0  0  0  0  0  0  0  0  0  0  0  0
  139.2290   74.4680  223.3280 H   0  0  0  0  0  0  0  0  0  0  0  0
  139.0740   70.3399  221.8772 H   0  0  0  0  0  0  0  0  0  0  0  0
  139.2156   68.6729  223.7599 H   0  0  0  0  0  0  0  0  0  0  0  0
  139.7837   68.1389  225.9806 H   0  0  0  0  0  0  0  0  0  0  0  0
  141.4444   71.1684  228.5426 H   0  0  0  0  0  0  0  0  0  0  0  0
  141.3308   72.8504  226.7434 H   0  0  0  0  0  0  0  0  0  0  0  0
  1  2  1  0
  2  3  1  0
  3  4  2  0
  3  5  1  0
  5  6  1  0
  6  7  1  0
  7  8  2  0
  7  9  1  0
  9 10  1  0
 10 11  1  0
 11 12  2  0
 11 13  1  0
 13 14  2  0
 14 15  1  0
 15 16  2  0
 16 17  1  0
 17 18  2  0
 18 19  1  0
 18 20  1  0
 20 21  2  0
 21 22  1  0
 22 23  2  0
 23 13  1  0
 22 16  1  0
  1 24  1  0
  1 25  1  0
  1 26  1  0
  2 27  1  0
  5 28  1  0
  5 29  1  0
  6 30  1  0
  9 31  1  0
  9 32  1  0
 10 33  1  0
 14 34  1  0
 15 35  1  0
 17 36  1  0
 20 37  1  0
 21 38  1  0
M  END
>  <smiles>  (47) 
CNC(=O)CNC(=O)CNC(=O)c1ccc2cc(Cl)ccc2n1

>  <score_type>  (47) 
oracle

>  <origin>  (47) 
autodockgpu

>  <m_score__min__energy>  (47) 
-7.2199999999999998

>  <m_primary>  (47) 
energy

>  <rmsd>  (47) 
1.6263163585610516

>  <m_score__min__rmsd>  (47) 
1.6263163585610516

>  <meeko>  (47) 
{"free_energy": -6.78, "intermolecular_energy": -8.27, "internal_energy": -1.77, "cluster_size": 19, "cluster_id": 1, "rank_in_cluster": 5}

>  <energy>  (47) 
-5.65

>  <cluster_rmsd>  (47) 
1.33

>  <cluster>  (47) 
5

$$$$

     RDKit          3D

 38 39  0  0  0  0  0  0  0  0999 V2000
  143.9970   74.0000  220.1660 C   0  0  0  0  0  0  0  0  0  0  0  0
  142.8070   74.8310  220.2670 N   0  0  0  0  0  0  0  0  0  0  0  0
  142.7820   76.0380  219.5460 C   0  0  0  0  0  0  0  0  0  0  0  0
  143.7100   76.4580  218.8190 O   0  0  0  0  0  0  0  0  0  0  0  0
  141.5500   76.8910  219.6550 C   0  0  0  0  0  0  0  0  0  0  0  0
  140.3480   76.1290  219.7950 N   0  0  0  0  0  0  0  0  0  0  0  0
  139.9980   75.6010  221.0840 C   0  0  0  0  0  0  0  0  0  0  0  0
  140.7240   75.7900  222.0940 O   0  0  0  0  0  0  0  0  0  0  0  0
  138.7550   74.8260  221.1820 C   0  0  0  0  0  0  0  0  0  0  0  0
  138.8250   73.8280  222.2220 N   0  0  0  0  0  0  0  0  0  0  0  0
  139.8510   72.8460  222.1510 C   0  0  0  0  0  0  0  0  0  0  0  0
  140.6860   72.8420  221.1970 O   0  0  0  0  0  0  0  0  0  0  0  0
  139.9310   71.8260  223.2060 C   0  0  0  0  0  0  0  0  0  0  0  0
  139.5110   70.5370  222.9240 C   0  0  0  0  0  0  0  0  0  0  0  0
  139.5950   69.5840  223.9420 C   0  0  0  0  0  0  0  0  0  0  0  0
  140.0910   69.9540  225.1920 C   0  0  0  0  0  0  0  0  0  0  0  0
  140.1580   68.9820  226.1720 C   0  0  0  0  0  0  0  0  0  0  0  0
  140.6530   69.3390  227.4290 C   0  0  0  0  0  0  0  0  0  0  0  0
  140.7600   68.1390  228.7170 Cl  0  0  0  0  0  0  0  0  0  0  0  0
  141.0530   70.6470  227.6400 C   0  0  0  0  0  0  0  0  0  0  0  0
  140.9940   71.6240  226.6780 C   0  0  0  0  0  0  0  0  0  0  0  0
  140.5020   71.2610  225.4370 C   0  0  0  0  0  0  0  0  0  0  0  0
  140.3940   72.1230  224.4150 N   0  0  0  0  0  0  0  0  0  0  0  0
  144.3559   73.7494  221.1751 H   0  0  0  0  0  0  0  0  0  0  0  0
  143.7532   73.0748  219.6233 H   0  0  0  0  0  0  0  0  0  0  0  0
  144.7816   74.5475  219.6233 H   0  0  0  0  0  0  0  0  0  0  0  0
  141.9790   74.5610  220.8520 H   0  0  0  0  0  0  0  0  0  0  0  0
  141.6539   77.5447  220.5336 H   0  0  0  0  0  0  0  0  0  0  0  0
  141.4662   77.4652  218.7205 H   0  0  0  0  0  0  0  0  0  0  0  0
  139.7070   75.9470  218.9710 H   0  0  0  0  0  0  0  0  0  0  0  0
  137.9242   75.5123  221.4028 H   0  0  0  0  0  0  0  0  0  0  0  0
  138.5981   74.3097  220.2234 H   0  0  0  0  0  0  0  0  0  0  0  0
  138.1640   73.7810  223.0330 H   0  0  0  0  0  0  0  0  0  0  0  0
  139.1233   70.2717  221.9294 H   0  0  0  0  0  0  0  0  0  0  0  0
  139.2721   68.5485  223.7590 H   0  0  0  0  0  0  0  0  0  0  0  0
  139.8296   67.9523  225.9675 H   0  0  0  0  0  0  0  0  0  0  0  0
  141.4395   70.9185  228.6334 H   0  0  0  0  0  0  0  0  0  0  0  0
  141.3241   72.6527  226.8850 H   0  0  0  0  0  0  0  0  0  0  0  0
  1  2  1  0
  2  3  1  0
  3  4  2  0
  3  5  1  0
  5  6  1  0
  6  7  1  0
  7  8  2  0
  7  9  1  0
  9 10  1  0
 10 11  1  0
 11 12  2  0
 11 13  1  0
 13 14  2  0
 14 15  1  0
 15 16  2  0
 16 17  1  0
 17 18  2  0
 18 19  1  0
 18 20  1  0
 20 21  2  0
 21 22  1  0
 22 23  2  0
 23 13  1  0
 22 16  1  0
  1 24  1  0
  1 25  1  0
  1 26  1  0
  2 27  1  0
  5 28  1  0
  5 29  1  0
  6 30  1  0
  9 31  1  0
  9 32  1  0
 10 33  1  0
 14 34  1  0
 15 35  1  0
 17 36  1  0
 20 37  1  0
 21 38  1  0
M  END
>  <smiles>  (48) 
CNC(=O)CNC(=O)CNC(=O)c1ccc2cc(Cl)ccc2n1

>  <score_type>  (48) 
oracle

>  <origin>  (48) 
autodockgpu

>  <m_score__min__energy>  (48) 
-7.2199999999999998

>  <m_primary>  (48) 
energy

>  <rmsd>  (48) 
2.4527269272029324

>  <m_score__min__rmsd>  (48) 
2.4527269272029324

>  <meeko>  (48) 
{"free_energy": -6.21, "intermolecular_energy": -7.7, "internal_energy": -2.34, "cluster_size": 19, "cluster_id": 1, "rank_in_cluster": 14}

>  <energy>  (48) 
-5.52

>  <cluster_rmsd>  (48) 
1.33

>  <cluster>  (48) 
5

$$$$

     RDKit          3D

 38 39  0  0  0  0  0  0  0  0999 V2000
  143.6160   71.3900  219.6950 C   0  0  0  0  0  0  0  0  0  0  0  0
  143.0860   72.7430  219.7740 N   0  0  0  0  0  0  0  0  0  0  0  0
  143.9850   73.7890  220.0450 C   0  0  0  0  0  0  0  0  0  0  0  0
  145.2150   73.6480  220.2260 O   0  0  0  0  0  0  0  0  0  0  0  0
  143.4300   75.1830  220.1260 C   0  0  0  0  0  0  0  0  0  0  0  0
  142.2060   75.2610  220.8600 N   0  0  0  0  0  0  0  0  0  0  0  0
  140.9650   75.0010  220.1850 C   0  0  0  0  0  0  0  0  0  0  0  0
  140.9280   74.7080  218.9630 O   0  0  0  0  0  0  0  0  0  0  0  0
  139.7320   75.0920  220.9790 C   0  0  0  0  0  0  0  0  0  0  0  0
  139.7410   74.1690  222.0880 N   0  0  0  0  0  0  0  0  0  0  0  0
  140.0190   72.7990  221.8290 C   0  0  0  0  0  0  0  0  0  0  0  0
  140.2540   72.3930  220.6520 O   0  0  0  0  0  0  0  0  0  0  0  0
  140.0300   71.8530  222.9540 C   0  0  0  0  0  0  0  0  0  0  0  0
  139.5440   70.5710  222.7540 C   0  0  0  0  0  0  0  0  0  0  0  0
  139.5630   69.6880  223.8370 C   0  0  0  0  0  0  0  0  0  0  0  0
  140.0630   70.1180  225.0660 C   0  0  0  0  0  0  0  0  0  0  0  0
  140.0650   69.2150  226.1110 C   0  0  0  0  0  0  0  0  0  0  0  0
  140.5630   69.6310  227.3480 C   0  0  0  0  0  0  0  0  0  0  0  0
  140.5890   68.5200  228.7180 Cl  0  0  0  0  0  0  0  0  0  0  0  0
  141.0320   70.9270  227.4750 C   0  0  0  0  0  0  0  0  0  0  0  0
  141.0380   71.8360  226.4470 C   0  0  0  0  0  0  0  0  0  0  0  0
  140.5420   71.4140  225.2270 C   0  0  0  0  0  0  0  0  0  0  0  0
  140.4940   72.2080  224.1460 N   0  0  0  0  0  0  0  0  0  0  0  0
  143.7701   70.9967  220.7107 H   0  0  0  0  0  0  0  0  0  0  0  0
  142.9030   70.7477  219.1573 H   0  0  0  0  0  0  0  0  0  0  0  0
  144.5755   71.4029  219.1573 H   0  0  0  0  0  0  0  0  0  0  0  0
  142.0680   72.9580  219.6370 H   0  0  0  0  0  0  0  0  0  0  0  0
  144.1739   75.8272  220.6176 H   0  0  0  0  0  0  0  0  0  0  0  0
  143.2153   75.5091  219.0976 H   0  0  0  0  0  0  0  0  0  0  0  0
  142.1910   75.5040  221.8920 H   0  0  0  0  0  0  0  0  0  0  0  0
  139.6338   76.1160  221.3685 H   0  0  0  0  0  0  0  0  0  0  0  0
  138.8846   74.8350  220.3264 H   0  0  0  0  0  0  0  0  0  0  0  0
  139.5530   74.4470  223.0810 H   0  0  0  0  0  0  0  0  0  0  0  0
  139.1555   70.2581  221.7736 H   0  0  0  0  0  0  0  0  0  0  0  0
  139.1863   68.6611  223.7210 H   0  0  0  0  0  0  0  0  0  0  0  0
  139.6835   68.1926  225.9725 H   0  0  0  0  0  0  0  0  0  0  0  0
  141.4211   71.2457  228.4533 H   0  0  0  0  0  0  0  0  0  0  0  0
  141.4212   72.8575  226.5875 H   0  0  0  0  0  0  0  0  0  0  0  0
  1  2  1  0
  2  3  1  0
  3  4  2  0
  3  5  1  0
  5  6  1  0
  6  7  1  0
  7  8  2  0
  7  9  1  0
  9 10  1  0
 10 11  1  0
 11 12  2  0
 11 13  1  0
 13 14  2  0
 14 15  1  0
 15 16  2  0
 16 17  1  0
 17 18  2  0
 18 19  1  0
 18 20  1  0
 20 21  2  0
 21 22  1  0
 22 23  2  0
 23 13  1  0
 22 16  1  0
  1 24  1  0
  1 25  1  0
  1 26  1  0
  2 27  1  0
  5 28  1  0
  5 29  1  0
  6 30  1  0
  9 31  1  0
  9 32  1  0
 10 33  1  0
 14 34  1  0
 15 35  1  0
 17 36  1  0
 20 37  1  0
 21 38  1  0
M  END
>  <smiles>  (49) 
CNC(=O)CNC(=O)CNC(=O)c1ccc2cc(Cl)ccc2n1

>  <score_type>  (49) 
oracle

>  <origin>  (49) 
autodockgpu

>  <m_score__min__energy>  (49) 
-7.2199999999999998

>  <m_primary>  (49) 
energy

>  <rmsd>  (49) 
3.4499219720399843

>  <m_score__min__rmsd>  (49) 
3.4499219720399843

>  <meeko>  (49) 
{"free_energy": -6.41, "intermolecular_energy": -7.91, "internal_energy": -2.58, "cluster_size": 18, "cluster_id": 2, "rank_in_cluster": 11}

>  <energy>  (49) 
-5.56

>  <cluster_rmsd>  (49) 
0.0

>  <cluster>  (49) 
6

$$$$

     RDKit          3D

 38 39  0  0  0  0  0  0  0  0999 V2000
  141.0520   77.5590  222.0850 C   0  0  0  0  0  0  0  0  0  0  0  0
  139.9370   76.6320  222.2000 N   0  0  0  0  0  0  0  0  0  0  0  0
  138.7270   77.1180  222.7260 C   0  0  0  0  0  0  0  0  0  0  0  0
  138.5320   78.2940  223.1060 O   0  0  0  0  0  0  0  0  0  0  0  0
  137.5800   76.1540  222.8430 C   0  0  0  0  0  0  0  0  0  0  0  0
  137.8670   74.8660  222.2920 N   0  0  0  0  0  0  0  0  0  0  0  0
  137.6920   74.6510  220.8830 C   0  0  0  0  0  0  0  0  0  0  0  0
  137.2910   75.5670  220.1210 O   0  0  0  0  0  0  0  0  0  0  0  0
  138.0000   73.3130  220.3610 C   0  0  0  0  0  0  0  0  0  0  0  0
  138.2150   72.3600  221.4220 N   0  0  0  0  0  0  0  0  0  0  0  0
  139.3580   72.5180  222.2540 C   0  0  0  0  0  0  0  0  0  0  0  0
  140.1720   73.4710  222.0700 O   0  0  0  0  0  0  0  0  0  0  0  0
  139.5850   71.5510  223.3380 C   0  0  0  0  0  0  0  0  0  0  0  0
  139.2380   70.2260  223.1360 C   0  0  0  0  0  0  0  0  0  0  0  0
  139.4620   69.3250  224.1800 C   0  0  0  0  0  0  0  0  0  0  0  0
  140.0190   69.7810  225.3750 C   0  0  0  0  0  0  0  0  0  0  0  0
  140.2250   68.8580  226.3820 C   0  0  0  0  0  0  0  0  0  0  0  0
  140.7820   69.3010  227.5850 C   0  0  0  0  0  0  0  0  0  0  0  0
  141.0660   68.1660  228.9060 Cl  0  0  0  0  0  0  0  0  0  0  0  0
  141.1030   70.6400  227.7170 C   0  0  0  0  0  0  0  0  0  0  0  0
  140.9060   71.5690  226.7260 C   0  0  0  0  0  0  0  0  0  0  0  0
  140.3530   71.1210  225.5390 C   0  0  0  0  0  0  0  0  0  0  0  0
  140.1120   71.9300  224.4970 N   0  0  0  0  0  0  0  0  0  0  0  0
  141.3961   77.8451  223.0899 H   0  0  0  0  0  0  0  0  0  0  0  0
  141.8757   77.0758  221.5391 H   0  0  0  0  0  0  0  0  0  0  0  0
  140.7274   78.4571  221.5391 H   0  0  0  0  0  0  0  0  0  0  0  0
  140.0080   75.6260  221.9080 H   0  0  0  0  0  0  0  0  0  0  0  0
  137.3338   76.0315  223.9081 H   0  0  0  0  0  0  0  0  0  0  0  0
  136.7404   76.5745  222.2700 H   0  0  0  0  0  0  0  0  0  0  0  0
  138.2080   74.0660  222.8990 H   0  0  0  0  0  0  0  0  0  0  0  0
  137.1589   72.9708  219.7402 H   0  0  0  0  0  0  0  0  0  0  0  0
  138.9255   73.3814  219.7704 H   0  0  0  0  0  0  0  0  0  0  0  0
  137.5780   71.5530  221.6220 H   0  0  0  0  0  0  0  0  0  0  0  0
  138.7998   69.8932  222.1836 H   0  0  0  0  0  0  0  0  0  0  0  0
  139.2009   68.2631  224.0605 H   0  0  0  0  0  0  0  0  0  0  0  0
  139.9573   67.8005  226.2406 H   0  0  0  0  0  0  0  0  0  0  0  0
  141.5399   70.9787  228.6680 H   0  0  0  0  0  0  0  0  0  0  0  0
  141.1764   72.6256  226.8692 H   0  0  0  0  0  0  0  0  0  0  0  0
  1  2  1  0
  2  3  1  0
  3  4  2  0
  3  5  1  0
  5  6  1  0
  6  7  1  0
  7  8  2  0
  7  9  1  0
  9 10  1  0
 10 11  1  0
 11 12  2  0
 11 13  1  0
 13 14  2  0
 14 15  1  0
 15 16  2  0
 16 17  1  0
 17 18  2  0
 18 19  1  0
 18 20  1  0
 20 21  2  0
 21 22  1  0
 22 23  2  0
 23 13  1  0
 22 16  1  0
  1 24  1  0
  1 25  1  0
  1 26  1  0
  2 27  1  0
  5 28  1  0
  5 29  1  0
  6 30  1  0
  9 31  1  0
  9 32  1  0
 10 33  1  0
 14 34  1  0
 15 35  1  0
 17 36  1  0
 20 37  1  0
 21 38  1  0
M  END
>  <smiles>  (50) 
CNC(=O)CNC(=O)CNC(=O)c1ccc2cc(Cl)ccc2n1

>  <score_type>  (50) 
oracle

>  <origin>  (50) 
autodockgpu

>  <m_score__min__energy>  (50) 
-7.2199999999999998

>  <m_primary>  (50) 
energy

>  <rmsd>  (50) 
2.1234899125865754

>  <m_score__min__rmsd>  (50) 
2.1234899125865754

>  <meeko>  (50) 
{"free_energy": -6.2, "intermolecular_energy": -7.69, "internal_energy": -2.11, "cluster_size": 19, "cluster_id": 1, "rank_in_cluster": 15}

>  <energy>  (50) 
-5.38

>  <cluster_rmsd>  (50) 
0.37

>  <cluster>  (50) 
6

$$$$
