
     RDKit          3D

 51 54  0  0  0  0  0  0  0  0999 V2000
  139.8340   70.6100  221.2970 O   0  0  0  0  0  0  0  0  0  0  0  0
  139.7220   71.2050  222.4160 C   0  0  0  0  0  0  0  0  0  0  0  0
  139.5560   72.6240  222.4620 N   0  0  0  0  0  0  0  0  0  0  0  0
  139.5230   73.3280  221.1820 C   0  0  0  0  0  0  0  0  0  0  0  0
  140.3930   74.5480  221.2370 C   0  0  0  0  0  0  0  0  0  0  0  0
  140.3250   75.2520  222.2790 O   0  0  0  0  0  0  0  0  0  0  0  0
  141.2460   74.8620  220.1390 N   0  0  0  0  0  0  0  0  0  0  0  0
  140.7730   74.7160  218.7770 C   0  0  0  0  0  0  0  0  0  0  0  0
  141.2920   75.7980  217.8680 C   0  0  0  0  0  0  0  0  0  0  0  0
  142.7530   76.0930  218.1170 C   0  0  0  0  0  0  0  0  0  0  0  0
  142.9040   76.4860  219.5580 C   0  0  0  0  0  0  0  0  0  0  0  0
  142.5880   75.3290  220.4620 C   0  0  2  0  0  0  0  0  0  0  0  0
  143.6110   74.2850  220.4200 C   0  0  0  0  0  0  0  0  0  0  0  0
  144.9720   74.5640  220.4990 C   0  0  0  0  0  0  0  0  0  0  0  0
  145.9370   73.5820  220.4570 C   0  0  0  0  0  0  0  0  0  0  0  0
  145.5940   72.2630  220.3310 C   0  0  0  0  0  0  0  0  0  0  0  0
  144.2520   71.9580  220.2510 C   0  0  0  0  0  0  0  0  0  0  0  0
  143.9120   70.6410  220.1270 F   0  0  0  0  0  0  0  0  0  0  0  0
  143.2720   72.9550  220.2940 C   0  0  0  0  0  0  0  0  0  0  0  0
  139.7600   70.4580  223.6740 C   0  0  0  0  0  0  0  0  0  0  0  0
  139.1880   69.2040  223.7420 C   0  0  0  0  0  0  0  0  0  0  0  0
  139.1950   68.4480  224.9090 C   0  0  0  0  0  0  0  0  0  0  0  0
  139.7960   68.9920  226.0140 C   0  0  0  0  0  0  0  0  0  0  0  0
  139.8150   68.2570  227.1950 C   0  0  0  0  0  0  0  0  0  0  0  0
  140.4320   68.8480  228.2790 C   0  0  0  0  0  0  0  0  0  0  0  0
  140.4420   68.1130  229.4310 F   0  0  0  0  0  0  0  0  0  0  0  0
  141.0000   70.0990  228.2040 C   0  0  0  0  0  0  0  0  0  0  0  0
  140.9820   70.8260  227.0430 C   0  0  0  0  0  0  0  0  0  0  0  0
  140.3700   70.2540  225.9450 C   0  0  0  0  0  0  0  0  0  0  0  0
  140.3510   70.9730  224.7900 N   0  0  0  0  0  0  0  0  0  0  0  0
  139.4690   73.0820  223.3740 H   0  0  0  0  0  0  0  0  0  0  0  0
  139.8875   72.6577  220.3896 H   0  0  0  0  0  0  0  0  0  0  0  0
  138.4885   73.6353  220.9690 H   0  0  0  0  0  0  0  0  0  0  0  0
  141.1052   73.7411  218.3907 H   0  0  0  0  0  0  0  0  0  0  0  0
  139.6757   74.7913  218.7941 H   0  0  0  0  0  0  0  0  0  0  0  0
  141.1678   75.4748  216.8239 H   0  0  0  0  0  0  0  0  0  0  0  0
  140.7204   76.7157  218.0707 H   0  0  0  0  0  0  0  0  0  0  0  0
  143.3562   75.1971  217.9085 H   0  0  0  0  0  0  0  0  0  0  0  0
  143.0980   76.9048  217.4597 H   0  0  0  0  0  0  0  0  0  0  0  0
  143.9396   76.8109  219.7366 H   0  0  0  0  0  0  0  0  0  0  0  0
  142.2029   77.3053  219.7755 H   0  0  0  0  0  0  0  0  0  0  0  0
  142.6015   75.6546  221.5126 H   0  0  0  0  0  0  0  0  0  0  0  0
  145.2904   75.6121  220.5991 H   0  0  0  0  0  0  0  0  0  0  0  0
  146.9986   73.8619  220.5257 H   0  0  0  0  0  0  0  0  0  0  0  0
  146.3609   71.4753  220.2949 H   0  0  0  0  0  0  0  0  0  0  0  0
  142.2111   72.6724  220.2260 H   0  0  0  0  0  0  0  0  0  0  0  0
  138.7103   68.7884  222.8425 H   0  0  0  0  0  0  0  0  0  0  0  0
  138.7348   67.4495  224.9440 H   0  0  0  0  0  0  0  0  0  0  0  0
  139.3619   67.2569  227.2615 H   0  0  0  0  0  0  0  0  0  0  0  0
  141.4798   70.5254  229.0973 H   0  0  0  0  0  0  0  0  0  0  0  0
  141.4371   71.8259  226.9875 H   0  0  0  0  0  0  0  0  0  0  0  0
  1  2  2  0
  2  3  1  0
  3  4  1  0
  4  5  1  0
  5  6  2  0
  5  7  1  0
  7  8  1  0
  8  9  1  0
  9 10  1  0
 10 11  1  0
 11 12  1  0
 12 13  1  0
 13 14  2  0
 14 15  1  0
 15 16  2  0
 16 17  1  0
 17 18  1  0
 17 19  2  0
  2 20  1  0
 20 21  2  0
 21 22  1  0
 22 23  2  0
 23 24  1  0
 24 25  2  0
 25 26  1  0
 25 27  1  0
 27 28  2  0
 28 29  1  0
 29 30  2  0
 12  7  1  0
 19 13  1  0
 30 20  1  0
 29 23  1  0
  3 31  1  0
  4 32  1  0
  4 33  1  0
  8 34  1  0
  8 35  1  0
  9 36  1  0
  9 37  1  0
 10 38  1  0
 10 39  1  0
 11 40  1  0
 11 41  1  0
 12 42  1  1
 14 43  1  0
 15 44  1  0
 16 45  1  0
 19 46  1  0
 21 47  1  0
 22 48  1  0
 24 49  1  0
 27 50  1  0
 28 51  1  0
M  END
>  <smiles>  (1) 
O=C(NCC(=O)N1CCCCC1c1cccc(F)c1)c1ccc2cc(F)ccc2n1

>  <score_type>  (1) 
oracle

>  <origin>  (1) 
autodockgpu

>  <m_score__min__energy>  (1) 
-9.3000000000000007

>  <m_primary>  (1) 
energy

>  <rmsd>  (1) 
1.5359940466312525

>  <m_score__min__rmsd>  (1) 
1.5359940466312525

>  <meeko>  (1) 
{"free_energy": -8.4, "intermolecular_energy": -9.89, "internal_energy": -1.8, "cluster_size": 7, "cluster_id": 3, "rank_in_cluster": 5}

>  <energy>  (1) 
-9.3

>  <cluster_rmsd>  (1) 
0.0

>  <cluster>  (1) 
1

$$$$

     RDKit          3D

 51 54  0  0  0  0  0  0  0  0999 V2000
  139.5520   71.0490  221.4040 O   0  0  0  0  0  0  0  0  0  0  0  0
  139.6090   71.5750  222.5610 C   0  0  0  0  0  0  0  0  0  0  0  0
  139.5720   72.9970  222.7060 N   0  0  0  0  0  0  0  0  0  0  0  0
  139.4680   73.7850  221.4800 C   0  0  0  0  0  0  0  0  0  0  0  0
  140.1840   75.0920  221.6400 C   0  0  0  0  0  0  0  0  0  0  0  0
  141.4070   75.0420  221.9360 O   0  0  0  0  0  0  0  0  0  0  0  0
  139.4760   76.3150  221.4550 N   0  0  0  0  0  0  0  0  0  0  0  0
  138.7520   76.5670  220.2250 C   0  0  0  0  0  0  0  0  0  0  0  0
  137.4650   77.3120  220.4570 C   0  0  0  0  0  0  0  0  0  0  0  0
  137.6310   78.4300  221.4600 C   0  0  0  0  0  0  0  0  0  0  0  0
  138.1390   77.8300  222.7380 C   0  0  0  0  0  0  0  0  0  0  0  0
  139.5220   77.2730  222.5520 C   0  0  2  0  0  0  0  0  0  0  0  0
  140.5340   78.3180  222.3930 C   0  0  0  0  0  0  0  0  0  0  0  0
  140.8720   78.8530  221.1540 C   0  0  0  0  0  0  0  0  0  0  0  0
  141.8260   79.8340  221.0030 C   0  0  0  0  0  0  0  0  0  0  0  0
  142.4990   80.3360  222.0840 C   0  0  0  0  0  0  0  0  0  0  0  0
  142.1830   79.8230  223.3240 C   0  0  0  0  0  0  0  0  0  0  0  0
  142.8550   80.3250  224.4020 F   0  0  0  0  0  0  0  0  0  0  0  0
  141.2140   78.8260  223.4780 C   0  0  0  0  0  0  0  0  0  0  0  0
  139.7120   70.7450  223.7620 C   0  0  0  0  0  0  0  0  0  0  0  0
  139.2140   69.4580  223.7490 C   0  0  0  0  0  0  0  0  0  0  0  0
  139.2850   68.6240  224.8600 C   0  0  0  0  0  0  0  0  0  0  0  0
  139.8740   69.1240  225.9920 C   0  0  0  0  0  0  0  0  0  0  0  0
  139.9580   68.3100  227.1170 C   0  0  0  0  0  0  0  0  0  0  0  0
  140.5590   68.8590  228.2320 C   0  0  0  0  0  0  0  0  0  0  0  0
  140.6330   68.0470  229.3290 F   0  0  0  0  0  0  0  0  0  0  0  0
  141.0530   70.1430  228.2370 C   0  0  0  0  0  0  0  0  0  0  0  0
  140.9720   70.9480  227.1310 C   0  0  0  0  0  0  0  0  0  0  0  0
  140.3740   70.4180  226.0040 C   0  0  0  0  0  0  0  0  0  0  0  0
  140.2930   71.2140  224.9030 N   0  0  0  0  0  0  0  0  0  0  0  0
  139.6200   73.3980  223.6470 H   0  0  0  0  0  0  0  0  0  0  0  0
  139.9188   73.2236  220.6484 H   0  0  0  0  0  0  0  0  0  0  0  0
  138.4063   73.9817  221.2698 H   0  0  0  0  0  0  0  0  0  0  0  0
  139.3896   77.1638  219.5561 H   0  0  0  0  0  0  0  0  0  0  0  0
  138.4994   75.5933  219.7799 H   0  0  0  0  0  0  0  0  0  0  0  0
  137.1248   77.7392  219.5021 H   0  0  0  0  0  0  0  0  0  0  0  0
  136.7286   76.6009  220.8596 H   0  0  0  0  0  0  0  0  0  0  0  0
  138.3527   79.1685  221.0808 H   0  0  0  0  0  0  0  0  0  0  0  0
  136.6705   78.9385  221.6301 H   0  0  0  0  0  0  0  0  0  0  0  0
  138.1646   78.6070  223.5162 H   0  0  0  0  0  0  0  0  0  0  0  0
  137.4662   77.0123  223.0360 H   0  0  0  0  0  0  0  0  0  0  0  0
  139.8434   76.7456  223.4623 H   0  0  0  0  0  0  0  0  0  0  0  0
  140.3559   78.4768  220.2584 H   0  0  0  0  0  0  0  0  0  0  0  0
  142.0509   80.2204  219.9980 H   0  0  0  0  0  0  0  0  0  0  0  0
  143.2629   81.1189  221.9678 H   0  0  0  0  0  0  0  0  0  0  0  0
  140.9909   78.4406  224.4838 H   0  0  0  0  0  0  0  0  0  0  0  0
  138.7451   69.0789  222.8290 H   0  0  0  0  0  0  0  0  0  0  0  0
  138.8831   67.6005  224.8311 H   0  0  0  0  0  0  0  0  0  0  0  0
  139.5659   67.2823  227.1181 H   0  0  0  0  0  0  0  0  0  0  0  0
  141.5245   70.5330  229.1511 H   0  0  0  0  0  0  0  0  0  0  0  0
  141.3671   71.9746  227.1401 H   0  0  0  0  0  0  0  0  0  0  0  0
  1  2  2  0
  2  3  1  0
  3  4  1  0
  4  5  1  0
  5  6  2  0
  5  7  1  0
  7  8  1  0
  8  9  1  0
  9 10  1  0
 10 11  1  0
 11 12  1  0
 12 13  1  0
 13 14  2  0
 14 15  1  0
 15 16  2  0
 16 17  1  0
 17 18  1  0
 17 19  2  0
  2 20  1  0
 20 21  2  0
 21 22  1  0
 22 23  2  0
 23 24  1  0
 24 25  2  0
 25 26  1  0
 25 27  1  0
 27 28  2  0
 28 29  1  0
 29 30  2  0
 12  7  1  0
 19 13  1  0
 30 20  1  0
 29 23  1  0
  3 31  1  0
  4 32  1  0
  4 33  1  0
  8 34  1  0
  8 35  1  0
  9 36  1  0
  9 37  1  0
 10 38  1  0
 10 39  1  0
 11 40  1  0
 11 41  1  0
 12 42  1  1
 14 43  1  0
 15 44  1  0
 16 45  1  0
 19 46  1  0
 21 47  1  0
 22 48  1  0
 24 49  1  0
 27 50  1  0
 28 51  1  0
M  END
>  <smiles>  (2) 
O=C(NCC(=O)N1CCCCC1c1cccc(F)c1)c1ccc2cc(F)ccc2n1

>  <score_type>  (2) 
oracle

>  <origin>  (2) 
autodockgpu

>  <m_score__min__energy>  (2) 
-9.3000000000000007

>  <m_primary>  (2) 
energy

>  <rmsd>  (2) 
2.565643019334356

>  <m_score__min__rmsd>  (2) 
2.565643019334356

>  <meeko>  (2) 
{"free_energy": -8.41, "intermolecular_energy": -9.9, "internal_energy": -1.46, "cluster_size": 30, "cluster_id": 1, "rank_in_cluster": 30}

>  <energy>  (2) 
-9.29

>  <cluster_rmsd>  (2) 
0.05

>  <cluster>  (2) 
1

$$$$

     RDKit          3D

 51 54  0  0  0  0  0  0  0  0999 V2000
  140.6830   71.5680  221.3250 O   0  0  0  0  0  0  0  0  0  0  0  0
  139.9740   71.9020  222.3270 C   0  0  0  0  0  0  0  0  0  0  0  0
  139.1770   73.0890  222.2780 N   0  0  0  0  0  0  0  0  0  0  0  0
  139.2270   73.8690  221.0450 C   0  0  0  0  0  0  0  0  0  0  0  0
  140.2420   74.9650  221.1630 C   0  0  0  0  0  0  0  0  0  0  0  0
  140.2440   75.6310  222.2320 O   0  0  0  0  0  0  0  0  0  0  0  0
  141.1500   75.2100  220.0910 N   0  0  0  0  0  0  0  0  0  0  0  0
  140.7090   75.1010  218.7150 C   0  0  0  0  0  0  0  0  0  0  0  0
  141.3390   76.1380  217.8240 C   0  0  0  0  0  0  0  0  0  0  0  0
  142.8100   76.3170  218.1180 C   0  0  0  0  0  0  0  0  0  0  0  0
  142.9480   76.6980  219.5620 C   0  0  0  0  0  0  0  0  0  0  0  0
  142.5150   75.5700  220.4550 C   0  0  2  0  0  0  0  0  0  0  0  0
  143.4530   74.4480  220.4420 C   0  0  0  0  0  0  0  0  0  0  0  0
  143.0370   73.1210  220.4050 C   0  0  0  0  0  0  0  0  0  0  0  0
  143.9200   72.0640  220.3960 C   0  0  0  0  0  0  0  0  0  0  0  0
  145.2720   72.2760  220.4240 C   0  0  0  0  0  0  0  0  0  0  0  0
  145.7120   73.5820  220.4610 C   0  0  0  0  0  0  0  0  0  0  0  0
  147.0620   73.7900  220.4890 F   0  0  0  0  0  0  0  0  0  0  0  0
  144.8150   74.6550  220.4700 C   0  0  0  0  0  0  0  0  0  0  0  0
  139.9550   71.0890  223.5430 C   0  0  0  0  0  0  0  0  0  0  0  0
  139.3670   69.8400  223.5220 C   0  0  0  0  0  0  0  0  0  0  0  0
  139.3200   69.0230  224.6460 C   0  0  0  0  0  0  0  0  0  0  0  0
  139.8850   69.5000  225.8000 C   0  0  0  0  0  0  0  0  0  0  0  0
  139.8510   68.7020  226.9400 C   0  0  0  0  0  0  0  0  0  0  0  0
  140.4320   69.2260  228.0760 C   0  0  0  0  0  0  0  0  0  0  0  0
  140.3910   68.4290  229.1870 F   0  0  0  0  0  0  0  0  0  0  0  0
  141.0170   70.4710  228.0910 C   0  0  0  0  0  0  0  0  0  0  0  0
  141.0520   71.2600  226.9700 C   0  0  0  0  0  0  0  0  0  0  0  0
  140.4760   70.7550  225.8210 C   0  0  0  0  0  0  0  0  0  0  0  0
  140.5090   71.5350  224.7070 N   0  0  0  0  0  0  0  0  0  0  0  0
  138.6150   73.3390  223.0970 H   0  0  0  0  0  0  0  0  0  0  0  0
  139.5015   73.2089  220.2090 H   0  0  0  0  0  0  0  0  0  0  0  0
  138.2381   74.3155  220.8640 H   0  0  0  0  0  0  0  0  0  0  0  0
  140.9751   74.1027  218.3373 H   0  0  0  0  0  0  0  0  0  0  0  0
  139.6211   75.2628  218.6988 H   0  0  0  0  0  0  0  0  0  0  0  0
  141.2216   75.8248  216.7761 H   0  0  0  0  0  0  0  0  0  0  0  0
  140.8355   77.0980  218.0106 H   0  0  0  0  0  0  0  0  0  0  0  0
  143.3467   75.3760  217.9267 H   0  0  0  0  0  0  0  0  0  0  0  0
  143.2376   77.0986  217.4728 H   0  0  0  0  0  0  0  0  0  0  0  0
  144.0001   76.9407  219.7720 H   0  0  0  0  0  0  0  0  0  0  0  0
  142.3072   77.5700  219.7594 H   0  0  0  0  0  0  0  0  0  0  0  0
  142.5233   75.8945  221.5060 H   0  0  0  0  0  0  0  0  0  0  0  0
  141.9583   72.9071  220.3820 H   0  0  0  0  0  0  0  0  0  0  0  0
  143.5332   71.0347  220.3659 H   0  0  0  0  0  0  0  0  0  0  0  0
  145.9813   71.4353  220.4172 H   0  0  0  0  0  0  0  0  0  0  0  0
  145.2041   75.6835  220.5000 H   0  0  0  0  0  0  0  0  0  0  0  0
  138.9204   69.4789  222.5838 H   0  0  0  0  0  0  0  0  0  0  0  0
  138.8469   68.0306  224.6104 H   0  0  0  0  0  0  0  0  0  0  0  0
  139.3851   67.7055  226.9352 H   0  0  0  0  0  0  0  0  0  0  0  0
  141.4670   70.8421  229.0236 H   0  0  0  0  0  0  0  0  0  0  0  0
  141.5201   72.2553  226.9854 H   0  0  0  0  0  0  0  0  0  0  0  0
  1  2  2  0
  2  3  1  0
  3  4  1  0
  4  5  1  0
  5  6  2  0
  5  7  1  0
  7  8  1  0
  8  9  1  0
  9 10  1  0
 10 11  1  0
 11 12  1  0
 12 13  1  0
 13 14  2  0
 14 15  1  0
 15 16  2  0
 16 17  1  0
 17 18  1  0
 17 19  2  0
  2 20  1  0
 20 21  2  0
 21 22  1  0
 22 23  2  0
 23 24  1  0
 24 25  2  0
 25 26  1  0
 25 27  1  0
 27 28  2  0
 28 29  1  0
 29 30  2  0
 12  7  1  0
 19 13  1  0
 30 20  1  0
 29 23  1  0
  3 31  1  0
  4 32  1  0
  4 33  1  0
  8 34  1  0
  8 35  1  0
  9 36  1  0
  9 37  1  0
 10 38  1  0
 10 39  1  0
 11 40  1  0
 11 41  1  0
 12 42  1  1
 14 43  1  0
 15 44  1  0
 16 45  1  0
 19 46  1  0
 21 47  1  0
 22 48  1  0
 24 49  1  0
 27 50  1  0
 28 51  1  0
M  END
>  <smiles>  (3) 
O=C(NCC(=O)N1CCCCC1c1cccc(F)c1)c1ccc2cc(F)ccc2n1

>  <score_type>  (3) 
oracle

>  <origin>  (3) 
autodockgpu

>  <m_score__min__energy>  (3) 
-9.3000000000000007

>  <m_primary>  (3) 
energy

>  <rmsd>  (3) 
1.4941556015084627

>  <m_score__min__rmsd>  (3) 
1.4941556015084627

>  <meeko>  (3) 
{"free_energy": -8.59, "intermolecular_energy": -10.08, "internal_energy": -1.74, "cluster_size": 7, "cluster_id": 3, "rank_in_cluster": 4}

>  <energy>  (3) 
-9.29

>  <cluster_rmsd>  (3) 
0.61

>  <cluster>  (3) 
1

$$$$

     RDKit          3D

 51 54  0  0  0  0  0  0  0  0999 V2000
  141.0050   74.6240  221.3680 O   0  0  0  0  0  0  0  0  0  0  0  0
  139.9320   74.9890  221.9450 C   0  0  0  0  0  0  0  0  0  0  0  0
  138.8860   74.0430  222.1790 N   0  0  0  0  0  0  0  0  0  0  0  0
  139.1190   72.6730  221.7280 C   0  0  0  0  0  0  0  0  0  0  0  0
  139.7960   71.8800  222.8040 C   0  0  0  0  0  0  0  0  0  0  0  0
  141.0500   71.9750  222.8820 O   0  0  0  0  0  0  0  0  0  0  0  0
  139.0210   71.0660  223.6810 N   0  0  0  0  0  0  0  0  0  0  0  0
  137.6090   71.3310  223.8730 C   0  0  0  0  0  0  0  0  0  0  0  0
  136.8010   70.0690  224.0180 C   0  0  0  0  0  0  0  0  0  0  0  0
  137.4900   69.0550  224.9010 C   0  0  0  0  0  0  0  0  0  0  0  0
  138.8350   68.7630  224.3020 C   0  0  0  0  0  0  0  0  0  0  0  0
  139.7170   69.9780  224.3550 C   0  0  2  0  0  0  0  0  0  0  0  0
  140.1550   70.2970  225.7140 C   0  0  0  0  0  0  0  0  0  0  0  0
  140.0010   69.4160  226.7790 C   0  0  0  0  0  0  0  0  0  0  0  0
  140.4110   69.7170  228.0590 C   0  0  0  0  0  0  0  0  0  0  0  0
  140.9980   70.9190  228.3460 C   0  0  0  0  0  0  0  0  0  0  0  0
  141.1630   71.8110  227.3080 C   0  0  0  0  0  0  0  0  0  0  0  0
  141.7510   73.0110  227.5970 F   0  0  0  0  0  0  0  0  0  0  0  0
  140.7480   71.5060  226.0080 C   0  0  0  0  0  0  0  0  0  0  0  0
  139.7420   76.3730  222.3800 C   0  0  0  0  0  0  0  0  0  0  0  0
  140.8420   77.1640  222.6430 C   0  0  0  0  0  0  0  0  0  0  0  0
  140.7230   78.4860  223.0590 C   0  0  0  0  0  0  0  0  0  0  0  0
  139.4580   78.9940  223.2040 C   0  0  0  0  0  0  0  0  0  0  0  0
  139.3110   80.3140  223.6190 C   0  0  0  0  0  0  0  0  0  0  0  0
  138.0180   80.7780  223.7500 C   0  0  0  0  0  0  0  0  0  0  0  0
  137.8910   82.0770  224.1590 F   0  0  0  0  0  0  0  0  0  0  0  0
  136.9260   79.9840  223.4860 C   0  0  0  0  0  0  0  0  0  0  0  0
  137.0670   78.6830  223.0770 C   0  0  0  0  0  0  0  0  0  0  0  0
  138.3520   78.1980  222.9390 C   0  0  0  0  0  0  0  0  0  0  0  0
  138.4960   76.9070  222.5330 N   0  0  0  0  0  0  0  0  0  0  0  0
  138.0300   74.3590  222.6450 H   0  0  0  0  0  0  0  0  0  0  0  0
  138.1553   72.2029  221.4824 H   0  0  0  0  0  0  0  0  0  0  0  0
  139.7654   72.6940  220.8382 H   0  0  0  0  0  0  0  0  0  0  0  0
  137.4841   71.9366  224.7828 H   0  0  0  0  0  0  0  0  0  0  0  0
  137.2438   71.8616  222.9813 H   0  0  0  0  0  0  0  0  0  0  0  0
  135.8256   70.3205  224.4600 H   0  0  0  0  0  0  0  0  0  0  0  0
  136.6820   69.6247  223.0188 H   0  0  0  0  0  0  0  0  0  0  0  0
  137.6127   69.4638  225.9148 H   0  0  0  0  0  0  0  0  0  0  0  0
  136.8915   68.1345  224.9681 H   0  0  0  0  0  0  0  0  0  0  0  0
  139.3111   67.9467  224.8650 H   0  0  0  0  0  0  0  0  0  0  0  0
  138.6973   68.4726  223.2500 H   0  0  0  0  0  0  0  0  0  0  0  0
  140.6607   69.7855  223.8236 H   0  0  0  0  0  0  0  0  0  0  0  0
  139.5325   68.4386  226.5914 H   0  0  0  0  0  0  0  0  0  0  0  0
  140.2643   68.9801  228.8624 H   0  0  0  0  0  0  0  0  0  0  0  0
  141.3260   71.1645  229.3668 H   0  0  0  0  0  0  0  0  0  0  0  0
  140.8974   72.2438  225.2059 H   0  0  0  0  0  0  0  0  0  0  0  0
  141.8471   76.7344  222.5194 H   0  0  0  0  0  0  0  0  0  0  0  0
  141.6114   79.1013  223.2641 H   0  0  0  0  0  0  0  0  0  0  0  0
  140.1800   80.9541  223.8315 H   0  0  0  0  0  0  0  0  0  0  0  0
  135.9159   80.4028  223.6059 H   0  0  0  0  0  0  0  0  0  0  0  0
  136.1914   78.0511  222.8673 H   0  0  0  0  0  0  0  0  0  0  0  0
  1  2  2  0
  2  3  1  0
  3  4  1  0
  4  5  1  0
  5  6  2  0
  5  7  1  0
  7  8  1  0
  8  9  1  0
  9 10  1  0
 10 11  1  0
 11 12  1  0
 12 13  1  0
 13 14  2  0
 14 15  1  0
 15 16  2  0
 16 17  1  0
 17 18  1  0
 17 19  2  0
  2 20  1  0
 20 21  2  0
 21 22  1  0
 22 23  2  0
 23 24  1  0
 24 25  2  0
 25 26  1  0
 25 27  1  0
 27 28  2  0
 28 29  1  0
 29 30  2  0
 12  7  1  0
 19 13  1  0
 30 20  1  0
 29 23  1  0
  3 31  1  0
  4 32  1  0
  4 33  1  0
  8 34  1  0
  8 35  1  0
  9 36  1  0
  9 37  1  0
 10 38  1  0
 10 39  1  0
 11 40  1  0
 11 41  1  0
 12 42  1  6
 14 43  1  0
 15 44  1  0
 16 45  1  0
 19 46  1  0
 21 47  1  0
 22 48  1  0
 24 49  1  0
 27 50  1  0
 28 51  1  0
M  END
>  <smiles>  (4) 
O=C(NCC(=O)N1CCCCC1c1cccc(F)c1)c1ccc2cc(F)ccc2n1

>  <score_type>  (4) 
oracle

>  <origin>  (4) 
autodockgpu

>  <m_score__min__energy>  (4) 
-9.3000000000000007

>  <m_primary>  (4) 
energy

>  <rmsd>  (4) 
8.672710218395718

>  <m_score__min__rmsd>  (4) 
8.672710218395718

>  <meeko>  (4) 
{"free_energy": -8.41, "intermolecular_energy": -9.9, "internal_energy": -1.52, "cluster_size": 12, "cluster_id": 2, "rank_in_cluster": 11}

>  <energy>  (4) 
-9.29

>  <cluster_rmsd>  (4) 
0.06

>  <cluster>  (4) 
1

$$$$

     RDKit          3D

 51 54  0  0  0  0  0  0  0  0999 V2000
  141.1550   71.9260  221.3720 O   0  0  0  0  0  0  0  0  0  0  0  0
  140.4830   72.3480  222.3660 C   0  0  0  0  0  0  0  0  0  0  0  0
  139.9180   73.6610  222.3460 N   0  0  0  0  0  0  0  0  0  0  0  0
  140.1520   74.4640  221.1480 C   0  0  0  0  0  0  0  0  0  0  0  0
  140.1260   75.9240  221.4870 C   0  0  0  0  0  0  0  0  0  0  0  0
  139.3450   76.2830  222.4080 O   0  0  0  0  0  0  0  0  0  0  0  0
  140.9630   76.8330  220.7770 N   0  0  0  0  0  0  0  0  0  0  0  0
  142.1980   76.3750  220.1730 C   0  0  0  0  0  0  0  0  0  0  0  0
  142.4770   77.0460  218.8540 C   0  0  0  0  0  0  0  0  0  0  0  0
  142.1800   78.5260  218.9000 C   0  0  0  0  0  0  0  0  0  0  0  0
  140.7410   78.6950  219.2910 C   0  0  0  0  0  0  0  0  0  0  0  0
  140.5120   78.2160  220.6970 C   0  0  2  0  0  0  0  0  0  0  0  0
  141.1080   79.1000  221.6980 C   0  0  0  0  0  0  0  0  0  0  0  0
  141.6310   78.6290  222.8980 C   0  0  0  0  0  0  0  0  0  0  0  0
  142.1900   79.4610  223.8430 C   0  0  0  0  0  0  0  0  0  0  0  0
  142.2560   80.8130  223.6410 C   0  0  0  0  0  0  0  0  0  0  0  0
  141.7450   81.3060  222.4590 C   0  0  0  0  0  0  0  0  0  0  0  0
  141.8130   82.6560  222.2590 F   0  0  0  0  0  0  0  0  0  0  0  0
  141.1780   80.4620  221.4990 C   0  0  0  0  0  0  0  0  0  0  0  0
  140.2740   71.5080  223.5460 C   0  0  0  0  0  0  0  0  0  0  0  0
  139.6200   70.2990  223.4170 C   0  0  0  0  0  0  0  0  0  0  0  0
  139.3940   69.4590  224.5020 C   0  0  0  0  0  0  0  0  0  0  0  0
  139.8450   69.8710  225.7280 C   0  0  0  0  0  0  0  0  0  0  0  0
  139.6300   69.0490  226.8300 C   0  0  0  0  0  0  0  0  0  0  0  0
  140.1030   69.5080  228.0430 C   0  0  0  0  0  0  0  0  0  0  0  0
  139.8830   68.6890  229.1160 F   0  0  0  0  0  0  0  0  0  0  0  0
  140.7530   70.7150  228.1650 C   0  0  0  0  0  0  0  0  0  0  0  0
  140.9660   71.5270  227.0810 C   0  0  0  0  0  0  0  0  0  0  0  0
  140.5010   71.0870  225.8580 C   0  0  0  0  0  0  0  0  0  0  0  0
  140.7120   71.8900  224.7800 N   0  0  0  0  0  0  0  0  0  0  0  0
  139.3810   73.9800  223.1580 H   0  0  0  0  0  0  0  0  0  0  0  0
  141.1344   74.2071  220.7251 H   0  0  0  0  0  0  0  0  0  0  0  0
  139.3594   74.2527  220.4151 H   0  0  0  0  0  0  0  0  0  0  0  0
  143.0286   76.5903  220.8613 H   0  0  0  0  0  0  0  0  0  0  0  0
  142.0987   75.2957  219.9852 H   0  0  0  0  0  0  0  0  0  0  0  0
  143.5379   76.9041  218.6004 H   0  0  0  0  0  0  0  0  0  0  0  0
  141.8231   76.5909  218.0955 H   0  0  0  0  0  0  0  0  0  0  0  0
  142.8288   79.0147  219.6417 H   0  0  0  0  0  0  0  0  0  0  0  0
  142.3671   78.9854  217.9182 H   0  0  0  0  0  0  0  0  0  0  0  0
  140.4713   79.7593  219.2238 H   0  0  0  0  0  0  0  0  0  0  0  0
  140.1171   78.0990  218.6087 H   0  0  0  0  0  0  0  0  0  0  0  0
  139.4394   78.2482  220.9390 H   0  0  0  0  0  0  0  0  0  0  0  0
  141.5968   77.5483  223.1005 H   0  0  0  0  0  0  0  0  0  0  0  0
  142.5893   79.0322  224.7740 H   0  0  0  0  0  0  0  0  0  0  0  0
  142.7001   81.4813  224.3934 H   0  0  0  0  0  0  0  0  0  0  0  0
  140.7807   80.8929  220.5682 H   0  0  0  0  0  0  0  0  0  0  0  0
  139.2658   69.9898  222.4226 H   0  0  0  0  0  0  0  0  0  0  0  0
  138.8720   68.4985  224.3801 H   0  0  0  0  0  0  0  0  0  0  0  0
  139.1103   68.0838  226.7393 H   0  0  0  0  0  0  0  0  0  0  0  0
  141.1098   71.0356  229.1549 H   0  0  0  0  0  0  0  0  0  0  0  0
  141.4867   72.4907  227.1818 H   0  0  0  0  0  0  0  0  0  0  0  0
  1  2  2  0
  2  3  1  0
  3  4  1  0
  4  5  1  0
  5  6  2  0
  5  7  1  0
  7  8  1  0
  8  9  1  0
  9 10  1  0
 10 11  1  0
 11 12  1  0
 12 13  1  0
 13 14  2  0
 14 15  1  0
 15 16  2  0
 16 17  1  0
 17 18  1  0
 17 19  2  0
  2 20  1  0
 20 21  2  0
 21 22  1  0
 22 23  2  0
 23 24  1  0
 24 25  2  0
 25 26  1  0
 25 27  1  0
 27 28  2  0
 28 29  1  0
 29 30  2  0
 12  7  1  0
 19 13  1  0
 30 20  1  0
 29 23  1  0
  3 31  1  0
  4 32  1  0
  4 33  1  0
  8 34  1  0
  8 35  1  0
  9 36  1  0
  9 37  1  0
 10 38  1  0
 10 39  1  0
 11 40  1  0
 11 41  1  0
 12 42  1  1
 14 43  1  0
 15 44  1  0
 16 45  1  0
 19 46  1  0
 21 47  1  0
 22 48  1  0
 24 49  1  0
 27 50  1  0
 28 51  1  0
M  END
>  <smiles>  (5) 
O=C(NCC(=O)N1CCCCC1c1cccc(F)c1)c1ccc2cc(F)ccc2n1

>  <score_type>  (5) 
oracle

>  <origin>  (5) 
autodockgpu

>  <m_score__min__energy>  (5) 
-9.3000000000000007

>  <m_primary>  (5) 
energy

>  <rmsd>  (5) 
2.1772416388014526

>  <m_score__min__rmsd>  (5) 
2.1772416388014526

>  <meeko>  (5) 
{"free_energy": -9.17, "intermolecular_energy": -10.67, "internal_energy": -1.67, "cluster_size": 30, "cluster_id": 1, "rank_in_cluster": 15}

>  <energy>  (5) 
-9.28

>  <cluster_rmsd>  (5) 
0.13

>  <cluster>  (5) 
1

$$$$

     RDKit          3D

 51 54  0  0  0  0  0  0  0  0999 V2000
  141.3820   72.1290  221.5840 O   0  0  0  0  0  0  0  0  0  0  0  0
  140.5110   72.4040  222.4700 C   0  0  0  0  0  0  0  0  0  0  0  0
  139.7120   73.5830  222.3490 N   0  0  0  0  0  0  0  0  0  0  0  0
  139.9510   74.4280  221.1820 C   0  0  0  0  0  0  0  0  0  0  0  0
  140.0900   75.8610  221.5960 C   0  0  0  0  0  0  0  0  0  0  0  0
  139.4330   76.2320  222.6050 O   0  0  0  0  0  0  0  0  0  0  0  0
  140.9390   76.7350  220.8560 N   0  0  0  0  0  0  0  0  0  0  0  0
  142.1730   76.2430  220.2770 C   0  0  0  0  0  0  0  0  0  0  0  0
  142.4660   76.8600  218.9350 C   0  0  0  0  0  0  0  0  0  0  0  0
  142.1820   78.3440  218.9210 C   0  0  0  0  0  0  0  0  0  0  0  0
  140.7420   78.5390  219.2970 C   0  0  0  0  0  0  0  0  0  0  0  0
  140.5010   78.1180  220.7190 C   0  0  2  0  0  0  0  0  0  0  0  0
  141.0990   79.0350  221.6880 C   0  0  0  0  0  0  0  0  0  0  0  0
  141.6240   78.6050  222.9030 C   0  0  0  0  0  0  0  0  0  0  0  0
  142.1850   79.4680  223.8180 C   0  0  0  0  0  0  0  0  0  0  0  0
  142.2520   80.8120  223.5690 C   0  0  0  0  0  0  0  0  0  0  0  0
  141.7400   81.2650  222.3720 C   0  0  0  0  0  0  0  0  0  0  0  0
  141.8090   82.6070  222.1260 F   0  0  0  0  0  0  0  0  0  0  0  0
  141.1700   80.3890  221.4430 C   0  0  0  0  0  0  0  0  0  0  0  0
  140.3070   71.5280  223.6240 C   0  0  0  0  0  0  0  0  0  0  0  0
  139.6680   70.3150  223.4580 C   0  0  0  0  0  0  0  0  0  0  0  0
  139.4470   69.4420  224.5170 C   0  0  0  0  0  0  0  0  0  0  0  0
  139.8880   69.8240  225.7570 C   0  0  0  0  0  0  0  0  0  0  0  0
  139.6790   68.9690  226.8340 C   0  0  0  0  0  0  0  0  0  0  0  0
  140.1410   69.3990  228.0620 C   0  0  0  0  0  0  0  0  0  0  0  0
  139.9270   68.5470  229.1090 F   0  0  0  0  0  0  0  0  0  0  0  0
  140.7760   70.6090  228.2200 C   0  0  0  0  0  0  0  0  0  0  0  0
  140.9840   71.4540  227.1610 C   0  0  0  0  0  0  0  0  0  0  0  0
  140.5300   71.0440  225.9240 C   0  0  0  0  0  0  0  0  0  0  0  0
  140.7350   71.8800  224.8700 N   0  0  0  0  0  0  0  0  0  0  0  0
  139.0180   73.7850  223.0750 H   0  0  0  0  0  0  0  0  0  0  0  0
  140.8758   74.1035  220.6825 H   0  0  0  0  0  0  0  0  0  0  0  0
  139.0980   74.3361  220.4936 H   0  0  0  0  0  0  0  0  0  0  0  0
  143.0018   76.4769  220.9614 H   0  0  0  0  0  0  0  0  0  0  0  0
  142.0642   75.1583  220.1298 H   0  0  0  0  0  0  0  0  0  0  0  0
  143.5272   76.6991  218.6940 H   0  0  0  0  0  0  0  0  0  0  0  0
  141.8124   76.3816  218.1907 H   0  0  0  0  0  0  0  0  0  0  0  0
  142.8309   78.8561  219.6468 H   0  0  0  0  0  0  0  0  0  0  0  0
  142.3789   78.7636  217.9234 H   0  0  0  0  0  0  0  0  0  0  0  0
  140.4809   79.6018  219.1862 H   0  0  0  0  0  0  0  0  0  0  0  0
  140.1176   77.9208  218.6352 H   0  0  0  0  0  0  0  0  0  0  0  0
  139.4274   78.1694  220.9530 H   0  0  0  0  0  0  0  0  0  0  0  0
  141.5895   77.5319  223.1423 H   0  0  0  0  0  0  0  0  0  0  0  0
  142.5851   79.0712  224.7627 H   0  0  0  0  0  0  0  0  0  0  0  0
  142.6980   81.5053  224.2973 H   0  0  0  0  0  0  0  0  0  0  0  0
  140.7708   80.7883  220.4990 H   0  0  0  0  0  0  0  0  0  0  0  0
  139.3221   70.0299  222.4535 H   0  0  0  0  0  0  0  0  0  0  0  0
  138.9367   68.4795  224.3652 H   0  0  0  0  0  0  0  0  0  0  0  0
  139.1719   68.0003  226.7136 H   0  0  0  0  0  0  0  0  0  0  0  0
  141.1252   70.9055  229.2201 H   0  0  0  0  0  0  0  0  0  0  0  0
  141.4926   72.4205  227.2919 H   0  0  0  0  0  0  0  0  0  0  0  0
  1  2  2  0
  2  3  1  0
  3  4  1  0
  4  5  1  0
  5  6  2  0
  5  7  1  0
  7  8  1  0
  8  9  1  0
  9 10  1  0
 10 11  1  0
 11 12  1  0
 12 13  1  0
 13 14  2  0
 14 15  1  0
 15 16  2  0
 16 17  1  0
 17 18  1  0
 17 19  2  0
  2 20  1  0
 20 21  2  0
 21 22  1  0
 22 23  2  0
 23 24  1  0
 24 25  2  0
 25 26  1  0
 25 27  1  0
 27 28  2  0
 28 29  1  0
 29 30  2  0
 12  7  1  0
 19 13  1  0
 30 20  1  0
 29 23  1  0
  3 31  1  0
  4 32  1  0
  4 33  1  0
  8 34  1  0
  8 35  1  0
  9 36  1  0
  9 37  1  0
 10 38  1  0
 10 39  1  0
 11 40  1  0
 11 41  1  0
 12 42  1  1
 14 43  1  0
 15 44  1  0
 16 45  1  0
 19 46  1  0
 21 47  1  0
 22 48  1  0
 24 49  1  0
 27 50  1  0
 28 51  1  0
M  END
>  <smiles>  (6) 
O=C(NCC(=O)N1CCCCC1c1cccc(F)c1)c1ccc2cc(F)ccc2n1

>  <score_type>  (6) 
oracle

>  <origin>  (6) 
autodockgpu

>  <m_score__min__energy>  (6) 
-9.3000000000000007

>  <m_primary>  (6) 
energy

>  <rmsd>  (6) 
2.137707640165982

>  <m_score__min__rmsd>  (6) 
2.137707640165982

>  <meeko>  (6) 
{"free_energy": -9.27, "intermolecular_energy": -10.77, "internal_energy": -1.56, "cluster_size": 30, "cluster_id": 1, "rank_in_cluster": 7}

>  <energy>  (6) 
-9.28

>  <cluster_rmsd>  (6) 
0.12

>  <cluster>  (6) 
1

$$$$

     RDKit          3D

 51 54  0  0  0  0  0  0  0  0999 V2000
  141.1610   71.7630  221.4040 O   0  0  0  0  0  0  0  0  0  0  0  0
  140.2770   72.0710  222.2650 C   0  0  0  0  0  0  0  0  0  0  0  0
  139.4170   73.1910  222.0430 N   0  0  0  0  0  0  0  0  0  0  0  0
  139.6100   73.9380  220.8020 C   0  0  0  0  0  0  0  0  0  0  0  0
  140.7840   74.8610  220.9270 C   0  0  0  0  0  0  0  0  0  0  0  0
  140.9610   75.4130  222.0450 O   0  0  0  0  0  0  0  0  0  0  0  0
  141.6390   75.0760  219.8070 N   0  0  0  0  0  0  0  0  0  0  0  0
  141.1500   74.8730  218.4590 C   0  0  0  0  0  0  0  0  0  0  0  0
  141.7050   75.8800  217.4870 C   0  0  0  0  0  0  0  0  0  0  0  0
  143.1780   76.1280  217.7090 C   0  0  0  0  0  0  0  0  0  0  0  0
  143.3570   76.5960  219.1240 C   0  0  0  0  0  0  0  0  0  0  0  0
  143.0020   75.5050  220.0950 C   0  0  2  0  0  0  0  0  0  0  0  0
  143.9820   74.4190  220.1060 C   0  0  0  0  0  0  0  0  0  0  0  0
  145.1760   74.4930  220.8160 C   0  0  0  0  0  0  0  0  0  0  0  0
  146.1010   73.4720  220.8240 C   0  0  0  0  0  0  0  0  0  0  0  0
  145.8830   72.3180  220.1210 C   0  0  0  0  0  0  0  0  0  0  0  0
  144.7070   72.2190  219.4090 C   0  0  0  0  0  0  0  0  0  0  0  0
  144.4920   71.0660  218.7080 F   0  0  0  0  0  0  0  0  0  0  0  0
  143.7680   73.2550  219.4000 C   0  0  0  0  0  0  0  0  0  0  0  0
  140.1200   71.2940  223.4950 C   0  0  0  0  0  0  0  0  0  0  0  0
  139.4700   70.0770  223.4560 C   0  0  0  0  0  0  0  0  0  0  0  0
  139.2920   69.2950  224.5920 C   0  0  0  0  0  0  0  0  0  0  0  0
  139.7880   69.7740  225.7770 C   0  0  0  0  0  0  0  0  0  0  0  0
  139.6220   69.0110  226.9280 C   0  0  0  0  0  0  0  0  0  0  0  0
  140.1390   69.5370  228.0950 C   0  0  0  0  0  0  0  0  0  0  0  0
  139.9680   68.7750  229.2180 F   0  0  0  0  0  0  0  0  0  0  0  0
  140.7850   70.7510  228.1270 C   0  0  0  0  0  0  0  0  0  0  0  0
  140.9500   71.5050  226.9940 C   0  0  0  0  0  0  0  0  0  0  0  0
  140.4410   70.9980  225.8150 C   0  0  0  0  0  0  0  0  0  0  0  0
  140.6030   71.7440  224.6890 N   0  0  0  0  0  0  0  0  0  0  0  0
  138.7130   73.4210  222.7510 H   0  0  0  0  0  0  0  0  0  0  0  0
  139.7898   73.2320  219.9778 H   0  0  0  0  0  0  0  0  0  0  0  0
  138.7074   74.5330  220.5988 H   0  0  0  0  0  0  0  0  0  0  0  0
  141.4395   73.8651  218.1267 H   0  0  0  0  0  0  0  0  0  0  0  0
  140.0568   74.9939  218.4781 H   0  0  0  0  0  0  0  0  0  0  0  0
  141.5584   75.5041  216.4637 H   0  0  0  0  0  0  0  0  0  0  0  0
  141.1733   76.8304  217.6416 H   0  0  0  0  0  0  0  0  0  0  0  0
  143.7424   75.1975  217.5485 H   0  0  0  0  0  0  0  0  0  0  0  0
  143.5503   76.8858  217.0039 H   0  0  0  0  0  0  0  0  0  0  0  0
  144.4063   76.8881  219.2774 H   0  0  0  0  0  0  0  0  0  0  0  0
  142.6916   77.4543  219.2987 H   0  0  0  0  0  0  0  0  0  0  0  0
  143.0377   75.8881  221.1255 H   0  0  0  0  0  0  0  0  0  0  0  0
  145.3903   75.4037  221.3945 H   0  0  0  0  0  0  0  0  0  0  0  0
  147.0286   73.5859  221.4041 H   0  0  0  0  0  0  0  0  0  0  0  0
  146.6187   71.5003  220.1241 H   0  0  0  0  0  0  0  0  0  0  0  0
  142.8414   73.1388  218.8187 H   0  0  0  0  0  0  0  0  0  0  0  0
  139.0797   69.7135  222.4940 H   0  0  0  0  0  0  0  0  0  0  0  0
  138.7720   68.3270  224.5417 H   0  0  0  0  0  0  0  0  0  0  0  0
  139.1060   68.0397  226.9094 H   0  0  0  0  0  0  0  0  0  0  0  0
  141.1782   71.1254  229.0836 H   0  0  0  0  0  0  0  0  0  0  0  0
  141.4673   72.4753  227.0231 H   0  0  0  0  0  0  0  0  0  0  0  0
  1  2  2  0
  2  3  1  0
  3  4  1  0
  4  5  1  0
  5  6  2  0
  5  7  1  0
  7  8  1  0
  8  9  1  0
  9 10  1  0
 10 11  1  0
 11 12  1  0
 12 13  1  0
 13 14  2  0
 14 15  1  0
 15 16  2  0
 16 17  1  0
 17 18  1  0
 17 19  2  0
  2 20  1  0
 20 21  2  0
 21 22  1  0
 22 23  2  0
 23 24  1  0
 24 25  2  0
 25 26  1  0
 25 27  1  0
 27 28  2  0
 28 29  1  0
 29 30  2  0
 12  7  1  0
 19 13  1  0
 30 20  1  0
 29 23  1  0
  3 31  1  0
  4 32  1  0
  4 33  1  0
  8 34  1  0
  8 35  1  0
  9 36  1  0
  9 37  1  0
 10 38  1  0
 10 39  1  0
 11 40  1  0
 11 41  1  0
 12 42  1  1
 14 43  1  0
 15 44  1  0
 16 45  1  0
 19 46  1  0
 21 47  1  0
 22 48  1  0
 24 49  1  0
 27 50  1  0
 28 51  1  0
M  END
>  <smiles>  (7) 
O=C(NCC(=O)N1CCCCC1c1cccc(F)c1)c1ccc2cc(F)ccc2n1

>  <score_type>  (7) 
oracle

>  <origin>  (7) 
autodockgpu

>  <m_score__min__energy>  (7) 
-9.3000000000000007

>  <m_primary>  (7) 
energy

>  <rmsd>  (7) 
1.7294547039577186

>  <m_score__min__rmsd>  (7) 
1.7294547039577186

>  <meeko>  (7) 
{"free_energy": -8.62, "intermolecular_energy": -10.11, "internal_energy": -1.61, "cluster_size": 7, "cluster_id": 3, "rank_in_cluster": 3}

>  <energy>  (7) 
-9.27

>  <cluster_rmsd>  (7) 
0.68

>  <cluster>  (7) 
1

$$$$

     RDKit          3D

 51 54  0  0  0  0  0  0  0  0999 V2000
  136.1870   77.3260  222.8080 O   0  0  0  0  0  0  0  0  0  0  0  0
  136.3420   76.1280  223.2070 C   0  0  0  0  0  0  0  0  0  0  0  0
  137.4270   75.3400  222.7090 N   0  0  0  0  0  0  0  0  0  0  0  0
  138.3180   75.9760  221.7430 C   0  0  0  0  0  0  0  0  0  0  0  0
  139.6620   75.3130  221.7610 C   0  0  0  0  0  0  0  0  0  0  0  0
  139.7390   74.1910  222.3260 O   0  0  0  0  0  0  0  0  0  0  0  0
  140.7790   75.9580  221.1530 N   0  0  0  0  0  0  0  0  0  0  0  0
  142.0130   75.2320  220.9270 C   0  0  0  0  0  0  0  0  0  0  0  0
  142.6800   75.6180  219.6340 C   0  0  0  0  0  0  0  0  0  0  0  0
  142.6480   77.1110  219.4050 C   0  0  0  0  0  0  0  0  0  0  0  0
  141.2110   77.5470  219.4160 C   0  0  0  0  0  0  0  0  0  0  0  0
  140.6080   77.3560  220.7790 C   0  0  2  0  0  0  0  0  0  0  0  0
  141.1240   78.3070  221.7630 C   0  0  0  0  0  0  0  0  0  0  0  0
  141.3450   77.9650  223.0930 C   0  0  0  0  0  0  0  0  0  0  0  0
  141.8300   78.8600  224.0210 C   0  0  0  0  0  0  0  0  0  0  0  0
  142.1190   80.1510  223.6710 C   0  0  0  0  0  0  0  0  0  0  0  0
  141.9090   80.5160  222.3580 C   0  0  0  0  0  0  0  0  0  0  0  0
  142.2000   81.8050  222.0100 F   0  0  0  0  0  0  0  0  0  0  0  0
  141.4180   79.6070  221.4150 C   0  0  0  0  0  0  0  0  0  0  0  0
  135.4240   75.5320  224.1780 C   0  0  0  0  0  0  0  0  0  0  0  0
  134.6280   76.3470  224.9560 C   0  0  0  0  0  0  0  0  0  0  0  0
  133.7360   75.8380  225.8940 C   0  0  0  0  0  0  0  0  0  0  0  0
  133.6680   74.4750  226.0290 C   0  0  0  0  0  0  0  0  0  0  0  0
  132.7840   73.9390  226.9610 C   0  0  0  0  0  0  0  0  0  0  0  0
  132.7520   72.5630  227.0590 C   0  0  0  0  0  0  0  0  0  0  0  0
  131.8790   72.0530  227.9790 F   0  0  0  0  0  0  0  0  0  0  0  0
  133.5490   71.7560  226.2800 C   0  0  0  0  0  0  0  0  0  0  0  0
  134.4210   72.2810  225.3610 C   0  0  0  0  0  0  0  0  0  0  0  0
  134.4690   73.6560  225.2460 C   0  0  0  0  0  0  0  0  0  0  0  0
  135.3330   74.1800  224.3350 N   0  0  0  0  0  0  0  0  0  0  0  0
  137.5310   74.3770  223.0450 H   0  0  0  0  0  0  0  0  0  0  0  0
  137.8836   75.8886  220.7362 H   0  0  0  0  0  0  0  0  0  0  0  0
  138.4381   77.0362  222.0105 H   0  0  0  0  0  0  0  0  0  0  0  0
  142.7035   75.4429  221.7569 H   0  0  0  0  0  0  0  0  0  0  0  0
  141.7655   74.1618  220.8691 H   0  0  0  0  0  0  0  0  0  0  0  0
  143.7281   75.2852  219.6618 H   0  0  0  0  0  0  0  0  0  0  0  0
  142.1315   75.1360  218.8113 H   0  0  0  0  0  0  0  0  0  0  0  0
  143.2008   77.6242  220.2057 H   0  0  0  0  0  0  0  0  0  0  0  0
  143.1181   77.3620  218.4427 H   0  0  0  0  0  0  0  0  0  0  0  0
  141.1544   78.6108  219.1420 H   0  0  0  0  0  0  0  0  0  0  0  0
  140.6507   76.9361  218.6929 H   0  0  0  0  0  0  0  0  0  0  0  0
  139.5316   77.5808  220.7514 H   0  0  0  0  0  0  0  0  0  0  0  0
  141.1233   76.9375  223.4171 H   0  0  0  0  0  0  0  0  0  0  0  0
  141.9874   78.5320  225.0591 H   0  0  0  0  0  0  0  0  0  0  0  0
  142.5041   80.8701  224.4090 H   0  0  0  0  0  0  0  0  0  0  0  0
  141.2639   79.9362  220.3768 H   0  0  0  0  0  0  0  0  0  0  0  0
  134.7013   77.4373  224.8302 H   0  0  0  0  0  0  0  0  0  0  0  0
  133.1085   76.5039  226.5047 H   0  0  0  0  0  0  0  0  0  0  0  0
  132.1444   74.5788  227.5867 H   0  0  0  0  0  0  0  0  0  0  0  0
  133.4852   70.6641  226.3971 H   0  0  0  0  0  0  0  0  0  0  0  0
  135.0568   71.6326  224.7403 H   0  0  0  0  0  0  0  0  0  0  0  0
  1  2  2  0
  2  3  1  0
  3  4  1  0
  4  5  1  0
  5  6  2  0
  5  7  1  0
  7  8  1  0
  8  9  1  0
  9 10  1  0
 10 11  1  0
 11 12  1  0
 12 13  1  0
 13 14  2  0
 14 15  1  0
 15 16  2  0
 16 17  1  0
 17 18  1  0
 17 19  2  0
  2 20  1  0
 20 21  2  0
 21 22  1  0
 22 23  2  0
 23 24  1  0
 24 25  2  0
 25 26  1  0
 25 27  1  0
 27 28  2  0
 28 29  1  0
 29 30  2  0
 12  7  1  0
 19 13  1  0
 30 20  1  0
 29 23  1  0
  3 31  1  0
  4 32  1  0
  4 33  1  0
  8 34  1  0
  8 35  1  0
  9 36  1  0
  9 37  1  0
 10 38  1  0
 10 39  1  0
 11 40  1  0
 11 41  1  0
 12 42  1  6
 14 43  1  0
 15 44  1  0
 16 45  1  0
 19 46  1  0
 21 47  1  0
 22 48  1  0
 24 49  1  0
 27 50  1  0
 28 51  1  0
M  END
>  <smiles>  (8) 
O=C(NCC(=O)N1CCCCC1c1cccc(F)c1)c1ccc2cc(F)ccc2n1

>  <score_type>  (8) 
oracle

>  <origin>  (8) 
autodockgpu

>  <m_score__min__energy>  (8) 
-9.3000000000000007

>  <m_primary>  (8) 
energy

>  <rmsd>  (8) 
5.952182521255547

>  <m_score__min__rmsd>  (8) 
5.952182521255547

>  <meeko>  (8) 
{"free_energy": -7.91, "intermolecular_energy": -9.4, "internal_energy": -2.01, "cluster_size": 1, "cluster_id": 4, "rank_in_cluster": 1}

>  <energy>  (8) 
-9.25

>  <cluster_rmsd>  (8) 
0.28

>  <cluster>  (8) 
1

$$$$

     RDKit          3D

 51 54  0  0  0  0  0  0  0  0999 V2000
  141.1760   71.9150  221.3440 O   0  0  0  0  0  0  0  0  0  0  0  0
  140.5060   72.3470  222.3350 C   0  0  0  0  0  0  0  0  0  0  0  0
  139.9590   73.6680  222.3110 N   0  0  0  0  0  0  0  0  0  0  0  0
  140.2090   74.4660  221.1130 C   0  0  0  0  0  0  0  0  0  0  0  0
  140.1450   75.9270  221.4390 C   0  0  0  0  0  0  0  0  0  0  0  0
  139.3360   76.2780  222.3380 O   0  0  0  0  0  0  0  0  0  0  0  0
  140.9800   76.8470  220.7410 N   0  0  0  0  0  0  0  0  0  0  0  0
  142.2160   76.4000  220.1310 C   0  0  0  0  0  0  0  0  0  0  0  0
  142.4940   77.0890  218.8210 C   0  0  0  0  0  0  0  0  0  0  0  0
  142.1930   78.5680  218.8850 C   0  0  0  0  0  0  0  0  0  0  0  0
  140.7540   78.7280  219.2790 C   0  0  0  0  0  0  0  0  0  0  0  0
  140.5250   78.2310  220.6780 C   0  0  2  0  0  0  0  0  0  0  0  0
  141.1190   79.1030  221.6910 C   0  0  0  0  0  0  0  0  0  0  0  0
  141.6370   78.6190  222.8880 C   0  0  0  0  0  0  0  0  0  0  0  0
  142.1950   79.4400  223.8440 C   0  0  0  0  0  0  0  0  0  0  0  0
  142.2630   80.7940  223.6560 C   0  0  0  0  0  0  0  0  0  0  0  0
  141.7570   81.3000  222.4780 C   0  0  0  0  0  0  0  0  0  0  0  0
  141.8280   82.6520  222.2920 F   0  0  0  0  0  0  0  0  0  0  0  0
  141.1920   80.4670  221.5070 C   0  0  0  0  0  0  0  0  0  0  0  0
  140.2800   71.5110  223.5150 C   0  0  0  0  0  0  0  0  0  0  0  0
  139.6060   70.3140  223.3860 C   0  0  0  0  0  0  0  0  0  0  0  0
  139.3630   69.4790  224.4710 C   0  0  0  0  0  0  0  0  0  0  0  0
  139.8200   69.8840  225.6980 C   0  0  0  0  0  0  0  0  0  0  0  0
  139.5900   69.0670  226.8010 C   0  0  0  0  0  0  0  0  0  0  0  0
  140.0690   69.5190  228.0140 C   0  0  0  0  0  0  0  0  0  0  0  0
  139.8340   68.7040  229.0860 F   0  0  0  0  0  0  0  0  0  0  0  0
  140.7400   70.7130  228.1350 C   0  0  0  0  0  0  0  0  0  0  0  0
  140.9680   71.5210  227.0510 C   0  0  0  0  0  0  0  0  0  0  0  0
  140.4980   71.0880  225.8280 C   0  0  0  0  0  0  0  0  0  0  0  0
  140.7230   71.8870  224.7500 N   0  0  0  0  0  0  0  0  0  0  0  0
  139.4230   73.9950  223.1210 H   0  0  0  0  0  0  0  0  0  0  0  0
  141.2073   74.2256  220.7186 H   0  0  0  0  0  0  0  0  0  0  0  0
  139.4407   74.2331  220.3610 H   0  0  0  0  0  0  0  0  0  0  0  0
  143.0460   76.6080  220.8222 H   0  0  0  0  0  0  0  0  0  0  0  0
  142.1188   75.3232  219.9286 H   0  0  0  0  0  0  0  0  0  0  0  0
  143.5555   76.9532  218.5665 H   0  0  0  0  0  0  0  0  0  0  0  0
  141.8415   76.6420  218.0566 H   0  0  0  0  0  0  0  0  0  0  0  0
  142.8410   79.0495  219.6321 H   0  0  0  0  0  0  0  0  0  0  0  0
  142.3782   79.0398  217.9087 H   0  0  0  0  0  0  0  0  0  0  0  0
  140.4817   79.7924  219.2255 H   0  0  0  0  0  0  0  0  0  0  0  0
  140.1322   78.1383  218.5894 H   0  0  0  0  0  0  0  0  0  0  0  0
  139.4521   78.2582  220.9190 H   0  0  0  0  0  0  0  0  0  0  0  0
  141.5996   77.5364  223.0793 H   0  0  0  0  0  0  0  0  0  0  0  0
  142.5914   79.0008  224.7714 H   0  0  0  0  0  0  0  0  0  0  0  0
  142.7051   81.4540  224.4169 H   0  0  0  0  0  0  0  0  0  0  0  0
  140.7987   80.9085  220.5795 H   0  0  0  0  0  0  0  0  0  0  0  0
  139.2488   70.0099  222.3911 H   0  0  0  0  0  0  0  0  0  0  0  0
  138.8237   68.5281  224.3490 H   0  0  0  0  0  0  0  0  0  0  0  0
  139.0542   68.1106  226.7107 H   0  0  0  0  0  0  0  0  0  0  0  0
  141.1025   71.0274  229.1248 H   0  0  0  0  0  0  0  0  0  0  0  0
  141.5041   72.4762  227.1522 H   0  0  0  0  0  0  0  0  0  0  0  0
  1  2  2  0
  2  3  1  0
  3  4  1  0
  4  5  1  0
  5  6  2  0
  5  7  1  0
  7  8  1  0
  8  9  1  0
  9 10  1  0
 10 11  1  0
 11 12  1  0
 12 13  1  0
 13 14  2  0
 14 15  1  0
 15 16  2  0
 16 17  1  0
 17 18  1  0
 17 19  2  0
  2 20  1  0
 20 21  2  0
 21 22  1  0
 22 23  2  0
 23 24  1  0
 24 25  2  0
 25 26  1  0
 25 27  1  0
 27 28  2  0
 28 29  1  0
 29 30  2  0
 12  7  1  0
 19 13  1  0
 30 20  1  0
 29 23  1  0
  3 31  1  0
  4 32  1  0
  4 33  1  0
  8 34  1  0
  8 35  1  0
  9 36  1  0
  9 37  1  0
 10 38  1  0
 10 39  1  0
 11 40  1  0
 11 41  1  0
 12 42  1  1
 14 43  1  0
 15 44  1  0
 16 45  1  0
 19 46  1  0
 21 47  1  0
 22 48  1  0
 24 49  1  0
 27 50  1  0
 28 51  1  0
M  END
>  <smiles>  (9) 
O=C(NCC(=O)N1CCCCC1c1cccc(F)c1)c1ccc2cc(F)ccc2n1

>  <score_type>  (9) 
oracle

>  <origin>  (9) 
autodockgpu

>  <m_score__min__energy>  (9) 
-9.3000000000000007

>  <m_primary>  (9) 
energy

>  <rmsd>  (9) 
2.1904417176970923

>  <m_score__min__rmsd>  (9) 
2.1904417176970923

>  <meeko>  (9) 
{"free_energy": -9.17, "intermolecular_energy": -10.66, "internal_energy": -1.68, "cluster_size": 30, "cluster_id": 1, "rank_in_cluster": 17}

>  <energy>  (9) 
-9.25

>  <cluster_rmsd>  (9) 
0.18

>  <cluster>  (9) 
1

$$$$

     RDKit          3D

 51 54  0  0  0  0  0  0  0  0999 V2000
  137.3110   75.5570  222.0870 O   0  0  0  0  0  0  0  0  0  0  0  0
  138.5480   75.7520  222.3090 C   0  0  0  0  0  0  0  0  0  0  0  0
  139.4690   74.6590  222.2560 N   0  0  0  0  0  0  0  0  0  0  0  0
  138.9170   73.3440  221.9400 C   0  0  0  0  0  0  0  0  0  0  0  0
  139.6500   72.2770  222.6960 C   0  0  0  0  0  0  0  0  0  0  0  0
  140.9060   72.2720  222.6050 O   0  0  0  0  0  0  0  0  0  0  0  0
  138.9200   71.3310  223.4730 N   0  0  0  0  0  0  0  0  0  0  0  0
  137.4800   71.4350  223.5960 C   0  0  0  0  0  0  0  0  0  0  0  0
  136.8050   70.0890  223.6140 C   0  0  0  0  0  0  0  0  0  0  0  0
  137.5510   69.0940  224.4720 C   0  0  0  0  0  0  0  0  0  0  0  0
  138.9490   68.9840  223.9380 C   0  0  0  0  0  0  0  0  0  0  0  0
  139.6920   70.2770  224.1190 C   0  0  2  0  0  0  0  0  0  0  0  0
  140.0210   70.5470  225.5180 C   0  0  0  0  0  0  0  0  0  0  0  0
  139.6400   69.7030  226.5560 C   0  0  0  0  0  0  0  0  0  0  0  0
  139.9460   69.9580  227.8740 C   0  0  0  0  0  0  0  0  0  0  0  0
  140.6520   71.0750  228.2290 C   0  0  0  0  0  0  0  0  0  0  0  0
  141.0430   71.9300  227.2200 C   0  0  0  0  0  0  0  0  0  0  0  0
  141.7490   73.0440  227.5770 F   0  0  0  0  0  0  0  0  0  0  0  0
  140.7320   71.6710  225.8820 C   0  0  0  0  0  0  0  0  0  0  0  0
  139.0560   77.0880  222.6230 C   0  0  0  0  0  0  0  0  0  0  0  0
  138.1710   78.1320  222.8000 C   0  0  0  0  0  0  0  0  0  0  0  0
  138.5960   79.4220  223.1000 C   0  0  0  0  0  0  0  0  0  0  0  0
  139.9450   79.6340  223.2170 C   0  0  0  0  0  0  0  0  0  0  0  0
  140.3960   80.9160  223.5160 C   0  0  0  0  0  0  0  0  0  0  0  0
  141.7630   81.0790  223.6230 C   0  0  0  0  0  0  0  0  0  0  0  0
  142.1900   82.3440  223.9170 F   0  0  0  0  0  0  0  0  0  0  0  0
  142.6390   80.0340  223.4450 C   0  0  0  0  0  0  0  0  0  0  0  0
  142.1980   78.7700  223.1500 C   0  0  0  0  0  0  0  0  0  0  0  0
  140.8350   78.5840  223.0380 C   0  0  0  0  0  0  0  0  0  0  0  0
  140.3930   77.3310  222.7460 N   0  0  0  0  0  0  0  0  0  0  0  0
  140.4600   74.8400  222.4400 H   0  0  0  0  0  0  0  0  0  0  0  0
  137.8531   73.3205  222.2186 H   0  0  0  0  0  0  0  0  0  0  0  0
  139.0281   73.1590  220.8614 H   0  0  0  0  0  0  0  0  0  0  0  0
  137.2428   71.9613  224.5323 H   0  0  0  0  0  0  0  0  0  0  0  0
  137.1080   71.9842  222.7185 H   0  0  0  0  0  0  0  0  0  0  0  0
  135.7863   70.2077  224.0117 H   0  0  0  0  0  0  0  0  0  0  0  0
  136.7871   69.7037  222.5838 H   0  0  0  0  0  0  0  0  0  0  0  0
  137.5753   69.4434  225.5147 H   0  0  0  0  0  0  0  0  0  0  0  0
  137.0518   68.1141  224.4457 H   0  0  0  0  0  0  0  0  0  0  0  0
  139.4791   68.1849  224.4769 H   0  0  0  0  0  0  0  0  0  0  0  0
  138.8991   68.7532  222.8636 H   0  0  0  0  0  0  0  0  0  0  0  0
  140.6778   70.2189  223.6343 H   0  0  0  0  0  0  0  0  0  0  0  0
  139.0703   68.7937  226.3137 H   0  0  0  0  0  0  0  0  0  0  0  0
  139.6182   69.2536  228.6527 H   0  0  0  0  0  0  0  0  0  0  0  0
  140.8986   71.2834  229.2805 H   0  0  0  0  0  0  0  0  0  0  0  0
  141.0606   72.3770  225.1050 H   0  0  0  0  0  0  0  0  0  0  0  0
  137.0929   77.9374  222.7005 H   0  0  0  0  0  0  0  0  0  0  0  0
  137.8758   80.2419  223.2383 H   0  0  0  0  0  0  0  0  0  0  0  0
  139.7000   81.7556  223.6596 H   0  0  0  0  0  0  0  0  0  0  0  0
  143.7194   80.2167  223.5417 H   0  0  0  0  0  0  0  0  0  0  0  0
  142.9024   77.9371  223.0082 H   0  0  0  0  0  0  0  0  0  0  0  0
  1  2  2  0
  2  3  1  0
  3  4  1  0
  4  5  1  0
  5  6  2  0
  5  7  1  0
  7  8  1  0
  8  9  1  0
  9 10  1  0
 10 11  1  0
 11 12  1  0
 12 13  1  0
 13 14  2  0
 14 15  1  0
 15 16  2  0
 16 17  1  0
 17 18  1  0
 17 19  2  0
  2 20  1  0
 20 21  2  0
 21 22  1  0
 22 23  2  0
 23 24  1  0
 24 25  2  0
 25 26  1  0
 25 27  1  0
 27 28  2  0
 28 29  1  0
 29 30  2  0
 12  7  1  0
 19 13  1  0
 30 20  1  0
 29 23  1  0
  3 31  1  0
  4 32  1  0
  4 33  1  0
  8 34  1  0
  8 35  1  0
  9 36  1  0
  9 37  1  0
 10 38  1  0
 10 39  1  0
 11 40  1  0
 11 41  1  0
 12 42  1  6
 14 43  1  0
 15 44  1  0
 16 45  1  0
 19 46  1  0
 21 47  1  0
 22 48  1  0
 24 49  1  0
 27 50  1  0
 28 51  1  0
M  END
>  <smiles>  (10) 
O=C(NCC(=O)N1CCCCC1c1cccc(F)c1)c1ccc2cc(F)ccc2n1

>  <score_type>  (10) 
oracle

>  <origin>  (10) 
autodockgpu

>  <m_score__min__energy>  (10) 
-9.3000000000000007

>  <m_primary>  (10) 
energy

>  <rmsd>  (10) 
8.6836967228727

>  <m_score__min__rmsd>  (10) 
8.6836967228727

>  <meeko>  (10) 
{"free_energy": -8.55, "intermolecular_energy": -10.05, "internal_energy": -1.63, "cluster_size": 12, "cluster_id": 2, "rank_in_cluster": 10}

>  <energy>  (10) 
-9.25

>  <cluster_rmsd>  (10) 
0.22

>  <cluster>  (10) 
1

$$$$

     RDKit          3D

 51 54  0  0  0  0  0  0  0  0999 V2000
  139.5580   71.1460  221.1460 O   0  0  0  0  0  0  0  0  0  0  0  0
  139.6060   71.7100  222.2860 C   0  0  0  0  0  0  0  0  0  0  0  0
  139.5220   73.1340  222.3860 N   0  0  0  0  0  0  0  0  0  0  0  0
  139.3810   73.8780  221.1380 C   0  0  0  0  0  0  0  0  0  0  0  0
  140.2740   75.0820  221.1460 C   0  0  0  0  0  0  0  0  0  0  0  0
  140.1660   75.8670  222.1240 O   0  0  0  0  0  0  0  0  0  0  0  0
  141.1920   75.2910  220.0760 N   0  0  0  0  0  0  0  0  0  0  0  0
  140.7570   75.1660  218.6990 C   0  0  0  0  0  0  0  0  0  0  0  0
  141.4110   76.1760  217.7950 C   0  0  0  0  0  0  0  0  0  0  0  0
  142.8840   76.3330  218.0940 C   0  0  0  0  0  0  0  0  0  0  0  0
  143.0200   76.7360  219.5330 C   0  0  0  0  0  0  0  0  0  0  0  0
  142.5610   75.6320  220.4420 C   0  0  2  0  0  0  0  0  0  0  0  0
  143.4790   74.4930  220.4540 C   0  0  0  0  0  0  0  0  0  0  0  0
  144.8610   74.6440  220.4720 C   0  0  0  0  0  0  0  0  0  0  0  0
  145.7270   73.5720  220.4800 C   0  0  0  0  0  0  0  0  0  0  0  0
  145.2570   72.2870  220.4710 C   0  0  0  0  0  0  0  0  0  0  0  0
  143.8900   72.1090  220.4530 C   0  0  0  0  0  0  0  0  0  0  0  0
  143.4220   70.8250  220.4440 F   0  0  0  0  0  0  0  0  0  0  0  0
  143.0110   73.1970  220.4450 C   0  0  0  0  0  0  0  0  0  0  0  0
  139.7480   70.9230  223.5110 C   0  0  0  0  0  0  0  0  0  0  0  0
  139.3540   69.6000  223.5240 C   0  0  0  0  0  0  0  0  0  0  0  0
  139.4660   68.8040  224.6580 C   0  0  0  0  0  0  0  0  0  0  0  0
  139.9890   69.3780  225.7870 C   0  0  0  0  0  0  0  0  0  0  0  0
  140.1110   68.6030  226.9360 C   0  0  0  0  0  0  0  0  0  0  0  0
  140.6440   69.2260  228.0470 C   0  0  0  0  0  0  0  0  0  0  0  0
  140.7570   68.4510  229.1670 F   0  0  0  0  0  0  0  0  0  0  0  0
  141.0350   70.5450  228.0270 C   0  0  0  0  0  0  0  0  0  0  0  0
  140.9150   71.3120  226.8970 C   0  0  0  0  0  0  0  0  0  0  0  0
  140.3860   70.7080  225.7740 C   0  0  0  0  0  0  0  0  0  0  0  0
  140.2660   71.4660  224.6500 N   0  0  0  0  0  0  0  0  0  0  0  0
  139.5650   73.5660  223.3140 H   0  0  0  0  0  0  0  0  0  0  0  0
  139.6564   73.2276  220.2947 H   0  0  0  0  0  0  0  0  0  0  0  0
  138.3368   74.2079  221.0342 H   0  0  0  0  0  0  0  0  0  0  0  0
  141.0073   74.1568  218.3401 H   0  0  0  0  0  0  0  0  0  0  0  0
  139.6722   75.3465  218.6731 H   0  0  0  0  0  0  0  0  0  0  0  0
  141.2934   75.8477  216.7518 H   0  0  0  0  0  0  0  0  0  0  0  0
  140.9245   77.1481  217.9633 H   0  0  0  0  0  0  0  0  0  0  0  0
  143.4044   75.3793  217.9218 H   0  0  0  0  0  0  0  0  0  0  0  0
  143.3299   77.0951  217.4380 H   0  0  0  0  0  0  0  0  0  0  0  0
  144.0751   76.9630  219.7457 H   0  0  0  0  0  0  0  0  0  0  0  0
  142.3939   77.6227  219.7114 H   0  0  0  0  0  0  0  0  0  0  0  0
  142.5686   75.9740  221.4874 H   0  0  0  0  0  0  0  0  0  0  0  0
  145.2804   75.6609  220.4802 H   0  0  0  0  0  0  0  0  0  0  0  0
  146.8121   73.7520  220.4938 H   0  0  0  0  0  0  0  0  0  0  0  0
  145.9442   71.4281  220.4779 H   0  0  0  0  0  0  0  0  0  0  0  0
  141.9263   73.0147  220.4313 H   0  0  0  0  0  0  0  0  0  0  0  0
  138.9372   69.1608  222.6057 H   0  0  0  0  0  0  0  0  0  0  0  0
  139.1464   67.7515  224.6494 H   0  0  0  0  0  0  0  0  0  0  0  0
  139.7989   67.5484  226.9582 H   0  0  0  0  0  0  0  0  0  0  0  0
  141.4538   70.9948  228.9393 H   0  0  0  0  0  0  0  0  0  0  0  0
  141.2277   72.3665  226.8856 H   0  0  0  0  0  0  0  0  0  0  0  0
  1  2  2  0
  2  3  1  0
  3  4  1  0
  4  5  1  0
  5  6  2  0
  5  7  1  0
  7  8  1  0
  8  9  1  0
  9 10  1  0
 10 11  1  0
 11 12  1  0
 12 13  1  0
 13 14  2  0
 14 15  1  0
 15 16  2  0
 16 17  1  0
 17 18  1  0
 17 19  2  0
  2 20  1  0
 20 21  2  0
 21 22  1  0
 22 23  2  0
 23 24  1  0
 24 25  2  0
 25 26  1  0
 25 27  1  0
 27 28  2  0
 28 29  1  0
 29 30  2  0
 12  7  1  0
 19 13  1  0
 30 20  1  0
 29 23  1  0
  3 31  1  0
  4 32  1  0
  4 33  1  0
  8 34  1  0
  8 35  1  0
  9 36  1  0
  9 37  1  0
 10 38  1  0
 10 39  1  0
 11 40  1  0
 11 41  1  0
 12 42  1  1
 14 43  1  0
 15 44  1  0
 16 45  1  0
 19 46  1  0
 21 47  1  0
 22 48  1  0
 24 49  1  0
 27 50  1  0
 28 51  1  0
M  END
>  <smiles>  (11) 
O=C(NCC(=O)N1CCCCC1c1cccc(F)c1)c1ccc2cc(F)ccc2n1

>  <score_type>  (11) 
oracle

>  <origin>  (11) 
autodockgpu

>  <m_score__min__energy>  (11) 
-9.3000000000000007

>  <m_primary>  (11) 
energy

>  <rmsd>  (11) 
1.4791983945483207

>  <m_score__min__rmsd>  (11) 
1.4791983945483207

>  <meeko>  (11) 
{"free_energy": -8.2, "intermolecular_energy": -9.69, "internal_energy": -1.91, "cluster_size": 7, "cluster_id": 3, "rank_in_cluster": 7}

>  <energy>  (11) 
-9.25

>  <cluster_rmsd>  (11) 
0.25

>  <cluster>  (11) 
1

$$$$

     RDKit          3D

 51 54  0  0  0  0  0  0  0  0999 V2000
  141.1640   72.1800  221.4920 O   0  0  0  0  0  0  0  0  0  0  0  0
  140.2660   72.3660  222.3740 C   0  0  0  0  0  0  0  0  0  0  0  0
  139.3250   73.4320  222.2270 N   0  0  0  0  0  0  0  0  0  0  0  0
  139.4540   74.2700  221.0380 C   0  0  0  0  0  0  0  0  0  0  0  0
  140.7320   75.0510  221.0880 C   0  0  0  0  0  0  0  0  0  0  0  0
  141.0460   75.5640  222.1940 O   0  0  0  0  0  0  0  0  0  0  0  0
  141.5300   75.1820  219.9140 N   0  0  0  0  0  0  0  0  0  0  0  0
  140.9570   74.9380  218.6050 C   0  0  0  0  0  0  0  0  0  0  0  0
  141.4930   75.8780  217.5580 C   0  0  0  0  0  0  0  0  0  0  0  0
  142.9850   76.0770  217.6870 C   0  0  0  0  0  0  0  0  0  0  0  0
  143.2610   76.6000  219.0660 C   0  0  0  0  0  0  0  0  0  0  0  0
  142.9220   75.5690  220.1050 C   0  0  2  0  0  0  0  0  0  0  0  0
  143.8600   74.4460  220.1130 C   0  0  0  0  0  0  0  0  0  0  0  0
  143.6360   73.2760  219.3950 C   0  0  0  0  0  0  0  0  0  0  0  0
  144.5170   72.2170  219.4040 C   0  0  0  0  0  0  0  0  0  0  0  0
  145.6730   72.2700  220.1340 C   0  0  0  0  0  0  0  0  0  0  0  0
  145.9200   73.4190  220.8550 C   0  0  0  0  0  0  0  0  0  0  0  0
  147.0760   73.4690  221.5820 F   0  0  0  0  0  0  0  0  0  0  0  0
  145.0260   74.4940  220.8460 C   0  0  0  0  0  0  0  0  0  0  0  0
  140.1740   71.5000  223.5510 C   0  0  0  0  0  0  0  0  0  0  0  0
  139.5880   70.2560  223.4400 C   0  0  0  0  0  0  0  0  0  0  0  0
  139.4740   69.3910  224.5230 C   0  0  0  0  0  0  0  0  0  0  0  0
  139.9680   69.8160  225.7290 C   0  0  0  0  0  0  0  0  0  0  0  0
  139.8660   68.9690  226.8290 C   0  0  0  0  0  0  0  0  0  0  0  0
  140.3780   69.4420  228.0200 C   0  0  0  0  0  0  0  0  0  0  0  0
  140.2690   68.5990  229.0910 F   0  0  0  0  0  0  0  0  0  0  0  0
  140.9610   70.6850  228.1230 C   0  0  0  0  0  0  0  0  0  0  0  0
  141.0620   71.5210  227.0420 C   0  0  0  0  0  0  0  0  0  0  0  0
  140.5570   71.0670  225.8400 C   0  0  0  0  0  0  0  0  0  0  0  0
  140.6570   71.8950  224.7640 N   0  0  0  0  0  0  0  0  0  0  0  0
  138.6110   73.5630  222.9510 H   0  0  0  0  0  0  0  0  0  0  0  0
  139.4538   73.6314  220.1423 H   0  0  0  0  0  0  0  0  0  0  0  0
  138.6074   74.9713  221.0011 H   0  0  0  0  0  0  0  0  0  0  0  0
  141.1895   73.9056  218.3048 H   0  0  0  0  0  0  0  0  0  0  0  0
  139.8719   75.1025  218.6786 H   0  0  0  0  0  0  0  0  0  0  0  0
  141.2747   75.4630  216.5629 H   0  0  0  0  0  0  0  0  0  0  0  0
  141.0065   76.8547  217.6971 H   0  0  0  0  0  0  0  0  0  0  0  0
  143.5044   75.1186  217.5395 H   0  0  0  0  0  0  0  0  0  0  0  0
  143.3447   76.7872  216.9279 H   0  0  0  0  0  0  0  0  0  0  0  0
  144.3274   76.8571  219.1475 H   0  0  0  0  0  0  0  0  0  0  0  0
  142.6384   77.4907  219.2366 H   0  0  0  0  0  0  0  0  0  0  0  0
  143.0311   75.9967  221.1126 H   0  0  0  0  0  0  0  0  0  0  0  0
  142.7176   73.1929  218.7953 H   0  0  0  0  0  0  0  0  0  0  0  0
  144.2879   71.3160  218.8160 H   0  0  0  0  0  0  0  0  0  0  0  0
  146.3794   71.4269  220.1453 H   0  0  0  0  0  0  0  0  0  0  0  0
  145.2575   75.3941  221.4345 H   0  0  0  0  0  0  0  0  0  0  0  0
  139.1978   69.9376  222.4621 H   0  0  0  0  0  0  0  0  0  0  0  0
  139.0046   68.4020  224.4158 H   0  0  0  0  0  0  0  0  0  0  0  0
  139.4016   67.9748  226.7528 H   0  0  0  0  0  0  0  0  0  0  0  0
  141.3549   71.0147  229.0957 H   0  0  0  0  0  0  0  0  0  0  0  0
  141.5269   72.5142  227.1285 H   0  0  0  0  0  0  0  0  0  0  0  0
  1  2  2  0
  2  3  1  0
  3  4  1  0
  4  5  1  0
  5  6  2  0
  5  7  1  0
  7  8  1  0
  8  9  1  0
  9 10  1  0
 10 11  1  0
 11 12  1  0
 12 13  1  0
 13 14  2  0
 14 15  1  0
 15 16  2  0
 16 17  1  0
 17 18  1  0
 17 19  2  0
  2 20  1  0
 20 21  2  0
 21 22  1  0
 22 23  2  0
 23 24  1  0
 24 25  2  0
 25 26  1  0
 25 27  1  0
 27 28  2  0
 28 29  1  0
 29 30  2  0
 12  7  1  0
 19 13  1  0
 30 20  1  0
 29 23  1  0
  3 31  1  0
  4 32  1  0
  4 33  1  0
  8 34  1  0
  8 35  1  0
  9 36  1  0
  9 37  1  0
 10 38  1  0
 10 39  1  0
 11 40  1  0
 11 41  1  0
 12 42  1  1
 14 43  1  0
 15 44  1  0
 16 45  1  0
 19 46  1  0
 21 47  1  0
 22 48  1  0
 24 49  1  0
 27 50  1  0
 28 51  1  0
M  END
>  <smiles>  (12) 
O=C(NCC(=O)N1CCCCC1c1cccc(F)c1)c1ccc2cc(F)ccc2n1

>  <score_type>  (12) 
oracle

>  <origin>  (12) 
autodockgpu

>  <m_score__min__energy>  (12) 
-9.3000000000000007

>  <m_primary>  (12) 
energy

>  <rmsd>  (12) 
1.6868844179337887

>  <m_score__min__rmsd>  (12) 
1.6868844179337887

>  <meeko>  (12) 
{"free_energy": -8.76, "intermolecular_energy": -10.25, "internal_energy": -1.64, "cluster_size": 7, "cluster_id": 3, "rank_in_cluster": 1}

>  <energy>  (12) 
-9.2

>  <cluster_rmsd>  (12) 
0.73

>  <cluster>  (12) 
1

$$$$

     RDKit          3D

 51 54  0  0  0  0  0  0  0  0999 V2000
  141.1080   72.3940  221.8270 O   0  0  0  0  0  0  0  0  0  0  0  0
  140.0910   72.3080  222.5860 C   0  0  0  0  0  0  0  0  0  0  0  0
  138.9440   73.1270  222.3460 N   0  0  0  0  0  0  0  0  0  0  0  0
  139.0100   74.0420  221.2090 C   0  0  0  0  0  0  0  0  0  0  0  0
  139.4860   75.3910  221.6550 C   0  0  0  0  0  0  0  0  0  0  0  0
  138.7570   76.0150  222.4710 O   0  0  0  0  0  0  0  0  0  0  0  0
  140.7160   75.9110  221.1550 N   0  0  0  0  0  0  0  0  0  0  0  0
  141.9010   75.0770  221.1080 C   0  0  0  0  0  0  0  0  0  0  0  0
  142.7410   75.3390  219.8870 C   0  0  0  0  0  0  0  0  0  0  0  0
  142.8630   76.8160  219.5900 C   0  0  0  0  0  0  0  0  0  0  0  0
  141.4780   77.3650  219.4140 C   0  0  0  0  0  0  0  0  0  0  0  0
  140.7090   77.2960  220.7030 C   0  0  2  0  0  0  0  0  0  0  0  0
  141.1900   78.2540  221.6980 C   0  0  0  0  0  0  0  0  0  0  0  0
  141.3910   77.9130  223.0320 C   0  0  0  0  0  0  0  0  0  0  0  0
  141.8420   78.8140  223.9710 C   0  0  0  0  0  0  0  0  0  0  0  0
  142.1160   80.1100  223.6280 C   0  0  0  0  0  0  0  0  0  0  0  0
  141.9260   80.4750  222.3120 C   0  0  0  0  0  0  0  0  0  0  0  0
  142.2010   81.7690  221.9720 F   0  0  0  0  0  0  0  0  0  0  0  0
  141.4680   79.5600  221.3580 C   0  0  0  0  0  0  0  0  0  0  0  0
  140.0690   71.3760  223.7140 C   0  0  0  0  0  0  0  0  0  0  0  0
  139.5390   70.1120  223.5480 C   0  0  0  0  0  0  0  0  0  0  0  0
  139.4920   69.1850  224.5830 C   0  0  0  0  0  0  0  0  0  0  0  0
  139.9970   69.5660  225.7990 C   0  0  0  0  0  0  0  0  0  0  0  0
  139.9620   68.6570  226.8520 C   0  0  0  0  0  0  0  0  0  0  0  0
  140.4820   69.0880  228.0560 C   0  0  0  0  0  0  0  0  0  0  0  0
  140.4390   68.1830  229.0800 F   0  0  0  0  0  0  0  0  0  0  0  0
  141.0090   70.3490  228.2150 C   0  0  0  0  0  0  0  0  0  0  0  0
  141.0450   71.2470  227.1800 C   0  0  0  0  0  0  0  0  0  0  0  0
  140.5300   70.8370  225.9660 C   0  0  0  0  0  0  0  0  0  0  0  0
  140.5650   71.7260  224.9370 N   0  0  0  0  0  0  0  0  0  0  0  0
  138.1370   73.0410  222.9720 H   0  0  0  0  0  0  0  0  0  0  0  0
  139.7080   73.6402  220.4597 H   0  0  0  0  0  0  0  0  0  0  0  0
  138.0056   74.1431  220.7719 H   0  0  0  0  0  0  0  0  0  0  0  0
  142.5082   75.2758  222.0034 H   0  0  0  0  0  0  0  0  0  0  0  0
  141.5709   74.0285  221.0684 H   0  0  0  0  0  0  0  0  0  0  0  0
  143.7469   74.9258  220.0526 H   0  0  0  0  0  0  0  0  0  0  0  0
  142.2502   74.8590  219.0275 H   0  0  0  0  0  0  0  0  0  0  0  0
  143.3639   77.3256  220.4263 H   0  0  0  0  0  0  0  0  0  0  0  0
  143.4583   76.9766  218.6790 H   0  0  0  0  0  0  0  0  0  0  0  0
  141.5444   78.4139  219.0894 H   0  0  0  0  0  0  0  0  0  0  0  0
  140.9534   76.7626  218.6577 H   0  0  0  0  0  0  0  0  0  0  0  0
  139.6658   77.6041  220.5393 H   0  0  0  0  0  0  0  0  0  0  0  0
  141.1810   76.8811  223.3498 H   0  0  0  0  0  0  0  0  0  0  0  0
  141.9840   78.4871  225.0116 H   0  0  0  0  0  0  0  0  0  0  0  0
  142.4746   80.8339  224.3746 H   0  0  0  0  0  0  0  0  0  0  0  0
  141.3273   79.8890  220.3178 H   0  0  0  0  0  0  0  0  0  0  0  0
  139.1401   69.8286  222.5628 H   0  0  0  0  0  0  0  0  0  0  0  0
  139.0652   68.1825  224.4316 H   0  0  0  0  0  0  0  0  0  0  0  0
  139.5419   67.6476  226.7313 H   0  0  0  0  0  0  0  0  0  0  0  0
  141.4109   70.6434  229.1957 H   0  0  0  0  0  0  0  0  0  0  0  0
  141.4673   72.2542  227.3112 H   0  0  0  0  0  0  0  0  0  0  0  0
  1  2  2  0
  2  3  1  0
  3  4  1  0
  4  5  1  0
  5  6  2  0
  5  7  1  0
  7  8  1  0
  8  9  1  0
  9 10  1  0
 10 11  1  0
 11 12  1  0
 12 13  1  0
 13 14  2  0
 14 15  1  0
 15 16  2  0
 16 17  1  0
 17 18  1  0
 17 19  2  0
  2 20  1  0
 20 21  2  0
 21 22  1  0
 22 23  2  0
 23 24  1  0
 24 25  2  0
 25 26  1  0
 25 27  1  0
 27 28  2  0
 28 29  1  0
 29 30  2  0
 12  7  1  0
 19 13  1  0
 30 20  1  0
 29 23  1  0
  3 31  1  0
  4 32  1  0
  4 33  1  0
  8 34  1  0
  8 35  1  0
  9 36  1  0
  9 37  1  0
 10 38  1  0
 10 39  1  0
 11 40  1  0
 11 41  1  0
 12 42  1  6
 14 43  1  0
 15 44  1  0
 16 45  1  0
 19 46  1  0
 21 47  1  0
 22 48  1  0
 24 49  1  0
 27 50  1  0
 28 51  1  0
M  END
>  <smiles>  (13) 
O=C(NCC(=O)N1CCCCC1c1cccc(F)c1)c1ccc2cc(F)ccc2n1

>  <score_type>  (13) 
oracle

>  <origin>  (13) 
autodockgpu

>  <m_score__min__energy>  (13) 
-9.3000000000000007

>  <m_primary>  (13) 
energy

>  <rmsd>  (13) 
2.0107602784140735

>  <m_score__min__rmsd>  (13) 
2.0107602784140735

>  <meeko>  (13) 
{"free_energy": -9.25, "intermolecular_energy": -10.74, "internal_energy": -1.48, "cluster_size": 30, "cluster_id": 1, "rank_in_cluster": 9}

>  <energy>  (13) 
-9.18

>  <cluster_rmsd>  (13) 
0.77

>  <cluster>  (13) 
1

$$$$

     RDKit          3D

 51 54  0  0  0  0  0  0  0  0999 V2000
  141.2950   72.8220  222.0740 O   0  0  0  0  0  0  0  0  0  0  0  0
  140.2090   72.5920  222.6960 C   0  0  0  0  0  0  0  0  0  0  0  0
  139.0150   73.2920  222.3400 N   0  0  0  0  0  0  0  0  0  0  0  0
  139.1150   74.2590  221.2500 C   0  0  0  0  0  0  0  0  0  0  0  0
  139.5270   75.5990  221.7800 C   0  0  0  0  0  0  0  0  0  0  0  0
  138.9110   76.0290  222.7900 O   0  0  0  0  0  0  0  0  0  0  0  0
  140.5770   76.3220  221.1410 N   0  0  0  0  0  0  0  0  0  0  0  0
  141.8390   75.6750  220.8430 C   0  0  0  0  0  0  0  0  0  0  0  0
  142.4240   76.1320  219.5330 C   0  0  0  0  0  0  0  0  0  0  0  0
  142.2960   77.6260  219.3460 C   0  0  0  0  0  0  0  0  0  0  0  0
  140.8390   77.9770  219.4330 C   0  0  0  0  0  0  0  0  0  0  0  0
  140.3090   77.7170  220.8140 C   0  0  2  0  0  0  0  0  0  0  0  0
  140.8150   78.6710  221.8010 C   0  0  0  0  0  0  0  0  0  0  0  0
  142.1720   78.8270  222.0670 C   0  0  0  0  0  0  0  0  0  0  0  0
  142.6490   79.7240  222.9980 C   0  0  0  0  0  0  0  0  0  0  0  0
  141.7950   80.5150  223.7170 C   0  0  0  0  0  0  0  0  0  0  0  0
  140.4450   80.3800  223.4720 C   0  0  0  0  0  0  0  0  0  0  0  0
  139.5940   81.1720  224.1900 F   0  0  0  0  0  0  0  0  0  0  0  0
  139.9600   79.4710  222.5270 C   0  0  0  0  0  0  0  0  0  0  0  0
  140.1560   71.6120  223.7820 C   0  0  0  0  0  0  0  0  0  0  0  0
  139.5850   70.3760  223.5600 C   0  0  0  0  0  0  0  0  0  0  0  0
  139.5070   69.4060  224.5540 C   0  0  0  0  0  0  0  0  0  0  0  0
  140.0230   69.7160  225.7850 C   0  0  0  0  0  0  0  0  0  0  0  0
  139.9570   68.7630  226.7970 C   0  0  0  0  0  0  0  0  0  0  0  0
  140.4900   69.1230  228.0180 C   0  0  0  0  0  0  0  0  0  0  0  0
  140.4170   68.1760  229.0010 F   0  0  0  0  0  0  0  0  0  0  0  0
  141.0580   70.3580  228.2320 C   0  0  0  0  0  0  0  0  0  0  0  0
  141.1240   71.2990  227.2380 C   0  0  0  0  0  0  0  0  0  0  0  0
  140.5970   70.9600  226.0080 C   0  0  0  0  0  0  0  0  0  0  0  0
  140.6610   71.8920  225.0180 N   0  0  0  0  0  0  0  0  0  0  0  0
  138.1530   73.0900  222.8550 H   0  0  0  0  0  0  0  0  0  0  0  0
  139.8635   73.9105  220.5231 H   0  0  0  0  0  0  0  0  0  0  0  0
  138.1328   74.3530  220.7637 H   0  0  0  0  0  0  0  0  0  0  0  0
  142.5526   75.9053  221.6478 H   0  0  0  0  0  0  0  0  0  0  0  0
  141.6515   74.5938  220.7672 H   0  0  0  0  0  0  0  0  0  0  0  0
  143.4897   75.8608  219.5062 H   0  0  0  0  0  0  0  0  0  0  0  0
  141.8673   75.6393  218.7222 H   0  0  0  0  0  0  0  0  0  0  0  0
  142.8550   78.1509  220.1347 H   0  0  0  0  0  0  0  0  0  0  0  0
  142.7059   77.9273  218.3707 H   0  0  0  0  0  0  0  0  0  0  0  0
  140.7098   79.0424  219.1918 H   0  0  0  0  0  0  0  0  0  0  0  0
  140.2827   77.3523  218.7186 H   0  0  0  0  0  0  0  0  0  0  0  0
  139.2214   77.8794  220.8393 H   0  0  0  0  0  0  0  0  0  0  0  0
  142.8931   78.2093  221.5116 H   0  0  0  0  0  0  0  0  0  0  0  0
  143.7331   79.8053  223.1657 H   0  0  0  0  0  0  0  0  0  0  0  0
  142.1712   81.2314  224.4622 H   0  0  0  0  0  0  0  0  0  0  0  0
  138.8756   79.3931  222.3600 H   0  0  0  0  0  0  0  0  0  0  0  0
  139.1777   70.1499  222.5635 H   0  0  0  0  0  0  0  0  0  0  0  0
  139.0478   68.4257  224.3589 H   0  0  0  0  0  0  0  0  0  0  0  0
  139.5037   67.7744  226.6323 H   0  0  0  0  0  0  0  0  0  0  0  0
  141.4688   70.5955  229.2244 H   0  0  0  0  0  0  0  0  0  0  0  0
  141.5788   72.2851  227.4133 H   0  0  0  0  0  0  0  0  0  0  0  0
  1  2  2  0
  2  3  1  0
  3  4  1  0
  4  5  1  0
  5  6  2  0
  5  7  1  0
  7  8  1  0
  8  9  1  0
  9 10  1  0
 10 11  1  0
 11 12  1  0
 12 13  1  0
 13 14  2  0
 14 15  1  0
 15 16  2  0
 16 17  1  0
 17 18  1  0
 17 19  2  0
  2 20  1  0
 20 21  2  0
 21 22  1  0
 22 23  2  0
 23 24  1  0
 24 25  2  0
 25 26  1  0
 25 27  1  0
 27 28  2  0
 28 29  1  0
 29 30  2  0
 12  7  1  0
 19 13  1  0
 30 20  1  0
 29 23  1  0
  3 31  1  0
  4 32  1  0
  4 33  1  0
  8 34  1  0
  8 35  1  0
  9 36  1  0
  9 37  1  0
 10 38  1  0
 10 39  1  0
 11 40  1  0
 11 41  1  0
 12 42  1  6
 14 43  1  0
 15 44  1  0
 16 45  1  0
 19 46  1  0
 21 47  1  0
 22 48  1  0
 24 49  1  0
 27 50  1  0
 28 51  1  0
M  END
>  <smiles>  (14) 
O=C(NCC(=O)N1CCCCC1c1cccc(F)c1)c1ccc2cc(F)ccc2n1

>  <score_type>  (14) 
oracle

>  <origin>  (14) 
autodockgpu

>  <m_score__min__energy>  (14) 
-9.3000000000000007

>  <m_primary>  (14) 
energy

>  <rmsd>  (14) 
2.0415470457473885

>  <m_score__min__rmsd>  (14) 
2.0415470457473885

>  <meeko>  (14) 
{"free_energy": -8.94, "intermolecular_energy": -10.43, "internal_energy": -1.3, "cluster_size": 30, "cluster_id": 1, "rank_in_cluster": 26}

>  <energy>  (14) 
-9.18

>  <cluster_rmsd>  (14) 
0.78

>  <cluster>  (14) 
1

$$$$

     RDKit          3D

 51 54  0  0  0  0  0  0  0  0999 V2000
  140.9040   71.5860  221.2810 O   0  0  0  0  0  0  0  0  0  0  0  0
  140.3970   72.0560  222.3490 C   0  0  0  0  0  0  0  0  0  0  0  0
  139.9640   73.4180  222.3990 N   0  0  0  0  0  0  0  0  0  0  0  0
  140.1340   74.2110  221.1850 C   0  0  0  0  0  0  0  0  0  0  0  0
  140.1130   75.6740  221.5120 C   0  0  0  0  0  0  0  0  0  0  0  0
  139.3250   76.0450  222.4210 O   0  0  0  0  0  0  0  0  0  0  0  0
  140.9640   76.5720  220.8040 N   0  0  0  0  0  0  0  0  0  0  0  0
  142.2080   76.1040  220.2280 C   0  0  0  0  0  0  0  0  0  0  0  0
  142.5120   76.7560  218.9050 C   0  0  0  0  0  0  0  0  0  0  0  0
  142.2160   78.2380  218.9240 C   0  0  0  0  0  0  0  0  0  0  0  0
  140.7710   78.4130  219.2880 C   0  0  0  0  0  0  0  0  0  0  0  0
  140.5160   77.9540  220.6960 C   0  0  2  0  0  0  0  0  0  0  0  0
  141.0960   78.8520  221.6950 C   0  0  0  0  0  0  0  0  0  0  0  0
  141.5830   78.3990  222.9170 C   0  0  0  0  0  0  0  0  0  0  0  0
  142.1260   79.2440  223.8600 C   0  0  0  0  0  0  0  0  0  0  0  0
  142.2130   80.5910  223.6330 C   0  0  0  0  0  0  0  0  0  0  0  0
  141.7370   81.0650  222.4290 C   0  0  0  0  0  0  0  0  0  0  0  0
  141.8250   82.4100  222.2050 F   0  0  0  0  0  0  0  0  0  0  0  0
  141.1860   80.2080  221.4720 C   0  0  0  0  0  0  0  0  0  0  0  0
  140.2470   71.2230  223.5430 C   0  0  0  0  0  0  0  0  0  0  0  0
  139.6150   70.0000  223.4480 C   0  0  0  0  0  0  0  0  0  0  0  0
  139.4430   69.1660  224.5470 C   0  0  0  0  0  0  0  0  0  0  0  0
  139.9280   69.5990  225.7530 C   0  0  0  0  0  0  0  0  0  0  0  0
  139.7690   68.7840  226.8700 C   0  0  0  0  0  0  0  0  0  0  0  0
  140.2740   69.2640  228.0610 C   0  0  0  0  0  0  0  0  0  0  0  0
  140.1100   68.4510  229.1480 F   0  0  0  0  0  0  0  0  0  0  0  0
  140.9030   70.4850  228.1490 C   0  0  0  0  0  0  0  0  0  0  0  0
  141.0610   71.2910  227.0510 C   0  0  0  0  0  0  0  0  0  0  0  0
  140.5630   70.8290  225.8490 C   0  0  0  0  0  0  0  0  0  0  0  0
  140.7190   71.6270  224.7570 N   0  0  0  0  0  0  0  0  0  0  0  0
  139.5600   73.7750  223.2700 H   0  0  0  0  0  0  0  0  0  0  0  0
  141.0970   73.9574  220.7178 H   0  0  0  0  0  0  0  0  0  0  0  0
  139.3088   73.9872  220.4929 H   0  0  0  0  0  0  0  0  0  0  0  0
  143.0268   76.3273  220.9278 H   0  0  0  0  0  0  0  0  0  0  0  0
  142.1093   75.0225  220.0529 H   0  0  0  0  0  0  0  0  0  0  0  0
  143.5772   76.6094  218.6730 H   0  0  0  0  0  0  0  0  0  0  0  0
  141.8713   76.2909  218.1413 H   0  0  0  0  0  0  0  0  0  0  0  0
  142.8526   78.7371  219.6694 H   0  0  0  0  0  0  0  0  0  0  0  0
  142.4205   78.6831  217.9391 H   0  0  0  0  0  0  0  0  0  0  0  0
  140.5035   79.4765  219.2013 H   0  0  0  0  0  0  0  0  0  0  0  0
  140.1591   77.8073  218.6034 H   0  0  0  0  0  0  0  0  0  0  0  0
  139.4392   77.9903  220.9179 H   0  0  0  0  0  0  0  0  0  0  0  0
  141.5324   77.3229  223.1392 H   0  0  0  0  0  0  0  0  0  0  0  0
  142.4953   78.8298  224.8098 H   0  0  0  0  0  0  0  0  0  0  0  0
  142.6462   81.2695  224.3826 H   0  0  0  0  0  0  0  0  0  0  0  0
  140.8174   80.6245  220.5230 H   0  0  0  0  0  0  0  0  0  0  0  0
  139.2342   69.6737  222.4690 H   0  0  0  0  0  0  0  0  0  0  0  0
  138.9362   68.1944  224.4518 H   0  0  0  0  0  0  0  0  0  0  0  0
  139.2666   67.8075  226.8066 H   0  0  0  0  0  0  0  0  0  0  0  0
  141.2879   70.8221  229.1228 H   0  0  0  0  0  0  0  0  0  0  0  0
  141.5642   72.2663  227.1248 H   0  0  0  0  0  0  0  0  0  0  0  0
  1  2  2  0
  2  3  1  0
  3  4  1  0
  4  5  1  0
  5  6  2  0
  5  7  1  0
  7  8  1  0
  8  9  1  0
  9 10  1  0
 10 11  1  0
 11 12  1  0
 12 13  1  0
 13 14  2  0
 14 15  1  0
 15 16  2  0
 16 17  1  0
 17 18  1  0
 17 19  2  0
  2 20  1  0
 20 21  2  0
 21 22  1  0
 22 23  2  0
 23 24  1  0
 24 25  2  0
 25 26  1  0
 25 27  1  0
 27 28  2  0
 28 29  1  0
 29 30  2  0
 12  7  1  0
 19 13  1  0
 30 20  1  0
 29 23  1  0
  3 31  1  0
  4 32  1  0
  4 33  1  0
  8 34  1  0
  8 35  1  0
  9 36  1  0
  9 37  1  0
 10 38  1  0
 10 39  1  0
 11 40  1  0
 11 41  1  0
 12 42  1  1
 14 43  1  0
 15 44  1  0
 16 45  1  0
 19 46  1  0
 21 47  1  0
 22 48  1  0
 24 49  1  0
 27 50  1  0
 28 51  1  0
M  END
>  <smiles>  (15) 
O=C(NCC(=O)N1CCCCC1c1cccc(F)c1)c1ccc2cc(F)ccc2n1

>  <score_type>  (15) 
oracle

>  <origin>  (15) 
autodockgpu

>  <m_score__min__energy>  (15) 
-9.3000000000000007

>  <m_primary>  (15) 
energy

>  <rmsd>  (15) 
2.061011636475179

>  <m_score__min__rmsd>  (15) 
2.061011636475179

>  <meeko>  (15) 
{"free_energy": -9.06, "intermolecular_energy": -10.56, "internal_energy": -1.67, "cluster_size": 30, "cluster_id": 1, "rank_in_cluster": 23}

>  <energy>  (15) 
-9.17

>  <cluster_rmsd>  (15) 
0.78

>  <cluster>  (15) 
1

$$$$

     RDKit          3D

 51 54  0  0  0  0  0  0  0  0999 V2000
  140.8390   71.5960  221.3090 O   0  0  0  0  0  0  0  0  0  0  0  0
  140.3530   72.0420  222.3970 C   0  0  0  0  0  0  0  0  0  0  0  0
  139.9360   73.4060  222.4920 N   0  0  0  0  0  0  0  0  0  0  0  0
  140.0980   74.2320  221.2980 C   0  0  0  0  0  0  0  0  0  0  0  0
  140.1740   75.6810  221.6740 C   0  0  0  0  0  0  0  0  0  0  0  0
  139.4990   76.0490  222.6720 O   0  0  0  0  0  0  0  0  0  0  0  0
  140.9850   76.5710  220.9120 N   0  0  0  0  0  0  0  0  0  0  0  0
  142.2220   76.1080  220.3150 C   0  0  0  0  0  0  0  0  0  0  0  0
  142.4740   76.7210  218.9630 C   0  0  0  0  0  0  0  0  0  0  0  0
  142.1490   78.1960  218.9420 C   0  0  0  0  0  0  0  0  0  0  0  0
  140.7120   78.3560  219.3430 C   0  0  0  0  0  0  0  0  0  0  0  0
  140.5070   77.9400  220.7720 C   0  0  2  0  0  0  0  0  0  0  0  0
  141.0970   78.8810  221.7230 C   0  0  0  0  0  0  0  0  0  0  0  0
  141.5990   78.4840  222.9580 C   0  0  0  0  0  0  0  0  0  0  0  0
  142.1530   79.3700  223.8560 C   0  0  0  0  0  0  0  0  0  0  0  0
  142.2340   80.7060  223.5690 C   0  0  0  0  0  0  0  0  0  0  0  0
  141.7440   81.1260  222.3510 C   0  0  0  0  0  0  0  0  0  0  0  0
  141.8270   82.4600  222.0660 F   0  0  0  0  0  0  0  0  0  0  0  0
  141.1820   80.2270  221.4390 C   0  0  0  0  0  0  0  0  0  0  0  0
  140.2090   71.1770  223.5690 C   0  0  0  0  0  0  0  0  0  0  0  0
  139.5700   69.9590  223.4460 C   0  0  0  0  0  0  0  0  0  0  0  0
  139.4040   69.0960  224.5230 C   0  0  0  0  0  0  0  0  0  0  0  0
  139.9020   69.4940  225.7370 C   0  0  0  0  0  0  0  0  0  0  0  0
  139.7500   68.6490  226.8310 C   0  0  0  0  0  0  0  0  0  0  0  0
  140.2670   69.0940  228.0310 C   0  0  0  0  0  0  0  0  0  0  0  0
  140.1090   68.2520  229.0960 F   0  0  0  0  0  0  0  0  0  0  0  0
  140.9030   70.3090  228.1460 C   0  0  0  0  0  0  0  0  0  0  0  0
  141.0550   71.1440  227.0700 C   0  0  0  0  0  0  0  0  0  0  0  0
  140.5440   70.7180  225.8600 C   0  0  0  0  0  0  0  0  0  0  0  0
  140.6940   71.5450  224.7890 N   0  0  0  0  0  0  0  0  0  0  0  0
  139.5480   73.7430  223.3780 H   0  0  0  0  0  0  0  0  0  0  0  0
  141.0240   73.9426  220.7795 H   0  0  0  0  0  0  0  0  0  0  0  0
  139.2322   74.0789  220.6369 H   0  0  0  0  0  0  0  0  0  0  0  0
  143.0559   76.3707  220.9825 H   0  0  0  0  0  0  0  0  0  0  0  0
  142.1407   75.0195  220.1788 H   0  0  0  0  0  0  0  0  0  0  0  0
  143.5347   76.5872  218.7043 H   0  0  0  0  0  0  0  0  0  0  0  0
  141.8208   76.2184  218.2345 H   0  0  0  0  0  0  0  0  0  0  0  0
  142.7971   78.7319  219.6511 H   0  0  0  0  0  0  0  0  0  0  0  0
  142.3155   78.6114  217.9371 H   0  0  0  0  0  0  0  0  0  0  0  0
  140.4212   79.4108  219.2293 H   0  0  0  0  0  0  0  0  0  0  0  0
  140.0926   77.7161  218.6973 H   0  0  0  0  0  0  0  0  0  0  0  0
  139.4366   77.9638  221.0244 H   0  0  0  0  0  0  0  0  0  0  0  0
  141.5517   77.4189  223.2288 H   0  0  0  0  0  0  0  0  0  0  0  0
  142.5359   78.9983  224.8179 H   0  0  0  0  0  0  0  0  0  0  0  0
  142.6735   81.4176  224.2834 H   0  0  0  0  0  0  0  0  0  0  0  0
  140.8008   80.6010  220.4773 H   0  0  0  0  0  0  0  0  0  0  0  0
  139.1789   69.6615  222.4619 H   0  0  0  0  0  0  0  0  0  0  0  0
  138.8921   68.1295  224.4057 H   0  0  0  0  0  0  0  0  0  0  0  0
  139.2439   67.6762  226.7445 H   0  0  0  0  0  0  0  0  0  0  0  0
  141.2988   70.6173  229.1249 H   0  0  0  0  0  0  0  0  0  0  0  0
  141.5636   72.1146  227.1664 H   0  0  0  0  0  0  0  0  0  0  0  0
  1  2  2  0
  2  3  1  0
  3  4  1  0
  4  5  1  0
  5  6  2  0
  5  7  1  0
  7  8  1  0
  8  9  1  0
  9 10  1  0
 10 11  1  0
 11 12  1  0
 12 13  1  0
 13 14  2  0
 14 15  1  0
 15 16  2  0
 16 17  1  0
 17 18  1  0
 17 19  2  0
  2 20  1  0
 20 21  2  0
 21 22  1  0
 22 23  2  0
 23 24  1  0
 24 25  2  0
 25 26  1  0
 25 27  1  0
 27 28  2  0
 28 29  1  0
 29 30  2  0
 12  7  1  0
 19 13  1  0
 30 20  1  0
 29 23  1  0
  3 31  1  0
  4 32  1  0
  4 33  1  0
  8 34  1  0
  8 35  1  0
  9 36  1  0
  9 37  1  0
 10 38  1  0
 10 39  1  0
 11 40  1  0
 11 41  1  0
 12 42  1  1
 14 43  1  0
 15 44  1  0
 16 45  1  0
 19 46  1  0
 21 47  1  0
 22 48  1  0
 24 49  1  0
 27 50  1  0
 28 51  1  0
M  END
>  <smiles>  (16) 
O=C(NCC(=O)N1CCCCC1c1cccc(F)c1)c1ccc2cc(F)ccc2n1

>  <score_type>  (16) 
oracle

>  <origin>  (16) 
autodockgpu

>  <m_score__min__energy>  (16) 
-9.3000000000000007

>  <m_primary>  (16) 
energy

>  <rmsd>  (16) 
2.060790914010672

>  <m_score__min__rmsd>  (16) 
2.060790914010672

>  <meeko>  (16) 
{"free_energy": -9.05, "intermolecular_energy": -10.55, "internal_energy": -1.7, "cluster_size": 30, "cluster_id": 1, "rank_in_cluster": 24}

>  <energy>  (16) 
-9.17

>  <cluster_rmsd>  (16) 
0.83

>  <cluster>  (16) 
1

$$$$

     RDKit          3D

 51 54  0  0  0  0  0  0  0  0999 V2000
  141.2840   71.9890  221.4470 O   0  0  0  0  0  0  0  0  0  0  0  0
  140.5230   72.3460  222.4020 C   0  0  0  0  0  0  0  0  0  0  0  0
  139.8470   73.6050  222.3500 N   0  0  0  0  0  0  0  0  0  0  0  0
  140.0770   74.4310  221.1670 C   0  0  0  0  0  0  0  0  0  0  0  0
  140.1110   75.8810  221.5440 C   0  0  0  0  0  0  0  0  0  0  0  0
  139.3790   76.2400  222.5040 O   0  0  0  0  0  0  0  0  0  0  0  0
  140.9490   76.7810  220.8250 N   0  0  0  0  0  0  0  0  0  0  0  0
  142.1840   76.3160  220.2250 C   0  0  0  0  0  0  0  0  0  0  0  0
  142.4640   76.9730  218.9000 C   0  0  0  0  0  0  0  0  0  0  0  0
  142.1680   78.4550  218.9300 C   0  0  0  0  0  0  0  0  0  0  0  0
  140.7300   78.6290  219.3200 C   0  0  0  0  0  0  0  0  0  0  0  0
  140.5000   78.1640  220.7300 C   0  0  2  0  0  0  0  0  0  0  0  0
  141.0980   79.0580  221.7230 C   0  0  0  0  0  0  0  0  0  0  0  0
  141.6300   78.5980  222.9220 C   0  0  0  0  0  0  0  0  0  0  0  0
  142.1910   79.4380  223.8590 C   0  0  0  0  0  0  0  0  0  0  0  0
  142.2480   80.7890  223.6480 C   0  0  0  0  0  0  0  0  0  0  0  0
  141.7280   81.2720  222.4660 C   0  0  0  0  0  0  0  0  0  0  0  0
  141.7870   82.6210  222.2570 F   0  0  0  0  0  0  0  0  0  0  0  0
  141.1590   80.4190  221.5150 C   0  0  0  0  0  0  0  0  0  0  0  0
  140.3220   71.4850  223.5690 C   0  0  0  0  0  0  0  0  0  0  0  0
  139.7330   70.2470  223.4110 C   0  0  0  0  0  0  0  0  0  0  0  0
  139.5170   69.3870  224.4820 C   0  0  0  0  0  0  0  0  0  0  0  0
  139.9140   69.8080  225.7240 C   0  0  0  0  0  0  0  0  0  0  0  0
  139.7090   68.9660  226.8130 C   0  0  0  0  0  0  0  0  0  0  0  0
  140.1250   69.4360  228.0420 C   0  0  0  0  0  0  0  0  0  0  0  0
  139.9170   68.5970  229.1010 F   0  0  0  0  0  0  0  0  0  0  0  0
  140.7120   70.6720  228.1920 C   0  0  0  0  0  0  0  0  0  0  0  0
  140.9150   71.5040  227.1220 C   0  0  0  0  0  0  0  0  0  0  0  0
  140.5060   71.0530  225.8820 C   0  0  0  0  0  0  0  0  0  0  0  0
  140.7070   71.8770  224.8180 N   0  0  0  0  0  0  0  0  0  0  0  0
  139.2400   73.8720  223.1310 H   0  0  0  0  0  0  0  0  0  0  0  0
  141.0383   74.1520  220.7109 H   0  0  0  0  0  0  0  0  0  0  0  0
  139.2584   74.2665  220.4509 H   0  0  0  0  0  0  0  0  0  0  0  0
  143.0148   76.5374  220.9111 H   0  0  0  0  0  0  0  0  0  0  0  0
  142.0832   75.2351  220.0476 H   0  0  0  0  0  0  0  0  0  0  0  0
  143.5249   76.8276  218.6485 H   0  0  0  0  0  0  0  0  0  0  0  0
  141.8098   76.5107  218.1461 H   0  0  0  0  0  0  0  0  0  0  0  0
  142.8177   78.9513  219.6659 H   0  0  0  0  0  0  0  0  0  0  0  0
  142.3548   78.9036  217.9432 H   0  0  0  0  0  0  0  0  0  0  0  0
  140.4615   79.6929  219.2427 H   0  0  0  0  0  0  0  0  0  0  0  0
  140.1057   78.0267  218.6437 H   0  0  0  0  0  0  0  0  0  0  0  0
  139.4272   78.1996  220.9705 H   0  0  0  0  0  0  0  0  0  0  0  0
  141.6019   77.5185  223.1314 H   0  0  0  0  0  0  0  0  0  0  0  0
  142.5988   79.0168  224.7898 H   0  0  0  0  0  0  0  0  0  0  0  0
  142.6923   81.4645  224.3939 H   0  0  0  0  0  0  0  0  0  0  0  0
  140.7529   80.8419  220.5843 H   0  0  0  0  0  0  0  0  0  0  0  0
  139.4240   69.9300  222.4040 H   0  0  0  0  0  0  0  0  0  0  0  0
  139.0445   68.4042  224.3374 H   0  0  0  0  0  0  0  0  0  0  0  0
  139.2399   67.9775  226.7000 H   0  0  0  0  0  0  0  0  0  0  0  0
  141.0255   70.9996  229.1942 H   0  0  0  0  0  0  0  0  0  0  0  0
  141.3846   72.4910  227.2456 H   0  0  0  0  0  0  0  0  0  0  0  0
  1  2  2  0
  2  3  1  0
  3  4  1  0
  4  5  1  0
  5  6  2  0
  5  7  1  0
  7  8  1  0
  8  9  1  0
  9 10  1  0
 10 11  1  0
 11 12  1  0
 12 13  1  0
 13 14  2  0
 14 15  1  0
 15 16  2  0
 16 17  1  0
 17 18  1  0
 17 19  2  0
  2 20  1  0
 20 21  2  0
 21 22  1  0
 22 23  2  0
 23 24  1  0
 24 25  2  0
 25 26  1  0
 25 27  1  0
 27 28  2  0
 28 29  1  0
 29 30  2  0
 12  7  1  0
 19 13  1  0
 30 20  1  0
 29 23  1  0
  3 31  1  0
  4 32  1  0
  4 33  1  0
  8 34  1  0
  8 35  1  0
  9 36  1  0
  9 37  1  0
 10 38  1  0
 10 39  1  0
 11 40  1  0
 11 41  1  0
 12 42  1  1
 14 43  1  0
 15 44  1  0
 16 45  1  0
 19 46  1  0
 21 47  1  0
 22 48  1  0
 24 49  1  0
 27 50  1  0
 28 51  1  0
M  END
>  <smiles>  (17) 
O=C(NCC(=O)N1CCCCC1c1cccc(F)c1)c1ccc2cc(F)ccc2n1

>  <score_type>  (17) 
oracle

>  <origin>  (17) 
autodockgpu

>  <m_score__min__energy>  (17) 
-9.3000000000000007

>  <m_primary>  (17) 
energy

>  <rmsd>  (17) 
2.1572857272329204

>  <m_score__min__rmsd>  (17) 
2.1572857272329204

>  <meeko>  (17) 
{"free_energy": -9.2, "intermolecular_energy": -10.69, "internal_energy": -1.64, "cluster_size": 30, "cluster_id": 1, "rank_in_cluster": 12}

>  <energy>  (17) 
-9.17

>  <cluster_rmsd>  (17) 
0.8

>  <cluster>  (17) 
1

$$$$

     RDKit          3D

 51 54  0  0  0  0  0  0  0  0999 V2000
  141.1200   71.9410  221.3520 O   0  0  0  0  0  0  0  0  0  0  0  0
  140.4500   72.3550  222.3510 C   0  0  0  0  0  0  0  0  0  0  0  0
  139.8790   73.6660  222.3390 N   0  0  0  0  0  0  0  0  0  0  0  0
  140.1060   74.4760  221.1450 C   0  0  0  0  0  0  0  0  0  0  0  0
  140.1100   75.9320  221.4980 C   0  0  0  0  0  0  0  0  0  0  0  0
  139.3510   76.2960  222.4350 O   0  0  0  0  0  0  0  0  0  0  0  0
  140.9520   76.8330  220.7830 N   0  0  0  0  0  0  0  0  0  0  0  0
  142.1870   76.3670  220.1850 C   0  0  0  0  0  0  0  0  0  0  0  0
  142.4710   77.0270  218.8620 C   0  0  0  0  0  0  0  0  0  0  0  0
  142.1780   78.5090  218.8950 C   0  0  0  0  0  0  0  0  0  0  0  0
  140.7390   78.6850  219.2820 C   0  0  0  0  0  0  0  0  0  0  0  0
  140.5050   78.2170  220.6900 C   0  0  2  0  0  0  0  0  0  0  0  0
  141.1010   79.1080  221.6860 C   0  0  0  0  0  0  0  0  0  0  0  0
  141.6270   78.6440  222.8880 C   0  0  0  0  0  0  0  0  0  0  0  0
  142.1860   79.4820  223.8280 C   0  0  0  0  0  0  0  0  0  0  0  0
  142.2490   80.8330  223.6180 C   0  0  0  0  0  0  0  0  0  0  0  0
  141.7350   81.3190  222.4340 C   0  0  0  0  0  0  0  0  0  0  0  0
  141.8000   82.6680  222.2270 F   0  0  0  0  0  0  0  0  0  0  0  0
  141.1680   80.4680  221.4800 C   0  0  0  0  0  0  0  0  0  0  0  0
  140.2470   71.5070  223.5270 C   0  0  0  0  0  0  0  0  0  0  0  0
  139.6010   70.2950  223.3920 C   0  0  0  0  0  0  0  0  0  0  0  0
  139.3820   69.4480  224.4730 C   0  0  0  0  0  0  0  0  0  0  0  0
  139.8310   69.8570  225.7010 C   0  0  0  0  0  0  0  0  0  0  0  0
  139.6240   69.0280  226.8000 C   0  0  0  0  0  0  0  0  0  0  0  0
  140.0950   69.4850  228.0140 C   0  0  0  0  0  0  0  0  0  0  0  0
  139.8830   68.6590  229.0830 F   0  0  0  0  0  0  0  0  0  0  0  0
  140.7380   70.6950  228.1410 C   0  0  0  0  0  0  0  0  0  0  0  0
  140.9440   71.5140  227.0610 C   0  0  0  0  0  0  0  0  0  0  0  0
  140.4800   71.0760  225.8360 C   0  0  0  0  0  0  0  0  0  0  0  0
  140.6840   71.8870  224.7620 N   0  0  0  0  0  0  0  0  0  0  0  0
  139.3430   73.9780  223.1550 H   0  0  0  0  0  0  0  0  0  0  0  0
  141.0768   74.2070  220.7031 H   0  0  0  0  0  0  0  0  0  0  0  0
  139.2979   74.2847  220.4237 H   0  0  0  0  0  0  0  0  0  0  0  0
  143.0167   76.5850  220.8735 H   0  0  0  0  0  0  0  0  0  0  0  0
  142.0847   75.2867  220.0048 H   0  0  0  0  0  0  0  0  0  0  0  0
  143.5322   76.8801  218.6123 H   0  0  0  0  0  0  0  0  0  0  0  0
  141.8173   76.5679  218.1057 H   0  0  0  0  0  0  0  0  0  0  0  0
  142.8269   79.0021  219.6338 H   0  0  0  0  0  0  0  0  0  0  0  0
  142.3682   78.9597  217.9098 H   0  0  0  0  0  0  0  0  0  0  0  0
  140.4728   79.7496  219.2068 H   0  0  0  0  0  0  0  0  0  0  0  0
  140.1150   78.0857  218.6026 H   0  0  0  0  0  0  0  0  0  0  0  0
  139.4317   78.2530  220.9280 H   0  0  0  0  0  0  0  0  0  0  0  0
  141.5952   77.5643  223.0961 H   0  0  0  0  0  0  0  0  0  0  0  0
  142.5875   79.0591  224.7607 H   0  0  0  0  0  0  0  0  0  0  0  0
  142.6932   81.5063  224.3659 H   0  0  0  0  0  0  0  0  0  0  0  0
  140.7680   80.8929  220.5476 H   0  0  0  0  0  0  0  0  0  0  0  0
  139.2476   69.9888  222.3963 H   0  0  0  0  0  0  0  0  0  0  0  0
  138.8668   68.4843  224.3466 H   0  0  0  0  0  0  0  0  0  0  0  0
  139.1117   68.0592  226.7057 H   0  0  0  0  0  0  0  0  0  0  0  0
  141.0949   71.0124  229.1319 H   0  0  0  0  0  0  0  0  0  0  0  0
  141.4580   72.4808  227.1658 H   0  0  0  0  0  0  0  0  0  0  0  0
  1  2  2  0
  2  3  1  0
  3  4  1  0
  4  5  1  0
  5  6  2  0
  5  7  1  0
  7  8  1  0
  8  9  1  0
  9 10  1  0
 10 11  1  0
 11 12  1  0
 12 13  1  0
 13 14  2  0
 14 15  1  0
 15 16  2  0
 16 17  1  0
 17 18  1  0
 17 19  2  0
  2 20  1  0
 20 21  2  0
 21 22  1  0
 22 23  2  0
 23 24  1  0
 24 25  2  0
 25 26  1  0
 25 27  1  0
 27 28  2  0
 28 29  1  0
 29 30  2  0
 12  7  1  0
 19 13  1  0
 30 20  1  0
 29 23  1  0
  3 31  1  0
  4 32  1  0
  4 33  1  0
  8 34  1  0
  8 35  1  0
  9 36  1  0
  9 37  1  0
 10 38  1  0
 10 39  1  0
 11 40  1  0
 11 41  1  0
 12 42  1  1
 14 43  1  0
 15 44  1  0
 16 45  1  0
 19 46  1  0
 21 47  1  0
 22 48  1  0
 24 49  1  0
 27 50  1  0
 28 51  1  0
M  END
>  <smiles>  (18) 
O=C(NCC(=O)N1CCCCC1c1cccc(F)c1)c1ccc2cc(F)ccc2n1

>  <score_type>  (18) 
oracle

>  <origin>  (18) 
autodockgpu

>  <m_score__min__energy>  (18) 
-9.3000000000000007

>  <m_primary>  (18) 
energy

>  <rmsd>  (18) 
2.164188097823594

>  <m_score__min__rmsd>  (18) 
2.164188097823594

>  <meeko>  (18) 
{"free_energy": -9.18, "intermolecular_energy": -10.67, "internal_energy": -1.66, "cluster_size": 30, "cluster_id": 1, "rank_in_cluster": 14}

>  <energy>  (18) 
-9.13

>  <cluster_rmsd>  (18) 
0.81

>  <cluster>  (18) 
1

$$$$

     RDKit          3D

 51 54  0  0  0  0  0  0  0  0999 V2000
  140.9240   72.2790  221.6060 O   0  0  0  0  0  0  0  0  0  0  0  0
  140.0040   72.3240  222.4840 C   0  0  0  0  0  0  0  0  0  0  0  0
  138.9260   73.2530  222.3480 N   0  0  0  0  0  0  0  0  0  0  0  0
  138.9450   74.1220  221.1740 C   0  0  0  0  0  0  0  0  0  0  0  0
  139.4010   75.4980  221.5540 C   0  0  0  0  0  0  0  0  0  0  0  0
  138.6120   76.1920  222.2480 O   0  0  0  0  0  0  0  0  0  0  0  0
  140.6790   75.9640  221.1280 N   0  0  0  0  0  0  0  0  0  0  0  0
  141.8300   75.0850  221.1620 C   0  0  0  0  0  0  0  0  0  0  0  0
  142.7550   75.3030  219.9940 C   0  0  0  0  0  0  0  0  0  0  0  0
  142.9540   76.7710  219.6960 C   0  0  0  0  0  0  0  0  0  0  0  0
  141.6060   77.3720  219.4300 C   0  0  0  0  0  0  0  0  0  0  0  0
  140.7560   77.3450  220.6680 C   0  0  2  0  0  0  0  0  0  0  0  0
  141.2120   78.2910  221.6860 C   0  0  0  0  0  0  0  0  0  0  0  0
  141.4030   77.9290  223.0160 C   0  0  0  0  0  0  0  0  0  0  0  0
  141.8290   78.8200  223.9760 C   0  0  0  0  0  0  0  0  0  0  0  0
  142.0880   80.1260  223.6590 C   0  0  0  0  0  0  0  0  0  0  0  0
  141.9080   80.5120  222.3480 C   0  0  0  0  0  0  0  0  0  0  0  0
  142.1680   81.8160  222.0340 F   0  0  0  0  0  0  0  0  0  0  0  0
  141.4750   79.6070  221.3730 C   0  0  0  0  0  0  0  0  0  0  0  0
  140.0260   71.4320  223.6440 C   0  0  0  0  0  0  0  0  0  0  0  0
  139.5460   70.1440  223.5260 C   0  0  0  0  0  0  0  0  0  0  0  0
  139.5430   69.2530  224.5940 C   0  0  0  0  0  0  0  0  0  0  0  0
  140.0380   69.6970  225.7920 C   0  0  0  0  0  0  0  0  0  0  0  0
  140.0460   68.8250  226.8770 C   0  0  0  0  0  0  0  0  0  0  0  0
  140.5540   69.3190  228.0610 C   0  0  0  0  0  0  0  0  0  0  0  0
  140.5540   68.4500  229.1170 F   0  0  0  0  0  0  0  0  0  0  0  0
  141.0310   70.6050  228.1720 C   0  0  0  0  0  0  0  0  0  0  0  0
  141.0250   71.4660  227.1050 C   0  0  0  0  0  0  0  0  0  0  0  0
  140.5210   70.9930  225.9110 C   0  0  0  0  0  0  0  0  0  0  0  0
  140.5140   71.8450  224.8500 N   0  0  0  0  0  0  0  0  0  0  0  0
  138.1970   73.2710  223.0680 H   0  0  0  0  0  0  0  0  0  0  0  0
  139.6342   73.7051  220.4248 H   0  0  0  0  0  0  0  0  0  0  0  0
  137.9288   74.1837  220.7574 H   0  0  0  0  0  0  0  0  0  0  0  0
  142.3871   75.2686  222.0926 H   0  0  0  0  0  0  0  0  0  0  0  0
  141.4623   74.0496  221.1092 H   0  0  0  0  0  0  0  0  0  0  0  0
  143.7313   74.8520  220.2251 H   0  0  0  0  0  0  0  0  0  0  0  0
  142.3003   74.8351  219.1084 H   0  0  0  0  0  0  0  0  0  0  0  0
  143.4215   77.2679  220.5589 H   0  0  0  0  0  0  0  0  0  0  0  0
  143.6111   76.9001  218.8233 H   0  0  0  0  0  0  0  0  0  0  0  0
  141.7341   78.4145  219.1032 H   0  0  0  0  0  0  0  0  0  0  0  0
  141.1062   76.7837  218.6464 H   0  0  0  0  0  0  0  0  0  0  0  0
  139.7386   77.6936  220.4369 H   0  0  0  0  0  0  0  0  0  0  0  0
  141.2056   76.8884  223.3129 H   0  0  0  0  0  0  0  0  0  0  0  0
  141.9630   78.4770  225.0125 H   0  0  0  0  0  0  0  0  0  0  0  0
  142.4274   80.8415  224.4225 H   0  0  0  0  0  0  0  0  0  0  0  0
  141.3420   79.9524  220.3371 H   0  0  0  0  0  0  0  0  0  0  0  0
  139.1524   69.8104  222.5545 H   0  0  0  0  0  0  0  0  0  0  0  0
  139.1572   68.2291  224.4810 H   0  0  0  0  0  0  0  0  0  0  0  0
  139.6671   67.7956  226.7948 H   0  0  0  0  0  0  0  0  0  0  0  0
  141.4261   70.9501  229.1388 H   0  0  0  0  0  0  0  0  0  0  0  0
  141.4070   72.4934  227.1973 H   0  0  0  0  0  0  0  0  0  0  0  0
  1  2  2  0
  2  3  1  0
  3  4  1  0
  4  5  1  0
  5  6  2  0
  5  7  1  0
  7  8  1  0
  8  9  1  0
  9 10  1  0
 10 11  1  0
 11 12  1  0
 12 13  1  0
 13 14  2  0
 14 15  1  0
 15 16  2  0
 16 17  1  0
 17 18  1  0
 17 19  2  0
  2 20  1  0
 20 21  2  0
 21 22  1  0
 22 23  2  0
 23 24  1  0
 24 25  2  0
 25 26  1  0
 25 27  1  0
 27 28  2  0
 28 29  1  0
 29 30  2  0
 12  7  1  0
 19 13  1  0
 30 20  1  0
 29 23  1  0
  3 31  1  0
  4 32  1  0
  4 33  1  0
  8 34  1  0
  8 35  1  0
  9 36  1  0
  9 37  1  0
 10 38  1  0
 10 39  1  0
 11 40  1  0
 11 41  1  0
 12 42  1  6
 14 43  1  0
 15 44  1  0
 16 45  1  0
 19 46  1  0
 21 47  1  0
 22 48  1  0
 24 49  1  0
 27 50  1  0
 28 51  1  0
M  END
>  <smiles>  (19) 
O=C(NCC(=O)N1CCCCC1c1cccc(F)c1)c1ccc2cc(F)ccc2n1

>  <score_type>  (19) 
oracle

>  <origin>  (19) 
autodockgpu

>  <m_score__min__energy>  (19) 
-9.3000000000000007

>  <m_primary>  (19) 
energy

>  <rmsd>  (19) 
2.0195699476486766

>  <m_score__min__rmsd>  (19) 
2.0195699476486766

>  <meeko>  (19) 
{"free_energy": -9.25, "intermolecular_energy": -10.74, "internal_energy": -1.51, "cluster_size": 30, "cluster_id": 1, "rank_in_cluster": 8}

>  <energy>  (19) 
-9.13

>  <cluster_rmsd>  (19) 
0.94

>  <cluster>  (19) 
1

$$$$

     RDKit          3D

 51 54  0  0  0  0  0  0  0  0999 V2000
  140.9320   74.0850  220.4520 O   0  0  0  0  0  0  0  0  0  0  0  0
  140.2890   74.7990  221.2850 C   0  0  0  0  0  0  0  0  0  0  0  0
  139.2360   74.2230  222.0620 N   0  0  0  0  0  0  0  0  0  0  0  0
  138.9540   72.8060  221.8470 C   0  0  0  0  0  0  0  0  0  0  0  0
  139.7180   71.9680  222.8260 C   0  0  0  0  0  0  0  0  0  0  0  0
  140.9700   72.1090  222.8450 O   0  0  0  0  0  0  0  0  0  0  0  0
  139.0230   71.0660  223.6830 N   0  0  0  0  0  0  0  0  0  0  0  0
  137.5990   71.2170  223.9090 C   0  0  0  0  0  0  0  0  0  0  0  0
  136.8900   69.8930  224.0170 C   0  0  0  0  0  0  0  0  0  0  0  0
  137.6700   68.9000  224.8480 C   0  0  0  0  0  0  0  0  0  0  0  0
  139.0210   68.7330  224.2160 C   0  0  0  0  0  0  0  0  0  0  0  0
  139.8110   70.0080  224.3020 C   0  0  2  0  0  0  0  0  0  0  0  0
  140.2510   70.3080  225.6650 C   0  0  0  0  0  0  0  0  0  0  0  0
  140.1240   69.4000  226.7110 C   0  0  0  0  0  0  0  0  0  0  0  0
  140.5350   69.6820  227.9950 C   0  0  0  0  0  0  0  0  0  0  0  0
  141.0960   70.8910  228.3050 C   0  0  0  0  0  0  0  0  0  0  0  0
  141.2340   71.8090  227.2860 C   0  0  0  0  0  0  0  0  0  0  0  0
  141.7960   73.0150  227.5990 F   0  0  0  0  0  0  0  0  0  0  0  0
  140.8170   71.5230  225.9830 C   0  0  0  0  0  0  0  0  0  0  0  0
  140.6060   76.2160  221.4680 C   0  0  0  0  0  0  0  0  0  0  0  0
  140.4380   77.0960  220.4180 C   0  0  0  0  0  0  0  0  0  0  0  0
  140.7230   78.4520  220.5340 C   0  0  0  0  0  0  0  0  0  0  0  0
  141.1850   78.9020  221.7430 C   0  0  0  0  0  0  0  0  0  0  0  0
  141.4780   80.2550  221.8850 C   0  0  0  0  0  0  0  0  0  0  0  0
  141.9410   80.6590  223.1210 C   0  0  0  0  0  0  0  0  0  0  0  0
  142.2240   81.9910  223.2440 F   0  0  0  0  0  0  0  0  0  0  0  0
  142.1060   79.7760  224.1640 C   0  0  0  0  0  0  0  0  0  0  0  0
  141.8190   78.4430  224.0270 C   0  0  0  0  0  0  0  0  0  0  0  0
  141.3550   78.0170  222.7980 C   0  0  0  0  0  0  0  0  0  0  0  0
  141.0680   76.6940  222.6600 N   0  0  0  0  0  0  0  0  0  0  0  0
  138.7310   74.8170  222.7260 H   0  0  0  0  0  0  0  0  0  0  0  0
  137.8768   72.6265  221.9791 H   0  0  0  0  0  0  0  0  0  0  0  0
  139.2601   72.5317  220.8267 H   0  0  0  0  0  0  0  0  0  0  0  0
  137.4473   71.7760  224.8442 H   0  0  0  0  0  0  0  0  0  0  0  0
  137.1779   71.7528  223.0455 H   0  0  0  0  0  0  0  0  0  0  0  0
  135.9073   70.0533  224.4846 H   0  0  0  0  0  0  0  0  0  0  0  0
  136.7850   69.4797  223.0030 H   0  0  0  0  0  0  0  0  0  0  0  0
  137.7816   69.2777  225.8751 H   0  0  0  0  0  0  0  0  0  0  0  0
  137.1430   67.9353  224.8883 H   0  0  0  0  0  0  0  0  0  0  0  0
  139.5675   67.9341  224.7386 H   0  0  0  0  0  0  0  0  0  0  0  0
  138.8848   68.4732  223.1558 H   0  0  0  0  0  0  0  0  0  0  0  0
  140.7557   69.9064  223.7477 H   0  0  0  0  0  0  0  0  0  0  0  0
  139.6770   68.4164  226.5043 H   0  0  0  0  0  0  0  0  0  0  0  0
  140.4105   68.9243  228.7827 H   0  0  0  0  0  0  0  0  0  0  0  0
  141.4246   71.1217  229.3291 H   0  0  0  0  0  0  0  0  0  0  0  0
  140.9431   72.2821  225.1970 H   0  0  0  0  0  0  0  0  0  0  0  0
  140.0660   76.7115  219.4568 H   0  0  0  0  0  0  0  0  0  0  0  0
  140.5827   79.1385  219.6861 H   0  0  0  0  0  0  0  0  0  0  0  0
  141.3474   80.9655  221.0555 H   0  0  0  0  0  0  0  0  0  0  0  0
  142.4769   80.1491  225.1301 H   0  0  0  0  0  0  0  0  0  0  0  0
  141.9529   77.7403  224.8627 H   0  0  0  0  0  0  0  0  0  0  0  0
  1  2  2  0
  2  3  1  0
  3  4  1  0
  4  5  1  0
  5  6  2  0
  5  7  1  0
  7  8  1  0
  8  9  1  0
  9 10  1  0
 10 11  1  0
 11 12  1  0
 12 13  1  0
 13 14  2  0
 14 15  1  0
 15 16  2  0
 16 17  1  0
 17 18  1  0
 17 19  2  0
  2 20  1  0
 20 21  2  0
 21 22  1  0
 22 23  2  0
 23 24  1  0
 24 25  2  0
 25 26  1  0
 25 27  1  0
 27 28  2  0
 28 29  1  0
 29 30  2  0
 12  7  1  0
 19 13  1  0
 30 20  1  0
 29 23  1  0
  3 31  1  0
  4 32  1  0
  4 33  1  0
  8 34  1  0
  8 35  1  0
  9 36  1  0
  9 37  1  0
 10 38  1  0
 10 39  1  0
 11 40  1  0
 11 41  1  0
 12 42  1  6
 14 43  1  0
 15 44  1  0
 16 45  1  0
 19 46  1  0
 21 47  1  0
 22 48  1  0
 24 49  1  0
 27 50  1  0
 28 51  1  0
M  END
>  <smiles>  (20) 
O=C(NCC(=O)N1CCCCC1c1cccc(F)c1)c1ccc2cc(F)ccc2n1

>  <score_type>  (20) 
oracle

>  <origin>  (20) 
autodockgpu

>  <m_score__min__energy>  (20) 
-9.3000000000000007

>  <m_primary>  (20) 
energy

>  <rmsd>  (20) 
8.598837571748506

>  <m_score__min__rmsd>  (20) 
8.598837571748506

>  <meeko>  (20) 
{"free_energy": -9.0, "intermolecular_energy": -10.49, "internal_energy": -1.28, "cluster_size": 12, "cluster_id": 2, "rank_in_cluster": 1}

>  <energy>  (20) 
-9.09

>  <cluster_rmsd>  (20) 
0.69

>  <cluster>  (20) 
1

$$$$

     RDKit          3D

 51 54  0  0  0  0  0  0  0  0999 V2000
  141.0660   71.8580  221.3010 O   0  0  0  0  0  0  0  0  0  0  0  0
  140.4670   72.3190  222.3240 C   0  0  0  0  0  0  0  0  0  0  0  0
  139.9890   73.6670  222.3300 N   0  0  0  0  0  0  0  0  0  0  0  0
  140.2240   74.4570  221.1240 C   0  0  0  0  0  0  0  0  0  0  0  0
  140.1460   75.9210  221.4380 C   0  0  0  0  0  0  0  0  0  0  0  0
  139.3250   76.2720  222.3260 O   0  0  0  0  0  0  0  0  0  0  0  0
  140.9820   76.8410  220.7420 N   0  0  0  0  0  0  0  0  0  0  0  0
  142.2190   76.3940  220.1320 C   0  0  0  0  0  0  0  0  0  0  0  0
  142.4980   77.0850  218.8240 C   0  0  0  0  0  0  0  0  0  0  0  0
  142.1980   78.5640  218.8900 C   0  0  0  0  0  0  0  0  0  0  0  0
  140.7580   78.7240  219.2820 C   0  0  0  0  0  0  0  0  0  0  0  0
  140.5290   78.2250  220.6810 C   0  0  2  0  0  0  0  0  0  0  0  0
  141.1230   79.0950  221.6950 C   0  0  0  0  0  0  0  0  0  0  0  0
  141.6380   78.6090  222.8930 C   0  0  0  0  0  0  0  0  0  0  0  0
  142.1940   79.4290  223.8500 C   0  0  0  0  0  0  0  0  0  0  0  0
  142.2660   80.7820  223.6630 C   0  0  0  0  0  0  0  0  0  0  0  0
  141.7630   81.2900  222.4840 C   0  0  0  0  0  0  0  0  0  0  0  0
  141.8370   82.6420  222.3000 F   0  0  0  0  0  0  0  0  0  0  0  0
  141.1980   80.4590  221.5120 C   0  0  0  0  0  0  0  0  0  0  0  0
  140.2540   71.4900  223.5110 C   0  0  0  0  0  0  0  0  0  0  0  0
  139.5940   70.2830  223.3920 C   0  0  0  0  0  0  0  0  0  0  0  0
  139.3640   69.4530  224.4840 C   0  0  0  0  0  0  0  0  0  0  0  0
  139.8170   69.8740  225.7070 C   0  0  0  0  0  0  0  0  0  0  0  0
  139.5990   69.0620  226.8160 C   0  0  0  0  0  0  0  0  0  0  0  0
  140.0740   69.5290  228.0240 C   0  0  0  0  0  0  0  0  0  0  0  0
  139.8510   68.7200  229.1040 F   0  0  0  0  0  0  0  0  0  0  0  0
  140.7310   70.7330  228.1360 C   0  0  0  0  0  0  0  0  0  0  0  0
  140.9470   71.5350  227.0460 C   0  0  0  0  0  0  0  0  0  0  0  0
  140.4800   71.0870  225.8260 C   0  0  0  0  0  0  0  0  0  0  0  0
  140.6940   71.8810  224.7410 N   0  0  0  0  0  0  0  0  0  0  0  0
  139.5100   74.0170  223.1650 H   0  0  0  0  0  0  0  0  0  0  0  0
  141.2227   74.2238  220.7262 H   0  0  0  0  0  0  0  0  0  0  0  0
  139.4543   74.2093  220.3782 H   0  0  0  0  0  0  0  0  0  0  0  0
  143.0486   76.6003  220.8242 H   0  0  0  0  0  0  0  0  0  0  0  0
  142.1216   75.3175  219.9278 H   0  0  0  0  0  0  0  0  0  0  0  0
  143.5596   76.9490  218.5699 H   0  0  0  0  0  0  0  0  0  0  0  0
  141.8454   76.6398  218.0586 H   0  0  0  0  0  0  0  0  0  0  0  0
  142.8451   79.0438  219.6390 H   0  0  0  0  0  0  0  0  0  0  0  0
  142.3853   79.0375  217.9149 H   0  0  0  0  0  0  0  0  0  0  0  0
  140.4857   79.7885  219.2293 H   0  0  0  0  0  0  0  0  0  0  0  0
  140.1362   78.1360  218.5909 H   0  0  0  0  0  0  0  0  0  0  0  0
  139.4562   78.2528  220.9223 H   0  0  0  0  0  0  0  0  0  0  0  0
  141.5995   77.5263  223.0834 H   0  0  0  0  0  0  0  0  0  0  0  0
  142.5861   78.9890  224.7788 H   0  0  0  0  0  0  0  0  0  0  0  0
  142.7088   81.4404  224.4249 H   0  0  0  0  0  0  0  0  0  0  0  0
  140.8062   80.9018  220.5844 H   0  0  0  0  0  0  0  0  0  0  0  0
  139.2382   69.9673  222.4002 H   0  0  0  0  0  0  0  0  0  0  0  0
  138.8378   68.4938  224.3702 H   0  0  0  0  0  0  0  0  0  0  0  0
  139.0753   68.0982  226.7336 H   0  0  0  0  0  0  0  0  0  0  0  0
  141.0910   71.0591  229.1230 H   0  0  0  0  0  0  0  0  0  0  0  0
  141.4715   72.4974  227.1391 H   0  0  0  0  0  0  0  0  0  0  0  0
  1  2  2  0
  2  3  1  0
  3  4  1  0
  4  5  1  0
  5  6  2  0
  5  7  1  0
  7  8  1  0
  8  9  1  0
  9 10  1  0
 10 11  1  0
 11 12  1  0
 12 13  1  0
 13 14  2  0
 14 15  1  0
 15 16  2  0
 16 17  1  0
 17 18  1  0
 17 19  2  0
  2 20  1  0
 20 21  2  0
 21 22  1  0
 22 23  2  0
 23 24  1  0
 24 25  2  0
 25 26  1  0
 25 27  1  0
 27 28  2  0
 28 29  1  0
 29 30  2  0
 12  7  1  0
 19 13  1  0
 30 20  1  0
 29 23  1  0
  3 31  1  0
  4 32  1  0
  4 33  1  0
  8 34  1  0
  8 35  1  0
  9 36  1  0
  9 37  1  0
 10 38  1  0
 10 39  1  0
 11 40  1  0
 11 41  1  0
 12 42  1  1
 14 43  1  0
 15 44  1  0
 16 45  1  0
 19 46  1  0
 21 47  1  0
 22 48  1  0
 24 49  1  0
 27 50  1  0
 28 51  1  0
M  END
>  <smiles>  (21) 
O=C(NCC(=O)N1CCCCC1c1cccc(F)c1)c1ccc2cc(F)ccc2n1

>  <score_type>  (21) 
oracle

>  <origin>  (21) 
autodockgpu

>  <m_score__min__energy>  (21) 
-9.3000000000000007

>  <m_primary>  (21) 
energy

>  <rmsd>  (21) 
2.1843599738989905

>  <m_score__min__rmsd>  (21) 
2.1843599738989905

>  <meeko>  (21) 
{"free_energy": -9.13, "intermolecular_energy": -10.62, "internal_energy": -1.69, "cluster_size": 30, "cluster_id": 1, "rank_in_cluster": 18}

>  <energy>  (21) 
-9.08

>  <cluster_rmsd>  (21) 
0.94

>  <cluster>  (21) 
1

$$$$

     RDKit          3D

 51 54  0  0  0  0  0  0  0  0999 V2000
  141.0220   72.0410  221.3660 O   0  0  0  0  0  0  0  0  0  0  0  0
  140.2260   72.3220  222.3180 C   0  0  0  0  0  0  0  0  0  0  0  0
  139.3910   73.4800  222.2380 N   0  0  0  0  0  0  0  0  0  0  0  0
  139.5060   74.2970  221.0320 C   0  0  0  0  0  0  0  0  0  0  0  0
  140.7740   75.0960  221.0640 C   0  0  0  0  0  0  0  0  0  0  0  0
  141.0880   75.6270  222.1620 O   0  0  0  0  0  0  0  0  0  0  0  0
  141.5620   75.2230  219.8830 N   0  0  0  0  0  0  0  0  0  0  0  0
  140.9760   74.9810  218.5800 C   0  0  0  0  0  0  0  0  0  0  0  0
  141.5070   75.9180  217.5270 C   0  0  0  0  0  0  0  0  0  0  0  0
  143.0000   76.1110  217.6430 C   0  0  0  0  0  0  0  0  0  0  0  0
  143.2910   76.6340  219.0190 C   0  0  0  0  0  0  0  0  0  0  0  0
  142.9570   75.6050  220.0620 C   0  0  2  0  0  0  0  0  0  0  0  0
  143.8900   74.4790  220.0620 C   0  0  0  0  0  0  0  0  0  0  0  0
  143.6820   73.3320  219.3040 C   0  0  0  0  0  0  0  0  0  0  0  0
  144.5600   72.2690  219.3050 C   0  0  0  0  0  0  0  0  0  0  0  0
  145.6950   72.2950  220.0680 C   0  0  0  0  0  0  0  0  0  0  0  0
  145.9260   73.4210  220.8300 C   0  0  0  0  0  0  0  0  0  0  0  0
  147.0610   73.4450  221.5900 F   0  0  0  0  0  0  0  0  0  0  0  0
  145.0360   74.5000  220.8280 C   0  0  0  0  0  0  0  0  0  0  0  0
  140.1440   71.4740  223.5080 C   0  0  0  0  0  0  0  0  0  0  0  0
  139.5670   70.2230  223.4180 C   0  0  0  0  0  0  0  0  0  0  0  0
  139.4630   69.3740  224.5140 C   0  0  0  0  0  0  0  0  0  0  0  0
  139.9570   69.8210  225.7120 C   0  0  0  0  0  0  0  0  0  0  0  0
  139.8650   68.9900  226.8250 C   0  0  0  0  0  0  0  0  0  0  0  0
  140.3770   69.4850  228.0070 C   0  0  0  0  0  0  0  0  0  0  0  0
  140.2780   68.6580  229.0910 F   0  0  0  0  0  0  0  0  0  0  0  0
  140.9500   70.7330  228.0890 C   0  0  0  0  0  0  0  0  0  0  0  0
  141.0430   71.5540  226.9950 C   0  0  0  0  0  0  0  0  0  0  0  0
  140.5370   71.0780  225.8020 C   0  0  0  0  0  0  0  0  0  0  0  0
  140.6280   71.8900  224.7130 N   0  0  0  0  0  0  0  0  0  0  0  0
  138.7590   73.6870  223.0170 H   0  0  0  0  0  0  0  0  0  0  0  0
  139.5124   73.6414  220.1488 H   0  0  0  0  0  0  0  0  0  0  0  0
  138.6499   74.9861  220.9835 H   0  0  0  0  0  0  0  0  0  0  0  0
  141.2007   73.9473  218.2784 H   0  0  0  0  0  0  0  0  0  0  0  0
  139.8924   75.1508  218.6635 H   0  0  0  0  0  0  0  0  0  0  0  0
  141.2786   75.5028  216.5343 H   0  0  0  0  0  0  0  0  0  0  0  0
  141.0257   76.8968  217.6691 H   0  0  0  0  0  0  0  0  0  0  0  0
  143.5141   75.1504  217.4917 H   0  0  0  0  0  0  0  0  0  0  0  0
  143.3556   76.8194  216.8803 H   0  0  0  0  0  0  0  0  0  0  0  0
  144.3592   76.8866  219.0905 H   0  0  0  0  0  0  0  0  0  0  0  0
  142.6740   77.5276  219.1946 H   0  0  0  0  0  0  0  0  0  0  0  0
  143.0764   76.0329  221.0683 H   0  0  0  0  0  0  0  0  0  0  0  0
  142.7798   73.2702  218.6778 H   0  0  0  0  0  0  0  0  0  0  0  0
  144.3447   71.3874  218.6833 H   0  0  0  0  0  0  0  0  0  0  0  0
  146.3978   71.4488  220.0736 H   0  0  0  0  0  0  0  0  0  0  0  0
  145.2544   75.3813  221.4489 H   0  0  0  0  0  0  0  0  0  0  0  0
  139.1764   69.8866  222.4463 H   0  0  0  0  0  0  0  0  0  0  0  0
  139.0011   68.3798  224.4231 H   0  0  0  0  0  0  0  0  0  0  0  0
  139.4081   67.9911  226.7654 H   0  0  0  0  0  0  0  0  0  0  0  0
  141.3431   71.0806  229.0558 H   0  0  0  0  0  0  0  0  0  0  0  0
  141.5020   72.5512  227.0649 H   0  0  0  0  0  0  0  0  0  0  0  0
  1  2  2  0
  2  3  1  0
  3  4  1  0
  4  5  1  0
  5  6  2  0
  5  7  1  0
  7  8  1  0
  8  9  1  0
  9 10  1  0
 10 11  1  0
 11 12  1  0
 12 13  1  0
 13 14  2  0
 14 15  1  0
 15 16  2  0
 16 17  1  0
 17 18  1  0
 17 19  2  0
  2 20  1  0
 20 21  2  0
 21 22  1  0
 22 23  2  0
 23 24  1  0
 24 25  2  0
 25 26  1  0
 25 27  1  0
 27 28  2  0
 28 29  1  0
 29 30  2  0
 12  7  1  0
 19 13  1  0
 30 20  1  0
 29 23  1  0
  3 31  1  0
  4 32  1  0
  4 33  1  0
  8 34  1  0
  8 35  1  0
  9 36  1  0
  9 37  1  0
 10 38  1  0
 10 39  1  0
 11 40  1  0
 11 41  1  0
 12 42  1  1
 14 43  1  0
 15 44  1  0
 16 45  1  0
 19 46  1  0
 21 47  1  0
 22 48  1  0
 24 49  1  0
 27 50  1  0
 28 51  1  0
M  END
>  <smiles>  (22) 
O=C(NCC(=O)N1CCCCC1c1cccc(F)c1)c1ccc2cc(F)ccc2n1

>  <score_type>  (22) 
oracle

>  <origin>  (22) 
autodockgpu

>  <m_score__min__energy>  (22) 
-9.3000000000000007

>  <m_primary>  (22) 
energy

>  <rmsd>  (22) 
1.6843961336711444

>  <m_score__min__rmsd>  (22) 
1.6843961336711444

>  <meeko>  (22) 
{"free_energy": -8.75, "intermolecular_energy": -10.24, "internal_energy": -1.64, "cluster_size": 7, "cluster_id": 3, "rank_in_cluster": 2}

>  <energy>  (22) 
-9.08

>  <cluster_rmsd>  (22) 
0.92

>  <cluster>  (22) 
1

$$$$

     RDKit          3D

 51 54  0  0  0  0  0  0  0  0999 V2000
  140.3760   71.1320  221.4040 O   0  0  0  0  0  0  0  0  0  0  0  0
  140.1580   71.6380  222.5510 C   0  0  0  0  0  0  0  0  0  0  0  0
  139.9630   73.0480  222.6880 N   0  0  0  0  0  0  0  0  0  0  0  0
  140.0290   73.8470  221.4680 C   0  0  0  0  0  0  0  0  0  0  0  0
  139.9700   75.3080  221.7990 C   0  0  0  0  0  0  0  0  0  0  0  0
  139.1910   75.6540  222.7260 O   0  0  0  0  0  0  0  0  0  0  0  0
  140.7780   76.2320  221.0740 N   0  0  0  0  0  0  0  0  0  0  0  0
  142.0420   75.8130  220.5020 C   0  0  0  0  0  0  0  0  0  0  0  0
  142.3130   76.4570  219.1690 C   0  0  0  0  0  0  0  0  0  0  0  0
  141.9500   77.9240  219.1660 C   0  0  0  0  0  0  0  0  0  0  0  0
  140.4980   78.0390  219.5300 C   0  0  0  0  0  0  0  0  0  0  0  0
  140.2680   77.5910  220.9460 C   0  0  2  0  0  0  0  0  0  0  0  0
  140.8080   78.5290  221.9290 C   0  0  0  0  0  0  0  0  0  0  0  0
  140.0240   79.1110  222.9210 C   0  0  0  0  0  0  0  0  0  0  0  0
  140.5310   79.9970  223.8460 C   0  0  0  0  0  0  0  0  0  0  0  0
  141.8530   80.3530  223.8300 C   0  0  0  0  0  0  0  0  0  0  0  0
  142.6520   79.7900  222.8570 C   0  0  0  0  0  0  0  0  0  0  0  0
  143.9710   80.1460  222.8430 F   0  0  0  0  0  0  0  0  0  0  0  0
  142.1370   78.8910  221.9180 C   0  0  0  0  0  0  0  0  0  0  0  0
  140.1000   70.7970  223.7470 C   0  0  0  0  0  0  0  0  0  0  0  0
  139.5340   69.5410  223.6740 C   0  0  0  0  0  0  0  0  0  0  0  0
  139.4530   68.6980  224.7770 C   0  0  0  0  0  0  0  0  0  0  0  0
  139.9590   69.1580  225.9650 C   0  0  0  0  0  0  0  0  0  0  0  0
  139.8900   68.3340  227.0850 C   0  0  0  0  0  0  0  0  0  0  0  0
  140.4130   68.8420  228.2560 C   0  0  0  0  0  0  0  0  0  0  0  0
  140.3370   68.0210  229.3470 F   0  0  0  0  0  0  0  0  0  0  0  0
  140.9760   70.0960  228.3230 C   0  0  0  0  0  0  0  0  0  0  0  0
  141.0460   70.9100  227.2220 C   0  0  0  0  0  0  0  0  0  0  0  0
  140.5280   70.4210  226.0390 C   0  0  0  0  0  0  0  0  0  0  0  0
  140.5960   71.2270  224.9440 N   0  0  0  0  0  0  0  0  0  0  0  0
  139.7900   73.4330  223.6220 H   0  0  0  0  0  0  0  0  0  0  0  0
  140.9717   73.6315  220.9437 H   0  0  0  0  0  0  0  0  0  0  0  0
  139.1735   73.5908  220.8258 H   0  0  0  0  0  0  0  0  0  0  0  0
  142.8508   76.0850  221.1962 H   0  0  0  0  0  0  0  0  0  0  0  0
  141.9933   74.7255  220.3441 H   0  0  0  0  0  0  0  0  0  0  0  0
  143.3833   76.3553  218.9363 H   0  0  0  0  0  0  0  0  0  0  0  0
  141.6925   75.9514  218.4144 H   0  0  0  0  0  0  0  0  0  0  0  0
  142.5641   78.4628  219.9026 H   0  0  0  0  0  0  0  0  0  0  0  0
  142.1330   78.3628  218.1740 H   0  0  0  0  0  0  0  0  0  0  0  0
  140.1820   79.0876  219.4272 H   0  0  0  0  0  0  0  0  0  0  0  0
  139.9126   77.3961  218.8562 H   0  0  0  0  0  0  0  0  0  0  0  0
  139.1912   77.5824  221.1707 H   0  0  0  0  0  0  0  0  0  0  0  0
  138.9558   78.8529  222.9683 H   0  0  0  0  0  0  0  0  0  0  0  0
  139.8639   80.4248  224.6088 H   0  0  0  0  0  0  0  0  0  0  0  0
  142.2623   81.0613  224.5654 H   0  0  0  0  0  0  0  0  0  0  0  0
  142.8060   78.4647  221.1559 H   0  0  0  0  0  0  0  0  0  0  0  0
  139.1330   69.1944  222.7101 H   0  0  0  0  0  0  0  0  0  0  0  0
  138.9996   67.6988  224.6990 H   0  0  0  0  0  0  0  0  0  0  0  0
  139.4419   67.3305  227.0386 H   0  0  0  0  0  0  0  0  0  0  0  0
  141.3791   70.4535  229.2820 H   0  0  0  0  0  0  0  0  0  0  0  0
  141.4965   71.9119  227.2787 H   0  0  0  0  0  0  0  0  0  0  0  0
  1  2  2  0
  2  3  1  0
  3  4  1  0
  4  5  1  0
  5  6  2  0
  5  7  1  0
  7  8  1  0
  8  9  1  0
  9 10  1  0
 10 11  1  0
 11 12  1  0
 12 13  1  0
 13 14  2  0
 14 15  1  0
 15 16  2  0
 16 17  1  0
 17 18  1  0
 17 19  2  0
  2 20  1  0
 20 21  2  0
 21 22  1  0
 22 23  2  0
 23 24  1  0
 24 25  2  0
 25 26  1  0
 25 27  1  0
 27 28  2  0
 28 29  1  0
 29 30  2  0
 12  7  1  0
 19 13  1  0
 30 20  1  0
 29 23  1  0
  3 31  1  0
  4 32  1  0
  4 33  1  0
  8 34  1  0
  8 35  1  0
  9 36  1  0
  9 37  1  0
 10 38  1  0
 10 39  1  0
 11 40  1  0
 11 41  1  0
 12 42  1  1
 14 43  1  0
 15 44  1  0
 16 45  1  0
 19 46  1  0
 21 47  1  0
 22 48  1  0
 24 49  1  0
 27 50  1  0
 28 51  1  0
M  END
>  <smiles>  (23) 
O=C(NCC(=O)N1CCCCC1c1cccc(F)c1)c1ccc2cc(F)ccc2n1

>  <score_type>  (23) 
oracle

>  <origin>  (23) 
autodockgpu

>  <m_score__min__energy>  (23) 
-9.3000000000000007

>  <m_primary>  (23) 
energy

>  <rmsd>  (23) 
1.9953398297856273

>  <m_score__min__rmsd>  (23) 
1.9953398297856273

>  <meeko>  (23) 
{"free_energy": -8.83, "intermolecular_energy": -10.33, "internal_energy": -1.46, "cluster_size": 30, "cluster_id": 1, "rank_in_cluster": 28}

>  <energy>  (23) 
-9.06

>  <cluster_rmsd>  (23) 
0.68

>  <cluster>  (23) 
1

$$$$

     RDKit          3D

 51 54  0  0  0  0  0  0  0  0999 V2000
  140.9650   73.8960  220.2710 O   0  0  0  0  0  0  0  0  0  0  0  0
  140.4340   74.6480  221.1490 C   0  0  0  0  0  0  0  0  0  0  0  0
  139.4130   74.1370  222.0100 N   0  0  0  0  0  0  0  0  0  0  0  0
  139.0300   72.7390  221.8250 C   0  0  0  0  0  0  0  0  0  0  0  0
  139.7400   71.8700  222.8180 C   0  0  0  0  0  0  0  0  0  0  0  0
  140.9980   71.9240  222.8300 O   0  0  0  0  0  0  0  0  0  0  0  0
  138.9880   71.0330  223.6940 N   0  0  0  0  0  0  0  0  0  0  0  0
  137.5720   71.2670  223.8970 C   0  0  0  0  0  0  0  0  0  0  0  0
  136.7920   69.9870  224.0380 C   0  0  0  0  0  0  0  0  0  0  0  0
  137.5080   68.9800  224.9080 C   0  0  0  0  0  0  0  0  0  0  0  0
  138.8550   68.7220  224.2980 C   0  0  0  0  0  0  0  0  0  0  0  0
  139.7110   69.9550  224.3550 C   0  0  2  0  0  0  0  0  0  0  0  0
  140.1520   70.2730  225.7130 C   0  0  0  0  0  0  0  0  0  0  0  0
  140.0250   69.3800  226.7710 C   0  0  0  0  0  0  0  0  0  0  0  0
  140.4370   69.6800  228.0510 C   0  0  0  0  0  0  0  0  0  0  0  0
  141.0000   70.8920  228.3440 C   0  0  0  0  0  0  0  0  0  0  0  0
  141.1380   71.7960  227.3120 C   0  0  0  0  0  0  0  0  0  0  0  0
  141.7010   73.0060  227.6070 F   0  0  0  0  0  0  0  0  0  0  0  0
  140.7200   71.4920  226.0130 C   0  0  0  0  0  0  0  0  0  0  0  0
  140.8500   76.0430  221.2980 C   0  0  0  0  0  0  0  0  0  0  0  0
  141.5010   76.6770  220.2600 C   0  0  0  0  0  0  0  0  0  0  0  0
  141.9190   78.0010  220.3440 C   0  0  0  0  0  0  0  0  0  0  0  0
  141.6630   78.6730  221.5110 C   0  0  0  0  0  0  0  0  0  0  0  0
  142.0710   79.9990  221.6220 C   0  0  0  0  0  0  0  0  0  0  0  0
  141.7910   80.6320  222.8150 C   0  0  0  0  0  0  0  0  0  0  0  0
  142.1990   81.9340  222.9080 F   0  0  0  0  0  0  0  0  0  0  0  0
  141.1410   79.9940  223.8470 C   0  0  0  0  0  0  0  0  0  0  0  0
  140.7380   78.6880  223.7410 C   0  0  0  0  0  0  0  0  0  0  0  0
  141.0090   78.0350  222.5550 C   0  0  0  0  0  0  0  0  0  0  0  0
  140.6090   76.7390  222.4470 N   0  0  0  0  0  0  0  0  0  0  0  0
  138.9990   74.7610  222.7090 H   0  0  0  0  0  0  0  0  0  0  0  0
  137.9437   72.6385  221.9661 H   0  0  0  0  0  0  0  0  0  0  0  0
  139.3086   72.4229  220.8089 H   0  0  0  0  0  0  0  0  0  0  0  0
  137.4403   71.8633  224.8119 H   0  0  0  0  0  0  0  0  0  0  0  0
  137.1898   71.7963  223.0117 H   0  0  0  0  0  0  0  0  0  0  0  0
  135.8148   70.2146  224.4889 H   0  0  0  0  0  0  0  0  0  0  0  0
  136.6757   69.5482  223.0360 H   0  0  0  0  0  0  0  0  0  0  0  0
  137.6285   69.3825  225.9246 H   0  0  0  0  0  0  0  0  0  0  0  0
  136.9295   68.0465  224.9709 H   0  0  0  0  0  0  0  0  0  0  0  0
  139.3523   67.9118  224.8513 H   0  0  0  0  0  0  0  0  0  0  0  0
  138.7165   68.4372  223.2446 H   0  0  0  0  0  0  0  0  0  0  0  0
  140.6550   69.7864  223.8160 H   0  0  0  0  0  0  0  0  0  0  0  0
  139.5774   68.3938  226.5783 H   0  0  0  0  0  0  0  0  0  0  0  0
  140.3114   68.9338  228.8494 H   0  0  0  0  0  0  0  0  0  0  0  0
  141.3302   71.1361  229.3645 H   0  0  0  0  0  0  0  0  0  0  0  0
  140.8469   72.2395  225.2160 H   0  0  0  0  0  0  0  0  0  0  0  0
  141.6962   76.1162  219.3341 H   0  0  0  0  0  0  0  0  0  0  0  0
  142.4357   78.4905  219.5053 H   0  0  0  0  0  0  0  0  0  0  0  0
  142.5898   80.5154  220.8009 H   0  0  0  0  0  0  0  0  0  0  0  0
  140.9404   80.5446  224.7779 H   0  0  0  0  0  0  0  0  0  0  0  0
  140.2194   78.1805  224.5678 H   0  0  0  0  0  0  0  0  0  0  0  0
  1  2  2  0
  2  3  1  0
  3  4  1  0
  4  5  1  0
  5  6  2  0
  5  7  1  0
  7  8  1  0
  8  9  1  0
  9 10  1  0
 10 11  1  0
 11 12  1  0
 12 13  1  0
 13 14  2  0
 14 15  1  0
 15 16  2  0
 16 17  1  0
 17 18  1  0
 17 19  2  0
  2 20  1  0
 20 21  2  0
 21 22  1  0
 22 23  2  0
 23 24  1  0
 24 25  2  0
 25 26  1  0
 25 27  1  0
 27 28  2  0
 28 29  1  0
 29 30  2  0
 12  7  1  0
 19 13  1  0
 30 20  1  0
 29 23  1  0
  3 31  1  0
  4 32  1  0
  4 33  1  0
  8 34  1  0
  8 35  1  0
  9 36  1  0
  9 37  1  0
 10 38  1  0
 10 39  1  0
 11 40  1  0
 11 41  1  0
 12 42  1  6
 14 43  1  0
 15 44  1  0
 16 45  1  0
 19 46  1  0
 21 47  1  0
 22 48  1  0
 24 49  1  0
 27 50  1  0
 28 51  1  0
M  END
>  <smiles>  (24) 
O=C(NCC(=O)N1CCCCC1c1cccc(F)c1)c1ccc2cc(F)ccc2n1

>  <score_type>  (24) 
oracle

>  <origin>  (24) 
autodockgpu

>  <m_score__min__energy>  (24) 
-9.3000000000000007

>  <m_primary>  (24) 
energy

>  <rmsd>  (24) 
8.637452882742835

>  <m_score__min__rmsd>  (24) 
8.637452882742835

>  <meeko>  (24) 
{"free_energy": -8.94, "intermolecular_energy": -10.43, "internal_energy": -1.49, "cluster_size": 12, "cluster_id": 2, "rank_in_cluster": 4}

>  <energy>  (24) 
-9.05

>  <cluster_rmsd>  (24) 
0.68

>  <cluster>  (24) 
1

$$$$

     RDKit          3D

 51 54  0  0  0  0  0  0  0  0999 V2000
  139.3240   71.2670  221.1110 O   0  0  0  0  0  0  0  0  0  0  0  0
  139.4380   71.8280  222.2470 C   0  0  0  0  0  0  0  0  0  0  0  0
  139.4120   73.2540  222.3500 N   0  0  0  0  0  0  0  0  0  0  0  0
  139.2500   74.0050  221.1070 C   0  0  0  0  0  0  0  0  0  0  0  0
  139.6110   75.4440  221.3170 C   0  0  0  0  0  0  0  0  0  0  0  0
  138.7640   76.1650  221.9080 O   0  0  0  0  0  0  0  0  0  0  0  0
  140.8660   75.9360  220.8560 N   0  0  0  0  0  0  0  0  0  0  0  0
  142.0430   75.0900  220.8860 C   0  0  0  0  0  0  0  0  0  0  0  0
  142.9380   75.3060  219.6950 C   0  0  0  0  0  0  0  0  0  0  0  0
  143.0890   76.7720  219.3600 C   0  0  0  0  0  0  0  0  0  0  0  0
  141.7190   77.3290  219.1070 C   0  0  0  0  0  0  0  0  0  0  0  0
  140.8940   77.3070  220.3630 C   0  0  2  0  0  0  0  0  0  0  0  0
  141.3430   78.2890  221.3490 C   0  0  0  0  0  0  0  0  0  0  0  0
  141.7900   79.5580  220.9950 C   0  0  0  0  0  0  0  0  0  0  0  0
  142.2150   80.4830  221.9230 C   0  0  0  0  0  0  0  0  0  0  0  0
  142.2190   80.1900  223.2600 C   0  0  0  0  0  0  0  0  0  0  0  0
  141.7800   78.9380  223.6380 C   0  0  0  0  0  0  0  0  0  0  0  0
  141.7830   78.6480  224.9730 F   0  0  0  0  0  0  0  0  0  0  0  0
  141.3480   77.9990  222.6960 C   0  0  0  0  0  0  0  0  0  0  0  0
  139.5980   71.0360  223.4670 C   0  0  0  0  0  0  0  0  0  0  0  0
  139.1990   69.7150  223.4810 C   0  0  0  0  0  0  0  0  0  0  0  0
  139.3270   68.9140  224.6110 C   0  0  0  0  0  0  0  0  0  0  0  0
  139.8720   69.4810  225.7330 C   0  0  0  0  0  0  0  0  0  0  0  0
  140.0110   68.7010  226.8760 C   0  0  0  0  0  0  0  0  0  0  0  0
  140.5650   69.3180  227.9800 C   0  0  0  0  0  0  0  0  0  0  0  0
  140.6940   68.5380  229.0950 F   0  0  0  0  0  0  0  0  0  0  0  0
  140.9610   70.6360  227.9580 C   0  0  0  0  0  0  0  0  0  0  0  0
  140.8250   71.4070  226.8330 C   0  0  0  0  0  0  0  0  0  0  0  0
  140.2740   70.8100  225.7180 C   0  0  0  0  0  0  0  0  0  0  0  0
  140.1380   71.5730  224.5990 N   0  0  0  0  0  0  0  0  0  0  0  0
  139.5070   73.6840  223.2750 H   0  0  0  0  0  0  0  0  0  0  0  0
  139.9059   73.5754  220.3355 H   0  0  0  0  0  0  0  0  0  0  0  0
  138.1996   73.9431  220.7863 H   0  0  0  0  0  0  0  0  0  0  0  0
  142.6131   75.3108  221.8005 H   0  0  0  0  0  0  0  0  0  0  0  0
  141.7036   74.0439  220.8640 H   0  0  0  0  0  0  0  0  0  0  0  0
  143.9311   74.8880  219.9164 H   0  0  0  0  0  0  0  0  0  0  0  0
  142.4797   74.8047  218.8297 H   0  0  0  0  0  0  0  0  0  0  0  0
  143.5585   77.3017  220.2020 H   0  0  0  0  0  0  0  0  0  0  0  0
  143.7252   76.8992  218.4717 H   0  0  0  0  0  0  0  0  0  0  0  0
  141.8111   78.3668  218.7541 H   0  0  0  0  0  0  0  0  0  0  0  0
  141.2210   76.7090  218.3470 H   0  0  0  0  0  0  0  0  0  0  0  0
  139.8625   77.6209  220.1450 H   0  0  0  0  0  0  0  0  0  0  0  0
  141.8046   79.8340  219.9303 H   0  0  0  0  0  0  0  0  0  0  0  0
  142.5564   81.4723  221.5844 H   0  0  0  0  0  0  0  0  0  0  0  0
  142.5592   80.9247  224.0046 H   0  0  0  0  0  0  0  0  0  0  0  0
  141.0059   77.0106  223.0367 H   0  0  0  0  0  0  0  0  0  0  0  0
  138.7653   69.2810  222.5681 H   0  0  0  0  0  0  0  0  0  0  0  0
  139.0023   67.8630  224.6041 H   0  0  0  0  0  0  0  0  0  0  0  0
  139.6960   67.6473  226.8993 H   0  0  0  0  0  0  0  0  0  0  0  0
  141.3969   71.0810  228.8646 H   0  0  0  0  0  0  0  0  0  0  0  0
  141.1426   72.4601  226.8197 H   0  0  0  0  0  0  0  0  0  0  0  0
  1  2  2  0
  2  3  1  0
  3  4  1  0
  4  5  1  0
  5  6  2  0
  5  7  1  0
  7  8  1  0
  8  9  1  0
  9 10  1  0
 10 11  1  0
 11 12  1  0
 12 13  1  0
 13 14  2  0
 14 15  1  0
 15 16  2  0
 16 17  1  0
 17 18  1  0
 17 19  2  0
  2 20  1  0
 20 21  2  0
 21 22  1  0
 22 23  2  0
 23 24  1  0
 24 25  2  0
 25 26  1  0
 25 27  1  0
 27 28  2  0
 28 29  1  0
 29 30  2  0
 12  7  1  0
 19 13  1  0
 30 20  1  0
 29 23  1  0
  3 31  1  0
  4 32  1  0
  4 33  1  0
  8 34  1  0
  8 35  1  0
  9 36  1  0
  9 37  1  0
 10 38  1  0
 10 39  1  0
 11 40  1  0
 11 41  1  0
 12 42  1  6
 14 43  1  0
 15 44  1  0
 16 45  1  0
 19 46  1  0
 21 47  1  0
 22 48  1  0
 24 49  1  0
 27 50  1  0
 28 51  1  0
M  END
>  <smiles>  (25) 
O=C(NCC(=O)N1CCCCC1c1cccc(F)c1)c1ccc2cc(F)ccc2n1

>  <score_type>  (25) 
oracle

>  <origin>  (25) 
autodockgpu

>  <m_score__min__energy>  (25) 
-9.3000000000000007

>  <m_primary>  (25) 
energy

>  <rmsd>  (25) 
1.8982754807204056

>  <m_score__min__rmsd>  (25) 
1.8982754807204056

>  <meeko>  (25) 
{"free_energy": -8.9, "intermolecular_energy": -10.39, "internal_energy": -1.59, "cluster_size": 30, "cluster_id": 1, "rank_in_cluster": 27}

>  <energy>  (25) 
-9.05

>  <cluster_rmsd>  (25) 
0.83

>  <cluster>  (25) 
1

$$$$

     RDKit          3D

 51 54  0  0  0  0  0  0  0  0999 V2000
  141.2820   71.7170  221.6260 O   0  0  0  0  0  0  0  0  0  0  0  0
  140.4090   72.0280  222.4960 C   0  0  0  0  0  0  0  0  0  0  0  0
  139.5900   73.1850  222.3110 N   0  0  0  0  0  0  0  0  0  0  0  0
  139.8110   73.9650  221.0960 C   0  0  0  0  0  0  0  0  0  0  0  0
  139.9700   75.4170  221.4310 C   0  0  0  0  0  0  0  0  0  0  0  0
  139.1910   75.8920  222.2990 O   0  0  0  0  0  0  0  0  0  0  0  0
  140.9720   76.1910  220.7760 N   0  0  0  0  0  0  0  0  0  0  0  0
  142.2120   75.5760  220.3480 C   0  0  0  0  0  0  0  0  0  0  0  0
  142.7060   76.1280  219.0370 C   0  0  0  0  0  0  0  0  0  0  0  0
  142.5610   77.6300  218.9650 C   0  0  0  0  0  0  0  0  0  0  0  0
  141.1130   77.9630  219.1740 C   0  0  0  0  0  0  0  0  0  0  0  0
  140.6790   77.6030  220.5670 C   0  0  2  0  0  0  0  0  0  0  0  0
  141.2490   78.4890  221.5820 C   0  0  0  0  0  0  0  0  0  0  0  0
  141.8090   79.7240  221.2710 C   0  0  0  0  0  0  0  0  0  0  0  0
  142.3480   80.5580  222.2250 C   0  0  0  0  0  0  0  0  0  0  0  0
  142.3580   80.2030  223.5470 C   0  0  0  0  0  0  0  0  0  0  0  0
  141.8080   78.9840  223.8830 C   0  0  0  0  0  0  0  0  0  0  0  0
  141.8190   78.6310  225.2030 F   0  0  0  0  0  0  0  0  0  0  0  0
  141.2610   78.1370  222.9140 C   0  0  0  0  0  0  0  0  0  0  0  0
  140.2210   71.2160  223.7000 C   0  0  0  0  0  0  0  0  0  0  0  0
  139.5430   70.0170  223.6170 C   0  0  0  0  0  0  0  0  0  0  0  0
  139.3360   69.2040  224.7260 C   0  0  0  0  0  0  0  0  0  0  0  0
  139.8320   69.6340  225.9290 C   0  0  0  0  0  0  0  0  0  0  0  0
  139.6380   68.8390  227.0540 C   0  0  0  0  0  0  0  0  0  0  0  0
  140.1560   69.3150  228.2420 C   0  0  0  0  0  0  0  0  0  0  0  0
  139.9560   68.5220  229.3380 F   0  0  0  0  0  0  0  0  0  0  0  0
  140.8310   70.5110  228.3170 C   0  0  0  0  0  0  0  0  0  0  0  0
  141.0240   71.2970  227.2110 C   0  0  0  0  0  0  0  0  0  0  0  0
  140.5140   70.8400  226.0120 C   0  0  0  0  0  0  0  0  0  0  0  0
  140.7040   71.6170  224.9110 N   0  0  0  0  0  0  0  0  0  0  0  0
  138.8930   73.4160  223.0260 H   0  0  0  0  0  0  0  0  0  0  0  0
  140.7225   73.6063  220.5954 H   0  0  0  0  0  0  0  0  0  0  0  0
  138.9431   73.8445  220.4309 H   0  0  0  0  0  0  0  0  0  0  0  0
  142.9781   75.7541  221.1170 H   0  0  0  0  0  0  0  0  0  0  0  0
  142.0219   74.5016  220.2083 H   0  0  0  0  0  0  0  0  0  0  0  0
  143.7683   75.8677  218.9197 H   0  0  0  0  0  0  0  0  0  0  0  0
  142.0977   75.6889  218.2326 H   0  0  0  0  0  0  0  0  0  0  0  0
  143.1704   78.1025  219.7495 H   0  0  0  0  0  0  0  0  0  0  0  0
  142.9030   78.0020  217.9880 H   0  0  0  0  0  0  0  0  0  0  0  0
  140.9646   79.0416  219.0173 H   0  0  0  0  0  0  0  0  0  0  0  0
  140.5111   77.3859  218.4566 H   0  0  0  0  0  0  0  0  0  0  0  0
  139.5953   77.7556  220.6775 H   0  0  0  0  0  0  0  0  0  0  0  0
  141.8217   80.0476  220.2197 H   0  0  0  0  0  0  0  0  0  0  0  0
  142.7770   81.5240  221.9202 H   0  0  0  0  0  0  0  0  0  0  0  0
  142.7886   80.8653  224.3125 H   0  0  0  0  0  0  0  0  0  0  0  0
  140.8323   77.1716  223.2210 H   0  0  0  0  0  0  0  0  0  0  0  0
  139.1531   69.6934  222.6406 H   0  0  0  0  0  0  0  0  0  0  0  0
  138.7940   68.2506  224.6408 H   0  0  0  0  0  0  0  0  0  0  0  0
  139.1000   67.8811  226.9999 H   0  0  0  0  0  0  0  0  0  0  0  0
  141.2254   70.8447  229.2881 H   0  0  0  0  0  0  0  0  0  0  0  0
  141.5635   72.2534  227.2759 H   0  0  0  0  0  0  0  0  0  0  0  0
  1  2  2  0
  2  3  1  0
  3  4  1  0
  4  5  1  0
  5  6  2  0
  5  7  1  0
  7  8  1  0
  8  9  1  0
  9 10  1  0
 10 11  1  0
 11 12  1  0
 12 13  1  0
 13 14  2  0
 14 15  1  0
 15 16  2  0
 16 17  1  0
 17 18  1  0
 17 19  2  0
  2 20  1  0
 20 21  2  0
 21 22  1  0
 22 23  2  0
 23 24  1  0
 24 25  2  0
 25 26  1  0
 25 27  1  0
 27 28  2  0
 28 29  1  0
 29 30  2  0
 12  7  1  0
 19 13  1  0
 30 20  1  0
 29 23  1  0
  3 31  1  0
  4 32  1  0
  4 33  1  0
  8 34  1  0
  8 35  1  0
  9 36  1  0
  9 37  1  0
 10 38  1  0
 10 39  1  0
 11 40  1  0
 11 41  1  0
 12 42  1  6
 14 43  1  0
 15 44  1  0
 16 45  1  0
 19 46  1  0
 21 47  1  0
 22 48  1  0
 24 49  1  0
 27 50  1  0
 28 51  1  0
M  END
>  <smiles>  (26) 
O=C(NCC(=O)N1CCCCC1c1cccc(F)c1)c1ccc2cc(F)ccc2n1

>  <score_type>  (26) 
oracle

>  <origin>  (26) 
autodockgpu

>  <m_score__min__energy>  (26) 
-9.3000000000000007

>  <m_primary>  (26) 
energy

>  <rmsd>  (26) 
1.9778808402248393

>  <m_score__min__rmsd>  (26) 
1.9778808402248393

>  <meeko>  (26) 
{"free_energy": -9.13, "intermolecular_energy": -10.62, "internal_energy": -1.47, "cluster_size": 30, "cluster_id": 1, "rank_in_cluster": 19}

>  <energy>  (26) 
-8.94

>  <cluster_rmsd>  (26) 
0.85

>  <cluster>  (26) 
1

$$$$

     RDKit          3D

 51 54  0  0  0  0  0  0  0  0999 V2000
  141.1910   71.9300  221.4040 O   0  0  0  0  0  0  0  0  0  0  0  0
  140.4880   72.3430  222.3800 C   0  0  0  0  0  0  0  0  0  0  0  0
  139.9000   73.6460  222.3420 N   0  0  0  0  0  0  0  0  0  0  0  0
  140.1490   74.4490  221.1480 C   0  0  0  0  0  0  0  0  0  0  0  0
  140.1240   75.9090  221.4890 C   0  0  0  0  0  0  0  0  0  0  0  0
  139.3440   76.2680  222.4110 O   0  0  0  0  0  0  0  0  0  0  0  0
  140.9620   76.8170  220.7800 N   0  0  0  0  0  0  0  0  0  0  0  0
  142.1980   76.3590  220.1770 C   0  0  0  0  0  0  0  0  0  0  0  0
  142.4800   77.0300  218.8590 C   0  0  0  0  0  0  0  0  0  0  0  0
  142.1820   78.5100  218.9030 C   0  0  0  0  0  0  0  0  0  0  0  0
  140.7430   78.6790  219.2920 C   0  0  0  0  0  0  0  0  0  0  0  0
  140.5110   78.2000  220.6970 C   0  0  2  0  0  0  0  0  0  0  0  0
  141.1060   79.0850  221.6990 C   0  0  0  0  0  0  0  0  0  0  0  0
  141.6280   78.6150  222.9000 C   0  0  0  0  0  0  0  0  0  0  0  0
  142.1860   79.4480  223.8450 C   0  0  0  0  0  0  0  0  0  0  0  0
  142.2510   80.8000  223.6430 C   0  0  0  0  0  0  0  0  0  0  0  0
  141.7400   81.2920  222.4600 C   0  0  0  0  0  0  0  0  0  0  0  0
  141.8060   82.6420  222.2600 F   0  0  0  0  0  0  0  0  0  0  0  0
  141.1740   80.4470  221.5000 C   0  0  0  0  0  0  0  0  0  0  0  0
  140.2650   71.5020  223.5570 C   0  0  0  0  0  0  0  0  0  0  0  0
  139.5920   70.3040  223.4240 C   0  0  0  0  0  0  0  0  0  0  0  0
  139.3520   69.4650  224.5060 C   0  0  0  0  0  0  0  0  0  0  0  0
  139.8100   69.8650  225.7340 C   0  0  0  0  0  0  0  0  0  0  0  0
  139.5830   69.0430  226.8340 C   0  0  0  0  0  0  0  0  0  0  0  0
  140.0630   69.4910  228.0480 C   0  0  0  0  0  0  0  0  0  0  0  0
  139.8310   68.6720  229.1170 F   0  0  0  0  0  0  0  0  0  0  0  0
  140.7340   70.6860  228.1730 C   0  0  0  0  0  0  0  0  0  0  0  0
  140.9590   71.4980  227.0920 C   0  0  0  0  0  0  0  0  0  0  0  0
  140.4870   71.0700  225.8670 C   0  0  0  0  0  0  0  0  0  0  0  0
  140.7100   71.8730  224.7920 N   0  0  0  0  0  0  0  0  0  0  0  0
  139.3380   73.9570  223.1400 H   0  0  0  0  0  0  0  0  0  0  0  0
  141.1350   74.1895  220.7352 H   0  0  0  0  0  0  0  0  0  0  0  0
  139.3637   74.2410  220.4064 H   0  0  0  0  0  0  0  0  0  0  0  0
  143.0276   76.5736  220.8667 H   0  0  0  0  0  0  0  0  0  0  0  0
  142.0978   75.2800  219.9880 H   0  0  0  0  0  0  0  0  0  0  0  0
  143.5417   76.8887  218.6084 H   0  0  0  0  0  0  0  0  0  0  0  0
  141.8281   76.5744  218.0991 H   0  0  0  0  0  0  0  0  0  0  0  0
  142.8298   78.9998  219.6449 H   0  0  0  0  0  0  0  0  0  0  0  0
  142.3699   78.9682  217.9208 H   0  0  0  0  0  0  0  0  0  0  0  0
  140.4737   79.7434  219.2247 H   0  0  0  0  0  0  0  0  0  0  0  0
  140.1204   78.0829  218.6086 H   0  0  0  0  0  0  0  0  0  0  0  0
  139.4376   78.2315  220.9355 H   0  0  0  0  0  0  0  0  0  0  0  0
  141.5938   77.5345  223.1033 H   0  0  0  0  0  0  0  0  0  0  0  0
  142.5854   79.0198  224.7762 H   0  0  0  0  0  0  0  0  0  0  0  0
  142.6940   81.4690  224.3955 H   0  0  0  0  0  0  0  0  0  0  0  0
  140.7759   80.8773  220.5692 H   0  0  0  0  0  0  0  0  0  0  0  0
  139.2336   70.0033  222.4284 H   0  0  0  0  0  0  0  0  0  0  0  0
  138.8137   68.5139  224.3809 H   0  0  0  0  0  0  0  0  0  0  0  0
  139.0488   68.0860  226.7406 H   0  0  0  0  0  0  0  0  0  0  0  0
  141.0982   70.9967  229.1634 H   0  0  0  0  0  0  0  0  0  0  0  0
  141.4946   72.4531  227.1962 H   0  0  0  0  0  0  0  0  0  0  0  0
  1  2  2  0
  2  3  1  0
  3  4  1  0
  4  5  1  0
  5  6  2  0
  5  7  1  0
  7  8  1  0
  8  9  1  0
  9 10  1  0
 10 11  1  0
 11 12  1  0
 12 13  1  0
 13 14  2  0
 14 15  1  0
 15 16  2  0
 16 17  1  0
 17 18  1  0
 17 19  2  0
  2 20  1  0
 20 21  2  0
 21 22  1  0
 22 23  2  0
 23 24  1  0
 24 25  2  0
 25 26  1  0
 25 27  1  0
 27 28  2  0
 28 29  1  0
 29 30  2  0
 12  7  1  0
 19 13  1  0
 30 20  1  0
 29 23  1  0
  3 31  1  0
  4 32  1  0
  4 33  1  0
  8 34  1  0
  8 35  1  0
  9 36  1  0
  9 37  1  0
 10 38  1  0
 10 39  1  0
 11 40  1  0
 11 41  1  0
 12 42  1  1
 14 43  1  0
 15 44  1  0
 16 45  1  0
 19 46  1  0
 21 47  1  0
 22 48  1  0
 24 49  1  0
 27 50  1  0
 28 51  1  0
M  END
>  <smiles>  (27) 
O=C(NCC(=O)N1CCCCC1c1cccc(F)c1)c1ccc2cc(F)ccc2n1

>  <score_type>  (27) 
oracle

>  <origin>  (27) 
autodockgpu

>  <m_score__min__energy>  (27) 
-9.3000000000000007

>  <m_primary>  (27) 
energy

>  <rmsd>  (27) 
2.174581003697389

>  <m_score__min__rmsd>  (27) 
2.174581003697389

>  <meeko>  (27) 
{"free_energy": -9.18, "intermolecular_energy": -10.67, "internal_energy": -1.66, "cluster_size": 30, "cluster_id": 1, "rank_in_cluster": 13}

>  <energy>  (27) 
-8.9

>  <cluster_rmsd>  (27) 
1.06

>  <cluster>  (27) 
1

$$$$

     RDKit          3D

 51 54  0  0  0  0  0  0  0  0999 V2000
  137.3760   75.5020  222.1940 O   0  0  0  0  0  0  0  0  0  0  0  0
  138.6200   75.7230  222.3440 C   0  0  0  0  0  0  0  0  0  0  0  0
  139.5580   74.6500  222.2350 N   0  0  0  0  0  0  0  0  0  0  0  0
  139.0170   73.3240  221.9480 C   0  0  0  0  0  0  0  0  0  0  0  0
  139.7870   72.2760  222.6930 C   0  0  0  0  0  0  0  0  0  0  0  0
  141.0380   72.2690  222.5430 O   0  0  0  0  0  0  0  0  0  0  0  0
  139.0980   71.3470  223.5260 N   0  0  0  0  0  0  0  0  0  0  0  0
  137.6650   71.4490  223.7110 C   0  0  0  0  0  0  0  0  0  0  0  0
  136.9970   70.1020  223.7940 C   0  0  0  0  0  0  0  0  0  0  0  0
  137.7850   69.1320  224.6420 C   0  0  0  0  0  0  0  0  0  0  0  0
  139.1580   69.0120  224.0480 C   0  0  0  0  0  0  0  0  0  0  0  0
  139.9030   70.3120  224.1630 C   0  0  2  0  0  0  0  0  0  0  0  0
  140.2940   70.6190  225.5380 C   0  0  0  0  0  0  0  0  0  0  0  0
  140.7530   71.8730  225.9260 C   0  0  0  0  0  0  0  0  0  0  0  0
  141.1240   72.1620  227.2210 C   0  0  0  0  0  0  0  0  0  0  0  0
  141.0580   71.2110  228.2020 C   0  0  0  0  0  0  0  0  0  0  0  0
  140.6050   69.9580  227.8450 C   0  0  0  0  0  0  0  0  0  0  0  0
  140.5380   69.0100  228.8260 F   0  0  0  0  0  0  0  0  0  0  0  0
  140.2280   69.6640  226.5300 C   0  0  0  0  0  0  0  0  0  0  0  0
  139.1170   77.0690  222.6310 C   0  0  0  0  0  0  0  0  0  0  0  0
  138.2230   78.1080  222.7930 C   0  0  0  0  0  0  0  0  0  0  0  0
  138.6370   79.4070  223.0670 C   0  0  0  0  0  0  0  0  0  0  0  0
  139.9850   79.6340  223.1730 C   0  0  0  0  0  0  0  0  0  0  0  0
  140.4260   80.9250  223.4460 C   0  0  0  0  0  0  0  0  0  0  0  0
  141.7910   81.1020  223.5430 C   0  0  0  0  0  0  0  0  0  0  0  0
  142.2080   82.3770  223.8110 F   0  0  0  0  0  0  0  0  0  0  0  0
  142.6770   80.0620  223.3800 C   0  0  0  0  0  0  0  0  0  0  0  0
  142.2460   78.7890  223.1100 C   0  0  0  0  0  0  0  0  0  0  0  0
  140.8830   78.5890  223.0090 C   0  0  0  0  0  0  0  0  0  0  0  0
  140.4520   77.3260  222.7430 N   0  0  0  0  0  0  0  0  0  0  0  0
  140.5550   74.8520  222.3610 H   0  0  0  0  0  0  0  0  0  0  0  0
  137.9620   73.2877  222.2573 H   0  0  0  0  0  0  0  0  0  0  0  0
  139.1000   73.1295  220.8685 H   0  0  0  0  0  0  0  0  0  0  0  0
  137.4679   71.9986  224.6433 H   0  0  0  0  0  0  0  0  0  0  0  0
  137.2517   71.9738  222.8371 H   0  0  0  0  0  0  0  0  0  0  0  0
  135.9969   70.2279  224.2345 H   0  0  0  0  0  0  0  0  0  0  0  0
  136.9339   69.6903  222.7759 H   0  0  0  0  0  0  0  0  0  0  0  0
  137.8552   69.5083  225.6732 H   0  0  0  0  0  0  0  0  0  0  0  0
  137.2890   68.1504  224.6635 H   0  0  0  0  0  0  0  0  0  0  0  0
  139.7151   68.2283  224.5822 H   0  0  0  0  0  0  0  0  0  0  0  0
  139.0609   68.7535  222.9832 H   0  0  0  0  0  0  0  0  0  0  0  0
  140.8662   70.2442  223.6361 H   0  0  0  0  0  0  0  0  0  0  0  0
  140.8228   72.6669  225.1678 H   0  0  0  0  0  0  0  0  0  0  0  0
  141.4787   73.1731  227.4699 H   0  0  0  0  0  0  0  0  0  0  0  0
  141.3550   71.4370  229.2367 H   0  0  0  0  0  0  0  0  0  0  0  0
  139.8726   68.6527  226.2833 H   0  0  0  0  0  0  0  0  0  0  0  0
  137.1464   77.9015  222.7023 H   0  0  0  0  0  0  0  0  0  0  0  0
  137.9097   80.2224  223.1940 H   0  0  0  0  0  0  0  0  0  0  0  0
  139.7232   81.7609  223.5776 H   0  0  0  0  0  0  0  0  0  0  0  0
  143.7560   80.2565  223.4684 H   0  0  0  0  0  0  0  0  0  0  0  0
  142.9571   77.9600  222.9790 H   0  0  0  0  0  0  0  0  0  0  0  0
  1  2  2  0
  2  3  1  0
  3  4  1  0
  4  5  1  0
  5  6  2  0
  5  7  1  0
  7  8  1  0
  8  9  1  0
  9 10  1  0
 10 11  1  0
 11 12  1  0
 12 13  1  0
 13 14  2  0
 14 15  1  0
 15 16  2  0
 16 17  1  0
 17 18  1  0
 17 19  2  0
  2 20  1  0
 20 21  2  0
 21 22  1  0
 22 23  2  0
 23 24  1  0
 24 25  2  0
 25 26  1  0
 25 27  1  0
 27 28  2  0
 28 29  1  0
 29 30  2  0
 12  7  1  0
 19 13  1  0
 30 20  1  0
 29 23  1  0
  3 31  1  0
  4 32  1  0
  4 33  1  0
  8 34  1  0
  8 35  1  0
  9 36  1  0
  9 37  1  0
 10 38  1  0
 10 39  1  0
 11 40  1  0
 11 41  1  0
 12 42  1  6
 14 43  1  0
 15 44  1  0
 16 45  1  0
 19 46  1  0
 21 47  1  0
 22 48  1  0
 24 49  1  0
 27 50  1  0
 28 51  1  0
M  END
>  <smiles>  (28) 
O=C(NCC(=O)N1CCCCC1c1cccc(F)c1)c1ccc2cc(F)ccc2n1

>  <score_type>  (28) 
oracle

>  <origin>  (28) 
autodockgpu

>  <m_score__min__energy>  (28) 
-9.3000000000000007

>  <m_primary>  (28) 
energy

>  <rmsd>  (28) 
8.698851899335066

>  <m_score__min__rmsd>  (28) 
8.698851899335066

>  <meeko>  (28) 
{"free_energy": -8.59, "intermolecular_energy": -10.08, "internal_energy": -1.72, "cluster_size": 12, "cluster_id": 2, "rank_in_cluster": 7}

>  <energy>  (28) 
-8.83

>  <cluster_rmsd>  (28) 
0.97

>  <cluster>  (28) 
1

$$$$

     RDKit          3D

 51 54  0  0  0  0  0  0  0  0999 V2000
  140.9960   72.4160  221.6700 O   0  0  0  0  0  0  0  0  0  0  0  0
  140.0430   72.4090  222.5120 C   0  0  0  0  0  0  0  0  0  0  0  0
  138.9300   73.2920  222.3460 N   0  0  0  0  0  0  0  0  0  0  0  0
  138.9560   74.1770  221.1840 C   0  0  0  0  0  0  0  0  0  0  0  0
  139.4160   75.5460  221.5830 C   0  0  0  0  0  0  0  0  0  0  0  0
  138.6430   76.2190  222.3150 O   0  0  0  0  0  0  0  0  0  0  0  0
  140.6810   76.0280  221.1350 N   0  0  0  0  0  0  0  0  0  0  0  0
  141.8420   75.1610  221.1420 C   0  0  0  0  0  0  0  0  0  0  0  0
  142.7410   75.3940  219.9580 C   0  0  0  0  0  0  0  0  0  0  0  0
  142.9180   76.8650  219.6620 C   0  0  0  0  0  0  0  0  0  0  0  0
  141.5580   77.4530  219.4250 C   0  0  0  0  0  0  0  0  0  0  0  0
  140.7330   77.4110  220.6800 C   0  0  2  0  0  0  0  0  0  0  0  0
  141.1990   78.3580  221.6930 C   0  0  0  0  0  0  0  0  0  0  0  0
  141.4060   77.9970  223.0190 C   0  0  0  0  0  0  0  0  0  0  0  0
  141.8410   78.8890  223.9750 C   0  0  0  0  0  0  0  0  0  0  0  0
  142.0940   80.1950  223.6560 C   0  0  0  0  0  0  0  0  0  0  0  0
  141.8970   80.5800  222.3460 C   0  0  0  0  0  0  0  0  0  0  0  0
  142.1510   81.8850  222.0300 F   0  0  0  0  0  0  0  0  0  0  0  0
  141.4550   79.6750  221.3760 C   0  0  0  0  0  0  0  0  0  0  0  0
  140.0600   71.5040  223.6620 C   0  0  0  0  0  0  0  0  0  0  0  0
  139.5570   70.2250  223.5330 C   0  0  0  0  0  0  0  0  0  0  0  0
  139.5480   69.3220  224.5910 C   0  0  0  0  0  0  0  0  0  0  0  0
  140.0610   69.7430  225.7890 C   0  0  0  0  0  0  0  0  0  0  0  0
  140.0630   68.8590  226.8640 C   0  0  0  0  0  0  0  0  0  0  0  0
  140.5910   69.3300  228.0490 C   0  0  0  0  0  0  0  0  0  0  0  0
  140.5850   68.4490  229.0940 F   0  0  0  0  0  0  0  0  0  0  0  0
  141.0910   70.6060  228.1700 C   0  0  0  0  0  0  0  0  0  0  0  0
  141.0900   71.4800  227.1140 C   0  0  0  0  0  0  0  0  0  0  0  0
  140.5670   71.0290  225.9190 C   0  0  0  0  0  0  0  0  0  0  0  0
  140.5650   71.8940  224.8680 N   0  0  0  0  0  0  0  0  0  0  0  0
  138.1750   73.2690  223.0370 H   0  0  0  0  0  0  0  0  0  0  0  0
  139.6458   73.7675  220.4314 H   0  0  0  0  0  0  0  0  0  0  0  0
  137.9411   74.2484  220.7659 H   0  0  0  0  0  0  0  0  0  0  0  0
  142.4153   75.3462  222.0623 H   0  0  0  0  0  0  0  0  0  0  0  0
  141.4842   74.1221  221.0913 H   0  0  0  0  0  0  0  0  0  0  0  0
  143.7266   74.9530  220.1683 H   0  0  0  0  0  0  0  0  0  0  0  0
  142.2741   74.9246  219.0795 H   0  0  0  0  0  0  0  0  0  0  0  0
  143.3972   77.3636  220.5174 H   0  0  0  0  0  0  0  0  0  0  0  0
  143.5560   77.0044  218.7768 H   0  0  0  0  0  0  0  0  0  0  0  0
  141.6685   78.4983  219.1008 H   0  0  0  0  0  0  0  0  0  0  0  0
  141.0491   76.8632  218.6484 H   0  0  0  0  0  0  0  0  0  0  0  0
  139.7072   77.7489  220.4710 H   0  0  0  0  0  0  0  0  0  0  0  0
  141.2146   76.9558  223.3178 H   0  0  0  0  0  0  0  0  0  0  0  0
  141.9870   78.5459  225.0099 H   0  0  0  0  0  0  0  0  0  0  0  0
  142.4414   80.9111  224.4153 H   0  0  0  0  0  0  0  0  0  0  0  0
  141.3090   80.0200  220.3418 H   0  0  0  0  0  0  0  0  0  0  0  0
  139.1497   69.9094  222.5611 H   0  0  0  0  0  0  0  0  0  0  0  0
  139.1434   68.3063  224.4698 H   0  0  0  0  0  0  0  0  0  0  0  0
  139.6644   67.8377  226.7738 H   0  0  0  0  0  0  0  0  0  0  0  0
  141.5013   70.9326  229.1370 H   0  0  0  0  0  0  0  0  0  0  0  0
  141.4899   72.4998  227.2149 H   0  0  0  0  0  0  0  0  0  0  0  0
  1  2  2  0
  2  3  1  0
  3  4  1  0
  4  5  1  0
  5  6  2  0
  5  7  1  0
  7  8  1  0
  8  9  1  0
  9 10  1  0
 10 11  1  0
 11 12  1  0
 12 13  1  0
 13 14  2  0
 14 15  1  0
 15 16  2  0
 16 17  1  0
 17 18  1  0
 17 19  2  0
  2 20  1  0
 20 21  2  0
 21 22  1  0
 22 23  2  0
 23 24  1  0
 24 25  2  0
 25 26  1  0
 25 27  1  0
 27 28  2  0
 28 29  1  0
 29 30  2  0
 12  7  1  0
 19 13  1  0
 30 20  1  0
 29 23  1  0
  3 31  1  0
  4 32  1  0
  4 33  1  0
  8 34  1  0
  8 35  1  0
  9 36  1  0
  9 37  1  0
 10 38  1  0
 10 39  1  0
 11 40  1  0
 11 41  1  0
 12 42  1  6
 14 43  1  0
 15 44  1  0
 16 45  1  0
 19 46  1  0
 21 47  1  0
 22 48  1  0
 24 49  1  0
 27 50  1  0
 28 51  1  0
M  END
>  <smiles>  (29) 
O=C(NCC(=O)N1CCCCC1c1cccc(F)c1)c1ccc2cc(F)ccc2n1

>  <score_type>  (29) 
oracle

>  <origin>  (29) 
autodockgpu

>  <m_score__min__energy>  (29) 
-9.3000000000000007

>  <m_primary>  (29) 
energy

>  <rmsd>  (29) 
2.034568984387633

>  <m_score__min__rmsd>  (29) 
2.034568984387633

>  <meeko>  (29) 
{"free_energy": -9.25, "intermolecular_energy": -10.74, "internal_energy": -1.49, "cluster_size": 30, "cluster_id": 1, "rank_in_cluster": 11}

>  <energy>  (29) 
-8.76

>  <cluster_rmsd>  (29) 
1.29

>  <cluster>  (29) 
1

$$$$

     RDKit          3D

 51 54  0  0  0  0  0  0  0  0999 V2000
  141.1700   72.5410  221.9040 O   0  0  0  0  0  0  0  0  0  0  0  0
  140.1290   72.4030  222.6210 C   0  0  0  0  0  0  0  0  0  0  0  0
  138.9580   73.1740  222.3430 N   0  0  0  0  0  0  0  0  0  0  0  0
  139.0290   74.1030  221.2180 C   0  0  0  0  0  0  0  0  0  0  0  0
  139.4900   75.4510  221.6840 C   0  0  0  0  0  0  0  0  0  0  0  0
  138.8140   76.0040  222.5910 O   0  0  0  0  0  0  0  0  0  0  0  0
  140.6480   76.0450  221.1020 N   0  0  0  0  0  0  0  0  0  0  0  0
  141.8550   75.2670  220.9090 C   0  0  0  0  0  0  0  0  0  0  0  0
  142.5700   75.6200  219.6320 C   0  0  0  0  0  0  0  0  0  0  0  0
  142.6060   77.1120  219.3980 C   0  0  0  0  0  0  0  0  0  0  0  0
  141.1900   77.6080  219.3730 C   0  0  0  0  0  0  0  0  0  0  0  0
  140.5450   77.4480  220.7210 C   0  0  2  0  0  0  0  0  0  0  0  0
  141.0780   78.3790  221.7150 C   0  0  0  0  0  0  0  0  0  0  0  0
  141.3310   78.0070  223.0310 C   0  0  0  0  0  0  0  0  0  0  0  0
  141.8300   78.8840  223.9700 C   0  0  0  0  0  0  0  0  0  0  0  0
  142.1030   80.1850  223.6430 C   0  0  0  0  0  0  0  0  0  0  0  0
  141.8600   80.5800  222.3450 C   0  0  0  0  0  0  0  0  0  0  0  0
  142.1340   81.8790  222.0210 F   0  0  0  0  0  0  0  0  0  0  0  0
  141.3540   79.6900  221.3920 C   0  0  0  0  0  0  0  0  0  0  0  0
  140.1030   71.4590  223.7400 C   0  0  0  0  0  0  0  0  0  0  0  0
  139.5710   70.1990  223.5580 C   0  0  0  0  0  0  0  0  0  0  0  0
  139.5200   69.2600  224.5840 C   0  0  0  0  0  0  0  0  0  0  0  0
  140.0220   69.6270  225.8050 C   0  0  0  0  0  0  0  0  0  0  0  0
  139.9840   68.7070  226.8480 C   0  0  0  0  0  0  0  0  0  0  0  0
  140.5010   69.1240  228.0570 C   0  0  0  0  0  0  0  0  0  0  0  0
  140.4550   68.2090  229.0710 F   0  0  0  0  0  0  0  0  0  0  0  0
  141.0310   70.3820  228.2310 C   0  0  0  0  0  0  0  0  0  0  0  0
  141.0700   71.2910  227.2060 C   0  0  0  0  0  0  0  0  0  0  0  0
  140.5570   70.8950  225.9870 C   0  0  0  0  0  0  0  0  0  0  0  0
  140.5960   71.7950  224.9660 N   0  0  0  0  0  0  0  0  0  0  0  0
  138.1310   73.0470  222.9340 H   0  0  0  0  0  0  0  0  0  0  0  0
  139.7378   73.7153  220.4715 H   0  0  0  0  0  0  0  0  0  0  0  0
  138.0283   74.2018  220.7721 H   0  0  0  0  0  0  0  0  0  0  0  0
  142.5328   75.4515  221.7555 H   0  0  0  0  0  0  0  0  0  0  0  0
  141.5640   74.2080  220.8475 H   0  0  0  0  0  0  0  0  0  0  0  0
  143.6023   75.2441  219.6873 H   0  0  0  0  0  0  0  0  0  0  0  0
  142.0228   75.1580  218.7971 H   0  0  0  0  0  0  0  0  0  0  0  0
  143.1605   77.6047  220.2103 H   0  0  0  0  0  0  0  0  0  0  0  0
  143.1089   77.3391  218.4464 H   0  0  0  0  0  0  0  0  0  0  0  0
  141.1855   78.6723  219.0950 H   0  0  0  0  0  0  0  0  0  0  0  0
  140.6225   77.0181  218.6382 H   0  0  0  0  0  0  0  0  0  0  0  0
  139.4802   77.7185  220.6666 H   0  0  0  0  0  0  0  0  0  0  0  0
  141.1244   76.9702  223.3350 H   0  0  0  0  0  0  0  0  0  0  0  0
  142.0115   78.5335  224.9968 H   0  0  0  0  0  0  0  0  0  0  0  0
  142.5015   80.8890  224.3884 H   0  0  0  0  0  0  0  0  0  0  0  0
  141.1731   80.0429  220.3660 H   0  0  0  0  0  0  0  0  0  0  0  0
  139.1738   69.9275  222.5688 H   0  0  0  0  0  0  0  0  0  0  0  0
  139.0923   68.2598  224.4207 H   0  0  0  0  0  0  0  0  0  0  0  0
  139.5634   67.6993  226.7154 H   0  0  0  0  0  0  0  0  0  0  0  0
  141.4326   70.6645  229.2153 H   0  0  0  0  0  0  0  0  0  0  0  0
  141.4933   72.2962  227.3489 H   0  0  0  0  0  0  0  0  0  0  0  0
  1  2  2  0
  2  3  1  0
  3  4  1  0
  4  5  1  0
  5  6  2  0
  5  7  1  0
  7  8  1  0
  8  9  1  0
  9 10  1  0
 10 11  1  0
 11 12  1  0
 12 13  1  0
 13 14  2  0
 14 15  1  0
 15 16  2  0
 16 17  1  0
 17 18  1  0
 17 19  2  0
  2 20  1  0
 20 21  2  0
 21 22  1  0
 22 23  2  0
 23 24  1  0
 24 25  2  0
 25 26  1  0
 25 27  1  0
 27 28  2  0
 28 29  1  0
 29 30  2  0
 12  7  1  0
 19 13  1  0
 30 20  1  0
 29 23  1  0
  3 31  1  0
  4 32  1  0
  4 33  1  0
  8 34  1  0
  8 35  1  0
  9 36  1  0
  9 37  1  0
 10 38  1  0
 10 39  1  0
 11 40  1  0
 11 41  1  0
 12 42  1  6
 14 43  1  0
 15 44  1  0
 16 45  1  0
 19 46  1  0
 21 47  1  0
 22 48  1  0
 24 49  1  0
 27 50  1  0
 28 51  1  0
M  END
>  <smiles>  (30) 
O=C(NCC(=O)N1CCCCC1c1cccc(F)c1)c1ccc2cc(F)ccc2n1

>  <score_type>  (30) 
oracle

>  <origin>  (30) 
autodockgpu

>  <m_score__min__energy>  (30) 
-9.3000000000000007

>  <m_primary>  (30) 
energy

>  <rmsd>  (30) 
1.9699054540888223

>  <m_score__min__rmsd>  (30) 
1.9699054540888223

>  <meeko>  (30) 
{"free_energy": -9.29, "intermolecular_energy": -10.78, "internal_energy": -1.48, "cluster_size": 30, "cluster_id": 1, "rank_in_cluster": 4}

>  <energy>  (30) 
-8.41

>  <cluster_rmsd>  (30) 
1.5

>  <cluster>  (30) 
1

$$$$

     RDKit          3D

 51 54  0  0  0  0  0  0  0  0999 V2000
  137.3910   75.4360  222.2250 O   0  0  0  0  0  0  0  0  0  0  0  0
  138.6360   75.6770  222.3210 C   0  0  0  0  0  0  0  0  0  0  0  0
  139.5870   74.6230  222.1520 N   0  0  0  0  0  0  0  0  0  0  0  0
  139.0550   73.2920  221.8690 C   0  0  0  0  0  0  0  0  0  0  0  0
  139.7930   72.2580  222.6650 C   0  0  0  0  0  0  0  0  0  0  0  0
  141.0470   72.2380  222.5550 O   0  0  0  0  0  0  0  0  0  0  0  0
  139.0700   71.3560  223.4990 N   0  0  0  0  0  0  0  0  0  0  0  0
  137.6380   71.5000  223.6700 C   0  0  0  0  0  0  0  0  0  0  0  0
  136.9320   70.1740  223.7580 C   0  0  0  0  0  0  0  0  0  0  0  0
  137.6840   69.1890  224.6220 C   0  0  0  0  0  0  0  0  0  0  0  0
  139.0590   69.0260  224.0430 C   0  0  0  0  0  0  0  0  0  0  0  0
  139.8390   70.3050  224.1530 C   0  0  2  0  0  0  0  0  0  0  0  0
  140.2250   70.6130  225.5300 C   0  0  0  0  0  0  0  0  0  0  0  0
  140.7200   71.8560  225.9100 C   0  0  0  0  0  0  0  0  0  0  0  0
  141.0860   72.1470  227.2060 C   0  0  0  0  0  0  0  0  0  0  0  0
  140.9800   71.2080  228.1950 C   0  0  0  0  0  0  0  0  0  0  0  0
  140.4920   69.9660  227.8450 C   0  0  0  0  0  0  0  0  0  0  0  0
  140.3870   69.0300  228.8350 F   0  0  0  0  0  0  0  0  0  0  0  0
  140.1200   69.6710  226.5300 C   0  0  0  0  0  0  0  0  0  0  0  0
  139.1230   77.0270  222.6050 C   0  0  0  0  0  0  0  0  0  0  0  0
  138.2220   78.0620  222.7530 C   0  0  0  0  0  0  0  0  0  0  0  0
  138.6260   79.3650  223.0240 C   0  0  0  0  0  0  0  0  0  0  0  0
  139.9710   79.6000  223.1440 C   0  0  0  0  0  0  0  0  0  0  0  0
  140.4020   80.8950  223.4150 C   0  0  0  0  0  0  0  0  0  0  0  0
  141.7650   81.0800  223.5260 C   0  0  0  0  0  0  0  0  0  0  0  0
  142.1720   82.3580  223.7920 F   0  0  0  0  0  0  0  0  0  0  0  0
  142.6580   80.0430  223.3770 C   0  0  0  0  0  0  0  0  0  0  0  0
  142.2370   78.7670  223.1100 C   0  0  0  0  0  0  0  0  0  0  0  0
  140.8770   78.5590  222.9950 C   0  0  0  0  0  0  0  0  0  0  0  0
  140.4550   77.2920  222.7310 N   0  0  0  0  0  0  0  0  0  0  0  0
  140.5840   74.8400  222.2340 H   0  0  0  0  0  0  0  0  0  0  0  0
  137.9884   73.2629  222.1363 H   0  0  0  0  0  0  0  0  0  0  0  0
  139.1804   73.0763  220.7977 H   0  0  0  0  0  0  0  0  0  0  0  0
  137.4481   72.0629  224.5958 H   0  0  0  0  0  0  0  0  0  0  0  0
  137.2475   72.0287  222.7880 H   0  0  0  0  0  0  0  0  0  0  0  0
  135.9318   70.3320  224.1876 H   0  0  0  0  0  0  0  0  0  0  0  0
  136.8673   69.7554  222.7428 H   0  0  0  0  0  0  0  0  0  0  0  0
  137.7544   69.5716  225.6509 H   0  0  0  0  0  0  0  0  0  0  0  0
  137.1605   68.2218  224.6462 H   0  0  0  0  0  0  0  0  0  0  0  0
  139.5889   68.2322  224.5900 H   0  0  0  0  0  0  0  0  0  0  0  0
  138.9647   68.7608  222.9796 H   0  0  0  0  0  0  0  0  0  0  0  0
  140.8048   70.2060  223.6359 H   0  0  0  0  0  0  0  0  0  0  0  0
  140.8235   72.6390  225.1443 H   0  0  0  0  0  0  0  0  0  0  0  0
  141.4691   73.1491  227.4489 H   0  0  0  0  0  0  0  0  0  0  0  0
  141.2729   71.4347  229.2308 H   0  0  0  0  0  0  0  0  0  0  0  0
  139.7365   68.6685  226.2893 H   0  0  0  0  0  0  0  0  0  0  0  0
  137.1474   77.8490  222.6532 H   0  0  0  0  0  0  0  0  0  0  0  0
  137.8929   80.1772  223.1379 H   0  0  0  0  0  0  0  0  0  0  0  0
  139.6933   81.7277  223.5345 H   0  0  0  0  0  0  0  0  0  0  0  0
  143.7351   80.2437  223.4746 H   0  0  0  0  0  0  0  0  0  0  0  0
  142.9539   77.9411  222.9920 H   0  0  0  0  0  0  0  0  0  0  0  0
  1  2  2  0
  2  3  1  0
  3  4  1  0
  4  5  1  0
  5  6  2  0
  5  7  1  0
  7  8  1  0
  8  9  1  0
  9 10  1  0
 10 11  1  0
 11 12  1  0
 12 13  1  0
 13 14  2  0
 14 15  1  0
 15 16  2  0
 16 17  1  0
 17 18  1  0
 17 19  2  0
  2 20  1  0
 20 21  2  0
 21 22  1  0
 22 23  2  0
 23 24  1  0
 24 25  2  0
 25 26  1  0
 25 27  1  0
 27 28  2  0
 28 29  1  0
 29 30  2  0
 12  7  1  0
 19 13  1  0
 30 20  1  0
 29 23  1  0
  3 31  1  0
  4 32  1  0
  4 33  1  0
  8 34  1  0
  8 35  1  0
  9 36  1  0
  9 37  1  0
 10 38  1  0
 10 39  1  0
 11 40  1  0
 11 41  1  0
 12 42  1  6
 14 43  1  0
 15 44  1  0
 16 45  1  0
 19 46  1  0
 21 47  1  0
 22 48  1  0
 24 49  1  0
 27 50  1  0
 28 51  1  0
M  END
>  <smiles>  (31) 
O=C(NCC(=O)N1CCCCC1c1cccc(F)c1)c1ccc2cc(F)ccc2n1

>  <score_type>  (31) 
oracle

>  <origin>  (31) 
autodockgpu

>  <m_score__min__energy>  (31) 
-9.3000000000000007

>  <m_primary>  (31) 
energy

>  <rmsd>  (31) 
8.678492672429336

>  <m_score__min__rmsd>  (31) 
8.678492672429336

>  <meeko>  (31) 
{"free_energy": -8.58, "intermolecular_energy": -10.07, "internal_energy": -1.72, "cluster_size": 12, "cluster_id": 2, "rank_in_cluster": 8}

>  <energy>  (31) 
-9.0

>  <cluster_rmsd>  (31) 
0.0

>  <cluster>  (31) 
2

$$$$

     RDKit          3D

 51 54  0  0  0  0  0  0  0  0999 V2000
  138.9280   71.0670  221.5720 O   0  0  0  0  0  0  0  0  0  0  0  0
  139.6700   71.4220  222.5420 C   0  0  0  0  0  0  0  0  0  0  0  0
  140.4410   72.6230  222.4550 N   0  0  0  0  0  0  0  0  0  0  0  0
  140.3280   73.3930  221.2190 C   0  0  0  0  0  0  0  0  0  0  0  0
  140.4300   74.8600  221.5090 C   0  0  0  0  0  0  0  0  0  0  0  0
  139.6560   75.3250  222.3870 O   0  0  0  0  0  0  0  0  0  0  0  0
  141.3750   75.6590  220.8020 N   0  0  0  0  0  0  0  0  0  0  0  0
  142.6850   75.1320  220.4740 C   0  0  0  0  0  0  0  0  0  0  0  0
  143.1700   75.5920  219.1260 C   0  0  0  0  0  0  0  0  0  0  0  0
  142.8820   77.0560  218.8900 C   0  0  0  0  0  0  0  0  0  0  0  0
  141.4020   77.2610  219.0240 C   0  0  0  0  0  0  0  0  0  0  0  0
  140.9540   77.0050  220.4360 C   0  0  2  0  0  0  0  0  0  0  0  0
  141.3960   78.0450  221.3650 C   0  0  0  0  0  0  0  0  0  0  0  0
  141.8260   79.2980  220.9400 C   0  0  0  0  0  0  0  0  0  0  0  0
  142.2450   80.2770  221.8140 C   0  0  0  0  0  0  0  0  0  0  0  0
  142.2590   80.0560  223.1640 C   0  0  0  0  0  0  0  0  0  0  0  0
  141.8380   78.8220  223.6120 C   0  0  0  0  0  0  0  0  0  0  0  0
  141.8520   78.6050  224.9610 F   0  0  0  0  0  0  0  0  0  0  0  0
  141.4120   77.8280  222.7250 C   0  0  0  0  0  0  0  0  0  0  0  0
  139.7510   70.6190  223.7630 C   0  0  0  0  0  0  0  0  0  0  0  0
  139.2230   69.3440  223.7790 C   0  0  0  0  0  0  0  0  0  0  0  0
  139.2720   68.5340  224.9080 C   0  0  0  0  0  0  0  0  0  0  0  0
  139.8710   69.0460  226.0300 C   0  0  0  0  0  0  0  0  0  0  0  0
  139.9330   68.2570  227.1740 C   0  0  0  0  0  0  0  0  0  0  0  0
  140.5460   68.8170  228.2760 C   0  0  0  0  0  0  0  0  0  0  0  0
  140.5980   68.0290  229.3920 F   0  0  0  0  0  0  0  0  0  0  0  0
  141.0710   70.0880  228.2540 C   0  0  0  0  0  0  0  0  0  0  0  0
  141.0110   70.8690  227.1280 C   0  0  0  0  0  0  0  0  0  0  0  0
  140.4020   70.3280  226.0130 C   0  0  0  0  0  0  0  0  0  0  0  0
  140.3420   71.1000  224.8940 N   0  0  0  0  0  0  0  0  0  0  0  0
  141.0320   72.8890  223.2480 H   0  0  0  0  0  0  0  0  0  0  0  0
  141.1380   73.1012  220.5344 H   0  0  0  0  0  0  0  0  0  0  0  0
  139.3514   73.1866  220.7568 H   0  0  0  0  0  0  0  0  0  0  0  0
  143.4012   75.4656  221.2393 H   0  0  0  0  0  0  0  0  0  0  0  0
  142.6063   74.0352  220.4445 H   0  0  0  0  0  0  0  0  0  0  0  0
  144.2562   75.4295  219.0650 H   0  0  0  0  0  0  0  0  0  0  0  0
  142.6371   75.0128  218.3575 H   0  0  0  0  0  0  0  0  0  0  0  0
  143.4131   77.6665  219.6352 H   0  0  0  0  0  0  0  0  0  0  0  0
  143.2219   77.3572  217.8881 H   0  0  0  0  0  0  0  0  0  0  0  0
  141.1550   78.2971  218.7494 H   0  0  0  0  0  0  0  0  0  0  0  0
  140.8861   76.5550  218.3566 H   0  0  0  0  0  0  0  0  0  0  0  0
  139.8572   77.0575  220.5014 H   0  0  0  0  0  0  0  0  0  0  0  0
  141.8317   79.5159  219.8618 H   0  0  0  0  0  0  0  0  0  0  0  0
  142.5730   81.2505  221.4207 H   0  0  0  0  0  0  0  0  0  0  0  0
  142.5937   80.8340  223.8660 H   0  0  0  0  0  0  0  0  0  0  0  0
  141.0839   76.8555  223.1207 H   0  0  0  0  0  0  0  0  0  0  0  0
  138.7469   68.9551  222.8669 H   0  0  0  0  0  0  0  0  0  0  0  0
  138.8459   67.5199  224.9013 H   0  0  0  0  0  0  0  0  0  0  0  0
  139.5151   67.2398  227.1988 H   0  0  0  0  0  0  0  0  0  0  0  0
  141.5500   70.4874  229.1601 H   0  0  0  0  0  0  0  0  0  0  0  0
  141.4312   71.8855  227.1138 H   0  0  0  0  0  0  0  0  0  0  0  0
  1  2  2  0
  2  3  1  0
  3  4  1  0
  4  5  1  0
  5  6  2  0
  5  7  1  0
  7  8  1  0
  8  9  1  0
  9 10  1  0
 10 11  1  0
 11 12  1  0
 12 13  1  0
 13 14  2  0
 14 15  1  0
 15 16  2  0
 16 17  1  0
 17 18  1  0
 17 19  2  0
  2 20  1  0
 20 21  2  0
 21 22  1  0
 22 23  2  0
 23 24  1  0
 24 25  2  0
 25 26  1  0
 25 27  1  0
 27 28  2  0
 28 29  1  0
 29 30  2  0
 12  7  1  0
 19 13  1  0
 30 20  1  0
 29 23  1  0
  3 31  1  0
  4 32  1  0
  4 33  1  0
  8 34  1  0
  8 35  1  0
  9 36  1  0
  9 37  1  0
 10 38  1  0
 10 39  1  0
 11 40  1  0
 11 41  1  0
 12 42  1  6
 14 43  1  0
 15 44  1  0
 16 45  1  0
 19 46  1  0
 21 47  1  0
 22 48  1  0
 24 49  1  0
 27 50  1  0
 28 51  1  0
M  END
>  <smiles>  (32) 
O=C(NCC(=O)N1CCCCC1c1cccc(F)c1)c1ccc2cc(F)ccc2n1

>  <score_type>  (32) 
oracle

>  <origin>  (32) 
autodockgpu

>  <m_score__min__energy>  (32) 
-9.3000000000000007

>  <m_primary>  (32) 
energy

>  <rmsd>  (32) 
2.0494352010801316

>  <m_score__min__rmsd>  (32) 
2.0494352010801316

>  <meeko>  (32) 
{"free_energy": -8.76, "intermolecular_energy": -10.25, "internal_energy": -1.52, "cluster_size": 30, "cluster_id": 1, "rank_in_cluster": 29}

>  <energy>  (32) 
-8.96

>  <cluster_rmsd>  (32) 
0.61

>  <cluster>  (32) 
2

$$$$

     RDKit          3D

 51 54  0  0  0  0  0  0  0  0999 V2000
  140.8010   73.9130  220.3130 O   0  0  0  0  0  0  0  0  0  0  0  0
  140.3240   74.6780  221.2100 C   0  0  0  0  0  0  0  0  0  0  0  0
  139.3110   74.1990  222.0990 N   0  0  0  0  0  0  0  0  0  0  0  0
  138.8720   72.8180  221.9190 C   0  0  0  0  0  0  0  0  0  0  0  0
  139.6330   71.9060  222.8330 C   0  0  0  0  0  0  0  0  0  0  0  0
  140.8900   71.9620  222.7780 O   0  0  0  0  0  0  0  0  0  0  0  0
  138.9290   71.0310  223.7110 N   0  0  0  0  0  0  0  0  0  0  0  0
  137.5100   71.2090  223.9420 C   0  0  0  0  0  0  0  0  0  0  0  0
  136.7800   69.8990  224.0800 C   0  0  0  0  0  0  0  0  0  0  0  0
  137.5490   68.9100  224.9240 C   0  0  0  0  0  0  0  0  0  0  0  0
  138.8930   68.7090  224.2870 C   0  0  0  0  0  0  0  0  0  0  0  0
  139.7040   69.9730  224.3450 C   0  0  2  0  0  0  0  0  0  0  0  0
  140.1580   70.2910  225.6990 C   0  0  0  0  0  0  0  0  0  0  0  0
  140.0490   69.3950  226.7560 C   0  0  0  0  0  0  0  0  0  0  0  0
  140.4720   69.6940  228.0330 C   0  0  0  0  0  0  0  0  0  0  0  0
  141.0290   70.9100  228.3230 C   0  0  0  0  0  0  0  0  0  0  0  0
  141.1480   71.8180  227.2920 C   0  0  0  0  0  0  0  0  0  0  0  0
  141.7050   73.0310  227.5840 F   0  0  0  0  0  0  0  0  0  0  0  0
  140.7180   71.5140  225.9960 C   0  0  0  0  0  0  0  0  0  0  0  0
  140.7950   76.0560  221.3540 C   0  0  0  0  0  0  0  0  0  0  0  0
  141.6970   76.5690  220.4440 C   0  0  0  0  0  0  0  0  0  0  0  0
  142.1790   77.8710  220.5300 C   0  0  0  0  0  0  0  0  0  0  0  0
  141.7250   78.6470  221.5650 C   0  0  0  0  0  0  0  0  0  0  0  0
  142.1920   79.9540  221.6740 C   0  0  0  0  0  0  0  0  0  0  0  0
  141.7070   80.6950  222.7320 C   0  0  0  0  0  0  0  0  0  0  0  0
  142.1750   81.9760  222.8250 F   0  0  0  0  0  0  0  0  0  0  0  0
  140.8070   80.1780  223.6350 C   0  0  0  0  0  0  0  0  0  0  0  0
  140.3460   78.8910  223.5310 C   0  0  0  0  0  0  0  0  0  0  0  0
  140.8190   78.1310  222.4800 C   0  0  0  0  0  0  0  0  0  0  0  0
  140.3620   76.8540  222.3730 N   0  0  0  0  0  0  0  0  0  0  0  0
  138.9410   74.8340  222.8130 H   0  0  0  0  0  0  0  0  0  0  0  0
  137.7982   72.7462  222.1466 H   0  0  0  0  0  0  0  0  0  0  0  0
  139.0579   72.5167  220.8775 H   0  0  0  0  0  0  0  0  0  0  0  0
  137.3730   71.7885  224.8669 H   0  0  0  0  0  0  0  0  0  0  0  0
  137.0925   71.7344  223.0704 H   0  0  0  0  0  0  0  0  0  0  0  0
  135.8034   70.0843  224.5511 H   0  0  0  0  0  0  0  0  0  0  0  0
  136.6610   69.4683  223.0748 H   0  0  0  0  0  0  0  0  0  0  0  0
  137.6734   69.3051  225.9430 H   0  0  0  0  0  0  0  0  0  0  0  0
  137.0068   67.9549  224.9856 H   0  0  0  0  0  0  0  0  0  0  0  0
  139.4297   67.9110  224.8210 H   0  0  0  0  0  0  0  0  0  0  0  0
  138.7462   68.4316  223.2327 H   0  0  0  0  0  0  0  0  0  0  0  0
  140.6438   69.8463  223.7875 H   0  0  0  0  0  0  0  0  0  0  0  0
  139.6067   68.4061  226.5652 H   0  0  0  0  0  0  0  0  0  0  0  0
  140.3604   68.9447  228.8305 H   0  0  0  0  0  0  0  0  0  0  0  0
  141.3690   71.1539  229.3403 H   0  0  0  0  0  0  0  0  0  0  0  0
  140.8290   72.2649  225.1999 H   0  0  0  0  0  0  0  0  0  0  0  0
  142.0467   75.9263  219.6226 H   0  0  0  0  0  0  0  0  0  0  0  0
  142.8974   78.2632  219.7952 H   0  0  0  0  0  0  0  0  0  0  0  0
  142.9101   80.3740  220.9543 H   0  0  0  0  0  0  0  0  0  0  0  0
  140.4490   80.8119  224.4596 H   0  0  0  0  0  0  0  0  0  0  0  0
  139.6279   78.4804  224.2561 H   0  0  0  0  0  0  0  0  0  0  0  0
  1  2  2  0
  2  3  1  0
  3  4  1  0
  4  5  1  0
  5  6  2  0
  5  7  1  0
  7  8  1  0
  8  9  1  0
  9 10  1  0
 10 11  1  0
 11 12  1  0
 12 13  1  0
 13 14  2  0
 14 15  1  0
 15 16  2  0
 16 17  1  0
 17 18  1  0
 17 19  2  0
  2 20  1  0
 20 21  2  0
 21 22  1  0
 22 23  2  0
 23 24  1  0
 24 25  2  0
 25 26  1  0
 25 27  1  0
 27 28  2  0
 28 29  1  0
 29 30  2  0
 12  7  1  0
 19 13  1  0
 30 20  1  0
 29 23  1  0
  3 31  1  0
  4 32  1  0
  4 33  1  0
  8 34  1  0
  8 35  1  0
  9 36  1  0
  9 37  1  0
 10 38  1  0
 10 39  1  0
 11 40  1  0
 11 41  1  0
 12 42  1  6
 14 43  1  0
 15 44  1  0
 16 45  1  0
 19 46  1  0
 21 47  1  0
 22 48  1  0
 24 49  1  0
 27 50  1  0
 28 51  1  0
M  END
>  <smiles>  (33) 
O=C(NCC(=O)N1CCCCC1c1cccc(F)c1)c1ccc2cc(F)ccc2n1

>  <score_type>  (33) 
oracle

>  <origin>  (33) 
autodockgpu

>  <m_score__min__energy>  (33) 
-9.3000000000000007

>  <m_primary>  (33) 
energy

>  <rmsd>  (33) 
8.667362905416843

>  <m_score__min__rmsd>  (33) 
8.667362905416843

>  <meeko>  (33) 
{"free_energy": -8.94, "intermolecular_energy": -10.44, "internal_energy": -1.53, "cluster_size": 12, "cluster_id": 2, "rank_in_cluster": 3}

>  <energy>  (33) 
-8.94

>  <cluster_rmsd>  (33) 
0.6

>  <cluster>  (33) 
2

$$$$

     RDKit          3D

 51 54  0  0  0  0  0  0  0  0999 V2000
  140.7770   72.0560  221.3760 O   0  0  0  0  0  0  0  0  0  0  0  0
  139.9570   72.2260  222.3330 C   0  0  0  0  0  0  0  0  0  0  0  0
  138.9730   73.2610  222.2610 N   0  0  0  0  0  0  0  0  0  0  0  0
  138.9680   74.0860  221.0550 C   0  0  0  0  0  0  0  0  0  0  0  0
  139.4710   75.4630  221.3650 C   0  0  0  0  0  0  0  0  0  0  0  0
  138.6850   76.2360  221.9750 O   0  0  0  0  0  0  0  0  0  0  0  0
  140.7880   75.8430  220.9720 N   0  0  0  0  0  0  0  0  0  0  0  0
  141.8970   74.9250  221.1380 C   0  0  0  0  0  0  0  0  0  0  0  0
  142.8870   75.0100  220.0070 C   0  0  0  0  0  0  0  0  0  0  0  0
  143.1640   76.4390  219.6020 C   0  0  0  0  0  0  0  0  0  0  0  0
  141.8570   77.0680  219.2170 C   0  0  0  0  0  0  0  0  0  0  0  0
  140.9460   77.1770  220.4070 C   0  0  2  0  0  0  0  0  0  0  0  0
  141.3910   78.1860  221.3680 C   0  0  0  0  0  0  0  0  0  0  0  0
  141.8250   79.4500  220.9810 C   0  0  0  0  0  0  0  0  0  0  0  0
  142.2470   80.4000  221.8850 C   0  0  0  0  0  0  0  0  0  0  0  0
  142.2600   80.1380  223.2280 C   0  0  0  0  0  0  0  0  0  0  0  0
  141.8340   78.8930  223.6380 C   0  0  0  0  0  0  0  0  0  0  0  0
  141.8470   78.6340  224.9800 F   0  0  0  0  0  0  0  0  0  0  0  0
  141.4050   77.9280  222.7210 C   0  0  0  0  0  0  0  0  0  0  0  0
  139.9980   71.3750  223.5230 C   0  0  0  0  0  0  0  0  0  0  0  0
  139.5300   70.0780  223.4530 C   0  0  0  0  0  0  0  0  0  0  0  0
  139.5450   69.2240  224.5490 C   0  0  0  0  0  0  0  0  0  0  0  0
  140.0480   69.7120  225.7270 C   0  0  0  0  0  0  0  0  0  0  0  0
  140.0740   68.8770  226.8400 C   0  0  0  0  0  0  0  0  0  0  0  0
  140.5900   69.4150  228.0020 C   0  0  0  0  0  0  0  0  0  0  0  0
  140.6080   68.5820  229.0860 F   0  0  0  0  0  0  0  0  0  0  0  0
  141.0560   70.7080  228.0650 C   0  0  0  0  0  0  0  0  0  0  0  0
  141.0310   71.5330  226.9710 C   0  0  0  0  0  0  0  0  0  0  0  0
  140.5190   71.0150  225.7970 C   0  0  0  0  0  0  0  0  0  0  0  0
  140.4940   71.8320  224.7090 N   0  0  0  0  0  0  0  0  0  0  0  0
  138.3230   73.3800  223.0440 H   0  0  0  0  0  0  0  0  0  0  0  0
  139.6178   73.6244  220.2969 H   0  0  0  0  0  0  0  0  0  0  0  0
  137.9382   74.1582  220.6751 H   0  0  0  0  0  0  0  0  0  0  0  0
  142.4146   75.1628  222.0790 H   0  0  0  0  0  0  0  0  0  0  0  0
  141.4881   73.9039  221.1496 H   0  0  0  0  0  0  0  0  0  0  0  0
  143.8303   74.5420  220.3251 H   0  0  0  0  0  0  0  0  0  0  0  0
  142.4564   74.4888  219.1393 H   0  0  0  0  0  0  0  0  0  0  0  0
  143.6092   76.9874  220.4453 H   0  0  0  0  0  0  0  0  0  0  0  0
  143.8686   76.4695  218.7579 H   0  0  0  0  0  0  0  0  0  0  0  0
  142.0458   78.0740  218.8141 H   0  0  0  0  0  0  0  0  0  0  0  0
  141.3718   76.4364  218.4583 H   0  0  0  0  0  0  0  0  0  0  0  0
  139.9572   77.5446  220.0954 H   0  0  0  0  0  0  0  0  0  0  0  0
  141.8314   79.7009  219.9100 H   0  0  0  0  0  0  0  0  0  0  0  0
  142.5785   81.3840  221.5218 H   0  0  0  0  0  0  0  0  0  0  0  0
  142.5978   80.8929  223.9533 H   0  0  0  0  0  0  0  0  0  0  0  0
  141.0728   76.9453  223.0869 H   0  0  0  0  0  0  0  0  0  0  0  0
  139.1316   69.7080  222.4968 H   0  0  0  0  0  0  0  0  0  0  0  0
  139.1669   68.1937  224.4740 H   0  0  0  0  0  0  0  0  0  0  0  0
  139.7028   67.8424  226.7962 H   0  0  0  0  0  0  0  0  0  0  0  0
  141.4580   71.0884  229.0156 H   0  0  0  0  0  0  0  0  0  0  0  0
  141.4038   72.5665  227.0254 H   0  0  0  0  0  0  0  0  0  0  0  0
  1  2  2  0
  2  3  1  0
  3  4  1  0
  4  5  1  0
  5  6  2  0
  5  7  1  0
  7  8  1  0
  8  9  1  0
  9 10  1  0
 10 11  1  0
 11 12  1  0
 12 13  1  0
 13 14  2  0
 14 15  1  0
 15 16  2  0
 16 17  1  0
 17 18  1  0
 17 19  2  0
  2 20  1  0
 20 21  2  0
 21 22  1  0
 22 23  2  0
 23 24  1  0
 24 25  2  0
 25 26  1  0
 25 27  1  0
 27 28  2  0
 28 29  1  0
 29 30  2  0
 12  7  1  0
 19 13  1  0
 30 20  1  0
 29 23  1  0
  3 31  1  0
  4 32  1  0
  4 33  1  0
  8 34  1  0
  8 35  1  0
  9 36  1  0
  9 37  1  0
 10 38  1  0
 10 39  1  0
 11 40  1  0
 11 41  1  0
 12 42  1  6
 14 43  1  0
 15 44  1  0
 16 45  1  0
 19 46  1  0
 21 47  1  0
 22 48  1  0
 24 49  1  0
 27 50  1  0
 28 51  1  0
M  END
>  <smiles>  (34) 
O=C(NCC(=O)N1CCCCC1c1cccc(F)c1)c1ccc2cc(F)ccc2n1

>  <score_type>  (34) 
oracle

>  <origin>  (34) 
autodockgpu

>  <m_score__min__energy>  (34) 
-9.3000000000000007

>  <m_primary>  (34) 
energy

>  <rmsd>  (34) 
2.0047934624191313

>  <m_score__min__rmsd>  (34) 
2.0047934624191313

>  <meeko>  (34) 
{"free_energy": -9.08, "intermolecular_energy": -10.57, "internal_energy": -1.52, "cluster_size": 30, "cluster_id": 1, "rank_in_cluster": 22}

>  <energy>  (34) 
-8.94

>  <cluster_rmsd>  (34) 
0.49

>  <cluster>  (34) 
2

$$$$

     RDKit          3D

 51 54  0  0  0  0  0  0  0  0999 V2000
  141.2570   72.4280  221.9110 O   0  0  0  0  0  0  0  0  0  0  0  0
  140.2130   72.3240  222.6300 C   0  0  0  0  0  0  0  0  0  0  0  0
  139.0640   73.1280  222.3490 N   0  0  0  0  0  0  0  0  0  0  0  0
  139.1610   74.0490  221.2200 C   0  0  0  0  0  0  0  0  0  0  0  0
  139.5920   75.4050  221.6900 C   0  0  0  0  0  0  0  0  0  0  0  0
  138.9100   75.9360  222.6070 O   0  0  0  0  0  0  0  0  0  0  0  0
  140.7290   76.0320  221.1020 N   0  0  0  0  0  0  0  0  0  0  0  0
  141.9500   75.2840  220.8850 C   0  0  0  0  0  0  0  0  0  0  0  0
  142.6420   75.6680  219.6040 C   0  0  0  0  0  0  0  0  0  0  0  0
  142.6420   77.1630  219.3880 C   0  0  0  0  0  0  0  0  0  0  0  0
  141.2140   77.6270  219.3850 C   0  0  0  0  0  0  0  0  0  0  0  0
  140.5900   77.4370  220.7380 C   0  0  2  0  0  0  0  0  0  0  0  0
  141.1130   78.3690  221.7370 C   0  0  0  0  0  0  0  0  0  0  0  0
  141.3550   77.9970  223.0560 C   0  0  0  0  0  0  0  0  0  0  0  0
  141.8450   78.8750  223.9980 C   0  0  0  0  0  0  0  0  0  0  0  0
  142.1200   80.1750  223.6730 C   0  0  0  0  0  0  0  0  0  0  0  0
  141.8900   80.5700  222.3730 C   0  0  0  0  0  0  0  0  0  0  0  0
  142.1660   81.8680  222.0510 F   0  0  0  0  0  0  0  0  0  0  0  0
  141.3920   79.6790  221.4160 C   0  0  0  0  0  0  0  0  0  0  0  0
  140.1610   71.3860  223.7520 C   0  0  0  0  0  0  0  0  0  0  0  0
  139.6190   70.1300  223.5700 C   0  0  0  0  0  0  0  0  0  0  0  0
  139.5440   69.1980  224.5990 C   0  0  0  0  0  0  0  0  0  0  0  0
  140.0320   69.5670  225.8250 C   0  0  0  0  0  0  0  0  0  0  0  0
  139.9690   68.6520  226.8720 C   0  0  0  0  0  0  0  0  0  0  0  0
  140.4730   69.0700  228.0870 C   0  0  0  0  0  0  0  0  0  0  0  0
  140.4030   68.1610  229.1050 F   0  0  0  0  0  0  0  0  0  0  0  0
  141.0120   70.3240  228.2620 C   0  0  0  0  0  0  0  0  0  0  0  0
  141.0750   71.2280  227.2330 C   0  0  0  0  0  0  0  0  0  0  0  0
  140.5770   70.8300  226.0090 C   0  0  0  0  0  0  0  0  0  0  0  0
  140.6390   71.7240  224.9850 N   0  0  0  0  0  0  0  0  0  0  0  0
  138.2350   73.0270  222.9420 H   0  0  0  0  0  0  0  0  0  0  0  0
  139.8976   73.6636  220.4997 H   0  0  0  0  0  0  0  0  0  0  0  0
  138.1741   74.1333  220.7415 H   0  0  0  0  0  0  0  0  0  0  0  0
  142.6337   75.4733  221.7257 H   0  0  0  0  0  0  0  0  0  0  0  0
  141.6815   74.2197  220.8136 H   0  0  0  0  0  0  0  0  0  0  0  0
  143.6830   75.3146  219.6428 H   0  0  0  0  0  0  0  0  0  0  0  0
  142.0955   75.2038  218.7698 H   0  0  0  0  0  0  0  0  0  0  0  0
  143.1945   77.6583  220.2000 H   0  0  0  0  0  0  0  0  0  0  0  0
  143.1290   77.4131  218.4339 H   0  0  0  0  0  0  0  0  0  0  0  0
  141.1818   78.6940  219.1193 H   0  0  0  0  0  0  0  0  0  0  0  0
  140.6512   77.0329  218.6499 H   0  0  0  0  0  0  0  0  0  0  0  0
  139.5188   77.6838  220.6988 H   0  0  0  0  0  0  0  0  0  0  0  0
  141.1467   76.9602  223.3587 H   0  0  0  0  0  0  0  0  0  0  0  0
  142.0176   78.5254  225.0266 H   0  0  0  0  0  0  0  0  0  0  0  0
  142.5105   80.8795  224.4222 H   0  0  0  0  0  0  0  0  0  0  0  0
  141.2201   80.0313  220.3882 H   0  0  0  0  0  0  0  0  0  0  0  0
  139.2331   69.8568  222.5768 H   0  0  0  0  0  0  0  0  0  0  0  0
  139.1089   68.2011  224.4349 H   0  0  0  0  0  0  0  0  0  0  0  0
  139.5399   67.6481  226.7381 H   0  0  0  0  0  0  0  0  0  0  0  0
  141.4015   70.6079  229.2508 H   0  0  0  0  0  0  0  0  0  0  0  0
  141.5051   72.2301  227.3773 H   0  0  0  0  0  0  0  0  0  0  0  0
  1  2  2  0
  2  3  1  0
  3  4  1  0
  4  5  1  0
  5  6  2  0
  5  7  1  0
  7  8  1  0
  8  9  1  0
  9 10  1  0
 10 11  1  0
 11 12  1  0
 12 13  1  0
 13 14  2  0
 14 15  1  0
 15 16  2  0
 16 17  1  0
 17 18  1  0
 17 19  2  0
  2 20  1  0
 20 21  2  0
 21 22  1  0
 22 23  2  0
 23 24  1  0
 24 25  2  0
 25 26  1  0
 25 27  1  0
 27 28  2  0
 28 29  1  0
 29 30  2  0
 12  7  1  0
 19 13  1  0
 30 20  1  0
 29 23  1  0
  3 31  1  0
  4 32  1  0
  4 33  1  0
  8 34  1  0
  8 35  1  0
  9 36  1  0
  9 37  1  0
 10 38  1  0
 10 39  1  0
 11 40  1  0
 11 41  1  0
 12 42  1  6
 14 43  1  0
 15 44  1  0
 16 45  1  0
 19 46  1  0
 21 47  1  0
 22 48  1  0
 24 49  1  0
 27 50  1  0
 28 51  1  0
M  END
>  <smiles>  (35) 
O=C(NCC(=O)N1CCCCC1c1cccc(F)c1)c1ccc2cc(F)ccc2n1

>  <score_type>  (35) 
oracle

>  <origin>  (35) 
autodockgpu

>  <m_score__min__energy>  (35) 
-9.3000000000000007

>  <m_primary>  (35) 
energy

>  <rmsd>  (35) 
1.9864861421907767

>  <m_score__min__rmsd>  (35) 
1.9864861421907767

>  <meeko>  (35) 
{"free_energy": -9.29, "intermolecular_energy": -10.79, "internal_energy": -1.49, "cluster_size": 30, "cluster_id": 1, "rank_in_cluster": 2}

>  <energy>  (35) 
-8.91

>  <cluster_rmsd>  (35) 
1.01

>  <cluster>  (35) 
2

$$$$

     RDKit          3D

 51 54  0  0  0  0  0  0  0  0999 V2000
  141.1430   72.4570  221.8540 O   0  0  0  0  0  0  0  0  0  0  0  0
  140.1250   72.3850  222.6120 C   0  0  0  0  0  0  0  0  0  0  0  0
  138.9810   73.2050  222.3600 N   0  0  0  0  0  0  0  0  0  0  0  0
  139.0530   74.1050  221.2120 C   0  0  0  0  0  0  0  0  0  0  0  0
  139.4720   75.4760  221.6510 C   0  0  0  0  0  0  0  0  0  0  0  0
  138.7440   76.0520  222.5020 O   0  0  0  0  0  0  0  0  0  0  0  0
  140.6500   76.0650  221.1060 N   0  0  0  0  0  0  0  0  0  0  0  0
  141.8510   75.2750  220.9250 C   0  0  0  0  0  0  0  0  0  0  0  0
  142.5990   75.6430  219.6710 C   0  0  0  0  0  0  0  0  0  0  0  0
  142.6600   77.1380  219.4670 C   0  0  0  0  0  0  0  0  0  0  0  0
  141.2510   77.6540  219.4200 C   0  0  0  0  0  0  0  0  0  0  0  0
  140.5740   77.4760  220.7500 C   0  0  2  0  0  0  0  0  0  0  0  0
  141.0960   78.3820  221.7730 C   0  0  0  0  0  0  0  0  0  0  0  0
  141.3490   77.9730  223.0790 C   0  0  0  0  0  0  0  0  0  0  0  0
  141.8380   78.8250  224.0440 C   0  0  0  0  0  0  0  0  0  0  0  0
  142.1010   80.1370  223.7580 C   0  0  0  0  0  0  0  0  0  0  0  0
  141.8590   80.5690  222.4710 C   0  0  0  0  0  0  0  0  0  0  0  0
  142.1230   81.8790  222.1870 F   0  0  0  0  0  0  0  0  0  0  0  0
  141.3630   79.7040  221.4900 C   0  0  0  0  0  0  0  0  0  0  0  0
  140.0980   71.4670  223.7520 C   0  0  0  0  0  0  0  0  0  0  0  0
  139.5580   70.2060  223.6020 C   0  0  0  0  0  0  0  0  0  0  0  0
  139.5060   69.2920  224.6490 C   0  0  0  0  0  0  0  0  0  0  0  0
  140.0150   69.6840  225.8590 C   0  0  0  0  0  0  0  0  0  0  0  0
  139.9740   68.7890  226.9230 C   0  0  0  0  0  0  0  0  0  0  0  0
  140.4980   69.2310  228.1210 C   0  0  0  0  0  0  0  0  0  0  0  0
  140.4510   68.3390  229.1570 F   0  0  0  0  0  0  0  0  0  0  0  0
  141.0350   70.4900  228.2640 C   0  0  0  0  0  0  0  0  0  0  0  0
  141.0760   71.3750  227.2180 C   0  0  0  0  0  0  0  0  0  0  0  0
  140.5570   70.9530  226.0100 C   0  0  0  0  0  0  0  0  0  0  0  0
  140.5970   71.8290  224.9690 N   0  0  0  0  0  0  0  0  0  0  0  0
  138.1730   73.1300  222.9850 H   0  0  0  0  0  0  0  0  0  0  0  0
  139.7862   73.7151  220.4907 H   0  0  0  0  0  0  0  0  0  0  0  0
  138.0597   74.1673  220.7434 H   0  0  0  0  0  0  0  0  0  0  0  0
  142.5119   75.4344  221.7897 H   0  0  0  0  0  0  0  0  0  0  0  0
  141.5481   74.2212  220.8367 H   0  0  0  0  0  0  0  0  0  0  0  0
  143.6247   75.2520  219.7416 H   0  0  0  0  0  0  0  0  0  0  0  0
  142.0643   75.2048  218.8154 H   0  0  0  0  0  0  0  0  0  0  0  0
  143.2025   77.6074  220.3009 H   0  0  0  0  0  0  0  0  0  0  0  0
  143.1873   77.3763  218.5315 H   0  0  0  0  0  0  0  0  0  0  0  0
  141.2668   78.7235  219.1634 H   0  0  0  0  0  0  0  0  0  0  0  0
  140.6925   77.0869  218.6608 H   0  0  0  0  0  0  0  0  0  0  0  0
  139.5139   77.7603  220.6776 H   0  0  0  0  0  0  0  0  0  0  0  0
  141.1502   76.9260  223.3516 H   0  0  0  0  0  0  0  0  0  0  0  0
  142.0199   78.4451  225.0602 H   0  0  0  0  0  0  0  0  0  0  0  0
  142.4908   80.8214  224.5259 H   0  0  0  0  0  0  0  0  0  0  0  0
  141.1828   80.0859  220.4743 H   0  0  0  0  0  0  0  0  0  0  0  0
  139.1550   69.9138  222.6211 H   0  0  0  0  0  0  0  0  0  0  0  0
  139.0720   68.2908  224.5106 H   0  0  0  0  0  0  0  0  0  0  0  0
  139.5462   67.7813  226.8153 H   0  0  0  0  0  0  0  0  0  0  0  0
  141.4408   70.7932  229.2404 H   0  0  0  0  0  0  0  0  0  0  0  0
  141.5051   72.3809  227.3362 H   0  0  0  0  0  0  0  0  0  0  0  0
  1  2  2  0
  2  3  1  0
  3  4  1  0
  4  5  1  0
  5  6  2  0
  5  7  1  0
  7  8  1  0
  8  9  1  0
  9 10  1  0
 10 11  1  0
 11 12  1  0
 12 13  1  0
 13 14  2  0
 14 15  1  0
 15 16  2  0
 16 17  1  0
 17 18  1  0
 17 19  2  0
  2 20  1  0
 20 21  2  0
 21 22  1  0
 22 23  2  0
 23 24  1  0
 24 25  2  0
 25 26  1  0
 25 27  1  0
 27 28  2  0
 28 29  1  0
 29 30  2  0
 12  7  1  0
 19 13  1  0
 30 20  1  0
 29 23  1  0
  3 31  1  0
  4 32  1  0
  4 33  1  0
  8 34  1  0
  8 35  1  0
  9 36  1  0
  9 37  1  0
 10 38  1  0
 10 39  1  0
 11 40  1  0
 11 41  1  0
 12 42  1  6
 14 43  1  0
 15 44  1  0
 16 45  1  0
 19 46  1  0
 21 47  1  0
 22 48  1  0
 24 49  1  0
 27 50  1  0
 28 51  1  0
M  END
>  <smiles>  (36) 
O=C(NCC(=O)N1CCCCC1c1cccc(F)c1)c1ccc2cc(F)ccc2n1

>  <score_type>  (36) 
oracle

>  <origin>  (36) 
autodockgpu

>  <m_score__min__energy>  (36) 
-9.3000000000000007

>  <m_primary>  (36) 
energy

>  <rmsd>  (36) 
1.9862192315506908

>  <m_score__min__rmsd>  (36) 
1.9862192315506908

>  <meeko>  (36) 
{"free_energy": -9.28, "intermolecular_energy": -10.77, "internal_energy": -1.49, "cluster_size": 30, "cluster_id": 1, "rank_in_cluster": 6}

>  <energy>  (36) 
-8.89

>  <cluster_rmsd>  (36) 
1.01

>  <cluster>  (36) 
2

$$$$

     RDKit          3D

 51 54  0  0  0  0  0  0  0  0999 V2000
  141.2640   72.7680  222.0780 O   0  0  0  0  0  0  0  0  0  0  0  0
  140.1810   72.5500  222.7090 C   0  0  0  0  0  0  0  0  0  0  0  0
  138.9860   73.2490  222.3480 N   0  0  0  0  0  0  0  0  0  0  0  0
  139.0840   74.2000  221.2440 C   0  0  0  0  0  0  0  0  0  0  0  0
  139.5740   75.5260  221.7410 C   0  0  0  0  0  0  0  0  0  0  0  0
  138.9510   76.0410  222.7060 O   0  0  0  0  0  0  0  0  0  0  0  0
  140.7010   76.1430  221.1230 N   0  0  0  0  0  0  0  0  0  0  0  0
  141.9150   75.3870  220.8880 C   0  0  0  0  0  0  0  0  0  0  0  0
  142.5810   75.7560  219.5890 C   0  0  0  0  0  0  0  0  0  0  0  0
  142.5820   77.2490  219.3580 C   0  0  0  0  0  0  0  0  0  0  0  0
  141.1570   77.7190  219.3810 C   0  0  0  0  0  0  0  0  0  0  0  0
  140.5600   77.5440  220.7490 C   0  0  2  0  0  0  0  0  0  0  0  0
  141.1070   78.4830  221.7270 C   0  0  0  0  0  0  0  0  0  0  0  0
  141.3910   78.1200  223.0390 C   0  0  0  0  0  0  0  0  0  0  0  0
  141.9040   79.0040  223.9630 C   0  0  0  0  0  0  0  0  0  0  0  0
  142.1610   80.3050  223.6240 C   0  0  0  0  0  0  0  0  0  0  0  0
  141.8900   80.6920  222.3290 C   0  0  0  0  0  0  0  0  0  0  0  0
  142.1480   81.9900  221.9930 F   0  0  0  0  0  0  0  0  0  0  0  0
  141.3690   79.7940  221.3920 C   0  0  0  0  0  0  0  0  0  0  0  0
  140.1300   71.5870  223.8090 C   0  0  0  0  0  0  0  0  0  0  0  0
  139.5670   70.3440  223.6050 C   0  0  0  0  0  0  0  0  0  0  0  0
  139.4920   69.3880  224.6120 C   0  0  0  0  0  0  0  0  0  0  0  0
  140.0020   69.7200  225.8400 C   0  0  0  0  0  0  0  0  0  0  0  0
  139.9390   68.7820  226.8660 C   0  0  0  0  0  0  0  0  0  0  0  0
  140.4660   69.1640  228.0840 C   0  0  0  0  0  0  0  0  0  0  0  0
  140.3960   68.2320  229.0810 F   0  0  0  0  0  0  0  0  0  0  0  0
  141.0260   70.4060  228.2810 C   0  0  0  0  0  0  0  0  0  0  0  0
  141.0890   71.3320  227.2720 C   0  0  0  0  0  0  0  0  0  0  0  0
  140.5680   70.9710  226.0460 C   0  0  0  0  0  0  0  0  0  0  0  0
  140.6300   71.8880  225.0420 N   0  0  0  0  0  0  0  0  0  0  0  0
  138.1260   73.0570  222.8710 H   0  0  0  0  0  0  0  0  0  0  0  0
  139.7871   73.8120  220.4923 H   0  0  0  0  0  0  0  0  0  0  0  0
  138.0880   74.3319  220.7962 H   0  0  0  0  0  0  0  0  0  0  0  0
  142.6170   75.5816  221.7122 H   0  0  0  0  0  0  0  0  0  0  0  0
  141.6411   74.3231  220.8331 H   0  0  0  0  0  0  0  0  0  0  0  0
  143.6213   75.3990  219.6092 H   0  0  0  0  0  0  0  0  0  0  0  0
  142.0150   75.2859  218.7713 H   0  0  0  0  0  0  0  0  0  0  0  0
  143.1539   77.7500  220.1529 H   0  0  0  0  0  0  0  0  0  0  0  0
  143.0491   77.4873  218.3910 H   0  0  0  0  0  0  0  0  0  0  0  0
  141.1238   78.7837  219.1064 H   0  0  0  0  0  0  0  0  0  0  0  0
  140.5765   77.1206  218.6635 H   0  0  0  0  0  0  0  0  0  0  0  0
  139.4890   77.7943  220.7300 H   0  0  0  0  0  0  0  0  0  0  0  0
  141.1980   77.0834  223.3524 H   0  0  0  0  0  0  0  0  0  0  0  0
  142.1099   78.6595  224.9872 H   0  0  0  0  0  0  0  0  0  0  0  0
  142.5688   81.0156  224.3580 H   0  0  0  0  0  0  0  0  0  0  0  0
  141.1645   80.1405  220.3682 H   0  0  0  0  0  0  0  0  0  0  0  0
  139.1634   70.1008  222.6111 H   0  0  0  0  0  0  0  0  0  0  0  0
  139.0401   68.4018  224.4297 H   0  0  0  0  0  0  0  0  0  0  0  0
  139.4927   67.7881  226.7147 H   0  0  0  0  0  0  0  0  0  0  0  0
  141.4323   70.6614  229.2708 H   0  0  0  0  0  0  0  0  0  0  0  0
  141.5371   72.3236  227.4332 H   0  0  0  0  0  0  0  0  0  0  0  0
  1  2  2  0
  2  3  1  0
  3  4  1  0
  4  5  1  0
  5  6  2  0
  5  7  1  0
  7  8  1  0
  8  9  1  0
  9 10  1  0
 10 11  1  0
 11 12  1  0
 12 13  1  0
 13 14  2  0
 14 15  1  0
 15 16  2  0
 16 17  1  0
 17 18  1  0
 17 19  2  0
  2 20  1  0
 20 21  2  0
 21 22  1  0
 22 23  2  0
 23 24  1  0
 24 25  2  0
 25 26  1  0
 25 27  1  0
 27 28  2  0
 28 29  1  0
 29 30  2  0
 12  7  1  0
 19 13  1  0
 30 20  1  0
 29 23  1  0
  3 31  1  0
  4 32  1  0
  4 33  1  0
  8 34  1  0
  8 35  1  0
  9 36  1  0
  9 37  1  0
 10 38  1  0
 10 39  1  0
 11 40  1  0
 11 41  1  0
 12 42  1  6
 14 43  1  0
 15 44  1  0
 16 45  1  0
 19 46  1  0
 21 47  1  0
 22 48  1  0
 24 49  1  0
 27 50  1  0
 28 51  1  0
M  END
>  <smiles>  (37) 
O=C(NCC(=O)N1CCCCC1c1cccc(F)c1)c1ccc2cc(F)ccc2n1

>  <score_type>  (37) 
oracle

>  <origin>  (37) 
autodockgpu

>  <m_score__min__energy>  (37) 
-9.3000000000000007

>  <m_primary>  (37) 
energy

>  <rmsd>  (37) 
2.019816098267671

>  <m_score__min__rmsd>  (37) 
2.019816098267671

>  <meeko>  (37) 
{"free_energy": -9.28, "intermolecular_energy": -10.78, "internal_energy": -1.47, "cluster_size": 30, "cluster_id": 1, "rank_in_cluster": 5}

>  <energy>  (37) 
-8.59

>  <cluster_rmsd>  (37) 
1.61

>  <cluster>  (37) 
2

$$$$

     RDKit          3D

 51 54  0  0  0  0  0  0  0  0999 V2000
  140.8870   73.8670  220.3720 O   0  0  0  0  0  0  0  0  0  0  0  0
  140.3660   74.6490  221.2300 C   0  0  0  0  0  0  0  0  0  0  0  0
  139.3150   74.1850  222.0810 N   0  0  0  0  0  0  0  0  0  0  0  0
  138.8890   72.7980  221.9100 C   0  0  0  0  0  0  0  0  0  0  0  0
  139.6510   71.9020  222.8400 C   0  0  0  0  0  0  0  0  0  0  0  0
  140.9070   71.9700  222.7980 O   0  0  0  0  0  0  0  0  0  0  0  0
  138.9460   71.0270  223.7170 N   0  0  0  0  0  0  0  0  0  0  0  0
  137.5260   71.2000  223.9430 C   0  0  0  0  0  0  0  0  0  0  0  0
  136.8000   69.8890  224.0820 C   0  0  0  0  0  0  0  0  0  0  0  0
  137.5690   68.9030  224.9300 C   0  0  0  0  0  0  0  0  0  0  0  0
  138.9160   68.7060  224.2980 C   0  0  0  0  0  0  0  0  0  0  0  0
  139.7230   69.9720  224.3560 C   0  0  2  0  0  0  0  0  0  0  0  0
  140.1710   70.2940  225.7100 C   0  0  0  0  0  0  0  0  0  0  0  0
  140.0410   69.4080  226.7740 C   0  0  0  0  0  0  0  0  0  0  0  0
  140.4600   69.7110  228.0510 C   0  0  0  0  0  0  0  0  0  0  0  0
  141.0320   70.9210  228.3360 C   0  0  0  0  0  0  0  0  0  0  0  0
  141.1730   71.8190  227.2990 C   0  0  0  0  0  0  0  0  0  0  0  0
  141.7450   73.0260  227.5850 F   0  0  0  0  0  0  0  0  0  0  0  0
  140.7480   71.5110  226.0020 C   0  0  0  0  0  0  0  0  0  0  0  0
  140.8260   76.0320  221.3660 C   0  0  0  0  0  0  0  0  0  0  0  0
  141.7320   76.5440  220.4590 C   0  0  0  0  0  0  0  0  0  0  0  0
  142.2030   77.8500  220.5380 C   0  0  0  0  0  0  0  0  0  0  0  0
  141.7350   78.6320  221.5610 C   0  0  0  0  0  0  0  0  0  0  0  0
  142.1900   79.9430  221.6630 C   0  0  0  0  0  0  0  0  0  0  0  0
  141.6900   80.6900  222.7100 C   0  0  0  0  0  0  0  0  0  0  0  0
  142.1480   81.9750  222.7960 F   0  0  0  0  0  0  0  0  0  0  0  0
  140.7870   80.1730  223.6100 C   0  0  0  0  0  0  0  0  0  0  0  0
  140.3360   78.8820  223.5130 C   0  0  0  0  0  0  0  0  0  0  0  0
  140.8240   78.1170  222.4730 C   0  0  0  0  0  0  0  0  0  0  0  0
  140.3780   76.8350  222.3730 N   0  0  0  0  0  0  0  0  0  0  0  0
  138.9110   74.8330  222.7630 H   0  0  0  0  0  0  0  0  0  0  0  0
  137.8140   72.7188  222.1292 H   0  0  0  0  0  0  0  0  0  0  0  0
  139.0856   72.4882  220.8730 H   0  0  0  0  0  0  0  0  0  0  0  0
  137.3841   71.7813  224.8660 H   0  0  0  0  0  0  0  0  0  0  0  0
  137.1097   71.7212  223.0683 H   0  0  0  0  0  0  0  0  0  0  0  0
  135.8217   70.0728  224.5502 H   0  0  0  0  0  0  0  0  0  0  0  0
  136.6854   69.4560  223.0773 H   0  0  0  0  0  0  0  0  0  0  0  0
  137.6883   69.2994  225.9491 H   0  0  0  0  0  0  0  0  0  0  0  0
  137.0297   67.9462  224.9906 H   0  0  0  0  0  0  0  0  0  0  0  0
  139.4536   67.9108  224.8352 H   0  0  0  0  0  0  0  0  0  0  0  0
  138.7733   68.4269  223.2436 H   0  0  0  0  0  0  0  0  0  0  0  0
  140.6651   69.8470  223.8020 H   0  0  0  0  0  0  0  0  0  0  0  0
  139.5847   68.4245  226.5883 H   0  0  0  0  0  0  0  0  0  0  0  0
  140.3329   68.9693  228.8533 H   0  0  0  0  0  0  0  0  0  0  0  0
  141.3668   71.1681  229.3542 H   0  0  0  0  0  0  0  0  0  0  0  0
  140.8768   72.2537  225.2009 H   0  0  0  0  0  0  0  0  0  0  0  0
  142.0936   75.8970  219.6462 H   0  0  0  0  0  0  0  0  0  0  0  0
  142.9249   78.2409  219.8059 H   0  0  0  0  0  0  0  0  0  0  0  0
  142.9111   80.3623  220.9460 H   0  0  0  0  0  0  0  0  0  0  0  0
  140.4181   80.8107  224.4269 H   0  0  0  0  0  0  0  0  0  0  0  0
  139.6142   78.4723  224.2350 H   0  0  0  0  0  0  0  0  0  0  0  0
  1  2  2  0
  2  3  1  0
  3  4  1  0
  4  5  1  0
  5  6  2  0
  5  7  1  0
  7  8  1  0
  8  9  1  0
  9 10  1  0
 10 11  1  0
 11 12  1  0
 12 13  1  0
 13 14  2  0
 14 15  1  0
 15 16  2  0
 16 17  1  0
 17 18  1  0
 17 19  2  0
  2 20  1  0
 20 21  2  0
 21 22  1  0
 22 23  2  0
 23 24  1  0
 24 25  2  0
 25 26  1  0
 25 27  1  0
 27 28  2  0
 28 29  1  0
 29 30  2  0
 12  7  1  0
 19 13  1  0
 30 20  1  0
 29 23  1  0
  3 31  1  0
  4 32  1  0
  4 33  1  0
  8 34  1  0
  8 35  1  0
  9 36  1  0
  9 37  1  0
 10 38  1  0
 10 39  1  0
 11 40  1  0
 11 41  1  0
 12 42  1  6
 14 43  1  0
 15 44  1  0
 16 45  1  0
 19 46  1  0
 21 47  1  0
 22 48  1  0
 24 49  1  0
 27 50  1  0
 28 51  1  0
M  END
>  <smiles>  (38) 
O=C(NCC(=O)N1CCCCC1c1cccc(F)c1)c1ccc2cc(F)ccc2n1

>  <score_type>  (38) 
oracle

>  <origin>  (38) 
autodockgpu

>  <m_score__min__energy>  (38) 
-9.3000000000000007

>  <m_primary>  (38) 
energy

>  <rmsd>  (38) 
8.665912705055943

>  <m_score__min__rmsd>  (38) 
8.665912705055943

>  <meeko>  (38) 
{"free_energy": -8.96, "intermolecular_energy": -10.45, "internal_energy": -1.52, "cluster_size": 12, "cluster_id": 2, "rank_in_cluster": 2}

>  <energy>  (38) 
-8.58

>  <cluster_rmsd>  (38) 
1.61

>  <cluster>  (38) 
2

$$$$

     RDKit          3D

 51 54  0  0  0  0  0  0  0  0999 V2000
  140.9100   73.9490  220.3010 O   0  0  0  0  0  0  0  0  0  0  0  0
  140.4090   74.7010  221.1960 C   0  0  0  0  0  0  0  0  0  0  0  0
  139.4040   74.1950  222.0790 N   0  0  0  0  0  0  0  0  0  0  0  0
  139.0010   72.8030  221.8940 C   0  0  0  0  0  0  0  0  0  0  0  0
  139.7870   71.9090  222.8050 C   0  0  0  0  0  0  0  0  0  0  0  0
  141.0420   71.9760  222.7290 O   0  0  0  0  0  0  0  0  0  0  0  0
  139.1060   71.0380  223.7050 N   0  0  0  0  0  0  0  0  0  0  0  0
  137.6790   71.1740  223.9200 C   0  0  0  0  0  0  0  0  0  0  0  0
  136.9940   69.8440  224.0930 C   0  0  0  0  0  0  0  0  0  0  0  0
  137.7900   68.9090  224.9730 C   0  0  0  0  0  0  0  0  0  0  0  0
  139.1450   68.7350  224.3520 C   0  0  0  0  0  0  0  0  0  0  0  0
  139.9120   70.0270  224.3760 C   0  0  2  0  0  0  0  0  0  0  0  0
  140.3430   70.4010  225.7230 C   0  0  0  0  0  0  0  0  0  0  0  0
  140.6980   71.7030  226.0620 C   0  0  0  0  0  0  0  0  0  0  0  0
  141.1070   72.0560  227.3300 C   0  0  0  0  0  0  0  0  0  0  0  0
  141.1840   71.1260  228.3300 C   0  0  0  0  0  0  0  0  0  0  0  0
  140.8370   69.8280  228.0200 C   0  0  0  0  0  0  0  0  0  0  0  0
  140.9150   68.9000  229.0210 F   0  0  0  0  0  0  0  0  0  0  0  0
  140.4220   69.4680  226.7340 C   0  0  0  0  0  0  0  0  0  0  0  0
  140.8440   76.0900  221.3440 C   0  0  0  0  0  0  0  0  0  0  0  0
  141.7270   76.6320  220.4320 C   0  0  0  0  0  0  0  0  0  0  0  0
  142.1740   77.9450  220.5220 C   0  0  0  0  0  0  0  0  0  0  0  0
  141.7060   78.7050  221.5620 C   0  0  0  0  0  0  0  0  0  0  0  0
  142.1390   80.0220  221.6760 C   0  0  0  0  0  0  0  0  0  0  0  0
  141.6400   80.7450  222.7400 C   0  0  0  0  0  0  0  0  0  0  0  0
  142.0750   82.0380  222.8370 F   0  0  0  0  0  0  0  0  0  0  0  0
  140.7600   80.1990  223.6460 C   0  0  0  0  0  0  0  0  0  0  0  0
  140.3330   78.9020  223.5380 C   0  0  0  0  0  0  0  0  0  0  0  0
  140.8190   78.1600  222.4800 C   0  0  0  0  0  0  0  0  0  0  0  0
  140.3960   76.8710  222.3690 N   0  0  0  0  0  0  0  0  0  0  0  0
  139.0140   74.8190  222.7910 H   0  0  0  0  0  0  0  0  0  0  0  0
  137.9296   72.7019  222.1219 H   0  0  0  0  0  0  0  0  0  0  0  0
  139.1934   72.5101  220.8513 H   0  0  0  0  0  0  0  0  0  0  0  0
  137.5142   71.7764  224.8255 H   0  0  0  0  0  0  0  0  0  0  0  0
  137.2508   71.6579  223.0298 H   0  0  0  0  0  0  0  0  0  0  0  0
  136.0075   70.0092  224.5508 H   0  0  0  0  0  0  0  0  0  0  0  0
  136.8986   69.3788  223.1008 H   0  0  0  0  0  0  0  0  0  0  0  0
  137.8926   69.3398  225.9799 H   0  0  0  0  0  0  0  0  0  0  0  0
  137.2806   67.9380  225.0609 H   0  0  0  0  0  0  0  0  0  0  0  0
  139.7044   67.9728  224.9143 H   0  0  0  0  0  0  0  0  0  0  0  0
  139.0160   68.4205  223.3058 H   0  0  0  0  0  0  0  0  0  0  0  0
  140.8597   69.9162  223.8287 H   0  0  0  0  0  0  0  0  0  0  0  0
  140.6503   72.4819  225.2868 H   0  0  0  0  0  0  0  0  0  0  0  0
  141.3756   73.1016  227.5410 H   0  0  0  0  0  0  0  0  0  0  0  0
  141.5104   71.4031  229.3432 H   0  0  0  0  0  0  0  0  0  0  0  0
  140.1539   68.4217  226.5258 H   0  0  0  0  0  0  0  0  0  0  0  0
  142.0895   76.0031  219.6055 H   0  0  0  0  0  0  0  0  0  0  0  0
  142.8779   78.3591  219.7851 H   0  0  0  0  0  0  0  0  0  0  0  0
  142.8427   80.4641  220.9553 H   0  0  0  0  0  0  0  0  0  0  0  0
  140.3907   80.8186  224.4765 H   0  0  0  0  0  0  0  0  0  0  0  0
  139.6307   78.4688  224.2654 H   0  0  0  0  0  0  0  0  0  0  0  0
  1  2  2  0
  2  3  1  0
  3  4  1  0
  4  5  1  0
  5  6  2  0
  5  7  1  0
  7  8  1  0
  8  9  1  0
  9 10  1  0
 10 11  1  0
 11 12  1  0
 12 13  1  0
 13 14  2  0
 14 15  1  0
 15 16  2  0
 16 17  1  0
 17 18  1  0
 17 19  2  0
  2 20  1  0
 20 21  2  0
 21 22  1  0
 22 23  2  0
 23 24  1  0
 24 25  2  0
 25 26  1  0
 25 27  1  0
 27 28  2  0
 28 29  1  0
 29 30  2  0
 12  7  1  0
 19 13  1  0
 30 20  1  0
 29 23  1  0
  3 31  1  0
  4 32  1  0
  4 33  1  0
  8 34  1  0
  8 35  1  0
  9 36  1  0
  9 37  1  0
 10 38  1  0
 10 39  1  0
 11 40  1  0
 11 41  1  0
 12 42  1  6
 14 43  1  0
 15 44  1  0
 16 45  1  0
 19 46  1  0
 21 47  1  0
 22 48  1  0
 24 49  1  0
 27 50  1  0
 28 51  1  0
M  END
>  <smiles>  (39) 
O=C(NCC(=O)N1CCCCC1c1cccc(F)c1)c1ccc2cc(F)ccc2n1

>  <score_type>  (39) 
oracle

>  <origin>  (39) 
autodockgpu

>  <m_score__min__energy>  (39) 
-9.3000000000000007

>  <m_primary>  (39) 
energy

>  <rmsd>  (39) 
8.677138978693941

>  <m_score__min__rmsd>  (39) 
8.677138978693941

>  <meeko>  (39) 
{"free_energy": -8.91, "intermolecular_energy": -10.4, "internal_energy": -1.58, "cluster_size": 12, "cluster_id": 2, "rank_in_cluster": 5}

>  <energy>  (39) 
-8.57

>  <cluster_rmsd>  (39) 
1.61

>  <cluster>  (39) 
2

$$$$

     RDKit          3D

 51 54  0  0  0  0  0  0  0  0999 V2000
  140.9710   71.6220  221.2520 O   0  0  0  0  0  0  0  0  0  0  0  0
  140.4180   72.0830  222.3010 C   0  0  0  0  0  0  0  0  0  0  0  0
  139.9550   73.4350  222.3330 N   0  0  0  0  0  0  0  0  0  0  0  0
  140.1490   74.2300  221.1230 C   0  0  0  0  0  0  0  0  0  0  0  0
  140.1070   75.6930  221.4490 C   0  0  0  0  0  0  0  0  0  0  0  0
  139.2990   76.0560  222.3440 O   0  0  0  0  0  0  0  0  0  0  0  0
  140.9610   76.5990  220.7560 N   0  0  0  0  0  0  0  0  0  0  0  0
  142.2090   76.1390  220.1820 C   0  0  0  0  0  0  0  0  0  0  0  0
  142.5190   76.8060  218.8680 C   0  0  0  0  0  0  0  0  0  0  0  0
  142.2220   78.2870  218.9020 C   0  0  0  0  0  0  0  0  0  0  0  0
  140.7740   78.4570  219.2600 C   0  0  0  0  0  0  0  0  0  0  0  0
  140.5120   77.9820  220.6610 C   0  0  2  0  0  0  0  0  0  0  0  0
  141.0860   78.8690  221.6730 C   0  0  0  0  0  0  0  0  0  0  0  0
  141.5580   78.4050  222.8960 C   0  0  0  0  0  0  0  0  0  0  0  0
  142.0950   79.2390  223.8520 C   0  0  0  0  0  0  0  0  0  0  0  0
  142.1890   80.5870  223.6370 C   0  0  0  0  0  0  0  0  0  0  0  0
  141.7290   81.0740  222.4320 C   0  0  0  0  0  0  0  0  0  0  0  0
  141.8240   82.4200  222.2190 F   0  0  0  0  0  0  0  0  0  0  0  0
  141.1830   80.2270  221.4620 C   0  0  0  0  0  0  0  0  0  0  0  0
  140.2450   71.2490  223.4910 C   0  0  0  0  0  0  0  0  0  0  0  0
  139.6200   70.0230  223.3820 C   0  0  0  0  0  0  0  0  0  0  0  0
  139.4280   69.1880  224.4770 C   0  0  0  0  0  0  0  0  0  0  0  0
  139.8840   69.6230  225.6940 C   0  0  0  0  0  0  0  0  0  0  0  0
  139.7040   68.8070  226.8060 C   0  0  0  0  0  0  0  0  0  0  0  0
  140.1800   69.2890  228.0080 C   0  0  0  0  0  0  0  0  0  0  0  0
  139.9950   68.4750  229.0910 F   0  0  0  0  0  0  0  0  0  0  0  0
  140.8020   70.5130  228.1100 C   0  0  0  0  0  0  0  0  0  0  0  0
  140.9800   71.3190  227.0170 C   0  0  0  0  0  0  0  0  0  0  0  0
  140.5120   70.8560  225.8040 C   0  0  0  0  0  0  0  0  0  0  0  0
  140.6880   71.6550  224.7160 N   0  0  0  0  0  0  0  0  0  0  0  0
  139.5140   73.7850  223.1890 H   0  0  0  0  0  0  0  0  0  0  0  0
  141.1257   73.9848  220.6805 H   0  0  0  0  0  0  0  0  0  0  0  0
  139.3436   73.9991  220.4103 H   0  0  0  0  0  0  0  0  0  0  0  0
  143.0236   76.3559  220.8887 H   0  0  0  0  0  0  0  0  0  0  0  0
  142.1133   75.0593  219.9948 H   0  0  0  0  0  0  0  0  0  0  0  0
  143.5854   76.6627  218.6397 H   0  0  0  0  0  0  0  0  0  0  0  0
  141.8823   76.3491  218.0961 H   0  0  0  0  0  0  0  0  0  0  0  0
  142.8541   78.7781  219.6565 H   0  0  0  0  0  0  0  0  0  0  0  0
  142.4318   78.7433  217.9233 H   0  0  0  0  0  0  0  0  0  0  0  0
  140.5061   79.5212  219.1839 H   0  0  0  0  0  0  0  0  0  0  0  0
  140.1662   77.8588  218.5652 H   0  0  0  0  0  0  0  0  0  0  0  0
  139.4340   78.0148  220.8774 H   0  0  0  0  0  0  0  0  0  0  0  0
  141.5002   77.3273  223.1089 H   0  0  0  0  0  0  0  0  0  0  0  0
  142.4533   78.8152  224.8017 H   0  0  0  0  0  0  0  0  0  0  0  0
  142.6158   81.2574  224.3975 H   0  0  0  0  0  0  0  0  0  0  0  0
  140.8245   80.6530  220.5133 H   0  0  0  0  0  0  0  0  0  0  0  0
  139.2616   69.6954  222.3950 H   0  0  0  0  0  0  0  0  0  0  0  0
  138.9283   68.2138  224.3704 H   0  0  0  0  0  0  0  0  0  0  0  0
  139.2078   67.8281  226.7310 H   0  0  0  0  0  0  0  0  0  0  0  0
  141.1644   70.8514  229.0919 H   0  0  0  0  0  0  0  0  0  0  0  0
  141.4764   72.2969  227.1026 H   0  0  0  0  0  0  0  0  0  0  0  0
  1  2  2  0
  2  3  1  0
  3  4  1  0
  4  5  1  0
  5  6  2  0
  5  7  1  0
  7  8  1  0
  8  9  1  0
  9 10  1  0
 10 11  1  0
 11 12  1  0
 12 13  1  0
 13 14  2  0
 14 15  1  0
 15 16  2  0
 16 17  1  0
 17 18  1  0
 17 19  2  0
  2 20  1  0
 20 21  2  0
 21 22  1  0
 22 23  2  0
 23 24  1  0
 24 25  2  0
 25 26  1  0
 25 27  1  0
 27 28  2  0
 28 29  1  0
 29 30  2  0
 12  7  1  0
 19 13  1  0
 30 20  1  0
 29 23  1  0
  3 31  1  0
  4 32  1  0
  4 33  1  0
  8 34  1  0
  8 35  1  0
  9 36  1  0
  9 37  1  0
 10 38  1  0
 10 39  1  0
 11 40  1  0
 11 41  1  0
 12 42  1  1
 14 43  1  0
 15 44  1  0
 16 45  1  0
 19 46  1  0
 21 47  1  0
 22 48  1  0
 24 49  1  0
 27 50  1  0
 28 51  1  0
M  END
>  <smiles>  (40) 
O=C(NCC(=O)N1CCCCC1c1cccc(F)c1)c1ccc2cc(F)ccc2n1

>  <score_type>  (40) 
oracle

>  <origin>  (40) 
autodockgpu

>  <m_score__min__energy>  (40) 
-9.3000000000000007

>  <m_primary>  (40) 
energy

>  <rmsd>  (40) 
2.066256824904037

>  <m_score__min__rmsd>  (40) 
2.066256824904037

>  <meeko>  (40) 
{"free_energy": -9.09, "intermolecular_energy": -10.58, "internal_energy": -1.68, "cluster_size": 30, "cluster_id": 1, "rank_in_cluster": 20}

>  <energy>  (40) 
-8.55

>  <cluster_rmsd>  (40) 
1.43

>  <cluster>  (40) 
2

$$$$

     RDKit          3D

 51 54  0  0  0  0  0  0  0  0999 V2000
  141.3600   72.1680  221.6330 O   0  0  0  0  0  0  0  0  0  0  0  0
  140.4490   72.3950  222.4920 C   0  0  0  0  0  0  0  0  0  0  0  0
  139.5870   73.5270  222.3420 N   0  0  0  0  0  0  0  0  0  0  0  0
  139.8100   74.3800  221.1780 C   0  0  0  0  0  0  0  0  0  0  0  0
  139.9900   75.8050  221.6040 C   0  0  0  0  0  0  0  0  0  0  0  0
  139.3380   76.1870  222.6120 O   0  0  0  0  0  0  0  0  0  0  0  0
  140.8700   76.6580  220.8760 N   0  0  0  0  0  0  0  0  0  0  0  0
  142.0990   76.1370  220.3130 C   0  0  0  0  0  0  0  0  0  0  0  0
  142.4240   76.7480  218.9760 C   0  0  0  0  0  0  0  0  0  0  0  0
  142.1760   78.2380  218.9600 C   0  0  0  0  0  0  0  0  0  0  0  0
  140.7370   78.4690  219.3180 C   0  0  0  0  0  0  0  0  0  0  0  0
  140.4670   78.0520  220.7360 C   0  0  2  0  0  0  0  0  0  0  0  0
  141.0760   78.9530  221.7140 C   0  0  0  0  0  0  0  0  0  0  0  0
  141.6050   78.5040  222.9200 C   0  0  0  0  0  0  0  0  0  0  0  0
  142.1750   79.3530  223.8430 C   0  0  0  0  0  0  0  0  0  0  0  0
  142.2480   80.6990  223.6120 C   0  0  0  0  0  0  0  0  0  0  0  0
  141.7310   81.1700  222.4240 C   0  0  0  0  0  0  0  0  0  0  0  0
  141.8040   82.5160  222.1960 F   0  0  0  0  0  0  0  0  0  0  0  0
  141.1510   80.3100  221.4870 C   0  0  0  0  0  0  0  0  0  0  0  0
  140.2610   71.5120  223.6430 C   0  0  0  0  0  0  0  0  0  0  0  0
  139.6040   70.3100  223.4830 C   0  0  0  0  0  0  0  0  0  0  0  0
  139.3970   69.4310  224.5410 C   0  0  0  0  0  0  0  0  0  0  0  0
  139.8730   69.7970  225.7720 C   0  0  0  0  0  0  0  0  0  0  0  0
  139.6800   68.9350  226.8480 C   0  0  0  0  0  0  0  0  0  0  0  0
  140.1770   69.3490  228.0670 C   0  0  0  0  0  0  0  0  0  0  0  0
  139.9780   68.4920  229.1130 F   0  0  0  0  0  0  0  0  0  0  0  0
  140.8320   70.5500  228.2190 C   0  0  0  0  0  0  0  0  0  0  0  0
  141.0240   71.4010  227.1620 C   0  0  0  0  0  0  0  0  0  0  0  0
  140.5340   71.0070  225.9330 C   0  0  0  0  0  0  0  0  0  0  0  0
  140.7240   71.8490  224.8820 N   0  0  0  0  0  0  0  0  0  0  0  0
  138.8610   73.6900  223.0470 H   0  0  0  0  0  0  0  0  0  0  0  0
  140.7134   74.0427  220.6487 H   0  0  0  0  0  0  0  0  0  0  0  0
  138.9363   74.3132  220.5130 H   0  0  0  0  0  0  0  0  0  0  0  0
  142.9241   76.3504  221.0085 H   0  0  0  0  0  0  0  0  0  0  0  0
  141.9664   75.0553  220.1633 H   0  0  0  0  0  0  0  0  0  0  0  0
  143.4840   76.5619  218.7486 H   0  0  0  0  0  0  0  0  0  0  0  0
  141.7687   76.2862  218.2228 H   0  0  0  0  0  0  0  0  0  0  0  0
  142.8282   78.7335  219.6943 H   0  0  0  0  0  0  0  0  0  0  0  0
  142.3951   78.6527  217.9650 H   0  0  0  0  0  0  0  0  0  0  0  0
  140.5046   79.5383  219.2060 H   0  0  0  0  0  0  0  0  0  0  0  0
  140.1056   77.8679  218.6471 H   0  0  0  0  0  0  0  0  0  0  0  0
  139.3921   78.1292  220.9566 H   0  0  0  0  0  0  0  0  0  0  0  0
  141.5665   77.4280  223.1454 H   0  0  0  0  0  0  0  0  0  0  0  0
  142.5777   78.9419  224.7805 H   0  0  0  0  0  0  0  0  0  0  0  0
  142.7022   81.3802  224.3466 H   0  0  0  0  0  0  0  0  0  0  0  0
  140.7471   80.7241  220.5514 H   0  0  0  0  0  0  0  0  0  0  0  0
  139.2310   70.0371  222.4848 H   0  0  0  0  0  0  0  0  0  0  0  0
  138.8701   68.4766  224.3943 H   0  0  0  0  0  0  0  0  0  0  0  0
  139.1582   67.9735  226.7325 H   0  0  0  0  0  0  0  0  0  0  0  0
  141.2103   70.8335  229.2122 H   0  0  0  0  0  0  0  0  0  0  0  0
  141.5478   72.3600  227.2879 H   0  0  0  0  0  0  0  0  0  0  0  0
  1  2  2  0
  2  3  1  0
  3  4  1  0
  4  5  1  0
  5  6  2  0
  5  7  1  0
  7  8  1  0
  8  9  1  0
  9 10  1  0
 10 11  1  0
 11 12  1  0
 12 13  1  0
 13 14  2  0
 14 15  1  0
 15 16  2  0
 16 17  1  0
 17 18  1  0
 17 19  2  0
  2 20  1  0
 20 21  2  0
 21 22  1  0
 22 23  2  0
 23 24  1  0
 24 25  2  0
 25 26  1  0
 25 27  1  0
 27 28  2  0
 28 29  1  0
 29 30  2  0
 12  7  1  0
 19 13  1  0
 30 20  1  0
 29 23  1  0
  3 31  1  0
  4 32  1  0
  4 33  1  0
  8 34  1  0
  8 35  1  0
  9 36  1  0
  9 37  1  0
 10 38  1  0
 10 39  1  0
 11 40  1  0
 11 41  1  0
 12 42  1  1
 14 43  1  0
 15 44  1  0
 16 45  1  0
 19 46  1  0
 21 47  1  0
 22 48  1  0
 24 49  1  0
 27 50  1  0
 28 51  1  0
M  END
>  <smiles>  (41) 
O=C(NCC(=O)N1CCCCC1c1cccc(F)c1)c1ccc2cc(F)ccc2n1

>  <score_type>  (41) 
oracle

>  <origin>  (41) 
autodockgpu

>  <m_score__min__energy>  (41) 
-9.3000000000000007

>  <m_primary>  (41) 
energy

>  <rmsd>  (41) 
2.090658641705843

>  <m_score__min__rmsd>  (41) 
2.090658641705843

>  <meeko>  (41) 
{"free_energy": -9.29, "intermolecular_energy": -10.78, "internal_energy": -1.53, "cluster_size": 30, "cluster_id": 1, "rank_in_cluster": 3}

>  <energy>  (41) 
-8.41

>  <cluster_rmsd>  (41) 
1.89

>  <cluster>  (41) 
2

$$$$

     RDKit          3D

 51 54  0  0  0  0  0  0  0  0999 V2000
  139.4420   70.5770  221.3780 O   0  0  0  0  0  0  0  0  0  0  0  0
  139.5230   71.1760  222.4960 C   0  0  0  0  0  0  0  0  0  0  0  0
  139.4860   72.6050  222.5500 N   0  0  0  0  0  0  0  0  0  0  0  0
  139.3530   73.3120  221.2790 C   0  0  0  0  0  0  0  0  0  0  0  0
  140.1270   74.5950  221.3130 C   0  0  0  0  0  0  0  0  0  0  0  0
  139.9780   75.3250  222.3280 O   0  0  0  0  0  0  0  0  0  0  0  0
  140.9840   74.9360  220.2270 N   0  0  0  0  0  0  0  0  0  0  0  0
  140.5100   74.8440  218.8600 C   0  0  0  0  0  0  0  0  0  0  0  0
  141.0430   75.9510  217.9900 C   0  0  0  0  0  0  0  0  0  0  0  0
  142.5070   76.2180  218.2490 C   0  0  0  0  0  0  0  0  0  0  0  0
  142.6620   76.5590  219.7020 C   0  0  0  0  0  0  0  0  0  0  0  0
  142.3320   75.3740  220.5650 C   0  0  2  0  0  0  0  0  0  0  0  0
  143.3420   74.3190  220.4860 C   0  0  0  0  0  0  0  0  0  0  0  0
  143.0140   72.9680  220.4430 C   0  0  0  0  0  0  0  0  0  0  0  0
  143.9650   71.9740  220.3720 C   0  0  0  0  0  0  0  0  0  0  0  0
  145.2990   72.2760  220.3400 C   0  0  0  0  0  0  0  0  0  0  0  0
  145.6520   73.6080  220.3820 C   0  0  0  0  0  0  0  0  0  0  0  0
  146.9840   73.9070  220.3500 F   0  0  0  0  0  0  0  0  0  0  0  0
  144.6870   74.6180  220.4540 C   0  0  0  0  0  0  0  0  0  0  0  0
  139.6550   70.4270  223.7460 C   0  0  0  0  0  0  0  0  0  0  0  0
  139.1820   69.1320  223.8200 C   0  0  0  0  0  0  0  0  0  0  0  0
  139.2810   68.3710  224.9800 C   0  0  0  0  0  0  0  0  0  0  0  0
  139.8720   68.9530  226.0710 C   0  0  0  0  0  0  0  0  0  0  0  0
  139.9830   68.2130  227.2450 C   0  0  0  0  0  0  0  0  0  0  0  0
  140.5850   68.8430  228.3160 C   0  0  0  0  0  0  0  0  0  0  0  0
  140.6860   68.1030  229.4610 F   0  0  0  0  0  0  0  0  0  0  0  0
  141.0540   70.1340  228.2350 C   0  0  0  0  0  0  0  0  0  0  0  0
  140.9460   70.8650  227.0810 C   0  0  0  0  0  0  0  0  0  0  0  0
  140.3470   70.2550  225.9970 C   0  0  0  0  0  0  0  0  0  0  0  0
  140.2390   70.9780  224.8490 N   0  0  0  0  0  0  0  0  0  0  0  0
  139.5540   73.0660  223.4620 H   0  0  0  0  0  0  0  0  0  0  0  0
  139.7394   72.6767  220.4684 H   0  0  0  0  0  0  0  0  0  0  0  0
  138.2908   73.5398  221.1061 H   0  0  0  0  0  0  0  0  0  0  0  0
  140.8304   73.8794  218.4395 H   0  0  0  0  0  0  0  0  0  0  0  0
  139.4137   74.9321  218.8794 H   0  0  0  0  0  0  0  0  0  0  0  0
  140.9149   75.6668  216.9351 H   0  0  0  0  0  0  0  0  0  0  0  0
  140.4831   76.8681  218.2254 H   0  0  0  0  0  0  0  0  0  0  0  0
  143.0986   75.3220  218.0099 H   0  0  0  0  0  0  0  0  0  0  0  0
  142.8631   77.0472  217.6200 H   0  0  0  0  0  0  0  0  0  0  0  0
  143.7012   76.8655  219.8919 H   0  0  0  0  0  0  0  0  0  0  0  0
  141.9708   77.3785  219.9481 H   0  0  0  0  0  0  0  0  0  0  0  0
  142.3505   75.6618  221.6265 H   0  0  0  0  0  0  0  0  0  0  0  0
  141.9522   72.6817  220.4666 H   0  0  0  0  0  0  0  0  0  0  0  0
  143.6470   70.9214  220.3405 H   0  0  0  0  0  0  0  0  0  0  0  0
  146.0616   71.4853  220.2829 H   0  0  0  0  0  0  0  0  0  0  0  0
  145.0074   75.6698  220.4856 H   0  0  0  0  0  0  0  0  0  0  0  0
  138.7108   68.6869  222.9313 H   0  0  0  0  0  0  0  0  0  0  0  0
  138.8991   67.3402  225.0202 H   0  0  0  0  0  0  0  0  0  0  0  0
  139.6106   67.1804  227.3156 H   0  0  0  0  0  0  0  0  0  0  0  0
  141.5268   70.5900  229.1174 H   0  0  0  0  0  0  0  0  0  0  0  0
  141.3217   71.8971  227.0207 H   0  0  0  0  0  0  0  0  0  0  0  0
  1  2  2  0
  2  3  1  0
  3  4  1  0
  4  5  1  0
  5  6  2  0
  5  7  1  0
  7  8  1  0
  8  9  1  0
  9 10  1  0
 10 11  1  0
 11 12  1  0
 12 13  1  0
 13 14  2  0
 14 15  1  0
 15 16  2  0
 16 17  1  0
 17 18  1  0
 17 19  2  0
  2 20  1  0
 20 21  2  0
 21 22  1  0
 22 23  2  0
 23 24  1  0
 24 25  2  0
 25 26  1  0
 25 27  1  0
 27 28  2  0
 28 29  1  0
 29 30  2  0
 12  7  1  0
 19 13  1  0
 30 20  1  0
 29 23  1  0
  3 31  1  0
  4 32  1  0
  4 33  1  0
  8 34  1  0
  8 35  1  0
  9 36  1  0
  9 37  1  0
 10 38  1  0
 10 39  1  0
 11 40  1  0
 11 41  1  0
 12 42  1  1
 14 43  1  0
 15 44  1  0
 16 45  1  0
 19 46  1  0
 21 47  1  0
 22 48  1  0
 24 49  1  0
 27 50  1  0
 28 51  1  0
M  END
>  <smiles>  (42) 
O=C(NCC(=O)N1CCCCC1c1cccc(F)c1)c1ccc2cc(F)ccc2n1

>  <score_type>  (42) 
oracle

>  <origin>  (42) 
autodockgpu

>  <m_score__min__energy>  (42) 
-9.3000000000000007

>  <m_primary>  (42) 
energy

>  <rmsd>  (42) 
1.4515828031305393

>  <m_score__min__rmsd>  (42) 
1.4515828031305393

>  <meeko>  (42) 
{"free_energy": -8.39, "intermolecular_energy": -9.88, "internal_energy": -1.88, "cluster_size": 7, "cluster_id": 3, "rank_in_cluster": 6}

>  <energy>  (42) 
-8.39

>  <cluster_rmsd>  (42) 
1.52

>  <cluster>  (42) 
2

$$$$

     RDKit          3D

 51 54  0  0  0  0  0  0  0  0999 V2000
  137.3930   75.3980  222.3820 O   0  0  0  0  0  0  0  0  0  0  0  0
  138.6370   75.6630  222.3510 C   0  0  0  0  0  0  0  0  0  0  0  0
  139.5860   74.6240  222.0940 N   0  0  0  0  0  0  0  0  0  0  0  0
  139.0540   73.2810  221.8760 C   0  0  0  0  0  0  0  0  0  0  0  0
  139.8050   72.2830  222.7040 C   0  0  0  0  0  0  0  0  0  0  0  0
  141.0620   72.3040  222.6250 O   0  0  0  0  0  0  0  0  0  0  0  0
  139.0920   71.3690  223.5330 N   0  0  0  0  0  0  0  0  0  0  0  0
  137.6600   71.5030  223.7120 C   0  0  0  0  0  0  0  0  0  0  0  0
  136.9630   70.1710  223.7910 C   0  0  0  0  0  0  0  0  0  0  0  0
  137.7250   69.1830  224.6420 C   0  0  0  0  0  0  0  0  0  0  0  0
  139.0980   69.0340  224.0540 C   0  0  0  0  0  0  0  0  0  0  0  0
  139.8710   70.3170  224.1730 C   0  0  2  0  0  0  0  0  0  0  0  0
  140.2620   70.6140  225.5510 C   0  0  0  0  0  0  0  0  0  0  0  0
  140.7030   71.8710  225.9510 C   0  0  0  0  0  0  0  0  0  0  0  0
  141.0740   72.1510  227.2480 C   0  0  0  0  0  0  0  0  0  0  0  0
  141.0270   71.1870  228.2180 C   0  0  0  0  0  0  0  0  0  0  0  0
  140.5940   69.9320  227.8480 C   0  0  0  0  0  0  0  0  0  0  0  0
  140.5470   68.9710  228.8180 F   0  0  0  0  0  0  0  0  0  0  0  0
  140.2170   69.6470  226.5310 C   0  0  0  0  0  0  0  0  0  0  0  0
  139.1240   77.0240  222.5760 C   0  0  0  0  0  0  0  0  0  0  0  0
  138.2250   78.0680  222.6570 C   0  0  0  0  0  0  0  0  0  0  0  0
  138.6300   79.3810  222.8700 C   0  0  0  0  0  0  0  0  0  0  0  0
  139.9740   79.6180  222.9990 C   0  0  0  0  0  0  0  0  0  0  0  0
  140.4050   80.9230  223.2120 C   0  0  0  0  0  0  0  0  0  0  0  0
  141.7670   81.1090  223.3360 C   0  0  0  0  0  0  0  0  0  0  0  0
  142.1750   82.3980  223.5450 F   0  0  0  0  0  0  0  0  0  0  0  0
  142.6590   80.0640  223.2540 C   0  0  0  0  0  0  0  0  0  0  0  0
  142.2370   78.7770  223.0440 C   0  0  0  0  0  0  0  0  0  0  0  0
  140.8780   78.5680  222.9170 C   0  0  0  0  0  0  0  0  0  0  0  0
  140.4560   77.2910  222.7090 N   0  0  0  0  0  0  0  0  0  0  0  0
  140.5830   74.8600  222.0750 H   0  0  0  0  0  0  0  0  0  0  0  0
  137.9913   73.2613  222.1595 H   0  0  0  0  0  0  0  0  0  0  0  0
  139.1656   73.0202  220.8132 H   0  0  0  0  0  0  0  0  0  0  0  0
  137.4710   72.0561  224.6438 H   0  0  0  0  0  0  0  0  0  0  0  0
  137.2619   72.0378  222.8371 H   0  0  0  0  0  0  0  0  0  0  0  0
  135.9638   70.3184  224.2267 H   0  0  0  0  0  0  0  0  0  0  0  0
  136.8966   69.7615  222.7722 H   0  0  0  0  0  0  0  0  0  0  0  0
  137.7984   69.5566  225.6740 H   0  0  0  0  0  0  0  0  0  0  0  0
  137.2076   68.2125  224.6604 H   0  0  0  0  0  0  0  0  0  0  0  0
  139.6355   68.2380  224.5901 H   0  0  0  0  0  0  0  0  0  0  0  0
  138.9997   68.7789  222.9885 H   0  0  0  0  0  0  0  0  0  0  0  0
  140.8351   70.2293  223.6507 H   0  0  0  0  0  0  0  0  0  0  0  0
  140.7578   72.6742  225.2014 H   0  0  0  0  0  0  0  0  0  0  0  0
  141.4131   73.1647  227.5076 H   0  0  0  0  0  0  0  0  0  0  0  0
  141.3237   71.4056  229.2544 H   0  0  0  0  0  0  0  0  0  0  0  0
  139.8786   68.6325  226.2736 H   0  0  0  0  0  0  0  0  0  0  0  0
  137.1514   77.8541  222.5494 H   0  0  0  0  0  0  0  0  0  0  0  0
  137.8983   80.2000  222.9327 H   0  0  0  0  0  0  0  0  0  0  0  0
  139.6976   81.7628  223.2782 H   0  0  0  0  0  0  0  0  0  0  0  0
  143.7351   80.2664  223.3594 H   0  0  0  0  0  0  0  0  0  0  0  0
  142.9523   77.9439  222.9792 H   0  0  0  0  0  0  0  0  0  0  0  0
  1  2  2  0
  2  3  1  0
  3  4  1  0
  4  5  1  0
  5  6  2  0
  5  7  1  0
  7  8  1  0
  8  9  1  0
  9 10  1  0
 10 11  1  0
 11 12  1  0
 12 13  1  0
 13 14  2  0
 14 15  1  0
 15 16  2  0
 16 17  1  0
 17 18  1  0
 17 19  2  0
  2 20  1  0
 20 21  2  0
 21 22  1  0
 22 23  2  0
 23 24  1  0
 24 25  2  0
 25 26  1  0
 25 27  1  0
 27 28  2  0
 28 29  1  0
 29 30  2  0
 12  7  1  0
 19 13  1  0
 30 20  1  0
 29 23  1  0
  3 31  1  0
  4 32  1  0
  4 33  1  0
  8 34  1  0
  8 35  1  0
  9 36  1  0
  9 37  1  0
 10 38  1  0
 10 39  1  0
 11 40  1  0
 11 41  1  0
 12 42  1  6
 14 43  1  0
 15 44  1  0
 16 45  1  0
 19 46  1  0
 21 47  1  0
 22 48  1  0
 24 49  1  0
 27 50  1  0
 28 51  1  0
M  END
>  <smiles>  (43) 
O=C(NCC(=O)N1CCCCC1c1cccc(F)c1)c1ccc2cc(F)ccc2n1

>  <score_type>  (43) 
oracle

>  <origin>  (43) 
autodockgpu

>  <m_score__min__energy>  (43) 
-9.3000000000000007

>  <m_primary>  (43) 
energy

>  <rmsd>  (43) 
8.708939236190416

>  <m_score__min__rmsd>  (43) 
8.708939236190416

>  <meeko>  (43) 
{"free_energy": -8.57, "intermolecular_energy": -10.06, "internal_energy": -1.73, "cluster_size": 12, "cluster_id": 2, "rank_in_cluster": 9}

>  <energy>  (43) 
-8.76

>  <cluster_rmsd>  (43) 
0.0

>  <cluster>  (43) 
3

$$$$

     RDKit          3D

 51 54  0  0  0  0  0  0  0  0999 V2000
  141.1570   71.9520  221.6610 O   0  0  0  0  0  0  0  0  0  0  0  0
  140.2270   72.0790  222.5200 C   0  0  0  0  0  0  0  0  0  0  0  0
  139.2280   73.0890  222.3530 N   0  0  0  0  0  0  0  0  0  0  0  0
  139.3390   73.9410  221.1710 C   0  0  0  0  0  0  0  0  0  0  0  0
  139.6710   75.3460  221.5720 C   0  0  0  0  0  0  0  0  0  0  0  0
  138.8940   75.9060  222.3910 O   0  0  0  0  0  0  0  0  0  0  0  0
  140.8230   75.9860  221.0300 N   0  0  0  0  0  0  0  0  0  0  0  0
  142.0530   75.2440  220.8370 C   0  0  0  0  0  0  0  0  0  0  0  0
  142.7810   75.6520  219.5840 C   0  0  0  0  0  0  0  0  0  0  0  0
  142.7840   77.1510  219.3950 C   0  0  0  0  0  0  0  0  0  0  0  0
  141.3570   77.6130  219.3570 C   0  0  0  0  0  0  0  0  0  0  0  0
  140.6920   77.3970  220.6870 C   0  0  2  0  0  0  0  0  0  0  0  0
  141.1820   78.3110  221.7180 C   0  0  0  0  0  0  0  0  0  0  0  0
  141.3990   77.9130  223.0330 C   0  0  0  0  0  0  0  0  0  0  0  0
  141.8580   78.7750  224.0060 C   0  0  0  0  0  0  0  0  0  0  0  0
  142.1250   80.0850  223.7160 C   0  0  0  0  0  0  0  0  0  0  0  0
  141.9200   80.5060  222.4190 C   0  0  0  0  0  0  0  0  0  0  0  0
  142.1880   81.8140  222.1330 F   0  0  0  0  0  0  0  0  0  0  0  0
  141.4540   79.6320  221.4320 C   0  0  0  0  0  0  0  0  0  0  0  0
  140.1550   71.2020  223.6890 C   0  0  0  0  0  0  0  0  0  0  0  0
  139.5750   69.9550  223.5740 C   0  0  0  0  0  0  0  0  0  0  0  0
  139.4800   69.0800  224.6500 C   0  0  0  0  0  0  0  0  0  0  0  0
  139.9870   69.4960  225.8540 C   0  0  0  0  0  0  0  0  0  0  0  0
  139.9040   68.6390  226.9470 C   0  0  0  0  0  0  0  0  0  0  0  0
  140.4280   69.1040  228.1360 C   0  0  0  0  0  0  0  0  0  0  0  0
  140.3390   68.2500  229.2000 F   0  0  0  0  0  0  0  0  0  0  0  0
  141.0050   70.3480  228.2430 C   0  0  0  0  0  0  0  0  0  0  0  0
  141.0880   71.1950  227.1680 C   0  0  0  0  0  0  0  0  0  0  0  0
  140.5700   70.7500  225.9690 C   0  0  0  0  0  0  0  0  0  0  0  0
  140.6520   71.5880  224.9000 N   0  0  0  0  0  0  0  0  0  0  0  0
  138.4890   73.1730  223.0570 H   0  0  0  0  0  0  0  0  0  0  0  0
  140.1339   73.5528  220.5172 H   0  0  0  0  0  0  0  0  0  0  0  0
  138.3773   73.9391  220.6370 H   0  0  0  0  0  0  0  0  0  0  0  0
  142.7109   75.4206  221.7007 H   0  0  0  0  0  0  0  0  0  0  0  0
  141.7903   74.1803  220.7400 H   0  0  0  0  0  0  0  0  0  0  0  0
  143.8212   75.2997  219.6467 H   0  0  0  0  0  0  0  0  0  0  0  0
  142.2601   75.2020  218.7260 H   0  0  0  0  0  0  0  0  0  0  0  0
  143.3107   77.6324  220.2322 H   0  0  0  0  0  0  0  0  0  0  0  0
  143.2988   77.4187  218.4605 H   0  0  0  0  0  0  0  0  0  0  0  0
  141.3311   78.6847  219.1104 H   0  0  0  0  0  0  0  0  0  0  0  0
  140.8179   77.0321  218.5941 H   0  0  0  0  0  0  0  0  0  0  0  0
  139.6219   77.6425  220.6190 H   0  0  0  0  0  0  0  0  0  0  0  0
  141.1960   76.8674  223.3079 H   0  0  0  0  0  0  0  0  0  0  0  0
  142.0118   78.4042  225.0301 H   0  0  0  0  0  0  0  0  0  0  0  0
  142.4899   80.7772  224.4892 H   0  0  0  0  0  0  0  0  0  0  0  0
  141.3016   80.0053  220.4086 H   0  0  0  0  0  0  0  0  0  0  0  0
  139.1744   69.6430  222.5982 H   0  0  0  0  0  0  0  0  0  0  0  0
  139.0147   68.0894  224.5394 H   0  0  0  0  0  0  0  0  0  0  0  0
  139.4446   67.6427  226.8675 H   0  0  0  0  0  0  0  0  0  0  0  0
  141.4093   70.6709  229.2137 H   0  0  0  0  0  0  0  0  0  0  0  0
  141.5491   72.1896  227.2578 H   0  0  0  0  0  0  0  0  0  0  0  0
  1  2  2  0
  2  3  1  0
  3  4  1  0
  4  5  1  0
  5  6  2  0
  5  7  1  0
  7  8  1  0
  8  9  1  0
  9 10  1  0
 10 11  1  0
 11 12  1  0
 12 13  1  0
 13 14  2  0
 14 15  1  0
 15 16  2  0
 16 17  1  0
 17 18  1  0
 17 19  2  0
  2 20  1  0
 20 21  2  0
 21 22  1  0
 22 23  2  0
 23 24  1  0
 24 25  2  0
 25 26  1  0
 25 27  1  0
 27 28  2  0
 28 29  1  0
 29 30  2  0
 12  7  1  0
 19 13  1  0
 30 20  1  0
 29 23  1  0
  3 31  1  0
  4 32  1  0
  4 33  1  0
  8 34  1  0
  8 35  1  0
  9 36  1  0
  9 37  1  0
 10 38  1  0
 10 39  1  0
 11 40  1  0
 11 41  1  0
 12 42  1  6
 14 43  1  0
 15 44  1  0
 16 45  1  0
 19 46  1  0
 21 47  1  0
 22 48  1  0
 24 49  1  0
 27 50  1  0
 28 51  1  0
M  END
>  <smiles>  (44) 
O=C(NCC(=O)N1CCCCC1c1cccc(F)c1)c1ccc2cc(F)ccc2n1

>  <score_type>  (44) 
oracle

>  <origin>  (44) 
autodockgpu

>  <m_score__min__energy>  (44) 
-9.3000000000000007

>  <m_primary>  (44) 
energy

>  <rmsd>  (44) 
1.976487619660734

>  <m_score__min__rmsd>  (44) 
1.976487619660734

>  <meeko>  (44) 
{"free_energy": -9.25, "intermolecular_energy": -10.74, "internal_energy": -1.49, "cluster_size": 30, "cluster_id": 1, "rank_in_cluster": 10}

>  <energy>  (44) 
-8.75

>  <cluster_rmsd>  (44) 
0.08

>  <cluster>  (44) 
3

$$$$

     RDKit          3D

 51 54  0  0  0  0  0  0  0  0999 V2000
  141.4080   72.3610  221.8230 O   0  0  0  0  0  0  0  0  0  0  0  0
  140.3760   72.3990  222.5650 C   0  0  0  0  0  0  0  0  0  0  0  0
  139.3320   73.3390  222.2970 N   0  0  0  0  0  0  0  0  0  0  0  0
  139.5180   74.2260  221.1520 C   0  0  0  0  0  0  0  0  0  0  0  0
  140.0850   75.5390  221.5980 C   0  0  0  0  0  0  0  0  0  0  0  0
  139.6770   75.9940  222.6990 O   0  0  0  0  0  0  0  0  0  0  0  0
  141.0430   76.2110  220.7840 N   0  0  0  0  0  0  0  0  0  0  0  0
  142.3020   75.5750  220.4530 C   0  0  0  0  0  0  0  0  0  0  0  0
  142.7530   75.8830  219.0500 C   0  0  0  0  0  0  0  0  0  0  0  0
  142.5430   77.3360  218.6950 C   0  0  0  0  0  0  0  0  0  0  0  0
  141.0850   77.6460  218.8690 C   0  0  0  0  0  0  0  0  0  0  0  0
  140.6870   77.5440  220.3150 C   0  0  2  0  0  0  0  0  0  0  0  0
  141.2330   78.6310  221.1280 C   0  0  0  0  0  0  0  0  0  0  0  0
  141.5350   79.8830  220.6020 C   0  0  0  0  0  0  0  0  0  0  0  0
  142.0520   80.9060  221.3660 C   0  0  0  0  0  0  0  0  0  0  0  0
  142.2960   80.7340  222.7010 C   0  0  0  0  0  0  0  0  0  0  0  0
  142.0050   79.5020  223.2480 C   0  0  0  0  0  0  0  0  0  0  0  0
  142.2500   79.3330  224.5810 F   0  0  0  0  0  0  0  0  0  0  0  0
  141.4810   78.4630  222.4730 C   0  0  0  0  0  0  0  0  0  0  0  0
  140.2320   71.4900  223.7030 C   0  0  0  0  0  0  0  0  0  0  0  0
  139.6080   70.2710  223.5300 C   0  0  0  0  0  0  0  0  0  0  0  0
  139.4440   69.3680  224.5740 C   0  0  0  0  0  0  0  0  0  0  0  0
  139.9280   69.7260  225.8050 C   0  0  0  0  0  0  0  0  0  0  0  0
  139.7760   68.8390  226.8670 C   0  0  0  0  0  0  0  0  0  0  0  0
  140.2800   69.2450  228.0860 C   0  0  0  0  0  0  0  0  0  0  0  0
  140.1220   68.3630  229.1190 F   0  0  0  0  0  0  0  0  0  0  0  0
  140.9010   70.4620  228.2510 C   0  0  0  0  0  0  0  0  0  0  0  0
  141.0520   71.3380  227.2080 C   0  0  0  0  0  0  0  0  0  0  0  0
  140.5550   70.9510  225.9790 C   0  0  0  0  0  0  0  0  0  0  0  0
  140.7040   71.8180  224.9410 N   0  0  0  0  0  0  0  0  0  0  0  0
  138.5110   73.3520  222.9100 H   0  0  0  0  0  0  0  0  0  0  0  0
  140.2098   73.7560  220.4375 H   0  0  0  0  0  0  0  0  0  0  0  0
  138.5433   74.4013  220.6732 H   0  0  0  0  0  0  0  0  0  0  0  0
  143.0709   75.9279  221.1560 H   0  0  0  0  0  0  0  0  0  0  0  0
  142.1558   74.4872  220.5255 H   0  0  0  0  0  0  0  0  0  0  0  0
  143.8236   75.6467  218.9611 H   0  0  0  0  0  0  0  0  0  0  0  0
  142.1526   75.2738  218.3584 H   0  0  0  0  0  0  0  0  0  0  0  0
  143.1430   77.9740  219.3605 H   0  0  0  0  0  0  0  0  0  0  0  0
  142.8546   77.5264  217.6574 H   0  0  0  0  0  0  0  0  0  0  0  0
  140.8883   78.6677  218.5119 H   0  0  0  0  0  0  0  0  0  0  0  0
  140.4980   76.9184  218.2893 H   0  0  0  0  0  0  0  0  0  0  0  0
  139.5995   77.6721  220.4191 H   0  0  0  0  0  0  0  0  0  0  0  0
  141.3535   80.0634  219.5322 H   0  0  0  0  0  0  0  0  0  0  0  0
  142.2719   81.8757  220.8956 H   0  0  0  0  0  0  0  0  0  0  0  0
  142.7088   81.5479  223.3151 H   0  0  0  0  0  0  0  0  0  0  0  0
  141.2628   77.4939  222.9455 H   0  0  0  0  0  0  0  0  0  0  0  0
  139.2278   70.0052  222.5326 H   0  0  0  0  0  0  0  0  0  0  0  0
  138.9437   68.4009  224.4176 H   0  0  0  0  0  0  0  0  0  0  0  0
  139.2800   67.8652  226.7412 H   0  0  0  0  0  0  0  0  0  0  0  0
  141.2854   70.7382  229.2439 H   0  0  0  0  0  0  0  0  0  0  0  0
  141.5489   72.3099  227.3442 H   0  0  0  0  0  0  0  0  0  0  0  0
  1  2  2  0
  2  3  1  0
  3  4  1  0
  4  5  1  0
  5  6  2  0
  5  7  1  0
  7  8  1  0
  8  9  1  0
  9 10  1  0
 10 11  1  0
 11 12  1  0
 12 13  1  0
 13 14  2  0
 14 15  1  0
 15 16  2  0
 16 17  1  0
 17 18  1  0
 17 19  2  0
  2 20  1  0
 20 21  2  0
 21 22  1  0
 22 23  2  0
 23 24  1  0
 24 25  2  0
 25 26  1  0
 25 27  1  0
 27 28  2  0
 28 29  1  0
 29 30  2  0
 12  7  1  0
 19 13  1  0
 30 20  1  0
 29 23  1  0
  3 31  1  0
  4 32  1  0
  4 33  1  0
  8 34  1  0
  8 35  1  0
  9 36  1  0
  9 37  1  0
 10 38  1  0
 10 39  1  0
 11 40  1  0
 11 41  1  0
 12 42  1  6
 14 43  1  0
 15 44  1  0
 16 45  1  0
 19 46  1  0
 21 47  1  0
 22 48  1  0
 24 49  1  0
 27 50  1  0
 28 51  1  0
M  END
>  <smiles>  (45) 
O=C(NCC(=O)N1CCCCC1c1cccc(F)c1)c1ccc2cc(F)ccc2n1

>  <score_type>  (45) 
oracle

>  <origin>  (45) 
autodockgpu

>  <m_score__min__energy>  (45) 
-9.3000000000000007

>  <m_primary>  (45) 
energy

>  <rmsd>  (45) 
1.97954273691184

>  <m_score__min__rmsd>  (45) 
1.97954273691184

>  <meeko>  (45) 
{"free_energy": -9.05, "intermolecular_energy": -10.54, "internal_energy": -1.43, "cluster_size": 30, "cluster_id": 1, "rank_in_cluster": 25}

>  <energy>  (45) 
-8.62

>  <cluster_rmsd>  (45) 
0.85

>  <cluster>  (45) 
3

$$$$

     RDKit          3D

 51 54  0  0  0  0  0  0  0  0999 V2000
  140.8510   73.9870  220.1740 O   0  0  0  0  0  0  0  0  0  0  0  0
  140.4260   74.7030  221.1360 C   0  0  0  0  0  0  0  0  0  0  0  0
  139.4960   74.1620  222.0780 N   0  0  0  0  0  0  0  0  0  0  0  0
  139.0760   72.7780  221.8730 C   0  0  0  0  0  0  0  0  0  0  0  0
  139.8130   71.8670  222.8080 C   0  0  0  0  0  0  0  0  0  0  0  0
  141.0710   71.8880  222.7530 O   0  0  0  0  0  0  0  0  0  0  0  0
  139.0850   71.0320  223.7050 N   0  0  0  0  0  0  0  0  0  0  0  0
  137.6650   71.2330  223.9070 C   0  0  0  0  0  0  0  0  0  0  0  0
  136.9190   69.9360  224.0800 C   0  0  0  0  0  0  0  0  0  0  0  0
  137.6630   68.9690  224.9700 C   0  0  0  0  0  0  0  0  0  0  0  0
  139.0150   68.7320  224.3610 C   0  0  0  0  0  0  0  0  0  0  0  0
  139.8390   69.9880  224.3870 C   0  0  2  0  0  0  0  0  0  0  0  0
  140.2750   70.3480  225.7360 C   0  0  0  0  0  0  0  0  0  0  0  0
  140.6670   71.6380  226.0790 C   0  0  0  0  0  0  0  0  0  0  0  0
  141.0810   71.9780  227.3480 C   0  0  0  0  0  0  0  0  0  0  0  0
  141.1270   71.0440  228.3470 C   0  0  0  0  0  0  0  0  0  0  0  0
  140.7430   69.7570  228.0350 C   0  0  0  0  0  0  0  0  0  0  0  0
  140.7900   68.8270  229.0340 F   0  0  0  0  0  0  0  0  0  0  0  0
  140.3230   69.4120  226.7460 C   0  0  0  0  0  0  0  0  0  0  0  0
  140.8750   76.0860  221.3020 C   0  0  0  0  0  0  0  0  0  0  0  0
  141.7380   76.6400  220.3790 C   0  0  0  0  0  0  0  0  0  0  0  0
  142.1970   77.9480  220.4840 C   0  0  0  0  0  0  0  0  0  0  0  0
  141.7620   78.6890  221.5520 C   0  0  0  0  0  0  0  0  0  0  0  0
  142.2070   80.0010  221.6820 C   0  0  0  0  0  0  0  0  0  0  0  0
  141.7410   80.7050  222.7740 C   0  0  0  0  0  0  0  0  0  0  0  0
  142.1870   81.9920  222.8860 F   0  0  0  0  0  0  0  0  0  0  0  0
  140.8800   80.1460  223.6910 C   0  0  0  0  0  0  0  0  0  0  0  0
  140.4410   78.8540  223.5660 C   0  0  0  0  0  0  0  0  0  0  0  0
  140.8950   78.1310  222.4810 C   0  0  0  0  0  0  0  0  0  0  0  0
  140.4590   76.8480  222.3540 N   0  0  0  0  0  0  0  0  0  0  0  0
  139.1670   74.7580  222.8440 H   0  0  0  0  0  0  0  0  0  0  0  0
  137.9955   72.6949  222.0618 H   0  0  0  0  0  0  0  0  0  0  0  0
  139.3010   72.4854  220.8368 H   0  0  0  0  0  0  0  0  0  0  0  0
  137.5200   71.8466  224.8084 H   0  0  0  0  0  0  0  0  0  0  0  0
  137.2666   71.7314  223.0110 H   0  0  0  0  0  0  0  0  0  0  0  0
  135.9374   70.1482  224.5287 H   0  0  0  0  0  0  0  0  0  0  0  0
  136.8117   69.4713  223.0888 H   0  0  0  0  0  0  0  0  0  0  0  0
  137.7760   69.3979  225.9766 H   0  0  0  0  0  0  0  0  0  0  0  0
  137.1093   68.0225  225.0566 H   0  0  0  0  0  0  0  0  0  0  0  0
  139.5348   67.9477  224.9308 H   0  0  0  0  0  0  0  0  0  0  0  0
  138.8808   68.4197  223.3148 H   0  0  0  0  0  0  0  0  0  0  0  0
  140.7854   69.8320  223.8484 H   0  0  0  0  0  0  0  0  0  0  0  0
  140.6455   72.4189  225.3046 H   0  0  0  0  0  0  0  0  0  0  0  0
  141.3789   73.0152  227.5614 H   0  0  0  0  0  0  0  0  0  0  0  0
  141.4582   71.3101  229.3616 H   0  0  0  0  0  0  0  0  0  0  0  0
  140.0256   68.3742  226.5348 H   0  0  0  0  0  0  0  0  0  0  0  0
  142.0744   76.0256  219.5309 H   0  0  0  0  0  0  0  0  0  0  0  0
  142.8841   78.3728  219.7374 H   0  0  0  0  0  0  0  0  0  0  0  0
  142.8945   80.4537  220.9523 H   0  0  0  0  0  0  0  0  0  0  0  0
  140.5365   80.7502  224.5436 H   0  0  0  0  0  0  0  0  0  0  0  0
  139.7537   78.4102  224.3013 H   0  0  0  0  0  0  0  0  0  0  0  0
  1  2  2  0
  2  3  1  0
  3  4  1  0
  4  5  1  0
  5  6  2  0
  5  7  1  0
  7  8  1  0
  8  9  1  0
  9 10  1  0
 10 11  1  0
 11 12  1  0
 12 13  1  0
 13 14  2  0
 14 15  1  0
 15 16  2  0
 16 17  1  0
 17 18  1  0
 17 19  2  0
  2 20  1  0
 20 21  2  0
 21 22  1  0
 22 23  2  0
 23 24  1  0
 24 25  2  0
 25 26  1  0
 25 27  1  0
 27 28  2  0
 28 29  1  0
 29 30  2  0
 12  7  1  0
 19 13  1  0
 30 20  1  0
 29 23  1  0
  3 31  1  0
  4 32  1  0
  4 33  1  0
  8 34  1  0
  8 35  1  0
  9 36  1  0
  9 37  1  0
 10 38  1  0
 10 39  1  0
 11 40  1  0
 11 41  1  0
 12 42  1  6
 14 43  1  0
 15 44  1  0
 16 45  1  0
 19 46  1  0
 21 47  1  0
 22 48  1  0
 24 49  1  0
 27 50  1  0
 28 51  1  0
M  END
>  <smiles>  (46) 
O=C(NCC(=O)N1CCCCC1c1cccc(F)c1)c1ccc2cc(F)ccc2n1

>  <score_type>  (46) 
oracle

>  <origin>  (46) 
autodockgpu

>  <m_score__min__energy>  (46) 
-9.3000000000000007

>  <m_primary>  (46) 
energy

>  <rmsd>  (46) 
8.672180589003489

>  <m_score__min__rmsd>  (46) 
8.672180589003489

>  <meeko>  (46) 
{"free_energy": -8.89, "intermolecular_energy": -10.38, "internal_energy": -1.57, "cluster_size": 12, "cluster_id": 2, "rank_in_cluster": 6}

>  <energy>  (46) 
-8.59

>  <cluster_rmsd>  (46) 
0.57

>  <cluster>  (46) 
3

$$$$

     RDKit          3D

 51 54  0  0  0  0  0  0  0  0999 V2000
  141.3550   72.2620  221.9670 O   0  0  0  0  0  0  0  0  0  0  0  0
  140.2990   72.1970  222.6730 C   0  0  0  0  0  0  0  0  0  0  0  0
  139.1740   73.0230  222.3610 N   0  0  0  0  0  0  0  0  0  0  0  0
  139.3090   73.9200  221.2160 C   0  0  0  0  0  0  0  0  0  0  0  0
  139.8250   75.2550  221.6590 C   0  0  0  0  0  0  0  0  0  0  0  0
  139.2240   75.8120  222.6150 O   0  0  0  0  0  0  0  0  0  0  0  0
  140.9500   75.8350  221.0030 N   0  0  0  0  0  0  0  0  0  0  0  0
  142.1770   75.0810  220.8450 C   0  0  0  0  0  0  0  0  0  0  0  0
  142.8530   75.3500  219.5270 C   0  0  0  0  0  0  0  0  0  0  0  0
  142.8360   76.8180  219.1720 C   0  0  0  0  0  0  0  0  0  0  0  0
  141.4040   77.2670  219.1410 C   0  0  0  0  0  0  0  0  0  0  0  0
  140.7940   77.1980  220.5120 C   0  0  2  0  0  0  0  0  0  0  0  0
  141.3170   78.2240  221.4140 C   0  0  0  0  0  0  0  0  0  0  0  0
  141.7990   79.4470  220.9610 C   0  0  0  0  0  0  0  0  0  0  0  0
  142.2950   80.4130  221.8090 C   0  0  0  0  0  0  0  0  0  0  0  0
  142.3380   80.2070  223.1610 C   0  0  0  0  0  0  0  0  0  0  0  0
  141.8660   79.0020  223.6380 C   0  0  0  0  0  0  0  0  0  0  0  0
  141.9100   78.8000  224.9880 F   0  0  0  0  0  0  0  0  0  0  0  0
  141.3630   78.0220  222.7770 C   0  0  0  0  0  0  0  0  0  0  0  0
  140.2090   71.2820  223.8120 C   0  0  0  0  0  0  0  0  0  0  0  0
  139.6280   70.0410  223.6470 C   0  0  0  0  0  0  0  0  0  0  0  0
  139.5160   69.1300  224.6920 C   0  0  0  0  0  0  0  0  0  0  0  0
  140.0060   69.5060  225.9160 C   0  0  0  0  0  0  0  0  0  0  0  0
  139.9050   68.6130  226.9790 C   0  0  0  0  0  0  0  0  0  0  0  0
  140.4130   69.0380  228.1900 C   0  0  0  0  0  0  0  0  0  0  0  0
  140.3050   68.1490  229.2240 F   0  0  0  0  0  0  0  0  0  0  0  0
  140.9900   70.2770  228.3470 C   0  0  0  0  0  0  0  0  0  0  0  0
  141.0900   71.1580  227.3020 C   0  0  0  0  0  0  0  0  0  0  0  0
  140.5890   70.7540  226.0810 C   0  0  0  0  0  0  0  0  0  0  0  0
  140.6880   71.6270  225.0420 N   0  0  0  0  0  0  0  0  0  0  0  0
  138.3350   72.9540  222.9440 H   0  0  0  0  0  0  0  0  0  0  0  0
  140.0118   73.4813  220.4923 H   0  0  0  0  0  0  0  0  0  0  0  0
  138.3222   74.0549  220.7490 H   0  0  0  0  0  0  0  0  0  0  0  0
  142.8663   75.3546  221.6574 H   0  0  0  0  0  0  0  0  0  0  0  0
  141.9190   74.0121  220.8764 H   0  0  0  0  0  0  0  0  0  0  0  0
  143.8978   75.0114  219.5880 H   0  0  0  0  0  0  0  0  0  0  0  0
  142.3033   74.8049  218.7455 H   0  0  0  0  0  0  0  0  0  0  0  0
  143.3917   77.3921  219.9280 H   0  0  0  0  0  0  0  0  0  0  0  0
  143.3109   76.9818  218.1934 H   0  0  0  0  0  0  0  0  0  0  0  0
  141.3590   78.3044  218.7780 H   0  0  0  0  0  0  0  0  0  0  0  0
  140.8402   76.6020  218.4702 H   0  0  0  0  0  0  0  0  0  0  0  0
  139.7199   77.4300  220.4615 H   0  0  0  0  0  0  0  0  0  0  0  0
  141.7837   79.6519  219.8804 H   0  0  0  0  0  0  0  0  0  0  0  0
  142.6616   81.3632  221.3933 H   0  0  0  0  0  0  0  0  0  0  0  0
  142.7344   80.9742  223.8424 H   0  0  0  0  0  0  0  0  0  0  0  0
  140.9973   77.0724  223.1947 H   0  0  0  0  0  0  0  0  0  0  0  0
  139.2405   69.7631  222.6557 H   0  0  0  0  0  0  0  0  0  0  0  0
  139.0515   68.1443  224.5420 H   0  0  0  0  0  0  0  0  0  0  0  0
  139.4447   67.6210  226.8602 H   0  0  0  0  0  0  0  0  0  0  0  0
  141.3800   70.5671  229.3338 H   0  0  0  0  0  0  0  0  0  0  0  0
  141.5514   72.1482  227.4313 H   0  0  0  0  0  0  0  0  0  0  0  0
  1  2  2  0
  2  3  1  0
  3  4  1  0
  4  5  1  0
  5  6  2  0
  5  7  1  0
  7  8  1  0
  8  9  1  0
  9 10  1  0
 10 11  1  0
 11 12  1  0
 12 13  1  0
 13 14  2  0
 14 15  1  0
 15 16  2  0
 16 17  1  0
 17 18  1  0
 17 19  2  0
  2 20  1  0
 20 21  2  0
 21 22  1  0
 22 23  2  0
 23 24  1  0
 24 25  2  0
 25 26  1  0
 25 27  1  0
 27 28  2  0
 28 29  1  0
 29 30  2  0
 12  7  1  0
 19 13  1  0
 30 20  1  0
 29 23  1  0
  3 31  1  0
  4 32  1  0
  4 33  1  0
  8 34  1  0
  8 35  1  0
  9 36  1  0
  9 37  1  0
 10 38  1  0
 10 39  1  0
 11 40  1  0
 11 41  1  0
 12 42  1  6
 14 43  1  0
 15 44  1  0
 16 45  1  0
 19 46  1  0
 21 47  1  0
 22 48  1  0
 24 49  1  0
 27 50  1  0
 28 51  1  0
M  END
>  <smiles>  (47) 
O=C(NCC(=O)N1CCCCC1c1cccc(F)c1)c1ccc2cc(F)ccc2n1

>  <score_type>  (47) 
oracle

>  <origin>  (47) 
autodockgpu

>  <m_score__min__energy>  (47) 
-9.3000000000000007

>  <m_primary>  (47) 
energy

>  <rmsd>  (47) 
1.995106782951369

>  <m_score__min__rmsd>  (47) 
1.995106782951369

>  <meeko>  (47) 
{"free_energy": -9.17, "intermolecular_energy": -10.67, "internal_energy": -1.45, "cluster_size": 30, "cluster_id": 1, "rank_in_cluster": 16}

>  <energy>  (47) 
-8.4

>  <cluster_rmsd>  (47) 
1.14

>  <cluster>  (47) 
3

$$$$

     RDKit          3D

 51 54  0  0  0  0  0  0  0  0999 V2000
  141.2190   72.5320  221.9710 O   0  0  0  0  0  0  0  0  0  0  0  0
  140.1620   72.3810  222.6620 C   0  0  0  0  0  0  0  0  0  0  0  0
  138.9920   73.1450  222.3600 N   0  0  0  0  0  0  0  0  0  0  0  0
  139.0840   74.0820  221.2430 C   0  0  0  0  0  0  0  0  0  0  0  0
  139.5480   75.4230  221.7250 C   0  0  0  0  0  0  0  0  0  0  0  0
  138.8900   75.9550  222.6580 O   0  0  0  0  0  0  0  0  0  0  0  0
  140.6900   76.0350  221.1300 N   0  0  0  0  0  0  0  0  0  0  0  0
  141.9040   75.2720  220.9150 C   0  0  0  0  0  0  0  0  0  0  0  0
  142.5950   75.6410  219.6300 C   0  0  0  0  0  0  0  0  0  0  0  0
  142.6100   77.1350  219.4040 C   0  0  0  0  0  0  0  0  0  0  0  0
  141.1880   77.6140  219.4020 C   0  0  0  0  0  0  0  0  0  0  0  0
  140.5640   77.4380  220.7580 C   0  0  2  0  0  0  0  0  0  0  0  0
  141.1000   78.3710  221.7500 C   0  0  0  0  0  0  0  0  0  0  0  0
  141.3470   78.0040  223.0680 C   0  0  0  0  0  0  0  0  0  0  0  0
  141.8490   78.8820  224.0040 C   0  0  0  0  0  0  0  0  0  0  0  0
  142.1300   80.1790  223.6720 C   0  0  0  0  0  0  0  0  0  0  0  0
  141.8950   80.5690  222.3710 C   0  0  0  0  0  0  0  0  0  0  0  0
  142.1770   81.8650  222.0420 F   0  0  0  0  0  0  0  0  0  0  0  0
  141.3860   79.6780  221.4210 C   0  0  0  0  0  0  0  0  0  0  0  0
  140.1160   71.4290  223.7730 C   0  0  0  0  0  0  0  0  0  0  0  0
  139.5600   70.1810  223.5810 C   0  0  0  0  0  0  0  0  0  0  0  0
  139.4900   69.2360  224.5990 C   0  0  0  0  0  0  0  0  0  0  0  0
  139.9970   69.5840  225.8240 C   0  0  0  0  0  0  0  0  0  0  0  0
  139.9390   68.6570  226.8600 C   0  0  0  0  0  0  0  0  0  0  0  0
  140.4620   69.0550  228.0730 C   0  0  0  0  0  0  0  0  0  0  0  0
  140.3970   68.1320  229.0800 F   0  0  0  0  0  0  0  0  0  0  0  0
  141.0150   70.3010  228.2570 C   0  0  0  0  0  0  0  0  0  0  0  0
  141.0740   71.2170  227.2390 C   0  0  0  0  0  0  0  0  0  0  0  0
  140.5560   70.8400  226.0160 C   0  0  0  0  0  0  0  0  0  0  0  0
  140.6130   71.7460  225.0030 N   0  0  0  0  0  0  0  0  0  0  0  0
  138.1520   73.0080  222.9300 H   0  0  0  0  0  0  0  0  0  0  0  0
  139.7998   73.6950  220.5029 H   0  0  0  0  0  0  0  0  0  0  0  0
  138.0898   74.1911  220.7850 H   0  0  0  0  0  0  0  0  0  0  0  0
  142.5921   75.4600  221.7524 H   0  0  0  0  0  0  0  0  0  0  0  0
  141.6252   74.2098  220.8522 H   0  0  0  0  0  0  0  0  0  0  0  0
  143.6324   75.2771  219.6674 H   0  0  0  0  0  0  0  0  0  0  0  0
  142.0404   75.1775  218.8008 H   0  0  0  0  0  0  0  0  0  0  0  0
  143.1702   77.6297  220.2111 H   0  0  0  0  0  0  0  0  0  0  0  0
  143.0966   77.3735  218.4468 H   0  0  0  0  0  0  0  0  0  0  0  0
  141.1668   78.6798  219.1308 H   0  0  0  0  0  0  0  0  0  0  0  0
  140.6173   77.0218  218.6715 H   0  0  0  0  0  0  0  0  0  0  0  0
  139.4950   77.6947  220.7198 H   0  0  0  0  0  0  0  0  0  0  0  0
  141.1329   76.9701  223.3764 H   0  0  0  0  0  0  0  0  0  0  0  0
  142.0263   78.5350  225.0327 H   0  0  0  0  0  0  0  0  0  0  0  0
  142.5287   80.8846  224.4158 H   0  0  0  0  0  0  0  0  0  0  0  0
  141.2108   80.0269  220.3926 H   0  0  0  0  0  0  0  0  0  0  0  0
  139.1586   69.9248  222.5894 H   0  0  0  0  0  0  0  0  0  0  0  0
  139.0440   68.2453  224.4273 H   0  0  0  0  0  0  0  0  0  0  0  0
  139.4990   67.6587  226.7192 H   0  0  0  0  0  0  0  0  0  0  0  0
  141.4194   70.5686  229.2444 H   0  0  0  0  0  0  0  0  0  0  0  0
  141.5164   72.2127  227.3904 H   0  0  0  0  0  0  0  0  0  0  0  0
  1  2  2  0
  2  3  1  0
  3  4  1  0
  4  5  1  0
  5  6  2  0
  5  7  1  0
  7  8  1  0
  8  9  1  0
  9 10  1  0
 10 11  1  0
 11 12  1  0
 12 13  1  0
 13 14  2  0
 14 15  1  0
 15 16  2  0
 16 17  1  0
 17 18  1  0
 17 19  2  0
  2 20  1  0
 20 21  2  0
 21 22  1  0
 22 23  2  0
 23 24  1  0
 24 25  2  0
 25 26  1  0
 25 27  1  0
 27 28  2  0
 28 29  1  0
 29 30  2  0
 12  7  1  0
 19 13  1  0
 30 20  1  0
 29 23  1  0
  3 31  1  0
  4 32  1  0
  4 33  1  0
  8 34  1  0
  8 35  1  0
  9 36  1  0
  9 37  1  0
 10 38  1  0
 10 39  1  0
 11 40  1  0
 11 41  1  0
 12 42  1  6
 14 43  1  0
 15 44  1  0
 16 45  1  0
 19 46  1  0
 21 47  1  0
 22 48  1  0
 24 49  1  0
 27 50  1  0
 28 51  1  0
M  END
>  <smiles>  (48) 
O=C(NCC(=O)N1CCCCC1c1cccc(F)c1)c1ccc2cc(F)ccc2n1

>  <score_type>  (48) 
oracle

>  <origin>  (48) 
autodockgpu

>  <m_score__min__energy>  (48) 
-9.3000000000000007

>  <m_primary>  (48) 
energy

>  <rmsd>  (48) 
1.9854189841617034

>  <m_score__min__rmsd>  (48) 
1.9854189841617034

>  <meeko>  (48) 
{"free_energy": -9.3, "intermolecular_energy": -10.79, "internal_energy": -1.48, "cluster_size": 30, "cluster_id": 1, "rank_in_cluster": 1}

>  <energy>  (48) 
-8.39

>  <cluster_rmsd>  (48) 
0.95

>  <cluster>  (48) 
3

$$$$

     RDKit          3D

 51 54  0  0  0  0  0  0  0  0999 V2000
  140.6180   71.7960  221.1840 O   0  0  0  0  0  0  0  0  0  0  0  0
  139.9510   72.1330  222.2130 C   0  0  0  0  0  0  0  0  0  0  0  0
  139.1530   73.3200  222.1950 N   0  0  0  0  0  0  0  0  0  0  0  0
  139.1520   74.0980  220.9590 C   0  0  0  0  0  0  0  0  0  0  0  0
  139.5630   75.5120  221.2340 C   0  0  0  0  0  0  0  0  0  0  0  0
  138.7410   76.2360  221.8560 O   0  0  0  0  0  0  0  0  0  0  0  0
  140.8370   75.9790  220.7960 N   0  0  0  0  0  0  0  0  0  0  0  0
  141.9930   75.1070  220.8380 C   0  0  0  0  0  0  0  0  0  0  0  0
  142.9120   75.3120  219.6630 C   0  0  0  0  0  0  0  0  0  0  0  0
  143.1010   76.7760  219.3420 C   0  0  0  0  0  0  0  0  0  0  0  0
  141.7470   77.3660  219.0710 C   0  0  0  0  0  0  0  0  0  0  0  0
  140.9030   77.3530  220.3140 C   0  0  2  0  0  0  0  0  0  0  0  0
  141.3580   78.3180  221.3150 C   0  0  0  0  0  0  0  0  0  0  0  0
  141.8000   79.5940  220.9810 C   0  0  0  0  0  0  0  0  0  0  0  0
  142.2310   80.5020  221.9220 C   0  0  0  0  0  0  0  0  0  0  0  0
  142.2450   80.1840  223.2530 C   0  0  0  0  0  0  0  0  0  0  0  0
  141.8110   78.9260  223.6120 C   0  0  0  0  0  0  0  0  0  0  0  0
  141.8260   78.6110  224.9410 F   0  0  0  0  0  0  0  0  0  0  0  0
  141.3730   78.0030  222.6560 C   0  0  0  0  0  0  0  0  0  0  0  0
  139.9820   71.3220  223.4310 C   0  0  0  0  0  0  0  0  0  0  0  0
  139.5090   70.0260  223.4020 C   0  0  0  0  0  0  0  0  0  0  0  0
  139.5140   69.2090  224.5270 C   0  0  0  0  0  0  0  0  0  0  0  0
  140.0110   69.7350  225.6910 C   0  0  0  0  0  0  0  0  0  0  0  0
  140.0270   68.9380  226.8310 C   0  0  0  0  0  0  0  0  0  0  0  0
  140.5370   69.5140  227.9780 C   0  0  0  0  0  0  0  0  0  0  0  0
  140.5450   68.7180  229.0890 F   0  0  0  0  0  0  0  0  0  0  0  0
  141.0070   70.8070  228.0000 C   0  0  0  0  0  0  0  0  0  0  0  0
  140.9920   71.5940  226.8780 C   0  0  0  0  0  0  0  0  0  0  0  0
  140.4860   71.0380  225.7200 C   0  0  0  0  0  0  0  0  0  0  0  0
  140.4710   71.8180  224.6040 N   0  0  0  0  0  0  0  0  0  0  0  0
  138.6250   73.5720  223.0360 H   0  0  0  0  0  0  0  0  0  0  0  0
  139.8579   73.6471  220.2459 H   0  0  0  0  0  0  0  0  0  0  0  0
  138.1365   74.0965  220.5363 H   0  0  0  0  0  0  0  0  0  0  0  0
  142.5530   75.3077  221.7632 H   0  0  0  0  0  0  0  0  0  0  0  0
  141.6306   74.0690  220.8021 H   0  0  0  0  0  0  0  0  0  0  0  0
  143.8918   74.8702  219.8970 H   0  0  0  0  0  0  0  0  0  0  0  0
  142.4567   74.8277  218.7866 H   0  0  0  0  0  0  0  0  0  0  0  0
  143.5684   77.2888  220.1956 H   0  0  0  0  0  0  0  0  0  0  0  0
  143.7542   76.8955  218.4651 H   0  0  0  0  0  0  0  0  0  0  0  0
  141.8677   78.4040  218.7274 H   0  0  0  0  0  0  0  0  0  0  0  0
  141.2472   76.7636  218.2981 H   0  0  0  0  0  0  0  0  0  0  0  0
  139.8823   77.6915  220.0825 H   0  0  0  0  0  0  0  0  0  0  0  0
  141.8054   79.8897  219.9215 H   0  0  0  0  0  0  0  0  0  0  0  0
  142.5691   81.4977  221.5992 H   0  0  0  0  0  0  0  0  0  0  0  0
  142.5898   80.9056  224.0083 H   0  0  0  0  0  0  0  0  0  0  0  0
  141.0346   77.0081  222.9810 H   0  0  0  0  0  0  0  0  0  0  0  0
  139.1145   69.6256  222.4565 H   0  0  0  0  0  0  0  0  0  0  0  0
  139.1330   68.1780  224.4844 H   0  0  0  0  0  0  0  0  0  0  0  0
  139.6531   67.9035  226.8195 H   0  0  0  0  0  0  0  0  0  0  0  0
  141.4039   71.2185  228.9397 H   0  0  0  0  0  0  0  0  0  0  0  0
  141.3681   72.6275  226.8993 H   0  0  0  0  0  0  0  0  0  0  0  0
  1  2  2  0
  2  3  1  0
  3  4  1  0
  4  5  1  0
  5  6  2  0
  5  7  1  0
  7  8  1  0
  8  9  1  0
  9 10  1  0
 10 11  1  0
 11 12  1  0
 12 13  1  0
 13 14  2  0
 14 15  1  0
 15 16  2  0
 16 17  1  0
 17 18  1  0
 17 19  2  0
  2 20  1  0
 20 21  2  0
 21 22  1  0
 22 23  2  0
 23 24  1  0
 24 25  2  0
 25 26  1  0
 25 27  1  0
 27 28  2  0
 28 29  1  0
 29 30  2  0
 12  7  1  0
 19 13  1  0
 30 20  1  0
 29 23  1  0
  3 31  1  0
  4 32  1  0
  4 33  1  0
  8 34  1  0
  8 35  1  0
  9 36  1  0
  9 37  1  0
 10 38  1  0
 10 39  1  0
 11 40  1  0
 11 41  1  0
 12 42  1  6
 14 43  1  0
 15 44  1  0
 16 45  1  0
 19 46  1  0
 21 47  1  0
 22 48  1  0
 24 49  1  0
 27 50  1  0
 28 51  1  0
M  END
>  <smiles>  (49) 
O=C(NCC(=O)N1CCCCC1c1cccc(F)c1)c1ccc2cc(F)ccc2n1

>  <score_type>  (49) 
oracle

>  <origin>  (49) 
autodockgpu

>  <m_score__min__energy>  (49) 
-9.3000000000000007

>  <m_primary>  (49) 
energy

>  <rmsd>  (49) 
1.938443385347852

>  <m_score__min__rmsd>  (49) 
1.938443385347852

>  <meeko>  (49) 
{"free_energy": -9.08, "intermolecular_energy": -10.57, "internal_energy": -1.51, "cluster_size": 30, "cluster_id": 1, "rank_in_cluster": 21}

>  <energy>  (49) 
-8.2

>  <cluster_rmsd>  (49) 
1.09

>  <cluster>  (49) 
3

$$$$

     RDKit          3D

 51 54  0  0  0  0  0  0  0  0999 V2000
  137.4330   76.0390  221.9070 O   0  0  0  0  0  0  0  0  0  0  0  0
  138.6390   76.1360  222.2990 C   0  0  0  0  0  0  0  0  0  0  0  0
  139.4700   74.9740  222.3620 N   0  0  0  0  0  0  0  0  0  0  0  0
  138.8660   73.7060  221.9590 C   0  0  0  0  0  0  0  0  0  0  0  0
  139.6500   72.5560  222.5150 C   0  0  0  0  0  0  0  0  0  0  0  0
  140.8980   72.5820  222.3490 O   0  0  0  0  0  0  0  0  0  0  0  0
  138.9760   71.5010  223.1970 N   0  0  0  0  0  0  0  0  0  0  0  0
  137.5390   71.5420  223.3750 C   0  0  0  0  0  0  0  0  0  0  0  0
  136.9050   70.1820  223.2540 C   0  0  0  0  0  0  0  0  0  0  0  0
  137.7080   69.1190  223.9660 C   0  0  0  0  0  0  0  0  0  0  0  0
  139.0900   69.1180  223.3800 C   0  0  0  0  0  0  0  0  0  0  0  0
  139.8000   70.4060  223.6900 C   0  0  2  0  0  0  0  0  0  0  0  0
  140.1690   70.5210  225.1010 C   0  0  0  0  0  0  0  0  0  0  0  0
  140.0660   69.4590  225.9930 C   0  0  0  0  0  0  0  0  0  0  0  0
  140.4100   69.5670  227.3220 C   0  0  0  0  0  0  0  0  0  0  0  0
  140.8750   70.7470  227.8350 C   0  0  0  0  0  0  0  0  0  0  0  0
  140.9870   71.8170  226.9730 C   0  0  0  0  0  0  0  0  0  0  0  0
  141.4530   72.9940  227.4870 F   0  0  0  0  0  0  0  0  0  0  0  0
  140.6380   71.7070  225.6230 C   0  0  0  0  0  0  0  0  0  0  0  0
  139.2020   77.4280  222.6930 C   0  0  0  0  0  0  0  0  0  0  0  0
  138.3600   78.4610  223.0510 C   0  0  0  0  0  0  0  0  0  0  0  0
  138.8380   79.7090  223.4340 C   0  0  0  0  0  0  0  0  0  0  0  0
  140.1960   79.8910  223.4490 C   0  0  0  0  0  0  0  0  0  0  0  0
  140.7000   81.1310  223.8280 C   0  0  0  0  0  0  0  0  0  0  0  0
  142.0740   81.2650  223.8260 C   0  0  0  0  0  0  0  0  0  0  0  0
  142.5530   82.4890  224.2020 F   0  0  0  0  0  0  0  0  0  0  0  0
  142.9080   80.2310  223.4690 C   0  0  0  0  0  0  0  0  0  0  0  0
  142.4150   79.0080  223.0940 C   0  0  0  0  0  0  0  0  0  0  0  0
  141.0430   78.8520  223.0890 C   0  0  0  0  0  0  0  0  0  0  0  0
  140.5500   77.6390  222.7180 N   0  0  0  0  0  0  0  0  0  0  0  0
  140.4380   75.0760  222.6820 H   0  0  0  0  0  0  0  0  0  0  0  0
  137.8344   73.6588  222.3380 H   0  0  0  0  0  0  0  0  0  0  0  0
  138.8675   73.6422  220.8609 H   0  0  0  0  0  0  0  0  0  0  0  0
  137.3185   71.9466  224.3738 H   0  0  0  0  0  0  0  0  0  0  0  0
  137.1214   72.1778  222.5804 H   0  0  0  0  0  0  0  0  0  0  0  0
  135.8971   70.2195  223.6929 H   0  0  0  0  0  0  0  0  0  0  0  0
  136.8641   69.9195  222.1866 H   0  0  0  0  0  0  0  0  0  0  0  0
  137.7577   69.3452  225.0413 H   0  0  0  0  0  0  0  0  0  0  0  0
  137.2368   68.1330  223.8403 H   0  0  0  0  0  0  0  0  0  0  0  0
  139.6615   68.2795  223.8046 H   0  0  0  0  0  0  0  0  0  0  0  0
  139.0108   69.0121  222.2880 H   0  0  0  0  0  0  0  0  0  0  0  0
  140.7699   70.4386  223.1721 H   0  0  0  0  0  0  0  0  0  0  0  0
  139.6943   68.4927  225.6215 H   0  0  0  0  0  0  0  0  0  0  0  0
  140.3095   68.6918  227.9807 H   0  0  0  0  0  0  0  0  0  0  0  0
  141.1494   70.8386  228.8963 H   0  0  0  0  0  0  0  0  0  0  0  0
  140.7398   72.5833  224.9659 H   0  0  0  0  0  0  0  0  0  0  0  0
  137.2733   78.2911  223.0327 H   0  0  0  0  0  0  0  0  0  0  0  0
  138.1510   80.5209  223.7148 H   0  0  0  0  0  0  0  0  0  0  0  0
  140.0381   81.9616  224.1144 H   0  0  0  0  0  0  0  0  0  0  0  0
  143.9965   80.3892  223.4848 H   0  0  0  0  0  0  0  0  0  0  0  0
  143.0855   78.1840  222.8085 H   0  0  0  0  0  0  0  0  0  0  0  0
  1  2  2  0
  2  3  1  0
  3  4  1  0
  4  5  1  0
  5  6  2  0
  5  7  1  0
  7  8  1  0
  8  9  1  0
  9 10  1  0
 10 11  1  0
 11 12  1  0
 12 13  1  0
 13 14  2  0
 14 15  1  0
 15 16  2  0
 16 17  1  0
 17 18  1  0
 17 19  2  0
  2 20  1  0
 20 21  2  0
 21 22  1  0
 22 23  2  0
 23 24  1  0
 24 25  2  0
 25 26  1  0
 25 27  1  0
 27 28  2  0
 28 29  1  0
 29 30  2  0
 12  7  1  0
 19 13  1  0
 30 20  1  0
 29 23  1  0
  3 31  1  0
  4 32  1  0
  4 33  1  0
  8 34  1  0
  8 35  1  0
  9 36  1  0
  9 37  1  0
 10 38  1  0
 10 39  1  0
 11 40  1  0
 11 41  1  0
 12 42  1  6
 14 43  1  0
 15 44  1  0
 16 45  1  0
 19 46  1  0
 21 47  1  0
 22 48  1  0
 24 49  1  0
 27 50  1  0
 28 51  1  0
M  END
>  <smiles>  (50) 
O=C(NCC(=O)N1CCCCC1c1cccc(F)c1)c1ccc2cc(F)ccc2n1

>  <score_type>  (50) 
oracle

>  <origin>  (50) 
autodockgpu

>  <m_score__min__energy>  (50) 
-9.3000000000000007

>  <m_primary>  (50) 
energy

>  <rmsd>  (50) 
8.690667936163289

>  <m_score__min__rmsd>  (50) 
8.690667936163289

>  <meeko>  (50) 
{"free_energy": -8.39, "intermolecular_energy": -9.88, "internal_energy": -1.65, "cluster_size": 12, "cluster_id": 2, "rank_in_cluster": 12}

>  <energy>  (50) 
-7.91

>  <cluster_rmsd>  (50) 
0.0

>  <cluster>  (50) 
4

$$$$

     RDKit          3D

 51 54  0  0  0  0  0  0  0  0999 V2000
  140.6910   71.4420  221.1600 O   0  0  0  0  0  0  0  0  0  0  0  0
  140.2580   72.0210  222.2070 C   0  0  0  0  0  0  0  0  0  0  0  0
  139.9140   73.3960  222.2170 N   0  0  0  0  0  0  0  0  0  0  0  0
  140.0640   74.1570  220.9880 C   0  0  0  0  0  0  0  0  0  0  0  0
  140.7180   75.4470  221.2750 C   0  0  0  0  0  0  0  0  0  0  0  0
  140.5110   76.0300  222.3880 O   0  0  0  0  0  0  0  0  0  0  0  0
  141.5920   76.1170  220.3770 N   0  0  0  0  0  0  0  0  0  0  0  0
  141.7870   77.5350  220.5760 C   0  0  0  0  0  0  0  0  0  0  0  0
  141.7350   78.2200  219.2100 C   0  0  0  0  0  0  0  0  0  0  0  0
  142.9450   77.6700  218.4610 C   0  0  0  0  0  0  0  0  0  0  0  0
  142.7470   76.2170  218.1890 C   0  0  0  0  0  0  0  0  0  0  0  0
  142.2410   75.3990  219.3260 C   0  0  1  0  0  0  0  0  0  0  0  0
  143.2590   74.4710  219.8740 C   0  0  0  0  0  0  0  0  0  0  0  0
  144.4960   74.9320  220.3370 C   0  0  0  0  0  0  0  0  0  0  0  0
  145.4540   74.1050  220.8480 C   0  0  0  0  0  0  0  0  0  0  0  0
  145.2400   72.7490  220.9290 C   0  0  0  0  0  0  0  0  0  0  0  0
  144.0260   72.2550  220.4790 C   0  0  0  0  0  0  0  0  0  0  0  0
  143.7770   70.9260  220.5420 F   0  0  0  0  0  0  0  0  0  0  0  0
  143.0690   73.1030  219.9660 C   0  0  0  0  0  0  0  0  0  0  0  0
  140.1150   71.2350  223.4280 C   0  0  0  0  0  0  0  0  0  0  0  0
  139.5270   69.9880  223.4080 C   0  0  0  0  0  0  0  0  0  0  0  0
  139.3740   69.2130  224.5400 C   0  0  0  0  0  0  0  0  0  0  0  0
  139.8340   69.7240  225.7350 C   0  0  0  0  0  0  0  0  0  0  0  0
  139.6960   68.9730  226.8840 C   0  0  0  0  0  0  0  0  0  0  0  0
  140.1450   69.4510  228.1070 C   0  0  0  0  0  0  0  0  0  0  0  0
  139.9820   68.6720  229.1970 F   0  0  0  0  0  0  0  0  0  0  0  0
  140.7340   70.6980  228.1360 C   0  0  0  0  0  0  0  0  0  0  0  0
  140.8760   71.4560  226.9780 C   0  0  0  0  0  0  0  0  0  0  0  0
  140.4240   70.9720  225.7610 C   0  0  0  0  0  0  0  0  0  0  0  0
  140.5480   71.6840  224.6250 N   0  0  0  0  0  0  0  0  0  0  0  0
  139.5680   73.7950  223.1100 H   0  0  0  0  0  0  0  0  0  0  0  0
  140.6797   73.5856  220.2777 H   0  0  0  0  0  0  0  0  0  0  0  0
  139.0710   74.3426  220.5527 H   0  0  0  0  0  0  0  0  0  0  0  0
  140.9915   77.9332  221.2229 H   0  0  0  0  0  0  0  0  0  0  0  0
  142.7580   77.7213  221.0581 H   0  0  0  0  0  0  0  0  0  0  0  0
  140.8033   77.9665  218.6831 H   0  0  0  0  0  0  0  0  0  0  0  0
  141.7560   79.3168  219.2909 H   0  0  0  0  0  0  0  0  0  0  0  0
  143.0617   78.2081  217.5087 H   0  0  0  0  0  0  0  0  0  0  0  0
  143.8477   77.8071  219.0745 H   0  0  0  0  0  0  0  0  0  0  0  0
  142.0268   76.1252  217.3626 H   0  0  0  0  0  0  0  0  0  0  0  0
  143.7478   75.8204  217.9630 H   0  0  0  0  0  0  0  0  0  0  0  0
  141.4452   74.8068  218.8507 H   0  0  0  0  0  0  0  0  0  0  0  0
  144.7062   76.0106  220.2869 H   0  0  0  0  0  0  0  0  0  0  0  0
  146.4071   74.5275  221.1987 H   0  0  0  0  0  0  0  0  0  0  0  0
  146.0088   72.0772  221.3384 H   0  0  0  0  0  0  0  0  0  0  0  0
  142.1173   72.6765  219.6161 H   0  0  0  0  0  0  0  0  0  0  0  0
  139.1638   69.5933  222.4476 H   0  0  0  0  0  0  0  0  0  0  0  0
  138.9010   68.2211  224.4903 H   0  0  0  0  0  0  0  0  0  0  0  0
  139.2233   67.9812  226.8300 H   0  0  0  0  0  0  0  0  0  0  0  0
  141.0982   71.1007  229.0926 H   0  0  0  0  0  0  0  0  0  0  0  0
  141.3507   72.4470  227.0290 H   0  0  0  0  0  0  0  0  0  0  0  0
  1  2  2  0
  2  3  1  0
  3  4  1  0
  4  5  1  0
  5  6  2  0
  5  7  1  0
  7  8  1  0
  8  9  1  0
  9 10  1  0
 10 11  1  0
 11 12  1  0
 12 13  1  0
 13 14  2  0
 14 15  1  0
 15 16  2  0
 16 17  1  0
 17 18  1  0
 17 19  2  0
  2 20  1  0
 20 21  2  0
 21 22  1  0
 22 23  2  0
 23 24  1  0
 24 25  2  0
 25 26  1  0
 25 27  1  0
 27 28  2  0
 28 29  1  0
 29 30  2  0
 12  7  1  0
 19 13  1  0
 30 20  1  0
 29 23  1  0
  3 31  1  0
  4 32  1  0
  4 33  1  0
  8 34  1  0
  8 35  1  0
  9 36  1  0
  9 37  1  0
 10 38  1  0
 10 39  1  0
 11 40  1  0
 11 41  1  0
 12 42  1  6
 14 43  1  0
 15 44  1  0
 16 45  1  0
 19 46  1  0
 21 47  1  0
 22 48  1  0
 24 49  1  0
 27 50  1  0
 28 51  1  0
M  END
>  <smiles>  (51) 
O=C(NCC(=O)N1CCCCC1c1cccc(F)c1)c1ccc2cc(F)ccc2n1

>  <score_type>  (51) 
oracle

>  <origin>  (51) 
autodockgpu

>  <m_score__min__energy>  (51) 
-8.7599999999999998

>  <m_primary>  (51) 
energy

>  <rmsd>  (51) 
2.213771534617319

>  <m_score__min__rmsd>  (51) 
2.213771534617319

>  <meeko>  (51) 
{"free_energy": -8.69, "intermolecular_energy": -10.18, "internal_energy": -1.97, "cluster_size": 35, "cluster_id": 1, "rank_in_cluster": 10}

>  <energy>  (51) 
-8.76

>  <cluster_rmsd>  (51) 
0.0

>  <cluster>  (51) 
1

$$$$

     RDKit          3D

 51 54  0  0  0  0  0  0  0  0999 V2000
  140.7710   77.1080  218.2060 O   0  0  0  0  0  0  0  0  0  0  0  0
  141.9870   77.2100  218.5680 C   0  0  0  0  0  0  0  0  0  0  0  0
  142.5760   78.4620  218.8720 N   0  0  0  0  0  0  0  0  0  0  0  0
  141.7580   79.6580  218.7630 C   0  0  0  0  0  0  0  0  0  0  0  0
  140.7270   79.6580  219.8170 C   0  0  0  0  0  0  0  0  0  0  0  0
  139.4970   79.5560  219.5010 O   0  0  0  0  0  0  0  0  0  0  0  0
  141.0030   79.7670  221.2060 N   0  0  0  0  0  0  0  0  0  0  0  0
  140.6450   81.0050  221.8580 C   0  0  0  0  0  0  0  0  0  0  0  0
  141.7980   81.4120  222.7770 C   0  0  0  0  0  0  0  0  0  0  0  0
  141.8500   80.3120  223.8320 C   0  0  0  0  0  0  0  0  0  0  0  0
  142.2750   79.0300  223.1990 C   0  0  0  0  0  0  0  0  0  0  0  0
  141.6130   78.6830  221.9110 C   0  0  1  0  0  0  0  0  0  0  0  0
  140.6780   77.5380  222.0260 C   0  0  0  0  0  0  0  0  0  0  0  0
  141.0610   76.2420  221.6670 C   0  0  0  0  0  0  0  0  0  0  0  0
  140.2250   75.1670  221.7610 C   0  0  0  0  0  0  0  0  0  0  0  0
  138.9390   75.3170  222.2230 C   0  0  0  0  0  0  0  0  0  0  0  0
  138.5230   76.5870  222.5870 C   0  0  0  0  0  0  0  0  0  0  0  0
  137.2640   76.7760  223.0460 F   0  0  0  0  0  0  0  0  0  0  0  0
  139.3790   77.6630  222.4860 C   0  0  0  0  0  0  0  0  0  0  0  0
  142.7870   75.9950  218.6710 C   0  0  0  0  0  0  0  0  0  0  0  0
  142.6760   74.9870  217.7340 C   0  0  0  0  0  0  0  0  0  0  0  0
  143.4160   73.8230  217.7950 C   0  0  0  0  0  0  0  0  0  0  0  0
  144.2970   73.6760  218.8440 C   0  0  0  0  0  0  0  0  0  0  0  0
  145.0500   72.5240  218.9320 C   0  0  0  0  0  0  0  0  0  0  0  0
  145.9490   72.3360  219.9730 C   0  0  0  0  0  0  0  0  0  0  0  0
  146.6570   71.1880  220.0060 F   0  0  0  0  0  0  0  0  0  0  0  0
  146.0660   73.3380  220.9140 C   0  0  0  0  0  0  0  0  0  0  0  0
  145.3080   74.5020  220.8260 C   0  0  0  0  0  0  0  0  0  0  0  0
  144.4120   74.6800  219.7850 C   0  0  0  0  0  0  0  0  0  0  0  0
  143.6660   75.7960  219.6750 N   0  0  0  0  0  0  0  0  0  0  0  0
  143.5730   78.4630  219.1610 H   0  0  0  0  0  0  0  0  0  0  0  0
  142.3953   80.5474  218.8760 H   0  0  0  0  0  0  0  0  0  0  0  0
  141.2690   79.6740  217.7778 H   0  0  0  0  0  0  0  0  0  0  0  0
  140.4759   81.7877  221.1038 H   0  0  0  0  0  0  0  0  0  0  0  0
  139.7220   80.8739  222.4418 H   0  0  0  0  0  0  0  0  0  0  0  0
  142.7437   81.4592  222.2172 H   0  0  0  0  0  0  0  0  0  0  0  0
  141.6502   82.4088  223.2181 H   0  0  0  0  0  0  0  0  0  0  0  0
  142.5707   80.5899  224.6152 H   0  0  0  0  0  0  0  0  0  0  0  0
  140.8521   80.1859  224.2772 H   0  0  0  0  0  0  0  0  0  0  0  0
  143.3579   79.0891  223.0148 H   0  0  0  0  0  0  0  0  0  0  0  0
  141.9789   78.2401  223.9050 H   0  0  0  0  0  0  0  0  0  0  0  0
  142.4653   78.3784  221.2859 H   0  0  0  0  0  0  0  0  0  0  0  0
  142.0825   76.0814  221.2918 H   0  0  0  0  0  0  0  0  0  0  0  0
  140.5840   74.1705  221.4640 H   0  0  0  0  0  0  0  0  0  0  0  0
  138.2608   74.4545  222.3013 H   0  0  0  0  0  0  0  0  0  0  0  0
  139.0157   78.6581  222.7822 H   0  0  0  0  0  0  0  0  0  0  0  0
  141.9673   75.1170  216.9029 H   0  0  0  0  0  0  0  0  0  0  0  0
  143.3058   73.0390  217.0314 H   0  0  0  0  0  0  0  0  0  0  0  0
  144.9366   71.7426  218.1661 H   0  0  0  0  0  0  0  0  0  0  0  0
  146.7712   73.2148  221.7491 H   0  0  0  0  0  0  0  0  0  0  0  0
  145.4214   75.2863  221.5889 H   0  0  0  0  0  0  0  0  0  0  0  0
  1  2  2  0
  2  3  1  0
  3  4  1  0
  4  5  1  0
  5  6  2  0
  5  7  1  0
  7  8  1  0
  8  9  1  0
  9 10  1  0
 10 11  1  0
 11 12  1  0
 12 13  1  0
 13 14  2  0
 14 15  1  0
 15 16  2  0
 16 17  1  0
 17 18  1  0
 17 19  2  0
  2 20  1  0
 20 21  2  0
 21 22  1  0
 22 23  2  0
 23 24  1  0
 24 25  2  0
 25 26  1  0
 25 27  1  0
 27 28  2  0
 28 29  1  0
 29 30  2  0
 12  7  1  0
 19 13  1  0
 30 20  1  0
 29 23  1  0
  3 31  1  0
  4 32  1  0
  4 33  1  0
  8 34  1  0
  8 35  1  0
  9 36  1  0
  9 37  1  0
 10 38  1  0
 10 39  1  0
 11 40  1  0
 11 41  1  0
 12 42  1  6
 14 43  1  0
 15 44  1  0
 16 45  1  0
 19 46  1  0
 21 47  1  0
 22 48  1  0
 24 49  1  0
 27 50  1  0
 28 51  1  0
M  END
>  <smiles>  (52) 
O=C(NCC(=O)N1CCCCC1c1cccc(F)c1)c1ccc2cc(F)ccc2n1

>  <score_type>  (52) 
oracle

>  <origin>  (52) 
autodockgpu

>  <m_score__min__energy>  (52) 
-8.7599999999999998

>  <m_primary>  (52) 
energy

>  <rmsd>  (52) 
7.829899430045956

>  <m_score__min__rmsd>  (52) 
7.829899430045956

>  <meeko>  (52) 
{"free_energy": -7.01, "intermolecular_energy": -8.5, "internal_energy": -2.39, "cluster_size": 1, "cluster_id": 6, "rank_in_cluster": 1}

>  <energy>  (52) 
-8.72

>  <cluster_rmsd>  (52) 
0.33

>  <cluster>  (52) 
1

$$$$

     RDKit          3D

 51 54  0  0  0  0  0  0  0  0999 V2000
  140.5900   71.6080  221.1010 O   0  0  0  0  0  0  0  0  0  0  0  0
  140.2120   72.1510  222.1870 C   0  0  0  0  0  0  0  0  0  0  0  0
  139.8710   73.5250  222.2610 N   0  0  0  0  0  0  0  0  0  0  0  0
  139.9590   74.3270  221.0520 C   0  0  0  0  0  0  0  0  0  0  0  0
  140.7660   75.5340  221.3100 C   0  0  0  0  0  0  0  0  0  0  0  0
  140.7160   76.0990  222.4490 O   0  0  0  0  0  0  0  0  0  0  0  0
  141.6250   76.1390  220.3540 N   0  0  0  0  0  0  0  0  0  0  0  0
  141.8500   77.5620  220.4720 C   0  0  0  0  0  0  0  0  0  0  0  0
  141.7700   78.1750  219.0740 C   0  0  0  0  0  0  0  0  0  0  0  0
  142.9490   77.5650  218.3220 C   0  0  0  0  0  0  0  0  0  0  0  0
  142.7190   76.1030  218.1330 C   0  0  0  0  0  0  0  0  0  0  0  0
  142.2320   75.3550  219.3250 C   0  0  1  0  0  0  0  0  0  0  0  0
  143.2500   74.4390  219.8940 C   0  0  0  0  0  0  0  0  0  0  0  0
  144.5080   74.8990  220.2930 C   0  0  0  0  0  0  0  0  0  0  0  0
  145.4670   74.0830  220.8200 C   0  0  0  0  0  0  0  0  0  0  0  0
  145.2300   72.7390  220.9840 C   0  0  0  0  0  0  0  0  0  0  0  0
  143.9940   72.2450  220.5990 C   0  0  0  0  0  0  0  0  0  0  0  0
  143.7230   70.9270  220.7450 F   0  0  0  0  0  0  0  0  0  0  0  0
  143.0370   73.0830  220.0690 C   0  0  0  0  0  0  0  0  0  0  0  0
  140.1310   71.3250  223.3870 C   0  0  0  0  0  0  0  0  0  0  0  0
  139.5630   70.0680  223.3500 C   0  0  0  0  0  0  0  0  0  0  0  0
  139.4670   69.2560  224.4620 C   0  0  0  0  0  0  0  0  0  0  0  0
  139.9660   69.7370  225.6530 C   0  0  0  0  0  0  0  0  0  0  0  0
  139.8860   68.9480  226.7820 C   0  0  0  0  0  0  0  0  0  0  0  0
  140.3760   69.3950  228.0020 C   0  0  0  0  0  0  0  0  0  0  0  0
  140.2680   68.5790  229.0710 F   0  0  0  0  0  0  0  0  0  0  0  0
  140.9450   70.6500  228.0480 C   0  0  0  0  0  0  0  0  0  0  0  0
  141.0280   71.4470  226.9100 C   0  0  0  0  0  0  0  0  0  0  0  0
  140.5360   70.9940  225.6970 C   0  0  0  0  0  0  0  0  0  0  0  0
  140.6030   71.7430  224.5800 N   0  0  0  0  0  0  0  0  0  0  0  0
  139.5710   73.8940  223.1830 H   0  0  0  0  0  0  0  0  0  0  0  0
  140.4323   73.7349  220.2548 H   0  0  0  0  0  0  0  0  0  0  0  0
  138.9474   74.6266  220.7408 H   0  0  0  0  0  0  0  0  0  0  0  0
  141.0806   78.0084  221.1191 H   0  0  0  0  0  0  0  0  0  0  0  0
  142.8377   77.7553  220.9160 H   0  0  0  0  0  0  0  0  0  0  0  0
  140.8196   77.9108  218.5873 H   0  0  0  0  0  0  0  0  0  0  0  0
  141.8111   79.2740  219.0960 H   0  0  0  0  0  0  0  0  0  0  0  0
  143.0474   78.0502  217.3397 H   0  0  0  0  0  0  0  0  0  0  0  0
  143.8711   77.7180  218.9020 H   0  0  0  0  0  0  0  0  0  0  0  0
  141.9741   75.9811  217.3328 H   0  0  0  0  0  0  0  0  0  0  0  0
  143.7063   75.6770  217.9011 H   0  0  0  0  0  0  0  0  0  0  0  0
  141.4137   74.7528  218.9034 H   0  0  0  0  0  0  0  0  0  0  0  0
  144.7360   75.9688  220.1769 H   0  0  0  0  0  0  0  0  0  0  0  0
  146.4387   74.5050  221.1163 H   0  0  0  0  0  0  0  0  0  0  0  0
  145.9983   72.0757  221.4080 H   0  0  0  0  0  0  0  0  0  0  0  0
  142.0665   72.6576  219.7737 H   0  0  0  0  0  0  0  0  0  0  0  0
  139.1694   69.6968  222.3922 H   0  0  0  0  0  0  0  0  0  0  0  0
  139.0076   68.2585  224.3996 H   0  0  0  0  0  0  0  0  0  0  0  0
  139.4274   67.9504  226.7147 H   0  0  0  0  0  0  0  0  0  0  0  0
  141.3408   71.0285  229.0020 H   0  0  0  0  0  0  0  0  0  0  0  0
  141.4878   72.4442  226.9744 H   0  0  0  0  0  0  0  0  0  0  0  0
  1  2  2  0
  2  3  1  0
  3  4  1  0
  4  5  1  0
  5  6  2  0
  5  7  1  0
  7  8  1  0
  8  9  1  0
  9 10  1  0
 10 11  1  0
 11 12  1  0
 12 13  1  0
 13 14  2  0
 14 15  1  0
 15 16  2  0
 16 17  1  0
 17 18  1  0
 17 19  2  0
  2 20  1  0
 20 21  2  0
 21 22  1  0
 22 23  2  0
 23 24  1  0
 24 25  2  0
 25 26  1  0
 25 27  1  0
 27 28  2  0
 28 29  1  0
 29 30  2  0
 12  7  1  0
 19 13  1  0
 30 20  1  0
 29 23  1  0
  3 31  1  0
  4 32  1  0
  4 33  1  0
  8 34  1  0
  8 35  1  0
  9 36  1  0
  9 37  1  0
 10 38  1  0
 10 39  1  0
 11 40  1  0
 11 41  1  0
 12 42  1  6
 14 43  1  0
 15 44  1  0
 16 45  1  0
 19 46  1  0
 21 47  1  0
 22 48  1  0
 24 49  1  0
 27 50  1  0
 28 51  1  0
M  END
>  <smiles>  (53) 
O=C(NCC(=O)N1CCCCC1c1cccc(F)c1)c1ccc2cc(F)ccc2n1

>  <score_type>  (53) 
oracle

>  <origin>  (53) 
autodockgpu

>  <m_score__min__energy>  (53) 
-8.7599999999999998

>  <m_primary>  (53) 
energy

>  <rmsd>  (53) 
2.2060645415678746

>  <m_score__min__rmsd>  (53) 
2.2060645415678746

>  <meeko>  (53) 
{"free_energy": -8.68, "intermolecular_energy": -10.18, "internal_energy": -1.99, "cluster_size": 35, "cluster_id": 1, "rank_in_cluster": 13}

>  <energy>  (53) 
-8.72

>  <cluster_rmsd>  (53) 
0.22

>  <cluster>  (53) 
1

$$$$

     RDKit          3D

 51 54  0  0  0  0  0  0  0  0999 V2000
  141.1360   72.5050  221.8020 O   0  0  0  0  0  0  0  0  0  0  0  0
  140.0940   72.4710  222.5310 C   0  0  0  0  0  0  0  0  0  0  0  0
  138.9680   73.2900  222.2690 N   0  0  0  0  0  0  0  0  0  0  0  0
  139.0150   74.1910  221.1310 C   0  0  0  0  0  0  0  0  0  0  0  0
  139.7760   75.4040  221.4830 C   0  0  0  0  0  0  0  0  0  0  0  0
  139.9930   75.6850  222.7050 O   0  0  0  0  0  0  0  0  0  0  0  0
  140.3060   76.3180  220.5330 N   0  0  0  0  0  0  0  0  0  0  0  0
  139.6680   76.3720  219.2380 C   0  0  0  0  0  0  0  0  0  0  0  0
  140.7610   76.4230  218.1690 C   0  0  0  0  0  0  0  0  0  0  0  0
  141.4690   77.7520  218.4110 C   0  0  0  0  0  0  0  0  0  0  0  0
  142.1870   77.7070  219.7180 C   0  0  0  0  0  0  0  0  0  0  0  0
  141.4260   77.1420  220.8660 C   0  0  1  0  0  0  0  0  0  0  0  0
  141.0470   78.1620  221.8730 C   0  0  0  0  0  0  0  0  0  0  0  0
  139.7080   78.4640  222.1410 C   0  0  0  0  0  0  0  0  0  0  0  0
  139.3260   79.3970  223.0610 C   0  0  0  0  0  0  0  0  0  0  0  0
  140.2640   80.0980  223.7810 C   0  0  0  0  0  0  0  0  0  0  0  0
  141.6020   79.8250  223.5430 C   0  0  0  0  0  0  0  0  0  0  0  0
  142.5560   80.4940  224.2320 F   0  0  0  0  0  0  0  0  0  0  0  0
  141.9720   78.8800  222.6110 C   0  0  0  0  0  0  0  0  0  0  0  0
  140.0710   71.5580  223.6680 C   0  0  0  0  0  0  0  0  0  0  0  0
  139.5260   70.2950  223.5580 C   0  0  0  0  0  0  0  0  0  0  0  0
  139.4850   69.4020  224.6090 C   0  0  0  0  0  0  0  0  0  0  0  0
  140.0150   69.8050  225.8160 C   0  0  0  0  0  0  0  0  0  0  0  0
  139.9890   68.9340  226.8860 C   0  0  0  0  0  0  0  0  0  0  0  0
  140.5130   69.3010  228.1170 C   0  0  0  0  0  0  0  0  0  0  0  0
  140.4580   68.4070  229.1270 F   0  0  0  0  0  0  0  0  0  0  0  0
  141.0590   70.5620  228.2370 C   0  0  0  0  0  0  0  0  0  0  0  0
  141.0880   71.4410  227.1590 C   0  0  0  0  0  0  0  0  0  0  0  0
  140.5620   71.0670  225.9330 C   0  0  0  0  0  0  0  0  0  0  0  0
  140.5760   71.8980  224.8730 N   0  0  0  0  0  0  0  0  0  0  0  0
  138.1560   73.2040  222.9100 H   0  0  0  0  0  0  0  0  0  0  0  0
  139.5047   73.6856  220.2855 H   0  0  0  0  0  0  0  0  0  0  0  0
  137.9898   74.4749  220.8510 H   0  0  0  0  0  0  0  0  0  0  0  0
  139.0455   75.4769  219.0919 H   0  0  0  0  0  0  0  0  0  0  0  0
  139.0255   77.2621  219.1676 H   0  0  0  0  0  0  0  0  0  0  0  0
  141.4605   75.5824  218.2876 H   0  0  0  0  0  0  0  0  0  0  0  0
  140.3539   76.3450  217.1501 H   0  0  0  0  0  0  0  0  0  0  0  0
  142.1922   77.9339  217.6023 H   0  0  0  0  0  0  0  0  0  0  0  0
  140.7260   78.5629  218.4306 H   0  0  0  0  0  0  0  0  0  0  0  0
  143.0925   77.0973  219.5828 H   0  0  0  0  0  0  0  0  0  0  0  0
  142.3835   78.7565  219.9826 H   0  0  0  0  0  0  0  0  0  0  0  0
  142.1602   76.4587  221.3178 H   0  0  0  0  0  0  0  0  0  0  0  0
  138.9269   77.9249  221.5849 H   0  0  0  0  0  0  0  0  0  0  0  0
  138.2561   79.5901  223.2281 H   0  0  0  0  0  0  0  0  0  0  0  0
  139.9622   80.8520  224.5229 H   0  0  0  0  0  0  0  0  0  0  0  0
  143.0428   78.6890  222.4473 H   0  0  0  0  0  0  0  0  0  0  0  0
  139.1056   69.9865  222.5894 H   0  0  0  0  0  0  0  0  0  0  0  0
  139.0440   68.4016  224.4877 H   0  0  0  0  0  0  0  0  0  0  0  0
  139.5466   67.9347  226.7611 H   0  0  0  0  0  0  0  0  0  0  0  0
  141.4793   70.8785  229.2030 H   0  0  0  0  0  0  0  0  0  0  0  0
  141.5317   72.4401  227.2809 H   0  0  0  0  0  0  0  0  0  0  0  0
  1  2  2  0
  2  3  1  0
  3  4  1  0
  4  5  1  0
  5  6  2  0
  5  7  1  0
  7  8  1  0
  8  9  1  0
  9 10  1  0
 10 11  1  0
 11 12  1  0
 12 13  1  0
 13 14  2  0
 14 15  1  0
 15 16  2  0
 16 17  1  0
 17 18  1  0
 17 19  2  0
  2 20  1  0
 20 21  2  0
 21 22  1  0
 22 23  2  0
 23 24  1  0
 24 25  2  0
 25 26  1  0
 25 27  1  0
 27 28  2  0
 28 29  1  0
 29 30  2  0
 12  7  1  0
 19 13  1  0
 30 20  1  0
 29 23  1  0
  3 31  1  0
  4 32  1  0
  4 33  1  0
  8 34  1  0
  8 35  1  0
  9 36  1  0
  9 37  1  0
 10 38  1  0
 10 39  1  0
 11 40  1  0
 11 41  1  0
 12 42  1  1
 14 43  1  0
 15 44  1  0
 16 45  1  0
 19 46  1  0
 21 47  1  0
 22 48  1  0
 24 49  1  0
 27 50  1  0
 28 51  1  0
M  END
>  <smiles>  (54) 
O=C(NCC(=O)N1CCCCC1c1cccc(F)c1)c1ccc2cc(F)ccc2n1

>  <score_type>  (54) 
oracle

>  <origin>  (54) 
autodockgpu

>  <m_score__min__energy>  (54) 
-8.7599999999999998

>  <m_primary>  (54) 
energy

>  <rmsd>  (54) 
1.4881499630314061

>  <m_score__min__rmsd>  (54) 
1.4881499630314061

>  <meeko>  (54) 
{"free_energy": -8.61, "intermolecular_energy": -10.1, "internal_energy": -1.26, "cluster_size": 9, "cluster_id": 3, "rank_in_cluster": 2}

>  <energy>  (54) 
-8.72

>  <cluster_rmsd>  (54) 
0.34

>  <cluster>  (54) 
1

$$$$

     RDKit          3D

 51 54  0  0  0  0  0  0  0  0999 V2000
  140.5540   71.6560  221.1020 O   0  0  0  0  0  0  0  0  0  0  0  0
  140.1830   72.1920  222.1950 C   0  0  0  0  0  0  0  0  0  0  0  0
  139.8450   73.5660  222.2790 N   0  0  0  0  0  0  0  0  0  0  0  0
  139.9260   74.3760  221.0760 C   0  0  0  0  0  0  0  0  0  0  0  0
  140.7610   75.5640  221.3270 C   0  0  0  0  0  0  0  0  0  0  0  0
  140.7420   76.1240  222.4710 O   0  0  0  0  0  0  0  0  0  0  0  0
  141.6180   76.1580  220.3620 N   0  0  0  0  0  0  0  0  0  0  0  0
  141.8410   77.5820  220.4600 C   0  0  0  0  0  0  0  0  0  0  0  0
  141.7580   78.1770  219.0540 C   0  0  0  0  0  0  0  0  0  0  0  0
  142.9350   77.5570  218.3080 C   0  0  0  0  0  0  0  0  0  0  0  0
  142.7060   76.0930  218.1390 C   0  0  0  0  0  0  0  0  0  0  0  0
  142.2230   75.3600  219.3420 C   0  0  1  0  0  0  0  0  0  0  0  0
  143.2430   74.4530  219.9200 C   0  0  0  0  0  0  0  0  0  0  0  0
  144.5020   74.9200  220.3100 C   0  0  0  0  0  0  0  0  0  0  0  0
  145.4630   74.1120  220.8450 C   0  0  0  0  0  0  0  0  0  0  0  0
  145.2280   72.7690  221.0270 C   0  0  0  0  0  0  0  0  0  0  0  0
  143.9910   72.2700  220.6530 C   0  0  0  0  0  0  0  0  0  0  0  0
  143.7210   70.9540  220.8160 F   0  0  0  0  0  0  0  0  0  0  0  0
  143.0320   73.0990  220.1130 C   0  0  0  0  0  0  0  0  0  0  0  0
  140.1090   71.3580  223.3890 C   0  0  0  0  0  0  0  0  0  0  0  0
  139.5440   70.1000  223.3460 C   0  0  0  0  0  0  0  0  0  0  0  0
  139.4550   69.2800  224.4530 C   0  0  0  0  0  0  0  0  0  0  0  0
  139.9570   69.7550  225.6450 C   0  0  0  0  0  0  0  0  0  0  0  0
  139.8840   68.9580  226.7700 C   0  0  0  0  0  0  0  0  0  0  0  0
  140.3780   69.3990  227.9900 C   0  0  0  0  0  0  0  0  0  0  0  0
  140.2760   68.5750  229.0540 F   0  0  0  0  0  0  0  0  0  0  0  0
  140.9440   70.6540  228.0420 C   0  0  0  0  0  0  0  0  0  0  0  0
  141.0210   71.4590  226.9090 C   0  0  0  0  0  0  0  0  0  0  0  0
  140.5250   71.0120  225.6950 C   0  0  0  0  0  0  0  0  0  0  0  0
  140.5860   71.7690  224.5830 N   0  0  0  0  0  0  0  0  0  0  0  0
  139.5510   73.9290  223.2060 H   0  0  0  0  0  0  0  0  0  0  0  0
  140.3720   73.7813  220.2652 H   0  0  0  0  0  0  0  0  0  0  0  0
  138.9146   74.6984  220.7875 H   0  0  0  0  0  0  0  0  0  0  0  0
  141.0720   78.0359  221.1023 H   0  0  0  0  0  0  0  0  0  0  0  0
  142.8294   77.7822  220.8993 H   0  0  0  0  0  0  0  0  0  0  0  0
  140.8065   77.9067  218.5728 H   0  0  0  0  0  0  0  0  0  0  0  0
  141.7992   79.2762  219.0614 H   0  0  0  0  0  0  0  0  0  0  0  0
  143.0310   78.0289  217.3190 H   0  0  0  0  0  0  0  0  0  0  0  0
  143.8580   77.7179  218.8843 H   0  0  0  0  0  0  0  0  0  0  0  0
  141.9591   75.9599  217.3425 H   0  0  0  0  0  0  0  0  0  0  0  0
  143.6932   75.6651  217.9101 H   0  0  0  0  0  0  0  0  0  0  0  0
  141.4045   74.7507  218.9312 H   0  0  0  0  0  0  0  0  0  0  0  0
  144.7284   75.9885  220.1795 H   0  0  0  0  0  0  0  0  0  0  0  0
  146.4349   74.5389  221.1335 H   0  0  0  0  0  0  0  0  0  0  0  0
  145.9984   72.1116  221.4562 H   0  0  0  0  0  0  0  0  0  0  0  0
  142.0619   72.6682  219.8244 H   0  0  0  0  0  0  0  0  0  0  0  0
  139.1470   69.7344  222.3875 H   0  0  0  0  0  0  0  0  0  0  0  0
  138.9988   68.2813  224.3857 H   0  0  0  0  0  0  0  0  0  0  0  0
  139.4280   67.9595  226.6986 H   0  0  0  0  0  0  0  0  0  0  0  0
  141.3426   71.0270  228.9970 H   0  0  0  0  0  0  0  0  0  0  0  0
  141.4788   72.4568  226.9780 H   0  0  0  0  0  0  0  0  0  0  0  0
  1  2  2  0
  2  3  1  0
  3  4  1  0
  4  5  1  0
  5  6  2  0
  5  7  1  0
  7  8  1  0
  8  9  1  0
  9 10  1  0
 10 11  1  0
 11 12  1  0
 12 13  1  0
 13 14  2  0
 14 15  1  0
 15 16  2  0
 16 17  1  0
 17 18  1  0
 17 19  2  0
  2 20  1  0
 20 21  2  0
 21 22  1  0
 22 23  2  0
 23 24  1  0
 24 25  2  0
 25 26  1  0
 25 27  1  0
 27 28  2  0
 28 29  1  0
 29 30  2  0
 12  7  1  0
 19 13  1  0
 30 20  1  0
 29 23  1  0
  3 31  1  0
  4 32  1  0
  4 33  1  0
  8 34  1  0
  8 35  1  0
  9 36  1  0
  9 37  1  0
 10 38  1  0
 10 39  1  0
 11 40  1  0
 11 41  1  0
 12 42  1  6
 14 43  1  0
 15 44  1  0
 16 45  1  0
 19 46  1  0
 21 47  1  0
 22 48  1  0
 24 49  1  0
 27 50  1  0
 28 51  1  0
M  END
>  <smiles>  (55) 
O=C(NCC(=O)N1CCCCC1c1cccc(F)c1)c1ccc2cc(F)ccc2n1

>  <score_type>  (55) 
oracle

>  <origin>  (55) 
autodockgpu

>  <m_score__min__energy>  (55) 
-8.7599999999999998

>  <m_primary>  (55) 
energy

>  <rmsd>  (55) 
2.203124530972135

>  <m_score__min__rmsd>  (55) 
2.203124530972135

>  <meeko>  (55) 
{"free_energy": -8.67, "intermolecular_energy": -10.16, "internal_energy": -1.99, "cluster_size": 35, "cluster_id": 1, "rank_in_cluster": 21}

>  <energy>  (55) 
-8.72

>  <cluster_rmsd>  (55) 
0.09

>  <cluster>  (55) 
1

$$$$

     RDKit          3D

 51 54  0  0  0  0  0  0  0  0999 V2000
  133.8500   69.2210  226.4290 O   0  0  0  0  0  0  0  0  0  0  0  0
  134.3870   70.3030  226.0300 C   0  0  0  0  0  0  0  0  0  0  0  0
  135.5480   70.3100  225.2180 N   0  0  0  0  0  0  0  0  0  0  0  0
  136.1340   69.0370  224.8350 C   0  0  0  0  0  0  0  0  0  0  0  0
  137.5980   69.1710  224.7250 C   0  0  0  0  0  0  0  0  0  0  0  0
  138.3550   68.2500  225.1720 O   0  0  0  0  0  0  0  0  0  0  0  0
  138.2560   70.2850  224.1390 N   0  0  0  0  0  0  0  0  0  0  0  0
  137.4400   71.2290  223.4110 C   0  0  0  0  0  0  0  0  0  0  0  0
  138.1680   71.5900  222.1150 C   0  0  0  0  0  0  0  0  0  0  0  0
  139.4340   72.3050  222.5750 C   0  0  0  0  0  0  0  0  0  0  0  0
  140.3260   71.3400  223.2820 C   0  0  0  0  0  0  0  0  0  0  0  0
  139.6700   70.4460  224.2760 C   0  0  1  0  0  0  0  0  0  0  0  0
  140.0290   70.7710  225.6770 C   0  0  0  0  0  0  0  0  0  0  0  0
  140.7960   71.8960  225.9950 C   0  0  0  0  0  0  0  0  0  0  0  0
  141.1440   72.2230  227.2730 C   0  0  0  0  0  0  0  0  0  0  0  0
  140.7460   71.4390  228.3310 C   0  0  0  0  0  0  0  0  0  0  0  0
  139.9840   70.3150  228.0550 C   0  0  0  0  0  0  0  0  0  0  0  0
  139.5730   69.5180  229.0680 F   0  0  0  0  0  0  0  0  0  0  0  0
  139.6410   69.9990  226.7580 C   0  0  0  0  0  0  0  0  0  0  0  0
  133.7800   71.5690  226.4270 C   0  0  0  0  0  0  0  0  0  0  0  0
  132.6220   71.6000  227.1770 C   0  0  0  0  0  0  0  0  0  0  0  0
  132.0170   72.7760  227.5730 C   0  0  0  0  0  0  0  0  0  0  0  0
  132.6080   73.9610  227.1940 C   0  0  0  0  0  0  0  0  0  0  0  0
  132.0270   75.1530  227.5750 C   0  0  0  0  0  0  0  0  0  0  0  0
  132.5900   76.3690  227.2140 C   0  0  0  0  0  0  0  0  0  0  0  0
  131.9760   77.5020  227.6150 F   0  0  0  0  0  0  0  0  0  0  0  0
  133.7470   76.3480  226.4640 C   0  0  0  0  0  0  0  0  0  0  0  0
  134.3360   75.1470  226.0800 C   0  0  0  0  0  0  0  0  0  0  0  0
  133.7660   73.9370  226.4440 C   0  0  0  0  0  0  0  0  0  0  0  0
  134.3140   72.7600  226.0860 N   0  0  0  0  0  0  0  0  0  0  0  0
  135.9260   71.2340  224.9330 H   0  0  0  0  0  0  0  0  0  0  0  0
  135.8932   68.2808  225.5967 H   0  0  0  0  0  0  0  0  0  0  0  0
  135.7246   68.7282  223.8618 H   0  0  0  0  0  0  0  0  0  0  0  0
  136.4654   70.7759  223.1769 H   0  0  0  0  0  0  0  0  0  0  0  0
  137.2715   72.1318  224.0164 H   0  0  0  0  0  0  0  0  0  0  0  0
  138.4188   70.6836  221.5444 H   0  0  0  0  0  0  0  0  0  0  0  0
  137.5533   72.2141  221.4497 H   0  0  0  0  0  0  0  0  0  0  0  0
  139.9599   72.7166  221.7009 H   0  0  0  0  0  0  0  0  0  0  0  0
  139.1634   73.1215  223.2606 H   0  0  0  0  0  0  0  0  0  0  0  0
  140.8024   70.7040  222.5214 H   0  0  0  0  0  0  0  0  0  0  0  0
  141.0290   71.9578  223.8601 H   0  0  0  0  0  0  0  0  0  0  0  0
  140.0956   69.4636  224.0234 H   0  0  0  0  0  0  0  0  0  0  0  0
  141.1347   72.5480  225.1763 H   0  0  0  0  0  0  0  0  0  0  0  0
  141.7489   73.1226  227.4593 H   0  0  0  0  0  0  0  0  0  0  0  0
  141.0239   71.6963  229.3637 H   0  0  0  0  0  0  0  0  0  0  0  0
  139.0358   69.0988  226.5752 H   0  0  0  0  0  0  0  0  0  0  0  0
  132.1609   70.6459  227.4722 H   0  0  0  0  0  0  0  0  0  0  0  0
  131.0939   72.7670  228.1712 H   0  0  0  0  0  0  0  0  0  0  0  0
  131.1042   75.1393  228.1735 H   0  0  0  0  0  0  0  0  0  0  0  0
  134.2130   77.2981  226.1637 H   0  0  0  0  0  0  0  0  0  0  0  0
  135.2602   75.1580  225.4836 H   0  0  0  0  0  0  0  0  0  0  0  0
  1  2  2  0
  2  3  1  0
  3  4  1  0
  4  5  1  0
  5  6  2  0
  5  7  1  0
  7  8  1  0
  8  9  1  0
  9 10  1  0
 10 11  1  0
 11 12  1  0
 12 13  1  0
 13 14  2  0
 14 15  1  0
 15 16  2  0
 16 17  1  0
 17 18  1  0
 17 19  2  0
  2 20  1  0
 20 21  2  0
 21 22  1  0
 22 23  2  0
 23 24  1  0
 24 25  2  0
 25 26  1  0
 25 27  1  0
 27 28  2  0
 28 29  1  0
 29 30  2  0
 12  7  1  0
 19 13  1  0
 30 20  1  0
 29 23  1  0
  3 31  1  0
  4 32  1  0
  4 33  1  0
  8 34  1  0
  8 35  1  0
  9 36  1  0
  9 37  1  0
 10 38  1  0
 10 39  1  0
 11 40  1  0
 11 41  1  0
 12 42  1  6
 14 43  1  0
 15 44  1  0
 16 45  1  0
 19 46  1  0
 21 47  1  0
 22 48  1  0
 24 49  1  0
 27 50  1  0
 28 51  1  0
M  END
>  <smiles>  (56) 
O=C(NCC(=O)N1CCCCC1c1cccc(F)c1)c1ccc2cc(F)ccc2n1

>  <score_type>  (56) 
oracle

>  <origin>  (56) 
autodockgpu

>  <m_score__min__energy>  (56) 
-8.7599999999999998

>  <m_primary>  (56) 
energy

>  <rmsd>  (56) 
7.937534747808208

>  <m_score__min__rmsd>  (56) 
7.937534747808208

>  <meeko>  (56) 
{"free_energy": -8.72, "intermolecular_energy": -10.21, "internal_energy": -1.26, "cluster_size": 2, "cluster_id": 2, "rank_in_cluster": 1}

>  <energy>  (56) 
-8.71

>  <cluster_rmsd>  (56) 
0.21

>  <cluster>  (56) 
1

$$$$

     RDKit          3D

 51 54  0  0  0  0  0  0  0  0999 V2000
  140.8610   71.6600  221.1640 O   0  0  0  0  0  0  0  0  0  0  0  0
  140.3170   72.1780  222.1900 C   0  0  0  0  0  0  0  0  0  0  0  0
  139.8340   73.5110  222.1910 N   0  0  0  0  0  0  0  0  0  0  0  0
  139.9700   74.2980  220.9770 C   0  0  0  0  0  0  0  0  0  0  0  0
  140.8340   75.4660  221.2320 C   0  0  0  0  0  0  0  0  0  0  0  0
  140.8670   75.9910  222.3910 O   0  0  0  0  0  0  0  0  0  0  0  0
  141.6640   76.0740  220.2520 N   0  0  0  0  0  0  0  0  0  0  0  0
  141.8740   77.5000  220.3540 C   0  0  0  0  0  0  0  0  0  0  0  0
  141.7540   78.1030  218.9540 C   0  0  0  0  0  0  0  0  0  0  0  0
  142.9220   77.5010  218.1790 C   0  0  0  0  0  0  0  0  0  0  0  0
  142.7050   76.0350  218.0060 C   0  0  0  0  0  0  0  0  0  0  0  0
  142.2560   75.2900  219.2140 C   0  0  1  0  0  0  0  0  0  0  0  0
  143.2970   74.3900  219.7650 C   0  0  0  0  0  0  0  0  0  0  0  0
  144.4850   74.8910  220.3100 C   0  0  0  0  0  0  0  0  0  0  0  0
  145.4630   74.0910  220.8250 C   0  0  0  0  0  0  0  0  0  0  0  0
  145.3200   72.7240  220.8300 C   0  0  0  0  0  0  0  0  0  0  0  0
  144.1570   72.1900  220.2980 C   0  0  0  0  0  0  0  0  0  0  0  0
  143.9790   70.8490  220.2840 F   0  0  0  0  0  0  0  0  0  0  0  0
  143.1790   73.0120  219.7820 C   0  0  0  0  0  0  0  0  0  0  0  0
  140.1920   71.3670  223.3960 C   0  0  0  0  0  0  0  0  0  0  0  0
  139.5730   70.1340  223.3650 C   0  0  0  0  0  0  0  0  0  0  0  0
  139.4350   69.3370  224.4830 C   0  0  0  0  0  0  0  0  0  0  0  0
  139.9420   69.8080  225.6750 C   0  0  0  0  0  0  0  0  0  0  0  0
  139.8200   69.0340  226.8100 C   0  0  0  0  0  0  0  0  0  0  0  0
  140.3160   69.4720  228.0300 C   0  0  0  0  0  0  0  0  0  0  0  0
  140.1660   68.6710  229.1050 F   0  0  0  0  0  0  0  0  0  0  0  0
  140.9360   70.7030  228.0700 C   0  0  0  0  0  0  0  0  0  0  0  0
  141.0620   71.4860  226.9260 C   0  0  0  0  0  0  0  0  0  0  0  0
  140.5620   71.0410  225.7130 C   0  0  0  0  0  0  0  0  0  0  0  0
  140.6700   71.7770  224.5900 N   0  0  0  0  0  0  0  0  0  0  0  0
  139.4030   73.8620  223.0670 H   0  0  0  0  0  0  0  0  0  0  0  0
  140.4191   73.6771  220.1878 H   0  0  0  0  0  0  0  0  0  0  0  0
  138.9766   74.6446  220.6561 H   0  0  0  0  0  0  0  0  0  0  0  0
  141.1144   77.9416  221.0158 H   0  0  0  0  0  0  0  0  0  0  0  0
  142.8697   77.7080  220.7728 H   0  0  0  0  0  0  0  0  0  0  0  0
  140.7955   77.8248  218.4914 H   0  0  0  0  0  0  0  0  0  0  0  0
  141.7827   79.2025  218.9677 H   0  0  0  0  0  0  0  0  0  0  0  0
  142.9916   77.9799  217.1912 H   0  0  0  0  0  0  0  0  0  0  0  0
  143.8555   77.6690  218.7361 H   0  0  0  0  0  0  0  0  0  0  0  0
  141.9426   75.8985  217.2249 H   0  0  0  0  0  0  0  0  0  0  0  0
  143.6916   75.6192  217.7535 H   0  0  0  0  0  0  0  0  0  0  0  0
  141.4356   74.6752  218.8154 H   0  0  0  0  0  0  0  0  0  0  0  0
  144.6372   75.9803  220.3237 H   0  0  0  0  0  0  0  0  0  0  0  0
  146.3750   74.5446  221.2403 H   0  0  0  0  0  0  0  0  0  0  0  0
  146.1048   72.0736  221.2437 H   0  0  0  0  0  0  0  0  0  0  0  0
  142.2687   72.5544  219.3673 H   0  0  0  0  0  0  0  0  0  0  0  0
  139.1721   69.7706  222.4073 H   0  0  0  0  0  0  0  0  0  0  0  0
  138.9368   68.3580  224.4248 H   0  0  0  0  0  0  0  0  0  0  0  0
  139.3222   68.0551  226.7474 H   0  0  0  0  0  0  0  0  0  0  0  0
  141.3388   71.0734  229.0243 H   0  0  0  0  0  0  0  0  0  0  0  0
  141.5617   72.4642  226.9854 H   0  0  0  0  0  0  0  0  0  0  0  0
  1  2  2  0
  2  3  1  0
  3  4  1  0
  4  5  1  0
  5  6  2  0
  5  7  1  0
  7  8  1  0
  8  9  1  0
  9 10  1  0
 10 11  1  0
 11 12  1  0
 12 13  1  0
 13 14  2  0
 14 15  1  0
 15 16  2  0
 16 17  1  0
 17 18  1  0
 17 19  2  0
  2 20  1  0
 20 21  2  0
 21 22  1  0
 22 23  2  0
 23 24  1  0
 24 25  2  0
 25 26  1  0
 25 27  1  0
 27 28  2  0
 28 29  1  0
 29 30  2  0
 12  7  1  0
 19 13  1  0
 30 20  1  0
 29 23  1  0
  3 31  1  0
  4 32  1  0
  4 33  1  0
  8 34  1  0
  8 35  1  0
  9 36  1  0
  9 37  1  0
 10 38  1  0
 10 39  1  0
 11 40  1  0
 11 41  1  0
 12 42  1  6
 14 43  1  0
 15 44  1  0
 16 45  1  0
 19 46  1  0
 21 47  1  0
 22 48  1  0
 24 49  1  0
 27 50  1  0
 28 51  1  0
M  END
>  <smiles>  (57) 
O=C(NCC(=O)N1CCCCC1c1cccc(F)c1)c1ccc2cc(F)ccc2n1

>  <score_type>  (57) 
oracle

>  <origin>  (57) 
autodockgpu

>  <m_score__min__energy>  (57) 
-8.7599999999999998

>  <m_primary>  (57) 
energy

>  <rmsd>  (57) 
2.2092189079927413

>  <m_score__min__rmsd>  (57) 
2.2092189079927413

>  <meeko>  (57) 
{"free_energy": -8.72, "intermolecular_energy": -10.21, "internal_energy": -1.9, "cluster_size": 35, "cluster_id": 1, "rank_in_cluster": 3}

>  <energy>  (57) 
-8.7

>  <cluster_rmsd>  (57) 
0.34

>  <cluster>  (57) 
1

$$$$

     RDKit          3D

 51 54  0  0  0  0  0  0  0  0999 V2000
  140.6310   71.4930  221.0860 O   0  0  0  0  0  0  0  0  0  0  0  0
  140.2260   72.0600  222.1500 C   0  0  0  0  0  0  0  0  0  0  0  0
  139.8920   73.4370  222.1870 N   0  0  0  0  0  0  0  0  0  0  0  0
  140.0200   74.2130  220.9650 C   0  0  0  0  0  0  0  0  0  0  0  0
  140.7370   75.4710  221.2440 C   0  0  0  0  0  0  0  0  0  0  0  0
  140.5900   76.0490  222.3690 O   0  0  0  0  0  0  0  0  0  0  0  0
  141.6090   76.1140  220.3260 N   0  0  0  0  0  0  0  0  0  0  0  0
  141.8050   77.5370  220.4820 C   0  0  0  0  0  0  0  0  0  0  0  0
  141.7500   78.1820  219.0970 C   0  0  0  0  0  0  0  0  0  0  0  0
  142.9590   77.6100  218.3620 C   0  0  0  0  0  0  0  0  0  0  0  0
  142.7600   76.1490  218.1340 C   0  0  0  0  0  0  0  0  0  0  0  0
  142.2560   75.3650  219.2950 C   0  0  1  0  0  0  0  0  0  0  0  0
  143.2750   74.4540  219.8680 C   0  0  0  0  0  0  0  0  0  0  0  0
  144.5140   74.9270  220.3130 C   0  0  0  0  0  0  0  0  0  0  0  0
  145.4730   74.1160  220.8460 C   0  0  0  0  0  0  0  0  0  0  0  0
  145.2580   72.7640  220.9700 C   0  0  0  0  0  0  0  0  0  0  0  0
  144.0420   72.2570  220.5400 C   0  0  0  0  0  0  0  0  0  0  0  0
  143.7920   70.9320  220.6460 F   0  0  0  0  0  0  0  0  0  0  0  0
  143.0840   73.0900  220.0040 C   0  0  0  0  0  0  0  0  0  0  0  0
  140.1060   71.2590  223.3630 C   0  0  0  0  0  0  0  0  0  0  0  0
  139.5490   69.9970  223.3320 C   0  0  0  0  0  0  0  0  0  0  0  0
  139.4170   69.2070  224.4570 C   0  0  0  0  0  0  0  0  0  0  0  0
  139.8670   69.7180  225.6560 C   0  0  0  0  0  0  0  0  0  0  0  0
  139.7500   68.9520  226.7980 C   0  0  0  0  0  0  0  0  0  0  0  0
  140.1900   69.4290  228.0240 C   0  0  0  0  0  0  0  0  0  0  0  0
  140.0490   68.6350  229.1060 F   0  0  0  0  0  0  0  0  0  0  0  0
  140.7480   70.6890  228.0650 C   0  0  0  0  0  0  0  0  0  0  0  0
  140.8690   71.4630  226.9140 C   0  0  0  0  0  0  0  0  0  0  0  0
  140.4260   70.9790  225.6940 C   0  0  0  0  0  0  0  0  0  0  0  0
  140.5290   71.7060  224.5640 N   0  0  0  0  0  0  0  0  0  0  0  0
  139.5690   73.8260  223.0930 H   0  0  0  0  0  0  0  0  0  0  0  0
  140.5814   73.6304  220.2198 H   0  0  0  0  0  0  0  0  0  0  0  0
  139.0176   74.4452  220.5760 H   0  0  0  0  0  0  0  0  0  0  0  0
  141.0112   77.9545  221.1189 H   0  0  0  0  0  0  0  0  0  0  0  0
  142.7776   77.7367  220.9555 H   0  0  0  0  0  0  0  0  0  0  0  0
  140.8173   77.9133  218.5795 H   0  0  0  0  0  0  0  0  0  0  0  0
  141.7709   79.2807  219.1457 H   0  0  0  0  0  0  0  0  0  0  0  0
  143.0737   78.1195  217.3939 H   0  0  0  0  0  0  0  0  0  0  0  0
  143.8631   77.7655  218.9689 H   0  0  0  0  0  0  0  0  0  0  0  0
  142.0383   76.0329  217.3120 H   0  0  0  0  0  0  0  0  0  0  0  0
  143.7605   75.7458  217.9187 H   0  0  0  0  0  0  0  0  0  0  0  0
  141.4592   74.7591  218.8389 H   0  0  0  0  0  0  0  0  0  0  0  0
  144.7250   76.0033  220.2293 H   0  0  0  0  0  0  0  0  0  0  0  0
  146.4278   74.5484  221.1798 H   0  0  0  0  0  0  0  0  0  0  0  0
  146.0277   72.1046  221.3975 H   0  0  0  0  0  0  0  0  0  0  0  0
  142.1305   72.6539  219.6713 H   0  0  0  0  0  0  0  0  0  0  0  0
  139.1943   69.6026  222.3683 H   0  0  0  0  0  0  0  0  0  0  0  0
  138.9682   68.2044  224.3986 H   0  0  0  0  0  0  0  0  0  0  0  0
  139.3017   67.9495  226.7352 H   0  0  0  0  0  0  0  0  0  0  0  0
  141.1043   71.0904  229.0252 H   0  0  0  0  0  0  0  0  0  0  0  0
  141.3191   72.4649  226.9738 H   0  0  0  0  0  0  0  0  0  0  0  0
  1  2  2  0
  2  3  1  0
  3  4  1  0
  4  5  1  0
  5  6  2  0
  5  7  1  0
  7  8  1  0
  8  9  1  0
  9 10  1  0
 10 11  1  0
 11 12  1  0
 12 13  1  0
 13 14  2  0
 14 15  1  0
 15 16  2  0
 16 17  1  0
 17 18  1  0
 17 19  2  0
  2 20  1  0
 20 21  2  0
 21 22  1  0
 22 23  2  0
 23 24  1  0
 24 25  2  0
 25 26  1  0
 25 27  1  0
 27 28  2  0
 28 29  1  0
 29 30  2  0
 12  7  1  0
 19 13  1  0
 30 20  1  0
 29 23  1  0
  3 31  1  0
  4 32  1  0
  4 33  1  0
  8 34  1  0
  8 35  1  0
  9 36  1  0
  9 37  1  0
 10 38  1  0
 10 39  1  0
 11 40  1  0
 11 41  1  0
 12 42  1  6
 14 43  1  0
 15 44  1  0
 16 45  1  0
 19 46  1  0
 21 47  1  0
 22 48  1  0
 24 49  1  0
 27 50  1  0
 28 51  1  0
M  END
>  <smiles>  (58) 
O=C(NCC(=O)N1CCCCC1c1cccc(F)c1)c1ccc2cc(F)ccc2n1

>  <score_type>  (58) 
oracle

>  <origin>  (58) 
autodockgpu

>  <m_score__min__energy>  (58) 
-8.7599999999999998

>  <m_primary>  (58) 
energy

>  <rmsd>  (58) 
2.1990877995096567

>  <m_score__min__rmsd>  (58) 
2.1990877995096567

>  <meeko>  (58) 
{"free_energy": -8.68, "intermolecular_energy": -10.17, "internal_energy": -1.99, "cluster_size": 35, "cluster_id": 1, "rank_in_cluster": 15}

>  <energy>  (58) 
-8.7

>  <cluster_rmsd>  (58) 
0.39

>  <cluster>  (58) 
1

$$$$

     RDKit          3D

 51 54  0  0  0  0  0  0  0  0999 V2000
  141.1490   72.3730  221.2640 O   0  0  0  0  0  0  0  0  0  0  0  0
  140.4250   72.7640  222.2340 C   0  0  0  0  0  0  0  0  0  0  0  0
  139.8180   74.0440  222.2490 N   0  0  0  0  0  0  0  0  0  0  0  0
  140.0340   74.9270  221.1160 C   0  0  0  0  0  0  0  0  0  0  0  0
  139.6780   76.3100  221.4830 C   0  0  0  0  0  0  0  0  0  0  0  0
  138.4540   76.6400  221.6020 O   0  0  0  0  0  0  0  0  0  0  0  0
  140.6240   77.3420  221.7230 N   0  0  0  0  0  0  0  0  0  0  0  0
  141.0910   77.5100  223.0800 C   0  0  0  0  0  0  0  0  0  0  0  0
  141.1120   79.0060  223.3960 C   0  0  0  0  0  0  0  0  0  0  0  0
  142.1640   79.5810  222.4530 C   0  0  0  0  0  0  0  0  0  0  0  0
  141.6840   79.4740  221.0440 C   0  0  0  0  0  0  0  0  0  0  0  0
  141.0820   78.1710  220.6520 C   0  0  1  0  0  0  0  0  0  0  0  0
  141.9290   77.3960  219.7140 C   0  0  0  0  0  0  0  0  0  0  0  0
  142.0400   77.7500  218.3650 C   0  0  0  0  0  0  0  0  0  0  0  0
  142.8110   77.0590  217.4760 C   0  0  0  0  0  0  0  0  0  0  0  0
  143.5280   75.9570  217.8770 C   0  0  0  0  0  0  0  0  0  0  0  0
  143.4430   75.5760  219.2060 C   0  0  0  0  0  0  0  0  0  0  0  0
  144.1340   74.4960  219.6410 F   0  0  0  0  0  0  0  0  0  0  0  0
  142.6600   76.2840  220.0920 C   0  0  0  0  0  0  0  0  0  0  0  0
  140.2220   71.8590  223.3600 C   0  0  0  0  0  0  0  0  0  0  0  0
  139.5300   70.6750  223.2070 C   0  0  0  0  0  0  0  0  0  0  0  0
  139.3170   69.7920  224.2470 C   0  0  0  0  0  0  0  0  0  0  0  0
  139.8240   70.1230  225.4850 C   0  0  0  0  0  0  0  0  0  0  0  0
  139.6270   69.2600  226.5440 C   0  0  0  0  0  0  0  0  0  0  0  0
  140.1210   69.5570  227.8070 C   0  0  0  0  0  0  0  0  0  0  0  0
  139.8970   68.6750  228.8030 F   0  0  0  0  0  0  0  0  0  0  0  0
  140.8130   70.7380  227.9690 C   0  0  0  0  0  0  0  0  0  0  0  0
  141.0140   71.6090  226.9020 C   0  0  0  0  0  0  0  0  0  0  0  0
  140.5170   71.3060  225.6450 C   0  0  0  0  0  0  0  0  0  0  0  0
  140.6960   72.1300  224.5940 N   0  0  0  0  0  0  0  0  0  0  0  0
  139.2410   74.2900  223.0760 H   0  0  0  0  0  0  0  0  0  0  0  0
  141.0929   74.8890  220.8206 H   0  0  0  0  0  0  0  0  0  0  0  0
  139.4021   74.6008  220.2768 H   0  0  0  0  0  0  0  0  0  0  0  0
  140.4127   76.9922  223.7741 H   0  0  0  0  0  0  0  0  0  0  0  0
  142.0991   77.0840  223.1905 H   0  0  0  0  0  0  0  0  0  0  0  0
  140.1280   79.4580  223.2027 H   0  0  0  0  0  0  0  0  0  0  0  0
  141.3428   79.2071  224.4525 H   0  0  0  0  0  0  0  0  0  0  0  0
  142.3394   80.6383  222.7009 H   0  0  0  0  0  0  0  0  0  0  0  0
  143.1018   79.0169  222.5637 H   0  0  0  0  0  0  0  0  0  0  0  0
  140.9251   80.2548  220.8878 H   0  0  0  0  0  0  0  0  0  0  0  0
  142.5819   79.5835  220.4181 H   0  0  0  0  0  0  0  0  0  0  0  0
  140.1702   78.4865  220.1237 H   0  0  0  0  0  0  0  0  0  0  0  0
  141.4801   78.6255  218.0044 H   0  0  0  0  0  0  0  0  0  0  0  0
  142.8592   77.3874  216.4273 H   0  0  0  0  0  0  0  0  0  0  0  0
  144.1500   75.3951  217.1646 H   0  0  0  0  0  0  0  0  0  0  0  0
  142.6146   75.9522  221.1398 H   0  0  0  0  0  0  0  0  0  0  0  0
  139.1307   70.4237  222.2133 H   0  0  0  0  0  0  0  0  0  0  0  0
  138.7611   68.8555  224.0925 H   0  0  0  0  0  0  0  0  0  0  0  0
  139.0710   68.3242  226.3851 H   0  0  0  0  0  0  0  0  0  0  0  0
  141.2139   70.9970  228.9600 H   0  0  0  0  0  0  0  0  0  0  0  0
  141.5714   72.5444  227.0580 H   0  0  0  0  0  0  0  0  0  0  0  0
  1  2  2  0
  2  3  1  0
  3  4  1  0
  4  5  1  0
  5  6  2  0
  5  7  1  0
  7  8  1  0
  8  9  1  0
  9 10  1  0
 10 11  1  0
 11 12  1  0
 12 13  1  0
 13 14  2  0
 14 15  1  0
 15 16  2  0
 16 17  1  0
 17 18  1  0
 17 19  2  0
  2 20  1  0
 20 21  2  0
 21 22  1  0
 22 23  2  0
 23 24  1  0
 24 25  2  0
 25 26  1  0
 25 27  1  0
 27 28  2  0
 28 29  1  0
 29 30  2  0
 12  7  1  0
 19 13  1  0
 30 20  1  0
 29 23  1  0
  3 31  1  0
  4 32  1  0
  4 33  1  0
  8 34  1  0
  8 35  1  0
  9 36  1  0
  9 37  1  0
 10 38  1  0
 10 39  1  0
 11 40  1  0
 11 41  1  0
 12 42  1  6
 14 43  1  0
 15 44  1  0
 16 45  1  0
 19 46  1  0
 21 47  1  0
 22 48  1  0
 24 49  1  0
 27 50  1  0
 28 51  1  0
M  END
>  <smiles>  (59) 
O=C(NCC(=O)N1CCCCC1c1cccc(F)c1)c1ccc2cc(F)ccc2n1

>  <score_type>  (59) 
oracle

>  <origin>  (59) 
autodockgpu

>  <m_score__min__energy>  (59) 
-8.7599999999999998

>  <m_primary>  (59) 
energy

>  <rmsd>  (59) 
3.1713196351126465

>  <m_score__min__rmsd>  (59) 
3.1713196351126465

>  <meeko>  (59) 
{"free_energy": -8.33, "intermolecular_energy": -9.82, "internal_energy": -1.42, "cluster_size": 35, "cluster_id": 1, "rank_in_cluster": 31}

>  <energy>  (59) 
-8.7

>  <cluster_rmsd>  (59) 
0.89

>  <cluster>  (59) 
1

$$$$

     RDKit          3D

 51 54  0  0  0  0  0  0  0  0999 V2000
  141.1340   71.8180  221.2870 O   0  0  0  0  0  0  0  0  0  0  0  0
  140.3970   72.2710  222.2200 C   0  0  0  0  0  0  0  0  0  0  0  0
  139.7530   73.5300  222.1230 N   0  0  0  0  0  0  0  0  0  0  0  0
  139.9470   74.3170  220.9180 C   0  0  0  0  0  0  0  0  0  0  0  0
  140.8380   75.4570  221.2020 C   0  0  0  0  0  0  0  0  0  0  0  0
  140.8900   75.9440  222.3770 O   0  0  0  0  0  0  0  0  0  0  0  0
  141.6730   76.0790  220.2350 N   0  0  0  0  0  0  0  0  0  0  0  0
  141.9650   77.4820  220.4150 C   0  0  0  0  0  0  0  0  0  0  0  0
  141.8410   78.1740  219.0570 C   0  0  0  0  0  0  0  0  0  0  0  0
  142.9530   77.5580  218.2140 C   0  0  0  0  0  0  0  0  0  0  0  0
  142.6510   76.1190  217.9610 C   0  0  0  0  0  0  0  0  0  0  0  0
  142.1930   75.3280  219.1360 C   0  0  1  0  0  0  0  0  0  0  0  0
  143.1970   74.3410  219.6010 C   0  0  0  0  0  0  0  0  0  0  0  0
  143.1120   72.9890  219.2520 C   0  0  0  0  0  0  0  0  0  0  0  0
  144.0190   72.0560  219.6630 C   0  0  0  0  0  0  0  0  0  0  0  0
  145.0820   72.4140  220.4590 C   0  0  0  0  0  0  0  0  0  0  0  0
  145.2000   73.7450  220.8250 C   0  0  0  0  0  0  0  0  0  0  0  0
  146.2330   74.1380  221.6070 F   0  0  0  0  0  0  0  0  0  0  0  0
  144.2750   74.6760  220.4010 C   0  0  0  0  0  0  0  0  0  0  0  0
  140.2180   71.4610  223.4200 C   0  0  0  0  0  0  0  0  0  0  0  0
  139.5690   70.2450  223.3680 C   0  0  0  0  0  0  0  0  0  0  0  0
  139.3790   69.4490  224.4800 C   0  0  0  0  0  0  0  0  0  0  0  0
  139.8650   69.9060  225.6870 C   0  0  0  0  0  0  0  0  0  0  0  0
  139.6910   69.1320  226.8160 C   0  0  0  0  0  0  0  0  0  0  0  0
  140.1640   69.5560  228.0510 C   0  0  0  0  0  0  0  0  0  0  0  0
  139.9640   68.7570  229.1200 F   0  0  0  0  0  0  0  0  0  0  0  0
  140.8130   70.7710  228.1110 C   0  0  0  0  0  0  0  0  0  0  0  0
  140.9910   71.5520  226.9730 C   0  0  0  0  0  0  0  0  0  0  0  0
  140.5140   71.1220  225.7450 C   0  0  0  0  0  0  0  0  0  0  0  0
  140.6720   71.8570  224.6270 N   0  0  0  0  0  0  0  0  0  0  0  0
  139.1680   73.8290  222.9260 H   0  0  0  0  0  0  0  0  0  0  0  0
  140.3992   73.6858  220.1388 H   0  0  0  0  0  0  0  0  0  0  0  0
  138.9739   74.6951  220.5715 H   0  0  0  0  0  0  0  0  0  0  0  0
  141.2495   77.9232  221.1244 H   0  0  0  0  0  0  0  0  0  0  0  0
  142.9815   77.6102  220.8153 H   0  0  0  0  0  0  0  0  0  0  0  0
  140.8567   77.9758  218.6077 H   0  0  0  0  0  0  0  0  0  0  0  0
  141.9304   79.2676  219.1342 H   0  0  0  0  0  0  0  0  0  0  0  0
  143.0232   78.0914  217.2546 H   0  0  0  0  0  0  0  0  0  0  0  0
  143.9085   77.6414  218.7527 H   0  0  0  0  0  0  0  0  0  0  0  0
  141.8622   76.0709  217.1958 H   0  0  0  0  0  0  0  0  0  0  0  0
  143.6060   75.6667  217.6553 H   0  0  0  0  0  0  0  0  0  0  0  0
  141.3288   74.7835  218.7277 H   0  0  0  0  0  0  0  0  0  0  0  0
  142.2752   72.6629  218.6168 H   0  0  0  0  0  0  0  0  0  0  0  0
  143.8988   71.0070  219.3546 H   0  0  0  0  0  0  0  0  0  0  0  0
  145.8159   71.6665  220.7947 H   0  0  0  0  0  0  0  0  0  0  0  0
  144.3989   75.7243  220.7105 H   0  0  0  0  0  0  0  0  0  0  0  0
  139.1861   69.8941  222.3983 H   0  0  0  0  0  0  0  0  0  0  0  0
  138.8577   68.4832  224.4057 H   0  0  0  0  0  0  0  0  0  0  0  0
  139.1706   68.1661  226.7368 H   0  0  0  0  0  0  0  0  0  0  0  0
  141.1975   71.1300  229.0771 H   0  0  0  0  0  0  0  0  0  0  0  0
  141.5137   72.5169  227.0487 H   0  0  0  0  0  0  0  0  0  0  0  0
  1  2  2  0
  2  3  1  0
  3  4  1  0
  4  5  1  0
  5  6  2  0
  5  7  1  0
  7  8  1  0
  8  9  1  0
  9 10  1  0
 10 11  1  0
 11 12  1  0
 12 13  1  0
 13 14  2  0
 14 15  1  0
 15 16  2  0
 16 17  1  0
 17 18  1  0
 17 19  2  0
  2 20  1  0
 20 21  2  0
 21 22  1  0
 22 23  2  0
 23 24  1  0
 24 25  2  0
 25 26  1  0
 25 27  1  0
 27 28  2  0
 28 29  1  0
 29 30  2  0
 12  7  1  0
 19 13  1  0
 30 20  1  0
 29 23  1  0
  3 31  1  0
  4 32  1  0
  4 33  1  0
  8 34  1  0
  8 35  1  0
  9 36  1  0
  9 37  1  0
 10 38  1  0
 10 39  1  0
 11 40  1  0
 11 41  1  0
 12 42  1  6
 14 43  1  0
 15 44  1  0
 16 45  1  0
 19 46  1  0
 21 47  1  0
 22 48  1  0
 24 49  1  0
 27 50  1  0
 28 51  1  0
M  END
>  <smiles>  (60) 
O=C(NCC(=O)N1CCCCC1c1cccc(F)c1)c1ccc2cc(F)ccc2n1

>  <score_type>  (60) 
oracle

>  <origin>  (60) 
autodockgpu

>  <m_score__min__energy>  (60) 
-8.7599999999999998

>  <m_primary>  (60) 
energy

>  <rmsd>  (60) 
2.249120224061293

>  <m_score__min__rmsd>  (60) 
2.249120224061293

>  <meeko>  (60) 
{"free_energy": -8.65, "intermolecular_energy": -10.14, "internal_energy": -1.84, "cluster_size": 35, "cluster_id": 1, "rank_in_cluster": 26}

>  <energy>  (60) 
-8.69

>  <cluster_rmsd>  (60) 
0.38

>  <cluster>  (60) 
1

$$$$

     RDKit          3D

 51 54  0  0  0  0  0  0  0  0999 V2000
  141.1090   72.3090  221.5890 O   0  0  0  0  0  0  0  0  0  0  0  0
  140.1450   72.4260  222.4100 C   0  0  0  0  0  0  0  0  0  0  0  0
  139.1230   73.3920  222.2350 N   0  0  0  0  0  0  0  0  0  0  0  0
  139.1890   74.2690  221.0790 C   0  0  0  0  0  0  0  0  0  0  0  0
  140.2570   75.2680  221.2670 C   0  0  0  0  0  0  0  0  0  0  0  0
  140.9650   75.2480  222.3250 O   0  0  0  0  0  0  0  0  0  0  0  0
  140.5720   76.2870  220.3290 N   0  0  0  0  0  0  0  0  0  0  0  0
  139.8030   76.3240  219.1070 C   0  0  0  0  0  0  0  0  0  0  0  0
  140.7660   76.5650  217.9430 C   0  0  0  0  0  0  0  0  0  0  0  0
  141.3300   77.9590  218.1970 C   0  0  0  0  0  0  0  0  0  0  0  0
  142.1780   77.9410  219.4240 C   0  0  0  0  0  0  0  0  0  0  0  0
  141.6130   77.2280  220.6030 C   0  0  1  0  0  0  0  0  0  0  0  0
  141.2190   78.1420  221.7030 C   0  0  0  0  0  0  0  0  0  0  0  0
  142.1570   78.9490  222.3550 C   0  0  0  0  0  0  0  0  0  0  0  0
  141.8280   79.8000  223.3690 C   0  0  0  0  0  0  0  0  0  0  0  0
  140.5280   79.9030  223.8060 C   0  0  0  0  0  0  0  0  0  0  0  0
  139.5700   79.1180  223.1830 C   0  0  0  0  0  0  0  0  0  0  0  0
  138.2800   79.1900  223.5840 F   0  0  0  0  0  0  0  0  0  0  0  0
  139.9190   78.2630  222.1600 C   0  0  0  0  0  0  0  0  0  0  0  0
  140.1010   71.5340  223.5630 C   0  0  0  0  0  0  0  0  0  0  0  0
  139.5310   70.2800  223.4740 C   0  0  0  0  0  0  0  0  0  0  0  0
  139.4700   69.4070  224.5410 C   0  0  0  0  0  0  0  0  0  0  0  0
  140.0060   69.8210  225.7410 C   0  0  0  0  0  0  0  0  0  0  0  0
  139.9600   68.9690  226.8260 C   0  0  0  0  0  0  0  0  0  0  0  0
  140.4880   69.3480  228.0520 C   0  0  0  0  0  0  0  0  0  0  0  0
  140.4140   68.4730  229.0770 F   0  0  0  0  0  0  0  0  0  0  0  0
  141.0590   70.5990  228.1510 C   0  0  0  0  0  0  0  0  0  0  0  0
  141.1080   71.4590  227.0580 C   0  0  0  0  0  0  0  0  0  0  0  0
  140.5770   71.0730  225.8370 C   0  0  0  0  0  0  0  0  0  0  0  0
  140.6100   71.8850  224.7630 N   0  0  0  0  0  0  0  0  0  0  0  0
  138.3700   73.4250  222.9490 H   0  0  0  0  0  0  0  0  0  0  0  0
  139.4022   73.6720  220.1800 H   0  0  0  0  0  0  0  0  0  0  0  0
  138.2255   74.7867  220.9618 H   0  0  0  0  0  0  0  0  0  0  0  0
  139.2812   75.3659  218.9663 H   0  0  0  0  0  0  0  0  0  0  0  0
  139.0544   77.1286  219.1535 H   0  0  0  0  0  0  0  0  0  0  0  0
  141.5701   75.8144  217.9418 H   0  0  0  0  0  0  0  0  0  0  0  0
  140.2684   76.4867  216.9651 H   0  0  0  0  0  0  0  0  0  0  0  0
  141.9395   78.2697  217.3356 H   0  0  0  0  0  0  0  0  0  0  0  0
  140.5008   78.6681  218.3370 H   0  0  0  0  0  0  0  0  0  0  0  0
  143.1322   77.4586  219.1655 H   0  0  0  0  0  0  0  0  0  0  0  0
  142.2715   78.9926  219.7328 H   0  0  0  0  0  0  0  0  0  0  0  0
  142.4666   76.6211  220.9391 H   0  0  0  0  0  0  0  0  0  0  0  0
  143.2082   78.8949  222.0354 H   0  0  0  0  0  0  0  0  0  0  0  0
  142.6110   80.4106  223.8424 H   0  0  0  0  0  0  0  0  0  0  0  0
  140.2569   80.5866  224.6240 H   0  0  0  0  0  0  0  0  0  0  0  0
  139.1338   77.6535  221.6889 H   0  0  0  0  0  0  0  0  0  0  0  0
  139.1067   69.9626  222.5101 H   0  0  0  0  0  0  0  0  0  0  0  0
  139.0089   68.4137  224.4370 H   0  0  0  0  0  0  0  0  0  0  0  0
  139.4987   67.9764  226.7173 H   0  0  0  0  0  0  0  0  0  0  0  0
  141.4840   70.9235  229.1123 H   0  0  0  0  0  0  0  0  0  0  0  0
  141.5710   72.4512  227.1635 H   0  0  0  0  0  0  0  0  0  0  0  0
  1  2  2  0
  2  3  1  0
  3  4  1  0
  4  5  1  0
  5  6  2  0
  5  7  1  0
  7  8  1  0
  8  9  1  0
  9 10  1  0
 10 11  1  0
 11 12  1  0
 12 13  1  0
 13 14  2  0
 14 15  1  0
 15 16  2  0
 16 17  1  0
 17 18  1  0
 17 19  2  0
  2 20  1  0
 20 21  2  0
 21 22  1  0
 22 23  2  0
 23 24  1  0
 24 25  2  0
 25 26  1  0
 25 27  1  0
 27 28  2  0
 28 29  1  0
 29 30  2  0
 12  7  1  0
 19 13  1  0
 30 20  1  0
 29 23  1  0
  3 31  1  0
  4 32  1  0
  4 33  1  0
  8 34  1  0
  8 35  1  0
  9 36  1  0
  9 37  1  0
 10 38  1  0
 10 39  1  0
 11 40  1  0
 11 41  1  0
 12 42  1  1
 14 43  1  0
 15 44  1  0
 16 45  1  0
 19 46  1  0
 21 47  1  0
 22 48  1  0
 24 49  1  0
 27 50  1  0
 28 51  1  0
M  END
>  <smiles>  (61) 
O=C(NCC(=O)N1CCCCC1c1cccc(F)c1)c1ccc2cc(F)ccc2n1

>  <score_type>  (61) 
oracle

>  <origin>  (61) 
autodockgpu

>  <m_score__min__energy>  (61) 
-8.7599999999999998

>  <m_primary>  (61) 
energy

>  <rmsd>  (61) 
1.4415794937428674

>  <m_score__min__rmsd>  (61) 
1.4415794937428674

>  <meeko>  (61) 
{"free_energy": -8.62, "intermolecular_energy": -10.11, "internal_energy": -1.3, "cluster_size": 9, "cluster_id": 3, "rank_in_cluster": 1}

>  <energy>  (61) 
-8.69

>  <cluster_rmsd>  (61) 
0.39

>  <cluster>  (61) 
1

$$$$

     RDKit          3D

 51 54  0  0  0  0  0  0  0  0999 V2000
  139.9130   73.6560  222.6830 O   0  0  0  0  0  0  0  0  0  0  0  0
  140.0830   72.4130  222.4720 C   0  0  0  0  0  0  0  0  0  0  0  0
  140.2720   71.8930  221.1680 N   0  0  0  0  0  0  0  0  0  0  0  0
  140.2710   72.8160  220.0460 C   0  0  0  0  0  0  0  0  0  0  0  0
  141.2590   73.8850  220.2750 C   0  0  0  0  0  0  0  0  0  0  0  0
  140.8730   75.0300  220.6770 O   0  0  0  0  0  0  0  0  0  0  0  0
  142.6580   73.7370  220.0780 N   0  0  0  0  0  0  0  0  0  0  0  0
  143.1400   72.4250  219.7110 C   0  0  0  0  0  0  0  0  0  0  0  0
  144.3970   72.1320  220.5310 C   0  0  0  0  0  0  0  0  0  0  0  0
  145.4130   73.1660  220.0560 C   0  0  0  0  0  0  0  0  0  0  0  0
  144.9710   74.5290  220.4720 C   0  0  0  0  0  0  0  0  0  0  0  0
  143.5360   74.8530  220.2420 C   0  0  1  0  0  0  0  0  0  0  0  0
  143.3290   75.8470  219.1620 C   0  0  0  0  0  0  0  0  0  0  0  0
  143.6520   75.5610  217.8310 C   0  0  0  0  0  0  0  0  0  0  0  0
  143.4740   76.4530  216.8140 C   0  0  0  0  0  0  0  0  0  0  0  0
  142.9570   77.7030  217.0600 C   0  0  0  0  0  0  0  0  0  0  0  0
  142.6260   78.0240  218.3660 C   0  0  0  0  0  0  0  0  0  0  0  0
  142.1150   79.2450  218.6490 F   0  0  0  0  0  0  0  0  0  0  0  0
  142.8120   77.1120  219.3830 C   0  0  0  0  0  0  0  0  0  0  0  0
  140.0800   71.5070  223.6150 C   0  0  0  0  0  0  0  0  0  0  0  0
  139.5860   70.2230  223.5060 C   0  0  0  0  0  0  0  0  0  0  0  0
  139.5660   69.3360  224.5630 C   0  0  0  0  0  0  0  0  0  0  0  0
  140.0640   69.7670  225.7730 C   0  0  0  0  0  0  0  0  0  0  0  0
  140.0580   68.9020  226.8480 C   0  0  0  0  0  0  0  0  0  0  0  0
  140.5510   69.2980  228.0840 C   0  0  0  0  0  0  0  0  0  0  0  0
  140.5170   68.4090  229.0990 F   0  0  0  0  0  0  0  0  0  0  0  0
  141.0460   70.5790  228.2030 C   0  0  0  0  0  0  0  0  0  0  0  0
  141.0540   71.4520  227.1190 C   0  0  0  0  0  0  0  0  0  0  0  0
  140.5600   71.0500  225.8890 C   0  0  0  0  0  0  0  0  0  0  0  0
  140.5560   71.8740  224.8230 N   0  0  0  0  0  0  0  0  0  0  0  0
  140.4040   70.8670  221.0780 H   0  0  0  0  0  0  0  0  0  0  0  0
  140.5293   72.2717  219.1257 H   0  0  0  0  0  0  0  0  0  0  0  0
  139.2708   73.2628  219.9455 H   0  0  0  0  0  0  0  0  0  0  0  0
  142.3693   71.6708  219.9283 H   0  0  0  0  0  0  0  0  0  0  0  0
  143.3709   72.3917  218.6360 H   0  0  0  0  0  0  0  0  0  0  0  0
  144.1961   72.2498  221.6061 H   0  0  0  0  0  0  0  0  0  0  0  0
  144.7546   71.1008  220.3941 H   0  0  0  0  0  0  0  0  0  0  0  0
  146.3942   72.9471  220.5024 H   0  0  0  0  0  0  0  0  0  0  0  0
  145.4903   73.1256  218.9595 H   0  0  0  0  0  0  0  0  0  0  0  0
  145.1701   74.6324  221.5489 H   0  0  0  0  0  0  0  0  0  0  0  0
  145.5361   75.2282  219.8381 H   0  0  0  0  0  0  0  0  0  0  0  0
  143.2442   75.3087  221.1997 H   0  0  0  0  0  0  0  0  0  0  0  0
  144.0688   74.5711  217.5935 H   0  0  0  0  0  0  0  0  0  0  0  0
  143.7469   76.1692  215.7869 H   0  0  0  0  0  0  0  0  0  0  0  0
  142.8107   78.4263  216.2442 H   0  0  0  0  0  0  0  0  0  0  0  0
  142.5393   77.4004  220.4089 H   0  0  0  0  0  0  0  0  0  0  0  0
  139.1909   69.8922  222.5342 H   0  0  0  0  0  0  0  0  0  0  0  0
  139.1656   68.3185  224.4433 H   0  0  0  0  0  0  0  0  0  0  0  0
  139.6573   67.8851  226.7241 H   0  0  0  0  0  0  0  0  0  0  0  0
  141.4418   70.9173  229.1720 H   0  0  0  0  0  0  0  0  0  0  0  0
  141.4557   72.4689  227.2400 H   0  0  0  0  0  0  0  0  0  0  0  0
  1  2  2  0
  2  3  1  0
  3  4  1  0
  4  5  1  0
  5  6  2  0
  5  7  1  0
  7  8  1  0
  8  9  1  0
  9 10  1  0
 10 11  1  0
 11 12  1  0
 12 13  1  0
 13 14  2  0
 14 15  1  0
 15 16  2  0
 16 17  1  0
 17 18  1  0
 17 19  2  0
  2 20  1  0
 20 21  2  0
 21 22  1  0
 22 23  2  0
 23 24  1  0
 24 25  2  0
 25 26  1  0
 25 27  1  0
 27 28  2  0
 28 29  1  0
 29 30  2  0
 12  7  1  0
 19 13  1  0
 30 20  1  0
 29 23  1  0
  3 31  1  0
  4 32  1  0
  4 33  1  0
  8 34  1  0
  8 35  1  0
  9 36  1  0
  9 37  1  0
 10 38  1  0
 10 39  1  0
 11 40  1  0
 11 41  1  0
 12 42  1  1
 14 43  1  0
 15 44  1  0
 16 45  1  0
 19 46  1  0
 21 47  1  0
 22 48  1  0
 24 49  1  0
 27 50  1  0
 28 51  1  0
M  END
>  <smiles>  (62) 
O=C(NCC(=O)N1CCCCC1c1cccc(F)c1)c1ccc2cc(F)ccc2n1

>  <score_type>  (62) 
oracle

>  <origin>  (62) 
autodockgpu

>  <m_score__min__energy>  (62) 
-8.7599999999999998

>  <m_primary>  (62) 
energy

>  <rmsd>  (62) 
3.238920034907322

>  <m_score__min__rmsd>  (62) 
3.238920034907322

>  <meeko>  (62) 
{"free_energy": -8.23, "intermolecular_energy": -9.72, "internal_energy": -1.36, "cluster_size": 2, "cluster_id": 5, "rank_in_cluster": 1}

>  <energy>  (62) 
-8.69

>  <cluster_rmsd>  (62) 
0.37

>  <cluster>  (62) 
1

$$$$

     RDKit          3D

 51 54  0  0  0  0  0  0  0  0999 V2000
  140.6550   71.5800  221.1030 O   0  0  0  0  0  0  0  0  0  0  0  0
  140.2450   72.1320  222.1740 C   0  0  0  0  0  0  0  0  0  0  0  0
  139.8880   73.5020  222.2230 N   0  0  0  0  0  0  0  0  0  0  0  0
  139.9970   74.2910  221.0070 C   0  0  0  0  0  0  0  0  0  0  0  0
  140.7710   75.5170  221.2730 C   0  0  0  0  0  0  0  0  0  0  0  0
  140.6960   76.0800  222.4130 O   0  0  0  0  0  0  0  0  0  0  0  0
  141.6260   76.1440  220.3270 N   0  0  0  0  0  0  0  0  0  0  0  0
  141.8330   77.5670  220.4620 C   0  0  0  0  0  0  0  0  0  0  0  0
  141.7490   78.1960  219.0710 C   0  0  0  0  0  0  0  0  0  0  0  0
  142.9370   77.6090  218.3150 C   0  0  0  0  0  0  0  0  0  0  0  0
  142.7250   76.1460  218.1080 C   0  0  0  0  0  0  0  0  0  0  0  0
  142.2440   75.3790  219.2900 C   0  0  1  0  0  0  0  0  0  0  0  0
  143.2720   74.4680  219.8500 C   0  0  0  0  0  0  0  0  0  0  0  0
  144.5060   74.9460  220.3010 C   0  0  0  0  0  0  0  0  0  0  0  0
  145.4730   74.1360  220.8220 C   0  0  0  0  0  0  0  0  0  0  0  0
  145.2690   72.7800  220.9280 C   0  0  0  0  0  0  0  0  0  0  0  0
  144.0580   72.2690  220.4910 C   0  0  0  0  0  0  0  0  0  0  0  0
  143.8190   70.9400  220.5780 F   0  0  0  0  0  0  0  0  0  0  0  0
  143.0920   73.1010  219.9680 C   0  0  0  0  0  0  0  0  0  0  0  0
  140.1440   71.3190  223.3810 C   0  0  0  0  0  0  0  0  0  0  0  0
  139.5560   70.0710  223.3530 C   0  0  0  0  0  0  0  0  0  0  0  0
  139.4410   69.2710  224.4720 C   0  0  0  0  0  0  0  0  0  0  0  0
  139.9410   69.7560  225.6610 C   0  0  0  0  0  0  0  0  0  0  0  0
  139.8410   68.9790  226.7980 C   0  0  0  0  0  0  0  0  0  0  0  0
  140.3310   69.4300  228.0150 C   0  0  0  0  0  0  0  0  0  0  0  0
  140.2040   68.6260  229.0920 F   0  0  0  0  0  0  0  0  0  0  0  0
  140.9200   70.6760  228.0530 C   0  0  0  0  0  0  0  0  0  0  0  0
  141.0230   71.4610  226.9080 C   0  0  0  0  0  0  0  0  0  0  0  0
  140.5300   71.0030  225.6960 C   0  0  0  0  0  0  0  0  0  0  0  0
  140.6160   71.7410  224.5730 N   0  0  0  0  0  0  0  0  0  0  0  0
  139.5630   73.8780  223.1330 H   0  0  0  0  0  0  0  0  0  0  0  0
  140.5062   73.6989  220.2323 H   0  0  0  0  0  0  0  0  0  0  0  0
  138.9894   74.5662  220.6619 H   0  0  0  0  0  0  0  0  0  0  0  0
  141.0565   77.9962  221.1123 H   0  0  0  0  0  0  0  0  0  0  0  0
  142.8172   77.7669  220.9106 H   0  0  0  0  0  0  0  0  0  0  0  0
  140.8030   77.9264  218.5787 H   0  0  0  0  0  0  0  0  0  0  0  0
  141.7768   79.2951  219.1062 H   0  0  0  0  0  0  0  0  0  0  0  0
  143.0320   78.1069  217.3388 H   0  0  0  0  0  0  0  0  0  0  0  0
  143.8557   77.7661  218.8992 H   0  0  0  0  0  0  0  0  0  0  0  0
  141.9837   76.0244  217.3044 H   0  0  0  0  0  0  0  0  0  0  0  0
  143.7178   75.7344  217.8734 H   0  0  0  0  0  0  0  0  0  0  0  0
  141.4330   74.7728  218.8603 H   0  0  0  0  0  0  0  0  0  0  0  0
  144.7069   76.0253  220.2327 H   0  0  0  0  0  0  0  0  0  0  0  0
  146.4246   74.5718  221.1604 H   0  0  0  0  0  0  0  0  0  0  0  0
  146.0440   72.1213  221.3470 H   0  0  0  0  0  0  0  0  0  0  0  0
  142.1414   72.6617  219.6314 H   0  0  0  0  0  0  0  0  0  0  0  0
  139.1615   69.6971  222.3967 H   0  0  0  0  0  0  0  0  0  0  0  0
  138.9664   68.2802  224.4165 H   0  0  0  0  0  0  0  0  0  0  0  0
  139.3662   67.9886  226.7380 H   0  0  0  0  0  0  0  0  0  0  0  0
  141.3160   71.0569  229.0059 H   0  0  0  0  0  0  0  0  0  0  0  0
  141.4987   72.4512  226.9653 H   0  0  0  0  0  0  0  0  0  0  0  0
  1  2  2  0
  2  3  1  0
  3  4  1  0
  4  5  1  0
  5  6  2  0
  5  7  1  0
  7  8  1  0
  8  9  1  0
  9 10  1  0
 10 11  1  0
 11 12  1  0
 12 13  1  0
 13 14  2  0
 14 15  1  0
 15 16  2  0
 16 17  1  0
 17 18  1  0
 17 19  2  0
  2 20  1  0
 20 21  2  0
 21 22  1  0
 22 23  2  0
 23 24  1  0
 24 25  2  0
 25 26  1  0
 25 27  1  0
 27 28  2  0
 28 29  1  0
 29 30  2  0
 12  7  1  0
 19 13  1  0
 30 20  1  0
 29 23  1  0
  3 31  1  0
  4 32  1  0
  4 33  1  0
  8 34  1  0
  8 35  1  0
  9 36  1  0
  9 37  1  0
 10 38  1  0
 10 39  1  0
 11 40  1  0
 11 41  1  0
 12 42  1  6
 14 43  1  0
 15 44  1  0
 16 45  1  0
 19 46  1  0
 21 47  1  0
 22 48  1  0
 24 49  1  0
 27 50  1  0
 28 51  1  0
M  END
>  <smiles>  (63) 
O=C(NCC(=O)N1CCCCC1c1cccc(F)c1)c1ccc2cc(F)ccc2n1

>  <score_type>  (63) 
oracle

>  <origin>  (63) 
autodockgpu

>  <m_score__min__energy>  (63) 
-8.7599999999999998

>  <m_primary>  (63) 
energy

>  <rmsd>  (63) 
2.208607235388158

>  <m_score__min__rmsd>  (63) 
2.208607235388158

>  <meeko>  (63) 
{"free_energy": -8.7, "intermolecular_energy": -10.2, "internal_energy": -1.98, "cluster_size": 35, "cluster_id": 1, "rank_in_cluster": 7}

>  <energy>  (63) 
-8.68

>  <cluster_rmsd>  (63) 
0.38

>  <cluster>  (63) 
1

$$$$

     RDKit          3D

 51 54  0  0  0  0  0  0  0  0999 V2000
  140.2960   71.6890  221.0950 O   0  0  0  0  0  0  0  0  0  0  0  0
  140.0220   72.2480  222.2040 C   0  0  0  0  0  0  0  0  0  0  0  0
  139.7840   73.6410  222.3040 N   0  0  0  0  0  0  0  0  0  0  0  0
  139.8580   74.4460  221.0970 C   0  0  0  0  0  0  0  0  0  0  0  0
  140.6890   75.6390  221.3400 C   0  0  0  0  0  0  0  0  0  0  0  0
  140.6420   76.2260  222.4690 O   0  0  0  0  0  0  0  0  0  0  0  0
  141.5690   76.2090  220.3810 N   0  0  0  0  0  0  0  0  0  0  0  0
  141.8720   77.6160  220.5130 C   0  0  0  0  0  0  0  0  0  0  0  0
  141.8100   78.2500  219.1230 C   0  0  0  0  0  0  0  0  0  0  0  0
  142.9450   77.5860  218.3500 C   0  0  0  0  0  0  0  0  0  0  0  0
  142.6340   76.1410  218.1470 C   0  0  0  0  0  0  0  0  0  0  0  0
  142.1210   75.4060  219.3360 C   0  0  1  0  0  0  0  0  0  0  0  0
  143.0930   74.4290  219.8810 C   0  0  0  0  0  0  0  0  0  0  0  0
  142.7100   73.1290  220.2260 C   0  0  0  0  0  0  0  0  0  0  0  0
  143.5800   72.2050  220.7290 C   0  0  0  0  0  0  0  0  0  0  0  0
  144.9030   72.5230  220.9260 C   0  0  0  0  0  0  0  0  0  0  0  0
  145.3200   73.8020  220.5960 C   0  0  0  0  0  0  0  0  0  0  0  0
  146.6150   74.1530  220.7750 F   0  0  0  0  0  0  0  0  0  0  0  0
  144.4290   74.7230  220.0880 C   0  0  0  0  0  0  0  0  0  0  0  0
  139.9530   71.4190  223.4030 C   0  0  0  0  0  0  0  0  0  0  0  0
  139.3900   70.1590  223.3670 C   0  0  0  0  0  0  0  0  0  0  0  0
  139.3060   69.3440  224.4780 C   0  0  0  0  0  0  0  0  0  0  0  0
  139.8100   69.8250  225.6670 C   0  0  0  0  0  0  0  0  0  0  0  0
  139.7410   69.0330  226.7940 C   0  0  0  0  0  0  0  0  0  0  0  0
  140.2370   69.4800  228.0110 C   0  0  0  0  0  0  0  0  0  0  0  0
  140.1410   68.6610  229.0800 F   0  0  0  0  0  0  0  0  0  0  0  0
  140.8010   70.7380  228.0570 C   0  0  0  0  0  0  0  0  0  0  0  0
  140.8730   71.5380  226.9200 C   0  0  0  0  0  0  0  0  0  0  0  0
  140.3740   71.0840  225.7090 C   0  0  0  0  0  0  0  0  0  0  0  0
  140.4310   71.8370  224.5940 N   0  0  0  0  0  0  0  0  0  0  0  0
  139.5660   74.0220  223.2450 H   0  0  0  0  0  0  0  0  0  0  0  0
  140.3040   73.8495  220.2875 H   0  0  0  0  0  0  0  0  0  0  0  0
  138.8444   74.7629  220.8102 H   0  0  0  0  0  0  0  0  0  0  0  0
  141.1350   78.0953  221.1742 H   0  0  0  0  0  0  0  0  0  0  0  0
  142.8735   77.7500  220.9477 H   0  0  0  0  0  0  0  0  0  0  0  0
  140.8411   78.0442  218.6446 H   0  0  0  0  0  0  0  0  0  0  0  0
  141.9115   79.3448  219.1575 H   0  0  0  0  0  0  0  0  0  0  0  0
  143.0583   78.0770  217.3722 H   0  0  0  0  0  0  0  0  0  0  0  0
  143.8805   77.6817  218.9206 H   0  0  0  0  0  0  0  0  0  0  0  0
  141.8745   76.0692  217.3545 H   0  0  0  0  0  0  0  0  0  0  0  0
  143.5941   75.6652  217.8982 H   0  0  0  0  0  0  0  0  0  0  0  0
  141.2663   74.8543  218.9176 H   0  0  0  0  0  0  0  0  0  0  0  0
  141.6587   72.8374  220.0855 H   0  0  0  0  0  0  0  0  0  0  0  0
  143.2191   71.1964  220.9791 H   0  0  0  0  0  0  0  0  0  0  0  0
  145.6089   71.7842  221.3333 H   0  0  0  0  0  0  0  0  0  0  0  0
  144.7941   75.7300  219.8377 H   0  0  0  0  0  0  0  0  0  0  0  0
  138.9909   69.7883  222.4113 H   0  0  0  0  0  0  0  0  0  0  0  0
  138.8519   68.3440  224.4163 H   0  0  0  0  0  0  0  0  0  0  0  0
  139.2867   68.0334  226.7276 H   0  0  0  0  0  0  0  0  0  0  0  0
  141.2011   71.1159  229.0094 H   0  0  0  0  0  0  0  0  0  0  0  0
  141.3289   72.5371  226.9829 H   0  0  0  0  0  0  0  0  0  0  0  0
  1  2  2  0
  2  3  1  0
  3  4  1  0
  4  5  1  0
  5  6  2  0
  5  7  1  0
  7  8  1  0
  8  9  1  0
  9 10  1  0
 10 11  1  0
 11 12  1  0
 12 13  1  0
 13 14  2  0
 14 15  1  0
 15 16  2  0
 16 17  1  0
 17 18  1  0
 17 19  2  0
  2 20  1  0
 20 21  2  0
 21 22  1  0
 22 23  2  0
 23 24  1  0
 24 25  2  0
 25 26  1  0
 25 27  1  0
 27 28  2  0
 28 29  1  0
 29 30  2  0
 12  7  1  0
 19 13  1  0
 30 20  1  0
 29 23  1  0
  3 31  1  0
  4 32  1  0
  4 33  1  0
  8 34  1  0
  8 35  1  0
  9 36  1  0
  9 37  1  0
 10 38  1  0
 10 39  1  0
 11 40  1  0
 11 41  1  0
 12 42  1  6
 14 43  1  0
 15 44  1  0
 16 45  1  0
 19 46  1  0
 21 47  1  0
 22 48  1  0
 24 49  1  0
 27 50  1  0
 28 51  1  0
M  END
>  <smiles>  (64) 
O=C(NCC(=O)N1CCCCC1c1cccc(F)c1)c1ccc2cc(F)ccc2n1

>  <score_type>  (64) 
oracle

>  <origin>  (64) 
autodockgpu

>  <m_score__min__energy>  (64) 
-8.7599999999999998

>  <m_primary>  (64) 
energy

>  <rmsd>  (64) 
2.2069282563268513

>  <m_score__min__rmsd>  (64) 
2.2069282563268513

>  <meeko>  (64) 
{"free_energy": -8.67, "intermolecular_energy": -10.17, "internal_energy": -1.96, "cluster_size": 35, "cluster_id": 1, "rank_in_cluster": 20}

>  <energy>  (64) 
-8.68

>  <cluster_rmsd>  (64) 
0.35

>  <cluster>  (64) 
1

$$$$

     RDKit          3D

 51 54  0  0  0  0  0  0  0  0999 V2000
  140.3070   71.6390  221.0620 O   0  0  0  0  0  0  0  0  0  0  0  0
  140.0310   72.1990  222.1700 C   0  0  0  0  0  0  0  0  0  0  0  0
  139.7930   73.5930  222.2680 N   0  0  0  0  0  0  0  0  0  0  0  0
  139.8680   74.3950  221.0590 C   0  0  0  0  0  0  0  0  0  0  0  0
  140.6830   75.5990  221.3070 C   0  0  0  0  0  0  0  0  0  0  0  0
  140.6170   76.1890  222.4330 O   0  0  0  0  0  0  0  0  0  0  0  0
  141.5660   76.1760  220.3560 N   0  0  0  0  0  0  0  0  0  0  0  0
  141.8750   77.5800  220.5040 C   0  0  0  0  0  0  0  0  0  0  0  0
  141.8180   78.2300  219.1210 C   0  0  0  0  0  0  0  0  0  0  0  0
  142.9510   77.5690  218.3420 C   0  0  0  0  0  0  0  0  0  0  0  0
  142.6340   76.1280  218.1220 C   0  0  0  0  0  0  0  0  0  0  0  0
  142.1160   75.3820  219.3020 C   0  0  1  0  0  0  0  0  0  0  0  0
  143.0840   74.3950  219.8370 C   0  0  0  0  0  0  0  0  0  0  0  0
  142.7080   73.0760  220.1130 C   0  0  0  0  0  0  0  0  0  0  0  0
  143.5730   72.1430  220.6060 C   0  0  0  0  0  0  0  0  0  0  0  0
  144.8850   72.4680  220.8600 C   0  0  0  0  0  0  0  0  0  0  0  0
  145.2940   73.7660  220.5990 C   0  0  0  0  0  0  0  0  0  0  0  0
  146.5770   74.1250  220.8360 F   0  0  0  0  0  0  0  0  0  0  0  0
  144.4080   74.6960  220.1020 C   0  0  0  0  0  0  0  0  0  0  0  0
  139.9600   71.3720  223.3700 C   0  0  0  0  0  0  0  0  0  0  0  0
  139.4070   70.1090  223.3330 C   0  0  0  0  0  0  0  0  0  0  0  0
  139.3220   69.2950  224.4450 C   0  0  0  0  0  0  0  0  0  0  0  0
  139.8150   69.7820  225.6360 C   0  0  0  0  0  0  0  0  0  0  0  0
  139.7450   68.9920  226.7650 C   0  0  0  0  0  0  0  0  0  0  0  0
  140.2300   69.4450  227.9840 C   0  0  0  0  0  0  0  0  0  0  0  0
  140.1330   68.6280  229.0540 F   0  0  0  0  0  0  0  0  0  0  0  0
  140.7840   70.7070  228.0310 C   0  0  0  0  0  0  0  0  0  0  0  0
  140.8580   71.5050  226.8930 C   0  0  0  0  0  0  0  0  0  0  0  0
  140.3700   71.0450  225.6800 C   0  0  0  0  0  0  0  0  0  0  0  0
  140.4280   71.7960  224.5630 N   0  0  0  0  0  0  0  0  0  0  0  0
  139.5730   73.9750  223.2070 H   0  0  0  0  0  0  0  0  0  0  0  0
  140.3285   73.8017  220.2553 H   0  0  0  0  0  0  0  0  0  0  0  0
  138.8535   74.6985  220.7614 H   0  0  0  0  0  0  0  0  0  0  0  0
  141.1391   78.0551  221.1694 H   0  0  0  0  0  0  0  0  0  0  0  0
  142.8765   77.7046  220.9415 H   0  0  0  0  0  0  0  0  0  0  0  0
  140.8488   78.0344  218.6390 H   0  0  0  0  0  0  0  0  0  0  0  0
  141.9248   79.3238  219.1679 H   0  0  0  0  0  0  0  0  0  0  0  0
  143.0680   78.0705  217.3700 H   0  0  0  0  0  0  0  0  0  0  0  0
  143.8860   77.6536  218.9153 H   0  0  0  0  0  0  0  0  0  0  0  0
  141.8753   76.0686  217.3277 H   0  0  0  0  0  0  0  0  0  0  0  0
  143.5922   75.6507  217.8690 H   0  0  0  0  0  0  0  0  0  0  0  0
  141.2591   74.8389  218.8769 H   0  0  0  0  0  0  0  0  0  0  0  0
  141.6664   72.7772  219.9237 H   0  0  0  0  0  0  0  0  0  0  0  0
  143.2174   71.1207  220.8022 H   0  0  0  0  0  0  0  0  0  0  0  0
  145.5876   71.7210  221.2579 H   0  0  0  0  0  0  0  0  0  0  0  0
  144.7670   75.7176  219.9083 H   0  0  0  0  0  0  0  0  0  0  0  0
  139.0165   69.7338  222.3755 H   0  0  0  0  0  0  0  0  0  0  0  0
  138.8758   68.2915  224.3823 H   0  0  0  0  0  0  0  0  0  0  0  0
  139.2985   67.9889  226.6981 H   0  0  0  0  0  0  0  0  0  0  0  0
  141.1746   71.0900  228.9853 H   0  0  0  0  0  0  0  0  0  0  0  0
  141.3067   72.5073  226.9567 H   0  0  0  0  0  0  0  0  0  0  0  0
  1  2  2  0
  2  3  1  0
  3  4  1  0
  4  5  1  0
  5  6  2  0
  5  7  1  0
  7  8  1  0
  8  9  1  0
  9 10  1  0
 10 11  1  0
 11 12  1  0
 12 13  1  0
 13 14  2  0
 14 15  1  0
 15 16  2  0
 16 17  1  0
 17 18  1  0
 17 19  2  0
  2 20  1  0
 20 21  2  0
 21 22  1  0
 22 23  2  0
 23 24  1  0
 24 25  2  0
 25 26  1  0
 25 27  1  0
 27 28  2  0
 28 29  1  0
 29 30  2  0
 12  7  1  0
 19 13  1  0
 30 20  1  0
 29 23  1  0
  3 31  1  0
  4 32  1  0
  4 33  1  0
  8 34  1  0
  8 35  1  0
  9 36  1  0
  9 37  1  0
 10 38  1  0
 10 39  1  0
 11 40  1  0
 11 41  1  0
 12 42  1  6
 14 43  1  0
 15 44  1  0
 16 45  1  0
 19 46  1  0
 21 47  1  0
 22 48  1  0
 24 49  1  0
 27 50  1  0
 28 51  1  0
M  END
>  <smiles>  (65) 
O=C(NCC(=O)N1CCCCC1c1cccc(F)c1)c1ccc2cc(F)ccc2n1

>  <score_type>  (65) 
oracle

>  <origin>  (65) 
autodockgpu

>  <m_score__min__energy>  (65) 
-8.7599999999999998

>  <m_primary>  (65) 
energy

>  <rmsd>  (65) 
2.19522381696952

>  <m_score__min__rmsd>  (65) 
2.19522381696952

>  <meeko>  (65) 
{"free_energy": -8.66, "intermolecular_energy": -10.15, "internal_energy": -1.97, "cluster_size": 35, "cluster_id": 1, "rank_in_cluster": 24}

>  <energy>  (65) 
-8.68

>  <cluster_rmsd>  (65) 
0.37

>  <cluster>  (65) 
1

$$$$

     RDKit          3D

 51 54  0  0  0  0  0  0  0  0999 V2000
  140.7690   71.5180  221.1390 O   0  0  0  0  0  0  0  0  0  0  0  0
  140.3140   72.0700  222.1910 C   0  0  0  0  0  0  0  0  0  0  0  0
  139.9260   73.4320  222.2170 N   0  0  0  0  0  0  0  0  0  0  0  0
  140.0540   74.2130  220.9980 C   0  0  0  0  0  0  0  0  0  0  0  0
  140.8070   75.4500  221.2720 C   0  0  0  0  0  0  0  0  0  0  0  0
  140.7200   76.0060  222.4140 O   0  0  0  0  0  0  0  0  0  0  0  0
  141.6520   76.0970  220.3310 N   0  0  0  0  0  0  0  0  0  0  0  0
  141.8370   77.5220  220.4760 C   0  0  0  0  0  0  0  0  0  0  0  0
  141.7450   78.1590  219.0880 C   0  0  0  0  0  0  0  0  0  0  0  0
  142.9430   77.5950  218.3300 C   0  0  0  0  0  0  0  0  0  0  0  0
  142.7540   76.1310  218.1140 C   0  0  0  0  0  0  0  0  0  0  0  0
  142.2840   75.3480  219.2900 C   0  0  1  0  0  0  0  0  0  0  0  0
  143.3250   74.4500  219.8460 C   0  0  0  0  0  0  0  0  0  0  0  0
  144.5400   74.9480  220.3280 C   0  0  0  0  0  0  0  0  0  0  0  0
  145.5180   74.1490  220.8450 C   0  0  0  0  0  0  0  0  0  0  0  0
  145.3470   72.7870  220.9160 C   0  0  0  0  0  0  0  0  0  0  0  0
  144.1550   72.2570  220.4470 C   0  0  0  0  0  0  0  0  0  0  0  0
  143.9490   70.9200  220.4990 F   0  0  0  0  0  0  0  0  0  0  0  0
  143.1770   73.0770  219.9270 C   0  0  0  0  0  0  0  0  0  0  0  0
  140.1950   71.2650  223.4020 C   0  0  0  0  0  0  0  0  0  0  0  0
  139.5800   70.0300  223.3800 C   0  0  0  0  0  0  0  0  0  0  0  0
  139.4470   69.2380  224.5030 C   0  0  0  0  0  0  0  0  0  0  0  0
  139.9560   69.7180  225.6900 C   0  0  0  0  0  0  0  0  0  0  0  0
  139.8390   68.9500  226.8300 C   0  0  0  0  0  0  0  0  0  0  0  0
  140.3380   69.3960  228.0460 C   0  0  0  0  0  0  0  0  0  0  0  0
  140.1930   68.6010  229.1270 F   0  0  0  0  0  0  0  0  0  0  0  0
  140.9540   70.6290  228.0780 C   0  0  0  0  0  0  0  0  0  0  0  0
  141.0740   71.4060  226.9290 C   0  0  0  0  0  0  0  0  0  0  0  0
  140.5730   70.9530  225.7200 C   0  0  0  0  0  0  0  0  0  0  0  0
  140.6750   71.6830  224.5930 N   0  0  0  0  0  0  0  0  0  0  0  0
  139.5650   73.8090  223.1140 H   0  0  0  0  0  0  0  0  0  0  0  0
  140.5880   73.6212  220.2400 H   0  0  0  0  0  0  0  0  0  0  0  0
  139.0515   74.4736  220.6277 H   0  0  0  0  0  0  0  0  0  0  0  0
  141.0532   77.9349  221.1280 H   0  0  0  0  0  0  0  0  0  0  0  0
  142.8174   77.7342  220.9275 H   0  0  0  0  0  0  0  0  0  0  0  0
  140.8039   77.8781  218.5926 H   0  0  0  0  0  0  0  0  0  0  0  0
  141.7558   79.2581  219.1301 H   0  0  0  0  0  0  0  0  0  0  0  0
  143.0315   78.1003  217.3569 H   0  0  0  0  0  0  0  0  0  0  0  0
  143.8584   77.7627  218.9164 H   0  0  0  0  0  0  0  0  0  0  0  0
  142.0154   76.0032  217.3089 H   0  0  0  0  0  0  0  0  0  0  0  0
  143.7536   75.7368  217.8785 H   0  0  0  0  0  0  0  0  0  0  0  0
  141.4842   74.7308  218.8548 H   0  0  0  0  0  0  0  0  0  0  0  0
  144.7151   76.0333  220.2885 H   0  0  0  0  0  0  0  0  0  0  0  0
  146.4532   74.5997  221.2088 H   0  0  0  0  0  0  0  0  0  0  0  0
  146.1315   72.1378  221.3320 H   0  0  0  0  0  0  0  0  0  0  0  0
  142.2438   72.6227  219.5627 H   0  0  0  0  0  0  0  0  0  0  0  0
  139.1778   69.6601  222.4253 H   0  0  0  0  0  0  0  0  0  0  0  0
  138.9516   68.2572  224.4519 H   0  0  0  0  0  0  0  0  0  0  0  0
  139.3430   67.9698  226.7745 H   0  0  0  0  0  0  0  0  0  0  0  0
  141.3582   71.0059  229.0291 H   0  0  0  0  0  0  0  0  0  0  0  0
  141.5701   72.3863  226.9818 H   0  0  0  0  0  0  0  0  0  0  0  0
  1  2  2  0
  2  3  1  0
  3  4  1  0
  4  5  1  0
  5  6  2  0
  5  7  1  0
  7  8  1  0
  8  9  1  0
  9 10  1  0
 10 11  1  0
 11 12  1  0
 12 13  1  0
 13 14  2  0
 14 15  1  0
 15 16  2  0
 16 17  1  0
 17 18  1  0
 17 19  2  0
  2 20  1  0
 20 21  2  0
 21 22  1  0
 22 23  2  0
 23 24  1  0
 24 25  2  0
 25 26  1  0
 25 27  1  0
 27 28  2  0
 28 29  1  0
 29 30  2  0
 12  7  1  0
 19 13  1  0
 30 20  1  0
 29 23  1  0
  3 31  1  0
  4 32  1  0
  4 33  1  0
  8 34  1  0
  8 35  1  0
  9 36  1  0
  9 37  1  0
 10 38  1  0
 10 39  1  0
 11 40  1  0
 11 41  1  0
 12 42  1  6
 14 43  1  0
 15 44  1  0
 16 45  1  0
 19 46  1  0
 21 47  1  0
 22 48  1  0
 24 49  1  0
 27 50  1  0
 28 51  1  0
M  END
>  <smiles>  (66) 
O=C(NCC(=O)N1CCCCC1c1cccc(F)c1)c1ccc2cc(F)ccc2n1

>  <score_type>  (66) 
oracle

>  <origin>  (66) 
autodockgpu

>  <m_score__min__energy>  (66) 
-8.7599999999999998

>  <m_primary>  (66) 
energy

>  <rmsd>  (66) 
2.214483104099051

>  <m_score__min__rmsd>  (66) 
2.214483104099051

>  <meeko>  (66) 
{"free_energy": -8.72, "intermolecular_energy": -10.21, "internal_energy": -1.95, "cluster_size": 35, "cluster_id": 1, "rank_in_cluster": 2}

>  <energy>  (66) 
-8.68

>  <cluster_rmsd>  (66) 
0.23

>  <cluster>  (66) 
1

$$$$

     RDKit          3D

 51 54  0  0  0  0  0  0  0  0999 V2000
  140.6890   71.7040  221.0910 O   0  0  0  0  0  0  0  0  0  0  0  0
  140.2690   72.2690  222.1510 C   0  0  0  0  0  0  0  0  0  0  0  0
  139.9180   73.6410  222.1810 N   0  0  0  0  0  0  0  0  0  0  0  0
  140.0440   74.4160  220.9580 C   0  0  0  0  0  0  0  0  0  0  0  0
  140.1990   75.8450  221.2840 C   0  0  0  0  0  0  0  0  0  0  0  0
  140.0760   76.2380  222.4890 O   0  0  0  0  0  0  0  0  0  0  0  0
  140.4870   76.8560  220.3290 N   0  0  0  0  0  0  0  0  0  0  0  0
  139.5820   76.9870  219.2100 C   0  0  0  0  0  0  0  0  0  0  0  0
  140.4140   77.1730  217.9410 C   0  0  0  0  0  0  0  0  0  0  0  0
  141.1230   78.5080  218.1420 C   0  0  0  0  0  0  0  0  0  0  0  0
  142.1090   78.3890  219.2560 C   0  0  0  0  0  0  0  0  0  0  0  0
  141.6300   77.6990  220.4860 C   0  0  1  0  0  0  0  0  0  0  0  0
  141.4530   78.6160  221.6370 C   0  0  0  0  0  0  0  0  0  0  0  0
  142.5460   79.0950  222.3670 C   0  0  0  0  0  0  0  0  0  0  0  0
  142.4180   79.9400  223.4310 C   0  0  0  0  0  0  0  0  0  0  0  0
  141.1780   80.3670  223.8420 C   0  0  0  0  0  0  0  0  0  0  0  0
  140.0700   79.9130  223.1430 C   0  0  0  0  0  0  0  0  0  0  0  0
  138.8320   80.3110  223.5170 F   0  0  0  0  0  0  0  0  0  0  0  0
  140.2170   79.0600  222.0710 C   0  0  0  0  0  0  0  0  0  0  0  0
  140.1510   71.4690  223.3650 C   0  0  0  0  0  0  0  0  0  0  0  0
  139.5320   70.2360  223.3500 C   0  0  0  0  0  0  0  0  0  0  0  0
  139.4000   69.4500  224.4770 C   0  0  0  0  0  0  0  0  0  0  0  0
  139.9140   69.9330  225.6610 C   0  0  0  0  0  0  0  0  0  0  0  0
  139.7980   69.1690  226.8040 C   0  0  0  0  0  0  0  0  0  0  0  0
  140.3010   69.6200  228.0170 C   0  0  0  0  0  0  0  0  0  0  0  0
  140.1570   68.8290  229.1010 F   0  0  0  0  0  0  0  0  0  0  0  0
  140.9210   70.8510  228.0420 C   0  0  0  0  0  0  0  0  0  0  0  0
  141.0400   71.6220  226.8890 C   0  0  0  0  0  0  0  0  0  0  0  0
  140.5340   71.1660  225.6830 C   0  0  0  0  0  0  0  0  0  0  0  0
  140.6350   71.8910  224.5530 N   0  0  0  0  0  0  0  0  0  0  0  0
  139.5830   74.0290  223.0840 H   0  0  0  0  0  0  0  0  0  0  0  0
  140.9256   74.0720  220.3973 H   0  0  0  0  0  0  0  0  0  0  0  0
  139.1391   74.2796  220.3477 H   0  0  0  0  0  0  0  0  0  0  0  0
  138.9658   76.0801  219.1215 H   0  0  0  0  0  0  0  0  0  0  0  0
  138.9175   77.8510  219.3583 H   0  0  0  0  0  0  0  0  0  0  0  0
  141.1441   76.3575  217.8317 H   0  0  0  0  0  0  0  0  0  0  0  0
  139.7970   77.1598  217.0304 H   0  0  0  0  0  0  0  0  0  0  0  0
  141.6483   78.7864  217.2165 H   0  0  0  0  0  0  0  0  0  0  0  0
  140.3815   79.2812  218.3917 H   0  0  0  0  0  0  0  0  0  0  0  0
  142.9790   77.8332  218.8764 H   0  0  0  0  0  0  0  0  0  0  0  0
  142.3312   79.4212  219.5646 H   0  0  0  0  0  0  0  0  0  0  0  0
  142.4619   77.0143  220.7075 H   0  0  0  0  0  0  0  0  0  0  0  0
  143.5557   78.7757  222.0695 H   0  0  0  0  0  0  0  0  0  0  0  0
  143.3165   80.2828  223.9651 H   0  0  0  0  0  0  0  0  0  0  0  0
  141.0680   81.0478  224.6989 H   0  0  0  0  0  0  0  0  0  0  0  0
  139.3163   78.7188  221.5396 H   0  0  0  0  0  0  0  0  0  0  0  0
  139.1259   69.8630  222.3982 H   0  0  0  0  0  0  0  0  0  0  0  0
  138.9011   68.4707  224.4316 H   0  0  0  0  0  0  0  0  0  0  0  0
  139.3003   68.1893  226.7536 H   0  0  0  0  0  0  0  0  0  0  0  0
  141.3291   71.2309  228.9902 H   0  0  0  0  0  0  0  0  0  0  0  0
  141.5397   72.6008  226.9361 H   0  0  0  0  0  0  0  0  0  0  0  0
  1  2  2  0
  2  3  1  0
  3  4  1  0
  4  5  1  0
  5  6  2  0
  5  7  1  0
  7  8  1  0
  8  9  1  0
  9 10  1  0
 10 11  1  0
 11 12  1  0
 12 13  1  0
 13 14  2  0
 14 15  1  0
 15 16  2  0
 16 17  1  0
 17 18  1  0
 17 19  2  0
  2 20  1  0
 20 21  2  0
 21 22  1  0
 22 23  2  0
 23 24  1  0
 24 25  2  0
 25 26  1  0
 25 27  1  0
 27 28  2  0
 28 29  1  0
 29 30  2  0
 12  7  1  0
 19 13  1  0
 30 20  1  0
 29 23  1  0
  3 31  1  0
  4 32  1  0
  4 33  1  0
  8 34  1  0
  8 35  1  0
  9 36  1  0
  9 37  1  0
 10 38  1  0
 10 39  1  0
 11 40  1  0
 11 41  1  0
 12 42  1  1
 14 43  1  0
 15 44  1  0
 16 45  1  0
 19 46  1  0
 21 47  1  0
 22 48  1  0
 24 49  1  0
 27 50  1  0
 28 51  1  0
M  END
>  <smiles>  (67) 
O=C(NCC(=O)N1CCCCC1c1cccc(F)c1)c1ccc2cc(F)ccc2n1

>  <score_type>  (67) 
oracle

>  <origin>  (67) 
autodockgpu

>  <m_score__min__energy>  (67) 
-8.7599999999999998

>  <m_primary>  (67) 
energy

>  <rmsd>  (67) 
1.6832509547134746

>  <m_score__min__rmsd>  (67) 
1.6832509547134746

>  <meeko>  (67) 
{"free_energy": -8.46, "intermolecular_energy": -9.95, "internal_energy": -1.69, "cluster_size": 9, "cluster_id": 3, "rank_in_cluster": 6}

>  <energy>  (67) 
-8.68

>  <cluster_rmsd>  (67) 
0.86

>  <cluster>  (67) 
1

$$$$

     RDKit          3D

 51 54  0  0  0  0  0  0  0  0999 V2000
  141.4040   72.0520  221.4450 O   0  0  0  0  0  0  0  0  0  0  0  0
  140.4710   72.3600  222.2530 C   0  0  0  0  0  0  0  0  0  0  0  0
  139.6350   73.4850  222.0390 N   0  0  0  0  0  0  0  0  0  0  0  0
  139.8590   74.3010  220.8590 C   0  0  0  0  0  0  0  0  0  0  0  0
  140.9060   75.3020  221.1330 C   0  0  0  0  0  0  0  0  0  0  0  0
  141.1440   75.6600  222.3310 O   0  0  0  0  0  0  0  0  0  0  0  0
  141.7010   75.9210  220.1320 N   0  0  0  0  0  0  0  0  0  0  0  0
  141.8500   77.3570  220.1980 C   0  0  0  0  0  0  0  0  0  0  0  0
  141.6940   77.9200  218.7850 C   0  0  0  0  0  0  0  0  0  0  0  0
  142.8810   77.3500  218.0150 C   0  0  0  0  0  0  0  0  0  0  0  0
  142.7260   75.8720  217.8780 C   0  0  0  0  0  0  0  0  0  0  0  0
  142.3180   75.1380  219.1080 C   0  0  1  0  0  0  0  0  0  0  0  0
  143.4020   74.2970  219.6710 C   0  0  0  0  0  0  0  0  0  0  0  0
  144.4850   74.8600  220.3550 C   0  0  0  0  0  0  0  0  0  0  0  0
  145.4980   74.1150  220.8850 C   0  0  0  0  0  0  0  0  0  0  0  0
  145.4980   72.7450  220.7660 C   0  0  0  0  0  0  0  0  0  0  0  0
  144.4410   72.1520  220.0950 C   0  0  0  0  0  0  0  0  0  0  0  0
  144.4050   70.8060  219.9560 F   0  0  0  0  0  0  0  0  0  0  0  0
  143.4260   72.9180  219.5650 C   0  0  0  0  0  0  0  0  0  0  0  0
  140.2650   71.5250  223.4310 C   0  0  0  0  0  0  0  0  0  0  0  0
  139.5560   70.3440  223.3520 C   0  0  0  0  0  0  0  0  0  0  0  0
  139.3400   69.5250  224.4430 C   0  0  0  0  0  0  0  0  0  0  0  0
  139.8620   69.9200  225.6550 C   0  0  0  0  0  0  0  0  0  0  0  0
  139.6640   69.1230  226.7640 C   0  0  0  0  0  0  0  0  0  0  0  0
  140.1720   69.4850  228.0040 C   0  0  0  0  0  0  0  0  0  0  0  0
  139.9450   68.6650  229.0510 F   0  0  0  0  0  0  0  0  0  0  0  0
  140.8820   70.6640  228.0920 C   0  0  0  0  0  0  0  0  0  0  0  0
  141.0850   71.4690  226.9750 C   0  0  0  0  0  0  0  0  0  0  0  0
  140.5730   71.1010  225.7410 C   0  0  0  0  0  0  0  0  0  0  0  0
  140.7540   71.8600  224.6430 N   0  0  0  0  0  0  0  0  0  0  0  0
  138.8950   73.6700  222.7440 H   0  0  0  0  0  0  0  0  0  0  0  0
  140.1784   73.6577  220.0259 H   0  0  0  0  0  0  0  0  0  0  0  0
  138.9249   74.8173  220.5929 H   0  0  0  0  0  0  0  0  0  0  0  0
  141.0769   77.7816  220.8553 H   0  0  0  0  0  0  0  0  0  0  0  0
  142.8388   77.6177  220.6034 H   0  0  0  0  0  0  0  0  0  0  0  0
  140.7451   77.5898  218.3372 H   0  0  0  0  0  0  0  0  0  0  0  0
  141.6755   79.0198  218.7720 H   0  0  0  0  0  0  0  0  0  0  0  0
  142.9230   77.8078  217.0157 H   0  0  0  0  0  0  0  0  0  0  0  0
  143.8103   77.5707  218.5606 H   0  0  0  0  0  0  0  0  0  0  0  0
  141.9645   75.6842  217.1067 H   0  0  0  0  0  0  0  0  0  0  0  0
  143.7274   75.4925  217.6266 H   0  0  0  0  0  0  0  0  0  0  0  0
  141.5211   74.4795  218.7322 H   0  0  0  0  0  0  0  0  0  0  0  0
  144.5215   75.9533  220.4708 H   0  0  0  0  0  0  0  0  0  0  0  0
  146.3231   74.6155  221.4129 H   0  0  0  0  0  0  0  0  0  0  0  0
  146.3119   72.1389  221.1904 H   0  0  0  0  0  0  0  0  0  0  0  0
  142.6031   72.4137  219.0373 H   0  0  0  0  0  0  0  0  0  0  0  0
  139.1448   70.0415  222.3776 H   0  0  0  0  0  0  0  0  0  0  0  0
  138.7703   68.5889  224.3472 H   0  0  0  0  0  0  0  0  0  0  0  0
  139.0951   68.1869  226.6639 H   0  0  0  0  0  0  0  0  0  0  0  0
  141.2955   70.9739  229.0631 H   0  0  0  0  0  0  0  0  0  0  0  0
  141.6560   72.4041  227.0724 H   0  0  0  0  0  0  0  0  0  0  0  0
  1  2  2  0
  2  3  1  0
  3  4  1  0
  4  5  1  0
  5  6  2  0
  5  7  1  0
  7  8  1  0
  8  9  1  0
  9 10  1  0
 10 11  1  0
 11 12  1  0
 12 13  1  0
 13 14  2  0
 14 15  1  0
 15 16  2  0
 16 17  1  0
 17 18  1  0
 17 19  2  0
  2 20  1  0
 20 21  2  0
 21 22  1  0
 22 23  2  0
 23 24  1  0
 24 25  2  0
 25 26  1  0
 25 27  1  0
 27 28  2  0
 28 29  1  0
 29 30  2  0
 12  7  1  0
 19 13  1  0
 30 20  1  0
 29 23  1  0
  3 31  1  0
  4 32  1  0
  4 33  1  0
  8 34  1  0
  8 35  1  0
  9 36  1  0
  9 37  1  0
 10 38  1  0
 10 39  1  0
 11 40  1  0
 11 41  1  0
 12 42  1  6
 14 43  1  0
 15 44  1  0
 16 45  1  0
 19 46  1  0
 21 47  1  0
 22 48  1  0
 24 49  1  0
 27 50  1  0
 28 51  1  0
M  END
>  <smiles>  (68) 
O=C(NCC(=O)N1CCCCC1c1cccc(F)c1)c1ccc2cc(F)ccc2n1

>  <score_type>  (68) 
oracle

>  <origin>  (68) 
autodockgpu

>  <m_score__min__energy>  (68) 
-8.7599999999999998

>  <m_primary>  (68) 
energy

>  <rmsd>  (68) 
2.218684954708866

>  <m_score__min__rmsd>  (68) 
2.218684954708866

>  <meeko>  (68) 
{"free_energy": -8.72, "intermolecular_energy": -10.21, "internal_energy": -1.76, "cluster_size": 35, "cluster_id": 1, "rank_in_cluster": 5}

>  <energy>  (68) 
-8.68

>  <cluster_rmsd>  (68) 
0.37

>  <cluster>  (68) 
1

$$$$

     RDKit          3D

 51 54  0  0  0  0  0  0  0  0999 V2000
  140.8330   72.2170  221.3740 O   0  0  0  0  0  0  0  0  0  0  0  0
  140.0070   72.4440  222.3140 C   0  0  0  0  0  0  0  0  0  0  0  0
  139.1060   73.5380  222.2740 N   0  0  0  0  0  0  0  0  0  0  0  0
  139.1360   74.4180  221.1190 C   0  0  0  0  0  0  0  0  0  0  0  0
  140.3780   75.2130  221.1270 C   0  0  0  0  0  0  0  0  0  0  0  0
  141.2800   74.9720  221.9920 O   0  0  0  0  0  0  0  0  0  0  0  0
  140.6590   76.2650  220.2140 N   0  0  0  0  0  0  0  0  0  0  0  0
  139.8770   76.3160  219.0000 C   0  0  0  0  0  0  0  0  0  0  0  0
  140.8230   76.6110  217.8350 C   0  0  0  0  0  0  0  0  0  0  0  0
  141.3550   78.0110  218.1210 C   0  0  0  0  0  0  0  0  0  0  0  0
  142.2150   77.9810  219.3400 C   0  0  0  0  0  0  0  0  0  0  0  0
  141.6790   77.2240  220.5040 C   0  0  1  0  0  0  0  0  0  0  0  0
  141.2740   78.0970  221.6310 C   0  0  0  0  0  0  0  0  0  0  0  0
  142.1990   78.9050  222.3010 C   0  0  0  0  0  0  0  0  0  0  0  0
  141.8590   79.7200  223.3410 C   0  0  0  0  0  0  0  0  0  0  0  0
  140.5600   79.7840  223.7870 C   0  0  0  0  0  0  0  0  0  0  0  0
  139.6150   78.9980  223.1480 C   0  0  0  0  0  0  0  0  0  0  0  0
  138.3250   79.0330  223.5570 F   0  0  0  0  0  0  0  0  0  0  0  0
  139.9740   78.1800  222.0990 C   0  0  0  0  0  0  0  0  0  0  0  0
  139.9960   71.5450  223.4630 C   0  0  0  0  0  0  0  0  0  0  0  0
  139.4330   70.2890  223.3800 C   0  0  0  0  0  0  0  0  0  0  0  0
  139.4030   69.4090  224.4430 C   0  0  0  0  0  0  0  0  0  0  0  0
  139.9640   69.8200  225.6330 C   0  0  0  0  0  0  0  0  0  0  0  0
  139.9500   68.9620  226.7140 C   0  0  0  0  0  0  0  0  0  0  0  0
  140.5050   69.3380  227.9290 C   0  0  0  0  0  0  0  0  0  0  0  0
  140.4610   68.4570  228.9510 F   0  0  0  0  0  0  0  0  0  0  0  0
  141.0700   70.5920  228.0220 C   0  0  0  0  0  0  0  0  0  0  0  0
  141.0870   71.4580  226.9320 C   0  0  0  0  0  0  0  0  0  0  0  0
  140.5300   71.0760  225.7230 C   0  0  0  0  0  0  0  0  0  0  0  0
  140.5320   71.8930  224.6520 N   0  0  0  0  0  0  0  0  0  0  0  0
  138.4630   73.6560  223.0800 H   0  0  0  0  0  0  0  0  0  0  0  0
  139.0945   73.8152  220.1998 H   0  0  0  0  0  0  0  0  0  0  0  0
  138.2710   75.0965  221.1576 H   0  0  0  0  0  0  0  0  0  0  0  0
  139.3769   75.3497  218.8382 H   0  0  0  0  0  0  0  0  0  0  0  0
  139.1096   77.1006  219.0747 H   0  0  0  0  0  0  0  0  0  0  0  0
  141.6451   75.8807  217.8071 H   0  0  0  0  0  0  0  0  0  0  0  0
  140.3186   76.5462  216.8596 H   0  0  0  0  0  0  0  0  0  0  0  0
  141.9485   78.3593  217.2629 H   0  0  0  0  0  0  0  0  0  0  0  0
  140.5102   78.6957  218.2870 H   0  0  0  0  0  0  0  0  0  0  0  0
  143.1780   77.5289  219.0603 H   0  0  0  0  0  0  0  0  0  0  0  0
  142.2859   79.0260  219.6759 H   0  0  0  0  0  0  0  0  0  0  0  0
  142.5506   76.6301  220.8162 H   0  0  0  0  0  0  0  0  0  0  0  0
  143.2491   78.8821  221.9741 H   0  0  0  0  0  0  0  0  0  0  0  0
  142.6323   80.3324  223.8278 H   0  0  0  0  0  0  0  0  0  0  0  0
  140.2798   80.4390  224.6252 H   0  0  0  0  0  0  0  0  0  0  0  0
  139.1976   77.5694  221.6148 H   0  0  0  0  0  0  0  0  0  0  0  0
  138.9881   69.9744  222.4244 H   0  0  0  0  0  0  0  0  0  0  0  0
  138.9467   68.4131  224.3437 H   0  0  0  0  0  0  0  0  0  0  0  0
  139.4928   67.9668  226.6111 H   0  0  0  0  0  0  0  0  0  0  0  0
  141.5155   70.9143  228.9747 H   0  0  0  0  0  0  0  0  0  0  0  0
  141.5461   72.4526  227.0318 H   0  0  0  0  0  0  0  0  0  0  0  0
  1  2  2  0
  2  3  1  0
  3  4  1  0
  4  5  1  0
  5  6  2  0
  5  7  1  0
  7  8  1  0
  8  9  1  0
  9 10  1  0
 10 11  1  0
 11 12  1  0
 12 13  1  0
 13 14  2  0
 14 15  1  0
 15 16  2  0
 16 17  1  0
 17 18  1  0
 17 19  2  0
  2 20  1  0
 20 21  2  0
 21 22  1  0
 22 23  2  0
 23 24  1  0
 24 25  2  0
 25 26  1  0
 25 27  1  0
 27 28  2  0
 28 29  1  0
 29 30  2  0
 12  7  1  0
 19 13  1  0
 30 20  1  0
 29 23  1  0
  3 31  1  0
  4 32  1  0
  4 33  1  0
  8 34  1  0
  8 35  1  0
  9 36  1  0
  9 37  1  0
 10 38  1  0
 10 39  1  0
 11 40  1  0
 11 41  1  0
 12 42  1  1
 14 43  1  0
 15 44  1  0
 16 45  1  0
 19 46  1  0
 21 47  1  0
 22 48  1  0
 24 49  1  0
 27 50  1  0
 28 51  1  0
M  END
>  <smiles>  (69) 
O=C(NCC(=O)N1CCCCC1c1cccc(F)c1)c1ccc2cc(F)ccc2n1

>  <score_type>  (69) 
oracle

>  <origin>  (69) 
autodockgpu

>  <m_score__min__energy>  (69) 
-8.7599999999999998

>  <m_primary>  (69) 
energy

>  <rmsd>  (69) 
1.4154688356637257

>  <m_score__min__rmsd>  (69) 
1.4154688356637257

>  <meeko>  (69) 
{"free_energy": -8.56, "intermolecular_energy": -10.05, "internal_energy": -1.3, "cluster_size": 9, "cluster_id": 3, "rank_in_cluster": 3}

>  <energy>  (69) 
-8.68

>  <cluster_rmsd>  (69) 
0.38

>  <cluster>  (69) 
1

$$$$

     RDKit          3D

 51 54  0  0  0  0  0  0  0  0999 V2000
  138.6490   70.9740  221.4950 O   0  0  0  0  0  0  0  0  0  0  0  0
  139.0140   71.7660  222.4210 C   0  0  0  0  0  0  0  0  0  0  0  0
  138.9060   73.1730  222.2900 N   0  0  0  0  0  0  0  0  0  0  0  0
  138.3590   73.7150  221.0580 C   0  0  0  0  0  0  0  0  0  0  0  0
  139.3990   74.4760  220.3410 C   0  0  0  0  0  0  0  0  0  0  0  0
  139.6800   74.1830  219.1340 O   0  0  0  0  0  0  0  0  0  0  0  0
  140.1390   75.5480  220.9070 N   0  0  0  0  0  0  0  0  0  0  0  0
  139.6380   76.1240  222.1340 C   0  0  0  0  0  0  0  0  0  0  0  0
  139.7350   77.6460  222.0220 C   0  0  0  0  0  0  0  0  0  0  0  0
  141.2310   77.9270  221.9360 C   0  0  0  0  0  0  0  0  0  0  0  0
  141.7680   77.3950  220.6490 C   0  0  0  0  0  0  0  0  0  0  0  0
  141.3280   76.0230  220.2720 C   0  0  1  0  0  0  0  0  0  0  0  0
  142.4120   75.0170  220.3650 C   0  0  0  0  0  0  0  0  0  0  0  0
  143.7360   75.3350  220.0440 C   0  0  0  0  0  0  0  0  0  0  0  0
  144.7570   74.4330  220.1190 C   0  0  0  0  0  0  0  0  0  0  0  0
  144.5220   73.1400  220.5230 C   0  0  0  0  0  0  0  0  0  0  0  0
  143.2230   72.7870  220.8500 C   0  0  0  0  0  0  0  0  0  0  0  0
  142.9510   71.5240  221.2520 F   0  0  0  0  0  0  0  0  0  0  0  0
  142.2020   73.7100  220.7680 C   0  0  0  0  0  0  0  0  0  0  0  0
  139.5600   71.1970  223.6480 C   0  0  0  0  0  0  0  0  0  0  0  0
  140.4750   71.8930  224.4110 C   0  0  0  0  0  0  0  0  0  0  0  0
  141.0140   71.3900  225.5780 C   0  0  0  0  0  0  0  0  0  0  0  0
  140.6110   70.1360  225.9840 C   0  0  0  0  0  0  0  0  0  0  0  0
  141.1320   69.6060  227.1460 C   0  0  0  0  0  0  0  0  0  0  0  0
  140.7520   68.3470  227.5890 C   0  0  0  0  0  0  0  0  0  0  0  0
  141.2960   67.8810  228.7330 F   0  0  0  0  0  0  0  0  0  0  0  0
  139.8380   67.6440  226.8330 C   0  0  0  0  0  0  0  0  0  0  0  0
  139.3100   68.1770  225.6600 C   0  0  0  0  0  0  0  0  0  0  0  0
  139.6960   69.4340  225.2240 C   0  0  0  0  0  0  0  0  0  0  0  0
  139.2010   69.9750  224.0940 N   0  0  0  0  0  0  0  0  0  0  0  0
  139.2260   73.7520  223.0900 H   0  0  0  0  0  0  0  0  0  0  0  0
  138.0060   72.8903  220.4214 H   0  0  0  0  0  0  0  0  0  0  0  0
  137.5196   74.3844  221.2973 H   0  0  0  0  0  0  0  0  0  0  0  0
  138.5892   75.8277  222.2834 H   0  0  0  0  0  0  0  0  0  0  0  0
  140.2295   75.7676  222.9902 H   0  0  0  0  0  0  0  0  0  0  0  0
  139.2196   78.0031  221.1182 H   0  0  0  0  0  0  0  0  0  0  0  0
  139.2608   78.1593  222.8715 H   0  0  0  0  0  0  0  0  0  0  0  0
  141.4028   79.0125  221.9834 H   0  0  0  0  0  0  0  0  0  0  0  0
  141.7435   77.4357  222.7762 H   0  0  0  0  0  0  0  0  0  0  0  0
  141.4570   78.0800  219.8465 H   0  0  0  0  0  0  0  0  0  0  0  0
  142.8570   77.3278  220.7888 H   0  0  0  0  0  0  0  0  0  0  0  0
  141.0564   76.1484  219.2135 H   0  0  0  0  0  0  0  0  0  0  0  0
  143.9645   76.3598  219.7159 H   0  0  0  0  0  0  0  0  0  0  0  0
  145.7784   74.7434  219.8536 H   0  0  0  0  0  0  0  0  0  0  0  0
  145.3407   72.4080  220.5847 H   0  0  0  0  0  0  0  0  0  0  0  0
  141.1818   73.3954  221.0330 H   0  0  0  0  0  0  0  0  0  0  0  0
  140.7886   72.8923  224.0746 H   0  0  0  0  0  0  0  0  0  0  0  0
  141.7411   71.9707  226.1646 H   0  0  0  0  0  0  0  0  0  0  0  0
  141.8590   70.1896  227.7298 H   0  0  0  0  0  0  0  0  0  0  0  0
  139.5201   66.6438  227.1625 H   0  0  0  0  0  0  0  0  0  0  0  0
  138.5814   67.5960  225.0755 H   0  0  0  0  0  0  0  0  0  0  0  0
  1  2  2  0
  2  3  1  0
  3  4  1  0
  4  5  1  0
  5  6  2  0
  5  7  1  0
  7  8  1  0
  8  9  1  0
  9 10  1  0
 10 11  1  0
 11 12  1  0
 12 13  1  0
 13 14  2  0
 14 15  1  0
 15 16  2  0
 16 17  1  0
 17 18  1  0
 17 19  2  0
  2 20  1  0
 20 21  2  0
 21 22  1  0
 22 23  2  0
 23 24  1  0
 24 25  2  0
 25 26  1  0
 25 27  1  0
 27 28  2  0
 28 29  1  0
 29 30  2  0
 12  7  1  0
 19 13  1  0
 30 20  1  0
 29 23  1  0
  3 31  1  0
  4 32  1  0
  4 33  1  0
  8 34  1  0
  8 35  1  0
  9 36  1  0
  9 37  1  0
 10 38  1  0
 10 39  1  0
 11 40  1  0
 11 41  1  0
 12 42  1  6
 14 43  1  0
 15 44  1  0
 16 45  1  0
 19 46  1  0
 21 47  1  0
 22 48  1  0
 24 49  1  0
 27 50  1  0
 28 51  1  0
M  END
>  <smiles>  (70) 
O=C(NCC(=O)N1CCCCC1c1cccc(F)c1)c1ccc2cc(F)ccc2n1

>  <score_type>  (70) 
oracle

>  <origin>  (70) 
autodockgpu

>  <m_score__min__energy>  (70) 
-8.7599999999999998

>  <m_primary>  (70) 
energy

>  <rmsd>  (70) 
3.07971395946738

>  <m_score__min__rmsd>  (70) 
3.07971395946738

>  <meeko>  (70) 
{"free_energy": -7.87, "intermolecular_energy": -9.37, "internal_energy": -1.48, "cluster_size": 35, "cluster_id": 1, "rank_in_cluster": 35}

>  <energy>  (70) 
-8.67

>  <cluster_rmsd>  (70) 
0.87

>  <cluster>  (70) 
1

$$$$

     RDKit          3D

 51 54  0  0  0  0  0  0  0  0999 V2000
  140.5960   71.4910  221.0920 O   0  0  0  0  0  0  0  0  0  0  0  0
  140.2050   72.0620  222.1590 C   0  0  0  0  0  0  0  0  0  0  0  0
  139.8810   73.4410  222.1970 N   0  0  0  0  0  0  0  0  0  0  0  0
  140.0020   74.2160  220.9740 C   0  0  0  0  0  0  0  0  0  0  0  0
  140.7330   75.4680  221.2440 C   0  0  0  0  0  0  0  0  0  0  0  0
  140.5990   76.0510  222.3680 O   0  0  0  0  0  0  0  0  0  0  0  0
  141.6050   76.1000  220.3180 N   0  0  0  0  0  0  0  0  0  0  0  0
  141.8030   77.5240  220.4600 C   0  0  0  0  0  0  0  0  0  0  0  0
  141.7480   78.1550  219.0680 C   0  0  0  0  0  0  0  0  0  0  0  0
  142.9540   77.5740  218.3380 C   0  0  0  0  0  0  0  0  0  0  0  0
  142.7530   76.1110  218.1240 C   0  0  0  0  0  0  0  0  0  0  0  0
  142.2490   75.3390  219.2940 C   0  0  1  0  0  0  0  0  0  0  0  0
  143.2670   74.4320  219.8750 C   0  0  0  0  0  0  0  0  0  0  0  0
  144.5180   74.9030  220.2890 C   0  0  0  0  0  0  0  0  0  0  0  0
  145.4760   74.0950  220.8270 C   0  0  0  0  0  0  0  0  0  0  0  0
  145.2490   72.7490  220.9890 C   0  0  0  0  0  0  0  0  0  0  0  0
  144.0220   72.2450  220.5900 C   0  0  0  0  0  0  0  0  0  0  0  0
  143.7600   70.9250  220.7330 F   0  0  0  0  0  0  0  0  0  0  0  0
  143.0640   73.0740  220.0480 C   0  0  0  0  0  0  0  0  0  0  0  0
  140.0920   71.2630  223.3740 C   0  0  0  0  0  0  0  0  0  0  0  0
  139.5520   69.9940  223.3450 C   0  0  0  0  0  0  0  0  0  0  0  0
  139.4270   69.2060  224.4710 C   0  0  0  0  0  0  0  0  0  0  0  0
  139.8650   69.7260  225.6700 C   0  0  0  0  0  0  0  0  0  0  0  0
  139.7540   68.9620  226.8140 C   0  0  0  0  0  0  0  0  0  0  0  0
  140.1830   69.4480  228.0410 C   0  0  0  0  0  0  0  0  0  0  0  0
  140.0470   68.6560  229.1250 F   0  0  0  0  0  0  0  0  0  0  0  0
  140.7230   70.7160  228.0800 C   0  0  0  0  0  0  0  0  0  0  0  0
  140.8370   71.4880  226.9280 C   0  0  0  0  0  0  0  0  0  0  0  0
  140.4060   70.9950  225.7070 C   0  0  0  0  0  0  0  0  0  0  0  0
  140.5040   71.7190  224.5760 N   0  0  0  0  0  0  0  0  0  0  0  0
  139.5700   73.8340  223.1060 H   0  0  0  0  0  0  0  0  0  0  0  0
  140.5498   73.6285  220.2225 H   0  0  0  0  0  0  0  0  0  0  0  0
  138.9972   74.4572  220.5969 H   0  0  0  0  0  0  0  0  0  0  0  0
  141.0101   77.9489  221.0931 H   0  0  0  0  0  0  0  0  0  0  0  0
  142.7759   77.7273  220.9313 H   0  0  0  0  0  0  0  0  0  0  0  0
  140.8142   77.8828  218.5542 H   0  0  0  0  0  0  0  0  0  0  0  0
  141.7712   79.2541  219.1056 H   0  0  0  0  0  0  0  0  0  0  0  0
  143.0685   78.0739  217.3649 H   0  0  0  0  0  0  0  0  0  0  0  0
  143.8587   77.7336  218.9430 H   0  0  0  0  0  0  0  0  0  0  0  0
  142.0303   75.9878  217.3039 H   0  0  0  0  0  0  0  0  0  0  0  0
  143.7526   75.7043  217.9110 H   0  0  0  0  0  0  0  0  0  0  0  0
  141.4508   74.7295  218.8452 H   0  0  0  0  0  0  0  0  0  0  0  0
  144.7389   75.9746  220.1752 H   0  0  0  0  0  0  0  0  0  0  0  0
  146.4406   74.5250  221.1346 H   0  0  0  0  0  0  0  0  0  0  0  0
  146.0179   72.0924  221.4221 H   0  0  0  0  0  0  0  0  0  0  0  0
  142.1010   72.6398  219.7411 H   0  0  0  0  0  0  0  0  0  0  0  0
  139.2056   69.5922  222.3814 H   0  0  0  0  0  0  0  0  0  0  0  0
  138.9925   68.1971  224.4136 H   0  0  0  0  0  0  0  0  0  0  0  0
  139.3193   67.9534  226.7523 H   0  0  0  0  0  0  0  0  0  0  0  0
  141.0704   71.1252  229.0402 H   0  0  0  0  0  0  0  0  0  0  0  0
  141.2722   72.4965  226.9871 H   0  0  0  0  0  0  0  0  0  0  0  0
  1  2  2  0
  2  3  1  0
  3  4  1  0
  4  5  1  0
  5  6  2  0
  5  7  1  0
  7  8  1  0
  8  9  1  0
  9 10  1  0
 10 11  1  0
 11 12  1  0
 12 13  1  0
 13 14  2  0
 14 15  1  0
 15 16  2  0
 16 17  1  0
 17 18  1  0
 17 19  2  0
  2 20  1  0
 20 21  2  0
 21 22  1  0
 22 23  2  0
 23 24  1  0
 24 25  2  0
 25 26  1  0
 25 27  1  0
 27 28  2  0
 28 29  1  0
 29 30  2  0
 12  7  1  0
 19 13  1  0
 30 20  1  0
 29 23  1  0
  3 31  1  0
  4 32  1  0
  4 33  1  0
  8 34  1  0
  8 35  1  0
  9 36  1  0
  9 37  1  0
 10 38  1  0
 10 39  1  0
 11 40  1  0
 11 41  1  0
 12 42  1  6
 14 43  1  0
 15 44  1  0
 16 45  1  0
 19 46  1  0
 21 47  1  0
 22 48  1  0
 24 49  1  0
 27 50  1  0
 28 51  1  0
M  END
>  <smiles>  (71) 
O=C(NCC(=O)N1CCCCC1c1cccc(F)c1)c1ccc2cc(F)ccc2n1

>  <score_type>  (71) 
oracle

>  <origin>  (71) 
autodockgpu

>  <m_score__min__energy>  (71) 
-8.7599999999999998

>  <m_primary>  (71) 
energy

>  <rmsd>  (71) 
2.1925342714688303

>  <m_score__min__rmsd>  (71) 
2.1925342714688303

>  <meeko>  (71) 
{"free_energy": -8.68, "intermolecular_energy": -10.17, "internal_energy": -2.0, "cluster_size": 35, "cluster_id": 1, "rank_in_cluster": 19}

>  <energy>  (71) 
-8.67

>  <cluster_rmsd>  (71) 
0.4

>  <cluster>  (71) 
1

$$$$

     RDKit          3D

 51 54  0  0  0  0  0  0  0  0999 V2000
  141.2390   71.6940  221.4840 O   0  0  0  0  0  0  0  0  0  0  0  0
  140.5150   72.2180  222.3890 C   0  0  0  0  0  0  0  0  0  0  0  0
  139.9690   73.5180  222.2530 N   0  0  0  0  0  0  0  0  0  0  0  0
  140.2490   74.2650  221.0390 C   0  0  0  0  0  0  0  0  0  0  0  0
  140.3280   75.7060  221.3430 C   0  0  0  0  0  0  0  0  0  0  0  0
  140.1380   76.1140  222.5340 O   0  0  0  0  0  0  0  0  0  0  0  0
  140.6090   76.7120  220.3800 N   0  0  0  0  0  0  0  0  0  0  0  0
  139.7440   76.7840  219.2250 C   0  0  0  0  0  0  0  0  0  0  0  0
  140.6170   76.9830  217.9860 C   0  0  0  0  0  0  0  0  0  0  0  0
  141.2610   78.3510  218.1890 C   0  0  0  0  0  0  0  0  0  0  0  0
  142.2060   78.2940  219.3420 C   0  0  0  0  0  0  0  0  0  0  0  0
  141.7090   77.6050  220.5650 C   0  0  1  0  0  0  0  0  0  0  0  0
  141.4490   78.5330  221.6910 C   0  0  0  0  0  0  0  0  0  0  0  0
  140.1480   78.8950  222.0570 C   0  0  0  0  0  0  0  0  0  0  0  0
  139.8740   79.7460  223.0870 C   0  0  0  0  0  0  0  0  0  0  0  0
  140.8910   80.3000  223.8290 C   0  0  0  0  0  0  0  0  0  0  0  0
  142.1930   79.9650  223.4970 C   0  0  0  0  0  0  0  0  0  0  0  0
  143.2220   80.4900  224.2030 F   0  0  0  0  0  0  0  0  0  0  0  0
  142.4540   79.1040  222.4530 C   0  0  0  0  0  0  0  0  0  0  0  0
  140.2480   71.4480  223.5990 C   0  0  0  0  0  0  0  0  0  0  0  0
  139.5250   70.2740  223.5520 C   0  0  0  0  0  0  0  0  0  0  0  0
  139.2510   69.5170  224.6730 C   0  0  0  0  0  0  0  0  0  0  0  0
  139.7270   69.9690  225.8850 C   0  0  0  0  0  0  0  0  0  0  0  0
  139.4690   69.2330  227.0240 C   0  0  0  0  0  0  0  0  0  0  0  0
  139.9290   69.6540  228.2640 C   0  0  0  0  0  0  0  0  0  0  0  0
  139.6450   68.8930  229.3420 F   0  0  0  0  0  0  0  0  0  0  0  0
  140.6520   70.8270  228.3210 C   0  0  0  0  0  0  0  0  0  0  0  0
  140.9140   71.5690  227.1730 C   0  0  0  0  0  0  0  0  0  0  0  0
  140.4500   71.1430  225.9390 C   0  0  0  0  0  0  0  0  0  0  0  0
  140.6890   71.8410  224.8130 N   0  0  0  0  0  0  0  0  0  0  0  0
  139.3880   73.8760  223.0360 H   0  0  0  0  0  0  0  0  0  0  0  0
  141.2072   73.9283  220.6165 H   0  0  0  0  0  0  0  0  0  0  0  0
  139.4410   74.0919  220.3129 H   0  0  0  0  0  0  0  0  0  0  0  0
  139.1706   75.8500  219.1304 H   0  0  0  0  0  0  0  0  0  0  0  0
  139.0380   77.6209  219.3307 H   0  0  0  0  0  0  0  0  0  0  0  0
  141.3845   76.1977  217.9208 H   0  0  0  0  0  0  0  0  0  0  0  0
  140.0377   76.9275  217.0525 H   0  0  0  0  0  0  0  0  0  0  0  0
  141.8103   78.6355  217.2794 H   0  0  0  0  0  0  0  0  0  0  0  0
  140.4783   79.0959  218.3951 H   0  0  0  0  0  0  0  0  0  0  0  0
  143.1134   77.7702  219.0068 H   0  0  0  0  0  0  0  0  0  0  0  0
  142.3712   79.3400  219.6396 H   0  0  0  0  0  0  0  0  0  0  0  0
  142.5594   76.9599  220.8307 H   0  0  0  0  0  0  0  0  0  0  0  0
  139.3067   78.4735  221.4873 H   0  0  0  0  0  0  0  0  0  0  0  0
  138.8290   79.9918  223.3268 H   0  0  0  0  0  0  0  0  0  0  0  0
  140.6768   80.9878  224.6603 H   0  0  0  0  0  0  0  0  0  0  0  0
  143.5004   78.8613  222.2162 H   0  0  0  0  0  0  0  0  0  0  0  0
  139.1504   69.9259  222.5781 H   0  0  0  0  0  0  0  0  0  0  0  0
  138.6722   68.5843  224.6016 H   0  0  0  0  0  0  0  0  0  0  0  0
  138.8910   68.3002  226.9479 H   0  0  0  0  0  0  0  0  0  0  0  0
  141.0285   71.1827  229.2915 H   0  0  0  0  0  0  0  0  0  0  0  0
  141.4939   72.5008  227.2460 H   0  0  0  0  0  0  0  0  0  0  0  0
  1  2  2  0
  2  3  1  0
  3  4  1  0
  4  5  1  0
  5  6  2  0
  5  7  1  0
  7  8  1  0
  8  9  1  0
  9 10  1  0
 10 11  1  0
 11 12  1  0
 12 13  1  0
 13 14  2  0
 14 15  1  0
 15 16  2  0
 16 17  1  0
 17 18  1  0
 17 19  2  0
  2 20  1  0
 20 21  2  0
 21 22  1  0
 22 23  2  0
 23 24  1  0
 24 25  2  0
 25 26  1  0
 25 27  1  0
 27 28  2  0
 28 29  1  0
 29 30  2  0
 12  7  1  0
 19 13  1  0
 30 20  1  0
 29 23  1  0
  3 31  1  0
  4 32  1  0
  4 33  1  0
  8 34  1  0
  8 35  1  0
  9 36  1  0
  9 37  1  0
 10 38  1  0
 10 39  1  0
 11 40  1  0
 11 41  1  0
 12 42  1  1
 14 43  1  0
 15 44  1  0
 16 45  1  0
 19 46  1  0
 21 47  1  0
 22 48  1  0
 24 49  1  0
 27 50  1  0
 28 51  1  0
M  END
>  <smiles>  (72) 
O=C(NCC(=O)N1CCCCC1c1cccc(F)c1)c1ccc2cc(F)ccc2n1

>  <score_type>  (72) 
oracle

>  <origin>  (72) 
autodockgpu

>  <m_score__min__energy>  (72) 
-8.7599999999999998

>  <m_primary>  (72) 
energy

>  <rmsd>  (72) 
1.7477493500367445

>  <m_score__min__rmsd>  (72) 
1.7477493500367445

>  <meeko>  (72) 
{"free_energy": -8.55, "intermolecular_energy": -10.05, "internal_energy": -1.54, "cluster_size": 9, "cluster_id": 3, "rank_in_cluster": 4}

>  <energy>  (72) 
-8.67

>  <cluster_rmsd>  (72) 
0.35

>  <cluster>  (72) 
1

$$$$

     RDKit          3D

 51 54  0  0  0  0  0  0  0  0999 V2000
  140.3670   71.5380  221.0610 O   0  0  0  0  0  0  0  0  0  0  0  0
  140.0640   72.1080  222.1580 C   0  0  0  0  0  0  0  0  0  0  0  0
  139.8150   73.5000  222.2360 N   0  0  0  0  0  0  0  0  0  0  0  0
  139.9100   74.2910  221.0210 C   0  0  0  0  0  0  0  0  0  0  0  0
  140.6490   75.5380  221.2910 C   0  0  0  0  0  0  0  0  0  0  0  0
  140.5030   76.1330  222.4080 O   0  0  0  0  0  0  0  0  0  0  0  0
  141.5420   76.1520  220.3740 N   0  0  0  0  0  0  0  0  0  0  0  0
  141.8330   77.5540  220.5690 C   0  0  0  0  0  0  0  0  0  0  0  0
  141.7930   78.2450  219.2050 C   0  0  0  0  0  0  0  0  0  0  0  0
  142.9460   77.6200  218.4270 C   0  0  0  0  0  0  0  0  0  0  0  0
  142.6490   76.1830  218.1590 C   0  0  0  0  0  0  0  0  0  0  0  0
  142.1190   75.3960  219.3060 C   0  0  1  0  0  0  0  0  0  0  0  0
  143.0880   74.4030  219.8290 C   0  0  0  0  0  0  0  0  0  0  0  0
  142.7140   73.0790  220.0840 C   0  0  0  0  0  0  0  0  0  0  0  0
  143.5810   72.1410  220.5650 C   0  0  0  0  0  0  0  0  0  0  0  0
  144.8910   72.4660  220.8270 C   0  0  0  0  0  0  0  0  0  0  0  0
  145.2980   73.7680  220.5870 C   0  0  0  0  0  0  0  0  0  0  0  0
  146.5800   74.1270  220.8320 F   0  0  0  0  0  0  0  0  0  0  0  0
  144.4110   74.7040  220.1010 C   0  0  0  0  0  0  0  0  0  0  0  0
  139.9750   71.2920  223.3640 C   0  0  0  0  0  0  0  0  0  0  0  0
  139.4050   70.0350  223.3340 C   0  0  0  0  0  0  0  0  0  0  0  0
  139.3020   69.2330  224.4530 C   0  0  0  0  0  0  0  0  0  0  0  0
  139.7930   69.7240  225.6430 C   0  0  0  0  0  0  0  0  0  0  0  0
  139.7050   68.9450  226.7780 C   0  0  0  0  0  0  0  0  0  0  0  0
  140.1870   69.4020  227.9970 C   0  0  0  0  0  0  0  0  0  0  0  0
  140.0720   68.5950  229.0720 F   0  0  0  0  0  0  0  0  0  0  0  0
  140.7580   70.6570  228.0360 C   0  0  0  0  0  0  0  0  0  0  0  0
  140.8490   71.4440  226.8920 C   0  0  0  0  0  0  0  0  0  0  0  0
  140.3640   70.9800  225.6800 C   0  0  0  0  0  0  0  0  0  0  0  0
  140.4390   71.7200  224.5570 N   0  0  0  0  0  0  0  0  0  0  0  0
  139.5730   73.8900  223.1670 H   0  0  0  0  0  0  0  0  0  0  0  0
  140.4398   73.7127  220.2497 H   0  0  0  0  0  0  0  0  0  0  0  0
  138.8974   74.5387  220.6698 H   0  0  0  0  0  0  0  0  0  0  0  0
  141.0805   78.0013  221.2351 H   0  0  0  0  0  0  0  0  0  0  0  0
  142.8255   77.6757  221.0275 H   0  0  0  0  0  0  0  0  0  0  0  0
  140.8345   78.0540  218.7002 H   0  0  0  0  0  0  0  0  0  0  0  0
  141.8871   79.3379  219.2866 H   0  0  0  0  0  0  0  0  0  0  0  0
  143.0739   78.1514  217.4724 H   0  0  0  0  0  0  0  0  0  0  0  0
  143.8700   77.6975  219.0188 H   0  0  0  0  0  0  0  0  0  0  0  0
  141.9051   76.1394  217.3499 H   0  0  0  0  0  0  0  0  0  0  0  0
  143.6171   75.7241  217.9096 H   0  0  0  0  0  0  0  0  0  0  0  0
  141.2763   74.8570  218.8485 H   0  0  0  0  0  0  0  0  0  0  0  0
  141.6736   72.7805  219.8878 H   0  0  0  0  0  0  0  0  0  0  0  0
  143.2281   71.1148  220.7448 H   0  0  0  0  0  0  0  0  0  0  0  0
  145.5945   71.7148  221.2154 H   0  0  0  0  0  0  0  0  0  0  0  0
  144.7681   75.7290  219.9226 H   0  0  0  0  0  0  0  0  0  0  0  0
  139.0161   69.6561  222.3773 H   0  0  0  0  0  0  0  0  0  0  0  0
  138.8431   68.2349  224.3964 H   0  0  0  0  0  0  0  0  0  0  0  0
  139.2462   67.9471  226.7163 H   0  0  0  0  0  0  0  0  0  0  0  0
  141.1487   71.0429  228.9891 H   0  0  0  0  0  0  0  0  0  0  0  0
  141.3092   72.4414  226.9504 H   0  0  0  0  0  0  0  0  0  0  0  0
  1  2  2  0
  2  3  1  0
  3  4  1  0
  4  5  1  0
  5  6  2  0
  5  7  1  0
  7  8  1  0
  8  9  1  0
  9 10  1  0
 10 11  1  0
 11 12  1  0
 12 13  1  0
 13 14  2  0
 14 15  1  0
 15 16  2  0
 16 17  1  0
 17 18  1  0
 17 19  2  0
  2 20  1  0
 20 21  2  0
 21 22  1  0
 22 23  2  0
 23 24  1  0
 24 25  2  0
 25 26  1  0
 25 27  1  0
 27 28  2  0
 28 29  1  0
 29 30  2  0
 12  7  1  0
 19 13  1  0
 30 20  1  0
 29 23  1  0
  3 31  1  0
  4 32  1  0
  4 33  1  0
  8 34  1  0
  8 35  1  0
  9 36  1  0
  9 37  1  0
 10 38  1  0
 10 39  1  0
 11 40  1  0
 11 41  1  0
 12 42  1  6
 14 43  1  0
 15 44  1  0
 16 45  1  0
 19 46  1  0
 21 47  1  0
 22 48  1  0
 24 49  1  0
 27 50  1  0
 28 51  1  0
M  END
>  <smiles>  (73) 
O=C(NCC(=O)N1CCCCC1c1cccc(F)c1)c1ccc2cc(F)ccc2n1

>  <score_type>  (73) 
oracle

>  <origin>  (73) 
autodockgpu

>  <m_score__min__energy>  (73) 
-8.7599999999999998

>  <m_primary>  (73) 
energy

>  <rmsd>  (73) 
2.188223763502795

>  <m_score__min__rmsd>  (73) 
2.188223763502795

>  <meeko>  (73) 
{"free_energy": -8.68, "intermolecular_energy": -10.17, "internal_energy": -1.95, "cluster_size": 35, "cluster_id": 1, "rank_in_cluster": 17}

>  <energy>  (73) 
-8.67

>  <cluster_rmsd>  (73) 
0.86

>  <cluster>  (73) 
1

$$$$

     RDKit          3D

 51 54  0  0  0  0  0  0  0  0999 V2000
  140.6830   71.4070  221.1490 O   0  0  0  0  0  0  0  0  0  0  0  0
  140.2470   71.9870  222.1950 C   0  0  0  0  0  0  0  0  0  0  0  0
  139.9010   73.3610  222.2010 N   0  0  0  0  0  0  0  0  0  0  0  0
  140.0510   74.1200  220.9710 C   0  0  0  0  0  0  0  0  0  0  0  0
  140.6950   75.4150  221.2560 C   0  0  0  0  0  0  0  0  0  0  0  0
  140.4760   76.0030  222.3640 O   0  0  0  0  0  0  0  0  0  0  0  0
  141.5730   76.0850  220.3630 N   0  0  0  0  0  0  0  0  0  0  0  0
  141.7700   77.5020  220.5650 C   0  0  0  0  0  0  0  0  0  0  0  0
  141.7230   78.1900  219.2000 C   0  0  0  0  0  0  0  0  0  0  0  0
  142.9340   77.6400  218.4540 C   0  0  0  0  0  0  0  0  0  0  0  0
  142.7340   76.1870  218.1780 C   0  0  0  0  0  0  0  0  0  0  0  0
  142.2240   75.3670  219.3120 C   0  0  1  0  0  0  0  0  0  0  0  0
  143.2390   74.4370  219.8610 C   0  0  0  0  0  0  0  0  0  0  0  0
  144.4780   74.8930  220.3220 C   0  0  0  0  0  0  0  0  0  0  0  0
  145.4330   74.0640  220.8340 C   0  0  0  0  0  0  0  0  0  0  0  0
  145.2140   72.7090  220.9180 C   0  0  0  0  0  0  0  0  0  0  0  0
  143.9980   72.2190  220.4700 C   0  0  0  0  0  0  0  0  0  0  0  0
  143.7430   70.8920  220.5360 F   0  0  0  0  0  0  0  0  0  0  0  0
  143.0430   73.0700  219.9560 C   0  0  0  0  0  0  0  0  0  0  0  0
  140.1060   71.2040  223.4170 C   0  0  0  0  0  0  0  0  0  0  0  0
  139.5010   69.9640  223.4030 C   0  0  0  0  0  0  0  0  0  0  0  0
  139.3480   69.1920  224.5370 C   0  0  0  0  0  0  0  0  0  0  0  0
  139.8250   69.6970  225.7270 C   0  0  0  0  0  0  0  0  0  0  0  0
  139.6870   68.9490  226.8780 C   0  0  0  0  0  0  0  0  0  0  0  0
  140.1530   69.4220  228.0970 C   0  0  0  0  0  0  0  0  0  0  0  0
  139.9890   68.6450  229.1880 F   0  0  0  0  0  0  0  0  0  0  0  0
  140.7580   70.6610  228.1210 C   0  0  0  0  0  0  0  0  0  0  0  0
  140.9000   71.4170  226.9610 C   0  0  0  0  0  0  0  0  0  0  0  0
  140.4310   70.9370  225.7480 C   0  0  0  0  0  0  0  0  0  0  0  0
  140.5540   71.6470  224.6100 N   0  0  0  0  0  0  0  0  0  0  0  0
  139.5530   73.7620  223.0930 H   0  0  0  0  0  0  0  0  0  0  0  0
  140.6732   73.5508  220.2647 H   0  0  0  0  0  0  0  0  0  0  0  0
  139.0583   74.2981  220.5319 H   0  0  0  0  0  0  0  0  0  0  0  0
  140.9734   77.9005  221.2105 H   0  0  0  0  0  0  0  0  0  0  0  0
  142.7401   77.6855  221.0500 H   0  0  0  0  0  0  0  0  0  0  0  0
  140.7925   77.9389  218.6697 H   0  0  0  0  0  0  0  0  0  0  0  0
  141.7452   79.2866  219.2831 H   0  0  0  0  0  0  0  0  0  0  0  0
  143.0548   78.1801  217.5033 H   0  0  0  0  0  0  0  0  0  0  0  0
  143.8350   77.7743  219.0705 H   0  0  0  0  0  0  0  0  0  0  0  0
  142.0155   76.0984  217.3498 H   0  0  0  0  0  0  0  0  0  0  0  0
  143.7347   75.7892  217.9534 H   0  0  0  0  0  0  0  0  0  0  0  0
  141.4291   74.7760  218.8336 H   0  0  0  0  0  0  0  0  0  0  0  0
  144.6927   75.9706  220.2694 H   0  0  0  0  0  0  0  0  0  0  0  0
  146.3879   74.4838  221.1832 H   0  0  0  0  0  0  0  0  0  0  0  0
  145.9805   72.0351  221.3282 H   0  0  0  0  0  0  0  0  0  0  0  0
  142.0891   72.6467  219.6082 H   0  0  0  0  0  0  0  0  0  0  0  0
  139.1241   69.5735  222.4462 H   0  0  0  0  0  0  0  0  0  0  0  0
  138.8615   68.2065  224.4922 H   0  0  0  0  0  0  0  0  0  0  0  0
  139.2007   67.9636  226.8290 H   0  0  0  0  0  0  0  0  0  0  0  0
  141.1353   71.0592  229.0745 H   0  0  0  0  0  0  0  0  0  0  0  0
  141.3876   72.4019  227.0071 H   0  0  0  0  0  0  0  0  0  0  0  0
  1  2  2  0
  2  3  1  0
  3  4  1  0
  4  5  1  0
  5  6  2  0
  5  7  1  0
  7  8  1  0
  8  9  1  0
  9 10  1  0
 10 11  1  0
 11 12  1  0
 12 13  1  0
 13 14  2  0
 14 15  1  0
 15 16  2  0
 16 17  1  0
 17 18  1  0
 17 19  2  0
  2 20  1  0
 20 21  2  0
 21 22  1  0
 22 23  2  0
 23 24  1  0
 24 25  2  0
 25 26  1  0
 25 27  1  0
 27 28  2  0
 28 29  1  0
 29 30  2  0
 12  7  1  0
 19 13  1  0
 30 20  1  0
 29 23  1  0
  3 31  1  0
  4 32  1  0
  4 33  1  0
  8 34  1  0
  8 35  1  0
  9 36  1  0
  9 37  1  0
 10 38  1  0
 10 39  1  0
 11 40  1  0
 11 41  1  0
 12 42  1  6
 14 43  1  0
 15 44  1  0
 16 45  1  0
 19 46  1  0
 21 47  1  0
 22 48  1  0
 24 49  1  0
 27 50  1  0
 28 51  1  0
M  END
>  <smiles>  (74) 
O=C(NCC(=O)N1CCCCC1c1cccc(F)c1)c1ccc2cc(F)ccc2n1

>  <score_type>  (74) 
oracle

>  <origin>  (74) 
autodockgpu

>  <m_score__min__energy>  (74) 
-8.7599999999999998

>  <m_primary>  (74) 
energy

>  <rmsd>  (74) 
2.198561807513578

>  <m_score__min__rmsd>  (74) 
2.198561807513578

>  <meeko>  (74) 
{"free_energy": -8.7, "intermolecular_energy": -10.19, "internal_energy": -1.96, "cluster_size": 35, "cluster_id": 1, "rank_in_cluster": 8}

>  <energy>  (74) 
-8.66

>  <cluster_rmsd>  (74) 
0.86

>  <cluster>  (74) 
1

$$$$

     RDKit          3D

 51 54  0  0  0  0  0  0  0  0999 V2000
  141.2020   71.4450  221.4610 O   0  0  0  0  0  0  0  0  0  0  0  0
  140.5070   71.9990  222.3720 C   0  0  0  0  0  0  0  0  0  0  0  0
  139.9640   73.2980  222.2140 N   0  0  0  0  0  0  0  0  0  0  0  0
  140.2140   74.0090  220.9720 C   0  0  0  0  0  0  0  0  0  0  0  0
  140.7810   75.3390  221.2600 C   0  0  0  0  0  0  0  0  0  0  0  0
  140.5090   75.9200  222.3600 O   0  0  0  0  0  0  0  0  0  0  0  0
  141.6380   76.0500  220.3790 N   0  0  0  0  0  0  0  0  0  0  0  0
  141.8180   77.4630  220.6260 C   0  0  0  0  0  0  0  0  0  0  0  0
  141.7440   78.1950  219.2860 C   0  0  0  0  0  0  0  0  0  0  0  0
  142.9530   77.6870  218.5060 C   0  0  0  0  0  0  0  0  0  0  0  0
  142.7700   76.2420  218.1850 C   0  0  0  0  0  0  0  0  0  0  0  0
  142.2850   75.3780  219.2970 C   0  0  1  0  0  0  0  0  0  0  0  0
  143.3200   74.4440  219.8020 C   0  0  0  0  0  0  0  0  0  0  0  0
  144.5030   74.9080  220.3870 C   0  0  0  0  0  0  0  0  0  0  0  0
  145.4740   74.0750  220.8620 C   0  0  0  0  0  0  0  0  0  0  0  0
  145.3290   72.7110  220.7830 C   0  0  0  0  0  0  0  0  0  0  0  0
  144.1700   72.2130  220.2090 C   0  0  0  0  0  0  0  0  0  0  0  0
  143.9890   70.8750  220.1130 F   0  0  0  0  0  0  0  0  0  0  0  0
  143.1980   73.0670  219.7340 C   0  0  0  0  0  0  0  0  0  0  0  0
  140.2700   71.2650  223.6100 C   0  0  0  0  0  0  0  0  0  0  0  0
  139.5920   70.0640  223.6080 C   0  0  0  0  0  0  0  0  0  0  0  0
  139.3480   69.3390  224.7570 C   0  0  0  0  0  0  0  0  0  0  0  0
  139.8080   69.8530  225.9500 C   0  0  0  0  0  0  0  0  0  0  0  0
  139.5800   69.1510  227.1160 C   0  0  0  0  0  0  0  0  0  0  0  0
  140.0260   69.6340  228.3380 C   0  0  0  0  0  0  0  0  0  0  0  0
  139.7720   68.9040  229.4440 F   0  0  0  0  0  0  0  0  0  0  0  0
  140.7050   70.8340  228.3500 C   0  0  0  0  0  0  0  0  0  0  0  0
  140.9370   71.5430  227.1750 C   0  0  0  0  0  0  0  0  0  0  0  0
  140.4870   71.0540  225.9590 C   0  0  0  0  0  0  0  0  0  0  0  0
  140.6980   71.7190  224.8070 N   0  0  0  0  0  0  0  0  0  0  0  0
  139.4080   73.6820  223.0030 H   0  0  0  0  0  0  0  0  0  0  0  0
  140.9246   73.4345  220.3596 H   0  0  0  0  0  0  0  0  0  0  0  0
  139.2661   74.1299  220.4271 H   0  0  0  0  0  0  0  0  0  0  0  0
  141.0243   77.8283  221.2943 H   0  0  0  0  0  0  0  0  0  0  0  0
  142.7916   77.6442  221.1048 H   0  0  0  0  0  0  0  0  0  0  0  0
  140.8101   77.9488  218.7595 H   0  0  0  0  0  0  0  0  0  0  0  0
  141.7527   79.2884  219.4056 H   0  0  0  0  0  0  0  0  0  0  0  0
  143.0532   78.2596  217.5722 H   0  0  0  0  0  0  0  0  0  0  0  0
  143.8603   77.8140  219.1149 H   0  0  0  0  0  0  0  0  0  0  0  0
  142.0430   76.1703  217.3626 H   0  0  0  0  0  0  0  0  0  0  0  0
  143.7734   75.8662  217.9362 H   0  0  0  0  0  0  0  0  0  0  0  0
  141.4915   74.7933  218.8086 H   0  0  0  0  0  0  0  0  0  0  0  0
  144.6576   75.9941  220.4678 H   0  0  0  0  0  0  0  0  0  0  0  0
  146.3827   74.5002  221.3131 H   0  0  0  0  0  0  0  0  0  0  0  0
  146.1088   72.0350  221.1637 H   0  0  0  0  0  0  0  0  0  0  0  0
  142.2908   72.6378  219.2837 H   0  0  0  0  0  0  0  0  0  0  0  0
  139.2297   69.6664  222.6485 H   0  0  0  0  0  0  0  0  0  0  0  0
  138.8047   68.3832  224.7216 H   0  0  0  0  0  0  0  0  0  0  0  0
  139.0371   68.1951  227.0762 H   0  0  0  0  0  0  0  0  0  0  0  0
  141.0700   71.2384  229.3057 H   0  0  0  0  0  0  0  0  0  0  0  0
  141.4813   72.4982  227.2119 H   0  0  0  0  0  0  0  0  0  0  0  0
  1  2  2  0
  2  3  1  0
  3  4  1  0
  4  5  1  0
  5  6  2  0
  5  7  1  0
  7  8  1  0
  8  9  1  0
  9 10  1  0
 10 11  1  0
 11 12  1  0
 12 13  1  0
 13 14  2  0
 14 15  1  0
 15 16  2  0
 16 17  1  0
 17 18  1  0
 17 19  2  0
  2 20  1  0
 20 21  2  0
 21 22  1  0
 22 23  2  0
 23 24  1  0
 24 25  2  0
 25 26  1  0
 25 27  1  0
 27 28  2  0
 28 29  1  0
 29 30  2  0
 12  7  1  0
 19 13  1  0
 30 20  1  0
 29 23  1  0
  3 31  1  0
  4 32  1  0
  4 33  1  0
  8 34  1  0
  8 35  1  0
  9 36  1  0
  9 37  1  0
 10 38  1  0
 10 39  1  0
 11 40  1  0
 11 41  1  0
 12 42  1  6
 14 43  1  0
 15 44  1  0
 16 45  1  0
 19 46  1  0
 21 47  1  0
 22 48  1  0
 24 49  1  0
 27 50  1  0
 28 51  1  0
M  END
>  <smiles>  (75) 
O=C(NCC(=O)N1CCCCC1c1cccc(F)c1)c1ccc2cc(F)ccc2n1

>  <score_type>  (75) 
oracle

>  <origin>  (75) 
autodockgpu

>  <m_score__min__energy>  (75) 
-8.7599999999999998

>  <m_primary>  (75) 
energy

>  <rmsd>  (75) 
2.2860592664340733

>  <m_score__min__rmsd>  (75) 
2.2860592664340733

>  <meeko>  (75) 
{"free_energy": -8.67, "intermolecular_energy": -10.16, "internal_energy": -1.86, "cluster_size": 35, "cluster_id": 1, "rank_in_cluster": 22}

>  <energy>  (75) 
-8.66

>  <cluster_rmsd>  (75) 
0.87

>  <cluster>  (75) 
1

$$$$

     RDKit          3D

 51 54  0  0  0  0  0  0  0  0999 V2000
  139.4990   71.1460  221.1190 O   0  0  0  0  0  0  0  0  0  0  0  0
  139.9260   71.6870  222.1880 C   0  0  0  0  0  0  0  0  0  0  0  0
  140.4270   73.0120  222.2100 N   0  0  0  0  0  0  0  0  0  0  0  0
  140.4490   73.7660  220.9680 C   0  0  0  0  0  0  0  0  0  0  0  0
  141.1350   75.0540  221.1760 C   0  0  0  0  0  0  0  0  0  0  0  0
  141.0810   75.6270  222.3120 O   0  0  0  0  0  0  0  0  0  0  0  0
  141.8810   75.7330  220.1750 N   0  0  0  0  0  0  0  0  0  0  0  0
  141.9470   77.1740  220.2610 C   0  0  0  0  0  0  0  0  0  0  0  0
  141.7410   77.7460  218.8580 C   0  0  0  0  0  0  0  0  0  0  0  0
  142.9500   77.2560  218.0660 C   0  0  0  0  0  0  0  0  0  0  0  0
  142.8790   75.7740  217.9100 C   0  0  0  0  0  0  0  0  0  0  0  0
  142.5300   75.0010  219.1330 C   0  0  1  0  0  0  0  0  0  0  0  0
  143.6670   74.2170  219.6710 C   0  0  0  0  0  0  0  0  0  0  0  0
  144.6560   74.8110  220.4630 C   0  0  0  0  0  0  0  0  0  0  0  0
  145.7150   74.1180  220.9740 C   0  0  0  0  0  0  0  0  0  0  0  0
  145.8600   72.7740  220.7260 C   0  0  0  0  0  0  0  0  0  0  0  0
  144.8990   72.1500  219.9460 C   0  0  0  0  0  0  0  0  0  0  0  0
  145.0060   70.8280  219.6790 F   0  0  0  0  0  0  0  0  0  0  0  0
  143.8360   72.8640  219.4370 C   0  0  0  0  0  0  0  0  0  0  0  0
  139.8930   70.9090  223.4220 C   0  0  0  0  0  0  0  0  0  0  0  0
  139.2940   69.6680  223.4670 C   0  0  0  0  0  0  0  0  0  0  0  0
  139.2420   68.9010  224.6140 C   0  0  0  0  0  0  0  0  0  0  0  0
  139.8190   69.4140  225.7550 C   0  0  0  0  0  0  0  0  0  0  0  0
  139.7840   68.6710  226.9170 C   0  0  0  0  0  0  0  0  0  0  0  0
  140.3530   69.1510  228.0890 C   0  0  0  0  0  0  0  0  0  0  0  0
  140.2870   68.3800  229.1940 F   0  0  0  0  0  0  0  0  0  0  0  0
  140.9540   70.3920  228.0530 C   0  0  0  0  0  0  0  0  0  0  0  0
  140.9920   71.1420  226.8820 C   0  0  0  0  0  0  0  0  0  0  0  0
  140.4210   70.6560  225.7170 C   0  0  0  0  0  0  0  0  0  0  0  0
  140.4430   71.3600  224.5700 N   0  0  0  0  0  0  0  0  0  0  0  0
  140.7560   73.3830  223.1220 H   0  0  0  0  0  0  0  0  0  0  0  0
  140.9833   73.1879  220.1996 H   0  0  0  0  0  0  0  0  0  0  0  0
  139.4161   73.9543  220.6399 H   0  0  0  0  0  0  0  0  0  0  0  0
  141.1586   77.5435  220.9333 H   0  0  0  0  0  0  0  0  0  0  0  0
  142.9235   77.4866  220.6593 H   0  0  0  0  0  0  0  0  0  0  0  0
  140.8073   77.3673  218.4167 H   0  0  0  0  0  0  0  0  0  0  0  0
  141.6586   78.8429  218.8608 H   0  0  0  0  0  0  0  0  0  0  0  0
  142.9531   77.7289  217.0728 H   0  0  0  0  0  0  0  0  0  0  0  0
  143.8716   77.5229  218.6039 H   0  0  0  0  0  0  0  0  0  0  0  0
  142.1200   75.5529  217.1451 H   0  0  0  0  0  0  0  0  0  0  0  0
  143.8976   75.4569  217.6417 H   0  0  0  0  0  0  0  0  0  0  0  0
  141.7684   74.3019  218.7570 H   0  0  0  0  0  0  0  0  0  0  0  0
  144.5763   75.8856  220.6838 H   0  0  0  0  0  0  0  0  0  0  0  0
  146.4605   74.6409  221.5911 H   0  0  0  0  0  0  0  0  0  0  0  0
  146.7124   72.2109  221.1339 H   0  0  0  0  0  0  0  0  0  0  0  0
  143.0926   72.3375  218.8204 H   0  0  0  0  0  0  0  0  0  0  0  0
  138.8372   69.2713  222.5483 H   0  0  0  0  0  0  0  0  0  0  0  0
  138.7564   67.9140  224.6166 H   0  0  0  0  0  0  0  0  0  0  0  0
  139.2983   67.6841  226.9149 H   0  0  0  0  0  0  0  0  0  0  0  0
  141.4120   70.7964  228.9677 H   0  0  0  0  0  0  0  0  0  0  0  0
  141.4791   72.1283  226.8810 H   0  0  0  0  0  0  0  0  0  0  0  0
  1  2  2  0
  2  3  1  0
  3  4  1  0
  4  5  1  0
  5  6  2  0
  5  7  1  0
  7  8  1  0
  8  9  1  0
  9 10  1  0
 10 11  1  0
 11 12  1  0
 12 13  1  0
 13 14  2  0
 14 15  1  0
 15 16  2  0
 16 17  1  0
 17 18  1  0
 17 19  2  0
  2 20  1  0
 20 21  2  0
 21 22  1  0
 22 23  2  0
 23 24  1  0
 24 25  2  0
 25 26  1  0
 25 27  1  0
 27 28  2  0
 28 29  1  0
 29 30  2  0
 12  7  1  0
 19 13  1  0
 30 20  1  0
 29 23  1  0
  3 31  1  0
  4 32  1  0
  4 33  1  0
  8 34  1  0
  8 35  1  0
  9 36  1  0
  9 37  1  0
 10 38  1  0
 10 39  1  0
 11 40  1  0
 11 41  1  0
 12 42  1  6
 14 43  1  0
 15 44  1  0
 16 45  1  0
 19 46  1  0
 21 47  1  0
 22 48  1  0
 24 49  1  0
 27 50  1  0
 28 51  1  0
M  END
>  <smiles>  (76) 
O=C(NCC(=O)N1CCCCC1c1cccc(F)c1)c1ccc2cc(F)ccc2n1

>  <score_type>  (76) 
oracle

>  <origin>  (76) 
autodockgpu

>  <m_score__min__energy>  (76) 
-8.7599999999999998

>  <m_primary>  (76) 
energy

>  <rmsd>  (76) 
2.2097775519242777

>  <m_score__min__rmsd>  (76) 
2.2097775519242777

>  <meeko>  (76) 
{"free_energy": -8.07, "intermolecular_energy": -9.56, "internal_energy": -2.03, "cluster_size": 35, "cluster_id": 1, "rank_in_cluster": 33}

>  <energy>  (76) 
-8.65

>  <cluster_rmsd>  (76) 
0.78

>  <cluster>  (76) 
1

$$$$

     RDKit          3D

 51 54  0  0  0  0  0  0  0  0999 V2000
  140.6070   71.4900  221.0920 O   0  0  0  0  0  0  0  0  0  0  0  0
  140.2130   72.0590  222.1590 C   0  0  0  0  0  0  0  0  0  0  0  0
  139.8860   73.4380  222.1970 N   0  0  0  0  0  0  0  0  0  0  0  0
  140.0080   74.2130  220.9750 C   0  0  0  0  0  0  0  0  0  0  0  0
  140.7390   75.4650  221.2460 C   0  0  0  0  0  0  0  0  0  0  0  0
  140.6090   76.0440  222.3730 O   0  0  0  0  0  0  0  0  0  0  0  0
  141.6080   76.1000  220.3190 N   0  0  0  0  0  0  0  0  0  0  0  0
  141.8090   77.5230  220.4670 C   0  0  0  0  0  0  0  0  0  0  0  0
  141.7480   78.1610  219.0790 C   0  0  0  0  0  0  0  0  0  0  0  0
  142.9510   77.5810  218.3400 C   0  0  0  0  0  0  0  0  0  0  0  0
  142.7460   76.1200  218.1210 C   0  0  0  0  0  0  0  0  0  0  0  0
  142.2470   75.3430  219.2890 C   0  0  1  0  0  0  0  0  0  0  0  0
  143.2670   74.4320  219.8610 C   0  0  0  0  0  0  0  0  0  0  0  0
  144.5080   74.9050  220.2990 C   0  0  0  0  0  0  0  0  0  0  0  0
  145.4680   74.0930  220.8310 C   0  0  0  0  0  0  0  0  0  0  0  0
  145.2510   72.7420  220.9610 C   0  0  0  0  0  0  0  0  0  0  0  0
  144.0320   72.2370  220.5380 C   0  0  0  0  0  0  0  0  0  0  0  0
  143.7790   70.9120  220.6500 F   0  0  0  0  0  0  0  0  0  0  0  0
  143.0730   73.0690  220.0030 C   0  0  0  0  0  0  0  0  0  0  0  0
  140.0980   71.2590  223.3740 C   0  0  0  0  0  0  0  0  0  0  0  0
  139.5710   69.9840  223.3400 C   0  0  0  0  0  0  0  0  0  0  0  0
  139.4450   69.1950  224.4660 C   0  0  0  0  0  0  0  0  0  0  0  0
  139.8690   69.7200  225.6680 C   0  0  0  0  0  0  0  0  0  0  0  0
  139.7570   68.9550  226.8110 C   0  0  0  0  0  0  0  0  0  0  0  0
  140.1720   69.4460  228.0410 C   0  0  0  0  0  0  0  0  0  0  0  0
  140.0370   68.6520  229.1240 F   0  0  0  0  0  0  0  0  0  0  0  0
  140.7000   70.7190  228.0840 C   0  0  0  0  0  0  0  0  0  0  0  0
  140.8150   71.4920  226.9320 C   0  0  0  0  0  0  0  0  0  0  0  0
  140.3970   70.9950  225.7080 C   0  0  0  0  0  0  0  0  0  0  0  0
  140.4970   71.7200  224.5780 N   0  0  0  0  0  0  0  0  0  0  0  0
  139.5720   73.8290  223.1060 H   0  0  0  0  0  0  0  0  0  0  0  0
  140.5563   73.6257  220.2237 H   0  0  0  0  0  0  0  0  0  0  0  0
  139.0035   74.4544  220.5972 H   0  0  0  0  0  0  0  0  0  0  0  0
  141.0201   77.9460  221.1062 H   0  0  0  0  0  0  0  0  0  0  0  0
  142.7847   77.7223  220.9342 H   0  0  0  0  0  0  0  0  0  0  0  0
  140.8114   77.8927  218.5683 H   0  0  0  0  0  0  0  0  0  0  0  0
  141.7727   79.2599  219.1217 H   0  0  0  0  0  0  0  0  0  0  0  0
  143.0618   78.0849  217.3685 H   0  0  0  0  0  0  0  0  0  0  0  0
  143.8591   77.7367  218.9409 H   0  0  0  0  0  0  0  0  0  0  0  0
  142.0187   76.0021  217.3042 H   0  0  0  0  0  0  0  0  0  0  0  0
  143.7440   75.7127  217.9017 H   0  0  0  0  0  0  0  0  0  0  0  0
  141.4465   74.7357  218.8413 H   0  0  0  0  0  0  0  0  0  0  0  0
  144.7204   75.9807  220.2108 H   0  0  0  0  0  0  0  0  0  0  0  0
  146.4252   74.5245  221.1590 H   0  0  0  0  0  0  0  0  0  0  0  0
  146.0210   72.0823  221.3875 H   0  0  0  0  0  0  0  0  0  0  0  0
  142.1171   72.6336  219.6764 H   0  0  0  0  0  0  0  0  0  0  0  0
  139.2367   69.5786  222.3736 H   0  0  0  0  0  0  0  0  0  0  0  0
  139.0207   68.1819  224.4060 H   0  0  0  0  0  0  0  0  0  0  0  0
  139.3330   67.9421  226.7464 H   0  0  0  0  0  0  0  0  0  0  0  0
  141.0366   71.1315  229.0466 H   0  0  0  0  0  0  0  0  0  0  0  0
  141.2407   72.5044  226.9938 H   0  0  0  0  0  0  0  0  0  0  0  0
  1  2  2  0
  2  3  1  0
  3  4  1  0
  4  5  1  0
  5  6  2  0
  5  7  1  0
  7  8  1  0
  8  9  1  0
  9 10  1  0
 10 11  1  0
 11 12  1  0
 12 13  1  0
 13 14  2  0
 14 15  1  0
 15 16  2  0
 16 17  1  0
 17 18  1  0
 17 19  2  0
  2 20  1  0
 20 21  2  0
 21 22  1  0
 22 23  2  0
 23 24  1  0
 24 25  2  0
 25 26  1  0
 25 27  1  0
 27 28  2  0
 28 29  1  0
 29 30  2  0
 12  7  1  0
 19 13  1  0
 30 20  1  0
 29 23  1  0
  3 31  1  0
  4 32  1  0
  4 33  1  0
  8 34  1  0
  8 35  1  0
  9 36  1  0
  9 37  1  0
 10 38  1  0
 10 39  1  0
 11 40  1  0
 11 41  1  0
 12 42  1  6
 14 43  1  0
 15 44  1  0
 16 45  1  0
 19 46  1  0
 21 47  1  0
 22 48  1  0
 24 49  1  0
 27 50  1  0
 28 51  1  0
M  END
>  <smiles>  (77) 
O=C(NCC(=O)N1CCCCC1c1cccc(F)c1)c1ccc2cc(F)ccc2n1

>  <score_type>  (77) 
oracle

>  <origin>  (77) 
autodockgpu

>  <m_score__min__energy>  (77) 
-8.7599999999999998

>  <m_primary>  (77) 
energy

>  <rmsd>  (77) 
2.194377290751595

>  <m_score__min__rmsd>  (77) 
2.194377290751595

>  <meeko>  (77) 
{"free_energy": -8.68, "intermolecular_energy": -10.17, "internal_energy": -2.0, "cluster_size": 35, "cluster_id": 1, "rank_in_cluster": 18}

>  <energy>  (77) 
-8.61

>  <cluster_rmsd>  (77) 
0.81

>  <cluster>  (77) 
1

$$$$

     RDKit          3D

 51 54  0  0  0  0  0  0  0  0999 V2000
  140.0550   71.7230  221.0580 O   0  0  0  0  0  0  0  0  0  0  0  0
  139.8820   72.2730  222.1920 C   0  0  0  0  0  0  0  0  0  0  0  0
  139.6780   73.6690  222.3260 N   0  0  0  0  0  0  0  0  0  0  0  0
  139.6680   74.4870  221.1250 C   0  0  0  0  0  0  0  0  0  0  0  0
  140.2170   75.8220  221.4230 C   0  0  0  0  0  0  0  0  0  0  0  0
  140.4350   76.1640  222.6300 O   0  0  0  0  0  0  0  0  0  0  0  0
  140.5350   76.7940  220.4370 N   0  0  0  0  0  0  0  0  0  0  0  0
  139.6700   76.8740  219.2820 C   0  0  0  0  0  0  0  0  0  0  0  0
  140.5460   77.0110  218.0370 C   0  0  0  0  0  0  0  0  0  0  0  0
  141.2430   78.3570  218.2080 C   0  0  0  0  0  0  0  0  0  0  0  0
  142.1890   78.2890  219.3600 C   0  0  0  0  0  0  0  0  0  0  0  0
  141.6690   77.6490  220.5990 C   0  0  1  0  0  0  0  0  0  0  0  0
  141.4480   78.6120  221.7040 C   0  0  0  0  0  0  0  0  0  0  0  0
  142.5160   79.1840  222.4020 C   0  0  0  0  0  0  0  0  0  0  0  0
  142.3470   80.0730  223.4240 C   0  0  0  0  0  0  0  0  0  0  0  0
  141.0870   80.4540  223.8200 C   0  0  0  0  0  0  0  0  0  0  0  0
  140.0030   79.9080  223.1520 C   0  0  0  0  0  0  0  0  0  0  0  0
  138.7460   80.2580  223.5130 F   0  0  0  0  0  0  0  0  0  0  0  0
  140.1910   79.0110  222.1230 C   0  0  0  0  0  0  0  0  0  0  0  0
  139.8960   71.4310  223.3830 C   0  0  0  0  0  0  0  0  0  0  0  0
  139.4470   70.1270  223.3390 C   0  0  0  0  0  0  0  0  0  0  0  0
  139.4440   69.2980  224.4430 C   0  0  0  0  0  0  0  0  0  0  0  0
  139.9120   69.8120  225.6330 C   0  0  0  0  0  0  0  0  0  0  0  0
  139.9220   69.0070  226.7540 C   0  0  0  0  0  0  0  0  0  0  0  0
  140.3840   69.4860  227.9720 C   0  0  0  0  0  0  0  0  0  0  0  0
  140.3690   68.6530  229.0330 F   0  0  0  0  0  0  0  0  0  0  0  0
  140.8340   70.7880  228.0250 C   0  0  0  0  0  0  0  0  0  0  0  0
  140.8260   71.6010  226.8950 C   0  0  0  0  0  0  0  0  0  0  0  0
  140.3620   71.1160  225.6840 C   0  0  0  0  0  0  0  0  0  0  0  0
  140.3430   71.8800  224.5750 N   0  0  0  0  0  0  0  0  0  0  0  0
  139.5440   74.0420  223.2850 H   0  0  0  0  0  0  0  0  0  0  0  0
  140.2820   74.0048  220.3501 H   0  0  0  0  0  0  0  0  0  0  0  0
  138.6332   74.5925  220.7672 H   0  0  0  0  0  0  0  0  0  0  0  0
  139.0603   75.9613  219.2096 H   0  0  0  0  0  0  0  0  0  0  0  0
  138.9977   77.7402  219.3704 H   0  0  0  0  0  0  0  0  0  0  0  0
  141.2822   76.1952  217.9877 H   0  0  0  0  0  0  0  0  0  0  0  0
  139.9622   76.9570  217.1063 H   0  0  0  0  0  0  0  0  0  0  0  0
  141.7999   78.5998  217.2910 H   0  0  0  0  0  0  0  0  0  0  0  0
  140.4903   79.1360  218.3993 H   0  0  0  0  0  0  0  0  0  0  0  0
  143.0737   77.7219  219.0350 H   0  0  0  0  0  0  0  0  0  0  0  0
  142.3969   79.3341  219.6329 H   0  0  0  0  0  0  0  0  0  0  0  0
  142.4950   76.9783  220.8781 H   0  0  0  0  0  0  0  0  0  0  0  0
  143.5402   78.9046  222.1141 H   0  0  0  0  0  0  0  0  0  0  0  0
  143.2277   80.4885  223.9356 H   0  0  0  0  0  0  0  0  0  0  0  0
  140.9438   81.1706  224.6422 H   0  0  0  0  0  0  0  0  0  0  0  0
  139.3078   78.5962  221.6151 H   0  0  0  0  0  0  0  0  0  0  0  0
  139.0752   69.7307  222.3826 H   0  0  0  0  0  0  0  0  0  0  0  0
  139.0803   68.2621  224.3751 H   0  0  0  0  0  0  0  0  0  0  0  0
  139.5587   67.9713  226.6811 H   0  0  0  0  0  0  0  0  0  0  0  0
  141.2063   71.1920  228.9780 H   0  0  0  0  0  0  0  0  0  0  0  0
  141.1910   72.6363  226.9647 H   0  0  0  0  0  0  0  0  0  0  0  0
  1  2  2  0
  2  3  1  0
  3  4  1  0
  4  5  1  0
  5  6  2  0
  5  7  1  0
  7  8  1  0
  8  9  1  0
  9 10  1  0
 10 11  1  0
 11 12  1  0
 12 13  1  0
 13 14  2  0
 14 15  1  0
 15 16  2  0
 16 17  1  0
 17 18  1  0
 17 19  2  0
  2 20  1  0
 20 21  2  0
 21 22  1  0
 22 23  2  0
 23 24  1  0
 24 25  2  0
 25 26  1  0
 25 27  1  0
 27 28  2  0
 28 29  1  0
 29 30  2  0
 12  7  1  0
 19 13  1  0
 30 20  1  0
 29 23  1  0
  3 31  1  0
  4 32  1  0
  4 33  1  0
  8 34  1  0
  8 35  1  0
  9 36  1  0
  9 37  1  0
 10 38  1  0
 10 39  1  0
 11 40  1  0
 11 41  1  0
 12 42  1  1
 14 43  1  0
 15 44  1  0
 16 45  1  0
 19 46  1  0
 21 47  1  0
 22 48  1  0
 24 49  1  0
 27 50  1  0
 28 51  1  0
M  END
>  <smiles>  (78) 
O=C(NCC(=O)N1CCCCC1c1cccc(F)c1)c1ccc2cc(F)ccc2n1

>  <score_type>  (78) 
oracle

>  <origin>  (78) 
autodockgpu

>  <m_score__min__energy>  (78) 
-8.7599999999999998

>  <m_primary>  (78) 
energy

>  <rmsd>  (78) 
1.57584416168044

>  <m_score__min__rmsd>  (78) 
1.57584416168044

>  <meeko>  (78) 
{"free_energy": -8.44, "intermolecular_energy": -9.93, "internal_energy": -1.7, "cluster_size": 9, "cluster_id": 3, "rank_in_cluster": 8}

>  <energy>  (78) 
-8.59

>  <cluster_rmsd>  (78) 
0.81

>  <cluster>  (78) 
1

$$$$

     RDKit          3D

 51 54  0  0  0  0  0  0  0  0999 V2000
  140.6230   71.4440  221.1080 O   0  0  0  0  0  0  0  0  0  0  0  0
  140.2200   72.0170  222.1700 C   0  0  0  0  0  0  0  0  0  0  0  0
  139.8900   73.3950  222.2000 N   0  0  0  0  0  0  0  0  0  0  0  0
  140.0190   74.1650  220.9750 C   0  0  0  0  0  0  0  0  0  0  0  0
  140.7290   75.4280  221.2500 C   0  0  0  0  0  0  0  0  0  0  0  0
  140.5790   76.0090  222.3730 O   0  0  0  0  0  0  0  0  0  0  0  0
  141.5970   76.0740  220.3300 N   0  0  0  0  0  0  0  0  0  0  0  0
  141.7920   77.4960  220.4880 C   0  0  0  0  0  0  0  0  0  0  0  0
  141.7320   78.1440  219.1050 C   0  0  0  0  0  0  0  0  0  0  0  0
  142.9380   77.5750  218.3640 C   0  0  0  0  0  0  0  0  0  0  0  0
  142.7390   76.1140  218.1330 C   0  0  0  0  0  0  0  0  0  0  0  0
  142.2410   75.3270  219.2940 C   0  0  1  0  0  0  0  0  0  0  0  0
  143.2630   74.4150  219.8620 C   0  0  0  0  0  0  0  0  0  0  0  0
  144.5000   74.8900  220.3100 C   0  0  0  0  0  0  0  0  0  0  0  0
  145.4610   74.0780  220.8380 C   0  0  0  0  0  0  0  0  0  0  0  0
  145.2500   72.7240  220.9530 C   0  0  0  0  0  0  0  0  0  0  0  0
  144.0360   72.2170  220.5190 C   0  0  0  0  0  0  0  0  0  0  0  0
  143.7900   70.8890  220.6150 F   0  0  0  0  0  0  0  0  0  0  0  0
  143.0750   73.0500  219.9880 C   0  0  0  0  0  0  0  0  0  0  0  0
  140.0990   71.2220  223.3870 C   0  0  0  0  0  0  0  0  0  0  0  0
  139.5540   69.9540  223.3590 C   0  0  0  0  0  0  0  0  0  0  0  0
  139.4220   69.1700  224.4880 C   0  0  0  0  0  0  0  0  0  0  0  0
  139.8580   69.6920  225.6870 C   0  0  0  0  0  0  0  0  0  0  0  0
  139.7400   68.9320  226.8320 C   0  0  0  0  0  0  0  0  0  0  0  0
  140.1660   69.4200  228.0590 C   0  0  0  0  0  0  0  0  0  0  0  0
  140.0240   68.6310  229.1450 F   0  0  0  0  0  0  0  0  0  0  0  0
  140.7110   70.6860  228.0970 C   0  0  0  0  0  0  0  0  0  0  0  0
  140.8330   71.4540  226.9420 C   0  0  0  0  0  0  0  0  0  0  0  0
  140.4040   70.9590  225.7210 C   0  0  0  0  0  0  0  0  0  0  0  0
  140.5090   71.6800  224.5890 N   0  0  0  0  0  0  0  0  0  0  0  0
  139.5690   73.7890  223.1050 H   0  0  0  0  0  0  0  0  0  0  0  0
  140.5860   73.5812  220.2350 H   0  0  0  0  0  0  0  0  0  0  0  0
  139.0170   74.3905  220.5811 H   0  0  0  0  0  0  0  0  0  0  0  0
  140.9999   77.9114  221.1283 H   0  0  0  0  0  0  0  0  0  0  0  0
  142.7660   77.6955  220.9586 H   0  0  0  0  0  0  0  0  0  0  0  0
  140.7975   77.8761  218.5903 H   0  0  0  0  0  0  0  0  0  0  0  0
  141.7528   79.2426  219.1565 H   0  0  0  0  0  0  0  0  0  0  0  0
  143.0485   78.0870  217.3967 H   0  0  0  0  0  0  0  0  0  0  0  0
  143.8444   77.7296  218.9677 H   0  0  0  0  0  0  0  0  0  0  0  0
  142.0137   75.9995  217.3140 H   0  0  0  0  0  0  0  0  0  0  0  0
  143.7388   75.7120  217.9120 H   0  0  0  0  0  0  0  0  0  0  0  0
  141.4437   74.7210  218.8391 H   0  0  0  0  0  0  0  0  0  0  0  0
  144.7075   75.9675  220.2331 H   0  0  0  0  0  0  0  0  0  0  0  0
  146.4144   74.5109  221.1752 H   0  0  0  0  0  0  0  0  0  0  0  0
  146.0213   72.0639  221.3765 H   0  0  0  0  0  0  0  0  0  0  0  0
  142.1230   72.6134  219.6518 H   0  0  0  0  0  0  0  0  0  0  0  0
  139.2099   69.5505  222.3953 H   0  0  0  0  0  0  0  0  0  0  0  0
  138.9836   68.1627  224.4325 H   0  0  0  0  0  0  0  0  0  0  0  0
  139.3020   67.9248  226.7715 H   0  0  0  0  0  0  0  0  0  0  0  0
  141.0557   71.0968  229.0574 H   0  0  0  0  0  0  0  0  0  0  0  0
  141.2729   72.4606  226.9993 H   0  0  0  0  0  0  0  0  0  0  0  0
  1  2  2  0
  2  3  1  0
  3  4  1  0
  4  5  1  0
  5  6  2  0
  5  7  1  0
  7  8  1  0
  8  9  1  0
  9 10  1  0
 10 11  1  0
 11 12  1  0
 12 13  1  0
 13 14  2  0
 14 15  1  0
 15 16  2  0
 16 17  1  0
 17 18  1  0
 17 19  2  0
  2 20  1  0
 20 21  2  0
 21 22  1  0
 22 23  2  0
 23 24  1  0
 24 25  2  0
 25 26  1  0
 25 27  1  0
 27 28  2  0
 28 29  1  0
 29 30  2  0
 12  7  1  0
 19 13  1  0
 30 20  1  0
 29 23  1  0
  3 31  1  0
  4 32  1  0
  4 33  1  0
  8 34  1  0
  8 35  1  0
  9 36  1  0
  9 37  1  0
 10 38  1  0
 10 39  1  0
 11 40  1  0
 11 41  1  0
 12 42  1  6
 14 43  1  0
 15 44  1  0
 16 45  1  0
 19 46  1  0
 21 47  1  0
 22 48  1  0
 24 49  1  0
 27 50  1  0
 28 51  1  0
M  END
>  <smiles>  (79) 
O=C(NCC(=O)N1CCCCC1c1cccc(F)c1)c1ccc2cc(F)ccc2n1

>  <score_type>  (79) 
oracle

>  <origin>  (79) 
autodockgpu

>  <m_score__min__energy>  (79) 
-8.7599999999999998

>  <m_primary>  (79) 
energy

>  <rmsd>  (79) 
2.187703447970126

>  <m_score__min__rmsd>  (79) 
2.187703447970126

>  <meeko>  (79) 
{"free_energy": -8.69, "intermolecular_energy": -10.18, "internal_energy": -1.99, "cluster_size": 35, "cluster_id": 1, "rank_in_cluster": 12}

>  <energy>  (79) 
-8.56

>  <cluster_rmsd>  (79) 
0.81

>  <cluster>  (79) 
1

$$$$

     RDKit          3D

 51 54  0  0  0  0  0  0  0  0999 V2000
  134.0250   69.5180  226.5070 O   0  0  0  0  0  0  0  0  0  0  0  0
  134.2490   70.6000  225.8770 C   0  0  0  0  0  0  0  0  0  0  0  0
  135.0900   70.6440  224.7380 N   0  0  0  0  0  0  0  0  0  0  0  0
  135.7080   69.4100  224.2840 C   0  0  0  0  0  0  0  0  0  0  0  0
  137.1550   69.4400  224.5680 C   0  0  0  0  0  0  0  0  0  0  0  0
  137.6660   68.5730  225.3480 O   0  0  0  0  0  0  0  0  0  0  0  0
  138.0570   70.3920  224.0230 N   0  0  0  0  0  0  0  0  0  0  0  0
  137.4940   71.6140  223.4970 C   0  0  0  0  0  0  0  0  0  0  0  0
  138.1810   71.9230  222.1670 C   0  0  0  0  0  0  0  0  0  0  0  0
  139.6360   72.1880  222.5420 C   0  0  0  0  0  0  0  0  0  0  0  0
  140.2630   70.9280  223.0350 C   0  0  0  0  0  0  0  0  0  0  0  0
  139.4620   70.1310  224.0050 C   0  0  1  0  0  0  0  0  0  0  0  0
  140.0190   70.1540  225.3790 C   0  0  0  0  0  0  0  0  0  0  0  0
  140.2610   68.9750  226.0910 C   0  0  0  0  0  0  0  0  0  0  0  0
  140.7730   68.9620  227.3560 C   0  0  0  0  0  0  0  0  0  0  0  0
  141.0800   70.1370  228.0010 C   0  0  0  0  0  0  0  0  0  0  0  0
  140.8540   71.3260  227.3270 C   0  0  0  0  0  0  0  0  0  0  0  0
  141.1430   72.5040  227.9280 F   0  0  0  0  0  0  0  0  0  0  0  0
  140.3360   71.3220  226.0500 C   0  0  0  0  0  0  0  0  0  0  0  0
  133.6170   71.8260  226.3520 C   0  0  0  0  0  0  0  0  0  0  0  0
  132.4490   71.7870  227.0870 C   0  0  0  0  0  0  0  0  0  0  0  0
  131.8200   72.9230  227.5550 C   0  0  0  0  0  0  0  0  0  0  0  0
  132.3960   74.1410  227.2660 C   0  0  0  0  0  0  0  0  0  0  0  0
  131.7910   75.2950  227.7200 C   0  0  0  0  0  0  0  0  0  0  0  0
  132.3390   76.5420  227.4510 C   0  0  0  0  0  0  0  0  0  0  0  0
  131.7020   77.6340  227.9210 F   0  0  0  0  0  0  0  0  0  0  0  0
  133.5050   76.5900  226.7170 C   0  0  0  0  0  0  0  0  0  0  0  0
  134.1190   75.4270  226.2590 C   0  0  0  0  0  0  0  0  0  0  0  0
  133.5640   74.1870  226.5320 C   0  0  0  0  0  0  0  0  0  0  0  0
  134.1360   73.0460  226.1010 N   0  0  0  0  0  0  0  0  0  0  0  0
  135.2240   71.5650  224.2780 H   0  0  0  0  0  0  0  0  0  0  0  0
  135.2507   68.5583  224.8089 H   0  0  0  0  0  0  0  0  0  0  0  0
  135.5535   69.3047  223.2000 H   0  0  0  0  0  0  0  0  0  0  0  0
  136.4131   71.4873  223.3371 H   0  0  0  0  0  0  0  0  0  0  0  0
  137.6502   72.4402  224.2062 H   0  0  0  0  0  0  0  0  0  0  0  0
  138.1059   71.0656  221.4820 H   0  0  0  0  0  0  0  0  0  0  0  0
  137.7209   72.7758  221.6464 H   0  0  0  0  0  0  0  0  0  0  0  0
  140.1825   72.5471  221.6575 H   0  0  0  0  0  0  0  0  0  0  0  0
  139.6761   72.9502  223.3341 H   0  0  0  0  0  0  0  0  0  0  0  0
  140.4650   70.2898  222.1622 H   0  0  0  0  0  0  0  0  0  0  0  0
  141.1629   71.2422  223.5841 H   0  0  0  0  0  0  0  0  0  0  0  0
  139.5588   69.1110  223.6046 H   0  0  0  0  0  0  0  0  0  0  0  0
  140.0280   68.0139  225.6093 H   0  0  0  0  0  0  0  0  0  0  0  0
  140.9418   68.0016  227.8650 H   0  0  0  0  0  0  0  0  0  0  0  0
  141.4924   70.1329  229.0208 H   0  0  0  0  0  0  0  0  0  0  0  0
  140.1680   72.2844  225.5445 H   0  0  0  0  0  0  0  0  0  0  0  0
  132.0000   70.8077  227.3094 H   0  0  0  0  0  0  0  0  0  0  0  0
  130.8901   72.8582  228.1391 H   0  0  0  0  0  0  0  0  0  0  0  0
  130.8611   75.2260  228.3035 H   0  0  0  0  0  0  0  0  0  0  0  0
  133.9590   77.5656  226.4887 H   0  0  0  0  0  0  0  0  0  0  0  0
  135.0501   75.4931  225.6771 H   0  0  0  0  0  0  0  0  0  0  0  0
  1  2  2  0
  2  3  1  0
  3  4  1  0
  4  5  1  0
  5  6  2  0
  5  7  1  0
  7  8  1  0
  8  9  1  0
  9 10  1  0
 10 11  1  0
 11 12  1  0
 12 13  1  0
 13 14  2  0
 14 15  1  0
 15 16  2  0
 16 17  1  0
 17 18  1  0
 17 19  2  0
  2 20  1  0
 20 21  2  0
 21 22  1  0
 22 23  2  0
 23 24  1  0
 24 25  2  0
 25 26  1  0
 25 27  1  0
 27 28  2  0
 28 29  1  0
 29 30  2  0
 12  7  1  0
 19 13  1  0
 30 20  1  0
 29 23  1  0
  3 31  1  0
  4 32  1  0
  4 33  1  0
  8 34  1  0
  8 35  1  0
  9 36  1  0
  9 37  1  0
 10 38  1  0
 10 39  1  0
 11 40  1  0
 11 41  1  0
 12 42  1  6
 14 43  1  0
 15 44  1  0
 16 45  1  0
 19 46  1  0
 21 47  1  0
 22 48  1  0
 24 49  1  0
 27 50  1  0
 28 51  1  0
M  END
>  <smiles>  (80) 
O=C(NCC(=O)N1CCCCC1c1cccc(F)c1)c1ccc2cc(F)ccc2n1

>  <score_type>  (80) 
oracle

>  <origin>  (80) 
autodockgpu

>  <m_score__min__energy>  (80) 
-8.7599999999999998

>  <m_primary>  (80) 
energy

>  <rmsd>  (80) 
8.030402861530794

>  <m_score__min__rmsd>  (80) 
8.030402861530794

>  <meeko>  (80) 
{"free_energy": -8.39, "intermolecular_energy": -9.88, "internal_energy": -1.4, "cluster_size": 2, "cluster_id": 2, "rank_in_cluster": 2}

>  <energy>  (80) 
-8.52

>  <cluster_rmsd>  (80) 
0.86

>  <cluster>  (80) 
1

$$$$

     RDKit          3D

 51 54  0  0  0  0  0  0  0  0999 V2000
  140.0030   71.7230  221.0680 O   0  0  0  0  0  0  0  0  0  0  0  0
  139.8660   72.2730  222.2070 C   0  0  0  0  0  0  0  0  0  0  0  0
  139.6770   73.6700  222.3480 N   0  0  0  0  0  0  0  0  0  0  0  0
  139.6400   74.4890  221.1480 C   0  0  0  0  0  0  0  0  0  0  0  0
  140.2260   75.8130  221.4270 C   0  0  0  0  0  0  0  0  0  0  0  0
  140.4890   76.1510  222.6260 O   0  0  0  0  0  0  0  0  0  0  0  0
  140.5330   76.7770  220.4300 N   0  0  0  0  0  0  0  0  0  0  0  0
  139.6570   76.8460  219.2830 C   0  0  0  0  0  0  0  0  0  0  0  0
  140.5210   76.9740  218.0280 C   0  0  0  0  0  0  0  0  0  0  0  0
  141.2190   78.3220  218.1810 C   0  0  0  0  0  0  0  0  0  0  0  0
  142.1760   78.2630  219.3240 C   0  0  0  0  0  0  0  0  0  0  0  0
  141.6690   77.6330  220.5740 C   0  0  1  0  0  0  0  0  0  0  0  0
  141.4580   78.6050  221.6730 C   0  0  0  0  0  0  0  0  0  0  0  0
  140.1750   79.0180  222.0490 C   0  0  0  0  0  0  0  0  0  0  0  0
  139.9470   79.9110  223.0560 C   0  0  0  0  0  0  0  0  0  0  0  0
  140.9930   80.4570  223.7600 C   0  0  0  0  0  0  0  0  0  0  0  0
  142.2790   80.0720  223.4160 C   0  0  0  0  0  0  0  0  0  0  0  0
  143.3360   80.5870  224.0860 F   0  0  0  0  0  0  0  0  0  0  0  0
  142.4930   79.1690  222.3970 C   0  0  0  0  0  0  0  0  0  0  0  0
  139.9060   71.4290  223.3960 C   0  0  0  0  0  0  0  0  0  0  0  0
  139.4670   70.1220  223.3580 C   0  0  0  0  0  0  0  0  0  0  0  0
  139.4890   69.2910  224.4600 C   0  0  0  0  0  0  0  0  0  0  0  0
  139.9740   69.8060  225.6430 C   0  0  0  0  0  0  0  0  0  0  0  0
  140.0090   69.0000  226.7620 C   0  0  0  0  0  0  0  0  0  0  0  0
  140.4890   69.4810  227.9730 C   0  0  0  0  0  0  0  0  0  0  0  0
  140.4980   68.6460  229.0330 F   0  0  0  0  0  0  0  0  0  0  0  0
  140.9300   70.7870  228.0200 C   0  0  0  0  0  0  0  0  0  0  0  0
  140.8970   71.6010  226.8920 C   0  0  0  0  0  0  0  0  0  0  0  0
  140.4150   71.1140  225.6880 C   0  0  0  0  0  0  0  0  0  0  0  0
  140.3710   71.8790  224.5810 N   0  0  0  0  0  0  0  0  0  0  0  0
  139.5720   74.0430  223.3110 H   0  0  0  0  0  0  0  0  0  0  0  0
  140.2161   73.9955  220.3514 H   0  0  0  0  0  0  0  0  0  0  0  0
  138.5954   74.6151  220.8271 H   0  0  0  0  0  0  0  0  0  0  0  0
  139.0482   75.9318  219.2241 H   0  0  0  0  0  0  0  0  0  0  0  0
  138.9842   77.7119  219.3707 H   0  0  0  0  0  0  0  0  0  0  0  0
  141.2573   76.1583  217.9779 H   0  0  0  0  0  0  0  0  0  0  0  0
  139.9279   76.9125  217.1036 H   0  0  0  0  0  0  0  0  0  0  0  0
  141.7668   78.5576  217.2567 H   0  0  0  0  0  0  0  0  0  0  0  0
  140.4681   79.1025  218.3731 H   0  0  0  0  0  0  0  0  0  0  0  0
  143.0574   77.6932  218.9946 H   0  0  0  0  0  0  0  0  0  0  0  0
  142.3859   79.3104  219.5865 H   0  0  0  0  0  0  0  0  0  0  0  0
  142.4983   76.9653  220.8506 H   0  0  0  0  0  0  0  0  0  0  0  0
  139.3109   78.6043  221.5086 H   0  0  0  0  0  0  0  0  0  0  0  0
  138.9147   80.1966  223.3065 H   0  0  0  0  0  0  0  0  0  0  0  0
  140.8151   81.1776  224.5718 H   0  0  0  0  0  0  0  0  0  0  0  0
  143.5268   78.8858  222.1499 H   0  0  0  0  0  0  0  0  0  0  0  0
  139.0823   69.7242  222.4073 H   0  0  0  0  0  0  0  0  0  0  0  0
  139.1315   68.2527  224.3962 H   0  0  0  0  0  0  0  0  0  0  0  0
  139.6517   67.9619  226.6940 H   0  0  0  0  0  0  0  0  0  0  0  0
  141.3151   71.1928  228.9672 H   0  0  0  0  0  0  0  0  0  0  0  0
  141.2562   72.6387  226.9567 H   0  0  0  0  0  0  0  0  0  0  0  0
  1  2  2  0
  2  3  1  0
  3  4  1  0
  4  5  1  0
  5  6  2  0
  5  7  1  0
  7  8  1  0
  8  9  1  0
  9 10  1  0
 10 11  1  0
 11 12  1  0
 12 13  1  0
 13 14  2  0
 14 15  1  0
 15 16  2  0
 16 17  1  0
 17 18  1  0
 17 19  2  0
  2 20  1  0
 20 21  2  0
 21 22  1  0
 22 23  2  0
 23 24  1  0
 24 25  2  0
 25 26  1  0
 25 27  1  0
 27 28  2  0
 28 29  1  0
 29 30  2  0
 12  7  1  0
 19 13  1  0
 30 20  1  0
 29 23  1  0
  3 31  1  0
  4 32  1  0
  4 33  1  0
  8 34  1  0
  8 35  1  0
  9 36  1  0
  9 37  1  0
 10 38  1  0
 10 39  1  0
 11 40  1  0
 11 41  1  0
 12 42  1  1
 14 43  1  0
 15 44  1  0
 16 45  1  0
 19 46  1  0
 21 47  1  0
 22 48  1  0
 24 49  1  0
 27 50  1  0
 28 51  1  0
M  END
>  <smiles>  (81) 
O=C(NCC(=O)N1CCCCC1c1cccc(F)c1)c1ccc2cc(F)ccc2n1

>  <score_type>  (81) 
oracle

>  <origin>  (81) 
autodockgpu

>  <m_score__min__energy>  (81) 
-8.7599999999999998

>  <m_primary>  (81) 
energy

>  <rmsd>  (81) 
1.5580783353054186

>  <m_score__min__rmsd>  (81) 
1.5580783353054186

>  <meeko>  (81) 
{"free_energy": -8.46, "intermolecular_energy": -9.95, "internal_energy": -1.71, "cluster_size": 9, "cluster_id": 3, "rank_in_cluster": 5}

>  <energy>  (81) 
-8.33

>  <cluster_rmsd>  (81) 
1.97

>  <cluster>  (81) 
1

$$$$

     RDKit          3D

 51 54  0  0  0  0  0  0  0  0999 V2000
  140.5890   71.6150  221.1280 O   0  0  0  0  0  0  0  0  0  0  0  0
  140.2060   72.1600  222.2120 C   0  0  0  0  0  0  0  0  0  0  0  0
  139.8580   73.5320  222.2790 N   0  0  0  0  0  0  0  0  0  0  0  0
  139.9450   74.3300  221.0680 C   0  0  0  0  0  0  0  0  0  0  0  0
  140.7620   75.5310  221.3160 C   0  0  0  0  0  0  0  0  0  0  0  0
  140.7240   76.1010  222.4540 O   0  0  0  0  0  0  0  0  0  0  0  0
  141.6200   76.1270  220.3530 N   0  0  0  0  0  0  0  0  0  0  0  0
  141.8430   77.5510  220.4550 C   0  0  0  0  0  0  0  0  0  0  0  0
  141.7630   78.1490  219.0500 C   0  0  0  0  0  0  0  0  0  0  0  0
  142.9410   77.5310  218.3050 C   0  0  0  0  0  0  0  0  0  0  0  0
  142.7130   76.0670  218.1320 C   0  0  0  0  0  0  0  0  0  0  0  0
  142.2280   75.3320  219.3330 C   0  0  1  0  0  0  0  0  0  0  0  0
  143.2470   74.4230  219.9110 C   0  0  0  0  0  0  0  0  0  0  0  0
  144.5070   74.8890  220.3000 C   0  0  0  0  0  0  0  0  0  0  0  0
  145.4660   74.0800  220.8350 C   0  0  0  0  0  0  0  0  0  0  0  0
  145.2300   72.7380  221.0190 C   0  0  0  0  0  0  0  0  0  0  0  0
  143.9930   72.2400  220.6450 C   0  0  0  0  0  0  0  0  0  0  0  0
  143.7210   70.9240  220.8090 F   0  0  0  0  0  0  0  0  0  0  0  0
  143.0340   73.0700  220.1050 C   0  0  0  0  0  0  0  0  0  0  0  0
  140.1260   71.3380  223.4140 C   0  0  0  0  0  0  0  0  0  0  0  0
  139.5660   70.0780  223.3810 C   0  0  0  0  0  0  0  0  0  0  0  0
  139.4730   69.2690  224.4960 C   0  0  0  0  0  0  0  0  0  0  0  0
  139.9650   69.7580  225.6860 C   0  0  0  0  0  0  0  0  0  0  0  0
  139.8860   68.9730  226.8180 C   0  0  0  0  0  0  0  0  0  0  0  0
  140.3700   69.4280  228.0370 C   0  0  0  0  0  0  0  0  0  0  0  0
  140.2650   68.6160  229.1090 F   0  0  0  0  0  0  0  0  0  0  0  0
  140.9320   70.6870  228.0800 C   0  0  0  0  0  0  0  0  0  0  0  0
  141.0130   71.4800  226.9390 C   0  0  0  0  0  0  0  0  0  0  0  0
  140.5270   71.0180  225.7270 C   0  0  0  0  0  0  0  0  0  0  0  0
  140.5930   71.7640  224.6070 N   0  0  0  0  0  0  0  0  0  0  0  0
  139.5550   73.9030  223.2000 H   0  0  0  0  0  0  0  0  0  0  0  0
  140.4088   73.7319  220.2697 H   0  0  0  0  0  0  0  0  0  0  0  0
  138.9336   74.6368  220.7632 H   0  0  0  0  0  0  0  0  0  0  0  0
  141.0726   78.0035  221.0967 H   0  0  0  0  0  0  0  0  0  0  0  0
  142.8304   77.7502  220.8971 H   0  0  0  0  0  0  0  0  0  0  0  0
  140.8125   77.8797  218.5663 H   0  0  0  0  0  0  0  0  0  0  0  0
  141.8044   79.2482  219.0600 H   0  0  0  0  0  0  0  0  0  0  0  0
  143.0386   78.0053  217.3173 H   0  0  0  0  0  0  0  0  0  0  0  0
  143.8628   77.6907  218.8836 H   0  0  0  0  0  0  0  0  0  0  0  0
  141.9676   75.9352  217.3338 H   0  0  0  0  0  0  0  0  0  0  0  0
  143.7005   75.6397  217.9035 H   0  0  0  0  0  0  0  0  0  0  0  0
  141.4101   74.7238  218.9193 H   0  0  0  0  0  0  0  0  0  0  0  0
  144.7351   75.9570  220.1684 H   0  0  0  0  0  0  0  0  0  0  0  0
  146.4387   74.5058  221.1224 H   0  0  0  0  0  0  0  0  0  0  0  0
  145.9995   72.0805  221.4497 H   0  0  0  0  0  0  0  0  0  0  0  0
  142.0630   72.6404  219.8176 H   0  0  0  0  0  0  0  0  0  0  0  0
  139.1762   69.7009  222.4240 H   0  0  0  0  0  0  0  0  0  0  0  0
  139.0213   68.2678  224.4360 H   0  0  0  0  0  0  0  0  0  0  0  0
  139.4332   67.9726  226.7536 H   0  0  0  0  0  0  0  0  0  0  0  0
  141.3233   71.0713  229.0335 H   0  0  0  0  0  0  0  0  0  0  0  0
  141.4661   72.4805  227.0002 H   0  0  0  0  0  0  0  0  0  0  0  0
  1  2  2  0
  2  3  1  0
  3  4  1  0
  4  5  1  0
  5  6  2  0
  5  7  1  0
  7  8  1  0
  8  9  1  0
  9 10  1  0
 10 11  1  0
 11 12  1  0
 12 13  1  0
 13 14  2  0
 14 15  1  0
 15 16  2  0
 16 17  1  0
 17 18  1  0
 17 19  2  0
  2 20  1  0
 20 21  2  0
 21 22  1  0
 22 23  2  0
 23 24  1  0
 24 25  2  0
 25 26  1  0
 25 27  1  0
 27 28  2  0
 28 29  1  0
 29 30  2  0
 12  7  1  0
 19 13  1  0
 30 20  1  0
 29 23  1  0
  3 31  1  0
  4 32  1  0
  4 33  1  0
  8 34  1  0
  8 35  1  0
  9 36  1  0
  9 37  1  0
 10 38  1  0
 10 39  1  0
 11 40  1  0
 11 41  1  0
 12 42  1  6
 14 43  1  0
 15 44  1  0
 16 45  1  0
 19 46  1  0
 21 47  1  0
 22 48  1  0
 24 49  1  0
 27 50  1  0
 28 51  1  0
M  END
>  <smiles>  (82) 
O=C(NCC(=O)N1CCCCC1c1cccc(F)c1)c1ccc2cc(F)ccc2n1

>  <score_type>  (82) 
oracle

>  <origin>  (82) 
autodockgpu

>  <m_score__min__energy>  (82) 
-8.7599999999999998

>  <m_primary>  (82) 
energy

>  <rmsd>  (82) 
2.202937315900452

>  <m_score__min__rmsd>  (82) 
2.202937315900452

>  <meeko>  (82) 
{"free_energy": -8.69, "intermolecular_energy": -10.18, "internal_energy": -1.99, "cluster_size": 35, "cluster_id": 1, "rank_in_cluster": 11}

>  <energy>  (82) 
-8.31

>  <cluster_rmsd>  (82) 
0.47

>  <cluster>  (82) 
1

$$$$

     RDKit          3D

 51 54  0  0  0  0  0  0  0  0999 V2000
  141.2660   72.0560  221.2910 O   0  0  0  0  0  0  0  0  0  0  0  0
  140.3890   72.3890  222.1500 C   0  0  0  0  0  0  0  0  0  0  0  0
  139.5760   73.5380  221.9860 N   0  0  0  0  0  0  0  0  0  0  0  0
  139.7590   74.3530  220.7970 C   0  0  0  0  0  0  0  0  0  0  0  0
  141.0420   75.0740  220.8770 C   0  0  0  0  0  0  0  0  0  0  0  0
  141.5890   75.2740  222.0090 O   0  0  0  0  0  0  0  0  0  0  0  0
  141.7440   75.5830  219.7510 N   0  0  0  0  0  0  0  0  0  0  0  0
  141.7890   77.0180  219.5920 C   0  0  0  0  0  0  0  0  0  0  0  0
  141.5290   77.3440  218.1210 C   0  0  0  0  0  0  0  0  0  0  0  0
  142.7200   76.7420  217.3810 C   0  0  0  0  0  0  0  0  0  0  0  0
  142.6690   75.2540  217.4780 C   0  0  0  0  0  0  0  0  0  0  0  0
  142.3720   74.6940  218.8250 C   0  0  1  0  0  0  0  0  0  0  0  0
  143.5380   74.0240  219.4480 C   0  0  0  0  0  0  0  0  0  0  0  0
  144.4300   74.7210  220.2700 C   0  0  0  0  0  0  0  0  0  0  0  0
  145.5130   74.1340  220.8590 C   0  0  0  0  0  0  0  0  0  0  0  0
  145.7810   72.8000  220.6630 C   0  0  0  0  0  0  0  0  0  0  0  0
  144.9190   72.0770  219.8550 C   0  0  0  0  0  0  0  0  0  0  0  0
  145.1490   70.7610  219.6380 F   0  0  0  0  0  0  0  0  0  0  0  0
  143.8300   72.6830  219.2670 C   0  0  0  0  0  0  0  0  0  0  0  0
  140.2240   71.5540  223.3350 C   0  0  0  0  0  0  0  0  0  0  0  0
  139.5610   70.3450  223.2690 C   0  0  0  0  0  0  0  0  0  0  0  0
  139.3840   69.5270  224.3660 C   0  0  0  0  0  0  0  0  0  0  0  0
  139.8980   69.9510  225.5730 C   0  0  0  0  0  0  0  0  0  0  0  0
  139.7380   69.1540  226.6880 C   0  0  0  0  0  0  0  0  0  0  0  0
  140.2400   69.5450  227.9220 C   0  0  0  0  0  0  0  0  0  0  0  0
  140.0510   68.7240  228.9760 F   0  0  0  0  0  0  0  0  0  0  0  0
  140.9030   70.7510  227.9970 C   0  0  0  0  0  0  0  0  0  0  0  0
  141.0670   71.5560  226.8730 C   0  0  0  0  0  0  0  0  0  0  0  0
  140.5620   71.1590  225.6460 C   0  0  0  0  0  0  0  0  0  0  0  0
  140.7060   71.9170  224.5420 N   0  0  0  0  0  0  0  0  0  0  0  0
  138.8820   73.7420  222.7310 H   0  0  0  0  0  0  0  0  0  0  0  0
  139.7589   73.7059  219.9074 H   0  0  0  0  0  0  0  0  0  0  0  0
  138.9376   75.0812  220.7265 H   0  0  0  0  0  0  0  0  0  0  0  0
  141.0165   77.4866  220.2194 H   0  0  0  0  0  0  0  0  0  0  0  0
  142.7725   77.4036  219.8986 H   0  0  0  0  0  0  0  0  0  0  0  0
  140.5882   76.8861  217.7815 H   0  0  0  0  0  0  0  0  0  0  0  0
  141.4284   78.4249  217.9432 H   0  0  0  0  0  0  0  0  0  0  0  0
  142.6832   77.0414  216.3232 H   0  0  0  0  0  0  0  0  0  0  0  0
  143.6538   77.1060  217.8343 H   0  0  0  0  0  0  0  0  0  0  0  0
  141.8899   74.8990  216.7874 H   0  0  0  0  0  0  0  0  0  0  0  0
  143.6836   74.9075  217.2318 H   0  0  0  0  0  0  0  0  0  0  0  0
  141.6106   73.9334  218.5973 H   0  0  0  0  0  0  0  0  0  0  0  0
  144.2506   75.7912  220.4501 H   0  0  0  0  0  0  0  0  0  0  0  0
  146.1779   74.7348  221.4969 H   0  0  0  0  0  0  0  0  0  0  0  0
  146.6528   72.3216  221.1332 H   0  0  0  0  0  0  0  0  0  0  0  0
  143.1678   72.0784  218.6298 H   0  0  0  0  0  0  0  0  0  0  0  0
  139.1561   70.0195  222.2994 H   0  0  0  0  0  0  0  0  0  0  0  0
  138.8507   68.5687  224.2804 H   0  0  0  0  0  0  0  0  0  0  0  0
  139.2054   68.1957  226.5980 H   0  0  0  0  0  0  0  0  0  0  0  0
  141.3102   71.0838  228.9631 H   0  0  0  0  0  0  0  0  0  0  0  0
  141.6012   72.5136  226.9600 H   0  0  0  0  0  0  0  0  0  0  0  0
  1  2  2  0
  2  3  1  0
  3  4  1  0
  4  5  1  0
  5  6  2  0
  5  7  1  0
  7  8  1  0
  8  9  1  0
  9 10  1  0
 10 11  1  0
 11 12  1  0
 12 13  1  0
 13 14  2  0
 14 15  1  0
 15 16  2  0
 16 17  1  0
 17 18  1  0
 17 19  2  0
  2 20  1  0
 20 21  2  0
 21 22  1  0
 22 23  2  0
 23 24  1  0
 24 25  2  0
 25 26  1  0
 25 27  1  0
 27 28  2  0
 28 29  1  0
 29 30  2  0
 12  7  1  0
 19 13  1  0
 30 20  1  0
 29 23  1  0
  3 31  1  0
  4 32  1  0
  4 33  1  0
  8 34  1  0
  8 35  1  0
  9 36  1  0
  9 37  1  0
 10 38  1  0
 10 39  1  0
 11 40  1  0
 11 41  1  0
 12 42  1  6
 14 43  1  0
 15 44  1  0
 16 45  1  0
 19 46  1  0
 21 47  1  0
 22 48  1  0
 24 49  1  0
 27 50  1  0
 28 51  1  0
M  END
>  <smiles>  (83) 
O=C(NCC(=O)N1CCCCC1c1cccc(F)c1)c1ccc2cc(F)ccc2n1

>  <score_type>  (83) 
oracle

>  <origin>  (83) 
autodockgpu

>  <m_score__min__energy>  (83) 
-8.7599999999999998

>  <m_primary>  (83) 
energy

>  <rmsd>  (83) 
2.1706869479542674

>  <m_score__min__rmsd>  (83) 
2.1706869479542674

>  <meeko>  (83) 
{"free_energy": -8.31, "intermolecular_energy": -9.81, "internal_energy": -1.74, "cluster_size": 35, "cluster_id": 1, "rank_in_cluster": 32}

>  <energy>  (83) 
-8.07

>  <cluster_rmsd>  (83) 
0.69

>  <cluster>  (83) 
1

$$$$

     RDKit          3D

 51 54  0  0  0  0  0  0  0  0999 V2000
  140.7140   71.6780  221.1300 O   0  0  0  0  0  0  0  0  0  0  0  0
  140.2400   72.2100  222.1840 C   0  0  0  0  0  0  0  0  0  0  0  0
  139.8160   73.5620  222.2160 N   0  0  0  0  0  0  0  0  0  0  0  0
  139.9320   74.3540  221.0040 C   0  0  0  0  0  0  0  0  0  0  0  0
  140.7830   75.5310  221.2530 C   0  0  0  0  0  0  0  0  0  0  0  0
  140.7830   76.0830  222.4010 O   0  0  0  0  0  0  0  0  0  0  0  0
  141.6350   76.1220  220.2820 N   0  0  0  0  0  0  0  0  0  0  0  0
  141.9500   77.5230  220.4410 C   0  0  0  0  0  0  0  0  0  0  0  0
  141.8470   78.1950  219.0710 C   0  0  0  0  0  0  0  0  0  0  0  0
  142.9520   77.5460  218.2440 C   0  0  0  0  0  0  0  0  0  0  0  0
  142.6250   76.1080  218.0130 C   0  0  0  0  0  0  0  0  0  0  0  0
  142.1470   75.3440  219.1980 C   0  0  1  0  0  0  0  0  0  0  0  0
  143.1310   74.3480  219.6850 C   0  0  0  0  0  0  0  0  0  0  0  0
  142.9070   72.9730  219.5550 C   0  0  0  0  0  0  0  0  0  0  0  0
  143.7910   72.0310  219.9920 C   0  0  0  0  0  0  0  0  0  0  0  0
  144.9700   72.4010  220.5950 C   0  0  0  0  0  0  0  0  0  0  0  0
  145.2280   73.7550  220.7410 C   0  0  0  0  0  0  0  0  0  0  0  0
  146.3770   74.1600  221.3280 F   0  0  0  0  0  0  0  0  0  0  0  0
  144.3240   74.6940  220.2940 C   0  0  0  0  0  0  0  0  0  0  0  0
  140.1340   71.3940  223.3880 C   0  0  0  0  0  0  0  0  0  0  0  0
  139.5890   70.1270  223.3450 C   0  0  0  0  0  0  0  0  0  0  0  0
  139.4720   69.3230  224.4620 C   0  0  0  0  0  0  0  0  0  0  0  0
  139.9220   69.8240  225.6640 C   0  0  0  0  0  0  0  0  0  0  0  0
  139.8180   69.0450  226.7980 C   0  0  0  0  0  0  0  0  0  0  0  0
  140.2600   69.5120  228.0280 C   0  0  0  0  0  0  0  0  0  0  0  0
  140.1310   68.7050  229.1010 F   0  0  0  0  0  0  0  0  0  0  0  0
  140.8050   70.7780  228.0800 C   0  0  0  0  0  0  0  0  0  0  0  0
  140.9120   71.5650  226.9380 C   0  0  0  0  0  0  0  0  0  0  0  0
  140.4680   71.0910  225.7140 C   0  0  0  0  0  0  0  0  0  0  0  0
  140.5590   71.8310  224.5920 N   0  0  0  0  0  0  0  0  0  0  0  0
  139.4400   73.9220  223.1140 H   0  0  0  0  0  0  0  0  0  0  0  0
  140.3815   73.7406  220.2092 H   0  0  0  0  0  0  0  0  0  0  0  0
  138.9315   74.6898  220.6939 H   0  0  0  0  0  0  0  0  0  0  0  0
  141.2375   77.9880  221.1382 H   0  0  0  0  0  0  0  0  0  0  0  0
  142.9660   77.6402  220.8460 H   0  0  0  0  0  0  0  0  0  0  0  0
  140.8618   78.0076  218.6190 H   0  0  0  0  0  0  0  0  0  0  0  0
  141.9565   79.2879  219.1316 H   0  0  0  0  0  0  0  0  0  0  0  0
  143.0365   78.0623  217.2764 H   0  0  0  0  0  0  0  0  0  0  0  0
  143.9063   77.6214  218.7859 H   0  0  0  0  0  0  0  0  0  0  0  0
  141.8392   76.0618  217.2446 H   0  0  0  0  0  0  0  0  0  0  0  0
  143.5733   75.6339  217.7200 H   0  0  0  0  0  0  0  0  0  0  0  0
  141.2759   74.8079  218.7934 H   0  0  0  0  0  0  0  0  0  0  0  0
  141.9747   72.6362  219.0782 H   0  0  0  0  0  0  0  0  0  0  0  0
  143.5584   70.9639  219.8607 H   0  0  0  0  0  0  0  0  0  0  0  0
  145.6864   71.6458  220.9506 H   0  0  0  0  0  0  0  0  0  0  0  0
  144.5601   75.7601  220.4266 H   0  0  0  0  0  0  0  0  0  0  0  0
  139.2322   69.7404  222.3790 H   0  0  0  0  0  0  0  0  0  0  0  0
  139.0341   68.3162  224.3942 H   0  0  0  0  0  0  0  0  0  0  0  0
  139.3784   68.0392  226.7262 H   0  0  0  0  0  0  0  0  0  0  0  0
  141.1618   71.1728  229.0427 H   0  0  0  0  0  0  0  0  0  0  0  0
  141.3522   72.5707  227.0071 H   0  0  0  0  0  0  0  0  0  0  0  0
  1  2  2  0
  2  3  1  0
  3  4  1  0
  4  5  1  0
  5  6  2  0
  5  7  1  0
  7  8  1  0
  8  9  1  0
  9 10  1  0
 10 11  1  0
 11 12  1  0
 12 13  1  0
 13 14  2  0
 14 15  1  0
 15 16  2  0
 16 17  1  0
 17 18  1  0
 17 19  2  0
  2 20  1  0
 20 21  2  0
 21 22  1  0
 22 23  2  0
 23 24  1  0
 24 25  2  0
 25 26  1  0
 25 27  1  0
 27 28  2  0
 28 29  1  0
 29 30  2  0
 12  7  1  0
 19 13  1  0
 30 20  1  0
 29 23  1  0
  3 31  1  0
  4 32  1  0
  4 33  1  0
  8 34  1  0
  8 35  1  0
  9 36  1  0
  9 37  1  0
 10 38  1  0
 10 39  1  0
 11 40  1  0
 11 41  1  0
 12 42  1  6
 14 43  1  0
 15 44  1  0
 16 45  1  0
 19 46  1  0
 21 47  1  0
 22 48  1  0
 24 49  1  0
 27 50  1  0
 28 51  1  0
M  END
>  <smiles>  (84) 
O=C(NCC(=O)N1CCCCC1c1cccc(F)c1)c1ccc2cc(F)ccc2n1

>  <score_type>  (84) 
oracle

>  <origin>  (84) 
autodockgpu

>  <m_score__min__energy>  (84) 
-8.7599999999999998

>  <m_primary>  (84) 
energy

>  <rmsd>  (84) 
2.221166132179314

>  <m_score__min__rmsd>  (84) 
2.221166132179314

>  <meeko>  (84) 
{"free_energy": -8.59, "intermolecular_energy": -10.08, "internal_energy": -1.94, "cluster_size": 35, "cluster_id": 1, "rank_in_cluster": 28}

>  <energy>  (84) 
-8.01

>  <cluster_rmsd>  (84) 
0.89

>  <cluster>  (84) 
1

$$$$

     RDKit          3D

 51 54  0  0  0  0  0  0  0  0999 V2000
  139.5130   71.1430  220.9620 O   0  0  0  0  0  0  0  0  0  0  0  0
  140.0080   71.6820  222.0020 C   0  0  0  0  0  0  0  0  0  0  0  0
  140.6210   72.9590  221.9660 N   0  0  0  0  0  0  0  0  0  0  0  0
  140.6790   73.6650  220.6980 C   0  0  0  0  0  0  0  0  0  0  0  0
  141.4380   74.9190  220.8560 C   0  0  0  0  0  0  0  0  0  0  0  0
  141.4440   75.5200  221.9790 O   0  0  0  0  0  0  0  0  0  0  0  0
  142.1910   75.5340  219.8210 N   0  0  0  0  0  0  0  0  0  0  0  0
  142.2250   76.9780  219.7930 C   0  0  0  0  0  0  0  0  0  0  0  0
  142.0390   77.4320  218.3450 C   0  0  0  0  0  0  0  0  0  0  0  0
  143.2750   76.9100  217.6200 C   0  0  0  0  0  0  0  0  0  0  0  0
  143.2400   75.4190  217.5810 C   0  0  0  0  0  0  0  0  0  0  0  0
  142.8800   74.7370  218.8540 C   0  0  1  0  0  0  0  0  0  0  0  0
  144.0210   74.0250  219.4770 C   0  0  0  0  0  0  0  0  0  0  0  0
  144.7940   74.6170  220.4810 C   0  0  0  0  0  0  0  0  0  0  0  0
  145.8500   73.9890  221.0750 C   0  0  0  0  0  0  0  0  0  0  0  0
  146.2090   72.7150  220.7010 C   0  0  0  0  0  0  0  0  0  0  0  0
  145.4660   72.0960  219.7090 C   0  0  0  0  0  0  0  0  0  0  0  0
  145.7880   70.8420  219.3130 F   0  0  0  0  0  0  0  0  0  0  0  0
  144.4030   72.7440  219.1190 C   0  0  0  0  0  0  0  0  0  0  0  0
  139.9370   70.9530  223.2640 C   0  0  0  0  0  0  0  0  0  0  0  0
  139.3160   69.7240  223.3430 C   0  0  0  0  0  0  0  0  0  0  0  0
  139.2280   69.0030  224.5170 C   0  0  0  0  0  0  0  0  0  0  0  0
  139.7900   69.5500  225.6500 C   0  0  0  0  0  0  0  0  0  0  0  0
  139.7190   68.8530  226.8390 C   0  0  0  0  0  0  0  0  0  0  0  0
  140.2710   69.3690  228.0030 C   0  0  0  0  0  0  0  0  0  0  0  0
  140.1690   68.6420  229.1350 F   0  0  0  0  0  0  0  0  0  0  0  0
  140.8930   70.5980  227.9330 C   0  0  0  0  0  0  0  0  0  0  0  0
  140.9680   71.3020  226.7350 C   0  0  0  0  0  0  0  0  0  0  0  0
  140.4130   70.7800  225.5780 C   0  0  0  0  0  0  0  0  0  0  0  0
  140.4700   71.4390  224.4050 N   0  0  0  0  0  0  0  0  0  0  0  0
  141.0010   73.3310  222.8580 H   0  0  0  0  0  0  0  0  0  0  0  0
  141.1755   73.0301  219.9494 H   0  0  0  0  0  0  0  0  0  0  0  0
  139.6565   73.8998  220.3672 H   0  0  0  0  0  0  0  0  0  0  0  0
  141.4141   77.3818  220.4170 H   0  0  0  0  0  0  0  0  0  0  0  0
  143.1856   77.3432  220.1854 H   0  0  0  0  0  0  0  0  0  0  0  0
  141.1240   76.9978  217.9158 H   0  0  0  0  0  0  0  0  0  0  0  0
  141.9331   78.5235  218.2590 H   0  0  0  0  0  0  0  0  0  0  0  0
  143.2900   77.3028  216.5926 H   0  0  0  0  0  0  0  0  0  0  0  0
  144.1783   77.2404  218.1537 H   0  0  0  0  0  0  0  0  0  0  0  0
  142.5037   75.1203  216.8203 H   0  0  0  0  0  0  0  0  0  0  0  0
  144.2712   75.1058  217.3604 H   0  0  0  0  0  0  0  0  0  0  0  0
  142.1430   73.9926  218.5185 H   0  0  0  0  0  0  0  0  0  0  0  0
  144.5390   75.6361  220.8070 H   0  0  0  0  0  0  0  0  0  0  0  0
  146.4197   74.5068  221.8607 H   0  0  0  0  0  0  0  0  0  0  0  0
  147.0597   72.2034  221.1749 H   0  0  0  0  0  0  0  0  0  0  0  0
  143.8362   72.2232  218.3332 H   0  0  0  0  0  0  0  0  0  0  0  0
  138.8714   69.2998  222.4307 H   0  0  0  0  0  0  0  0  0  0  0  0
  138.7261   68.0246  224.5470 H   0  0  0  0  0  0  0  0  0  0  0  0
  139.2176   67.8742  226.8644 H   0  0  0  0  0  0  0  0  0  0  0  0
  141.3383   71.0299  228.8414 H   0  0  0  0  0  0  0  0  0  0  0  0
  141.4714   72.2796  226.7065 H   0  0  0  0  0  0  0  0  0  0  0  0
  1  2  2  0
  2  3  1  0
  3  4  1  0
  4  5  1  0
  5  6  2  0
  5  7  1  0
  7  8  1  0
  8  9  1  0
  9 10  1  0
 10 11  1  0
 11 12  1  0
 12 13  1  0
 13 14  2  0
 14 15  1  0
 15 16  2  0
 16 17  1  0
 17 18  1  0
 17 19  2  0
  2 20  1  0
 20 21  2  0
 21 22  1  0
 22 23  2  0
 23 24  1  0
 24 25  2  0
 25 26  1  0
 25 27  1  0
 27 28  2  0
 28 29  1  0
 29 30  2  0
 12  7  1  0
 19 13  1  0
 30 20  1  0
 29 23  1  0
  3 31  1  0
  4 32  1  0
  4 33  1  0
  8 34  1  0
  8 35  1  0
  9 36  1  0
  9 37  1  0
 10 38  1  0
 10 39  1  0
 11 40  1  0
 11 41  1  0
 12 42  1  6
 14 43  1  0
 15 44  1  0
 16 45  1  0
 19 46  1  0
 21 47  1  0
 22 48  1  0
 24 49  1  0
 27 50  1  0
 28 51  1  0
M  END
>  <smiles>  (85) 
O=C(NCC(=O)N1CCCCC1c1cccc(F)c1)c1ccc2cc(F)ccc2n1

>  <score_type>  (85) 
oracle

>  <origin>  (85) 
autodockgpu

>  <m_score__min__energy>  (85) 
-8.7599999999999998

>  <m_primary>  (85) 
energy

>  <rmsd>  (85) 
2.3364177058700744

>  <m_score__min__rmsd>  (85) 
2.3364177058700744

>  <meeko>  (85) 
{"free_energy": -8.01, "intermolecular_energy": -9.5, "internal_energy": -2.01, "cluster_size": 35, "cluster_id": 1, "rank_in_cluster": 34}

>  <energy>  (85) 
-7.87

>  <cluster_rmsd>  (85) 
1.59

>  <cluster>  (85) 
1

$$$$

     RDKit          3D

 51 54  0  0  0  0  0  0  0  0999 V2000
  140.0770   71.6870  221.0780 O   0  0  0  0  0  0  0  0  0  0  0  0
  139.9050   72.2410  222.2110 C   0  0  0  0  0  0  0  0  0  0  0  0
  139.6970   73.6370  222.3390 N   0  0  0  0  0  0  0  0  0  0  0  0
  139.6810   74.4490  221.1350 C   0  0  0  0  0  0  0  0  0  0  0  0
  140.1950   75.7980  221.4330 C   0  0  0  0  0  0  0  0  0  0  0  0
  140.3820   76.1530  222.6420 O   0  0  0  0  0  0  0  0  0  0  0  0
  140.5120   76.7690  220.4460 N   0  0  0  0  0  0  0  0  0  0  0  0
  139.6370   76.8580  219.3000 C   0  0  0  0  0  0  0  0  0  0  0  0
  140.5030   76.9900  218.0470 C   0  0  0  0  0  0  0  0  0  0  0  0
  141.2130   78.3300  218.2130 C   0  0  0  0  0  0  0  0  0  0  0  0
  142.1680   78.2520  219.3560 C   0  0  0  0  0  0  0  0  0  0  0  0
  141.6550   77.6140  220.6000 C   0  0  1  0  0  0  0  0  0  0  0  0
  141.4520   78.5770  221.7080 C   0  0  0  0  0  0  0  0  0  0  0  0
  142.5310   79.1160  222.4160 C   0  0  0  0  0  0  0  0  0  0  0  0
  142.3790   80.0040  223.4410 C   0  0  0  0  0  0  0  0  0  0  0  0
  141.1270   80.4170  223.8320 C   0  0  0  0  0  0  0  0  0  0  0  0
  140.0340   79.9030  223.1540 C   0  0  0  0  0  0  0  0  0  0  0  0
  138.7840   80.2850  223.5090 F   0  0  0  0  0  0  0  0  0  0  0  0
  140.2040   79.0070  222.1210 C   0  0  0  0  0  0  0  0  0  0  0  0
  139.9250   71.4040  223.4050 C   0  0  0  0  0  0  0  0  0  0  0  0
  139.4800   70.0980  223.3680 C   0  0  0  0  0  0  0  0  0  0  0  0
  139.4830   69.2740  224.4760 C   0  0  0  0  0  0  0  0  0  0  0  0
  139.9540   69.7940  225.6620 C   0  0  0  0  0  0  0  0  0  0  0  0
  139.9700   68.9940  226.7860 C   0  0  0  0  0  0  0  0  0  0  0  0
  140.4360   69.4790  228.0000 C   0  0  0  0  0  0  0  0  0  0  0  0
  140.4270   68.6500  229.0650 F   0  0  0  0  0  0  0  0  0  0  0  0
  140.8830   70.7830  228.0460 C   0  0  0  0  0  0  0  0  0  0  0  0
  140.8690   71.5910  226.9130 C   0  0  0  0  0  0  0  0  0  0  0  0
  140.4010   71.0990  225.7050 C   0  0  0  0  0  0  0  0  0  0  0  0
  140.3760   71.8580  224.5930 N   0  0  0  0  0  0  0  0  0  0  0  0
  139.5650   74.0130  223.2970 H   0  0  0  0  0  0  0  0  0  0  0  0
  140.3147   73.9782  220.3690 H   0  0  0  0  0  0  0  0  0  0  0  0
  138.6480   74.5284  220.7654 H   0  0  0  0  0  0  0  0  0  0  0  0
  139.0192   75.9504  219.2318 H   0  0  0  0  0  0  0  0  0  0  0  0
  138.9724   77.7292  219.3961 H   0  0  0  0  0  0  0  0  0  0  0  0
  141.2319   76.1682  217.9898 H   0  0  0  0  0  0  0  0  0  0  0  0
  139.9100   76.9425  217.1217 H   0  0  0  0  0  0  0  0  0  0  0  0
  141.7638   78.5691  217.2914 H   0  0  0  0  0  0  0  0  0  0  0  0
  140.4690   79.1155  218.4116 H   0  0  0  0  0  0  0  0  0  0  0  0
  143.0450   77.6782  219.0218 H   0  0  0  0  0  0  0  0  0  0  0  0
  142.3859   79.2951  219.6288 H   0  0  0  0  0  0  0  0  0  0  0  0
  142.4780   76.9366  220.8717 H   0  0  0  0  0  0  0  0  0  0  0  0
  143.5492   78.8100  222.1336 H   0  0  0  0  0  0  0  0  0  0  0  0
  143.2673   80.3935  223.9599 H   0  0  0  0  0  0  0  0  0  0  0  0
  140.9976   81.1329  224.6571 H   0  0  0  0  0  0  0  0  0  0  0  0
  139.3133   78.6190  221.6052 H   0  0  0  0  0  0  0  0  0  0  0  0
  139.1068   69.6961  222.4145 H   0  0  0  0  0  0  0  0  0  0  0  0
  139.1214   68.2370  224.4140 H   0  0  0  0  0  0  0  0  0  0  0  0
  139.6084   67.9573  226.7190 H   0  0  0  0  0  0  0  0  0  0  0  0
  141.2575   71.1920  228.9960 H   0  0  0  0  0  0  0  0  0  0  0  0
  141.2320   72.6274  226.9768 H   0  0  0  0  0  0  0  0  0  0  0  0
  1  2  2  0
  2  3  1  0
  3  4  1  0
  4  5  1  0
  5  6  2  0
  5  7  1  0
  7  8  1  0
  8  9  1  0
  9 10  1  0
 10 11  1  0
 11 12  1  0
 12 13  1  0
 13 14  2  0
 14 15  1  0
 15 16  2  0
 16 17  1  0
 17 18  1  0
 17 19  2  0
  2 20  1  0
 20 21  2  0
 21 22  1  0
 22 23  2  0
 23 24  1  0
 24 25  2  0
 25 26  1  0
 25 27  1  0
 27 28  2  0
 28 29  1  0
 29 30  2  0
 12  7  1  0
 19 13  1  0
 30 20  1  0
 29 23  1  0
  3 31  1  0
  4 32  1  0
  4 33  1  0
  8 34  1  0
  8 35  1  0
  9 36  1  0
  9 37  1  0
 10 38  1  0
 10 39  1  0
 11 40  1  0
 11 41  1  0
 12 42  1  1
 14 43  1  0
 15 44  1  0
 16 45  1  0
 19 46  1  0
 21 47  1  0
 22 48  1  0
 24 49  1  0
 27 50  1  0
 28 51  1  0
M  END
>  <smiles>  (86) 
O=C(NCC(=O)N1CCCCC1c1cccc(F)c1)c1ccc2cc(F)ccc2n1

>  <score_type>  (86) 
oracle

>  <origin>  (86) 
autodockgpu

>  <m_score__min__energy>  (86) 
-8.7599999999999998

>  <m_primary>  (86) 
energy

>  <rmsd>  (86) 
1.564074978530043

>  <m_score__min__rmsd>  (86) 
1.564074978530043

>  <meeko>  (86) 
{"free_energy": -8.44, "intermolecular_energy": -9.93, "internal_energy": -1.72, "cluster_size": 9, "cluster_id": 3, "rank_in_cluster": 7}

>  <energy>  (86) 
-8.72

>  <cluster_rmsd>  (86) 
0.0

>  <cluster>  (86) 
2

$$$$

     RDKit          3D

 51 54  0  0  0  0  0  0  0  0999 V2000
  140.3440   71.5590  221.1180 O   0  0  0  0  0  0  0  0  0  0  0  0
  140.0500   72.1250  222.2190 C   0  0  0  0  0  0  0  0  0  0  0  0
  139.8070   73.5180  222.3050 N   0  0  0  0  0  0  0  0  0  0  0  0
  139.8990   74.3140  221.0930 C   0  0  0  0  0  0  0  0  0  0  0  0
  140.6300   75.5650  221.3690 C   0  0  0  0  0  0  0  0  0  0  0  0
  140.4780   76.1550  222.4870 O   0  0  0  0  0  0  0  0  0  0  0  0
  141.5220   76.1860  220.4550 N   0  0  0  0  0  0  0  0  0  0  0  0
  141.8000   77.5910  220.6520 C   0  0  0  0  0  0  0  0  0  0  0  0
  141.7600   78.2810  219.2880 C   0  0  0  0  0  0  0  0  0  0  0  0
  142.9220   77.6660  218.5150 C   0  0  0  0  0  0  0  0  0  0  0  0
  142.6380   76.2270  218.2460 C   0  0  0  0  0  0  0  0  0  0  0  0
  142.1100   75.4350  219.3910 C   0  0  1  0  0  0  0  0  0  0  0  0
  143.0850   74.4510  219.9180 C   0  0  0  0  0  0  0  0  0  0  0  0
  142.7000   73.1510  220.2640 C   0  0  0  0  0  0  0  0  0  0  0  0
  143.5720   72.2220  220.7510 C   0  0  0  0  0  0  0  0  0  0  0  0
  144.9000   72.5310  220.9290 C   0  0  0  0  0  0  0  0  0  0  0  0
  145.3190   73.8090  220.5980 C   0  0  0  0  0  0  0  0  0  0  0  0
  146.6180   74.1530  220.7590 F   0  0  0  0  0  0  0  0  0  0  0  0
  144.4260   74.7370  220.1070 C   0  0  0  0  0  0  0  0  0  0  0  0
  139.9640   71.3040  223.4220 C   0  0  0  0  0  0  0  0  0  0  0  0
  139.3950   70.0470  223.3880 C   0  0  0  0  0  0  0  0  0  0  0  0
  139.2950   69.2400  224.5030 C   0  0  0  0  0  0  0  0  0  0  0  0
  139.7880   69.7260  225.6950 C   0  0  0  0  0  0  0  0  0  0  0  0
  139.7030   68.9420  226.8270 C   0  0  0  0  0  0  0  0  0  0  0  0
  140.1880   69.3950  228.0460 C   0  0  0  0  0  0  0  0  0  0  0  0
  140.0750   68.5830  229.1190 F   0  0  0  0  0  0  0  0  0  0  0  0
  140.7570   70.6500  228.0890 C   0  0  0  0  0  0  0  0  0  0  0  0
  140.8460   71.4410  226.9480 C   0  0  0  0  0  0  0  0  0  0  0  0
  140.3580   70.9830  225.7350 C   0  0  0  0  0  0  0  0  0  0  0  0
  140.4310   71.7270  224.6150 N   0  0  0  0  0  0  0  0  0  0  0  0
  139.5720   73.9050  223.2390 H   0  0  0  0  0  0  0  0  0  0  0  0
  140.4336   73.7419  220.3205 H   0  0  0  0  0  0  0  0  0  0  0  0
  138.8855   74.5566  220.7410 H   0  0  0  0  0  0  0  0  0  0  0  0
  141.0407   78.0316  221.3148 H   0  0  0  0  0  0  0  0  0  0  0  0
  142.7890   77.7216  221.1154 H   0  0  0  0  0  0  0  0  0  0  0  0
  140.8054   78.0814  218.7791 H   0  0  0  0  0  0  0  0  0  0  0  0
  141.8441   79.3747  219.3698 H   0  0  0  0  0  0  0  0  0  0  0  0
  143.0497   78.1985  217.5610 H   0  0  0  0  0  0  0  0  0  0  0  0
  143.8429   77.7515  219.1105 H   0  0  0  0  0  0  0  0  0  0  0  0
  141.8976   76.1773  217.4340 H   0  0  0  0  0  0  0  0  0  0  0  0
  143.6109   75.7762  218.0006 H   0  0  0  0  0  0  0  0  0  0  0  0
  141.2743   74.8877  218.9304 H   0  0  0  0  0  0  0  0  0  0  0  0
  141.6454   72.8650  220.1374 H   0  0  0  0  0  0  0  0  0  0  0  0
  143.2090   71.2149  221.0040 H   0  0  0  0  0  0  0  0  0  0  0  0
  145.6077   71.7863  221.3221 H   0  0  0  0  0  0  0  0  0  0  0  0
  144.7930   75.7431  219.8558 H   0  0  0  0  0  0  0  0  0  0  0  0
  139.0042   69.6721  222.4305 H   0  0  0  0  0  0  0  0  0  0  0  0
  138.8369   68.2417  224.4425 H   0  0  0  0  0  0  0  0  0  0  0  0
  139.2446   67.9442  226.7626 H   0  0  0  0  0  0  0  0  0  0  0  0
  141.1479   71.0330  229.0432 H   0  0  0  0  0  0  0  0  0  0  0  0
  141.3073   72.4377  227.0094 H   0  0  0  0  0  0  0  0  0  0  0  0
  1  2  2  0
  2  3  1  0
  3  4  1  0
  4  5  1  0
  5  6  2  0
  5  7  1  0
  7  8  1  0
  8  9  1  0
  9 10  1  0
 10 11  1  0
 11 12  1  0
 12 13  1  0
 13 14  2  0
 14 15  1  0
 15 16  2  0
 16 17  1  0
 17 18  1  0
 17 19  2  0
  2 20  1  0
 20 21  2  0
 21 22  1  0
 22 23  2  0
 23 24  1  0
 24 25  2  0
 25 26  1  0
 25 27  1  0
 27 28  2  0
 28 29  1  0
 29 30  2  0
 12  7  1  0
 19 13  1  0
 30 20  1  0
 29 23  1  0
  3 31  1  0
  4 32  1  0
  4 33  1  0
  8 34  1  0
  8 35  1  0
  9 36  1  0
  9 37  1  0
 10 38  1  0
 10 39  1  0
 11 40  1  0
 11 41  1  0
 12 42  1  6
 14 43  1  0
 15 44  1  0
 16 45  1  0
 19 46  1  0
 21 47  1  0
 22 48  1  0
 24 49  1  0
 27 50  1  0
 28 51  1  0
M  END
>  <smiles>  (87) 
O=C(NCC(=O)N1CCCCC1c1cccc(F)c1)c1ccc2cc(F)ccc2n1

>  <score_type>  (87) 
oracle

>  <origin>  (87) 
autodockgpu

>  <m_score__min__energy>  (87) 
-8.7599999999999998

>  <m_primary>  (87) 
energy

>  <rmsd>  (87) 
2.1969674683940648

>  <m_score__min__rmsd>  (87) 
2.1969674683940648

>  <meeko>  (87) 
{"free_energy": -8.7, "intermolecular_energy": -10.19, "internal_energy": -1.93, "cluster_size": 35, "cluster_id": 1, "rank_in_cluster": 9}

>  <energy>  (87) 
-8.39

>  <cluster_rmsd>  (87) 
0.91

>  <cluster>  (87) 
2

$$$$

     RDKit          3D

 51 54  0  0  0  0  0  0  0  0999 V2000
  139.9260   73.6390  222.6630 O   0  0  0  0  0  0  0  0  0  0  0  0
  140.1000   72.3950  222.4580 C   0  0  0  0  0  0  0  0  0  0  0  0
  140.3020   71.8700  221.1580 N   0  0  0  0  0  0  0  0  0  0  0  0
  140.3090   72.7880  220.0320 C   0  0  0  0  0  0  0  0  0  0  0  0
  141.2920   73.8620  220.2670 C   0  0  0  0  0  0  0  0  0  0  0  0
  140.9010   75.0030  220.6750 O   0  0  0  0  0  0  0  0  0  0  0  0
  142.6910   73.7220  220.0670 N   0  0  0  0  0  0  0  0  0  0  0  0
  143.1800   72.4150  219.6900 C   0  0  0  0  0  0  0  0  0  0  0  0
  144.4380   72.1210  220.5070 C   0  0  0  0  0  0  0  0  0  0  0  0
  145.4490   73.1640  220.0390 C   0  0  0  0  0  0  0  0  0  0  0  0
  145.0010   74.5220  220.4650 C   0  0  0  0  0  0  0  0  0  0  0  0
  143.5640   74.8410  220.2390 C   0  0  1  0  0  0  0  0  0  0  0  0
  143.3520   75.8420  219.1670 C   0  0  0  0  0  0  0  0  0  0  0  0
  142.8130   77.1040  219.4390 C   0  0  0  0  0  0  0  0  0  0  0  0
  142.6050   78.0480  218.4760 C   0  0  0  0  0  0  0  0  0  0  0  0
  142.9230   77.7930  217.1630 C   0  0  0  0  0  0  0  0  0  0  0  0
  143.4600   76.5530  216.8540 C   0  0  0  0  0  0  0  0  0  0  0  0
  143.7860   76.2630  215.5730 F   0  0  0  0  0  0  0  0  0  0  0  0
  143.6630   75.6100  217.8380 C   0  0  0  0  0  0  0  0  0  0  0  0
  140.0900   71.4940  223.6050 C   0  0  0  0  0  0  0  0  0  0  0  0
  139.5810   70.2150  223.5020 C   0  0  0  0  0  0  0  0  0  0  0  0
  139.5530   69.3320  224.5620 C   0  0  0  0  0  0  0  0  0  0  0  0
  140.0590   69.7620  225.7700 C   0  0  0  0  0  0  0  0  0  0  0  0
  140.0450   68.9020  226.8490 C   0  0  0  0  0  0  0  0  0  0  0  0
  140.5440   69.2970  228.0820 C   0  0  0  0  0  0  0  0  0  0  0  0
  140.5030   68.4120  229.1000 F   0  0  0  0  0  0  0  0  0  0  0  0
  141.0550   70.5730  228.1940 C   0  0  0  0  0  0  0  0  0  0  0  0
  141.0710   71.4420  227.1070 C   0  0  0  0  0  0  0  0  0  0  0  0
  140.5690   71.0400  225.8800 C   0  0  0  0  0  0  0  0  0  0  0  0
  140.5720   71.8600  224.8110 N   0  0  0  0  0  0  0  0  0  0  0  0
  140.4380   70.8440  221.0730 H   0  0  0  0  0  0  0  0  0  0  0  0
  140.5784   72.2407  219.1167 H   0  0  0  0  0  0  0  0  0  0  0  0
  139.3084   73.2308  219.9191 H   0  0  0  0  0  0  0  0  0  0  0  0
  142.4130   71.6554  219.9013 H   0  0  0  0  0  0  0  0  0  0  0  0
  143.4115   72.3918  218.6149 H   0  0  0  0  0  0  0  0  0  0  0  0
  144.2371   72.2295  221.5831 H   0  0  0  0  0  0  0  0  0  0  0  0
  144.8002   71.0925  220.3623 H   0  0  0  0  0  0  0  0  0  0  0  0
  146.4315   72.9466  220.4833 H   0  0  0  0  0  0  0  0  0  0  0  0
  145.5256   73.1320  218.9421 H   0  0  0  0  0  0  0  0  0  0  0  0
  145.2009   74.6188  221.5423 H   0  0  0  0  0  0  0  0  0  0  0  0
  145.5620   75.2282  219.8352 H   0  0  0  0  0  0  0  0  0  0  0  0
  143.2705   75.2877  221.2004 H   0  0  0  0  0  0  0  0  0  0  0  0
  142.5443   77.3466  220.4777 H   0  0  0  0  0  0  0  0  0  0  0  0
  142.1784   79.0233  218.7531 H   0  0  0  0  0  0  0  0  0  0  0  0
  142.7565   78.5495  216.3819 H   0  0  0  0  0  0  0  0  0  0  0  0
  144.0885   74.6354  217.5568 H   0  0  0  0  0  0  0  0  0  0  0  0
  139.1801   69.8852  222.5322 H   0  0  0  0  0  0  0  0  0  0  0  0
  139.1406   68.3187  224.4469 H   0  0  0  0  0  0  0  0  0  0  0  0
  139.6325   67.8892  226.7300 H   0  0  0  0  0  0  0  0  0  0  0  0
  141.4575   70.9103  229.1606 H   0  0  0  0  0  0  0  0  0  0  0  0
  141.4849   72.4545  227.2229 H   0  0  0  0  0  0  0  0  0  0  0  0
  1  2  2  0
  2  3  1  0
  3  4  1  0
  4  5  1  0
  5  6  2  0
  5  7  1  0
  7  8  1  0
  8  9  1  0
  9 10  1  0
 10 11  1  0
 11 12  1  0
 12 13  1  0
 13 14  2  0
 14 15  1  0
 15 16  2  0
 16 17  1  0
 17 18  1  0
 17 19  2  0
  2 20  1  0
 20 21  2  0
 21 22  1  0
 22 23  2  0
 23 24  1  0
 24 25  2  0
 25 26  1  0
 25 27  1  0
 27 28  2  0
 28 29  1  0
 29 30  2  0
 12  7  1  0
 19 13  1  0
 30 20  1  0
 29 23  1  0
  3 31  1  0
  4 32  1  0
  4 33  1  0
  8 34  1  0
  8 35  1  0
  9 36  1  0
  9 37  1  0
 10 38  1  0
 10 39  1  0
 11 40  1  0
 11 41  1  0
 12 42  1  1
 14 43  1  0
 15 44  1  0
 16 45  1  0
 19 46  1  0
 21 47  1  0
 22 48  1  0
 24 49  1  0
 27 50  1  0
 28 51  1  0
M  END
>  <smiles>  (88) 
O=C(NCC(=O)N1CCCCC1c1cccc(F)c1)c1ccc2cc(F)ccc2n1

>  <score_type>  (88) 
oracle

>  <origin>  (88) 
autodockgpu

>  <m_score__min__energy>  (88) 
-8.7599999999999998

>  <m_primary>  (88) 
energy

>  <rmsd>  (88) 
3.2562055870791733

>  <m_score__min__rmsd>  (88) 
3.2562055870791733

>  <meeko>  (88) 
{"free_energy": -8.22, "intermolecular_energy": -9.71, "internal_energy": -1.35, "cluster_size": 2, "cluster_id": 5, "rank_in_cluster": 2}

>  <energy>  (88) 
-8.62

>  <cluster_rmsd>  (88) 
0.0

>  <cluster>  (88) 
3

$$$$

     RDKit          3D

 51 54  0  0  0  0  0  0  0  0999 V2000
  140.7410   71.4970  221.1160 O   0  0  0  0  0  0  0  0  0  0  0  0
  140.2970   72.0500  222.1720 C   0  0  0  0  0  0  0  0  0  0  0  0
  139.9160   73.4140  222.2010 N   0  0  0  0  0  0  0  0  0  0  0  0
  140.0390   74.1950  220.9820 C   0  0  0  0  0  0  0  0  0  0  0  0
  140.7760   75.4420  221.2580 C   0  0  0  0  0  0  0  0  0  0  0  0
  140.6620   76.0090  222.3920 O   0  0  0  0  0  0  0  0  0  0  0  0
  141.6350   76.0840  220.3260 N   0  0  0  0  0  0  0  0  0  0  0  0
  141.8280   77.5080  220.4770 C   0  0  0  0  0  0  0  0  0  0  0  0
  141.7540   78.1500  219.0910 C   0  0  0  0  0  0  0  0  0  0  0  0
  142.9540   77.5790  218.3420 C   0  0  0  0  0  0  0  0  0  0  0  0
  142.7570   76.1180  218.1190 C   0  0  0  0  0  0  0  0  0  0  0  0
  142.2710   75.3350  219.2890 C   0  0  1  0  0  0  0  0  0  0  0  0
  143.2990   74.4270  219.8510 C   0  0  0  0  0  0  0  0  0  0  0  0
  144.5270   74.9110  220.3150 C   0  0  0  0  0  0  0  0  0  0  0  0
  145.4950   74.1030  220.8380 C   0  0  0  0  0  0  0  0  0  0  0  0
  145.3000   72.7460  220.9330 C   0  0  0  0  0  0  0  0  0  0  0  0
  144.0950   72.2300  220.4840 C   0  0  0  0  0  0  0  0  0  0  0  0
  143.8650   70.8980  220.5600 F   0  0  0  0  0  0  0  0  0  0  0  0
  143.1280   73.0580  219.9580 C   0  0  0  0  0  0  0  0  0  0  0  0
  140.1830   71.2450  223.3830 C   0  0  0  0  0  0  0  0  0  0  0  0
  139.5840   70.0020  223.3600 C   0  0  0  0  0  0  0  0  0  0  0  0
  139.4560   69.2100  224.4830 C   0  0  0  0  0  0  0  0  0  0  0  0
  139.9540   69.6970  225.6720 C   0  0  0  0  0  0  0  0  0  0  0  0
  139.8410   68.9280  226.8120 C   0  0  0  0  0  0  0  0  0  0  0  0
  140.3290   69.3820  228.0300 C   0  0  0  0  0  0  0  0  0  0  0  0
  140.1900   68.5860  229.1110 F   0  0  0  0  0  0  0  0  0  0  0  0
  140.9290   70.6240  228.0630 C   0  0  0  0  0  0  0  0  0  0  0  0
  141.0450   71.4000  226.9140 C   0  0  0  0  0  0  0  0  0  0  0  0
  140.5540   70.9400  225.7030 C   0  0  0  0  0  0  0  0  0  0  0  0
  140.6520   71.6700  224.5750 N   0  0  0  0  0  0  0  0  0  0  0  0
  139.5630   73.7920  223.1010 H   0  0  0  0  0  0  0  0  0  0  0  0
  140.5832   73.6091  220.2266 H   0  0  0  0  0  0  0  0  0  0  0  0
  139.0349   74.4427  220.6074 H   0  0  0  0  0  0  0  0  0  0  0  0
  141.0406   77.9241  221.1226 H   0  0  0  0  0  0  0  0  0  0  0  0
  142.8054   77.7121  220.9385 H   0  0  0  0  0  0  0  0  0  0  0  0
  140.8152   77.8784  218.5862 H   0  0  0  0  0  0  0  0  0  0  0  0
  141.7734   79.2489  219.1371 H   0  0  0  0  0  0  0  0  0  0  0  0
  143.0550   78.0869  217.3715 H   0  0  0  0  0  0  0  0  0  0  0  0
  143.8650   77.7375  218.9378 H   0  0  0  0  0  0  0  0  0  0  0  0
  142.0247   75.9980  217.3070 H   0  0  0  0  0  0  0  0  0  0  0  0
  143.7556   75.7173  217.8903 H   0  0  0  0  0  0  0  0  0  0  0  0
  141.4705   74.7257  218.8440 H   0  0  0  0  0  0  0  0  0  0  0  0
  144.7213   75.9921  220.2557 H   0  0  0  0  0  0  0  0  0  0  0  0
  146.4410   74.5427  221.1870 H   0  0  0  0  0  0  0  0  0  0  0  0
  146.0766   72.0896  221.3526 H   0  0  0  0  0  0  0  0  0  0  0  0
  142.1838   72.6140  219.6097 H   0  0  0  0  0  0  0  0  0  0  0  0
  139.1910   69.6257  222.4040 H   0  0  0  0  0  0  0  0  0  0  0  0
  138.9727   68.2232  224.4307 H   0  0  0  0  0  0  0  0  0  0  0  0
  139.3576   67.9416  226.7551 H   0  0  0  0  0  0  0  0  0  0  0  0
  141.3230   71.0079  229.0156 H   0  0  0  0  0  0  0  0  0  0  0  0
  141.5300   72.3858  226.9675 H   0  0  0  0  0  0  0  0  0  0  0  0
  1  2  2  0
  2  3  1  0
  3  4  1  0
  4  5  1  0
  5  6  2  0
  5  7  1  0
  7  8  1  0
  8  9  1  0
  9 10  1  0
 10 11  1  0
 11 12  1  0
 12 13  1  0
 13 14  2  0
 14 15  1  0
 15 16  2  0
 16 17  1  0
 17 18  1  0
 17 19  2  0
  2 20  1  0
 20 21  2  0
 21 22  1  0
 22 23  2  0
 23 24  1  0
 24 25  2  0
 25 26  1  0
 25 27  1  0
 27 28  2  0
 28 29  1  0
 29 30  2  0
 12  7  1  0
 19 13  1  0
 30 20  1  0
 29 23  1  0
  3 31  1  0
  4 32  1  0
  4 33  1  0
  8 34  1  0
  8 35  1  0
  9 36  1  0
  9 37  1  0
 10 38  1  0
 10 39  1  0
 11 40  1  0
 11 41  1  0
 12 42  1  6
 14 43  1  0
 15 44  1  0
 16 45  1  0
 19 46  1  0
 21 47  1  0
 22 48  1  0
 24 49  1  0
 27 50  1  0
 28 51  1  0
M  END
>  <smiles>  (89) 
O=C(NCC(=O)N1CCCCC1c1cccc(F)c1)c1ccc2cc(F)ccc2n1

>  <score_type>  (89) 
oracle

>  <origin>  (89) 
autodockgpu

>  <m_score__min__energy>  (89) 
-8.7599999999999998

>  <m_primary>  (89) 
energy

>  <rmsd>  (89) 
2.2054370501019047

>  <m_score__min__rmsd>  (89) 
2.2054370501019047

>  <meeko>  (89) 
{"free_energy": -8.72, "intermolecular_energy": -10.21, "internal_energy": -1.97, "cluster_size": 35, "cluster_id": 1, "rank_in_cluster": 4}

>  <energy>  (89) 
-8.61

>  <cluster_rmsd>  (89) 
0.87

>  <cluster>  (89) 
3

$$$$

     RDKit          3D

 51 54  0  0  0  0  0  0  0  0999 V2000
  140.2720   71.7050  221.0840 O   0  0  0  0  0  0  0  0  0  0  0  0
  140.0070   72.2580  222.2000 C   0  0  0  0  0  0  0  0  0  0  0  0
  139.7740   73.6510  222.3100 N   0  0  0  0  0  0  0  0  0  0  0  0
  139.8420   74.4630  221.1070 C   0  0  0  0  0  0  0  0  0  0  0  0
  140.7020   75.6370  221.3430 C   0  0  0  0  0  0  0  0  0  0  0  0
  140.6850   76.2190  222.4760 O   0  0  0  0  0  0  0  0  0  0  0  0
  141.5800   76.1920  220.3740 N   0  0  0  0  0  0  0  0  0  0  0  0
  141.8800   77.6010  220.4820 C   0  0  0  0  0  0  0  0  0  0  0  0
  141.8150   78.2120  219.0810 C   0  0  0  0  0  0  0  0  0  0  0  0
  142.9510   77.5370  218.3190 C   0  0  0  0  0  0  0  0  0  0  0  0
  142.6420   76.0880  218.1400 C   0  0  0  0  0  0  0  0  0  0  0  0
  142.1320   75.3720  219.3420 C   0  0  1  0  0  0  0  0  0  0  0  0
  143.1070   74.4070  219.9030 C   0  0  0  0  0  0  0  0  0  0  0  0
  142.7240   73.1150  220.2800 C   0  0  0  0  0  0  0  0  0  0  0  0
  143.5970   72.2030  220.7990 C   0  0  0  0  0  0  0  0  0  0  0  0
  144.9220   72.5220  220.9790 C   0  0  0  0  0  0  0  0  0  0  0  0
  145.3380   73.7930  220.6170 C   0  0  0  0  0  0  0  0  0  0  0  0
  146.6350   74.1460  220.7780 F   0  0  0  0  0  0  0  0  0  0  0  0
  144.4450   74.7030  220.0940 C   0  0  0  0  0  0  0  0  0  0  0  0
  139.9440   71.4210  223.3930 C   0  0  0  0  0  0  0  0  0  0  0  0
  139.4050   70.1520  223.3460 C   0  0  0  0  0  0  0  0  0  0  0  0
  139.3270   69.3290  224.4520 C   0  0  0  0  0  0  0  0  0  0  0  0
  139.8140   69.8120  225.6470 C   0  0  0  0  0  0  0  0  0  0  0  0
  139.7510   69.0130  226.7700 C   0  0  0  0  0  0  0  0  0  0  0  0
  140.2290   69.4620  227.9930 C   0  0  0  0  0  0  0  0  0  0  0  0
  140.1400   68.6360  229.0560 F   0  0  0  0  0  0  0  0  0  0  0  0
  140.7690   70.7300  228.0490 C   0  0  0  0  0  0  0  0  0  0  0  0
  140.8350   71.5370  226.9180 C   0  0  0  0  0  0  0  0  0  0  0  0
  140.3540   71.0810  225.7010 C   0  0  0  0  0  0  0  0  0  0  0  0
  140.4050   71.8410  224.5900 N   0  0  0  0  0  0  0  0  0  0  0  0
  139.5630   74.0260  223.2550 H   0  0  0  0  0  0  0  0  0  0  0  0
  140.2605   73.8634  220.2852 H   0  0  0  0  0  0  0  0  0  0  0  0
  138.8300   74.8025  220.8411 H   0  0  0  0  0  0  0  0  0  0  0  0
  141.1428   78.0897  221.1360 H   0  0  0  0  0  0  0  0  0  0  0  0
  142.8818   77.7443  220.9131 H   0  0  0  0  0  0  0  0  0  0  0  0
  140.8462   77.9961  218.6069 H   0  0  0  0  0  0  0  0  0  0  0  0
  141.9137   79.3075  219.0966 H   0  0  0  0  0  0  0  0  0  0  0  0
  143.0635   78.0119  217.3332 H   0  0  0  0  0  0  0  0  0  0  0  0
  143.8865   77.6435  218.8878 H   0  0  0  0  0  0  0  0  0  0  0  0
  141.8814   76.0020  217.3500 H   0  0  0  0  0  0  0  0  0  0  0  0
  143.6023   75.6096  217.8973 H   0  0  0  0  0  0  0  0  0  0  0  0
  141.2783   74.8110  218.9339 H   0  0  0  0  0  0  0  0  0  0  0  0
  141.6717   72.8210  220.1523 H   0  0  0  0  0  0  0  0  0  0  0  0
  143.2362   71.2015  221.0763 H   0  0  0  0  0  0  0  0  0  0  0  0
  145.6297   71.7911  221.3973 H   0  0  0  0  0  0  0  0  0  0  0  0
  144.8100   75.7032  219.8177 H   0  0  0  0  0  0  0  0  0  0  0  0
  139.0204   69.7794  222.3851 H   0  0  0  0  0  0  0  0  0  0  0  0
  138.8907   68.3217  224.3814 H   0  0  0  0  0  0  0  0  0  0  0  0
  139.3157   68.0056  226.6949 H   0  0  0  0  0  0  0  0  0  0  0  0
  141.1548   71.1103  229.0064 H   0  0  0  0  0  0  0  0  0  0  0  0
  141.2720   72.5439  226.9901 H   0  0  0  0  0  0  0  0  0  0  0  0
  1  2  2  0
  2  3  1  0
  3  4  1  0
  4  5  1  0
  5  6  2  0
  5  7  1  0
  7  8  1  0
  8  9  1  0
  9 10  1  0
 10 11  1  0
 11 12  1  0
 12 13  1  0
 13 14  2  0
 14 15  1  0
 15 16  2  0
 16 17  1  0
 17 18  1  0
 17 19  2  0
  2 20  1  0
 20 21  2  0
 21 22  1  0
 22 23  2  0
 23 24  1  0
 24 25  2  0
 25 26  1  0
 25 27  1  0
 27 28  2  0
 28 29  1  0
 29 30  2  0
 12  7  1  0
 19 13  1  0
 30 20  1  0
 29 23  1  0
  3 31  1  0
  4 32  1  0
  4 33  1  0
  8 34  1  0
  8 35  1  0
  9 36  1  0
  9 37  1  0
 10 38  1  0
 10 39  1  0
 11 40  1  0
 11 41  1  0
 12 42  1  6
 14 43  1  0
 15 44  1  0
 16 45  1  0
 19 46  1  0
 21 47  1  0
 22 48  1  0
 24 49  1  0
 27 50  1  0
 28 51  1  0
M  END
>  <smiles>  (90) 
O=C(NCC(=O)N1CCCCC1c1cccc(F)c1)c1ccc2cc(F)ccc2n1

>  <score_type>  (90) 
oracle

>  <origin>  (90) 
autodockgpu

>  <m_score__min__energy>  (90) 
-8.7599999999999998

>  <m_primary>  (90) 
energy

>  <rmsd>  (90) 
2.201283368454208

>  <m_score__min__rmsd>  (90) 
2.201283368454208

>  <meeko>  (90) 
{"free_energy": -8.66, "intermolecular_energy": -10.15, "internal_energy": -1.97, "cluster_size": 35, "cluster_id": 1, "rank_in_cluster": 25}

>  <energy>  (90) 
-8.56

>  <cluster_rmsd>  (90) 
0.18

>  <cluster>  (90) 
3

$$$$

     RDKit          3D

 51 54  0  0  0  0  0  0  0  0999 V2000
  140.6780   71.6600  221.1320 O   0  0  0  0  0  0  0  0  0  0  0  0
  140.2270   72.1960  222.1940 C   0  0  0  0  0  0  0  0  0  0  0  0
  139.8160   73.5510  222.2340 N   0  0  0  0  0  0  0  0  0  0  0  0
  139.9160   74.3430  221.0200 C   0  0  0  0  0  0  0  0  0  0  0  0
  140.7540   75.5310  221.2640 C   0  0  0  0  0  0  0  0  0  0  0  0
  140.7320   76.1010  222.4020 O   0  0  0  0  0  0  0  0  0  0  0  0
  141.6160   76.1130  220.2960 N   0  0  0  0  0  0  0  0  0  0  0  0
  141.9340   77.5140  220.4500 C   0  0  0  0  0  0  0  0  0  0  0  0
  141.8450   78.1780  219.0750 C   0  0  0  0  0  0  0  0  0  0  0  0
  142.9550   77.5210  218.2620 C   0  0  0  0  0  0  0  0  0  0  0  0
  142.6260   76.0830  218.0360 C   0  0  0  0  0  0  0  0  0  0  0  0
  142.1350   75.3270  219.2210 C   0  0  1  0  0  0  0  0  0  0  0  0
  143.1120   74.3310  219.7230 C   0  0  0  0  0  0  0  0  0  0  0  0
  142.8650   72.9570  219.6380 C   0  0  0  0  0  0  0  0  0  0  0  0
  143.7430   72.0140  220.0890 C   0  0  0  0  0  0  0  0  0  0  0  0
  144.9370   72.3840  220.6620 C   0  0  0  0  0  0  0  0  0  0  0  0
  145.2160   73.7380  220.7640 C   0  0  0  0  0  0  0  0  0  0  0  0
  146.3810   74.1420  221.3220 F   0  0  0  0  0  0  0  0  0  0  0  0
  144.3190   74.6770  220.3030 C   0  0  0  0  0  0  0  0  0  0  0  0
  140.1360   71.3800  223.4000 C   0  0  0  0  0  0  0  0  0  0  0  0
  139.5570   70.1280  223.3730 C   0  0  0  0  0  0  0  0  0  0  0  0
  139.4520   69.3260  224.4910 C   0  0  0  0  0  0  0  0  0  0  0  0
  139.9520   69.8130  225.6800 C   0  0  0  0  0  0  0  0  0  0  0  0
  139.8620   69.0340  226.8150 C   0  0  0  0  0  0  0  0  0  0  0  0
  140.3530   69.4870  228.0320 C   0  0  0  0  0  0  0  0  0  0  0  0
  140.2360   68.6810  229.1080 F   0  0  0  0  0  0  0  0  0  0  0  0
  140.9330   70.7370  228.0690 C   0  0  0  0  0  0  0  0  0  0  0  0
  141.0270   71.5240  226.9250 C   0  0  0  0  0  0  0  0  0  0  0  0
  140.5330   71.0650  225.7140 C   0  0  0  0  0  0  0  0  0  0  0  0
  140.6090   71.8040  224.5910 N   0  0  0  0  0  0  0  0  0  0  0  0
  139.4600   73.9150  223.1390 H   0  0  0  0  0  0  0  0  0  0  0  0
  140.3691   73.7343  220.2236 H   0  0  0  0  0  0  0  0  0  0  0  0
  138.9099   74.6659  220.7142 H   0  0  0  0  0  0  0  0  0  0  0  0
  141.2168   77.9852  221.1382 H   0  0  0  0  0  0  0  0  0  0  0  0
  142.9466   77.6306  220.8635 H   0  0  0  0  0  0  0  0  0  0  0  0
  140.8633   77.9907  218.6154 H   0  0  0  0  0  0  0  0  0  0  0  0
  141.9572   79.2709  219.1299 H   0  0  0  0  0  0  0  0  0  0  0  0
  143.0499   78.0316  217.2923 H   0  0  0  0  0  0  0  0  0  0  0  0
  143.9045   77.5964  218.8123 H   0  0  0  0  0  0  0  0  0  0  0  0
  141.8471   76.0347  217.2608 H   0  0  0  0  0  0  0  0  0  0  0  0
  143.5756   75.6045  217.7542 H   0  0  0  0  0  0  0  0  0  0  0  0
  141.2661   74.7909  218.8115 H   0  0  0  0  0  0  0  0  0  0  0  0
  141.9198   72.6207  219.1870 H   0  0  0  0  0  0  0  0  0  0  0  0
  143.4928   70.9471  219.9931 H   0  0  0  0  0  0  0  0  0  0  0  0
  145.6485   71.6291  221.0280 H   0  0  0  0  0  0  0  0  0  0  0  0
  144.5727   75.7429  220.4000 H   0  0  0  0  0  0  0  0  0  0  0  0
  139.1615   69.7524  222.4178 H   0  0  0  0  0  0  0  0  0  0  0  0
  138.9851   68.3316  224.4355 H   0  0  0  0  0  0  0  0  0  0  0  0
  139.3947   68.0400  226.7549 H   0  0  0  0  0  0  0  0  0  0  0  0
  141.3292   71.1198  229.0211 H   0  0  0  0  0  0  0  0  0  0  0  0
  141.4965   72.5171  226.9823 H   0  0  0  0  0  0  0  0  0  0  0  0
  1  2  2  0
  2  3  1  0
  3  4  1  0
  4  5  1  0
  5  6  2  0
  5  7  1  0
  7  8  1  0
  8  9  1  0
  9 10  1  0
 10 11  1  0
 11 12  1  0
 12 13  1  0
 13 14  2  0
 14 15  1  0
 15 16  2  0
 16 17  1  0
 17 18  1  0
 17 19  2  0
  2 20  1  0
 20 21  2  0
 21 22  1  0
 22 23  2  0
 23 24  1  0
 24 25  2  0
 25 26  1  0
 25 27  1  0
 27 28  2  0
 28 29  1  0
 29 30  2  0
 12  7  1  0
 19 13  1  0
 30 20  1  0
 29 23  1  0
  3 31  1  0
  4 32  1  0
  4 33  1  0
  8 34  1  0
  8 35  1  0
  9 36  1  0
  9 37  1  0
 10 38  1  0
 10 39  1  0
 11 40  1  0
 11 41  1  0
 12 42  1  6
 14 43  1  0
 15 44  1  0
 16 45  1  0
 19 46  1  0
 21 47  1  0
 22 48  1  0
 24 49  1  0
 27 50  1  0
 28 51  1  0
M  END
>  <smiles>  (91) 
O=C(NCC(=O)N1CCCCC1c1cccc(F)c1)c1ccc2cc(F)ccc2n1

>  <score_type>  (91) 
oracle

>  <origin>  (91) 
autodockgpu

>  <m_score__min__energy>  (91) 
-8.7599999999999998

>  <m_primary>  (91) 
energy

>  <rmsd>  (91) 
2.2141986336180706

>  <m_score__min__rmsd>  (91) 
2.2141986336180706

>  <meeko>  (91) 
{"free_energy": -8.61, "intermolecular_energy": -10.1, "internal_energy": -1.94, "cluster_size": 35, "cluster_id": 1, "rank_in_cluster": 27}

>  <energy>  (91) 
-8.55

>  <cluster_rmsd>  (91) 
1.09

>  <cluster>  (91) 
3

$$$$

     RDKit          3D

 51 54  0  0  0  0  0  0  0  0999 V2000
  140.4380   74.0600  220.3670 O   0  0  0  0  0  0  0  0  0  0  0  0
  140.0450   74.7590  221.3550 C   0  0  0  0  0  0  0  0  0  0  0  0
  139.1200   74.2600  222.3060 N   0  0  0  0  0  0  0  0  0  0  0  0
  138.6140   72.9080  222.1380 C   0  0  0  0  0  0  0  0  0  0  0  0
  139.5740   71.9400  222.7000 C   0  0  0  0  0  0  0  0  0  0  0  0
  140.7060   72.3420  223.1240 O   0  0  0  0  0  0  0  0  0  0  0  0
  139.3310   70.5450  222.8100 N   0  0  0  0  0  0  0  0  0  0  0  0
  139.8070   69.7020  221.7370 C   0  0  0  0  0  0  0  0  0  0  0  0
  138.7090   68.6920  221.4000 C   0  0  0  0  0  0  0  0  0  0  0  0
  138.5770   67.8390  222.6580 C   0  0  0  0  0  0  0  0  0  0  0  0
  138.0320   68.6690  223.7710 C   0  0  0  0  0  0  0  0  0  0  0  0
  138.6390   70.0170  223.9440 C   0  0  1  0  0  0  0  0  0  0  0  0
  139.4720   70.1280  225.1660 C   0  0  0  0  0  0  0  0  0  0  0  0
  139.8350   69.0000  225.9090 C   0  0  0  0  0  0  0  0  0  0  0  0
  140.6010   69.0680  227.0370 C   0  0  0  0  0  0  0  0  0  0  0  0
  141.0580   70.2780  227.5040 C   0  0  0  0  0  0  0  0  0  0  0  0
  140.7180   71.4180  226.7930 C   0  0  0  0  0  0  0  0  0  0  0  0
  141.1480   72.6280  227.2200 F   0  0  0  0  0  0  0  0  0  0  0  0
  139.9440   71.3330  225.6560 C   0  0  0  0  0  0  0  0  0  0  0  0
  140.5670   76.1130  221.5020 C   0  0  0  0  0  0  0  0  0  0  0  0
  141.4760   76.6280  220.6000 C   0  0  0  0  0  0  0  0  0  0  0  0
  141.9940   77.9030  220.7040 C   0  0  0  0  0  0  0  0  0  0  0  0
  141.5740   78.6830  221.7600 C   0  0  0  0  0  0  0  0  0  0  0  0
  142.0740   79.9620  221.8910 C   0  0  0  0  0  0  0  0  0  0  0  0
  141.6780   80.7790  222.9400 C   0  0  0  0  0  0  0  0  0  0  0  0
  142.2010   82.0210  223.0160 F   0  0  0  0  0  0  0  0  0  0  0  0
  140.7710   80.2720  223.8470 C   0  0  0  0  0  0  0  0  0  0  0  0
  140.2640   78.9830  223.7160 C   0  0  0  0  0  0  0  0  0  0  0  0
  140.6660   78.1730  222.6660 C   0  0  0  0  0  0  0  0  0  0  0  0
  140.1920   76.9210  222.5150 N   0  0  0  0  0  0  0  0  0  0  0  0
  138.8480   74.8900  223.0840 H   0  0  0  0  0  0  0  0  0  0  0  0
  137.6506   72.8115  222.6601 H   0  0  0  0  0  0  0  0  0  0  0  0
  138.4778   72.7026  221.0660 H   0  0  0  0  0  0  0  0  0  0  0  0
  140.0321   70.3163  220.8527 H   0  0  0  0  0  0  0  0  0  0  0  0
  140.7242   69.1780  222.0437 H   0  0  0  0  0  0  0  0  0  0  0  0
  137.7624   69.2062  221.1776 H   0  0  0  0  0  0  0  0  0  0  0  0
  138.9509   68.0917  220.5105 H   0  0  0  0  0  0  0  0  0  0  0  0
  137.8953   66.9986  222.4605 H   0  0  0  0  0  0  0  0  0  0  0  0
  139.5666   67.4518  222.9421 H   0  0  0  0  0  0  0  0  0  0  0  0
  136.9555   68.8063  223.5912 H   0  0  0  0  0  0  0  0  0  0  0  0
  138.2706   68.1183  224.6928 H   0  0  0  0  0  0  0  0  0  0  0  0
  137.7530   70.6579  224.0628 H   0  0  0  0  0  0  0  0  0  0  0  0
  139.4875   68.0132  225.5690 H   0  0  0  0  0  0  0  0  0  0  0  0
  140.8554   68.1448  227.5783 H   0  0  0  0  0  0  0  0  0  0  0  0
  141.6740   70.3391  228.4133 H   0  0  0  0  0  0  0  0  0  0  0  0
  139.6917   72.2583  225.1174 H   0  0  0  0  0  0  0  0  0  0  0  0
  141.8018   75.9946  219.7617 H   0  0  0  0  0  0  0  0  0  0  0  0
  142.7179   78.2840  219.9686 H   0  0  0  0  0  0  0  0  0  0  0  0
  142.7971   80.3395  221.1531 H   0  0  0  0  0  0  0  0  0  0  0  0
  140.4424   80.8983  224.6895 H   0  0  0  0  0  0  0  0  0  0  0  0
  139.5388   78.6041  224.4512 H   0  0  0  0  0  0  0  0  0  0  0  0
  1  2  2  0
  2  3  1  0
  3  4  1  0
  4  5  1  0
  5  6  2  0
  5  7  1  0
  7  8  1  0
  8  9  1  0
  9 10  1  0
 10 11  1  0
 11 12  1  0
 12 13  1  0
 13 14  2  0
 14 15  1  0
 15 16  2  0
 16 17  1  0
 17 18  1  0
 17 19  2  0
  2 20  1  0
 20 21  2  0
 21 22  1  0
 22 23  2  0
 23 24  1  0
 24 25  2  0
 25 26  1  0
 25 27  1  0
 27 28  2  0
 28 29  1  0
 29 30  2  0
 12  7  1  0
 19 13  1  0
 30 20  1  0
 29 23  1  0
  3 31  1  0
  4 32  1  0
  4 33  1  0
  8 34  1  0
  8 35  1  0
  9 36  1  0
  9 37  1  0
 10 38  1  0
 10 39  1  0
 11 40  1  0
 11 41  1  0
 12 42  1  1
 14 43  1  0
 15 44  1  0
 16 45  1  0
 19 46  1  0
 21 47  1  0
 22 48  1  0
 24 49  1  0
 27 50  1  0
 28 51  1  0
M  END
>  <smiles>  (92) 
O=C(NCC(=O)N1CCCCC1c1cccc(F)c1)c1ccc2cc(F)ccc2n1

>  <score_type>  (92) 
oracle

>  <origin>  (92) 
autodockgpu

>  <m_score__min__energy>  (92) 
-8.7599999999999998

>  <m_primary>  (92) 
energy

>  <rmsd>  (92) 
8.484089532955407

>  <m_score__min__rmsd>  (92) 
8.484089532955407

>  <meeko>  (92) 
{"free_energy": -8.3, "intermolecular_energy": -9.8, "internal_energy": -1.52, "cluster_size": 1, "cluster_id": 4, "rank_in_cluster": 1}

>  <energy>  (92) 
-8.46

>  <cluster_rmsd>  (92) 
1.11

>  <cluster>  (92) 
3

$$$$

     RDKit          3D

 51 54  0  0  0  0  0  0  0  0999 V2000
  140.2960   71.6360  221.0860 O   0  0  0  0  0  0  0  0  0  0  0  0
  140.0240   72.1980  222.1950 C   0  0  0  0  0  0  0  0  0  0  0  0
  139.7870   73.5920  222.2900 N   0  0  0  0  0  0  0  0  0  0  0  0
  139.8570   74.3920  221.0800 C   0  0  0  0  0  0  0  0  0  0  0  0
  140.6620   75.6030  221.3260 C   0  0  0  0  0  0  0  0  0  0  0  0
  140.5940   76.1930  222.4520 O   0  0  0  0  0  0  0  0  0  0  0  0
  141.5400   76.1850  220.3730 N   0  0  0  0  0  0  0  0  0  0  0  0
  141.8440   77.5900  220.5230 C   0  0  0  0  0  0  0  0  0  0  0  0
  141.7790   78.2430  219.1430 C   0  0  0  0  0  0  0  0  0  0  0  0
  142.9120   77.5900  218.3580 C   0  0  0  0  0  0  0  0  0  0  0  0
  142.6000   76.1480  218.1350 C   0  0  0  0  0  0  0  0  0  0  0  0
  142.0890   75.3960  219.3150 C   0  0  1  0  0  0  0  0  0  0  0  0
  143.0630   74.4120  219.8440 C   0  0  0  0  0  0  0  0  0  0  0  0
  142.6920   73.0910  220.1190 C   0  0  0  0  0  0  0  0  0  0  0  0
  143.5630   72.1600  220.6060 C   0  0  0  0  0  0  0  0  0  0  0  0
  144.8750   72.4890  220.8550 C   0  0  0  0  0  0  0  0  0  0  0  0
  145.2790   73.7890  220.5950 C   0  0  0  0  0  0  0  0  0  0  0  0
  146.5620   74.1520  220.8270 F   0  0  0  0  0  0  0  0  0  0  0  0
  144.3870   74.7170  220.1030 C   0  0  0  0  0  0  0  0  0  0  0  0
  139.9590   71.3730  223.3960 C   0  0  0  0  0  0  0  0  0  0  0  0
  139.4030   70.1110  223.3640 C   0  0  0  0  0  0  0  0  0  0  0  0
  139.3230   69.2990  224.4780 C   0  0  0  0  0  0  0  0  0  0  0  0
  139.8240   69.7870  225.6650 C   0  0  0  0  0  0  0  0  0  0  0  0
  139.7580   68.9990  226.7960 C   0  0  0  0  0  0  0  0  0  0  0  0
  140.2520   69.4520  228.0110 C   0  0  0  0  0  0  0  0  0  0  0  0
  140.1590   68.6370  229.0830 F   0  0  0  0  0  0  0  0  0  0  0  0
  140.8090   70.7130  228.0530 C   0  0  0  0  0  0  0  0  0  0  0  0
  140.8770   71.5090  226.9130 C   0  0  0  0  0  0  0  0  0  0  0  0
  140.3820   71.0490  225.7040 C   0  0  0  0  0  0  0  0  0  0  0  0
  140.4350   71.7970  224.5850 N   0  0  0  0  0  0  0  0  0  0  0  0
  139.5710   73.9760  223.2300 H   0  0  0  0  0  0  0  0  0  0  0  0
  140.3230   73.8007  220.2780 H   0  0  0  0  0  0  0  0  0  0  0  0
  138.8403   74.6870  220.7810 H   0  0  0  0  0  0  0  0  0  0  0  0
  141.1089   78.0605  221.1925 H   0  0  0  0  0  0  0  0  0  0  0  0
  142.8469   77.7174  220.9566 H   0  0  0  0  0  0  0  0  0  0  0  0
  140.8090   78.0440  218.6640 H   0  0  0  0  0  0  0  0  0  0  0  0
  141.8809   79.3371  219.1927 H   0  0  0  0  0  0  0  0  0  0  0  0
  143.0232   78.0949  217.3871 H   0  0  0  0  0  0  0  0  0  0  0  0
  143.8489   77.6772  218.9277 H   0  0  0  0  0  0  0  0  0  0  0  0
  141.8388   76.0878  217.3432 H   0  0  0  0  0  0  0  0  0  0  0  0
  143.5593   75.6754  217.8774 H   0  0  0  0  0  0  0  0  0  0  0  0
  141.2331   74.8502  218.8914 H   0  0  0  0  0  0  0  0  0  0  0  0
  141.6505   72.7891  219.9342 H   0  0  0  0  0  0  0  0  0  0  0  0
  143.2121   71.1360  220.8014 H   0  0  0  0  0  0  0  0  0  0  0  0
  145.5818   71.7435  221.2483 H   0  0  0  0  0  0  0  0  0  0  0  0
  144.7417   75.7400  219.9087 H   0  0  0  0  0  0  0  0  0  0  0  0
  139.0061   69.7351  222.4095 H   0  0  0  0  0  0  0  0  0  0  0  0
  138.8744   68.2963  224.4197 H   0  0  0  0  0  0  0  0  0  0  0  0
  139.3073   67.9975  226.7335 H   0  0  0  0  0  0  0  0  0  0  0  0
  141.2066   71.0966  229.0042 H   0  0  0  0  0  0  0  0  0  0  0  0
  141.3272   72.5109  226.9728 H   0  0  0  0  0  0  0  0  0  0  0  0
  1  2  2  0
  2  3  1  0
  3  4  1  0
  4  5  1  0
  5  6  2  0
  5  7  1  0
  7  8  1  0
  8  9  1  0
  9 10  1  0
 10 11  1  0
 11 12  1  0
 12 13  1  0
 13 14  2  0
 14 15  1  0
 15 16  2  0
 16 17  1  0
 17 18  1  0
 17 19  2  0
  2 20  1  0
 20 21  2  0
 21 22  1  0
 22 23  2  0
 23 24  1  0
 24 25  2  0
 25 26  1  0
 25 27  1  0
 27 28  2  0
 28 29  1  0
 29 30  2  0
 12  7  1  0
 19 13  1  0
 30 20  1  0
 29 23  1  0
  3 31  1  0
  4 32  1  0
  4 33  1  0
  8 34  1  0
  8 35  1  0
  9 36  1  0
  9 37  1  0
 10 38  1  0
 10 39  1  0
 11 40  1  0
 11 41  1  0
 12 42  1  6
 14 43  1  0
 15 44  1  0
 16 45  1  0
 19 46  1  0
 21 47  1  0
 22 48  1  0
 24 49  1  0
 27 50  1  0
 28 51  1  0
M  END
>  <smiles>  (93) 
O=C(NCC(=O)N1CCCCC1c1cccc(F)c1)c1ccc2cc(F)ccc2n1

>  <score_type>  (93) 
oracle

>  <origin>  (93) 
autodockgpu

>  <m_score__min__energy>  (93) 
-8.7599999999999998

>  <m_primary>  (93) 
energy

>  <rmsd>  (93) 
2.1890216079183977

>  <m_score__min__rmsd>  (93) 
2.1890216079183977

>  <meeko>  (93) 
{"free_energy": -8.67, "intermolecular_energy": -10.16, "internal_energy": -1.97, "cluster_size": 35, "cluster_id": 1, "rank_in_cluster": 23}

>  <energy>  (93) 
-8.46

>  <cluster_rmsd>  (93) 
0.66

>  <cluster>  (93) 
3

$$$$

     RDKit          3D

 51 54  0  0  0  0  0  0  0  0999 V2000
  140.8220   71.7930  221.1400 O   0  0  0  0  0  0  0  0  0  0  0  0
  140.2880   72.2990  222.1780 C   0  0  0  0  0  0  0  0  0  0  0  0
  139.8050   73.6310  222.1990 N   0  0  0  0  0  0  0  0  0  0  0  0
  139.9270   74.4330  220.9940 C   0  0  0  0  0  0  0  0  0  0  0  0
  140.8960   75.5220  221.2120 C   0  0  0  0  0  0  0  0  0  0  0  0
  141.0380   76.0210  222.3750 O   0  0  0  0  0  0  0  0  0  0  0  0
  141.7140   76.0810  220.1940 N   0  0  0  0  0  0  0  0  0  0  0  0
  141.9330   77.5090  220.2280 C   0  0  0  0  0  0  0  0  0  0  0  0
  141.7950   78.0470  218.8040 C   0  0  0  0  0  0  0  0  0  0  0  0
  142.9480   77.4040  218.0400 C   0  0  0  0  0  0  0  0  0  0  0  0
  142.7210   75.9330  217.9370 C   0  0  0  0  0  0  0  0  0  0  0  0
  142.2860   75.2460  219.1840 C   0  0  1  0  0  0  0  0  0  0  0  0
  143.3310   74.3660  219.7600 C   0  0  0  0  0  0  0  0  0  0  0  0
  144.5150   74.8870  220.2930 C   0  0  0  0  0  0  0  0  0  0  0  0
  145.4960   74.1050  220.8300 C   0  0  0  0  0  0  0  0  0  0  0  0
  145.3600   72.7380  220.8710 C   0  0  0  0  0  0  0  0  0  0  0  0
  144.2000   72.1850  220.3530 C   0  0  0  0  0  0  0  0  0  0  0  0
  144.0280   70.8430  220.3750 F   0  0  0  0  0  0  0  0  0  0  0  0
  143.2180   72.9880  219.8130 C   0  0  0  0  0  0  0  0  0  0  0  0
  140.1760   71.4740  223.3750 C   0  0  0  0  0  0  0  0  0  0  0  0
  139.5790   70.2310  223.3320 C   0  0  0  0  0  0  0  0  0  0  0  0
  139.4540   69.4200  224.4420 C   0  0  0  0  0  0  0  0  0  0  0  0
  139.9530   69.8880  225.6380 C   0  0  0  0  0  0  0  0  0  0  0  0
  139.8430   69.1000  226.7660 C   0  0  0  0  0  0  0  0  0  0  0  0
  140.3320   69.5350  227.9900 C   0  0  0  0  0  0  0  0  0  0  0  0
  140.1950   68.7210  229.0570 F   0  0  0  0  0  0  0  0  0  0  0  0
  140.9300   70.7760  228.0430 C   0  0  0  0  0  0  0  0  0  0  0  0
  141.0430   71.5720  226.9070 C   0  0  0  0  0  0  0  0  0  0  0  0
  140.5510   71.1310  225.6890 C   0  0  0  0  0  0  0  0  0  0  0  0
  140.6470   71.8800  224.5730 N   0  0  0  0  0  0  0  0  0  0  0  0
  139.3820   73.9710  223.0840 H   0  0  0  0  0  0  0  0  0  0  0  0
  140.2734   73.7969  220.1661 H   0  0  0  0  0  0  0  0  0  0  0  0
  138.9464   74.8652  220.7459 H   0  0  0  0  0  0  0  0  0  0  0  0
  141.1858   77.9850  220.8800 H   0  0  0  0  0  0  0  0  0  0  0  0
  142.9356   77.7305  220.6225 H   0  0  0  0  0  0  0  0  0  0  0  0
  140.8284   77.7529  218.3691 H   0  0  0  0  0  0  0  0  0  0  0  0
  141.8294   79.1458  218.7666 H   0  0  0  0  0  0  0  0  0  0  0  0
  143.0051   77.8372  217.0305 H   0  0  0  0  0  0  0  0  0  0  0  0
  143.8907   77.5918  218.5749 H   0  0  0  0  0  0  0  0  0  0  0  0
  141.9465   75.7656  217.1740 H   0  0  0  0  0  0  0  0  0  0  0  0
  143.7016   75.5005  217.6895 H   0  0  0  0  0  0  0  0  0  0  0  0
  141.4565   74.6181  218.8266 H   0  0  0  0  0  0  0  0  0  0  0  0
  144.6619   75.9771  220.2785 H   0  0  0  0  0  0  0  0  0  0  0  0
  146.4053   74.5738  221.2343 H   0  0  0  0  0  0  0  0  0  0  0  0
  146.1478   72.1025  221.3018 H   0  0  0  0  0  0  0  0  0  0  0  0
  142.3105   72.5154  219.4091 H   0  0  0  0  0  0  0  0  0  0  0  0
  139.1851   69.8702  222.3704 H   0  0  0  0  0  0  0  0  0  0  0  0
  138.9723   68.4334  224.3740 H   0  0  0  0  0  0  0  0  0  0  0  0
  139.3612   68.1138  226.6939 H   0  0  0  0  0  0  0  0  0  0  0  0
  141.3253   71.1440  229.0013 H   0  0  0  0  0  0  0  0  0  0  0  0
  141.5261   72.5578  226.9765 H   0  0  0  0  0  0  0  0  0  0  0  0
  1  2  2  0
  2  3  1  0
  3  4  1  0
  4  5  1  0
  5  6  2  0
  5  7  1  0
  7  8  1  0
  8  9  1  0
  9 10  1  0
 10 11  1  0
 11 12  1  0
 12 13  1  0
 13 14  2  0
 14 15  1  0
 15 16  2  0
 16 17  1  0
 17 18  1  0
 17 19  2  0
  2 20  1  0
 20 21  2  0
 21 22  1  0
 22 23  2  0
 23 24  1  0
 24 25  2  0
 25 26  1  0
 25 27  1  0
 27 28  2  0
 28 29  1  0
 29 30  2  0
 12  7  1  0
 19 13  1  0
 30 20  1  0
 29 23  1  0
  3 31  1  0
  4 32  1  0
  4 33  1  0
  8 34  1  0
  8 35  1  0
  9 36  1  0
  9 37  1  0
 10 38  1  0
 10 39  1  0
 11 40  1  0
 11 41  1  0
 12 42  1  6
 14 43  1  0
 15 44  1  0
 16 45  1  0
 19 46  1  0
 21 47  1  0
 22 48  1  0
 24 49  1  0
 27 50  1  0
 28 51  1  0
M  END
>  <smiles>  (94) 
O=C(NCC(=O)N1CCCCC1c1cccc(F)c1)c1ccc2cc(F)ccc2n1

>  <score_type>  (94) 
oracle

>  <origin>  (94) 
autodockgpu

>  <m_score__min__energy>  (94) 
-8.7599999999999998

>  <m_primary>  (94) 
energy

>  <rmsd>  (94) 
2.223339345649135

>  <m_score__min__rmsd>  (94) 
2.223339345649135

>  <meeko>  (94) 
{"free_energy": -8.71, "intermolecular_energy": -10.21, "internal_energy": -1.89, "cluster_size": 35, "cluster_id": 1, "rank_in_cluster": 6}

>  <energy>  (94) 
-8.44

>  <cluster_rmsd>  (94) 
0.62

>  <cluster>  (94) 
3

$$$$

     RDKit          3D

 51 54  0  0  0  0  0  0  0  0999 V2000
  141.4290   71.9190  221.4690 O   0  0  0  0  0  0  0  0  0  0  0  0
  140.5340   72.3170  222.2800 C   0  0  0  0  0  0  0  0  0  0  0  0
  139.7820   73.4960  222.0500 N   0  0  0  0  0  0  0  0  0  0  0  0
  140.0510   74.2650  220.8470 C   0  0  0  0  0  0  0  0  0  0  0  0
  141.0610   75.3010  221.1290 C   0  0  0  0  0  0  0  0  0  0  0  0
  141.2850   75.6580  222.3310 O   0  0  0  0  0  0  0  0  0  0  0  0
  141.8320   75.9580  220.1330 N   0  0  0  0  0  0  0  0  0  0  0  0
  142.0490   77.3780  220.2920 C   0  0  0  0  0  0  0  0  0  0  0  0
  141.8490   78.0460  218.9310 C   0  0  0  0  0  0  0  0  0  0  0  0
  142.9690   77.4850  218.0620 C   0  0  0  0  0  0  0  0  0  0  0  0
  142.7420   76.0280  217.8320 C   0  0  0  0  0  0  0  0  0  0  0  0
  142.3630   75.2250  219.0270 C   0  0  1  0  0  0  0  0  0  0  0  0
  143.4340   74.3020  219.4720 C   0  0  0  0  0  0  0  0  0  0  0  0
  143.5650   73.0180  218.9350 C   0  0  0  0  0  0  0  0  0  0  0  0
  144.5390   72.1440  219.3220 C   0  0  0  0  0  0  0  0  0  0  0  0
  145.4560   72.4980  220.2830 C   0  0  0  0  0  0  0  0  0  0  0  0
  145.3590   73.7630  220.8390 C   0  0  0  0  0  0  0  0  0  0  0  0
  146.2430   74.1500  221.7880 F   0  0  0  0  0  0  0  0  0  0  0  0
  144.3690   74.6340  220.4370 C   0  0  0  0  0  0  0  0  0  0  0  0
  140.2830   71.5270  223.4810 C   0  0  0  0  0  0  0  0  0  0  0  0
  139.5680   70.3480  223.4220 C   0  0  0  0  0  0  0  0  0  0  0  0
  139.3090   69.5720  224.5340 C   0  0  0  0  0  0  0  0  0  0  0  0
  139.7930   70.0100  225.7480 C   0  0  0  0  0  0  0  0  0  0  0  0
  139.5510   69.2550  226.8780 C   0  0  0  0  0  0  0  0  0  0  0  0
  140.0190   69.6610  228.1200 C   0  0  0  0  0  0  0  0  0  0  0  0
  139.7510   68.8820  229.1890 F   0  0  0  0  0  0  0  0  0  0  0  0
  140.7340   70.8380  228.1890 C   0  0  0  0  0  0  0  0  0  0  0  0
  140.9810   71.5990  227.0500 C   0  0  0  0  0  0  0  0  0  0  0  0
  140.5080   71.1880  225.8140 C   0  0  0  0  0  0  0  0  0  0  0  0
  140.7320   71.9050  224.6960 N   0  0  0  0  0  0  0  0  0  0  0  0
  139.0700   73.7540  222.7590 H   0  0  0  0  0  0  0  0  0  0  0  0
  140.4271   73.5933  220.0613 H   0  0  0  0  0  0  0  0  0  0  0  0
  139.1216   74.7475  220.5103 H   0  0  0  0  0  0  0  0  0  0  0  0
  141.3291   77.7861  221.0167 H   0  0  0  0  0  0  0  0  0  0  0  0
  143.0668   77.5681  220.6633 H   0  0  0  0  0  0  0  0  0  0  0  0
  140.8653   77.7877  218.5120 H   0  0  0  0  0  0  0  0  0  0  0  0
  141.8795   79.1437  218.9954 H   0  0  0  0  0  0  0  0  0  0  0  0
  142.9810   78.0107  217.0958 H   0  0  0  0  0  0  0  0  0  0  0  0
  143.9334   77.6286  218.5712 H   0  0  0  0  0  0  0  0  0  0  0  0
  141.9359   75.9269  217.0904 H   0  0  0  0  0  0  0  0  0  0  0  0
  143.7124   75.6272  217.5037 H   0  0  0  0  0  0  0  0  0  0  0  0
  141.5203   74.6273  218.6493 H   0  0  0  0  0  0  0  0  0  0  0  0
  142.8491   72.6969  218.1640 H   0  0  0  0  0  0  0  0  0  0  0  0
  144.5908   71.1468  218.8606 H   0  0  0  0  0  0  0  0  0  0  0  0
  146.2428   71.7981  220.6008 H   0  0  0  0  0  0  0  0  0  0  0  0
  144.3203   75.6304  220.9006 H   0  0  0  0  0  0  0  0  0  0  0  0
  139.1878   70.0119  222.4461 H   0  0  0  0  0  0  0  0  0  0  0  0
  138.7361   68.6364  224.4540 H   0  0  0  0  0  0  0  0  0  0  0  0
  138.9795   68.3189  226.7930 H   0  0  0  0  0  0  0  0  0  0  0  0
  141.1160   71.1817  229.1616 H   0  0  0  0  0  0  0  0  0  0  0  0
  141.5558   72.5333  227.1316 H   0  0  0  0  0  0  0  0  0  0  0  0
  1  2  2  0
  2  3  1  0
  3  4  1  0
  4  5  1  0
  5  6  2  0
  5  7  1  0
  7  8  1  0
  8  9  1  0
  9 10  1  0
 10 11  1  0
 11 12  1  0
 12 13  1  0
 13 14  2  0
 14 15  1  0
 15 16  2  0
 16 17  1  0
 17 18  1  0
 17 19  2  0
  2 20  1  0
 20 21  2  0
 21 22  1  0
 22 23  2  0
 23 24  1  0
 24 25  2  0
 25 26  1  0
 25 27  1  0
 27 28  2  0
 28 29  1  0
 29 30  2  0
 12  7  1  0
 19 13  1  0
 30 20  1  0
 29 23  1  0
  3 31  1  0
  4 32  1  0
  4 33  1  0
  8 34  1  0
  8 35  1  0
  9 36  1  0
  9 37  1  0
 10 38  1  0
 10 39  1  0
 11 40  1  0
 11 41  1  0
 12 42  1  6
 14 43  1  0
 15 44  1  0
 16 45  1  0
 19 46  1  0
 21 47  1  0
 22 48  1  0
 24 49  1  0
 27 50  1  0
 28 51  1  0
M  END
>  <smiles>  (95) 
O=C(NCC(=O)N1CCCCC1c1cccc(F)c1)c1ccc2cc(F)ccc2n1

>  <score_type>  (95) 
oracle

>  <origin>  (95) 
autodockgpu

>  <m_score__min__energy>  (95) 
-8.7599999999999998

>  <m_primary>  (95) 
energy

>  <rmsd>  (95) 
2.3020269897946077

>  <m_score__min__rmsd>  (95) 
2.3020269897946077

>  <meeko>  (95) 
{"free_energy": -8.56, "intermolecular_energy": -10.05, "internal_energy": -1.74, "cluster_size": 35, "cluster_id": 1, "rank_in_cluster": 29}

>  <energy>  (95) 
-8.44

>  <cluster_rmsd>  (95) 
0.62

>  <cluster>  (95) 
3

$$$$

     RDKit          3D

 51 54  0  0  0  0  0  0  0  0999 V2000
  140.6010   71.5620  221.0890 O   0  0  0  0  0  0  0  0  0  0  0  0
  140.2120   72.1230  222.1630 C   0  0  0  0  0  0  0  0  0  0  0  0
  139.8840   73.5010  222.2140 N   0  0  0  0  0  0  0  0  0  0  0  0
  139.9970   74.2860  220.9970 C   0  0  0  0  0  0  0  0  0  0  0  0
  140.7620   75.5180  221.2650 C   0  0  0  0  0  0  0  0  0  0  0  0
  140.6720   76.0860  222.4010 O   0  0  0  0  0  0  0  0  0  0  0  0
  141.6230   76.1440  220.3240 N   0  0  0  0  0  0  0  0  0  0  0  0
  141.8310   77.5670  220.4610 C   0  0  0  0  0  0  0  0  0  0  0  0
  141.7570   78.1970  219.0700 C   0  0  0  0  0  0  0  0  0  0  0  0
  142.9490   77.6080  218.3210 C   0  0  0  0  0  0  0  0  0  0  0  0
  142.7360   76.1460  218.1130 C   0  0  0  0  0  0  0  0  0  0  0  0
  142.2480   75.3790  219.2910 C   0  0  1  0  0  0  0  0  0  0  0  0
  143.2700   74.4670  219.8570 C   0  0  0  0  0  0  0  0  0  0  0  0
  144.5070   74.9420  220.3050 C   0  0  0  0  0  0  0  0  0  0  0  0
  145.4700   74.1300  220.8310 C   0  0  0  0  0  0  0  0  0  0  0  0
  145.2600   72.7760  220.9460 C   0  0  0  0  0  0  0  0  0  0  0  0
  144.0450   72.2680  220.5130 C   0  0  0  0  0  0  0  0  0  0  0  0
  143.8000   70.9410  220.6080 F   0  0  0  0  0  0  0  0  0  0  0  0
  143.0840   73.1020  219.9830 C   0  0  0  0  0  0  0  0  0  0  0  0
  140.1060   71.3130  223.3720 C   0  0  0  0  0  0  0  0  0  0  0  0
  139.5710   70.0420  223.3330 C   0  0  0  0  0  0  0  0  0  0  0  0
  139.4530   69.2440  224.4540 C   0  0  0  0  0  0  0  0  0  0  0  0
  139.8940   69.7560  225.6550 C   0  0  0  0  0  0  0  0  0  0  0  0
  139.7900   68.9820  226.7930 C   0  0  0  0  0  0  0  0  0  0  0  0
  140.2210   69.4600  228.0230 C   0  0  0  0  0  0  0  0  0  0  0  0
  140.0930   68.6570  229.1000 F   0  0  0  0  0  0  0  0  0  0  0  0
  140.7560   70.7290  228.0710 C   0  0  0  0  0  0  0  0  0  0  0  0
  140.8640   71.5110  226.9240 C   0  0  0  0  0  0  0  0  0  0  0  0
  140.4300   71.0270  225.7010 C   0  0  0  0  0  0  0  0  0  0  0  0
  140.5210   71.7610  224.5750 N   0  0  0  0  0  0  0  0  0  0  0  0
  139.5740   73.8840  223.1280 H   0  0  0  0  0  0  0  0  0  0  0  0
  140.5154   73.6945  220.2280 H   0  0  0  0  0  0  0  0  0  0  0  0
  138.9904   74.5538  220.6434 H   0  0  0  0  0  0  0  0  0  0  0  0
  141.0508   77.9969  221.1064 H   0  0  0  0  0  0  0  0  0  0  0  0
  142.8126   77.7653  220.9161 H   0  0  0  0  0  0  0  0  0  0  0  0
  140.8136   77.9295  218.5715 H   0  0  0  0  0  0  0  0  0  0  0  0
  141.7867   79.2960  219.1060 H   0  0  0  0  0  0  0  0  0  0  0  0
  143.0506   78.1057  217.3453 H   0  0  0  0  0  0  0  0  0  0  0  0
  143.8645   77.7638  218.9107 H   0  0  0  0  0  0  0  0  0  0  0  0
  141.9988   76.0258  217.3055 H   0  0  0  0  0  0  0  0  0  0  0  0
  143.7297   75.7334  217.8842 H   0  0  0  0  0  0  0  0  0  0  0  0
  141.4401   74.7729  218.8553 H   0  0  0  0  0  0  0  0  0  0  0  0
  144.7134   76.0199  220.2300 H   0  0  0  0  0  0  0  0  0  0  0  0
  146.4238   74.5633  221.1663 H   0  0  0  0  0  0  0  0  0  0  0  0
  146.0322   72.1163  221.3685 H   0  0  0  0  0  0  0  0  0  0  0  0
  142.1320   72.6651  219.6471 H   0  0  0  0  0  0  0  0  0  0  0  0
  139.2233   69.6470  222.3670 H   0  0  0  0  0  0  0  0  0  0  0  0
  139.0217   68.2341  224.3903 H   0  0  0  0  0  0  0  0  0  0  0  0
  139.3595   67.9721  226.7244 H   0  0  0  0  0  0  0  0  0  0  0  0
  141.1043   71.1318  229.0335 H   0  0  0  0  0  0  0  0  0  0  0  0
  141.2970   72.5201  226.9896 H   0  0  0  0  0  0  0  0  0  0  0  0
  1  2  2  0
  2  3  1  0
  3  4  1  0
  4  5  1  0
  5  6  2  0
  5  7  1  0
  7  8  1  0
  8  9  1  0
  9 10  1  0
 10 11  1  0
 11 12  1  0
 12 13  1  0
 13 14  2  0
 14 15  1  0
 15 16  2  0
 16 17  1  0
 17 18  1  0
 17 19  2  0
  2 20  1  0
 20 21  2  0
 21 22  1  0
 22 23  2  0
 23 24  1  0
 24 25  2  0
 25 26  1  0
 25 27  1  0
 27 28  2  0
 28 29  1  0
 29 30  2  0
 12  7  1  0
 19 13  1  0
 30 20  1  0
 29 23  1  0
  3 31  1  0
  4 32  1  0
  4 33  1  0
  8 34  1  0
  8 35  1  0
  9 36  1  0
  9 37  1  0
 10 38  1  0
 10 39  1  0
 11 40  1  0
 11 41  1  0
 12 42  1  6
 14 43  1  0
 15 44  1  0
 16 45  1  0
 19 46  1  0
 21 47  1  0
 22 48  1  0
 24 49  1  0
 27 50  1  0
 28 51  1  0
M  END
>  <smiles>  (96) 
O=C(NCC(=O)N1CCCCC1c1cccc(F)c1)c1ccc2cc(F)ccc2n1

>  <score_type>  (96) 
oracle

>  <origin>  (96) 
autodockgpu

>  <m_score__min__energy>  (96) 
-8.7599999999999998

>  <m_primary>  (96) 
energy

>  <rmsd>  (96) 
2.2062471426128436

>  <m_score__min__rmsd>  (96) 
2.2062471426128436

>  <meeko>  (96) 
{"free_energy": -8.68, "intermolecular_energy": -10.18, "internal_energy": -1.99, "cluster_size": 35, "cluster_id": 1, "rank_in_cluster": 14}

>  <energy>  (96) 
-8.23

>  <cluster_rmsd>  (96) 
1.06

>  <cluster>  (96) 
3

$$$$

     RDKit          3D

 51 54  0  0  0  0  0  0  0  0999 V2000
  140.7510   71.7530  221.1110 O   0  0  0  0  0  0  0  0  0  0  0  0
  140.2720   72.2780  222.1660 C   0  0  0  0  0  0  0  0  0  0  0  0
  139.8420   73.6270  222.2050 N   0  0  0  0  0  0  0  0  0  0  0  0
  139.9560   74.4260  220.9970 C   0  0  0  0  0  0  0  0  0  0  0  0
  140.8830   75.5500  221.2240 C   0  0  0  0  0  0  0  0  0  0  0  0
  140.9850   76.0630  222.3850 O   0  0  0  0  0  0  0  0  0  0  0  0
  141.7020   76.1270  220.2170 N   0  0  0  0  0  0  0  0  0  0  0  0
  141.9220   77.5530  220.2780 C   0  0  0  0  0  0  0  0  0  0  0  0
  141.7860   78.1190  218.8640 C   0  0  0  0  0  0  0  0  0  0  0  0
  142.9390   77.4890  218.0890 C   0  0  0  0  0  0  0  0  0  0  0  0
  142.7100   76.0210  217.9580 C   0  0  0  0  0  0  0  0  0  0  0  0
  142.2740   75.3110  219.1920 C   0  0  1  0  0  0  0  0  0  0  0  0
  143.3180   74.4190  219.7510 C   0  0  0  0  0  0  0  0  0  0  0  0
  144.5120   74.9270  220.2720 C   0  0  0  0  0  0  0  0  0  0  0  0
  145.4930   74.1350  220.7950 C   0  0  0  0  0  0  0  0  0  0  0  0
  145.3450   72.7680  220.8310 C   0  0  0  0  0  0  0  0  0  0  0  0
  144.1740   72.2280  220.3240 C   0  0  0  0  0  0  0  0  0  0  0  0
  143.9910   70.8870  220.3410 F   0  0  0  0  0  0  0  0  0  0  0  0
  143.1940   73.0420  219.7990 C   0  0  0  0  0  0  0  0  0  0  0  0
  140.1680   71.4550  223.3660 C   0  0  0  0  0  0  0  0  0  0  0  0
  139.5760   70.2090  223.3270 C   0  0  0  0  0  0  0  0  0  0  0  0
  139.4590   69.4000  224.4400 C   0  0  0  0  0  0  0  0  0  0  0  0
  139.9590   69.8730  225.6340 C   0  0  0  0  0  0  0  0  0  0  0  0
  139.8560   69.0880  226.7630 C   0  0  0  0  0  0  0  0  0  0  0  0
  140.3470   69.5270  227.9850 C   0  0  0  0  0  0  0  0  0  0  0  0
  140.2170   68.7150  229.0550 F   0  0  0  0  0  0  0  0  0  0  0  0
  140.9390   70.7720  228.0330 C   0  0  0  0  0  0  0  0  0  0  0  0
  141.0450   71.5650  226.8950 C   0  0  0  0  0  0  0  0  0  0  0  0
  140.5520   71.1190  225.6790 C   0  0  0  0  0  0  0  0  0  0  0  0
  140.6400   71.8660  224.5620 N   0  0  0  0  0  0  0  0  0  0  0  0
  139.4630   73.9820  223.1030 H   0  0  0  0  0  0  0  0  0  0  0  0
  140.3381   73.7977  220.1789 H   0  0  0  0  0  0  0  0  0  0  0  0
  138.9651   74.8222  220.7301 H   0  0  0  0  0  0  0  0  0  0  0  0
  141.1745   78.0171  220.9382 H   0  0  0  0  0  0  0  0  0  0  0  0
  142.9246   77.7658  220.6773 H   0  0  0  0  0  0  0  0  0  0  0  0
  140.8194   77.8348  218.4226 H   0  0  0  0  0  0  0  0  0  0  0  0
  141.8218   79.2183  218.8478 H   0  0  0  0  0  0  0  0  0  0  0  0
  142.9977   77.9412  217.0880 H   0  0  0  0  0  0  0  0  0  0  0  0
  143.8814   77.6653  218.6283 H   0  0  0  0  0  0  0  0  0  0  0  0
  141.9353   75.8692  217.1920 H   0  0  0  0  0  0  0  0  0  0  0  0
  143.6900   75.5919  217.7021 H   0  0  0  0  0  0  0  0  0  0  0  0
  141.4439   74.6907  218.8231 H   0  0  0  0  0  0  0  0  0  0  0  0
  144.6680   76.0158  220.2598 H   0  0  0  0  0  0  0  0  0  0  0  0
  146.4105   74.5943  221.1914 H   0  0  0  0  0  0  0  0  0  0  0  0
  146.1320   72.1233  221.2494 H   0  0  0  0  0  0  0  0  0  0  0  0
  142.2781   72.5792  219.4029 H   0  0  0  0  0  0  0  0  0  0  0  0
  139.1801   69.8444  222.3676 H   0  0  0  0  0  0  0  0  0  0  0  0
  138.9824   68.4107  224.3757 H   0  0  0  0  0  0  0  0  0  0  0  0
  139.3779   68.0997  226.6943 H   0  0  0  0  0  0  0  0  0  0  0  0
  141.3347   71.1448  228.9892 H   0  0  0  0  0  0  0  0  0  0  0  0
  141.5236   72.5532  226.9608 H   0  0  0  0  0  0  0  0  0  0  0  0
  1  2  2  0
  2  3  1  0
  3  4  1  0
  4  5  1  0
  5  6  2  0
  5  7  1  0
  7  8  1  0
  8  9  1  0
  9 10  1  0
 10 11  1  0
 11 12  1  0
 12 13  1  0
 13 14  2  0
 14 15  1  0
 15 16  2  0
 16 17  1  0
 17 18  1  0
 17 19  2  0
  2 20  1  0
 20 21  2  0
 21 22  1  0
 22 23  2  0
 23 24  1  0
 24 25  2  0
 25 26  1  0
 25 27  1  0
 27 28  2  0
 28 29  1  0
 29 30  2  0
 12  7  1  0
 19 13  1  0
 30 20  1  0
 29 23  1  0
  3 31  1  0
  4 32  1  0
  4 33  1  0
  8 34  1  0
  8 35  1  0
  9 36  1  0
  9 37  1  0
 10 38  1  0
 10 39  1  0
 11 40  1  0
 11 41  1  0
 12 42  1  6
 14 43  1  0
 15 44  1  0
 16 45  1  0
 19 46  1  0
 21 47  1  0
 22 48  1  0
 24 49  1  0
 27 50  1  0
 28 51  1  0
M  END
>  <smiles>  (97) 
O=C(NCC(=O)N1CCCCC1c1cccc(F)c1)c1ccc2cc(F)ccc2n1

>  <score_type>  (97) 
oracle

>  <origin>  (97) 
autodockgpu

>  <m_score__min__energy>  (97) 
-8.7599999999999998

>  <m_primary>  (97) 
energy

>  <rmsd>  (97) 
2.2256073608728384

>  <m_score__min__rmsd>  (97) 
2.2256073608728384

>  <meeko>  (97) 
{"free_energy": -8.68, "intermolecular_energy": -10.17, "internal_energy": -1.92, "cluster_size": 35, "cluster_id": 1, "rank_in_cluster": 16}

>  <energy>  (97) 
-8.3

>  <cluster_rmsd>  (97) 
0.0

>  <cluster>  (97) 
4

$$$$

     RDKit          3D

 51 54  0  0  0  0  0  0  0  0999 V2000
  141.2590   71.9530  221.3490 O   0  0  0  0  0  0  0  0  0  0  0  0
  140.4180   72.3380  222.2220 C   0  0  0  0  0  0  0  0  0  0  0  0
  139.6710   73.5330  222.0690 N   0  0  0  0  0  0  0  0  0  0  0  0
  139.8800   74.3330  220.8740 C   0  0  0  0  0  0  0  0  0  0  0  0
  140.8850   75.3780  221.1400 C   0  0  0  0  0  0  0  0  0  0  0  0
  141.0780   75.7840  222.3320 O   0  0  0  0  0  0  0  0  0  0  0  0
  141.6840   75.9920  220.1390 N   0  0  0  0  0  0  0  0  0  0  0  0
  141.8570   77.4240  220.2140 C   0  0  0  0  0  0  0  0  0  0  0  0
  141.7020   77.9980  218.8050 C   0  0  0  0  0  0  0  0  0  0  0  0
  142.8760   77.4140  218.0250 C   0  0  0  0  0  0  0  0  0  0  0  0
  142.6970   75.9400  217.8800 C   0  0  0  0  0  0  0  0  0  0  0  0
  142.2840   75.2050  219.1070 C   0  0  1  0  0  0  0  0  0  0  0  0
  143.3570   74.3440  219.6590 C   0  0  0  0  0  0  0  0  0  0  0  0
  144.4710   74.8860  220.3080 C   0  0  0  0  0  0  0  0  0  0  0  0
  145.4750   74.1220  220.8270 C   0  0  0  0  0  0  0  0  0  0  0  0
  145.4340   72.7510  220.7320 C   0  0  0  0  0  0  0  0  0  0  0  0
  144.3460   72.1770  220.0950 C   0  0  0  0  0  0  0  0  0  0  0  0
  144.2690   70.8300  219.9800 F   0  0  0  0  0  0  0  0  0  0  0  0
  143.3400   72.9620  219.5760 C   0  0  0  0  0  0  0  0  0  0  0  0
  140.2260   71.5180  223.4130 C   0  0  0  0  0  0  0  0  0  0  0  0
  139.5390   70.3230  223.3520 C   0  0  0  0  0  0  0  0  0  0  0  0
  139.3360   69.5180  224.4550 C   0  0  0  0  0  0  0  0  0  0  0  0
  139.8490   69.9410  225.6620 C   0  0  0  0  0  0  0  0  0  0  0  0
  139.6630   69.1580  226.7820 C   0  0  0  0  0  0  0  0  0  0  0  0
  140.1640   69.5480  228.0170 C   0  0  0  0  0  0  0  0  0  0  0  0
  139.9490   68.7410  229.0770 F   0  0  0  0  0  0  0  0  0  0  0  0
  140.8520   70.7410  228.0870 C   0  0  0  0  0  0  0  0  0  0  0  0
  141.0420   71.5320  226.9580 C   0  0  0  0  0  0  0  0  0  0  0  0
  140.5380   71.1350  225.7290 C   0  0  0  0  0  0  0  0  0  0  0  0
  140.7070   71.8810  224.6200 N   0  0  0  0  0  0  0  0  0  0  0  0
  139.0040   73.7790  222.8250 H   0  0  0  0  0  0  0  0  0  0  0  0
  140.2343   73.6852  220.0586 H   0  0  0  0  0  0  0  0  0  0  0  0
  138.9308   74.8081  220.5853 H   0  0  0  0  0  0  0  0  0  0  0  0
  141.0947   77.8570  220.8785 H   0  0  0  0  0  0  0  0  0  0  0  0
  142.8519   77.6662  220.6158 H   0  0  0  0  0  0  0  0  0  0  0  0
  140.7456   77.6854  218.3606 H   0  0  0  0  0  0  0  0  0  0  0  0
  141.7005   79.0980  218.7986 H   0  0  0  0  0  0  0  0  0  0  0  0
  142.9199   77.8772  217.0282 H   0  0  0  0  0  0  0  0  0  0  0  0
  143.8116   77.6168  218.5669 H   0  0  0  0  0  0  0  0  0  0  0  0
  141.9287   75.7691  217.1116 H   0  0  0  0  0  0  0  0  0  0  0  0
  143.6911   75.5464  217.6212 H   0  0  0  0  0  0  0  0  0  0  0  0
  141.4752   74.5608  218.7316 H   0  0  0  0  0  0  0  0  0  0  0  0
  144.5409   75.9795  220.4045 H   0  0  0  0  0  0  0  0  0  0  0  0
  146.3261   74.6078  221.3266 H   0  0  0  0  0  0  0  0  0  0  0  0
  146.2401   72.1293  221.1488 H   0  0  0  0  0  0  0  0  0  0  0  0
  142.4909   72.4723  219.0767 H   0  0  0  0  0  0  0  0  0  0  0  0
  139.1353   69.9974  222.3819 H   0  0  0  0  0  0  0  0  0  0  0  0
  138.7832   68.5705  224.3731 H   0  0  0  0  0  0  0  0  0  0  0  0
  139.1099   68.2111  226.6958 H   0  0  0  0  0  0  0  0  0  0  0  0
  141.2583   71.0737  229.0536 H   0  0  0  0  0  0  0  0  0  0  0  0
  141.5959   72.4787  227.0412 H   0  0  0  0  0  0  0  0  0  0  0  0
  1  2  2  0
  2  3  1  0
  3  4  1  0
  4  5  1  0
  5  6  2  0
  5  7  1  0
  7  8  1  0
  8  9  1  0
  9 10  1  0
 10 11  1  0
 11 12  1  0
 12 13  1  0
 13 14  2  0
 14 15  1  0
 15 16  2  0
 16 17  1  0
 17 18  1  0
 17 19  2  0
  2 20  1  0
 20 21  2  0
 21 22  1  0
 22 23  2  0
 23 24  1  0
 24 25  2  0
 25 26  1  0
 25 27  1  0
 27 28  2  0
 28 29  1  0
 29 30  2  0
 12  7  1  0
 19 13  1  0
 30 20  1  0
 29 23  1  0
  3 31  1  0
  4 32  1  0
  4 33  1  0
  8 34  1  0
  8 35  1  0
  9 36  1  0
  9 37  1  0
 10 38  1  0
 10 39  1  0
 11 40  1  0
 11 41  1  0
 12 42  1  6
 14 43  1  0
 15 44  1  0
 16 45  1  0
 19 46  1  0
 21 47  1  0
 22 48  1  0
 24 49  1  0
 27 50  1  0
 28 51  1  0
M  END
>  <smiles>  (98) 
O=C(NCC(=O)N1CCCCC1c1cccc(F)c1)c1ccc2cc(F)ccc2n1

>  <score_type>  (98) 
oracle

>  <origin>  (98) 
autodockgpu

>  <m_score__min__energy>  (98) 
-8.7599999999999998

>  <m_primary>  (98) 
energy

>  <rmsd>  (98) 
2.2175249065485696

>  <m_score__min__rmsd>  (98) 
2.2175249065485696

>  <meeko>  (98) 
{"free_energy": -8.76, "intermolecular_energy": -10.25, "internal_energy": -1.77, "cluster_size": 35, "cluster_id": 1, "rank_in_cluster": 1}

>  <energy>  (98) 
-8.23

>  <cluster_rmsd>  (98) 
0.0

>  <cluster>  (98) 
5

$$$$

     RDKit          3D

 51 54  0  0  0  0  0  0  0  0999 V2000
  140.2360   71.7960  221.0800 O   0  0  0  0  0  0  0  0  0  0  0  0
  139.9850   72.3260  222.2080 C   0  0  0  0  0  0  0  0  0  0  0  0
  139.7530   73.7170  222.3490 N   0  0  0  0  0  0  0  0  0  0  0  0
  139.8060   74.5530  221.1610 C   0  0  0  0  0  0  0  0  0  0  0  0
  140.7960   75.6290  221.3500 C   0  0  0  0  0  0  0  0  0  0  0  0
  140.9330   76.1720  222.4930 O   0  0  0  0  0  0  0  0  0  0  0  0
  141.6390   76.1290  220.3210 N   0  0  0  0  0  0  0  0  0  0  0  0
  141.9450   77.5410  220.3430 C   0  0  0  0  0  0  0  0  0  0  0  0
  141.8310   78.0770  218.9150 C   0  0  0  0  0  0  0  0  0  0  0  0
  142.9370   77.3580  218.1490 C   0  0  0  0  0  0  0  0  0  0  0  0
  142.6190   75.9030  218.0590 C   0  0  0  0  0  0  0  0  0  0  0  0
  142.1510   75.2540  219.3140 C   0  0  1  0  0  0  0  0  0  0  0  0
  143.1450   74.3150  219.8900 C   0  0  0  0  0  0  0  0  0  0  0  0
  142.7960   73.0090  220.2480 C   0  0  0  0  0  0  0  0  0  0  0  0
  143.6850   72.1210  220.7790 C   0  0  0  0  0  0  0  0  0  0  0  0
  144.9950   72.4810  220.9920 C   0  0  0  0  0  0  0  0  0  0  0  0
  145.3780   73.7680  220.6500 C   0  0  0  0  0  0  0  0  0  0  0  0
  146.6580   74.1620  220.8440 F   0  0  0  0  0  0  0  0  0  0  0  0
  144.4670   74.6540  220.1140 C   0  0  0  0  0  0  0  0  0  0  0  0
  139.9360   71.4670  223.3860 C   0  0  0  0  0  0  0  0  0  0  0  0
  139.4020   70.1960  223.3200 C   0  0  0  0  0  0  0  0  0  0  0  0
  139.3380   69.3520  224.4100 C   0  0  0  0  0  0  0  0  0  0  0  0
  139.8330   69.8150  225.6100 C   0  0  0  0  0  0  0  0  0  0  0  0
  139.7840   68.9940  226.7180 C   0  0  0  0  0  0  0  0  0  0  0  0
  140.2720   69.4220  227.9450 C   0  0  0  0  0  0  0  0  0  0  0  0
  140.1950   68.5750  228.9930 F   0  0  0  0  0  0  0  0  0  0  0  0
  140.8080   70.6900  228.0210 C   0  0  0  0  0  0  0  0  0  0  0  0
  140.8600   71.5190  226.9040 C   0  0  0  0  0  0  0  0  0  0  0  0
  140.3690   71.0850  225.6830 C   0  0  0  0  0  0  0  0  0  0  0  0
  140.4070   71.8660  224.5860 N   0  0  0  0  0  0  0  0  0  0  0  0
  139.5540   74.0740  223.3030 H   0  0  0  0  0  0  0  0  0  0  0  0
  140.0950   73.9390  220.2953 H   0  0  0  0  0  0  0  0  0  0  0  0
  138.8154   74.9981  220.9862 H   0  0  0  0  0  0  0  0  0  0  0  0
  141.2324   78.0663  220.9959 H   0  0  0  0  0  0  0  0  0  0  0  0
  142.9619   77.7034  220.7298 H   0  0  0  0  0  0  0  0  0  0  0  0
  140.8451   77.8405  218.4882 H   0  0  0  0  0  0  0  0  0  0  0  0
  141.9330   79.1713  218.8691 H   0  0  0  0  0  0  0  0  0  0  0  0
  143.0141   77.7793  217.1358 H   0  0  0  0  0  0  0  0  0  0  0  0
  143.8929   77.4911  218.6768 H   0  0  0  0  0  0  0  0  0  0  0  0
  141.8305   75.7779  217.3022 H   0  0  0  0  0  0  0  0  0  0  0  0
  143.5693   75.4088  217.8086 H   0  0  0  0  0  0  0  0  0  0  0  0
  141.2813   74.6767  218.9671 H   0  0  0  0  0  0  0  0  0  0  0  0
  141.7568   72.6828  220.0943 H   0  0  0  0  0  0  0  0  0  0  0  0
  143.3504   71.1061  221.0396 H   0  0  0  0  0  0  0  0  0  0  0  0
  145.7163   71.7695  221.4205 H   0  0  0  0  0  0  0  0  0  0  0  0
  144.8046   75.6684  219.8549 H   0  0  0  0  0  0  0  0  0  0  0  0
  139.0100   69.8400  222.3558 H   0  0  0  0  0  0  0  0  0  0  0  0
  138.9065   68.3438  224.3239 H   0  0  0  0  0  0  0  0  0  0  0  0
  139.3522   67.9863  226.6277 H   0  0  0  0  0  0  0  0  0  0  0  0
  141.2017   71.0532  228.9818 H   0  0  0  0  0  0  0  0  0  0  0  0
  141.2940   72.5260  226.9912 H   0  0  0  0  0  0  0  0  0  0  0  0
  1  2  2  0
  2  3  1  0
  3  4  1  0
  4  5  1  0
  5  6  2  0
  5  7  1  0
  7  8  1  0
  8  9  1  0
  9 10  1  0
 10 11  1  0
 11 12  1  0
 12 13  1  0
 13 14  2  0
 14 15  1  0
 15 16  2  0
 16 17  1  0
 17 18  1  0
 17 19  2  0
  2 20  1  0
 20 21  2  0
 21 22  1  0
 22 23  2  0
 23 24  1  0
 24 25  2  0
 25 26  1  0
 25 27  1  0
 27 28  2  0
 28 29  1  0
 29 30  2  0
 12  7  1  0
 19 13  1  0
 30 20  1  0
 29 23  1  0
  3 31  1  0
  4 32  1  0
  4 33  1  0
  8 34  1  0
  8 35  1  0
  9 36  1  0
  9 37  1  0
 10 38  1  0
 10 39  1  0
 11 40  1  0
 11 41  1  0
 12 42  1  6
 14 43  1  0
 15 44  1  0
 16 45  1  0
 19 46  1  0
 21 47  1  0
 22 48  1  0
 24 49  1  0
 27 50  1  0
 28 51  1  0
M  END
>  <smiles>  (99) 
O=C(NCC(=O)N1CCCCC1c1cccc(F)c1)c1ccc2cc(F)ccc2n1

>  <score_type>  (99) 
oracle

>  <origin>  (99) 
autodockgpu

>  <m_score__min__energy>  (99) 
-8.7599999999999998

>  <m_primary>  (99) 
energy

>  <rmsd>  (99) 
2.1953654838303107

>  <m_score__min__rmsd>  (99) 
2.1953654838303107

>  <meeko>  (99) 
{"free_energy": -8.52, "intermolecular_energy": -10.01, "internal_energy": -1.99, "cluster_size": 35, "cluster_id": 1, "rank_in_cluster": 30}

>  <energy>  (99) 
-8.22

>  <cluster_rmsd>  (99) 
0.83

>  <cluster>  (99) 
5

$$$$

     RDKit          3D

 51 54  0  0  0  0  0  0  0  0999 V2000
  139.3750   71.3880  221.0860 O   0  0  0  0  0  0  0  0  0  0  0  0
  139.5000   71.9450  222.2230 C   0  0  0  0  0  0  0  0  0  0  0  0
  139.5620   73.3530  222.3670 N   0  0  0  0  0  0  0  0  0  0  0  0
  139.4790   74.1760  221.1730 C   0  0  0  0  0  0  0  0  0  0  0  0
  140.3730   75.3410  221.3040 C   0  0  0  0  0  0  0  0  0  0  0  0
  141.1050   75.4660  222.3380 O   0  0  0  0  0  0  0  0  0  0  0  0
  140.4870   76.3740  220.3350 N   0  0  0  0  0  0  0  0  0  0  0  0
  139.5330   76.3740  219.2500 C   0  0  0  0  0  0  0  0  0  0  0  0
  140.2870   76.6580  217.9510 C   0  0  0  0  0  0  0  0  0  0  0  0
  140.8180   78.0780  218.1210 C   0  0  0  0  0  0  0  0  0  0  0  0
  141.8510   78.1000  219.1980 C   0  0  0  0  0  0  0  0  0  0  0  0
  141.5140   77.3620  220.4460 C   0  0  1  0  0  0  0  0  0  0  0  0
  141.2580   78.2570  221.6000 C   0  0  0  0  0  0  0  0  0  0  0  0
  139.9880   78.3670  222.1750 C   0  0  0  0  0  0  0  0  0  0  0  0
  139.7190   79.1810  223.2370 C   0  0  0  0  0  0  0  0  0  0  0  0
  140.7110   79.9480  223.8020 C   0  0  0  0  0  0  0  0  0  0  0  0
  141.9830   79.8660  223.2590 C   0  0  0  0  0  0  0  0  0  0  0  0
  142.9870   80.6050  223.7870 F   0  0  0  0  0  0  0  0  0  0  0  0
  142.2380   79.0390  222.1860 C   0  0  0  0  0  0  0  0  0  0  0  0
  139.5810   71.0960  223.4070 C   0  0  0  0  0  0  0  0  0  0  0  0
  139.1500   69.7860  223.3760 C   0  0  0  0  0  0  0  0  0  0  0  0
  139.2100   68.9510  224.4740 C   0  0  0  0  0  0  0  0  0  0  0  0
  139.7250   69.4650  225.6440 C   0  0  0  0  0  0  0  0  0  0  0  0
  139.7990   68.6550  226.7590 C   0  0  0  0  0  0  0  0  0  0  0  0
  140.3100   69.1350  227.9570 C   0  0  0  0  0  0  0  0  0  0  0  0
  140.3560   68.2950  229.0130 F   0  0  0  0  0  0  0  0  0  0  0  0
  140.7430   70.4430  227.9970 C   0  0  0  0  0  0  0  0  0  0  0  0
  140.6720   71.2620  226.8740 C   0  0  0  0  0  0  0  0  0  0  0  0
  140.1580   70.7760  225.6820 C   0  0  0  0  0  0  0  0  0  0  0  0
  140.0770   71.5450  224.5790 N   0  0  0  0  0  0  0  0  0  0  0  0
  139.6650   73.7300  223.3280 H   0  0  0  0  0  0  0  0  0  0  0  0
  139.7807   73.5812  220.2982 H   0  0  0  0  0  0  0  0  0  0  0  0
  138.4440   74.5260  221.0454 H   0  0  0  0  0  0  0  0  0  0  0  0
  139.0402   75.3926  219.1875 H   0  0  0  0  0  0  0  0  0  0  0  0
  138.7649   77.1430  219.4194 H   0  0  0  0  0  0  0  0  0  0  0  0
  141.1152   75.9463  217.8185 H   0  0  0  0  0  0  0  0  0  0  0  0
  139.6455   76.5545  217.0635 H   0  0  0  0  0  0  0  0  0  0  0  0
  141.2672   78.4166  217.1757 H   0  0  0  0  0  0  0  0  0  0  0  0
  139.9896   78.7477  218.3953 H   0  0  0  0  0  0  0  0  0  0  0  0
  142.7731   77.6624  218.7878 H   0  0  0  0  0  0  0  0  0  0  0  0
  141.9442   79.1549  219.4955 H   0  0  0  0  0  0  0  0  0  0  0  0
  142.4371   76.7951  220.6373 H   0  0  0  0  0  0  0  0  0  0  0  0
  139.1673   77.7694  221.7515 H   0  0  0  0  0  0  0  0  0  0  0  0
  138.6984   79.2240  223.6452 H   0  0  0  0  0  0  0  0  0  0  0  0
  140.5011   80.6059  224.6582 H   0  0  0  0  0  0  0  0  0  0  0  0
  143.2596   78.9991  221.7800 H   0  0  0  0  0  0  0  0  0  0  0  0
  138.7405   69.3892  222.4353 H   0  0  0  0  0  0  0  0  0  0  0  0
  138.8584   67.9103  224.4166 H   0  0  0  0  0  0  0  0  0  0  0  0
  139.4480   67.6143  226.6974 H   0  0  0  0  0  0  0  0  0  0  0  0
  141.1525   70.8473  228.9345 H   0  0  0  0  0  0  0  0  0  0  0  0
  141.0261   72.3018  226.9327 H   0  0  0  0  0  0  0  0  0  0  0  0
  1  2  2  0
  2  3  1  0
  3  4  1  0
  4  5  1  0
  5  6  2  0
  5  7  1  0
  7  8  1  0
  8  9  1  0
  9 10  1  0
 10 11  1  0
 11 12  1  0
 12 13  1  0
 13 14  2  0
 14 15  1  0
 15 16  2  0
 16 17  1  0
 17 18  1  0
 17 19  2  0
  2 20  1  0
 20 21  2  0
 21 22  1  0
 22 23  2  0
 23 24  1  0
 24 25  2  0
 25 26  1  0
 25 27  1  0
 27 28  2  0
 28 29  1  0
 29 30  2  0
 12  7  1  0
 19 13  1  0
 30 20  1  0
 29 23  1  0
  3 31  1  0
  4 32  1  0
  4 33  1  0
  8 34  1  0
  8 35  1  0
  9 36  1  0
  9 37  1  0
 10 38  1  0
 10 39  1  0
 11 40  1  0
 11 41  1  0
 12 42  1  1
 14 43  1  0
 15 44  1  0
 16 45  1  0
 19 46  1  0
 21 47  1  0
 22 48  1  0
 24 49  1  0
 27 50  1  0
 28 51  1  0
M  END
>  <smiles>  (100) 
O=C(NCC(=O)N1CCCCC1c1cccc(F)c1)c1ccc2cc(F)ccc2n1

>  <score_type>  (100) 
oracle

>  <origin>  (100) 
autodockgpu

>  <m_score__min__energy>  (100) 
-8.7599999999999998

>  <m_primary>  (100) 
energy

>  <rmsd>  (100) 
1.2712748159299556

>  <m_score__min__rmsd>  (100) 
1.2712748159299556

>  <meeko>  (100) 
{"free_energy": -8.23, "intermolecular_energy": -9.72, "internal_energy": -1.74, "cluster_size": 9, "cluster_id": 3, "rank_in_cluster": 9}

>  <energy>  (100) 
-7.01

>  <cluster_rmsd>  (100) 
0.0

>  <cluster>  (100) 
6

$$$$
