
     RDKit          3D

 67 72  0  0  0  0  0  0  0  0999 V2000
  141.3050   80.5980  222.8720 C   0  0  0  0  0  0  0  0  0  0  0  0
  141.8480   79.7800  223.8300 C   0  0  0  0  0  0  0  0  0  0  0  0
  141.7970   78.4130  223.6840 C   0  0  0  0  0  0  0  0  0  0  0  0
  141.1890   77.8950  222.5550 C   0  0  0  0  0  0  0  0  0  0  0  0
  140.6440   78.7350  221.5920 C   0  0  0  0  0  0  0  0  0  0  0  0
  140.6950   80.1060  221.7390 C   0  0  0  0  0  0  0  0  0  0  0  0
  140.0130   78.0700  220.4160 C   0  0  0  0  0  0  0  0  0  0  0  0
  139.0090   77.0760  220.9610 C   0  0  0  0  0  0  0  0  0  0  0  0
  139.7630   76.1310  221.7750 N   0  0  0  0  0  0  0  0  0  0  0  0
  139.1770   74.8880  222.0500 C   0  0  0  0  0  0  0  0  0  0  0  0
  137.8370   74.7710  222.0440 N   0  0  0  0  0  0  0  0  0  0  0  0
  137.2120   73.5890  222.3040 C   0  0  0  0  0  0  0  0  0  0  0  0
  135.7750   73.4960  222.2890 N   0  0  0  0  0  0  0  0  0  0  0  0
  135.0690   73.2490  223.5450 C   0  0  0  0  0  0  0  0  0  0  0  0
  135.7030   72.0350  224.1780 C   0  0  0  0  0  0  0  0  0  0  0  0
  134.6840   70.9850  224.5550 C   0  0  0  0  0  0  0  0  0  0  0  0
  134.0230   71.2790  225.8740 C   0  0  0  0  0  0  0  0  0  0  0  0
  133.1120   70.1060  226.1970 C   0  0  0  0  0  0  0  0  0  0  0  0
  133.9310   69.0160  226.4670 O   0  0  0  0  0  0  0  0  0  0  0  0
  134.6100   68.5830  225.3310 C   0  0  0  0  0  0  0  0  0  0  0  0
  135.4180   69.6800  224.6870 C   0  0  0  0  0  0  0  0  0  0  0  0
  137.9830   72.5350  222.5680 N   0  0  0  0  0  0  0  0  0  0  0  0
  139.3260   72.5950  222.5880 C   0  0  0  0  0  0  0  0  0  0  0  0
  140.2080   71.4540  222.8780 C   0  0  2  0  0  0  0  0  0  0  0  0
  139.6380   70.1830  222.2830 C   0  0  0  0  0  0  0  0  0  0  0  0
  138.6210   69.7780  223.3310 C   0  0  0  0  0  0  0  0  0  0  0  0
  139.3280   70.1200  224.5920 C   0  0  0  0  0  0  0  0  0  0  0  0
  139.2400   69.6730  225.8940 C   0  0  0  0  0  0  0  0  0  0  0  0
  140.0460   70.1790  226.9120 C   0  0  0  0  0  0  0  0  0  0  0  0
  140.9680   71.1600  226.6270 C   0  0  0  0  0  0  0  0  0  0  0  0
  141.0670   71.6140  225.3400 C   0  0  0  0  0  0  0  0  0  0  0  0
  140.2600   71.1030  224.3320 C   0  0  0  0  0  0  0  0  0  0  0  0
  139.9300   73.7890  222.3260 N   0  0  0  0  0  0  0  0  0  0  0  0
  141.0770   76.4360  222.2950 C   0  0  0  0  0  0  0  0  0  0  0  0
  141.3586   81.6875  223.0138 H   0  0  0  0  0  0  0  0  0  0  0  0
  142.3260   80.2187  224.7183 H   0  0  0  0  0  0  0  0  0  0  0  0
  142.2292   77.7483  224.4465 H   0  0  0  0  0  0  0  0  0  0  0  0
  140.2659   80.7790  220.9820 H   0  0  0  0  0  0  0  0  0  0  0  0
  139.5044   78.8157  219.7873 H   0  0  0  0  0  0  0  0  0  0  0  0
  140.7688   77.5669  219.7950 H   0  0  0  0  0  0  0  0  0  0  0  0
  138.2579   77.5930  221.5763 H   0  0  0  0  0  0  0  0  0  0  0  0
  138.4750   76.5630  220.1475 H   0  0  0  0  0  0  0  0  0  0  0  0
  135.2910   73.6100  221.3770 H   0  0  0  0  0  0  0  0  0  0  0  0
  135.1694   74.1182  224.2117 H   0  0  0  0  0  0  0  0  0  0  0  0
  133.9966   73.0824  223.3655 H   0  0  0  0  0  0  0  0  0  0  0  0
  136.4157   71.5958  223.4644 H   0  0  0  0  0  0  0  0  0  0  0  0
  136.2062   72.3612  225.1002 H   0  0  0  0  0  0  0  0  0  0  0  0
  133.9019   70.9611  223.7818 H   0  0  0  0  0  0  0  0  0  0  0  0
  134.7847   71.3910  226.6596 H   0  0  0  0  0  0  0  0  0  0  0  0
  133.4472   72.2147  225.8200 H   0  0  0  0  0  0  0  0  0  0  0  0
  132.4928   70.3397  227.0756 H   0  0  0  0  0  0  0  0  0  0  0  0
  132.4373   69.8904  225.3554 H   0  0  0  0  0  0  0  0  0  0  0  0
  135.2891   67.7660  225.6162 H   0  0  0  0  0  0  0  0  0  0  0  0
  133.8587   68.2489  224.6002 H   0  0  0  0  0  0  0  0  0  0  0  0
  136.3179   69.8497  225.2964 H   0  0  0  0  0  0  0  0  0  0  0  0
  135.6537   69.3436  223.6666 H   0  0  0  0  0  0  0  0  0  0  0  0
  141.1862   71.7637  222.4815 H   0  0  0  0  0  0  0  0  0  0  0  0
  139.1577   70.3757  221.3124 H   0  0  0  0  0  0  0  0  0  0  0  0
  140.3936   69.4113  222.0744 H   0  0  0  0  0  0  0  0  0  0  0  0
  137.6886   70.3522  223.2267 H   0  0  0  0  0  0  0  0  0  0  0  0
  138.3116   68.7244  223.2665 H   0  0  0  0  0  0  0  0  0  0  0  0
  138.5076   68.8892  226.1374 H   0  0  0  0  0  0  0  0  0  0  0  0
  139.9457   69.7961  227.9383 H   0  0  0  0  0  0  0  0  0  0  0  0
  141.6125   71.5710  227.4180 H   0  0  0  0  0  0  0  0  0  0  0  0
  141.7996   72.3985  225.0993 H   0  0  0  0  0  0  0  0  0  0  0  0
  141.2354   75.8845  223.2335 H   0  0  0  0  0  0  0  0  0  0  0  0
  141.8374   76.1389  221.5578 H   0  0  0  0  0  0  0  0  0  0  0  0
  1  2  2  0
  2  3  1  0
  3  4  2  0
  4  5  1  0
  5  6  2  0
  5  7  1  0
  7  8  1  0
  8  9  1  0
  9 10  1  0
 10 11  2  0
 11 12  1  0
 12 13  1  0
 13 14  1  0
 14 15  1  0
 15 16  1  0
 16 17  1  0
 17 18  1  0
 18 19  1  0
 19 20  1  0
 20 21  1  0
 12 22  2  0
 22 23  1  0
 23 24  1  0
 24 25  1  0
 25 26  1  0
 26 27  1  0
 27 28  2  0
 28 29  1  0
 29 30  2  0
 30 31  1  0
 31 32  2  0
 23 33  2  0
  9 34  1  0
  6  1  1  0
 33 10  1  0
 34  4  1  0
 21 16  1  0
 32 24  1  0
 32 27  1  0
  1 35  1  0
  2 36  1  0
  3 37  1  0
  6 38  1  0
  7 39  1  0
  7 40  1  0
  8 41  1  0
  8 42  1  0
 13 43  1  0
 14 44  1  0
 14 45  1  0
 15 46  1  0
 15 47  1  0
 16 48  1  0
 17 49  1  0
 17 50  1  0
 18 51  1  0
 18 52  1  0
 20 53  1  0
 20 54  1  0
 21 55  1  0
 21 56  1  0
 24 57  1  6
 25 58  1  0
 25 59  1  0
 26 60  1  0
 26 61  1  0
 28 62  1  0
 29 63  1  0
 30 64  1  0
 31 65  1  0
 34 66  1  0
 34 67  1  0
M  END
>  <smiles>  (1) 
c1ccc2c(c1)CCN(c1nc(NCCC3CCOCC3)nc(C3CCc4ccccc43)n1)C2

>  <score_type>  (1) 
oracle

>  <origin>  (1) 
autodockgpu

>  <m_score__min__energy>  (1) 
-9.9800000000000004

>  <m_primary>  (1) 
energy

>  <rmsd>  (1) 
1.6924641328790702

>  <m_score__min__rmsd>  (1) 
1.6924641328790702

>  <meeko>  (1) 
{"free_energy": -8.78, "intermolecular_energy": -10.57, "internal_energy": -1.65, "cluster_size": 7, "cluster_id": 3, "rank_in_cluster": 7}

>  <energy>  (1) 
-9.98

>  <cluster_rmsd>  (1) 
0.0

>  <cluster>  (1) 
1

$$$$

     RDKit          3D

 67 72  0  0  0  0  0  0  0  0999 V2000
  141.6550   81.4430  222.4100 C   0  0  0  0  0  0  0  0  0  0  0  0
  141.4330   80.9320  223.6630 C   0  0  0  0  0  0  0  0  0  0  0  0
  141.2600   79.5780  223.8390 C   0  0  0  0  0  0  0  0  0  0  0  0
  141.3170   78.7590  222.7260 C   0  0  0  0  0  0  0  0  0  0  0  0
  141.5440   79.2900  221.4630 C   0  0  0  0  0  0  0  0  0  0  0  0
  141.7160   80.6470  221.2870 C   0  0  0  0  0  0  0  0  0  0  0  0
  141.5850   78.3160  220.3350 C   0  0  0  0  0  0  0  0  0  0  0  0
  140.3080   77.5060  220.4080 C   0  0  0  0  0  0  0  0  0  0  0  0
  140.3190   76.8330  221.7010 N   0  0  0  0  0  0  0  0  0  0  0  0
  139.4940   75.7120  221.8650 C   0  0  0  0  0  0  0  0  0  0  0  0
  140.0470   74.4900  221.9580 N   0  0  0  0  0  0  0  0  0  0  0  0
  139.2960   73.3650  222.1190 C   0  0  0  0  0  0  0  0  0  0  0  0
  139.9190   72.0710  222.2160 N   0  0  0  0  0  0  0  0  0  0  0  0
  139.5240   71.1740  223.3000 C   0  0  0  0  0  0  0  0  0  0  0  0
  140.6880   71.0970  224.2570 C   0  0  0  0  0  0  0  0  0  0  0  0
  140.2450   71.0780  225.7020 C   0  0  0  0  0  0  0  0  0  0  0  0
  141.1820   71.8420  226.5970 C   0  0  0  0  0  0  0  0  0  0  0  0
  140.6990   71.6560  228.0250 C   0  0  0  0  0  0  0  0  0  0  0  0
  140.9220   70.3260  228.3610 O   0  0  0  0  0  0  0  0  0  0  0  0
  140.1030   69.4630  227.6380 C   0  0  0  0  0  0  0  0  0  0  0  0
  140.2460   69.6430  226.1490 C   0  0  0  0  0  0  0  0  0  0  0  0
  137.9750   73.5170  222.1810 N   0  0  0  0  0  0  0  0  0  0  0  0
  137.3680   74.7140  222.0930 C   0  0  0  0  0  0  0  0  0  0  0  0
  135.9130   74.9180  222.1570 C   0  0  2  0  0  0  0  0  0  0  0  0
  135.5810   76.3900  222.0250 C   0  0  0  0  0  0  0  0  0  0  0  0
  135.8030   76.8870  223.4390 C   0  0  0  0  0  0  0  0  0  0  0  0
  135.2690   75.7610  224.2480 C   0  0  0  0  0  0  0  0  0  0  0  0
  134.7540   75.6530  225.5230 C   0  0  0  0  0  0  0  0  0  0  0  0
  134.3130   74.4400  226.0480 C   0  0  0  0  0  0  0  0  0  0  0  0
  134.3850   73.2990  225.2830 C   0  0  0  0  0  0  0  0  0  0  0  0
  134.8940   73.3890  224.0150 C   0  0  0  0  0  0  0  0  0  0  0  0
  135.3310   74.6030  223.5000 C   0  0  0  0  0  0  0  0  0  0  0  0
  138.1400   75.8260  221.9330 N   0  0  0  0  0  0  0  0  0  0  0  0
  141.1440   77.2850  222.8000 C   0  0  0  0  0  0  0  0  0  0  0  0
  141.7894   82.5289  222.2972 H   0  0  0  0  0  0  0  0  0  0  0  0
  141.3930   81.6068  224.5308 H   0  0  0  0  0  0  0  0  0  0  0  0
  141.0809   79.1578  224.8397 H   0  0  0  0  0  0  0  0  0  0  0  0
  141.8947   81.0766  220.2902 H   0  0  0  0  0  0  0  0  0  0  0  0
  141.6397   78.8506  219.3752 H   0  0  0  0  0  0  0  0  0  0  0  0
  142.4690   77.6655  220.4079 H   0  0  0  0  0  0  0  0  0  0  0  0
  139.4329   78.1681  220.3315 H   0  0  0  0  0  0  0  0  0  0  0  0
  140.2484   76.7814  219.5825 H   0  0  0  0  0  0  0  0  0  0  0  0
  140.6330   71.8210  221.5030 H   0  0  0  0  0  0  0  0  0  0  0  0
  138.6374   71.5720  223.8152 H   0  0  0  0  0  0  0  0  0  0  0  0
  139.2699   70.1770  222.9109 H   0  0  0  0  0  0  0  0  0  0  0  0
  141.2559   70.1781  224.0494 H   0  0  0  0  0  0  0  0  0  0  0  0
  141.3057   71.9948  224.1071 H   0  0  0  0  0  0  0  0  0  0  0  0
  139.2529   71.5480  225.7708 H   0  0  0  0  0  0  0  0  0  0  0  0
  142.2047   71.4508  226.4921 H   0  0  0  0  0  0  0  0  0  0  0  0
  141.1941   72.9083  226.3269 H   0  0  0  0  0  0  0  0  0  0  0  0
  141.2609   72.3158  228.7025 H   0  0  0  0  0  0  0  0  0  0  0  0
  139.6322   71.9091  228.1140 H   0  0  0  0  0  0  0  0  0  0  0  0
  140.3684   68.4269  227.8951 H   0  0  0  0  0  0  0  0  0  0  0  0
  139.0602   69.6915  227.9034 H   0  0  0  0  0  0  0  0  0  0  0  0
  141.1950   69.1839  225.8350 H   0  0  0  0  0  0  0  0  0  0  0  0
  139.3698   69.1657  225.6859 H   0  0  0  0  0  0  0  0  0  0  0  0
  135.5166   74.2709  221.3606 H   0  0  0  0  0  0  0  0  0  0  0  0
  136.2553   76.8903  221.3143 H   0  0  0  0  0  0  0  0  0  0  0  0
  134.5699   76.5852  221.6383 H   0  0  0  0  0  0  0  0  0  0  0  0
  136.8713   77.0534  223.6413 H   0  0  0  0  0  0  0  0  0  0  0  0
  135.3219   77.8533  223.6508 H   0  0  0  0  0  0  0  0  0  0  0  0
  134.6891   76.5563  226.1473 H   0  0  0  0  0  0  0  0  0  0  0  0
  133.9089   74.3950  227.0701 H   0  0  0  0  0  0  0  0  0  0  0  0
  134.0405   72.3335  225.6820 H   0  0  0  0  0  0  0  0  0  0  0  0
  134.9580   72.4839  223.3931 H   0  0  0  0  0  0  0  0  0  0  0  0
  140.6605   77.0214  223.7522 H   0  0  0  0  0  0  0  0  0  0  0  0
  142.1293   76.8000  222.7381 H   0  0  0  0  0  0  0  0  0  0  0  0
  1  2  2  0
  2  3  1  0
  3  4  2  0
  4  5  1  0
  5  6  2  0
  5  7  1  0
  7  8  1  0
  8  9  1  0
  9 10  1  0
 10 11  2  0
 11 12  1  0
 12 13  1  0
 13 14  1  0
 14 15  1  0
 15 16  1  0
 16 17  1  0
 17 18  1  0
 18 19  1  0
 19 20  1  0
 20 21  1  0
 12 22  2  0
 22 23  1  0
 23 24  1  0
 24 25  1  0
 25 26  1  0
 26 27  1  0
 27 28  2  0
 28 29  1  0
 29 30  2  0
 30 31  1  0
 31 32  2  0
 23 33  2  0
  9 34  1  0
  6  1  1  0
 33 10  1  0
 34  4  1  0
 21 16  1  0
 32 24  1  0
 32 27  1  0
  1 35  1  0
  2 36  1  0
  3 37  1  0
  6 38  1  0
  7 39  1  0
  7 40  1  0
  8 41  1  0
  8 42  1  0
 13 43  1  0
 14 44  1  0
 14 45  1  0
 15 46  1  0
 15 47  1  0
 16 48  1  0
 17 49  1  0
 17 50  1  0
 18 51  1  0
 18 52  1  0
 20 53  1  0
 20 54  1  0
 21 55  1  0
 21 56  1  0
 24 57  1  6
 25 58  1  0
 25 59  1  0
 26 60  1  0
 26 61  1  0
 28 62  1  0
 29 63  1  0
 30 64  1  0
 31 65  1  0
 34 66  1  0
 34 67  1  0
M  END
>  <smiles>  (2) 
c1ccc2c(c1)CCN(c1nc(NCCC3CCOCC3)nc(C3CCc4ccccc43)n1)C2

>  <score_type>  (2) 
oracle

>  <origin>  (2) 
autodockgpu

>  <m_score__min__energy>  (2) 
-9.9800000000000004

>  <m_primary>  (2) 
energy

>  <rmsd>  (2) 
7.412203647960087

>  <m_score__min__rmsd>  (2) 
7.412203647960087

>  <meeko>  (2) 
{"free_energy": -9.41, "intermolecular_energy": -11.2, "internal_energy": -1.29, "cluster_size": 13, "cluster_id": 2, "rank_in_cluster": 2}

>  <energy>  (2) 
-9.87

>  <cluster_rmsd>  (2) 
1.37

>  <cluster>  (2) 
1

$$$$

     RDKit          3D

 67 72  0  0  0  0  0  0  0  0999 V2000
  141.8270   81.2180  224.1640 C   0  0  0  0  0  0  0  0  0  0  0  0
  142.9700   80.7020  223.6070 C   0  0  0  0  0  0  0  0  0  0  0  0
  142.8950   79.6790  222.6910 C   0  0  0  0  0  0  0  0  0  0  0  0
  141.6450   79.1910  222.3520 C   0  0  0  0  0  0  0  0  0  0  0  0
  140.4960   79.7230  222.9220 C   0  0  0  0  0  0  0  0  0  0  0  0
  140.5720   80.7490  223.8410 C   0  0  0  0  0  0  0  0  0  0  0  0
  139.2030   79.1240  222.4840 C   0  0  0  0  0  0  0  0  0  0  0  0
  139.3210   77.6280  222.6930 C   0  0  0  0  0  0  0  0  0  0  0  0
  140.4320   77.1810  221.8610 N   0  0  0  0  0  0  0  0  0  0  0  0
  140.5000   75.8210  221.5320 C   0  0  0  0  0  0  0  0  0  0  0  0
  139.7950   74.9290  222.2490 N   0  0  0  0  0  0  0  0  0  0  0  0
  139.8220   73.5950  221.9760 C   0  0  0  0  0  0  0  0  0  0  0  0
  139.0550   72.6650  222.7640 N   0  0  0  0  0  0  0  0  0  0  0  0
  139.5730   71.3130  222.9670 C   0  0  0  0  0  0  0  0  0  0  0  0
  140.6860   71.4130  223.9800 C   0  0  0  0  0  0  0  0  0  0  0  0
  140.1980   71.1960  225.3930 C   0  0  0  0  0  0  0  0  0  0  0  0
  141.0930   71.8470  226.4130 C   0  0  0  0  0  0  0  0  0  0  0  0
  140.5680   71.4660  227.7870 C   0  0  0  0  0  0  0  0  0  0  0  0
  140.8050   70.1060  227.9510 O   0  0  0  0  0  0  0  0  0  0  0  0
  140.0250   69.3360  227.0930 C   0  0  0  0  0  0  0  0  0  0  0  0
  140.2120   69.7140  225.6460 C   0  0  0  0  0  0  0  0  0  0  0  0
  140.5810   73.1960  220.9580 N   0  0  0  0  0  0  0  0  0  0  0  0
  141.3070   74.0430  220.2070 C   0  0  0  0  0  0  0  0  0  0  0  0
  142.1570   73.6380  219.0770 C   0  0  2  0  0  0  0  0  0  0  0  0
  141.6750   72.3230  218.5000 C   0  0  0  0  0  0  0  0  0  0  0  0
  142.3030   71.3200  219.4470 C   0  0  0  0  0  0  0  0  0  0  0  0
  143.6340   71.9280  219.7010 C   0  0  0  0  0  0  0  0  0  0  0  0
  144.8600   71.4290  220.0870 C   0  0  0  0  0  0  0  0  0  0  0  0
  145.9770   72.2440  220.2560 C   0  0  0  0  0  0  0  0  0  0  0  0
  145.8720   73.5990  220.0350 C   0  0  0  0  0  0  0  0  0  0  0  0
  144.6610   74.1100  219.6520 C   0  0  0  0  0  0  0  0  0  0  0  0
  143.5540   73.2880  219.4850 C   0  0  0  0  0  0  0  0  0  0  0  0
  141.2650   75.3740  220.4990 N   0  0  0  0  0  0  0  0  0  0  0  0
  141.4470   78.0900  221.3750 C   0  0  0  0  0  0  0  0  0  0  0  0
  141.9156   82.0355  224.8947 H   0  0  0  0  0  0  0  0  0  0  0  0
  143.9508   81.1085  223.8945 H   0  0  0  0  0  0  0  0  0  0  0  0
  143.8057   79.2591  222.2390 H   0  0  0  0  0  0  0  0  0  0  0  0
  139.6669   81.1758  224.2978 H   0  0  0  0  0  0  0  0  0  0  0  0
  138.3756   79.5266  223.0868 H   0  0  0  0  0  0  0  0  0  0  0  0
  138.9953   79.3603  221.4299 H   0  0  0  0  0  0  0  0  0  0  0  0
  139.5253   77.4069  223.7510 H   0  0  0  0  0  0  0  0  0  0  0  0
  138.3877   77.1131  222.4212 H   0  0  0  0  0  0  0  0  0  0  0  0
  138.1540   72.9940  223.1610 H   0  0  0  0  0  0  0  0  0  0  0  0
  138.7759   70.6562  223.3456 H   0  0  0  0  0  0  0  0  0  0  0  0
  139.9407   70.8881  222.0214 H   0  0  0  0  0  0  0  0  0  0  0  0
  141.4452   70.6517  223.7474 H   0  0  0  0  0  0  0  0  0  0  0  0
  141.1036   72.4289  223.9211 H   0  0  0  0  0  0  0  0  0  0  0  0
  139.1957   71.6387  225.4897 H   0  0  0  0  0  0  0  0  0  0  0  0
  142.1253   71.4870  226.2918 H   0  0  0  0  0  0  0  0  0  0  0  0
  141.0949   72.9398  226.2871 H   0  0  0  0  0  0  0  0  0  0  0  0
  141.0956   72.0377  228.5647 H   0  0  0  0  0  0  0  0  0  0  0  0
  139.4945   71.6901  227.8725 H   0  0  0  0  0  0  0  0  0  0  0  0
  140.3004   68.2786  227.2196 H   0  0  0  0  0  0  0  0  0  0  0  0
  138.9705   69.5135  227.3508 H   0  0  0  0  0  0  0  0  0  0  0  0
  141.1791   69.3145  225.3066 H   0  0  0  0  0  0  0  0  0  0  0  0
  139.3604   69.2895  225.0942 H   0  0  0  0  0  0  0  0  0  0  0  0
  142.1183   74.4971  218.3911 H   0  0  0  0  0  0  0  0  0  0  0  0
  140.5771   72.2567  218.5168 H   0  0  0  0  0  0  0  0  0  0  0  0
  141.9492   72.1721  217.4455 H   0  0  0  0  0  0  0  0  0  0  0  0
  141.7212   71.2288  220.3761 H   0  0  0  0  0  0  0  0  0  0  0  0
  142.3516   70.2981  219.0428 H   0  0  0  0  0  0  0  0  0  0  0  0
  144.9596   70.3486  220.2680 H   0  0  0  0  0  0  0  0  0  0  0  0
  146.9383   71.8072  220.5645 H   0  0  0  0  0  0  0  0  0  0  0  0
  146.7436   74.2577  220.1636 H   0  0  0  0  0  0  0  0  0  0  0  0
  144.5630   75.1910  219.4733 H   0  0  0  0  0  0  0  0  0  0  0  0
  142.3930   77.5444  221.2428 H   0  0  0  0  0  0  0  0  0  0  0  0
  141.1254   78.5124  220.4116 H   0  0  0  0  0  0  0  0  0  0  0  0
  1  2  2  0
  2  3  1  0
  3  4  2  0
  4  5  1  0
  5  6  2  0
  5  7  1  0
  7  8  1  0
  8  9  1  0
  9 10  1  0
 10 11  2  0
 11 12  1  0
 12 13  1  0
 13 14  1  0
 14 15  1  0
 15 16  1  0
 16 17  1  0
 17 18  1  0
 18 19  1  0
 19 20  1  0
 20 21  1  0
 12 22  2  0
 22 23  1  0
 23 24  1  0
 24 25  1  0
 25 26  1  0
 26 27  1  0
 27 28  2  0
 28 29  1  0
 29 30  2  0
 30 31  1  0
 31 32  2  0
 23 33  2  0
  9 34  1  0
  6  1  1  0
 33 10  1  0
 34  4  1  0
 21 16  1  0
 32 24  1  0
 32 27  1  0
  1 35  1  0
  2 36  1  0
  3 37  1  0
  6 38  1  0
  7 39  1  0
  7 40  1  0
  8 41  1  0
  8 42  1  0
 13 43  1  0
 14 44  1  0
 14 45  1  0
 15 46  1  0
 15 47  1  0
 16 48  1  0
 17 49  1  0
 17 50  1  0
 18 51  1  0
 18 52  1  0
 20 53  1  0
 20 54  1  0
 21 55  1  0
 21 56  1  0
 24 57  1  6
 25 58  1  0
 25 59  1  0
 26 60  1  0
 26 61  1  0
 28 62  1  0
 29 63  1  0
 30 64  1  0
 31 65  1  0
 34 66  1  0
 34 67  1  0
M  END
>  <smiles>  (3) 
c1ccc2c(c1)CCN(c1nc(NCCC3CCOCC3)nc(C3CCc4ccccc43)n1)C2

>  <score_type>  (3) 
oracle

>  <origin>  (3) 
autodockgpu

>  <m_score__min__energy>  (3) 
-9.9800000000000004

>  <m_primary>  (3) 
energy

>  <rmsd>  (3) 
7.3495831415228405

>  <m_score__min__rmsd>  (3) 
7.3495831415228405

>  <meeko>  (3) 
{"free_energy": -9.98, "intermolecular_energy": -11.77, "internal_energy": -1.32, "cluster_size": 19, "cluster_id": 1, "rank_in_cluster": 1}

>  <energy>  (3) 
-9.87

>  <cluster_rmsd>  (3) 
0.49

>  <cluster>  (3) 
1

$$$$

     RDKit          3D

 67 72  0  0  0  0  0  0  0  0999 V2000
  141.6410   80.8250  222.8260 C   0  0  0  0  0  0  0  0  0  0  0  0
  141.9860   79.9930  223.8600 C   0  0  0  0  0  0  0  0  0  0  0  0
  141.8170   78.6320  223.7420 C   0  0  0  0  0  0  0  0  0  0  0  0
  141.2930   78.1360  222.5620 C   0  0  0  0  0  0  0  0  0  0  0  0
  140.9480   78.9900  221.5230 C   0  0  0  0  0  0  0  0  0  0  0  0
  141.1180   80.3550  221.6410 C   0  0  0  0  0  0  0  0  0  0  0  0
  140.3930   78.3480  220.2970 C   0  0  0  0  0  0  0  0  0  0  0  0
  139.2390   77.4750  220.7430 C   0  0  0  0  0  0  0  0  0  0  0  0
  139.7970   76.4910  221.6620 N   0  0  0  0  0  0  0  0  0  0  0  0
  139.0630   75.3200  221.8960 C   0  0  0  0  0  0  0  0  0  0  0  0
  139.7080   74.1480  222.0300 N   0  0  0  0  0  0  0  0  0  0  0  0
  139.0480   72.9790  222.2580 C   0  0  0  0  0  0  0  0  0  0  0  0
  139.7680   71.7400  222.3960 N   0  0  0  0  0  0  0  0  0  0  0  0
  139.6870   71.0120  223.6610 C   0  0  0  0  0  0  0  0  0  0  0  0
  140.8670   71.4410  224.4970 C   0  0  0  0  0  0  0  0  0  0  0  0
  140.8960   70.7590  225.8450 C   0  0  0  0  0  0  0  0  0  0  0  0
  139.6490   69.9590  226.1060 C   0  0  0  0  0  0  0  0  0  0  0  0
  139.7440   69.4210  227.5240 C   0  0  0  0  0  0  0  0  0  0  0  0
  139.6320   70.5090  228.3810 O   0  0  0  0  0  0  0  0  0  0  0  0
  140.7340   71.3550  228.2940 C   0  0  0  0  0  0  0  0  0  0  0  0
  140.9790   71.8390  226.8870 C   0  0  0  0  0  0  0  0  0  0  0  0
  137.7200   73.0350  222.3480 N   0  0  0  0  0  0  0  0  0  0  0  0
  137.0240   74.1780  222.2220 C   0  0  0  0  0  0  0  0  0  0  0  0
  135.5590   74.2780  222.3140 C   0  0  2  0  0  0  0  0  0  0  0  0
  135.1320   75.7290  222.3750 C   0  0  0  0  0  0  0  0  0  0  0  0
  135.3340   76.0510  223.8420 C   0  0  0  0  0  0  0  0  0  0  0  0
  134.8820   74.7970  224.4970 C   0  0  0  0  0  0  0  0  0  0  0  0
  134.3870   74.4910  225.7470 C   0  0  0  0  0  0  0  0  0  0  0  0
  134.0300   73.1940  226.1110 C   0  0  0  0  0  0  0  0  0  0  0  0
  134.1690   72.1690  225.2030 C   0  0  0  0  0  0  0  0  0  0  0  0
  134.6590   72.4570  223.9580 C   0  0  0  0  0  0  0  0  0  0  0  0
  135.0110   73.7530  223.6050 C   0  0  0  0  0  0  0  0  0  0  0  0
  137.7060   75.3360  221.9930 N   0  0  0  0  0  0  0  0  0  0  0  0
  141.0670   76.6870  222.3260 C   0  0  0  0  0  0  0  0  0  0  0  0
  141.7873   81.9085  222.9471 H   0  0  0  0  0  0  0  0  0  0  0  0
  142.3996   80.4150  224.7878 H   0  0  0  0  0  0  0  0  0  0  0  0
  142.0917   77.9561  224.5652 H   0  0  0  0  0  0  0  0  0  0  0  0
  140.8472   81.0389  220.8231 H   0  0  0  0  0  0  0  0  0  0  0  0
  140.0369   79.1167  219.5954 H   0  0  0  0  0  0  0  0  0  0  0  0
  141.1612   77.7529  219.7815 H   0  0  0  0  0  0  0  0  0  0  0  0
  138.4775   78.0829  221.2534 H   0  0  0  0  0  0  0  0  0  0  0  0
  138.7533   76.9878  219.8847 H   0  0  0  0  0  0  0  0  0  0  0  0
  140.3230   71.4090  221.5840 H   0  0  0  0  0  0  0  0  0  0  0  0
  138.7483   71.2588  224.1787 H   0  0  0  0  0  0  0  0  0  0  0  0
  139.7039   69.9257  223.4889 H   0  0  0  0  0  0  0  0  0  0  0  0
  141.7921   71.1934  223.9558 H   0  0  0  0  0  0  0  0  0  0  0  0
  140.7792   72.5237  224.6706 H   0  0  0  0  0  0  0  0  0  0  0  0
  141.7527   70.0695  225.8724 H   0  0  0  0  0  0  0  0  0  0  0  0
  138.7619   70.6018  226.0062 H   0  0  0  0  0  0  0  0  0  0  0  0
  139.5571   69.1352  225.3829 H   0  0  0  0  0  0  0  0  0  0  0  0
  138.9289   68.7067  227.7122 H   0  0  0  0  0  0  0  0  0  0  0  0
  140.6974   68.8951  227.6807 H   0  0  0  0  0  0  0  0  0  0  0  0
  140.5618   72.2268  228.9423 H   0  0  0  0  0  0  0  0  0  0  0  0
  141.6197   70.7849  228.6110 H   0  0  0  0  0  0  0  0  0  0  0  0
  140.2279   72.6068  226.6498 H   0  0  0  0  0  0  0  0  0  0  0  0
  142.0072   72.2289  226.8595 H   0  0  0  0  0  0  0  0  0  0  0  0
  135.1973   73.7162  221.4402 H   0  0  0  0  0  0  0  0  0  0  0  0
  135.7664   76.3603  221.7355 H   0  0  0  0  0  0  0  0  0  0  0  0
  134.1071   75.9068  222.0172 H   0  0  0  0  0  0  0  0  0  0  0  0
  136.3910   76.2595  224.0638 H   0  0  0  0  0  0  0  0  0  0  0  0
  134.7929   76.9477  224.1784 H   0  0  0  0  0  0  0  0  0  0  0  0
  134.2697   75.2997  226.4834 H   0  0  0  0  0  0  0  0  0  0  0  0
  133.6391   72.9905  227.1189 H   0  0  0  0  0  0  0  0  0  0  0  0
  133.8919   71.1392  225.4725 H   0  0  0  0  0  0  0  0  0  0  0  0
  134.7761   71.6467  223.2233 H   0  0  0  0  0  0  0  0  0  0  0  0
  141.0609   76.1566  223.2897 H   0  0  0  0  0  0  0  0  0  0  0  0
  141.8737   76.2923  221.6908 H   0  0  0  0  0  0  0  0  0  0  0  0
  1  2  2  0
  2  3  1  0
  3  4  2  0
  4  5  1  0
  5  6  2  0
  5  7  1  0
  7  8  1  0
  8  9  1  0
  9 10  1  0
 10 11  2  0
 11 12  1  0
 12 13  1  0
 13 14  1  0
 14 15  1  0
 15 16  1  0
 16 17  1  0
 17 18  1  0
 18 19  1  0
 19 20  1  0
 20 21  1  0
 12 22  2  0
 22 23  1  0
 23 24  1  0
 24 25  1  0
 25 26  1  0
 26 27  1  0
 27 28  2  0
 28 29  1  0
 29 30  2  0
 30 31  1  0
 31 32  2  0
 23 33  2  0
  9 34  1  0
  6  1  1  0
 33 10  1  0
 34  4  1  0
 21 16  1  0
 32 24  1  0
 32 27  1  0
  1 35  1  0
  2 36  1  0
  3 37  1  0
  6 38  1  0
  7 39  1  0
  7 40  1  0
  8 41  1  0
  8 42  1  0
 13 43  1  0
 14 44  1  0
 14 45  1  0
 15 46  1  0
 15 47  1  0
 16 48  1  0
 17 49  1  0
 17 50  1  0
 18 51  1  0
 18 52  1  0
 20 53  1  0
 20 54  1  0
 21 55  1  0
 21 56  1  0
 24 57  1  6
 25 58  1  0
 25 59  1  0
 26 60  1  0
 26 61  1  0
 28 62  1  0
 29 63  1  0
 30 64  1  0
 31 65  1  0
 34 66  1  0
 34 67  1  0
M  END
>  <smiles>  (4) 
c1ccc2c(c1)CCN(c1nc(NCCC3CCOCC3)nc(C3CCc4ccccc43)n1)C2

>  <score_type>  (4) 
oracle

>  <origin>  (4) 
autodockgpu

>  <m_score__min__energy>  (4) 
-9.9800000000000004

>  <m_primary>  (4) 
energy

>  <rmsd>  (4) 
7.055504003318387

>  <m_score__min__rmsd>  (4) 
7.055504003318387

>  <meeko>  (4) 
{"free_energy": -9.06, "intermolecular_energy": -10.85, "internal_energy": -1.37, "cluster_size": 13, "cluster_id": 2, "rank_in_cluster": 9}

>  <energy>  (4) 
-9.83

>  <cluster_rmsd>  (4) 
0.55

>  <cluster>  (4) 
1

$$$$

     RDKit          3D

 67 72  0  0  0  0  0  0  0  0999 V2000
  141.3340   81.0780  223.7990 C   0  0  0  0  0  0  0  0  0  0  0  0
  142.5530   80.5780  223.4180 C   0  0  0  0  0  0  0  0  0  0  0  0
  142.6250   79.4580  222.6220 C   0  0  0  0  0  0  0  0  0  0  0  0
  141.4440   78.8600  222.2220 C   0  0  0  0  0  0  0  0  0  0  0  0
  140.2170   79.3770  222.6130 C   0  0  0  0  0  0  0  0  0  0  0  0
  140.1440   80.5000  223.4120 C   0  0  0  0  0  0  0  0  0  0  0  0
  139.0090   78.6530  222.1240 C   0  0  0  0  0  0  0  0  0  0  0  0
  139.1810   77.1990  222.5130 C   0  0  0  0  0  0  0  0  0  0  0  0
  140.3930   76.7360  221.8490 N   0  0  0  0  0  0  0  0  0  0  0  0
  140.5650   75.3540  221.6860 C   0  0  0  0  0  0  0  0  0  0  0  0
  139.7540   74.5040  222.3390 N   0  0  0  0  0  0  0  0  0  0  0  0
  139.8740   73.1520  222.2190 C   0  0  0  0  0  0  0  0  0  0  0  0
  138.9900   72.2680  222.9330 N   0  0  0  0  0  0  0  0  0  0  0  0
  139.4840   70.9550  223.3460 C   0  0  0  0  0  0  0  0  0  0  0  0
  140.6430   71.1920  224.2810 C   0  0  0  0  0  0  0  0  0  0  0  0
  140.2520   71.0340  225.7320 C   0  0  0  0  0  0  0  0  0  0  0  0
  141.0920   71.8860  226.6450 C   0  0  0  0  0  0  0  0  0  0  0  0
  140.6860   71.5580  228.0730 C   0  0  0  0  0  0  0  0  0  0  0  0
  141.1170   70.2620  228.3310 O   0  0  0  0  0  0  0  0  0  0  0  0
  140.4150   69.3220  227.5820 C   0  0  0  0  0  0  0  0  0  0  0  0
  140.4830   69.5960  226.1010 C   0  0  0  0  0  0  0  0  0  0  0  0
  140.8350   72.6930  221.4200 N   0  0  0  0  0  0  0  0  0  0  0  0
  141.6740   73.4970  220.7430 C   0  0  0  0  0  0  0  0  0  0  0  0
  142.7460   73.0250  219.8540 C   0  0  2  0  0  0  0  0  0  0  0  0
  144.1020   73.3540  220.4430 C   0  0  0  0  0  0  0  0  0  0  0  0
  144.2770   74.8020  220.0330 C   0  0  0  0  0  0  0  0  0  0  0  0
  143.7010   74.8040  218.6630 C   0  0  0  0  0  0  0  0  0  0  0  0
  143.8780   75.5960  217.5480 C   0  0  0  0  0  0  0  0  0  0  0  0
  143.1900   75.3710  216.3580 C   0  0  0  0  0  0  0  0  0  0  0  0
  142.2990   74.3270  216.2720 C   0  0  0  0  0  0  0  0  0  0  0  0
  142.1110   73.5320  217.3710 C   0  0  0  0  0  0  0  0  0  0  0  0
  142.8020   73.7640  218.5530 C   0  0  0  0  0  0  0  0  0  0  0  0
  141.5360   74.8460  220.8790 N   0  0  0  0  0  0  0  0  0  0  0  0
  141.4050   77.6480  221.3620 C   0  0  0  0  0  0  0  0  0  0  0  0
  141.3049   81.9735  224.4371 H   0  0  0  0  0  0  0  0  0  0  0  0
  143.4768   81.0744  223.7501 H   0  0  0  0  0  0  0  0  0  0  0  0
  143.5976   79.0485  222.3116 H   0  0  0  0  0  0  0  0  0  0  0  0
  139.1759   80.9167  223.7270 H   0  0  0  0  0  0  0  0  0  0  0  0
  138.1042   79.0660  222.5939 H   0  0  0  0  0  0  0  0  0  0  0  0
  138.9000   78.7593  221.0346 H   0  0  0  0  0  0  0  0  0  0  0  0
  139.2861   77.1070  223.6041 H   0  0  0  0  0  0  0  0  0  0  0  0
  138.3084   76.6001  222.2132 H   0  0  0  0  0  0  0  0  0  0  0  0
  138.0260   72.6000  223.1290 H   0  0  0  0  0  0  0  0  0  0  0  0
  138.6890   70.3984  223.8639 H   0  0  0  0  0  0  0  0  0  0  0  0
  139.7988   70.3629  222.4741 H   0  0  0  0  0  0  0  0  0  0  0  0
  141.4385   70.4688  224.0484 H   0  0  0  0  0  0  0  0  0  0  0  0
  140.9856   72.2272  224.1360 H   0  0  0  0  0  0  0  0  0  0  0  0
  139.2029   71.3436  225.8487 H   0  0  0  0  0  0  0  0  0  0  0  0
  142.1580   71.6595  226.4956 H   0  0  0  0  0  0  0  0  0  0  0  0
  140.9364   72.9540  226.4323 H   0  0  0  0  0  0  0  0  0  0  0  0
  141.1628   72.2608  228.7721 H   0  0  0  0  0  0  0  0  0  0  0  0
  139.5966   71.6418  228.2003 H   0  0  0  0  0  0  0  0  0  0  0  0
  140.8410   68.3266  227.7765 H   0  0  0  0  0  0  0  0  0  0  0  0
  139.3585   69.3759  227.8836 H   0  0  0  0  0  0  0  0  0  0  0  0
  141.4802   69.3029  225.7409 H   0  0  0  0  0  0  0  0  0  0  0  0
  139.6746   69.0147  225.6334 H   0  0  0  0  0  0  0  0  0  0  0  0
  142.5344   71.9533  219.7246 H   0  0  0  0  0  0  0  0  0  0  0  0
  144.0999   73.2454  221.5376 H   0  0  0  0  0  0  0  0  0  0  0  0
  144.9098   72.6928  220.0962 H   0  0  0  0  0  0  0  0  0  0  0  0
  143.7222   75.4770  220.7013 H   0  0  0  0  0  0  0  0  0  0  0  0
  145.3181   75.1542  220.0781 H   0  0  0  0  0  0  0  0  0  0  0  0
  144.5875   76.4350  217.6003 H   0  0  0  0  0  0  0  0  0  0  0  0
  143.3587   76.0258  215.4904 H   0  0  0  0  0  0  0  0  0  0  0  0
  141.7485   74.1345  215.3393 H   0  0  0  0  0  0  0  0  0  0  0  0
  141.3998   72.6946  217.3166 H   0  0  0  0  0  0  0  0  0  0  0  0
  142.3863   77.1515  221.3854 H   0  0  0  0  0  0  0  0  0  0  0  0
  141.1638   77.9418  220.3298 H   0  0  0  0  0  0  0  0  0  0  0  0
  1  2  2  0
  2  3  1  0
  3  4  2  0
  4  5  1  0
  5  6  2  0
  5  7  1  0
  7  8  1  0
  8  9  1  0
  9 10  1  0
 10 11  2  0
 11 12  1  0
 12 13  1  0
 13 14  1  0
 14 15  1  0
 15 16  1  0
 16 17  1  0
 17 18  1  0
 18 19  1  0
 19 20  1  0
 20 21  1  0
 12 22  2  0
 22 23  1  0
 23 24  1  0
 24 25  1  0
 25 26  1  0
 26 27  1  0
 27 28  2  0
 28 29  1  0
 29 30  2  0
 30 31  1  0
 31 32  2  0
 23 33  2  0
  9 34  1  0
  6  1  1  0
 33 10  1  0
 34  4  1  0
 21 16  1  0
 32 24  1  0
 32 27  1  0
  1 35  1  0
  2 36  1  0
  3 37  1  0
  6 38  1  0
  7 39  1  0
  7 40  1  0
  8 41  1  0
  8 42  1  0
 13 43  1  0
 14 44  1  0
 14 45  1  0
 15 46  1  0
 15 47  1  0
 16 48  1  0
 17 49  1  0
 17 50  1  0
 18 51  1  0
 18 52  1  0
 20 53  1  0
 20 54  1  0
 21 55  1  0
 21 56  1  0
 24 57  1  6
 25 58  1  0
 25 59  1  0
 26 60  1  0
 26 61  1  0
 28 62  1  0
 29 63  1  0
 30 64  1  0
 31 65  1  0
 34 66  1  0
 34 67  1  0
M  END
>  <smiles>  (5) 
c1ccc2c(c1)CCN(c1nc(NCCC3CCOCC3)nc(C3CCc4ccccc43)n1)C2

>  <score_type>  (5) 
oracle

>  <origin>  (5) 
autodockgpu

>  <m_score__min__energy>  (5) 
-9.9800000000000004

>  <m_primary>  (5) 
energy

>  <rmsd>  (5) 
9.465259937280614

>  <m_score__min__rmsd>  (5) 
9.465259937280614

>  <meeko>  (5) 
{"free_energy": -9.87, "intermolecular_energy": -11.66, "internal_energy": -1.34, "cluster_size": 19, "cluster_id": 1, "rank_in_cluster": 2}

>  <energy>  (5) 
-9.82

>  <cluster_rmsd>  (5) 
0.5

>  <cluster>  (5) 
1

$$$$

     RDKit          3D

 67 72  0  0  0  0  0  0  0  0999 V2000
  140.8830   80.5320  223.8410 C   0  0  0  0  0  0  0  0  0  0  0  0
  142.1150   80.1370  223.3860 C   0  0  0  0  0  0  0  0  0  0  0  0
  142.2360   79.0230  222.5880 C   0  0  0  0  0  0  0  0  0  0  0  0
  141.0890   78.3210  222.2630 C   0  0  0  0  0  0  0  0  0  0  0  0
  139.8470   78.7320  222.7280 C   0  0  0  0  0  0  0  0  0  0  0  0
  139.7270   79.8500  223.5290 C   0  0  0  0  0  0  0  0  0  0  0  0
  138.6790   77.9030  222.3160 C   0  0  0  0  0  0  0  0  0  0  0  0
  139.0010   76.4730  222.6950 C   0  0  0  0  0  0  0  0  0  0  0  0
  140.2060   76.1110  221.9580 N   0  0  0  0  0  0  0  0  0  0  0  0
  140.4870   74.7490  221.7860 C   0  0  0  0  0  0  0  0  0  0  0  0
  139.6760   73.8300  222.3390 N   0  0  0  0  0  0  0  0  0  0  0  0
  139.8990   72.4930  222.2050 C   0  0  0  0  0  0  0  0  0  0  0  0
  139.0110   71.5340  222.8090 N   0  0  0  0  0  0  0  0  0  0  0  0
  139.2360   71.1370  224.1980 C   0  0  0  0  0  0  0  0  0  0  0  0
  140.7290   71.1260  224.4190 C   0  0  0  0  0  0  0  0  0  0  0  0
  141.1000   70.6850  225.8150 C   0  0  0  0  0  0  0  0  0  0  0  0
  140.3180   69.4790  226.2600 C   0  0  0  0  0  0  0  0  0  0  0  0
  140.6920   69.2030  227.7060 C   0  0  0  0  0  0  0  0  0  0  0  0
  140.1690   70.2420  228.4670 O   0  0  0  0  0  0  0  0  0  0  0  0
  140.8070   71.4510  228.2040 C   0  0  0  0  0  0  0  0  0  0  0  0
  140.7660   71.8190  226.7430 C   0  0  0  0  0  0  0  0  0  0  0  0
  140.9630   72.1190  221.4980 N   0  0  0  0  0  0  0  0  0  0  0  0
  141.8070   72.9940  220.9240 C   0  0  0  0  0  0  0  0  0  0  0  0
  142.9920   72.6180  220.1380 C   0  0  2  0  0  0  0  0  0  0  0  0
  144.2480   73.1660  220.7820 C   0  0  0  0  0  0  0  0  0  0  0  0
  144.2580   74.5950  220.2780 C   0  0  0  0  0  0  0  0  0  0  0  0
  143.7830   74.4300  218.8800 C   0  0  0  0  0  0  0  0  0  0  0  0
  143.9310   75.1660  217.7230 C   0  0  0  0  0  0  0  0  0  0  0  0
  143.3640   74.7720  216.5120 C   0  0  0  0  0  0  0  0  0  0  0  0
  142.6260   73.6120  216.4500 C   0  0  0  0  0  0  0  0  0  0  0  0
  142.4700   72.8710  217.5910 C   0  0  0  0  0  0  0  0  0  0  0  0
  143.0400   73.2720  218.7920 C   0  0  0  0  0  0  0  0  0  0  0  0
  141.5650   74.3280  221.0720 N   0  0  0  0  0  0  0  0  0  0  0  0
  141.1020   77.1050  221.4090 C   0  0  0  0  0  0  0  0  0  0  0  0
  140.8152   81.4260  224.4783 H   0  0  0  0  0  0  0  0  0  0  0  0
  143.0106   80.7137  223.6604 H   0  0  0  0  0  0  0  0  0  0  0  0
  143.2197   78.6986  222.2177 H   0  0  0  0  0  0  0  0  0  0  0  0
  138.7477   80.1831  223.9032 H   0  0  0  0  0  0  0  0  0  0  0  0
  137.7725   78.2388  222.8409 H   0  0  0  0  0  0  0  0  0  0  0  0
  138.4936   77.9924  221.2354 H   0  0  0  0  0  0  0  0  0  0  0  0
  139.1807   76.3980  223.7776 H   0  0  0  0  0  0  0  0  0  0  0  0
  138.1670   75.7989  222.4499 H   0  0  0  0  0  0  0  0  0  0  0  0
  138.2360   71.1570  222.2290 H   0  0  0  0  0  0  0  0  0  0  0  0
  138.7589   71.8576  224.8786 H   0  0  0  0  0  0  0  0  0  0  0  0
  138.8029   70.1457  224.3974 H   0  0  0  0  0  0  0  0  0  0  0  0
  141.1882   70.4354  223.6964 H   0  0  0  0  0  0  0  0  0  0  0  0
  141.0963   72.1539  224.2827 H   0  0  0  0  0  0  0  0  0  0  0  0
  142.1676   70.4201  225.8270 H   0  0  0  0  0  0  0  0  0  0  0  0
  139.2394   69.6808  226.1826 H   0  0  0  0  0  0  0  0  0  0  0  0
  140.5500   68.6103  225.6263 H   0  0  0  0  0  0  0  0  0  0  0  0
  140.2626   68.2438  228.0307 H   0  0  0  0  0  0  0  0  0  0  0  0
  141.7839   69.1414  227.8239 H   0  0  0  0  0  0  0  0  0  0  0  0
  140.3109   72.2447  228.7818 H   0  0  0  0  0  0  0  0  0  0  0  0
  141.8630   71.3413  228.4917 H   0  0  0  0  0  0  0  0  0  0  0  0
  139.7524   72.1736  226.5044 H   0  0  0  0  0  0  0  0  0  0  0  0
  141.5336   72.5916  226.5888 H   0  0  0  0  0  0  0  0  0  0  0  0
  142.9338   71.5214  220.0748 H   0  0  0  0  0  0  0  0  0  0  0  0
  144.1840   73.1290  221.8795 H   0  0  0  0  0  0  0  0  0  0  0  0
  145.1583   72.6004  220.5342 H   0  0  0  0  0  0  0  0  0  0  0  0
  143.5741   75.2296  220.8607 H   0  0  0  0  0  0  0  0  0  0  0  0
  145.2379   75.0882  220.3593 H   0  0  0  0  0  0  0  0  0  0  0  0
  144.5169   76.0964  217.7570 H   0  0  0  0  0  0  0  0  0  0  0  0
  143.5058   75.3855  215.6100 H   0  0  0  0  0  0  0  0  0  0  0  0
  142.1706   73.2866  215.5030 H   0  0  0  0  0  0  0  0  0  0  0  0
  141.8827   71.9416  217.5555 H   0  0  0  0  0  0  0  0  0  0  0  0
  142.1224   76.6959  221.3716 H   0  0  0  0  0  0  0  0  0  0  0  0
  140.7717   77.3706  220.3939 H   0  0  0  0  0  0  0  0  0  0  0  0
  1  2  2  0
  2  3  1  0
  3  4  2  0
  4  5  1  0
  5  6  2  0
  5  7  1  0
  7  8  1  0
  8  9  1  0
  9 10  1  0
 10 11  2  0
 11 12  1  0
 12 13  1  0
 13 14  1  0
 14 15  1  0
 15 16  1  0
 16 17  1  0
 17 18  1  0
 18 19  1  0
 19 20  1  0
 20 21  1  0
 12 22  2  0
 22 23  1  0
 23 24  1  0
 24 25  1  0
 25 26  1  0
 26 27  1  0
 27 28  2  0
 28 29  1  0
 29 30  2  0
 30 31  1  0
 31 32  2  0
 23 33  2  0
  9 34  1  0
  6  1  1  0
 33 10  1  0
 34  4  1  0
 21 16  1  0
 32 24  1  0
 32 27  1  0
  1 35  1  0
  2 36  1  0
  3 37  1  0
  6 38  1  0
  7 39  1  0
  7 40  1  0
  8 41  1  0
  8 42  1  0
 13 43  1  0
 14 44  1  0
 14 45  1  0
 15 46  1  0
 15 47  1  0
 16 48  1  0
 17 49  1  0
 17 50  1  0
 18 51  1  0
 18 52  1  0
 20 53  1  0
 20 54  1  0
 21 55  1  0
 21 56  1  0
 24 57  1  6
 25 58  1  0
 25 59  1  0
 26 60  1  0
 26 61  1  0
 28 62  1  0
 29 63  1  0
 30 64  1  0
 31 65  1  0
 34 66  1  0
 34 67  1  0
M  END
>  <smiles>  (6) 
c1ccc2c(c1)CCN(c1nc(NCCC3CCOCC3)nc(C3CCc4ccccc43)n1)C2

>  <score_type>  (6) 
oracle

>  <origin>  (6) 
autodockgpu

>  <m_score__min__energy>  (6) 
-9.9800000000000004

>  <m_primary>  (6) 
energy

>  <rmsd>  (6) 
9.21577239461081

>  <m_score__min__rmsd>  (6) 
9.21577239461081

>  <meeko>  (6) 
{"free_energy": -9.39, "intermolecular_energy": -11.18, "internal_energy": -1.39, "cluster_size": 19, "cluster_id": 1, "rank_in_cluster": 16}

>  <energy>  (6) 
-9.81

>  <cluster_rmsd>  (6) 
0.45

>  <cluster>  (6) 
1

$$$$

     RDKit          3D

 67 72  0  0  0  0  0  0  0  0999 V2000
  138.9070   77.4660  221.9850 C   0  0  0  0  0  0  0  0  0  0  0  0
  140.0970   76.7860  222.0290 C   0  0  0  0  0  0  0  0  0  0  0  0
  140.1160   75.4140  221.9230 C   0  0  0  0  0  0  0  0  0  0  0  0
  138.9120   74.7500  221.7720 C   0  0  0  0  0  0  0  0  0  0  0  0
  137.7150   75.4510  221.7280 C   0  0  0  0  0  0  0  0  0  0  0  0
  137.6950   76.8270  221.8350 C   0  0  0  0  0  0  0  0  0  0  0  0
  136.4780   74.6360  221.5620 C   0  0  0  0  0  0  0  0  0  0  0  0
  136.4980   73.5820  222.6500 C   0  0  0  0  0  0  0  0  0  0  0  0
  137.7010   72.7870  222.4320 N   0  0  0  0  0  0  0  0  0  0  0  0
  137.7590   71.5120  223.0110 C   0  0  0  0  0  0  0  0  0  0  0  0
  136.7000   70.6900  222.9120 N   0  0  0  0  0  0  0  0  0  0  0  0
  136.6990   69.4400  223.4530 C   0  0  0  0  0  0  0  0  0  0  0  0
  135.5480   68.5840  223.3290 N   0  0  0  0  0  0  0  0  0  0  0  0
  134.3380   68.9120  224.0800 C   0  0  0  0  0  0  0  0  0  0  0  0
  134.7610   69.7610  225.2530 C   0  0  0  0  0  0  0  0  0  0  0  0
  133.9170   71.0060  225.3960 C   0  0  0  0  0  0  0  0  0  0  0  0
  134.6550   72.2480  224.9750 C   0  0  0  0  0  0  0  0  0  0  0  0
  133.7530   73.4340  225.2700 C   0  0  0  0  0  0  0  0  0  0  0  0
  133.6660   73.5470  226.6520 O   0  0  0  0  0  0  0  0  0  0  0  0
  132.9740   72.4800  227.2180 C   0  0  0  0  0  0  0  0  0  0  0  0
  133.5720   71.1450  226.8530 C   0  0  0  0  0  0  0  0  0  0  0  0
  137.8000   69.0520  224.0940 N   0  0  0  0  0  0  0  0  0  0  0  0
  138.8870   69.8320  224.2240 C   0  0  0  0  0  0  0  0  0  0  0  0
  140.1180   69.4370  224.9260 C   0  0  2  0  0  0  0  0  0  0  0  0
  139.8990   68.1490  225.6910 C   0  0  0  0  0  0  0  0  0  0  0  0
  139.2320   68.6490  226.9570 C   0  0  0  0  0  0  0  0  0  0  0  0
  139.9740   69.9100  227.2170 C   0  0  0  0  0  0  0  0  0  0  0  0
  140.2270   70.6600  228.3460 C   0  0  0  0  0  0  0  0  0  0  0  0
  140.9740   71.8360  228.3080 C   0  0  0  0  0  0  0  0  0  0  0  0
  141.4840   72.2810  227.1100 C   0  0  0  0  0  0  0  0  0  0  0  0
  141.2410   71.5480  225.9800 C   0  0  0  0  0  0  0  0  0  0  0  0
  140.4960   70.3760  226.0290 C   0  0  0  0  0  0  0  0  0  0  0  0
  138.8650   71.0790  223.6740 N   0  0  0  0  0  0  0  0  0  0  0  0
  138.8160   73.2720  221.6480 C   0  0  0  0  0  0  0  0  0  0  0  0
  138.9202   78.5624  222.0727 H   0  0  0  0  0  0  0  0  0  0  0  0
  141.0400   77.3393  222.1495 H   0  0  0  0  0  0  0  0  0  0  0  0
  141.0652   74.8591  221.9575 H   0  0  0  0  0  0  0  0  0  0  0  0
  136.7508   77.3904  221.8019 H   0  0  0  0  0  0  0  0  0  0  0  0
  135.5877   75.2732  221.6686 H   0  0  0  0  0  0  0  0  0  0  0  0
  136.4417   74.1729  220.5649 H   0  0  0  0  0  0  0  0  0  0  0  0
  136.5315   74.0587  223.6408 H   0  0  0  0  0  0  0  0  0  0  0  0
  135.5945   72.9555  222.6146 H   0  0  0  0  0  0  0  0  0  0  0  0
  135.6240   67.7570  222.7050 H   0  0  0  0  0  0  0  0  0  0  0  0
  133.6380   69.4715  223.4421 H   0  0  0  0  0  0  0  0  0  0  0  0
  133.8289   67.9985  224.4210 H   0  0  0  0  0  0  0  0  0  0  0  0
  134.6692   69.1643  226.1725 H   0  0  0  0  0  0  0  0  0  0  0  0
  135.8002   70.0778  225.0807 H   0  0  0  0  0  0  0  0  0  0  0  0
  133.0304   70.9045  224.7529 H   0  0  0  0  0  0  0  0  0  0  0  0
  135.5930   72.3386  225.5425 H   0  0  0  0  0  0  0  0  0  0  0  0
  134.9054   72.2071  223.9047 H   0  0  0  0  0  0  0  0  0  0  0  0
  134.1841   74.3514  224.8428 H   0  0  0  0  0  0  0  0  0  0  0  0
  132.7573   73.2889  224.8255 H   0  0  0  0  0  0  0  0  0  0  0  0
  132.9935   72.5878  228.3125 H   0  0  0  0  0  0  0  0  0  0  0  0
  131.9460   72.5036  226.8274 H   0  0  0  0  0  0  0  0  0  0  0  0
  134.4913   71.0057  227.4407 H   0  0  0  0  0  0  0  0  0  0  0  0
  132.8087   70.3841  227.0728 H   0  0  0  0  0  0  0  0  0  0  0  0
  140.8762   69.3902  224.1304 H   0  0  0  0  0  0  0  0  0  0  0  0
  139.2428   67.4612  225.1375 H   0  0  0  0  0  0  0  0  0  0  0  0
  140.8204   67.5754  225.8700 H   0  0  0  0  0  0  0  0  0  0  0  0
  138.1609   68.8410  226.7959 H   0  0  0  0  0  0  0  0  0  0  0  0
  139.2675   67.9324  227.7908 H   0  0  0  0  0  0  0  0  0  0  0  0
  139.8249   70.3180  229.3111 H   0  0  0  0  0  0  0  0  0  0  0  0
  141.1550   72.4057  229.2314 H   0  0  0  0  0  0  0  0  0  0  0  0
  142.0752   73.2074  227.0614 H   0  0  0  0  0  0  0  0  0  0  0  0
  141.6426   71.8928  225.0157 H   0  0  0  0  0  0  0  0  0  0  0  0
  139.7466   72.8134  222.0135 H   0  0  0  0  0  0  0  0  0  0  0  0
  138.6617   73.0049  220.5921 H   0  0  0  0  0  0  0  0  0  0  0  0
  1  2  2  0
  2  3  1  0
  3  4  2  0
  4  5  1  0
  5  6  2  0
  5  7  1  0
  7  8  1  0
  8  9  1  0
  9 10  1  0
 10 11  2  0
 11 12  1  0
 12 13  1  0
 13 14  1  0
 14 15  1  0
 15 16  1  0
 16 17  1  0
 17 18  1  0
 18 19  1  0
 19 20  1  0
 20 21  1  0
 12 22  2  0
 22 23  1  0
 23 24  1  0
 24 25  1  0
 25 26  1  0
 26 27  1  0
 27 28  2  0
 28 29  1  0
 29 30  2  0
 30 31  1  0
 31 32  2  0
 23 33  2  0
  9 34  1  0
  6  1  1  0
 33 10  1  0
 34  4  1  0
 21 16  1  0
 32 24  1  0
 32 27  1  0
  1 35  1  0
  2 36  1  0
  3 37  1  0
  6 38  1  0
  7 39  1  0
  7 40  1  0
  8 41  1  0
  8 42  1  0
 13 43  1  0
 14 44  1  0
 14 45  1  0
 15 46  1  0
 15 47  1  0
 16 48  1  0
 17 49  1  0
 17 50  1  0
 18 51  1  0
 18 52  1  0
 20 53  1  0
 20 54  1  0
 21 55  1  0
 21 56  1  0
 24 57  1  6
 25 58  1  0
 25 59  1  0
 26 60  1  0
 26 61  1  0
 28 62  1  0
 29 63  1  0
 30 64  1  0
 31 65  1  0
 34 66  1  0
 34 67  1  0
M  END
>  <smiles>  (7) 
c1ccc2c(c1)CCN(c1nc(NCCC3CCOCC3)nc(C3CCc4ccccc43)n1)C2

>  <score_type>  (7) 
oracle

>  <origin>  (7) 
autodockgpu

>  <m_score__min__energy>  (7) 
-9.9800000000000004

>  <m_primary>  (7) 
energy

>  <rmsd>  (7) 
2.8700136549880364

>  <m_score__min__rmsd>  (7) 
2.8700136549880364

>  <meeko>  (7) 
{"free_energy": -8.86, "intermolecular_energy": -10.65, "internal_energy": -1.95, "cluster_size": 1, "cluster_id": 8, "rank_in_cluster": 1}

>  <energy>  (7) 
-9.78

>  <cluster_rmsd>  (7) 
1.38

>  <cluster>  (7) 
1

$$$$

     RDKit          3D

 67 72  0  0  0  0  0  0  0  0999 V2000
  141.2270   81.2140  223.8300 C   0  0  0  0  0  0  0  0  0  0  0  0
  142.4650   80.7810  223.4280 C   0  0  0  0  0  0  0  0  0  0  0  0
  142.5870   79.6510  222.6530 C   0  0  0  0  0  0  0  0  0  0  0  0
  141.4360   78.9720  222.2960 C   0  0  0  0  0  0  0  0  0  0  0  0
  140.1880   79.4210  222.7090 C   0  0  0  0  0  0  0  0  0  0  0  0
  140.0660   80.5550  223.4870 C   0  0  0  0  0  0  0  0  0  0  0  0
  139.0150   78.6150  222.2670 C   0  0  0  0  0  0  0  0  0  0  0  0
  139.2870   77.1830  222.6810 C   0  0  0  0  0  0  0  0  0  0  0  0
  140.5090   76.7800  221.9950 N   0  0  0  0  0  0  0  0  0  0  0  0
  140.7620   75.4090  221.8550 C   0  0  0  0  0  0  0  0  0  0  0  0
  139.8780   74.5190  222.3400 N   0  0  0  0  0  0  0  0  0  0  0  0
  140.0700   73.1750  222.2330 C   0  0  0  0  0  0  0  0  0  0  0  0
  139.1050   72.2470  222.7640 N   0  0  0  0  0  0  0  0  0  0  0  0
  139.5640   70.9470  223.2480 C   0  0  0  0  0  0  0  0  0  0  0  0
  140.7000   71.2080  224.2070 C   0  0  0  0  0  0  0  0  0  0  0  0
  140.2820   71.0470  225.6500 C   0  0  0  0  0  0  0  0  0  0  0  0
  141.1770   71.8060  226.5920 C   0  0  0  0  0  0  0  0  0  0  0  0
  140.7310   71.4770  228.0070 C   0  0  0  0  0  0  0  0  0  0  0  0
  141.0540   70.1440  228.2360 O   0  0  0  0  0  0  0  0  0  0  0  0
  140.2870   69.2820  227.4570 C   0  0  0  0  0  0  0  0  0  0  0  0
  140.3930   69.5860  225.9850 C   0  0  0  0  0  0  0  0  0  0  0  0
  141.1800   72.7630  221.6230 N   0  0  0  0  0  0  0  0  0  0  0  0
  142.0970   73.6080  221.1190 C   0  0  0  0  0  0  0  0  0  0  0  0
  143.3330   73.1900  220.4400 C   0  0  2  0  0  0  0  0  0  0  0  0
  143.6850   74.1660  219.3370 C   0  0  0  0  0  0  0  0  0  0  0  0
  142.7960   73.6890  218.2060 C   0  0  0  0  0  0  0  0  0  0  0  0
  142.8660   72.2130  218.3610 C   0  0  0  0  0  0  0  0  0  0  0  0
  142.6890   71.1480  217.5040 C   0  0  0  0  0  0  0  0  0  0  0  0
  142.8170   69.8250  217.9230 C   0  0  0  0  0  0  0  0  0  0  0  0
  143.1320   69.5520  219.2340 C   0  0  0  0  0  0  0  0  0  0  0  0
  143.3100   70.5990  220.0980 C   0  0  0  0  0  0  0  0  0  0  0  0
  143.1810   71.9140  219.6700 C   0  0  0  0  0  0  0  0  0  0  0  0
  141.8840   74.9490  221.2380 N   0  0  0  0  0  0  0  0  0  0  0  0
  141.4490   77.7420  221.4630 C   0  0  0  0  0  0  0  0  0  0  0  0
  141.1583   82.1207  224.4490 H   0  0  0  0  0  0  0  0  0  0  0  0
  143.3642   81.3398  223.7267 H   0  0  0  0  0  0  0  0  0  0  0  0
  143.5753   79.2962  222.3253 H   0  0  0  0  0  0  0  0  0  0  0  0
  139.0823   80.9178  223.8196 H   0  0  0  0  0  0  0  0  0  0  0  0
  138.0987   78.9820  222.7525 H   0  0  0  0  0  0  0  0  0  0  0  0
  138.8712   78.6909  221.1791 H   0  0  0  0  0  0  0  0  0  0  0  0
  139.4248   77.1218  223.7706 H   0  0  0  0  0  0  0  0  0  0  0  0
  138.4461   76.5252  222.4161 H   0  0  0  0  0  0  0  0  0  0  0  0
  138.1090   72.5420  222.7810 H   0  0  0  0  0  0  0  0  0  0  0  0
  138.7450   70.4261  223.7656 H   0  0  0  0  0  0  0  0  0  0  0  0
  139.8940   70.3118  222.4128 H   0  0  0  0  0  0  0  0  0  0  0  0
  141.5132   70.4988  223.9932 H   0  0  0  0  0  0  0  0  0  0  0  0
  141.0266   72.2489  224.0658 H   0  0  0  0  0  0  0  0  0  0  0  0
  139.2600   71.4374  225.7648 H   0  0  0  0  0  0  0  0  0  0  0  0
  142.2231   71.4985  226.4464 H   0  0  0  0  0  0  0  0  0  0  0  0
  141.1092   72.8879  226.4051 H   0  0  0  0  0  0  0  0  0  0  0  0
  141.2552   72.1218  228.7278 H   0  0  0  0  0  0  0  0  0  0  0  0
  139.6506   71.6451  228.1269 H   0  0  0  0  0  0  0  0  0  0  0  0
  140.6297   68.2511  227.6299 H   0  0  0  0  0  0  0  0  0  0  0  0
  139.2350   69.4131  227.7504 H   0  0  0  0  0  0  0  0  0  0  0  0
  141.3674   69.2226  225.6266 H   0  0  0  0  0  0  0  0  0  0  0  0
  139.5457   69.0834  225.4957 H   0  0  0  0  0  0  0  0  0  0  0  0
  144.0707   73.1100  221.2520 H   0  0  0  0  0  0  0  0  0  0  0  0
  143.4457   75.2001  219.6257 H   0  0  0  0  0  0  0  0  0  0  0  0
  144.7554   74.1858  219.0844 H   0  0  0  0  0  0  0  0  0  0  0  0
  141.7657   74.0552  218.3256 H   0  0  0  0  0  0  0  0  0  0  0  0
  143.1093   74.0466  217.2140 H   0  0  0  0  0  0  0  0  0  0  0  0
  142.4378   71.3495  216.4522 H   0  0  0  0  0  0  0  0  0  0  0  0
  142.6668   69.0024  217.2083 H   0  0  0  0  0  0  0  0  0  0  0  0
  143.2387   68.5136  219.5810 H   0  0  0  0  0  0  0  0  0  0  0  0
  143.5596   70.3951  221.1497 H   0  0  0  0  0  0  0  0  0  0  0  0
  142.4594   77.3073  221.4694 H   0  0  0  0  0  0  0  0  0  0  0  0
  141.1623   77.9983  220.4324 H   0  0  0  0  0  0  0  0  0  0  0  0
  1  2  2  0
  2  3  1  0
  3  4  2  0
  4  5  1  0
  5  6  2  0
  5  7  1  0
  7  8  1  0
  8  9  1  0
  9 10  1  0
 10 11  2  0
 11 12  1  0
 12 13  1  0
 13 14  1  0
 14 15  1  0
 15 16  1  0
 16 17  1  0
 17 18  1  0
 18 19  1  0
 19 20  1  0
 20 21  1  0
 12 22  2  0
 22 23  1  0
 23 24  1  0
 24 25  1  0
 25 26  1  0
 26 27  1  0
 27 28  2  0
 28 29  1  0
 29 30  2  0
 30 31  1  0
 31 32  2  0
 23 33  2  0
  9 34  1  0
  6  1  1  0
 33 10  1  0
 34  4  1  0
 21 16  1  0
 32 24  1  0
 32 27  1  0
  1 35  1  0
  2 36  1  0
  3 37  1  0
  6 38  1  0
  7 39  1  0
  7 40  1  0
  8 41  1  0
  8 42  1  0
 13 43  1  0
 14 44  1  0
 14 45  1  0
 15 46  1  0
 15 47  1  0
 16 48  1  0
 17 49  1  0
 17 50  1  0
 18 51  1  0
 18 52  1  0
 20 53  1  0
 20 54  1  0
 21 55  1  0
 21 56  1  0
 24 57  1  1
 25 58  1  0
 25 59  1  0
 26 60  1  0
 26 61  1  0
 28 62  1  0
 29 63  1  0
 30 64  1  0
 31 65  1  0
 34 66  1  0
 34 67  1  0
M  END
>  <smiles>  (8) 
c1ccc2c(c1)CCN(c1nc(NCCC3CCOCC3)nc(C3CCc4ccccc43)n1)C2

>  <score_type>  (8) 
oracle

>  <origin>  (8) 
autodockgpu

>  <m_score__min__energy>  (8) 
-9.9800000000000004

>  <m_primary>  (8) 
energy

>  <rmsd>  (8) 
7.905775669232877

>  <m_score__min__rmsd>  (8) 
7.905775669232877

>  <meeko>  (8) 
{"free_energy": -9.32, "intermolecular_energy": -11.11, "internal_energy": -1.39, "cluster_size": 19, "cluster_id": 1, "rank_in_cluster": 17}

>  <energy>  (8) 
-9.73

>  <cluster_rmsd>  (8) 
0.33

>  <cluster>  (8) 
1

$$$$

     RDKit          3D

 67 72  0  0  0  0  0  0  0  0999 V2000
  141.8310   81.1070  223.8070 C   0  0  0  0  0  0  0  0  0  0  0  0
  142.7840   80.1490  223.5700 C   0  0  0  0  0  0  0  0  0  0  0  0
  142.4590   79.0010  222.8830 C   0  0  0  0  0  0  0  0  0  0  0  0
  141.1560   78.8460  222.4450 C   0  0  0  0  0  0  0  0  0  0  0  0
  140.2020   79.8230  222.6900 C   0  0  0  0  0  0  0  0  0  0  0  0
  140.5270   80.9740  223.3790 C   0  0  0  0  0  0  0  0  0  0  0  0
  138.8300   79.5530  222.1720 C   0  0  0  0  0  0  0  0  0  0  0  0
  138.4230   78.1920  222.7000 C   0  0  0  0  0  0  0  0  0  0  0  0
  139.3950   77.2390  222.1770 N   0  0  0  0  0  0  0  0  0  0  0  0
  139.0370   75.8840  222.1500 C   0  0  0  0  0  0  0  0  0  0  0  0
  137.7520   75.5420  221.9520 N   0  0  0  0  0  0  0  0  0  0  0  0
  137.3450   74.2430  221.9150 C   0  0  0  0  0  0  0  0  0  0  0  0
  135.9610   73.9090  221.7010 N   0  0  0  0  0  0  0  0  0  0  0  0
  135.4740   72.5990  222.1300 C   0  0  0  0  0  0  0  0  0  0  0  0
  135.6130   72.5450  223.6310 C   0  0  0  0  0  0  0  0  0  0  0  0
  134.5580   73.3650  224.3370 C   0  0  0  0  0  0  0  0  0  0  0  0
  135.1220   74.6230  224.9410 C   0  0  0  0  0  0  0  0  0  0  0  0
  134.0010   75.2980  225.7130 C   0  0  0  0  0  0  0  0  0  0  0  0
  133.7200   74.4930  226.8110 O   0  0  0  0  0  0  0  0  0  0  0  0
  133.1540   73.2790  226.4340 C   0  0  0  0  0  0  0  0  0  0  0  0
  134.0120   72.5210  225.4540 C   0  0  0  0  0  0  0  0  0  0  0  0
  138.2770   73.3070  222.0850 N   0  0  0  0  0  0  0  0  0  0  0  0
  139.5750   73.5910  222.2880 C   0  0  0  0  0  0  0  0  0  0  0  0
  140.6300   72.5850  222.4800 C   0  0  2  0  0  0  0  0  0  0  0  0
  140.6340   71.5980  221.3310 C   0  0  0  0  0  0  0  0  0  0  0  0
  139.5270   70.6460  221.7360 C   0  0  0  0  0  0  0  0  0  0  0  0
  139.7310   70.5450  223.2040 C   0  0  0  0  0  0  0  0  0  0  0  0
  139.4170   69.5960  224.1540 C   0  0  0  0  0  0  0  0  0  0  0  0
  139.7320   69.7580  225.5020 C   0  0  0  0  0  0  0  0  0  0  0  0
  140.3770   70.9000  225.9190 C   0  0  0  0  0  0  0  0  0  0  0  0
  140.6950   71.8520  224.9870 C   0  0  0  0  0  0  0  0  0  0  0  0
  140.3780   71.6800  223.6460 C   0  0  0  0  0  0  0  0  0  0  0  0
  139.9590   74.8990  222.3210 N   0  0  0  0  0  0  0  0  0  0  0  0
  140.6960   77.6490  221.6940 C   0  0  0  0  0  0  0  0  0  0  0  0
  142.1176   82.0145  224.3587 H   0  0  0  0  0  0  0  0  0  0  0  0
  143.8124   80.2988  223.9305 H   0  0  0  0  0  0  0  0  0  0  0  0
  143.2158   78.2271  222.6874 H   0  0  0  0  0  0  0  0  0  0  0  0
  139.7766   81.7532  223.5784 H   0  0  0  0  0  0  0  0  0  0  0  0
  138.1313   80.3230  222.5310 H   0  0  0  0  0  0  0  0  0  0  0  0
  138.8125   79.5713  221.0723 H   0  0  0  0  0  0  0  0  0  0  0  0
  138.4419   78.1896  223.7998 H   0  0  0  0  0  0  0  0  0  0  0  0
  137.4014   77.9320  222.3859 H   0  0  0  0  0  0  0  0  0  0  0  0
  135.3570   74.6190  221.2440 H   0  0  0  0  0  0  0  0  0  0  0  0
  134.4190   72.4763  221.8439 H   0  0  0  0  0  0  0  0  0  0  0  0
  136.0497   71.7917  221.6538 H   0  0  0  0  0  0  0  0  0  0  0  0
  135.5233   71.4981  223.9567 H   0  0  0  0  0  0  0  0  0  0  0  0
  136.5953   72.9656  223.8923 H   0  0  0  0  0  0  0  0  0  0  0  0
  133.7906   73.6553  223.6043 H   0  0  0  0  0  0  0  0  0  0  0  0
  135.9505   74.3751  225.6208 H   0  0  0  0  0  0  0  0  0  0  0  0
  135.5105   75.2900  224.1573 H   0  0  0  0  0  0  0  0  0  0  0  0
  134.3209   76.2956  226.0483 H   0  0  0  0  0  0  0  0  0  0  0  0
  133.1098   75.4235  225.0806 H   0  0  0  0  0  0  0  0  0  0  0  0
  133.0150   72.6605  227.3329 H   0  0  0  0  0  0  0  0  0  0  0  0
  132.1955   73.4965  225.9401 H   0  0  0  0  0  0  0  0  0  0  0  0
  134.8592   72.0836  226.0026 H   0  0  0  0  0  0  0  0  0  0  0  0
  133.3677   71.7593  224.9907 H   0  0  0  0  0  0  0  0  0  0  0  0
  141.5483   73.1796  222.5948 H   0  0  0  0  0  0  0  0  0  0  0  0
  140.4061   72.0941  220.3761 H   0  0  0  0  0  0  0  0  0  0  0  0
  141.6053   71.1081  221.1681 H   0  0  0  0  0  0  0  0  0  0  0  0
  138.5362   71.0600  221.4974 H   0  0  0  0  0  0  0  0  0  0  0  0
  139.5609   69.6778  221.2150 H   0  0  0  0  0  0  0  0  0  0  0  0
  138.8996   68.6786  223.8367 H   0  0  0  0  0  0  0  0  0  0  0  0
  139.4663   68.9767  226.2293 H   0  0  0  0  0  0  0  0  0  0  0  0
  140.6319   71.0453  226.9792 H   0  0  0  0  0  0  0  0  0  0  0  0
  141.2109   72.7695  225.3066 H   0  0  0  0  0  0  0  0  0  0  0  0
  141.4145   76.8287  221.8383 H   0  0  0  0  0  0  0  0  0  0  0  0
  140.6258   77.8955  220.6243 H   0  0  0  0  0  0  0  0  0  0  0  0
  1  2  2  0
  2  3  1  0
  3  4  2  0
  4  5  1  0
  5  6  2  0
  5  7  1  0
  7  8  1  0
  8  9  1  0
  9 10  1  0
 10 11  2  0
 11 12  1  0
 12 13  1  0
 13 14  1  0
 14 15  1  0
 15 16  1  0
 16 17  1  0
 17 18  1  0
 18 19  1  0
 19 20  1  0
 20 21  1  0
 12 22  2  0
 22 23  1  0
 23 24  1  0
 24 25  1  0
 25 26  1  0
 26 27  1  0
 27 28  2  0
 28 29  1  0
 29 30  2  0
 30 31  1  0
 31 32  2  0
 23 33  2  0
  9 34  1  0
  6  1  1  0
 33 10  1  0
 34  4  1  0
 21 16  1  0
 32 24  1  0
 32 27  1  0
  1 35  1  0
  2 36  1  0
  3 37  1  0
  6 38  1  0
  7 39  1  0
  7 40  1  0
  8 41  1  0
  8 42  1  0
 13 43  1  0
 14 44  1  0
 14 45  1  0
 15 46  1  0
 15 47  1  0
 16 48  1  0
 17 49  1  0
 17 50  1  0
 18 51  1  0
 18 52  1  0
 20 53  1  0
 20 54  1  0
 21 55  1  0
 21 56  1  0
 24 57  1  1
 25 58  1  0
 25 59  1  0
 26 60  1  0
 26 61  1  0
 28 62  1  0
 29 63  1  0
 30 64  1  0
 31 65  1  0
 34 66  1  0
 34 67  1  0
M  END
>  <smiles>  (9) 
c1ccc2c(c1)CCN(c1nc(NCCC3CCOCC3)nc(C3CCc4ccccc43)n1)C2

>  <score_type>  (9) 
oracle

>  <origin>  (9) 
autodockgpu

>  <m_score__min__energy>  (9) 
-9.9800000000000004

>  <m_primary>  (9) 
energy

>  <rmsd>  (9) 
2.734296703539343

>  <m_score__min__rmsd>  (9) 
2.734296703539343

>  <meeko>  (9) 
{"free_energy": -8.91, "intermolecular_energy": -10.7, "internal_energy": -1.62, "cluster_size": 7, "cluster_id": 3, "rank_in_cluster": 5}

>  <energy>  (9) 
-9.71

>  <cluster_rmsd>  (9) 
0.54

>  <cluster>  (9) 
1

$$$$

     RDKit          3D

 67 72  0  0  0  0  0  0  0  0999 V2000
  141.2690   81.0450  223.7790 C   0  0  0  0  0  0  0  0  0  0  0  0
  142.4940   80.5430  223.4220 C   0  0  0  0  0  0  0  0  0  0  0  0
  142.5800   79.4210  222.6300 C   0  0  0  0  0  0  0  0  0  0  0  0
  141.4050   78.8220  222.2110 C   0  0  0  0  0  0  0  0  0  0  0  0
  140.1710   79.3410  222.5790 C   0  0  0  0  0  0  0  0  0  0  0  0
  140.0860   80.4660  223.3740 C   0  0  0  0  0  0  0  0  0  0  0  0
  138.9710   78.6170  222.0710 C   0  0  0  0  0  0  0  0  0  0  0  0
  139.1360   77.1650  222.4670 C   0  0  0  0  0  0  0  0  0  0  0  0
  140.3590   76.6980  221.8250 N   0  0  0  0  0  0  0  0  0  0  0  0
  140.5320   75.3160  221.6690 C   0  0  0  0  0  0  0  0  0  0  0  0
  139.7450   74.4670  222.3530 N   0  0  0  0  0  0  0  0  0  0  0  0
  139.8670   73.1150  222.2410 C   0  0  0  0  0  0  0  0  0  0  0  0
  139.0070   72.2330  222.9860 N   0  0  0  0  0  0  0  0  0  0  0  0
  139.4750   70.8830  223.2940 C   0  0  0  0  0  0  0  0  0  0  0  0
  140.6550   71.0240  224.2240 C   0  0  0  0  0  0  0  0  0  0  0  0
  140.2540   70.9400  225.6780 C   0  0  0  0  0  0  0  0  0  0  0  0
  141.0970   71.8260  226.5550 C   0  0  0  0  0  0  0  0  0  0  0  0
  140.6800   71.5710  227.9930 C   0  0  0  0  0  0  0  0  0  0  0  0
  141.0960   70.2850  228.3160 O   0  0  0  0  0  0  0  0  0  0  0  0
  140.3880   69.3170  227.6090 C   0  0  0  0  0  0  0  0  0  0  0  0
  140.4680   69.5180  226.1170 C   0  0  0  0  0  0  0  0  0  0  0  0
  140.8070   72.6530  221.4190 N   0  0  0  0  0  0  0  0  0  0  0  0
  141.6220   73.4550  220.7120 C   0  0  0  0  0  0  0  0  0  0  0  0
  142.6720   72.9810  219.7960 C   0  0  2  0  0  0  0  0  0  0  0  0
  144.0420   73.2360  220.3880 C   0  0  0  0  0  0  0  0  0  0  0  0
  144.2670   74.6920  220.0330 C   0  0  0  0  0  0  0  0  0  0  0  0
  143.6830   74.7700  218.6700 C   0  0  0  0  0  0  0  0  0  0  0  0
  143.8830   75.5980  217.5850 C   0  0  0  0  0  0  0  0  0  0  0  0
  143.1800   75.4460  216.3920 C   0  0  0  0  0  0  0  0  0  0  0  0
  142.2500   74.4390  216.2720 C   0  0  0  0  0  0  0  0  0  0  0  0
  142.0400   73.6080  217.3400 C   0  0  0  0  0  0  0  0  0  0  0  0
  142.7460   73.7680  218.5250 C   0  0  0  0  0  0  0  0  0  0  0  0
  141.4820   74.8050  220.8400 N   0  0  0  0  0  0  0  0  0  0  0  0
  141.3800   77.6080  221.3540 C   0  0  0  0  0  0  0  0  0  0  0  0
  141.2291   81.9435  224.4124 H   0  0  0  0  0  0  0  0  0  0  0  0
  143.4119   81.0393  223.7702 H   0  0  0  0  0  0  0  0  0  0  0  0
  143.5578   79.0107  222.3374 H   0  0  0  0  0  0  0  0  0  0  0  0
  139.1131   80.8836  223.6723 H   0  0  0  0  0  0  0  0  0  0  0  0
  138.0585   79.0318  222.5241 H   0  0  0  0  0  0  0  0  0  0  0  0
  138.8801   78.7206  220.9797 H   0  0  0  0  0  0  0  0  0  0  0  0
  139.2228   77.0766  223.5600 H   0  0  0  0  0  0  0  0  0  0  0  0
  138.2682   76.5659  222.1539 H   0  0  0  0  0  0  0  0  0  0  0  0
  138.0790   72.5940  223.2790 H   0  0  0  0  0  0  0  0  0  0  0  0
  138.6748   70.3089  223.7840 H   0  0  0  0  0  0  0  0  0  0  0  0
  139.7615   70.3489  222.3760 H   0  0  0  0  0  0  0  0  0  0  0  0
  141.3732   70.2192  224.0083 H   0  0  0  0  0  0  0  0  0  0  0  0
  141.0994   72.0159  224.0549 H   0  0  0  0  0  0  0  0  0  0  0  0
  139.2077   71.2658  225.7729 H   0  0  0  0  0  0  0  0  0  0  0  0
  142.1615   71.5821  226.4233 H   0  0  0  0  0  0  0  0  0  0  0  0
  140.9532   72.8841  226.2907 H   0  0  0  0  0  0  0  0  0  0  0  0
  141.1599   72.3019  228.6605 H   0  0  0  0  0  0  0  0  0  0  0  0
  139.5907   71.6714  228.1090 H   0  0  0  0  0  0  0  0  0  0  0  0
  140.8018   68.3278  227.8544 H   0  0  0  0  0  0  0  0  0  0  0  0
  139.3304   69.3967  227.9008 H   0  0  0  0  0  0  0  0  0  0  0  0
  141.4643   69.1978  225.7780 H   0  0  0  0  0  0  0  0  0  0  0  0
  139.6569   68.9227  225.6723 H   0  0  0  0  0  0  0  0  0  0  0  0
  142.4214   71.9236  219.6252 H   0  0  0  0  0  0  0  0  0  0  0  0
  144.0420   73.0848  221.4776 H   0  0  0  0  0  0  0  0  0  0  0  0
  144.8232   72.5597  220.0108 H   0  0  0  0  0  0  0  0  0  0  0  0
  143.7419   75.3597  220.7318 H   0  0  0  0  0  0  0  0  0  0  0  0
  145.3208   75.0035  220.0830 H   0  0  0  0  0  0  0  0  0  0  0  0
  144.6240   76.4071  217.6647 H   0  0  0  0  0  0  0  0  0  0  0  0
  143.3675   76.1280  215.5496 H   0  0  0  0  0  0  0  0  0  0  0  0
  141.6865   74.3042  215.3369 H   0  0  0  0  0  0  0  0  0  0  0  0
  141.2988   72.7993  217.2577 H   0  0  0  0  0  0  0  0  0  0  0  0
  142.3603   77.1108  221.3961 H   0  0  0  0  0  0  0  0  0  0  0  0
  141.1571   77.8994  220.3170 H   0  0  0  0  0  0  0  0  0  0  0  0
  1  2  2  0
  2  3  1  0
  3  4  2  0
  4  5  1  0
  5  6  2  0
  5  7  1  0
  7  8  1  0
  8  9  1  0
  9 10  1  0
 10 11  2  0
 11 12  1  0
 12 13  1  0
 13 14  1  0
 14 15  1  0
 15 16  1  0
 16 17  1  0
 17 18  1  0
 18 19  1  0
 19 20  1  0
 20 21  1  0
 12 22  2  0
 22 23  1  0
 23 24  1  0
 24 25  1  0
 25 26  1  0
 26 27  1  0
 27 28  2  0
 28 29  1  0
 29 30  2  0
 30 31  1  0
 31 32  2  0
 23 33  2  0
  9 34  1  0
  6  1  1  0
 33 10  1  0
 34  4  1  0
 21 16  1  0
 32 24  1  0
 32 27  1  0
  1 35  1  0
  2 36  1  0
  3 37  1  0
  6 38  1  0
  7 39  1  0
  7 40  1  0
  8 41  1  0
  8 42  1  0
 13 43  1  0
 14 44  1  0
 14 45  1  0
 15 46  1  0
 15 47  1  0
 16 48  1  0
 17 49  1  0
 17 50  1  0
 18 51  1  0
 18 52  1  0
 20 53  1  0
 20 54  1  0
 21 55  1  0
 21 56  1  0
 24 57  1  6
 25 58  1  0
 25 59  1  0
 26 60  1  0
 26 61  1  0
 28 62  1  0
 29 63  1  0
 30 64  1  0
 31 65  1  0
 34 66  1  0
 34 67  1  0
M  END
>  <smiles>  (10) 
c1ccc2c(c1)CCN(c1nc(NCCC3CCOCC3)nc(C3CCc4ccccc43)n1)C2

>  <score_type>  (10) 
oracle

>  <origin>  (10) 
autodockgpu

>  <m_score__min__energy>  (10) 
-9.9800000000000004

>  <m_primary>  (10) 
energy

>  <rmsd>  (10) 
9.446396187720225

>  <m_score__min__rmsd>  (10) 
9.446396187720225

>  <meeko>  (10) 
{"free_energy": -9.78, "intermolecular_energy": -11.57, "internal_energy": -1.37, "cluster_size": 19, "cluster_id": 1, "rank_in_cluster": 7}

>  <energy>  (10) 
-9.68

>  <cluster_rmsd>  (10) 
0.75

>  <cluster>  (10) 
1

$$$$

     RDKit          3D

 67 72  0  0  0  0  0  0  0  0999 V2000
  141.4960   80.8810  223.3180 C   0  0  0  0  0  0  0  0  0  0  0  0
  142.0420   79.9380  224.1510 C   0  0  0  0  0  0  0  0  0  0  0  0
  141.9300   78.6000  223.8520 C   0  0  0  0  0  0  0  0  0  0  0  0
  141.2580   78.2390  222.6990 C   0  0  0  0  0  0  0  0  0  0  0  0
  140.7110   79.2030  221.8630 C   0  0  0  0  0  0  0  0  0  0  0  0
  140.8230   80.5460  222.1630 C   0  0  0  0  0  0  0  0  0  0  0  0
  140.0090   78.7030  220.6470 C   0  0  0  0  0  0  0  0  0  0  0  0
  138.9860   77.6900  221.1170 C   0  0  0  0  0  0  0  0  0  0  0  0
  139.7320   76.6290  221.7830 N   0  0  0  0  0  0  0  0  0  0  0  0
  139.1070   75.3850  221.9390 C   0  0  0  0  0  0  0  0  0  0  0  0
  139.8560   74.2690  221.9950 N   0  0  0  0  0  0  0  0  0  0  0  0
  139.3040   73.0330  222.1450 C   0  0  0  0  0  0  0  0  0  0  0  0
  140.1340   71.8580  222.2010 N   0  0  0  0  0  0  0  0  0  0  0  0
  140.0170   70.9630  223.3510 C   0  0  0  0  0  0  0  0  0  0  0  0
  140.3330   71.7770  224.5810 C   0  0  0  0  0  0  0  0  0  0  0  0
  140.8090   70.9210  225.7310 C   0  0  0  0  0  0  0  0  0  0  0  0
  139.8520   69.8030  226.0450 C   0  0  0  0  0  0  0  0  0  0  0  0
  140.3770   69.0890  227.2800 C   0  0  0  0  0  0  0  0  0  0  0  0
  140.2330   69.9660  228.3490 O   0  0  0  0  0  0  0  0  0  0  0  0
  141.0810   71.0640  228.2380 C   0  0  0  0  0  0  0  0  0  0  0  0
  140.8950   71.8090  226.9410 C   0  0  0  0  0  0  0  0  0  0  0  0
  137.9780   72.9630  222.2380 N   0  0  0  0  0  0  0  0  0  0  0  0
  137.1810   74.0450  222.1890 C   0  0  0  0  0  0  0  0  0  0  0  0
  135.7140   74.0060  222.2860 C   0  0  2  0  0  0  0  0  0  0  0  0
  135.1490   75.4110  222.3050 C   0  0  0  0  0  0  0  0  0  0  0  0
  135.3240   75.7970  223.7600 C   0  0  0  0  0  0  0  0  0  0  0  0
  134.9970   74.5260  224.4560 C   0  0  0  0  0  0  0  0  0  0  0  0
  134.5380   74.2130  225.7190 C   0  0  0  0  0  0  0  0  0  0  0  0
  134.3090   72.9000  226.1240 C   0  0  0  0  0  0  0  0  0  0  0  0
  134.5420   71.8650  225.2480 C   0  0  0  0  0  0  0  0  0  0  0  0
  134.9990   72.1600  223.9910 C   0  0  0  0  0  0  0  0  0  0  0  0
  135.2230   73.4720  223.5960 C   0  0  0  0  0  0  0  0  0  0  0  0
  137.7550   75.2720  222.0370 N   0  0  0  0  0  0  0  0  0  0  0  0
  141.0770   76.8250  222.2790 C   0  0  0  0  0  0  0  0  0  0  0  0
  141.5991   81.9440  223.5816 H   0  0  0  0  0  0  0  0  0  0  0  0
  142.5718   80.2531  225.0621 H   0  0  0  0  0  0  0  0  0  0  0  0
  142.3643   77.8362  224.5139 H   0  0  0  0  0  0  0  0  0  0  0  0
  140.3927   81.3170  221.5070 H   0  0  0  0  0  0  0  0  0  0  0  0
  139.5082   79.5349  220.1300 H   0  0  0  0  0  0  0  0  0  0  0  0
  140.7190   78.2480  219.9408 H   0  0  0  0  0  0  0  0  0  0  0  0
  138.2818   78.1588  221.8201 H   0  0  0  0  0  0  0  0  0  0  0  0
  138.3992   77.2959  220.2742 H   0  0  0  0  0  0  0  0  0  0  0  0
  140.7910   71.6890  221.4140 H   0  0  0  0  0  0  0  0  0  0  0  0
  138.9942   70.5634  223.4155 H   0  0  0  0  0  0  0  0  0  0  0  0
  140.7078   70.1122  223.2566 H   0  0  0  0  0  0  0  0  0  0  0  0
  141.1206   72.5031  224.3314 H   0  0  0  0  0  0  0  0  0  0  0  0
  139.4072   72.2797  224.8976 H   0  0  0  0  0  0  0  0  0  0  0  0
  141.7758   70.4728  225.4582 H   0  0  0  0  0  0  0  0  0  0  0  0
  138.8498   70.2106  226.2438 H   0  0  0  0  0  0  0  0  0  0  0  0
  139.7760   69.1069  225.1967 H   0  0  0  0  0  0  0  0  0  0  0  0
  139.7961   68.1729  227.4622 H   0  0  0  0  0  0  0  0  0  0  0  0
  141.4303   68.8004  227.1484 H   0  0  0  0  0  0  0  0  0  0  0  0
  140.8782   71.7519  229.0720 H   0  0  0  0  0  0  0  0  0  0  0  0
  142.1155   70.6909  228.2634 H   0  0  0  0  0  0  0  0  0  0  0  0
  139.9651   72.3928  227.0080 H   0  0  0  0  0  0  0  0  0  0  0  0
  141.7848   72.4419  226.8079 H   0  0  0  0  0  0  0  0  0  0  0  0
  135.4058   73.3848  221.4321 H   0  0  0  0  0  0  0  0  0  0  0  0
  135.7174   76.0801  221.6422 H   0  0  0  0  0  0  0  0  0  0  0  0
  134.1105   75.4779  221.9486 H   0  0  0  0  0  0  0  0  0  0  0  0
  136.3568   76.1131  223.9686 H   0  0  0  0  0  0  0  0  0  0  0  0
  134.7004   76.6477  224.0721 H   0  0  0  0  0  0  0  0  0  0  0  0
  134.3461   75.0291  226.4312 H   0  0  0  0  0  0  0  0  0  0  0  0
  133.9433   72.6915  227.1403 H   0  0  0  0  0  0  0  0  0  0  0  0
  134.3650   70.8224  225.5508 H   0  0  0  0  0  0  0  0  0  0  0  0
  135.1921   71.3422  223.2812 H   0  0  0  0  0  0  0  0  0  0  0  0
  141.2483   76.1633  223.1409 H   0  0  0  0  0  0  0  0  0  0  0  0
  141.7963   76.5884  221.4811 H   0  0  0  0  0  0  0  0  0  0  0  0
  1  2  2  0
  2  3  1  0
  3  4  2  0
  4  5  1  0
  5  6  2  0
  5  7  1  0
  7  8  1  0
  8  9  1  0
  9 10  1  0
 10 11  2  0
 11 12  1  0
 12 13  1  0
 13 14  1  0
 14 15  1  0
 15 16  1  0
 16 17  1  0
 17 18  1  0
 18 19  1  0
 19 20  1  0
 20 21  1  0
 12 22  2  0
 22 23  1  0
 23 24  1  0
 24 25  1  0
 25 26  1  0
 26 27  1  0
 27 28  2  0
 28 29  1  0
 29 30  2  0
 30 31  1  0
 31 32  2  0
 23 33  2  0
  9 34  1  0
  6  1  1  0
 33 10  1  0
 34  4  1  0
 21 16  1  0
 32 24  1  0
 32 27  1  0
  1 35  1  0
  2 36  1  0
  3 37  1  0
  6 38  1  0
  7 39  1  0
  7 40  1  0
  8 41  1  0
  8 42  1  0
 13 43  1  0
 14 44  1  0
 14 45  1  0
 15 46  1  0
 15 47  1  0
 16 48  1  0
 17 49  1  0
 17 50  1  0
 18 51  1  0
 18 52  1  0
 20 53  1  0
 20 54  1  0
 21 55  1  0
 21 56  1  0
 24 57  1  6
 25 58  1  0
 25 59  1  0
 26 60  1  0
 26 61  1  0
 28 62  1  0
 29 63  1  0
 30 64  1  0
 31 65  1  0
 34 66  1  0
 34 67  1  0
M  END
>  <smiles>  (11) 
c1ccc2c(c1)CCN(c1nc(NCCC3CCOCC3)nc(C3CCc4ccccc43)n1)C2

>  <score_type>  (11) 
oracle

>  <origin>  (11) 
autodockgpu

>  <m_score__min__energy>  (11) 
-9.9800000000000004

>  <m_primary>  (11) 
energy

>  <rmsd>  (11) 
6.780195735259721

>  <m_score__min__rmsd>  (11) 
6.780195735259721

>  <meeko>  (11) 
{"free_energy": -8.87, "intermolecular_energy": -10.66, "internal_energy": -1.43, "cluster_size": 13, "cluster_id": 2, "rank_in_cluster": 12}

>  <energy>  (11) 
-9.68

>  <cluster_rmsd>  (11) 
0.56

>  <cluster>  (11) 
1

$$$$

     RDKit          3D

 67 72  0  0  0  0  0  0  0  0999 V2000
  141.4040   81.2780  222.2070 C   0  0  0  0  0  0  0  0  0  0  0  0
  141.0260   80.8710  223.4610 C   0  0  0  0  0  0  0  0  0  0  0  0
  140.9080   79.5310  223.7500 C   0  0  0  0  0  0  0  0  0  0  0  0
  141.1790   78.6170  222.7470 C   0  0  0  0  0  0  0  0  0  0  0  0
  141.5620   79.0420  221.4820 C   0  0  0  0  0  0  0  0  0  0  0  0
  141.6790   80.3870  221.1920 C   0  0  0  0  0  0  0  0  0  0  0  0
  141.8290   77.9730  220.4790 C   0  0  0  0  0  0  0  0  0  0  0  0
  140.6050   77.0820  220.4510 C   0  0  0  0  0  0  0  0  0  0  0  0
  140.4610   76.5360  221.7950 N   0  0  0  0  0  0  0  0  0  0  0  0
  139.6880   75.3780  221.9540 C   0  0  0  0  0  0  0  0  0  0  0  0
  140.2980   74.1940  222.1340 N   0  0  0  0  0  0  0  0  0  0  0  0
  139.5990   73.0350  222.2950 C   0  0  0  0  0  0  0  0  0  0  0  0
  140.2820   71.7820  222.4860 N   0  0  0  0  0  0  0  0  0  0  0  0
  139.5770   70.6850  223.1450 C   0  0  0  0  0  0  0  0  0  0  0  0
  139.2580   71.1420  224.5470 C   0  0  0  0  0  0  0  0  0  0  0  0
  140.1130   70.4520  225.5840 C   0  0  0  0  0  0  0  0  0  0  0  0
  139.4230   69.2610  226.1930 C   0  0  0  0  0  0  0  0  0  0  0  0
  140.3270   68.7260  227.2920 C   0  0  0  0  0  0  0  0  0  0  0  0
  140.3310   69.6710  228.3120 O   0  0  0  0  0  0  0  0  0  0  0  0
  140.9690   70.8470  227.9280 C   0  0  0  0  0  0  0  0  0  0  0  0
  140.3710   71.4470  226.6810 C   0  0  0  0  0  0  0  0  0  0  0  0
  138.2700   73.1160  222.2670 N   0  0  0  0  0  0  0  0  0  0  0  0
  137.6080   74.2720  222.0900 C   0  0  0  0  0  0  0  0  0  0  0  0
  136.1430   74.3980  222.0530 C   0  0  2  0  0  0  0  0  0  0  0  0
  135.7420   75.8470  221.8660 C   0  0  0  0  0  0  0  0  0  0  0  0
  135.8420   76.3820  223.2800 C   0  0  0  0  0  0  0  0  0  0  0  0
  135.3150   75.2440  224.0770 C   0  0  0  0  0  0  0  0  0  0  0  0
  134.7230   75.1330  225.3170 C   0  0  0  0  0  0  0  0  0  0  0  0
  134.3130   73.9080  225.8400 C   0  0  0  0  0  0  0  0  0  0  0  0
  134.4970   72.7580  225.1070 C   0  0  0  0  0  0  0  0  0  0  0  0
  135.0850   72.8520  223.8740 C   0  0  0  0  0  0  0  0  0  0  0  0
  135.4890   74.0770  223.3620 C   0  0  0  0  0  0  0  0  0  0  0  0
  138.3280   75.4190  221.9310 N   0  0  0  0  0  0  0  0  0  0  0  0
  141.0840   77.1480  222.9480 C   0  0  0  0  0  0  0  0  0  0  0  0
  141.4909   82.3556  222.0038 H   0  0  0  0  0  0  0  0  0  0  0  0
  140.8162   81.6194  224.2394 H   0  0  0  0  0  0  0  0  0  0  0  0
  140.6059   79.1948  224.7529 H   0  0  0  0  0  0  0  0  0  0  0  0
  141.9793   80.7331  220.1920 H   0  0  0  0  0  0  0  0  0  0  0  0
  141.9960   78.4180  219.4870 H   0  0  0  0  0  0  0  0  0  0  0  0
  142.7286   77.3987  220.7451 H   0  0  0  0  0  0  0  0  0  0  0  0
  139.7141   77.6682  220.1813 H   0  0  0  0  0  0  0  0  0  0  0  0
  140.7126   76.2808  219.7051 H   0  0  0  0  0  0  0  0  0  0  0  0
  141.2600   71.7060  222.1440 H   0  0  0  0  0  0  0  0  0  0  0  0
  138.6482   70.4536  222.6030 H   0  0  0  0  0  0  0  0  0  0  0  0
  140.1953   69.7754  223.1607 H   0  0  0  0  0  0  0  0  0  0  0  0
  139.4286   72.2267  224.6128 H   0  0  0  0  0  0  0  0  0  0  0  0
  138.2080   70.8870  224.7531 H   0  0  0  0  0  0  0  0  0  0  0  0
  141.0351   70.0981  225.0997 H   0  0  0  0  0  0  0  0  0  0  0  0
  138.4542   69.5637  226.6169 H   0  0  0  0  0  0  0  0  0  0  0  0
  139.2368   68.4886  225.4323 H   0  0  0  0  0  0  0  0  0  0  0  0
  139.9390   67.7674  227.6669 H   0  0  0  0  0  0  0  0  0  0  0  0
  141.3452   68.5534  226.9131 H   0  0  0  0  0  0  0  0  0  0  0  0
  140.8850   71.5774  228.7462 H   0  0  0  0  0  0  0  0  0  0  0  0
  142.0192   70.6022  227.7109 H   0  0  0  0  0  0  0  0  0  0  0  0
  139.4152   71.9206  226.9496 H   0  0  0  0  0  0  0  0  0  0  0  0
  141.1065   72.1659  226.2907 H   0  0  0  0  0  0  0  0  0  0  0  0
  135.8365   73.7154  221.2467 H   0  0  0  0  0  0  0  0  0  0  0  0
  136.4345   76.3701  221.1901 H   0  0  0  0  0  0  0  0  0  0  0  0
  134.7501   75.9790  221.4092 H   0  0  0  0  0  0  0  0  0  0  0  0
  136.8841   76.6099  223.5487 H   0  0  0  0  0  0  0  0  0  0  0  0
  135.2975   77.3247  223.4378 H   0  0  0  0  0  0  0  0  0  0  0  0
  134.5688   76.0435  225.9148 H   0  0  0  0  0  0  0  0  0  0  0  0
  133.8445   73.8606  226.8341 H   0  0  0  0  0  0  0  0  0  0  0  0
  134.1781   71.7828  225.5036 H   0  0  0  0  0  0  0  0  0  0  0  0
  135.2400   71.9401  223.2786 H   0  0  0  0  0  0  0  0  0  0  0  0
  140.4796   76.9401  223.8433 H   0  0  0  0  0  0  0  0  0  0  0  0
  142.0942   76.7328  223.0787 H   0  0  0  0  0  0  0  0  0  0  0  0
  1  2  2  0
  2  3  1  0
  3  4  2  0
  4  5  1  0
  5  6  2  0
  5  7  1  0
  7  8  1  0
  8  9  1  0
  9 10  1  0
 10 11  2  0
 11 12  1  0
 12 13  1  0
 13 14  1  0
 14 15  1  0
 15 16  1  0
 16 17  1  0
 17 18  1  0
 18 19  1  0
 19 20  1  0
 20 21  1  0
 12 22  2  0
 22 23  1  0
 23 24  1  0
 24 25  1  0
 25 26  1  0
 26 27  1  0
 27 28  2  0
 28 29  1  0
 29 30  2  0
 30 31  1  0
 31 32  2  0
 23 33  2  0
  9 34  1  0
  6  1  1  0
 33 10  1  0
 34  4  1  0
 21 16  1  0
 32 24  1  0
 32 27  1  0
  1 35  1  0
  2 36  1  0
  3 37  1  0
  6 38  1  0
  7 39  1  0
  7 40  1  0
  8 41  1  0
  8 42  1  0
 13 43  1  0
 14 44  1  0
 14 45  1  0
 15 46  1  0
 15 47  1  0
 16 48  1  0
 17 49  1  0
 17 50  1  0
 18 51  1  0
 18 52  1  0
 20 53  1  0
 20 54  1  0
 21 55  1  0
 21 56  1  0
 24 57  1  6
 25 58  1  0
 25 59  1  0
 26 60  1  0
 26 61  1  0
 28 62  1  0
 29 63  1  0
 30 64  1  0
 31 65  1  0
 34 66  1  0
 34 67  1  0
M  END
>  <smiles>  (12) 
c1ccc2c(c1)CCN(c1nc(NCCC3CCOCC3)nc(C3CCc4ccccc43)n1)C2

>  <score_type>  (12) 
oracle

>  <origin>  (12) 
autodockgpu

>  <m_score__min__energy>  (12) 
-9.9800000000000004

>  <m_primary>  (12) 
energy

>  <rmsd>  (12) 
7.07706003866741

>  <m_score__min__rmsd>  (12) 
7.07706003866741

>  <meeko>  (12) 
{"free_energy": -9.03, "intermolecular_energy": -10.82, "internal_energy": -1.45, "cluster_size": 13, "cluster_id": 2, "rank_in_cluster": 11}

>  <energy>  (12) 
-9.49

>  <cluster_rmsd>  (12) 
1.61

>  <cluster>  (12) 
1

$$$$

     RDKit          3D

 67 72  0  0  0  0  0  0  0  0999 V2000
  141.3160   81.2850  222.2040 C   0  0  0  0  0  0  0  0  0  0  0  0
  140.9380   80.8780  223.4580 C   0  0  0  0  0  0  0  0  0  0  0  0
  140.8460   79.5370  223.7540 C   0  0  0  0  0  0  0  0  0  0  0  0
  141.1430   78.6230  222.7590 C   0  0  0  0  0  0  0  0  0  0  0  0
  141.5270   79.0490  221.4940 C   0  0  0  0  0  0  0  0  0  0  0  0
  141.6180   80.3940  221.1970 C   0  0  0  0  0  0  0  0  0  0  0  0
  141.8240   77.9800  220.4990 C   0  0  0  0  0  0  0  0  0  0  0  0
  140.6190   77.0630  220.4670 C   0  0  0  0  0  0  0  0  0  0  0  0
  140.4760   76.5220  221.8130 N   0  0  0  0  0  0  0  0  0  0  0  0
  139.7260   75.3490  221.9730 C   0  0  0  0  0  0  0  0  0  0  0  0
  138.3840   75.4090  221.9300 N   0  0  0  0  0  0  0  0  0  0  0  0
  137.6040   74.3020  222.0790 C   0  0  0  0  0  0  0  0  0  0  0  0
  136.1680   74.4000  222.0270 N   0  0  0  0  0  0  0  0  0  0  0  0
  135.3650   73.2590  222.4600 C   0  0  0  0  0  0  0  0  0  0  0  0
  135.5220   73.1480  223.9560 C   0  0  0  0  0  0  0  0  0  0  0  0
  134.3110   73.6600  224.7010 C   0  0  0  0  0  0  0  0  0  0  0  0
  134.6190   74.8880  225.5150 C   0  0  0  0  0  0  0  0  0  0  0  0
  133.3660   75.2370  226.3000 C   0  0  0  0  0  0  0  0  0  0  0  0
  133.1890   74.2390  227.2510 O   0  0  0  0  0  0  0  0  0  0  0  0
  132.8620   73.0180  226.6670 C   0  0  0  0  0  0  0  0  0  0  0  0
  133.8790   72.5750  225.6470 C   0  0  0  0  0  0  0  0  0  0  0  0
  138.2230   73.1400  222.2720 N   0  0  0  0  0  0  0  0  0  0  0  0
  139.5620   73.0220  222.3250 C   0  0  0  0  0  0  0  0  0  0  0  0
  140.2800   71.7560  222.5370 C   0  0  2  0  0  0  0  0  0  0  0  0
  139.6160   70.6360  221.7620 C   0  0  0  0  0  0  0  0  0  0  0  0
  138.4790   70.2500  222.6860 C   0  0  0  0  0  0  0  0  0  0  0  0
  139.1170   70.3640  224.0230 C   0  0  0  0  0  0  0  0  0  0  0  0
  138.8730   69.7940  225.2550 C   0  0  0  0  0  0  0  0  0  0  0  0
  139.6480   70.0840  226.3760 C   0  0  0  0  0  0  0  0  0  0  0  0
  140.6980   70.9680  226.2700 C   0  0  0  0  0  0  0  0  0  0  0  0
  140.9520   71.5420  225.0530 C   0  0  0  0  0  0  0  0  0  0  0  0
  140.1740   71.2460  223.9410 C   0  0  0  0  0  0  0  0  0  0  0  0
  140.3220   74.1430  222.1730 N   0  0  0  0  0  0  0  0  0  0  0  0
  141.0780   77.1530  222.9670 C   0  0  0  0  0  0  0  0  0  0  0  0
  141.3805   82.3629  221.9942 H   0  0  0  0  0  0  0  0  0  0  0  0
  140.7074   81.6265  224.2304 H   0  0  0  0  0  0  0  0  0  0  0  0
  140.5438   79.2005  224.7567 H   0  0  0  0  0  0  0  0  0  0  0  0
  141.9193   80.7404  220.1974 H   0  0  0  0  0  0  0  0  0  0  0  0
  141.9891   78.4228  219.5057 H   0  0  0  0  0  0  0  0  0  0  0  0
  142.7335   77.4262  220.7751 H   0  0  0  0  0  0  0  0  0  0  0  0
  139.7181   77.6286  220.1869 H   0  0  0  0  0  0  0  0  0  0  0  0
  140.7494   76.2598  219.7268 H   0  0  0  0  0  0  0  0  0  0  0  0
  135.7550   75.2880  221.6800 H   0  0  0  0  0  0  0  0  0  0  0  0
  134.3080   73.4222  222.2027 H   0  0  0  0  0  0  0  0  0  0  0  0
  135.6963   72.3358  221.9621 H   0  0  0  0  0  0  0  0  0  0  0  0
  135.6770   72.0909  224.2176 H   0  0  0  0  0  0  0  0  0  0  0  0
  136.3832   73.7660  224.2500 H   0  0  0  0  0  0  0  0  0  0  0  0
  133.5341   73.9248  223.9687 H   0  0  0  0  0  0  0  0  0  0  0  0
  135.4505   74.6830  226.2053 H   0  0  0  0  0  0  0  0  0  0  0  0
  134.9146   75.7230  224.8627 H   0  0  0  0  0  0  0  0  0  0  0  0
  133.4896   76.2118  226.7944 H   0  0  0  0  0  0  0  0  0  0  0  0
  132.4926   75.3034  225.6346 H   0  0  0  0  0  0  0  0  0  0  0  0
  132.7991   72.2549  227.4568 H   0  0  0  0  0  0  0  0  0  0  0  0
  131.9004   73.1430  226.1476 H   0  0  0  0  0  0  0  0  0  0  0  0
  134.7677   72.2086  226.1817 H   0  0  0  0  0  0  0  0  0  0  0  0
  133.3987   71.7952  225.0377 H   0  0  0  0  0  0  0  0  0  0  0  0
  141.3156   71.9834  222.2442 H   0  0  0  0  0  0  0  0  0  0  0  0
  139.2400   70.9895  220.7906 H   0  0  0  0  0  0  0  0  0  0  0  0
  140.2917   69.8036  221.5159 H   0  0  0  0  0  0  0  0  0  0  0  0
  137.6306   70.9432  222.5873 H   0  0  0  0  0  0  0  0  0  0  0  0
  138.0566   69.2557  222.4789 H   0  0  0  0  0  0  0  0  0  0  0  0
  138.0374   69.0858  225.3561 H   0  0  0  0  0  0  0  0  0  0  0  0
  139.4218   69.6085  227.3418 H   0  0  0  0  0  0  0  0  0  0  0  0
  141.3201   71.2083  227.1448 H   0  0  0  0  0  0  0  0  0  0  0  0
  141.7876   72.2506  224.9541 H   0  0  0  0  0  0  0  0  0  0  0  0
  140.4722   76.9367  223.8593 H   0  0  0  0  0  0  0  0  0  0  0  0
  142.0959   76.7601  223.1066 H   0  0  0  0  0  0  0  0  0  0  0  0
  1  2  2  0
  2  3  1  0
  3  4  2  0
  4  5  1  0
  5  6  2  0
  5  7  1  0
  7  8  1  0
  8  9  1  0
  9 10  1  0
 10 11  2  0
 11 12  1  0
 12 13  1  0
 13 14  1  0
 14 15  1  0
 15 16  1  0
 16 17  1  0
 17 18  1  0
 18 19  1  0
 19 20  1  0
 20 21  1  0
 12 22  2  0
 22 23  1  0
 23 24  1  0
 24 25  1  0
 25 26  1  0
 26 27  1  0
 27 28  2  0
 28 29  1  0
 29 30  2  0
 30 31  1  0
 31 32  2  0
 23 33  2  0
  9 34  1  0
  6  1  1  0
 33 10  1  0
 34  4  1  0
 21 16  1  0
 32 24  1  0
 32 27  1  0
  1 35  1  0
  2 36  1  0
  3 37  1  0
  6 38  1  0
  7 39  1  0
  7 40  1  0
  8 41  1  0
  8 42  1  0
 13 43  1  0
 14 44  1  0
 14 45  1  0
 15 46  1  0
 15 47  1  0
 16 48  1  0
 17 49  1  0
 17 50  1  0
 18 51  1  0
 18 52  1  0
 20 53  1  0
 20 54  1  0
 21 55  1  0
 21 56  1  0
 24 57  1  6
 25 58  1  0
 25 59  1  0
 26 60  1  0
 26 61  1  0
 28 62  1  0
 29 63  1  0
 30 64  1  0
 31 65  1  0
 34 66  1  0
 34 67  1  0
M  END
>  <smiles>  (13) 
c1ccc2c(c1)CCN(c1nc(NCCC3CCOCC3)nc(C3CCc4ccccc43)n1)C2

>  <score_type>  (13) 
oracle

>  <origin>  (13) 
autodockgpu

>  <m_score__min__energy>  (13) 
-9.9800000000000004

>  <m_primary>  (13) 
energy

>  <rmsd>  (13) 
2.1420022411811575

>  <m_score__min__rmsd>  (13) 
2.1420022411811575

>  <meeko>  (13) 
{"free_energy": -9.15, "intermolecular_energy": -10.94, "internal_energy": -1.41, "cluster_size": 7, "cluster_id": 3, "rank_in_cluster": 4}

>  <energy>  (13) 
-9.45

>  <cluster_rmsd>  (13) 
1.42

>  <cluster>  (13) 
1

$$$$

     RDKit          3D

 67 72  0  0  0  0  0  0  0  0999 V2000
  140.4660   68.5120  228.0140 C   0  0  0  0  0  0  0  0  0  0  0  0
  141.1930   69.6680  228.1360 C   0  0  0  0  0  0  0  0  0  0  0  0
  141.0490   70.6790  227.2130 C   0  0  0  0  0  0  0  0  0  0  0  0
  140.1590   70.4940  226.1710 C   0  0  0  0  0  0  0  0  0  0  0  0
  139.4270   69.3190  226.0600 C   0  0  0  0  0  0  0  0  0  0  0  0
  139.5720   68.3050  226.9860 C   0  0  0  0  0  0  0  0  0  0  0  0
  138.4970   69.2260  224.8990 C   0  0  0  0  0  0  0  0  0  0  0  0
  139.3130   69.5260  223.6590 C   0  0  0  0  0  0  0  0  0  0  0  0
  139.8350   70.8770  223.8250 N   0  0  0  0  0  0  0  0  0  0  0  0
  140.2600   71.5620  222.6780 C   0  0  0  0  0  0  0  0  0  0  0  0
  140.4410   70.8860  221.5310 N   0  0  0  0  0  0  0  0  0  0  0  0
  140.8520   71.4980  220.3860 C   0  0  0  0  0  0  0  0  0  0  0  0
  141.0370   70.7450  219.1720 N   0  0  0  0  0  0  0  0  0  0  0  0
  142.3160   70.0760  218.9430 C   0  0  0  0  0  0  0  0  0  0  0  0
  143.2890   70.6160  219.9620 C   0  0  0  0  0  0  0  0  0  0  0  0
  143.9080   71.9240  219.5290 C   0  0  0  0  0  0  0  0  0  0  0  0
  144.7490   71.7740  218.2890 C   0  0  0  0  0  0  0  0  0  0  0  0
  145.4050   73.1180  218.0210 C   0  0  0  0  0  0  0  0  0  0  0  0
  146.3330   73.3280  219.0340 O   0  0  0  0  0  0  0  0  0  0  0  0
  145.7200   73.5200  220.2690 C   0  0  0  0  0  0  0  0  0  0  0  0
  144.8070   72.3810  220.6440 C   0  0  0  0  0  0  0  0  0  0  0  0
  141.0720   72.8100  220.4400 N   0  0  0  0  0  0  0  0  0  0  0  0
  140.9070   73.5360  221.5600 C   0  0  0  0  0  0  0  0  0  0  0  0
  141.1420   74.9850  221.6570 C   0  0  2  0  0  0  0  0  0  0  0  0
  139.8240   75.7310  221.6860 C   0  0  0  0  0  0  0  0  0  0  0  0
  139.4720   75.7970  220.2140 C   0  0  0  0  0  0  0  0  0  0  0  0
  140.7990   76.0370  219.5910 C   0  0  0  0  0  0  0  0  0  0  0  0
  141.2150   76.6070  218.4070 C   0  0  0  0  0  0  0  0  0  0  0  0
  142.5610   76.7080  218.0600 C   0  0  0  0  0  0  0  0  0  0  0  0
  143.5240   76.2270  218.9170 C   0  0  0  0  0  0  0  0  0  0  0  0
  143.1270   75.6580  220.0970 C   0  0  0  0  0  0  0  0  0  0  0  0
  141.7830   75.5630  220.4340 C   0  0  0  0  0  0  0  0  0  0  0  0
  140.4960   72.9020  222.6940 N   0  0  0  0  0  0  0  0  0  0  0  0
  139.9240   71.5170  225.1190 C   0  0  0  0  0  0  0  0  0  0  0  0
  140.6015   67.7199  228.7651 H   0  0  0  0  0  0  0  0  0  0  0  0
  141.8942   69.7881  228.9749 H   0  0  0  0  0  0  0  0  0  0  0  0
  141.6273   71.6105  227.3021 H   0  0  0  0  0  0  0  0  0  0  0  0
  138.9975   67.3704  226.9063 H   0  0  0  0  0  0  0  0  0  0  0  0
  138.0703   68.2141  224.8358 H   0  0  0  0  0  0  0  0  0  0  0  0
  137.6631   69.9356  225.0037 H   0  0  0  0  0  0  0  0  0  0  0  0
  140.1406   68.8075  223.5655 H   0  0  0  0  0  0  0  0  0  0  0  0
  138.6996   69.4451  222.7495 H   0  0  0  0  0  0  0  0  0  0  0  0
  140.2470   70.7070  218.5000 H   0  0  0  0  0  0  0  0  0  0  0  0
  142.2013   68.9894  219.0699 H   0  0  0  0  0  0  0  0  0  0  0  0
  142.6770   70.2618  217.9207 H   0  0  0  0  0  0  0  0  0  0  0  0
  142.7555   70.7744  220.9108 H   0  0  0  0  0  0  0  0  0  0  0  0
  144.1001   69.8814  220.0740 H   0  0  0  0  0  0  0  0  0  0  0  0
  143.1015   72.6386  219.3078 H   0  0  0  0  0  0  0  0  0  0  0  0
  145.5189   71.0045  218.4474 H   0  0  0  0  0  0  0  0  0  0  0  0
  144.1294   71.4663  217.4338 H   0  0  0  0  0  0  0  0  0  0  0  0
  145.9097   73.1035  217.0437 H   0  0  0  0  0  0  0  0  0  0  0  0
  144.6557   73.9231  218.0028 H   0  0  0  0  0  0  0  0  0  0  0  0
  146.4999   73.6150  221.0389 H   0  0  0  0  0  0  0  0  0  0  0  0
  145.1069   74.4306  220.1996 H   0  0  0  0  0  0  0  0  0  0  0  0
  145.4281   71.5293  220.9585 H   0  0  0  0  0  0  0  0  0  0  0  0
  144.1534   72.7493  221.4485 H   0  0  0  0  0  0  0  0  0  0  0  0
  141.7675   75.0955  222.5551 H   0  0  0  0  0  0  0  0  0  0  0  0
  139.0629   75.1772  222.2553 H   0  0  0  0  0  0  0  0  0  0  0  0
  139.8799   76.7148  222.1749 H   0  0  0  0  0  0  0  0  0  0  0  0
  139.0317   74.8512  219.8653 H   0  0  0  0  0  0  0  0  0  0  0  0
  138.7220   76.5640  219.9707 H   0  0  0  0  0  0  0  0  0  0  0  0
  140.4574   76.9962  217.7109 H   0  0  0  0  0  0  0  0  0  0  0  0
  142.8522   77.1702  217.1052 H   0  0  0  0  0  0  0  0  0  0  0  0
  144.5910   76.2982  218.6592 H   0  0  0  0  0  0  0  0  0  0  0  0
  143.8864   75.2688  220.7911 H   0  0  0  0  0  0  0  0  0  0  0  0
  140.7575   72.2348  225.1149 H   0  0  0  0  0  0  0  0  0  0  0  0
  138.9818   72.0445  225.3291 H   0  0  0  0  0  0  0  0  0  0  0  0
  1  2  2  0
  2  3  1  0
  3  4  2  0
  4  5  1  0
  5  6  2  0
  5  7  1  0
  7  8  1  0
  8  9  1  0
  9 10  1  0
 10 11  2  0
 11 12  1  0
 12 13  1  0
 13 14  1  0
 14 15  1  0
 15 16  1  0
 16 17  1  0
 17 18  1  0
 18 19  1  0
 19 20  1  0
 20 21  1  0
 12 22  2  0
 22 23  1  0
 23 24  1  0
 24 25  1  0
 25 26  1  0
 26 27  1  0
 27 28  2  0
 28 29  1  0
 29 30  2  0
 30 31  1  0
 31 32  2  0
 23 33  2  0
  9 34  1  0
  6  1  1  0
 33 10  1  0
 34  4  1  0
 21 16  1  0
 32 24  1  0
 32 27  1  0
  1 35  1  0
  2 36  1  0
  3 37  1  0
  6 38  1  0
  7 39  1  0
  7 40  1  0
  8 41  1  0
  8 42  1  0
 13 43  1  0
 14 44  1  0
 14 45  1  0
 15 46  1  0
 15 47  1  0
 16 48  1  0
 17 49  1  0
 17 50  1  0
 18 51  1  0
 18 52  1  0
 20 53  1  0
 20 54  1  0
 21 55  1  0
 21 56  1  0
 24 57  1  1
 25 58  1  0
 25 59  1  0
 26 60  1  0
 26 61  1  0
 28 62  1  0
 29 63  1  0
 30 64  1  0
 31 65  1  0
 34 66  1  0
 34 67  1  0
M  END
>  <smiles>  (14) 
c1ccc2c(c1)CCN(c1nc(NCCC3CCOCC3)nc(C3CCc4ccccc43)n1)C2

>  <score_type>  (14) 
oracle

>  <origin>  (14) 
autodockgpu

>  <m_score__min__energy>  (14) 
-9.9800000000000004

>  <m_primary>  (14) 
energy

>  <rmsd>  (14) 
8.607641847927704

>  <m_score__min__rmsd>  (14) 
8.607641847927704

>  <meeko>  (14) 
{"free_energy": -8.6, "intermolecular_energy": -10.39, "internal_energy": -2.21, "cluster_size": 1, "cluster_id": 9, "rank_in_cluster": 1}

>  <energy>  (14) 
-9.43

>  <cluster_rmsd>  (14) 
1.56

>  <cluster>  (14) 
1

$$$$

     RDKit          3D

 67 72  0  0  0  0  0  0  0  0999 V2000
  141.5110   80.9160  223.9030 C   0  0  0  0  0  0  0  0  0  0  0  0
  142.6440   80.3890  223.3360 C   0  0  0  0  0  0  0  0  0  0  0  0
  142.5550   79.3210  222.4740 C   0  0  0  0  0  0  0  0  0  0  0  0
  141.3030   78.8010  222.1990 C   0  0  0  0  0  0  0  0  0  0  0  0
  140.1640   79.3450  222.7780 C   0  0  0  0  0  0  0  0  0  0  0  0
  140.2530   80.4160  223.6440 C   0  0  0  0  0  0  0  0  0  0  0  0
  138.8680   78.7070  222.4120 C   0  0  0  0  0  0  0  0  0  0  0  0
  139.0140   77.2250  222.6900 C   0  0  0  0  0  0  0  0  0  0  0  0
  140.1050   76.7530  221.8460 N   0  0  0  0  0  0  0  0  0  0  0  0
  140.1830   75.3790  221.5820 C   0  0  0  0  0  0  0  0  0  0  0  0
  139.5450   74.5120  222.3870 N   0  0  0  0  0  0  0  0  0  0  0  0
  139.5850   73.1660  222.1790 C   0  0  0  0  0  0  0  0  0  0  0  0
  138.8900   72.2630  223.0600 N   0  0  0  0  0  0  0  0  0  0  0  0
  139.5390   71.0110  223.4450 C   0  0  0  0  0  0  0  0  0  0  0  0
  140.8040   71.3750  224.1820 C   0  0  0  0  0  0  0  0  0  0  0  0
  140.8770   70.7370  225.5490 C   0  0  0  0  0  0  0  0  0  0  0  0
  139.6130   70.0030  225.9050 C   0  0  0  0  0  0  0  0  0  0  0  0
  139.7630   69.5070  227.3340 C   0  0  0  0  0  0  0  0  0  0  0  0
  139.7440   70.6270  228.1570 O   0  0  0  0  0  0  0  0  0  0  0  0
  140.8740   71.4200  227.9810 C   0  0  0  0  0  0  0  0  0  0  0  0
  141.0630   71.8460  226.5480 C   0  0  0  0  0  0  0  0  0  0  0  0
  140.2880   72.7300  221.1360 N   0  0  0  0  0  0  0  0  0  0  0  0
  140.9450   73.5510  220.2990 C   0  0  0  0  0  0  0  0  0  0  0  0
  141.7310   73.1050  219.1380 C   0  0  2  0  0  0  0  0  0  0  0  0
  141.3890   71.6710  218.7900 C   0  0  0  0  0  0  0  0  0  0  0  0
  142.2420   70.9000  219.7760 C   0  0  0  0  0  0  0  0  0  0  0  0
  143.4910   71.7040  219.7970 C   0  0  0  0  0  0  0  0  0  0  0  0
  144.8070   71.4260  220.1000 C   0  0  0  0  0  0  0  0  0  0  0  0
  145.8070   72.3940  220.0360 C   0  0  0  0  0  0  0  0  0  0  0  0
  145.4890   73.6790  219.6610 C   0  0  0  0  0  0  0  0  0  0  0  0
  144.1860   73.9710  219.3580 C   0  0  0  0  0  0  0  0  0  0  0  0
  143.1970   72.9990  219.4240 C   0  0  0  0  0  0  0  0  0  0  0  0
  140.8910   74.8940  220.5260 N   0  0  0  0  0  0  0  0  0  0  0  0
  141.0910   77.6500  221.2840 C   0  0  0  0  0  0  0  0  0  0  0  0
  141.6105   81.7694  224.5899 H   0  0  0  0  0  0  0  0  0  0  0  0
  143.6272   80.8224  223.5718 H   0  0  0  0  0  0  0  0  0  0  0  0
  143.4572   78.8909  222.0146 H   0  0  0  0  0  0  0  0  0  0  0  0
  139.3566   80.8527  224.1085 H   0  0  0  0  0  0  0  0  0  0  0  0
  138.0539   79.1278  223.0205 H   0  0  0  0  0  0  0  0  0  0  0  0
  138.6247   78.8875  221.3545 H   0  0  0  0  0  0  0  0  0  0  0  0
  139.2543   77.0588  223.7505 H   0  0  0  0  0  0  0  0  0  0  0  0
  138.0804   76.6850  222.4737 H   0  0  0  0  0  0  0  0  0  0  0  0
  137.9460   72.5400  223.3910 H   0  0  0  0  0  0  0  0  0  0  0  0
  138.8752   70.4279  224.1002 H   0  0  0  0  0  0  0  0  0  0  0  0
  139.7644   70.3986  222.5595 H   0  0  0  0  0  0  0  0  0  0  0  0
  141.6675   71.0395  223.5889 H   0  0  0  0  0  0  0  0  0  0  0  0
  140.8098   72.4663  224.3201 H   0  0  0  0  0  0  0  0  0  0  0  0
  141.7035   70.0111  225.5536 H   0  0  0  0  0  0  0  0  0  0  0  0
  138.7505   70.6817  225.8311 H   0  0  0  0  0  0  0  0  0  0  0  0
  139.4456   69.1611  225.2170 H   0  0  0  0  0  0  0  0  0  0  0  0
  138.9301   68.8357  227.5903 H   0  0  0  0  0  0  0  0  0  0  0  0
  140.7002   68.9446  227.4580 H   0  0  0  0  0  0  0  0  0  0  0  0
  140.7744   72.3196  228.6062 H   0  0  0  0  0  0  0  0  0  0  0  0
  141.7505   70.8214  228.2699 H   0  0  0  0  0  0  0  0  0  0  0  0
  140.3340   72.6388  226.3241 H   0  0  0  0  0  0  0  0  0  0  0  0
  142.1042   72.1878  226.4529 H   0  0  0  0  0  0  0  0  0  0  0  0
  141.5035   73.8471  218.3585 H   0  0  0  0  0  0  0  0  0  0  0  0
  140.3188   71.4667  218.9411 H   0  0  0  0  0  0  0  0  0  0  0  0
  141.5791   71.4107  217.7383 H   0  0  0  0  0  0  0  0  0  0  0  0
  141.7719   70.8655  220.7699 H   0  0  0  0  0  0  0  0  0  0  0  0
  142.3968   69.8465  219.5002 H   0  0  0  0  0  0  0  0  0  0  0  0
  145.0770   70.4036  220.4031 H   0  0  0  0  0  0  0  0  0  0  0  0
  146.8461   72.1321  220.2842 H   0  0  0  0  0  0  0  0  0  0  0  0
  146.2657   74.4560  219.6057 H   0  0  0  0  0  0  0  0  0  0  0  0
  143.9180   74.9944  219.0568 H   0  0  0  0  0  0  0  0  0  0  0  0
  142.0403   77.1110  221.1490 H   0  0  0  0  0  0  0  0  0  0  0  0
  140.7336   78.0198  220.3116 H   0  0  0  0  0  0  0  0  0  0  0  0
  1  2  2  0
  2  3  1  0
  3  4  2  0
  4  5  1  0
  5  6  2  0
  5  7  1  0
  7  8  1  0
  8  9  1  0
  9 10  1  0
 10 11  2  0
 11 12  1  0
 12 13  1  0
 13 14  1  0
 14 15  1  0
 15 16  1  0
 16 17  1  0
 17 18  1  0
 18 19  1  0
 19 20  1  0
 20 21  1  0
 12 22  2  0
 22 23  1  0
 23 24  1  0
 24 25  1  0
 25 26  1  0
 26 27  1  0
 27 28  2  0
 28 29  1  0
 29 30  2  0
 30 31  1  0
 31 32  2  0
 23 33  2  0
  9 34  1  0
  6  1  1  0
 33 10  1  0
 34  4  1  0
 21 16  1  0
 32 24  1  0
 32 27  1  0
  1 35  1  0
  2 36  1  0
  3 37  1  0
  6 38  1  0
  7 39  1  0
  7 40  1  0
  8 41  1  0
  8 42  1  0
 13 43  1  0
 14 44  1  0
 14 45  1  0
 15 46  1  0
 15 47  1  0
 16 48  1  0
 17 49  1  0
 17 50  1  0
 18 51  1  0
 18 52  1  0
 20 53  1  0
 20 54  1  0
 21 55  1  0
 21 56  1  0
 24 57  1  6
 25 58  1  0
 25 59  1  0
 26 60  1  0
 26 61  1  0
 28 62  1  0
 29 63  1  0
 30 64  1  0
 31 65  1  0
 34 66  1  0
 34 67  1  0
M  END
>  <smiles>  (15) 
c1ccc2c(c1)CCN(c1nc(NCCC3CCOCC3)nc(C3CCc4ccccc43)n1)C2

>  <score_type>  (15) 
oracle

>  <origin>  (15) 
autodockgpu

>  <m_score__min__energy>  (15) 
-9.9800000000000004

>  <m_primary>  (15) 
energy

>  <rmsd>  (15) 
7.2061013590092395

>  <m_score__min__rmsd>  (15) 
7.2061013590092395

>  <meeko>  (15) 
{"free_energy": -9.68, "intermolecular_energy": -11.47, "internal_energy": -1.4, "cluster_size": 19, "cluster_id": 1, "rank_in_cluster": 11}

>  <energy>  (15) 
-9.43

>  <cluster_rmsd>  (15) 
1.62

>  <cluster>  (15) 
1

$$$$

     RDKit          3D

 67 72  0  0  0  0  0  0  0  0999 V2000
  140.7770   80.5510  223.8180 C   0  0  0  0  0  0  0  0  0  0  0  0
  142.0270   80.2000  223.3750 C   0  0  0  0  0  0  0  0  0  0  0  0
  142.1970   79.0850  222.5870 C   0  0  0  0  0  0  0  0  0  0  0  0
  141.0800   78.3370  222.2590 C   0  0  0  0  0  0  0  0  0  0  0  0
  139.8200   78.7040  222.7130 C   0  0  0  0  0  0  0  0  0  0  0  0
  139.6510   79.8220  223.5040 C   0  0  0  0  0  0  0  0  0  0  0  0
  138.6880   77.8280  222.2990 C   0  0  0  0  0  0  0  0  0  0  0  0
  139.0620   76.4130  222.6910 C   0  0  0  0  0  0  0  0  0  0  0  0
  140.2850   76.0930  221.9650 N   0  0  0  0  0  0  0  0  0  0  0  0
  140.6190   74.7420  221.8060 C   0  0  0  0  0  0  0  0  0  0  0  0
  139.8220   73.7950  222.3310 N   0  0  0  0  0  0  0  0  0  0  0  0
  140.0960   72.4660  222.2080 C   0  0  0  0  0  0  0  0  0  0  0  0
  139.2220   71.4770  222.7830 N   0  0  0  0  0  0  0  0  0  0  0  0
  139.2810   71.2310  224.2220 C   0  0  0  0  0  0  0  0  0  0  0  0
  140.6810   70.7650  224.5350 C   0  0  0  0  0  0  0  0  0  0  0  0
  140.8940   70.5360  226.0130 C   0  0  0  0  0  0  0  0  0  0  0  0
  139.7380   69.8130  226.6510 C   0  0  0  0  0  0  0  0  0  0  0  0
  140.0140   69.7440  228.1440 C   0  0  0  0  0  0  0  0  0  0  0  0
  139.9140   71.0400  228.6370 O   0  0  0  0  0  0  0  0  0  0  0  0
  140.9400   71.8550  228.1670 C   0  0  0  0  0  0  0  0  0  0  0  0
  141.0070   71.8870  226.6610 C   0  0  0  0  0  0  0  0  0  0  0  0
  141.1970   72.1300  221.5390 N   0  0  0  0  0  0  0  0  0  0  0  0
  142.0300   73.0340  220.9940 C   0  0  0  0  0  0  0  0  0  0  0  0
  143.2540   72.6980  220.2510 C   0  0  2  0  0  0  0  0  0  0  0  0
  144.4400   73.4460  220.8230 C   0  0  0  0  0  0  0  0  0  0  0  0
  144.3030   74.8020  220.1610 C   0  0  0  0  0  0  0  0  0  0  0  0
  143.8590   74.4310  218.7930 C   0  0  0  0  0  0  0  0  0  0  0  0
  143.9380   75.0430  217.5590 C   0  0  0  0  0  0  0  0  0  0  0  0
  143.4250   74.4580  216.4030 C   0  0  0  0  0  0  0  0  0  0  0  0
  142.8150   73.2270  216.4750 C   0  0  0  0  0  0  0  0  0  0  0  0
  142.7280   72.6070  217.6930 C   0  0  0  0  0  0  0  0  0  0  0  0
  143.2430   73.1980  218.8390 C   0  0  0  0  0  0  0  0  0  0  0  0
  141.7360   74.3580  221.1300 N   0  0  0  0  0  0  0  0  0  0  0  0
  141.1460   77.1160  221.4150 C   0  0  0  0  0  0  0  0  0  0  0  0
  140.6699   81.4472  224.4468 H   0  0  0  0  0  0  0  0  0  0  0  0
  142.8976   80.8130  223.6511 H   0  0  0  0  0  0  0  0  0  0  0  0
  143.1953   78.7956  222.2270 H   0  0  0  0  0  0  0  0  0  0  0  0
  138.6569   80.1193  223.8692 H   0  0  0  0  0  0  0  0  0  0  0  0
  137.7655   78.1324  222.8150 H   0  0  0  0  0  0  0  0  0  0  0  0
  138.5073   77.9025  221.2165 H   0  0  0  0  0  0  0  0  0  0  0  0
  139.2367   76.3525  223.7754 H   0  0  0  0  0  0  0  0  0  0  0  0
  138.2563   75.7056  222.4452 H   0  0  0  0  0  0  0  0  0  0  0  0
  138.5770   70.9710  222.1450 H   0  0  0  0  0  0  0  0  0  0  0  0
  139.0596   72.1572  224.7726 H   0  0  0  0  0  0  0  0  0  0  0  0
  138.5405   70.4744  224.5206 H   0  0  0  0  0  0  0  0  0  0  0  0
  140.8672   69.8216  224.0008 H   0  0  0  0  0  0  0  0  0  0  0  0
  141.3771   71.5538  224.2138 H   0  0  0  0  0  0  0  0  0  0  0  0
  141.7952   69.9195  226.1462 H   0  0  0  0  0  0  0  0  0  0  0  0
  138.8029   70.3621  226.4664 H   0  0  0  0  0  0  0  0  0  0  0  0
  139.6305   68.8030  226.2286 H   0  0  0  0  0  0  0  0  0  0  0  0
  139.2741   69.0950  228.6352 H   0  0  0  0  0  0  0  0  0  0  0  0
  141.0126   69.3261  228.3393 H   0  0  0  0  0  0  0  0  0  0  0  0
  140.7743   72.8784  228.5347 H   0  0  0  0  0  0  0  0  0  0  0  0
  141.8907   71.4422  228.5355 H   0  0  0  0  0  0  0  0  0  0  0  0
  140.1843   72.5170  226.2919 H   0  0  0  0  0  0  0  0  0  0  0  0
  141.9980   72.2840  226.3959 H   0  0  0  0  0  0  0  0  0  0  0  0
  143.3126   71.6013  220.3130 H   0  0  0  0  0  0  0  0  0  0  0  0
  144.3720   73.5266  221.9179 H   0  0  0  0  0  0  0  0  0  0  0  0
  145.4068   72.9558  220.6362 H   0  0  0  0  0  0  0  0  0  0  0  0
  143.5514   75.4223  220.6712 H   0  0  0  0  0  0  0  0  0  0  0  0
  145.2246   75.4022  220.1819 H   0  0  0  0  0  0  0  0  0  0  0  0
  144.4231   76.0275  217.4851 H   0  0  0  0  0  0  0  0  0  0  0  0
  143.5074   74.9781  215.4372 H   0  0  0  0  0  0  0  0  0  0  0  0
  142.4053   72.7502  215.5723 H   0  0  0  0  0  0  0  0  0  0  0  0
  142.2414   71.6231  217.7647 H   0  0  0  0  0  0  0  0  0  0  0  0
  142.1816   76.7461  221.3883 H   0  0  0  0  0  0  0  0  0  0  0  0
  140.8134   77.3609  220.3955 H   0  0  0  0  0  0  0  0  0  0  0  0
  1  2  2  0
  2  3  1  0
  3  4  2  0
  4  5  1  0
  5  6  2  0
  5  7  1  0
  7  8  1  0
  8  9  1  0
  9 10  1  0
 10 11  2  0
 11 12  1  0
 12 13  1  0
 13 14  1  0
 14 15  1  0
 15 16  1  0
 16 17  1  0
 17 18  1  0
 18 19  1  0
 19 20  1  0
 20 21  1  0
 12 22  2  0
 22 23  1  0
 23 24  1  0
 24 25  1  0
 25 26  1  0
 26 27  1  0
 27 28  2  0
 28 29  1  0
 29 30  2  0
 30 31  1  0
 31 32  2  0
 23 33  2  0
  9 34  1  0
  6  1  1  0
 33 10  1  0
 34  4  1  0
 21 16  1  0
 32 24  1  0
 32 27  1  0
  1 35  1  0
  2 36  1  0
  3 37  1  0
  6 38  1  0
  7 39  1  0
  7 40  1  0
  8 41  1  0
  8 42  1  0
 13 43  1  0
 14 44  1  0
 14 45  1  0
 15 46  1  0
 15 47  1  0
 16 48  1  0
 17 49  1  0
 17 50  1  0
 18 51  1  0
 18 52  1  0
 20 53  1  0
 20 54  1  0
 21 55  1  0
 21 56  1  0
 24 57  1  6
 25 58  1  0
 25 59  1  0
 26 60  1  0
 26 61  1  0
 28 62  1  0
 29 63  1  0
 30 64  1  0
 31 65  1  0
 34 66  1  0
 34 67  1  0
M  END
>  <smiles>  (16) 
c1ccc2c(c1)CCN(c1nc(NCCC3CCOCC3)nc(C3CCc4ccccc43)n1)C2

>  <score_type>  (16) 
oracle

>  <origin>  (16) 
autodockgpu

>  <m_score__min__energy>  (16) 
-9.9800000000000004

>  <m_primary>  (16) 
energy

>  <rmsd>  (16) 
9.275986460149792

>  <m_score__min__rmsd>  (16) 
9.275986460149792

>  <meeko>  (16) 
{"free_energy": -9.43, "intermolecular_energy": -11.22, "internal_energy": -1.32, "cluster_size": 19, "cluster_id": 1, "rank_in_cluster": 14}

>  <energy>  (16) 
-9.39

>  <cluster_rmsd>  (16) 
1.51

>  <cluster>  (16) 
1

$$$$

     RDKit          3D

 67 72  0  0  0  0  0  0  0  0999 V2000
  134.6320   81.4870  226.9800 C   0  0  0  0  0  0  0  0  0  0  0  0
  135.9120   81.8550  227.3100 C   0  0  0  0  0  0  0  0  0  0  0  0
  136.9430   81.6500  226.4220 C   0  0  0  0  0  0  0  0  0  0  0  0
  136.6520   81.0690  225.2010 C   0  0  0  0  0  0  0  0  0  0  0  0
  135.3520   80.7030  224.8790 C   0  0  0  0  0  0  0  0  0  0  0  0
  134.3180   80.9080  225.7700 C   0  0  0  0  0  0  0  0  0  0  0  0
  135.1520   80.0860  223.5370 C   0  0  0  0  0  0  0  0  0  0  0  0
  136.1270   78.9310  223.4360 C   0  0  0  0  0  0  0  0  0  0  0  0
  137.4600   79.5030  223.5730 N   0  0  0  0  0  0  0  0  0  0  0  0
  138.5480   78.7530  223.1070 C   0  0  0  0  0  0  0  0  0  0  0  0
  138.4220   77.4220  222.9610 N   0  0  0  0  0  0  0  0  0  0  0  0
  139.4440   76.6420  222.5120 C   0  0  0  0  0  0  0  0  0  0  0  0
  139.2760   75.2190  222.3670 N   0  0  0  0  0  0  0  0  0  0  0  0
  139.1450   74.6550  221.0250 C   0  0  0  0  0  0  0  0  0  0  0  0
  140.4430   73.9530  220.7100 C   0  0  0  0  0  0  0  0  0  0  0  0
  141.6200   74.9000  220.6980 C   0  0  0  0  0  0  0  0  0  0  0  0
  141.5000   75.9480  219.6250 C   0  0  0  0  0  0  0  0  0  0  0  0
  142.7840   76.7610  219.6390 C   0  0  0  0  0  0  0  0  0  0  0  0
  143.7980   75.9270  219.1830 O   0  0  0  0  0  0  0  0  0  0  0  0
  144.0690   74.8990  220.0820 C   0  0  0  0  0  0  0  0  0  0  0  0
  142.8460   74.0810  220.4090 C   0  0  0  0  0  0  0  0  0  0  0  0
  140.5910   77.2490  222.2170 N   0  0  0  0  0  0  0  0  0  0  0  0
  140.7740   78.5750  222.3430 C   0  0  0  0  0  0  0  0  0  0  0  0
  142.0260   79.2790  222.0280 C   0  0  2  0  0  0  0  0  0  0  0  0
  142.5800   79.9510  223.2680 C   0  0  0  0  0  0  0  0  0  0  0  0
  141.7690   81.2300  223.3170 C   0  0  0  0  0  0  0  0  0  0  0  0
  141.6810   81.5930  221.8790 C   0  0  0  0  0  0  0  0  0  0  0  0
  141.4900   82.7760  221.1970 C   0  0  0  0  0  0  0  0  0  0  0  0
  141.4470   82.8360  219.8060 C   0  0  0  0  0  0  0  0  0  0  0  0
  141.5990   81.6840  219.0690 C   0  0  0  0  0  0  0  0  0  0  0  0
  141.7900   80.5010  219.7310 C   0  0  0  0  0  0  0  0  0  0  0  0
  141.8310   80.4520  221.1180 C   0  0  0  0  0  0  0  0  0  0  0  0
  139.7370   79.3360  222.7950 N   0  0  0  0  0  0  0  0  0  0  0  0
  137.6860   80.8030  224.1680 C   0  0  0  0  0  0  0  0  0  0  0  0
  133.8266   81.6608  227.7087 H   0  0  0  0  0  0  0  0  0  0  0  0
  136.1148   82.3156  228.2881 H   0  0  0  0  0  0  0  0  0  0  0  0
  137.9728   81.9409  226.6768 H   0  0  0  0  0  0  0  0  0  0  0  0
  133.2851   80.6207  225.5239 H   0  0  0  0  0  0  0  0  0  0  0  0
  134.1195   79.7195  223.4389 H   0  0  0  0  0  0  0  0  0  0  0  0
  135.3251   80.8196  222.7358 H   0  0  0  0  0  0  0  0  0  0  0  0
  135.9405   78.2045  224.2407 H   0  0  0  0  0  0  0  0  0  0  0  0
  136.0179   78.4003  222.4787 H   0  0  0  0  0  0  0  0  0  0  0  0
  139.2550   74.6430  223.2310 H   0  0  0  0  0  0  0  0  0  0  0  0
  138.3116   73.9376  220.9969 H   0  0  0  0  0  0  0  0  0  0  0  0
  138.9377   75.4441  220.2872 H   0  0  0  0  0  0  0  0  0  0  0  0
  140.6199   73.1788  221.4711 H   0  0  0  0  0  0  0  0  0  0  0  0
  140.3532   73.5158  219.7046 H   0  0  0  0  0  0  0  0  0  0  0  0
  141.6664   75.4145  221.6692 H   0  0  0  0  0  0  0  0  0  0  0  0
  141.3693   75.4683  218.6438 H   0  0  0  0  0  0  0  0  0  0  0  0
  140.6289   76.5941  219.8085 H   0  0  0  0  0  0  0  0  0  0  0  0
  142.6859   77.6336  218.9764 H   0  0  0  0  0  0  0  0  0  0  0  0
  143.0044   77.1294  220.6518 H   0  0  0  0  0  0  0  0  0  0  0  0
  144.8291   74.2367  219.6419 H   0  0  0  0  0  0  0  0  0  0  0  0
  144.4243   75.3573  221.0167 H   0  0  0  0  0  0  0  0  0  0  0  0
  142.6296   73.4255  219.5526 H   0  0  0  0  0  0  0  0  0  0  0  0
  143.0759   73.5192  221.3263 H   0  0  0  0  0  0  0  0  0  0  0  0
  142.6664   78.5013  221.5864 H   0  0  0  0  0  0  0  0  0  0  0  0
  142.4130   79.3364  224.1649 H   0  0  0  0  0  0  0  0  0  0  0  0
  143.6674   80.1143  223.2377 H   0  0  0  0  0  0  0  0  0  0  0  0
  140.7718   81.0551  223.7471 H   0  0  0  0  0  0  0  0  0  0  0  0
  142.2141   82.0144  223.9468 H   0  0  0  0  0  0  0  0  0  0  0  0
  141.3672   83.7057  221.7720 H   0  0  0  0  0  0  0  0  0  0  0  0
  141.2923   83.7999  219.2990 H   0  0  0  0  0  0  0  0  0  0  0  0
  141.5677   81.7130  217.9698 H   0  0  0  0  0  0  0  0  0  0  0  0
  141.9132   79.5727  219.1538 H   0  0  0  0  0  0  0  0  0  0  0  0
  138.6821   80.8232  224.6343 H   0  0  0  0  0  0  0  0  0  0  0  0
  137.6272   81.5755  223.3872 H   0  0  0  0  0  0  0  0  0  0  0  0
  1  2  2  0
  2  3  1  0
  3  4  2  0
  4  5  1  0
  5  6  2  0
  5  7  1  0
  7  8  1  0
  8  9  1  0
  9 10  1  0
 10 11  2  0
 11 12  1  0
 12 13  1  0
 13 14  1  0
 14 15  1  0
 15 16  1  0
 16 17  1  0
 17 18  1  0
 18 19  1  0
 19 20  1  0
 20 21  1  0
 12 22  2  0
 22 23  1  0
 23 24  1  0
 24 25  1  0
 25 26  1  0
 26 27  1  0
 27 28  2  0
 28 29  1  0
 29 30  2  0
 30 31  1  0
 31 32  2  0
 23 33  2  0
  9 34  1  0
  6  1  1  0
 33 10  1  0
 34  4  1  0
 21 16  1  0
 32 24  1  0
 32 27  1  0
  1 35  1  0
  2 36  1  0
  3 37  1  0
  6 38  1  0
  7 39  1  0
  7 40  1  0
  8 41  1  0
  8 42  1  0
 13 43  1  0
 14 44  1  0
 14 45  1  0
 15 46  1  0
 15 47  1  0
 16 48  1  0
 17 49  1  0
 17 50  1  0
 18 51  1  0
 18 52  1  0
 20 53  1  0
 20 54  1  0
 21 55  1  0
 21 56  1  0
 24 57  1  6
 25 58  1  0
 25 59  1  0
 26 60  1  0
 26 61  1  0
 28 62  1  0
 29 63  1  0
 30 64  1  0
 31 65  1  0
 34 66  1  0
 34 67  1  0
M  END
>  <smiles>  (17) 
c1ccc2c(c1)CCN(c1nc(NCCC3CCOCC3)nc(C3CCc4ccccc43)n1)C2

>  <score_type>  (17) 
oracle

>  <origin>  (17) 
autodockgpu

>  <m_score__min__energy>  (17) 
-9.9800000000000004

>  <m_primary>  (17) 
energy

>  <rmsd>  (17) 
12.208902262295995

>  <m_score__min__rmsd>  (17) 
12.208902262295995

>  <meeko>  (17) 
{"free_energy": -8.09, "intermolecular_energy": -9.87, "internal_energy": -1.79, "cluster_size": 1, "cluster_id": 10, "rank_in_cluster": 1}

>  <energy>  (17) 
-9.32

>  <cluster_rmsd>  (17) 
1.09

>  <cluster>  (17) 
1

$$$$

     RDKit          3D

 67 72  0  0  0  0  0  0  0  0999 V2000
  145.5000   73.3770  216.5800 C   0  0  0  0  0  0  0  0  0  0  0  0
  144.7120   74.4410  216.2210 C   0  0  0  0  0  0  0  0  0  0  0  0
  143.9770   75.1120  217.1720 C   0  0  0  0  0  0  0  0  0  0  0  0
  144.0580   74.6860  218.4850 C   0  0  0  0  0  0  0  0  0  0  0  0
  144.8610   73.6090  218.8350 C   0  0  0  0  0  0  0  0  0  0  0  0
  145.5970   72.9350  217.8810 C   0  0  0  0  0  0  0  0  0  0  0  0
  144.8740   73.2350  220.2780 C   0  0  0  0  0  0  0  0  0  0  0  0
  143.4300   73.0480  220.6950 C   0  0  0  0  0  0  0  0  0  0  0  0
  142.7670   74.3270  220.4750 N   0  0  0  0  0  0  0  0  0  0  0  0
  141.5640   74.5690  221.1520 C   0  0  0  0  0  0  0  0  0  0  0  0
  140.8480   73.5330  221.6220 N   0  0  0  0  0  0  0  0  0  0  0  0
  139.6720   73.7070  222.2870 C   0  0  0  0  0  0  0  0  0  0  0  0
  138.9280   72.5760  222.7780 N   0  0  0  0  0  0  0  0  0  0  0  0
  139.5710   71.2630  222.8020 C   0  0  0  0  0  0  0  0  0  0  0  0
  140.6850   71.3340  223.8170 C   0  0  0  0  0  0  0  0  0  0  0  0
  140.1830   71.1820  225.2340 C   0  0  0  0  0  0  0  0  0  0  0  0
  141.0840   71.8550  226.2340 C   0  0  0  0  0  0  0  0  0  0  0  0
  140.5420   71.5380  227.6180 C   0  0  0  0  0  0  0  0  0  0  0  0
  140.7510   70.1810  227.8360 O   0  0  0  0  0  0  0  0  0  0  0  0
  139.9610   69.3940  227.0030 C   0  0  0  0  0  0  0  0  0  0  0  0
  140.1650   69.7120  225.5440 C   0  0  0  0  0  0  0  0  0  0  0  0
  139.2480   74.9570  222.4610 N   0  0  0  0  0  0  0  0  0  0  0  0
  139.9230   76.0300  222.0130 C   0  0  0  0  0  0  0  0  0  0  0  0
  139.4850   77.4240  222.1860 C   0  0  2  0  0  0  0  0  0  0  0  0
  138.9970   77.9900  220.8690 C   0  0  0  0  0  0  0  0  0  0  0  0
  140.2970   78.3880  220.2000 C   0  0  0  0  0  0  0  0  0  0  0  0
  141.0800   78.9220  221.3450 C   0  0  0  0  0  0  0  0  0  0  0  0
  142.1240   79.8150  221.4600 C   0  0  0  0  0  0  0  0  0  0  0  0
  142.6870   80.1470  222.6910 C   0  0  0  0  0  0  0  0  0  0  0  0
  142.1990   79.5730  223.8420 C   0  0  0  0  0  0  0  0  0  0  0  0
  141.1640   78.6830  223.7430 C   0  0  0  0  0  0  0  0  0  0  0  0
  140.6080   78.3590  222.5120 C   0  0  0  0  0  0  0  0  0  0  0  0
  141.0970   75.8320  221.3490 N   0  0  0  0  0  0  0  0  0  0  0  0
  143.3100   75.3370  219.5920 C   0  0  0  0  0  0  0  0  0  0  0  0
  146.0758   72.8575  215.7999 H   0  0  0  0  0  0  0  0  0  0  0  0
  144.6673   74.7592  215.1690 H   0  0  0  0  0  0  0  0  0  0  0  0
  143.3412   75.9656  216.8944 H   0  0  0  0  0  0  0  0  0  0  0  0
  146.2349   72.0798  218.1489 H   0  0  0  0  0  0  0  0  0  0  0  0
  145.4338   72.2990  220.4215 H   0  0  0  0  0  0  0  0  0  0  0  0
  145.3617   74.0135  220.8830 H   0  0  0  0  0  0  0  0  0  0  0  0
  142.9566   72.2646  220.0849 H   0  0  0  0  0  0  0  0  0  0  0  0
  143.3569   72.7379  221.7478 H   0  0  0  0  0  0  0  0  0  0  0  0
  137.9540   72.7380  223.0980 H   0  0  0  0  0  0  0  0  0  0  0  0
  138.8432   70.4915  223.0937 H   0  0  0  0  0  0  0  0  0  0  0  0
  139.9625   71.0002  221.8082 H   0  0  0  0  0  0  0  0  0  0  0  0
  141.4046   70.5285  223.6088 H   0  0  0  0  0  0  0  0  0  0  0  0
  141.1541   72.3253  223.7317 H   0  0  0  0  0  0  0  0  0  0  0  0
  139.1891   71.6477  225.3064 H   0  0  0  0  0  0  0  0  0  0  0  0
  142.1098   71.4705  226.1346 H   0  0  0  0  0  0  0  0  0  0  0  0
  141.1086   72.9418  226.0656 H   0  0  0  0  0  0  0  0  0  0  0  0
  141.0755   72.1290  228.3770 H   0  0  0  0  0  0  0  0  0  0  0  0
  139.4726   71.7862  227.6868 H   0  0  0  0  0  0  0  0  0  0  0  0
  140.2141   68.3370  227.1723 H   0  0  0  0  0  0  0  0  0  0  0  0
  138.9086   69.6021  227.2463 H   0  0  0  0  0  0  0  0  0  0  0  0
  141.1259   69.2802  225.2273 H   0  0  0  0  0  0  0  0  0  0  0  0
  139.3083   69.2839  225.0029 H   0  0  0  0  0  0  0  0  0  0  0  0
  138.7313   77.3712  222.9855 H   0  0  0  0  0  0  0  0  0  0  0  0
  138.4605   77.2306  220.2812 H   0  0  0  0  0  0  0  0  0  0  0  0
  138.2814   78.8182  220.9787 H   0  0  0  0  0  0  0  0  0  0  0  0
  140.7952   77.5192  219.7451 H   0  0  0  0  0  0  0  0  0  0  0  0
  140.1711   79.1045  219.3749 H   0  0  0  0  0  0  0  0  0  0  0  0
  142.5265   80.2816  220.5488 H   0  0  0  0  0  0  0  0  0  0  0  0
  143.5185   80.8654  222.7420 H   0  0  0  0  0  0  0  0  0  0  0  0
  142.6317   79.8241  224.8216 H   0  0  0  0  0  0  0  0  0  0  0  0
  140.7650   78.2155  224.6553 H   0  0  0  0  0  0  0  0  0  0  0  0
  142.4883   75.9374  219.1744 H   0  0  0  0  0  0  0  0  0  0  0  0
  143.9922   75.9875  220.1590 H   0  0  0  0  0  0  0  0  0  0  0  0
  1  2  2  0
  2  3  1  0
  3  4  2  0
  4  5  1  0
  5  6  2  0
  5  7  1  0
  7  8  1  0
  8  9  1  0
  9 10  1  0
 10 11  2  0
 11 12  1  0
 12 13  1  0
 13 14  1  0
 14 15  1  0
 15 16  1  0
 16 17  1  0
 17 18  1  0
 18 19  1  0
 19 20  1  0
 20 21  1  0
 12 22  2  0
 22 23  1  0
 23 24  1  0
 24 25  1  0
 25 26  1  0
 26 27  1  0
 27 28  2  0
 28 29  1  0
 29 30  2  0
 30 31  1  0
 31 32  2  0
 23 33  2  0
  9 34  1  0
  6  1  1  0
 33 10  1  0
 34  4  1  0
 21 16  1  0
 32 24  1  0
 32 27  1  0
  1 35  1  0
  2 36  1  0
  3 37  1  0
  6 38  1  0
  7 39  1  0
  7 40  1  0
  8 41  1  0
  8 42  1  0
 13 43  1  0
 14 44  1  0
 14 45  1  0
 15 46  1  0
 15 47  1  0
 16 48  1  0
 17 49  1  0
 17 50  1  0
 18 51  1  0
 18 52  1  0
 20 53  1  0
 20 54  1  0
 21 55  1  0
 21 56  1  0
 24 57  1  1
 25 58  1  0
 25 59  1  0
 26 60  1  0
 26 61  1  0
 28 62  1  0
 29 63  1  0
 30 64  1  0
 31 65  1  0
 34 66  1  0
 34 67  1  0
M  END
>  <smiles>  (18) 
c1ccc2c(c1)CCN(c1nc(NCCC3CCOCC3)nc(C3CCc4ccccc43)n1)C2

>  <score_type>  (18) 
oracle

>  <origin>  (18) 
autodockgpu

>  <m_score__min__energy>  (18) 
-9.9800000000000004

>  <m_primary>  (18) 
energy

>  <rmsd>  (18) 
9.336369612416286

>  <m_score__min__rmsd>  (18) 
9.336369612416286

>  <meeko>  (18) 
{"free_energy": -9.43, "intermolecular_energy": -11.22, "internal_energy": -1.43, "cluster_size": 19, "cluster_id": 1, "rank_in_cluster": 15}

>  <energy>  (18) 
-9.03

>  <cluster_rmsd>  (18) 
1.85

>  <cluster>  (18) 
1

$$$$

     RDKit          3D

 67 72  0  0  0  0  0  0  0  0999 V2000
  141.4800   81.4810  222.3310 C   0  0  0  0  0  0  0  0  0  0  0  0
  141.1390   81.0230  223.5780 C   0  0  0  0  0  0  0  0  0  0  0  0
  141.0180   79.6720  223.8120 C   0  0  0  0  0  0  0  0  0  0  0  0
  141.2480   78.8010  222.7620 C   0  0  0  0  0  0  0  0  0  0  0  0
  141.5940   79.2780  221.5050 C   0  0  0  0  0  0  0  0  0  0  0  0
  141.7150   80.6330  221.2700 C   0  0  0  0  0  0  0  0  0  0  0  0
  141.8200   78.2510  220.4480 C   0  0  0  0  0  0  0  0  0  0  0  0
  140.5880   77.3710  220.4210 C   0  0  0  0  0  0  0  0  0  0  0  0
  140.4810   76.7690  221.7440 N   0  0  0  0  0  0  0  0  0  0  0  0
  139.7030   75.6110  221.8780 C   0  0  0  0  0  0  0  0  0  0  0  0
  140.3090   74.4190  222.0250 N   0  0  0  0  0  0  0  0  0  0  0  0
  139.6050   73.2610  222.1600 C   0  0  0  0  0  0  0  0  0  0  0  0
  140.2830   72.0000  222.3160 N   0  0  0  0  0  0  0  0  0  0  0  0
  140.6700   71.5660  223.6580 C   0  0  0  0  0  0  0  0  0  0  0  0
  139.4910   70.8260  224.2410 C   0  0  0  0  0  0  0  0  0  0  0  0
  139.6260   70.6140  225.7310 C   0  0  0  0  0  0  0  0  0  0  0  0
  140.6590   71.5200  226.3450 C   0  0  0  0  0  0  0  0  0  0  0  0
  140.7840   71.1370  227.8100 C   0  0  0  0  0  0  0  0  0  0  0  0
  141.3720   69.8780  227.8540 O   0  0  0  0  0  0  0  0  0  0  0  0
  140.5300   68.8940  227.3440 C   0  0  0  0  0  0  0  0  0  0  0  0
  140.0740   69.1950  225.9390 C   0  0  0  0  0  0  0  0  0  0  0  0
  138.2760   73.3480  222.1410 N   0  0  0  0  0  0  0  0  0  0  0  0
  137.6190   74.5120  221.9960 C   0  0  0  0  0  0  0  0  0  0  0  0
  136.1540   74.6450  221.9690 C   0  0  2  0  0  0  0  0  0  0  0  0
  135.7600   76.1000  221.8220 C   0  0  0  0  0  0  0  0  0  0  0  0
  135.8680   76.5980  223.2490 C   0  0  0  0  0  0  0  0  0  0  0  0
  135.3400   75.4410  224.0180 C   0  0  0  0  0  0  0  0  0  0  0  0
  134.7530   75.3000  225.2580 C   0  0  0  0  0  0  0  0  0  0  0  0
  134.3390   74.0640  225.7500 C   0  0  0  0  0  0  0  0  0  0  0  0
  134.5150   72.9330  224.9870 C   0  0  0  0  0  0  0  0  0  0  0  0
  135.0970   73.0560  223.7540 C   0  0  0  0  0  0  0  0  0  0  0  0
  135.5050   74.2930  223.2720 C   0  0  0  0  0  0  0  0  0  0  0  0
  138.3440   75.6580  221.8620 N   0  0  0  0  0  0  0  0  0  0  0  0
  141.1470   77.3250  222.9020 C   0  0  0  0  0  0  0  0  0  0  0  0
  141.5693   82.5657  222.1716 H   0  0  0  0  0  0  0  0  0  0  0  0
  140.9615   81.7383  224.3946 H   0  0  0  0  0  0  0  0  0  0  0  0
  140.7454   79.2944  224.8085 H   0  0  0  0  0  0  0  0  0  0  0  0
  141.9877   81.0200  220.2771 H   0  0  0  0  0  0  0  0  0  0  0  0
  141.9592   78.7374  219.4713 H   0  0  0  0  0  0  0  0  0  0  0  0
  142.7227   77.6592  220.6599 H   0  0  0  0  0  0  0  0  0  0  0  0
  139.6943   77.9748  220.2047 H   0  0  0  0  0  0  0  0  0  0  0  0
  140.6655   76.6016  219.6387 H   0  0  0  0  0  0  0  0  0  0  0  0
  140.4730   71.4420  221.4610 H   0  0  0  0  0  0  0  0  0  0  0  0
  141.5437   70.9000  223.6021 H   0  0  0  0  0  0  0  0  0  0  0  0
  140.9413   72.4277  224.2856 H   0  0  0  0  0  0  0  0  0  0  0  0
  138.5777   71.4079  224.0479 H   0  0  0  0  0  0  0  0  0  0  0  0
  139.4456   69.8362  223.7633 H   0  0  0  0  0  0  0  0  0  0  0  0
  138.6583   70.8325  226.2062 H   0  0  0  0  0  0  0  0  0  0  0  0
  141.6258   71.3867  225.8375 H   0  0  0  0  0  0  0  0  0  0  0  0
  140.3620   72.5742  226.2425 H   0  0  0  0  0  0  0  0  0  0  0  0
  141.4149   71.8669  228.3384 H   0  0  0  0  0  0  0  0  0  0  0  0
  139.7980   71.1262  228.2976 H   0  0  0  0  0  0  0  0  0  0  0  0
  141.0689   67.9351  227.3420 H   0  0  0  0  0  0  0  0  0  0  0  0
  139.6362   68.8547  227.9840 H   0  0  0  0  0  0  0  0  0  0  0  0
  140.9101   68.9926  225.2535 H   0  0  0  0  0  0  0  0  0  0  0  0
  139.2010   68.5546  225.7444 H   0  0  0  0  0  0  0  0  0  0  0  0
  135.8400   73.9850  221.1469 H   0  0  0  0  0  0  0  0  0  0  0  0
  136.4526   76.6370  221.1572 H   0  0  0  0  0  0  0  0  0  0  0  0
  134.7668   76.2486  221.3730 H   0  0  0  0  0  0  0  0  0  0  0  0
  136.9120   76.8151  223.5191 H   0  0  0  0  0  0  0  0  0  0  0  0
  135.3279   77.5383  223.4338 H   0  0  0  0  0  0  0  0  0  0  0  0
  134.6065   76.1950  225.8805 H   0  0  0  0  0  0  0  0  0  0  0  0
  133.8735   73.9929  226.7441 H   0  0  0  0  0  0  0  0  0  0  0  0
  134.1944   71.9492  225.3602 H   0  0  0  0  0  0  0  0  0  0  0  0
  135.2441   72.1593  223.1341 H   0  0  0  0  0  0  0  0  0  0  0  0
  140.5705   77.0823  223.8068 H   0  0  0  0  0  0  0  0  0  0  0  0
  142.1572   76.8970  222.9813 H   0  0  0  0  0  0  0  0  0  0  0  0
  1  2  2  0
  2  3  1  0
  3  4  2  0
  4  5  1  0
  5  6  2  0
  5  7  1  0
  7  8  1  0
  8  9  1  0
  9 10  1  0
 10 11  2  0
 11 12  1  0
 12 13  1  0
 13 14  1  0
 14 15  1  0
 15 16  1  0
 16 17  1  0
 17 18  1  0
 18 19  1  0
 19 20  1  0
 20 21  1  0
 12 22  2  0
 22 23  1  0
 23 24  1  0
 24 25  1  0
 25 26  1  0
 26 27  1  0
 27 28  2  0
 28 29  1  0
 29 30  2  0
 30 31  1  0
 31 32  2  0
 23 33  2  0
  9 34  1  0
  6  1  1  0
 33 10  1  0
 34  4  1  0
 21 16  1  0
 32 24  1  0
 32 27  1  0
  1 35  1  0
  2 36  1  0
  3 37  1  0
  6 38  1  0
  7 39  1  0
  7 40  1  0
  8 41  1  0
  8 42  1  0
 13 43  1  0
 14 44  1  0
 14 45  1  0
 15 46  1  0
 15 47  1  0
 16 48  1  0
 17 49  1  0
 17 50  1  0
 18 51  1  0
 18 52  1  0
 20 53  1  0
 20 54  1  0
 21 55  1  0
 21 56  1  0
 24 57  1  6
 25 58  1  0
 25 59  1  0
 26 60  1  0
 26 61  1  0
 28 62  1  0
 29 63  1  0
 30 64  1  0
 31 65  1  0
 34 66  1  0
 34 67  1  0
M  END
>  <smiles>  (19) 
c1ccc2c(c1)CCN(c1nc(NCCC3CCOCC3)nc(C3CCc4ccccc43)n1)C2

>  <score_type>  (19) 
oracle

>  <origin>  (19) 
autodockgpu

>  <m_score__min__energy>  (19) 
-9.9800000000000004

>  <m_primary>  (19) 
energy

>  <rmsd>  (19) 
7.209168936632022

>  <m_score__min__rmsd>  (19) 
7.209168936632022

>  <meeko>  (19) 
{"free_energy": -9.06, "intermolecular_energy": -10.85, "internal_energy": -1.4, "cluster_size": 13, "cluster_id": 2, "rank_in_cluster": 10}

>  <energy>  (19) 
-8.9

>  <cluster_rmsd>  (19) 
0.83

>  <cluster>  (19) 
1

$$$$

     RDKit          3D

 67 72  0  0  0  0  0  0  0  0999 V2000
  140.1190   68.7570  227.7850 C   0  0  0  0  0  0  0  0  0  0  0  0
  141.0080   69.7950  227.9020 C   0  0  0  0  0  0  0  0  0  0  0  0
  141.0660   70.7710  226.9340 C   0  0  0  0  0  0  0  0  0  0  0  0
  140.2110   70.6740  225.8510 C   0  0  0  0  0  0  0  0  0  0  0  0
  139.3150   69.6180  225.7450 C   0  0  0  0  0  0  0  0  0  0  0  0
  139.2560   68.6390  226.7160 C   0  0  0  0  0  0  0  0  0  0  0  0
  138.4400   69.6130  224.5380 C   0  0  0  0  0  0  0  0  0  0  0  0
  139.3520   69.7280  223.3350 C   0  0  0  0  0  0  0  0  0  0  0  0
  140.0660   70.9900  223.4780 N   0  0  0  0  0  0  0  0  0  0  0  0
  140.6480   71.5490  222.3310 C   0  0  0  0  0  0  0  0  0  0  0  0
  140.9680   72.8550  222.3200 N   0  0  0  0  0  0  0  0  0  0  0  0
  141.5350   73.4530  221.2350 C   0  0  0  0  0  0  0  0  0  0  0  0
  141.8660   74.8540  221.2550 N   0  0  0  0  0  0  0  0  0  0  0  0
  141.7140   75.6340  220.0280 C   0  0  0  0  0  0  0  0  0  0  0  0
  143.0740   75.7100  219.3790 C   0  0  0  0  0  0  0  0  0  0  0  0
  143.7950   74.3820  219.4000 C   0  0  0  0  0  0  0  0  0  0  0  0
  144.9140   74.3560  220.4060 C   0  0  0  0  0  0  0  0  0  0  0  0
  145.6300   73.0240  220.2530 C   0  0  0  0  0  0  0  0  0  0  0  0
  146.2810   73.0500  219.0260 O   0  0  0  0  0  0  0  0  0  0  0  0
  145.3840   73.0460  217.9610 C   0  0  0  0  0  0  0  0  0  0  0  0
  144.3950   74.1810  218.0360 C   0  0  0  0  0  0  0  0  0  0  0  0
  141.7660   72.6900  220.1690 N   0  0  0  0  0  0  0  0  0  0  0  0
  141.4670   71.3800  220.1250 C   0  0  0  0  0  0  0  0  0  0  0  0
  141.7070   70.5070  218.9650 C   0  0  2  0  0  0  0  0  0  0  0  0
  140.7390   69.3430  218.9730 C   0  0  0  0  0  0  0  0  0  0  0  0
  141.4070   68.3880  219.9410 C   0  0  0  0  0  0  0  0  0  0  0  0
  142.8420   68.5560  219.5960 C   0  0  0  0  0  0  0  0  0  0  0  0
  143.9610   67.7610  219.7290 C   0  0  0  0  0  0  0  0  0  0  0  0
  145.2240   68.1750  219.3100 C   0  0  0  0  0  0  0  0  0  0  0  0
  145.3800   69.4190  218.7410 C   0  0  0  0  0  0  0  0  0  0  0  0
  144.2780   70.2200  218.6030 C   0  0  0  0  0  0  0  0  0  0  0  0
  143.0240   69.7980  219.0230 C   0  0  0  0  0  0  0  0  0  0  0  0
  140.8990   70.8030  221.2220 N   0  0  0  0  0  0  0  0  0  0  0  0
  140.1880   71.6700  224.7490 C   0  0  0  0  0  0  0  0  0  0  0  0
  140.0936   67.9902  228.5733 H   0  0  0  0  0  0  0  0  0  0  0  0
  141.6773   69.8473  228.7733 H   0  0  0  0  0  0  0  0  0  0  0  0
  141.7748   71.6078  227.0192 H   0  0  0  0  0  0  0  0  0  0  0  0
  138.5496   67.7992  226.6403 H   0  0  0  0  0  0  0  0  0  0  0  0
  137.8666   68.6755  224.4900 H   0  0  0  0  0  0  0  0  0  0  0  0
  137.7210   70.4449  224.5687 H   0  0  0  0  0  0  0  0  0  0  0  0
  140.0631   68.8889  223.3153 H   0  0  0  0  0  0  0  0  0  0  0  0
  138.7790   69.6986  222.3965 H   0  0  0  0  0  0  0  0  0  0  0  0
  142.2040   75.2600  222.1490 H   0  0  0  0  0  0  0  0  0  0  0  0
  141.0007   75.1393  219.3524 H   0  0  0  0  0  0  0  0  0  0  0  0
  141.3290   76.6404  220.2491 H   0  0  0  0  0  0  0  0  0  0  0  0
  142.9496   76.0284  218.3335 H   0  0  0  0  0  0  0  0  0  0  0  0
  143.6790   76.4302  219.9493 H   0  0  0  0  0  0  0  0  0  0  0  0
  143.0759   73.5956  219.6729 H   0  0  0  0  0  0  0  0  0  0  0  0
  145.6129   75.1832  220.2128 H   0  0  0  0  0  0  0  0  0  0  0  0
  144.5218   74.4717  221.4272 H   0  0  0  0  0  0  0  0  0  0  0  0
  146.3602   72.8924  221.0651 H   0  0  0  0  0  0  0  0  0  0  0  0
  144.9169   72.1878  220.3008 H   0  0  0  0  0  0  0  0  0  0  0  0
  145.9505   73.1330  217.0221 H   0  0  0  0  0  0  0  0  0  0  0  0
  144.8168   72.1045  218.0049 H   0  0  0  0  0  0  0  0  0  0  0  0
  144.9103   75.1083  217.7450 H   0  0  0  0  0  0  0  0  0  0  0  0
  143.5665   73.9256  217.3590 H   0  0  0  0  0  0  0  0  0  0  0  0
  141.6266   71.1817  218.1000 H   0  0  0  0  0  0  0  0  0  0  0  0
  139.7467   69.6503  219.3347 H   0  0  0  0  0  0  0  0  0  0  0  0
  140.5548   68.9111  217.9782 H   0  0  0  0  0  0  0  0  0  0  0  0
  141.2104   68.6738  220.9849 H   0  0  0  0  0  0  0  0  0  0  0  0
  141.0490   67.3510  219.8606 H   0  0  0  0  0  0  0  0  0  0  0  0
  143.8528   66.7645  220.1820 H   0  0  0  0  0  0  0  0  0  0  0  0
  146.0923   67.5110  219.4333 H   0  0  0  0  0  0  0  0  0  0  0  0
  146.3693   69.7623  218.4043 H   0  0  0  0  0  0  0  0  0  0  0  0
  144.3885   71.2166  218.1508 H   0  0  0  0  0  0  0  0  0  0  0  0
  141.1209   72.2527  224.7636 H   0  0  0  0  0  0  0  0  0  0  0  0
  139.3289   72.3434  224.8852 H   0  0  0  0  0  0  0  0  0  0  0  0
  1  2  2  0
  2  3  1  0
  3  4  2  0
  4  5  1  0
  5  6  2  0
  5  7  1  0
  7  8  1  0
  8  9  1  0
  9 10  1  0
 10 11  2  0
 11 12  1  0
 12 13  1  0
 13 14  1  0
 14 15  1  0
 15 16  1  0
 16 17  1  0
 17 18  1  0
 18 19  1  0
 19 20  1  0
 20 21  1  0
 12 22  2  0
 22 23  1  0
 23 24  1  0
 24 25  1  0
 25 26  1  0
 26 27  1  0
 27 28  2  0
 28 29  1  0
 29 30  2  0
 30 31  1  0
 31 32  2  0
 23 33  2  0
  9 34  1  0
  6  1  1  0
 33 10  1  0
 34  4  1  0
 21 16  1  0
 32 24  1  0
 32 27  1  0
  1 35  1  0
  2 36  1  0
  3 37  1  0
  6 38  1  0
  7 39  1  0
  7 40  1  0
  8 41  1  0
  8 42  1  0
 13 43  1  0
 14 44  1  0
 14 45  1  0
 15 46  1  0
 15 47  1  0
 16 48  1  0
 17 49  1  0
 17 50  1  0
 18 51  1  0
 18 52  1  0
 20 53  1  0
 20 54  1  0
 21 55  1  0
 21 56  1  0
 24 57  1  6
 25 58  1  0
 25 59  1  0
 26 60  1  0
 26 61  1  0
 28 62  1  0
 29 63  1  0
 30 64  1  0
 31 65  1  0
 34 66  1  0
 34 67  1  0
M  END
>  <smiles>  (20) 
c1ccc2c(c1)CCN(c1nc(NCCC3CCOCC3)nc(C3CCc4ccccc43)n1)C2

>  <score_type>  (20) 
oracle

>  <origin>  (20) 
autodockgpu

>  <m_score__min__energy>  (20) 
-9.9800000000000004

>  <m_primary>  (20) 
energy

>  <rmsd>  (20) 
7.029593096392059

>  <m_score__min__rmsd>  (20) 
7.029593096392059

>  <meeko>  (20) 
{"free_energy": -8.9, "intermolecular_energy": -10.69, "internal_energy": -1.78, "cluster_size": 2, "cluster_id": 7, "rank_in_cluster": 2}

>  <energy>  (20) 
-9.48

>  <cluster_rmsd>  (20) 
0.0

>  <cluster>  (20) 
2

$$$$

     RDKit          3D

 67 72  0  0  0  0  0  0  0  0999 V2000
  141.4540   81.4230  222.2490 C   0  0  0  0  0  0  0  0  0  0  0  0
  141.0940   80.9800  223.4970 C   0  0  0  0  0  0  0  0  0  0  0  0
  140.9700   79.6320  223.7450 C   0  0  0  0  0  0  0  0  0  0  0  0
  141.2180   78.7480  222.7100 C   0  0  0  0  0  0  0  0  0  0  0  0
  141.5820   79.2100  221.4530 C   0  0  0  0  0  0  0  0  0  0  0  0
  141.7050   80.5620  221.2030 C   0  0  0  0  0  0  0  0  0  0  0  0
  141.8250   78.1710  220.4120 C   0  0  0  0  0  0  0  0  0  0  0  0
  140.5940   77.2890  220.3760 C   0  0  0  0  0  0  0  0  0  0  0  0
  140.4680   76.7030  221.7050 N   0  0  0  0  0  0  0  0  0  0  0  0
  139.6880   75.5460  221.8410 C   0  0  0  0  0  0  0  0  0  0  0  0
  140.2920   74.3530  221.9810 N   0  0  0  0  0  0  0  0  0  0  0  0
  139.5870   73.1950  222.1170 C   0  0  0  0  0  0  0  0  0  0  0  0
  140.2640   71.9330  222.2660 N   0  0  0  0  0  0  0  0  0  0  0  0
  139.7200   70.9440  223.1940 C   0  0  0  0  0  0  0  0  0  0  0  0
  139.9050   71.4940  224.5860 C   0  0  0  0  0  0  0  0  0  0  0  0
  140.5270   70.4860  225.5250 C   0  0  0  0  0  0  0  0  0  0  0  0
  139.6510   69.2800  225.7300 C   0  0  0  0  0  0  0  0  0  0  0  0
  140.3250   68.4020  226.7710 C   0  0  0  0  0  0  0  0  0  0  0  0
  140.2540   69.0790  227.9830 O   0  0  0  0  0  0  0  0  0  0  0  0
  141.0420   70.2270  227.9840 C   0  0  0  0  0  0  0  0  0  0  0  0
  140.6970   71.1650  226.8550 C   0  0  0  0  0  0  0  0  0  0  0  0
  138.2590   73.2850  222.1070 N   0  0  0  0  0  0  0  0  0  0  0  0
  137.6030   74.4510  221.9700 C   0  0  0  0  0  0  0  0  0  0  0  0
  136.1380   74.5870  221.9540 C   0  0  2  0  0  0  0  0  0  0  0  0
  135.7460   76.0430  221.8200 C   0  0  0  0  0  0  0  0  0  0  0  0
  135.8640   76.5300  223.2500 C   0  0  0  0  0  0  0  0  0  0  0  0
  135.3390   75.3690  224.0140 C   0  0  0  0  0  0  0  0  0  0  0  0
  134.7590   75.2200  225.2560 C   0  0  0  0  0  0  0  0  0  0  0  0
  134.3460   73.9800  225.7410 C   0  0  0  0  0  0  0  0  0  0  0  0
  134.5150   72.8540  224.9690 C   0  0  0  0  0  0  0  0  0  0  0  0
  135.0900   72.9860  223.7330 C   0  0  0  0  0  0  0  0  0  0  0  0
  135.4970   74.2260  223.2580 C   0  0  0  0  0  0  0  0  0  0  0  0
  138.3290   75.5960  221.8350 N   0  0  0  0  0  0  0  0  0  0  0  0
  141.1150   77.2740  222.8660 C   0  0  0  0  0  0  0  0  0  0  0  0
  141.5456   82.5057  222.0774 H   0  0  0  0  0  0  0  0  0  0  0  0
  140.9038   81.7050  224.3021 H   0  0  0  0  0  0  0  0  0  0  0  0
  140.6809   79.2665  224.7414 H   0  0  0  0  0  0  0  0  0  0  0  0
  141.9917   80.9367  220.2093 H   0  0  0  0  0  0  0  0  0  0  0  0
  141.9789   78.6461  219.4319 H   0  0  0  0  0  0  0  0  0  0  0  0
  142.7247   77.5826  220.6450 H   0  0  0  0  0  0  0  0  0  0  0  0
  139.7030   77.8889  220.1388 H   0  0  0  0  0  0  0  0  0  0  0  0
  140.6838   76.5106  219.6040 H   0  0  0  0  0  0  0  0  0  0  0  0
  141.1210   71.7730  221.7010 H   0  0  0  0  0  0  0  0  0  0  0  0
  138.6509   70.7835  222.9906 H   0  0  0  0  0  0  0  0  0  0  0  0
  140.2344   69.9780  223.0829 H   0  0  0  0  0  0  0  0  0  0  0  0
  140.5581   72.3776  224.5330 H   0  0  0  0  0  0  0  0  0  0  0  0
  138.9108   71.7512  224.9802 H   0  0  0  0  0  0  0  0  0  0  0  0
  141.4787   70.1433  225.0928 H   0  0  0  0  0  0  0  0  0  0  0  0
  138.6585   69.5923  226.0869 H   0  0  0  0  0  0  0  0  0  0  0  0
  139.5175   68.7313  224.7860 H   0  0  0  0  0  0  0  0  0  0  0  0
  139.8025   67.4370  226.8464 H   0  0  0  0  0  0  0  0  0  0  0  0
  141.3706   68.1998  226.4956 H   0  0  0  0  0  0  0  0  0  0  0  0
  140.8957   70.7545  228.9381 H   0  0  0  0  0  0  0  0  0  0  0  0
  142.0882   69.9144  227.8510 H   0  0  0  0  0  0  0  0  0  0  0  0
  139.7554   71.6756  227.1053 H   0  0  0  0  0  0  0  0  0  0  0  0
  141.5423   71.8611  226.7506 H   0  0  0  0  0  0  0  0  0  0  0  0
  135.8172   73.9338  221.1292 H   0  0  0  0  0  0  0  0  0  0  0  0
  136.4354   76.5836  221.1549 H   0  0  0  0  0  0  0  0  0  0  0  0
  134.7504   76.1969  221.3783 H   0  0  0  0  0  0  0  0  0  0  0  0
  136.9101   76.7431  223.5149 H   0  0  0  0  0  0  0  0  0  0  0  0
  135.3267   77.4698  223.4450 H   0  0  0  0  0  0  0  0  0  0  0  0
  134.6173   76.1105  225.8860 H   0  0  0  0  0  0  0  0  0  0  0  0
  133.8866   73.9022  226.7374 H   0  0  0  0  0  0  0  0  0  0  0  0
  134.1949   71.8680  225.3368 H   0  0  0  0  0  0  0  0  0  0  0  0
  135.2320   72.0939  223.1053 H   0  0  0  0  0  0  0  0  0  0  0  0
  140.5242   77.0421  223.7644 H   0  0  0  0  0  0  0  0  0  0  0  0
  142.1241   76.8477  222.9662 H   0  0  0  0  0  0  0  0  0  0  0  0
  1  2  2  0
  2  3  1  0
  3  4  2  0
  4  5  1  0
  5  6  2  0
  5  7  1  0
  7  8  1  0
  8  9  1  0
  9 10  1  0
 10 11  2  0
 11 12  1  0
 12 13  1  0
 13 14  1  0
 14 15  1  0
 15 16  1  0
 16 17  1  0
 17 18  1  0
 18 19  1  0
 19 20  1  0
 20 21  1  0
 12 22  2  0
 22 23  1  0
 23 24  1  0
 24 25  1  0
 25 26  1  0
 26 27  1  0
 27 28  2  0
 28 29  1  0
 29 30  2  0
 30 31  1  0
 31 32  2  0
 23 33  2  0
  9 34  1  0
  6  1  1  0
 33 10  1  0
 34  4  1  0
 21 16  1  0
 32 24  1  0
 32 27  1  0
  1 35  1  0
  2 36  1  0
  3 37  1  0
  6 38  1  0
  7 39  1  0
  7 40  1  0
  8 41  1  0
  8 42  1  0
 13 43  1  0
 14 44  1  0
 14 45  1  0
 15 46  1  0
 15 47  1  0
 16 48  1  0
 17 49  1  0
 17 50  1  0
 18 51  1  0
 18 52  1  0
 20 53  1  0
 20 54  1  0
 21 55  1  0
 21 56  1  0
 24 57  1  6
 25 58  1  0
 25 59  1  0
 26 60  1  0
 26 61  1  0
 28 62  1  0
 29 63  1  0
 30 64  1  0
 31 65  1  0
 34 66  1  0
 34 67  1  0
M  END
>  <smiles>  (21) 
c1ccc2c(c1)CCN(c1nc(NCCC3CCOCC3)nc(C3CCc4ccccc43)n1)C2

>  <score_type>  (21) 
oracle

>  <origin>  (21) 
autodockgpu

>  <m_score__min__energy>  (21) 
-9.9800000000000004

>  <m_primary>  (21) 
energy

>  <rmsd>  (21) 
7.170276682315335

>  <m_score__min__rmsd>  (21) 
7.170276682315335

>  <meeko>  (21) 
{"free_energy": -9.17, "intermolecular_energy": -10.96, "internal_energy": -1.36, "cluster_size": 13, "cluster_id": 2, "rank_in_cluster": 6}

>  <energy>  (21) 
-9.41

>  <cluster_rmsd>  (21) 
0.21

>  <cluster>  (21) 
2

$$$$

     RDKit          3D

 67 72  0  0  0  0  0  0  0  0999 V2000
  141.8010   81.0530  224.1530 C   0  0  0  0  0  0  0  0  0  0  0  0
  142.9520   80.5540  223.5980 C   0  0  0  0  0  0  0  0  0  0  0  0
  142.8920   79.5270  222.6840 C   0  0  0  0  0  0  0  0  0  0  0  0
  141.6510   79.0190  222.3480 C   0  0  0  0  0  0  0  0  0  0  0  0
  140.4930   79.5340  222.9160 C   0  0  0  0  0  0  0  0  0  0  0  0
  140.5530   80.5640  223.8330 C   0  0  0  0  0  0  0  0  0  0  0  0
  139.2100   78.9130  222.4820 C   0  0  0  0  0  0  0  0  0  0  0  0
  139.3520   77.4200  222.6940 C   0  0  0  0  0  0  0  0  0  0  0  0
  140.4690   76.9880  221.8630 N   0  0  0  0  0  0  0  0  0  0  0  0
  140.5580   75.6280  221.5380 C   0  0  0  0  0  0  0  0  0  0  0  0
  139.9340   74.7200  222.3080 N   0  0  0  0  0  0  0  0  0  0  0  0
  139.9860   73.3850  222.0410 C   0  0  0  0  0  0  0  0  0  0  0  0
  139.3060   72.4370  222.8850 N   0  0  0  0  0  0  0  0  0  0  0  0
  140.0420   71.2760  223.3800 C   0  0  0  0  0  0  0  0  0  0  0  0
  140.6920   71.6830  224.6790 C   0  0  0  0  0  0  0  0  0  0  0  0
  140.9280   70.5070  225.5980 C   0  0  0  0  0  0  0  0  0  0  0  0
  139.9530   69.3860  225.3520 C   0  0  0  0  0  0  0  0  0  0  0  0
  140.2140   68.3200  226.4030 C   0  0  0  0  0  0  0  0  0  0  0  0
  139.8200   68.8470  227.6260 O   0  0  0  0  0  0  0  0  0  0  0  0
  140.6440   69.8930  228.0310 C   0  0  0  0  0  0  0  0  0  0  0  0
  140.7260   70.9940  227.0050 C   0  0  0  0  0  0  0  0  0  0  0  0
  140.6860   73.0020  220.9740 N   0  0  0  0  0  0  0  0  0  0  0  0
  141.3290   73.8670  220.1700 C   0  0  0  0  0  0  0  0  0  0  0  0
  142.1120   73.4800  218.9860 C   0  0  2  0  0  0  0  0  0  0  0  0
  141.5840   72.1850  218.4050 C   0  0  0  0  0  0  0  0  0  0  0  0
  142.2490   71.1520  219.2920 C   0  0  0  0  0  0  0  0  0  0  0  0
  143.6000   71.7400  219.4870 C   0  0  0  0  0  0  0  0  0  0  0  0
  144.8380   71.2180  219.7940 C   0  0  0  0  0  0  0  0  0  0  0  0
  145.9730   72.0170  219.9220 C   0  0  0  0  0  0  0  0  0  0  0  0
  145.8730   73.3770  219.7390 C   0  0  0  0  0  0  0  0  0  0  0  0
  144.6490   73.9100  219.4350 C   0  0  0  0  0  0  0  0  0  0  0  0
  143.5250   73.1050  219.3090 C   0  0  0  0  0  0  0  0  0  0  0  0
  141.2640   75.1980  220.4570 N   0  0  0  0  0  0  0  0  0  0  0  0
  141.4690   77.9120  221.3740 C   0  0  0  0  0  0  0  0  0  0  0  0
  141.8771   81.8743  224.8808 H   0  0  0  0  0  0  0  0  0  0  0  0
  143.9264   80.9763  223.8846 H   0  0  0  0  0  0  0  0  0  0  0  0
  143.8087   79.1204  222.2320 H   0  0  0  0  0  0  0  0  0  0  0  0
  139.6418   80.9776  224.2897 H   0  0  0  0  0  0  0  0  0  0  0  0
  138.3772   79.3035  223.0853 H   0  0  0  0  0  0  0  0  0  0  0  0
  138.9972   79.1432  221.4276 H   0  0  0  0  0  0  0  0  0  0  0  0
  139.5603   77.2046  223.7524 H   0  0  0  0  0  0  0  0  0  0  0  0
  138.4268   76.8902  222.4233 H   0  0  0  0  0  0  0  0  0  0  0  0
  138.3090   72.6180  223.1120 H   0  0  0  0  0  0  0  0  0  0  0  0
  139.3520   70.4364  223.5503 H   0  0  0  0  0  0  0  0  0  0  0  0
  140.7974   70.9510  222.6494 H   0  0  0  0  0  0  0  0  0  0  0  0
  141.6593   72.1573  224.4567 H   0  0  0  0  0  0  0  0  0  0  0  0
  140.0108   72.3780  225.1917 H   0  0  0  0  0  0  0  0  0  0  0  0
  141.9421   70.1200  225.4198 H   0  0  0  0  0  0  0  0  0  0  0  0
  138.9217   69.7580  225.4414 H   0  0  0  0  0  0  0  0  0  0  0  0
  140.0810   68.9742  224.3401 H   0  0  0  0  0  0  0  0  0  0  0  0
  139.6303   67.4157  226.1762 H   0  0  0  0  0  0  0  0  0  0  0  0
  141.2778   68.0407  226.4215 H   0  0  0  0  0  0  0  0  0  0  0  0
  140.2473   70.3123  228.9674 H   0  0  0  0  0  0  0  0  0  0  0  0
  141.6572   69.4868  228.1669 H   0  0  0  0  0  0  0  0  0  0  0  0
  139.7893   71.5696  227.0403 H   0  0  0  0  0  0  0  0  0  0  0  0
  141.6072   71.6009  227.2604 H   0  0  0  0  0  0  0  0  0  0  0  0
  142.0466   74.3560  218.3239 H   0  0  0  0  0  0  0  0  0  0  0  0
  140.4879   72.1304  218.4794 H   0  0  0  0  0  0  0  0  0  0  0  0
  141.7999   72.0571  217.3340 H   0  0  0  0  0  0  0  0  0  0  0  0
  141.7174   71.0446  220.2490 H   0  0  0  0  0  0  0  0  0  0  0  0
  142.2626   70.1395  218.8623 H   0  0  0  0  0  0  0  0  0  0  0  0
  144.9338   70.1324  219.9433 H   0  0  0  0  0  0  0  0  0  0  0  0
  146.9440   71.5624  220.1681 H   0  0  0  0  0  0  0  0  0  0  0  0
  146.7583   74.0228  219.8350 H   0  0  0  0  0  0  0  0  0  0  0  0
  144.5545   74.9960  219.2879 H   0  0  0  0  0  0  0  0  0  0  0  0
  142.4233   77.3811  221.2422 H   0  0  0  0  0  0  0  0  0  0  0  0
  141.1393   78.3271  220.4101 H   0  0  0  0  0  0  0  0  0  0  0  0
  1  2  2  0
  2  3  1  0
  3  4  2  0
  4  5  1  0
  5  6  2  0
  5  7  1  0
  7  8  1  0
  8  9  1  0
  9 10  1  0
 10 11  2  0
 11 12  1  0
 12 13  1  0
 13 14  1  0
 14 15  1  0
 15 16  1  0
 16 17  1  0
 17 18  1  0
 18 19  1  0
 19 20  1  0
 20 21  1  0
 12 22  2  0
 22 23  1  0
 23 24  1  0
 24 25  1  0
 25 26  1  0
 26 27  1  0
 27 28  2  0
 28 29  1  0
 29 30  2  0
 30 31  1  0
 31 32  2  0
 23 33  2  0
  9 34  1  0
  6  1  1  0
 33 10  1  0
 34  4  1  0
 21 16  1  0
 32 24  1  0
 32 27  1  0
  1 35  1  0
  2 36  1  0
  3 37  1  0
  6 38  1  0
  7 39  1  0
  7 40  1  0
  8 41  1  0
  8 42  1  0
 13 43  1  0
 14 44  1  0
 14 45  1  0
 15 46  1  0
 15 47  1  0
 16 48  1  0
 17 49  1  0
 17 50  1  0
 18 51  1  0
 18 52  1  0
 20 53  1  0
 20 54  1  0
 21 55  1  0
 21 56  1  0
 24 57  1  6
 25 58  1  0
 25 59  1  0
 26 60  1  0
 26 61  1  0
 28 62  1  0
 29 63  1  0
 30 64  1  0
 31 65  1  0
 34 66  1  0
 34 67  1  0
M  END
>  <smiles>  (22) 
c1ccc2c(c1)CCN(c1nc(NCCC3CCOCC3)nc(C3CCc4ccccc43)n1)C2

>  <score_type>  (22) 
oracle

>  <origin>  (22) 
autodockgpu

>  <m_score__min__energy>  (22) 
-9.9800000000000004

>  <m_primary>  (22) 
energy

>  <rmsd>  (22) 
7.431507704530387

>  <m_score__min__rmsd>  (22) 
7.431507704530387

>  <meeko>  (22) 
{"free_energy": -9.83, "intermolecular_energy": -11.62, "internal_energy": -1.21, "cluster_size": 19, "cluster_id": 1, "rank_in_cluster": 4}

>  <energy>  (22) 
-9.33

>  <cluster_rmsd>  (22) 
0.29

>  <cluster>  (22) 
2

$$$$

     RDKit          3D

 67 72  0  0  0  0  0  0  0  0999 V2000
  141.4040   81.0580  223.9170 C   0  0  0  0  0  0  0  0  0  0  0  0
  142.6270   80.5720  223.5290 C   0  0  0  0  0  0  0  0  0  0  0  0
  142.7070   79.5000  222.6690 C   0  0  0  0  0  0  0  0  0  0  0  0
  141.5300   78.9350  222.2140 C   0  0  0  0  0  0  0  0  0  0  0  0
  140.2980   79.4370  222.6130 C   0  0  0  0  0  0  0  0  0  0  0  0
  140.2180   80.5120  223.4760 C   0  0  0  0  0  0  0  0  0  0  0  0
  139.0950   78.7530  222.0610 C   0  0  0  0  0  0  0  0  0  0  0  0
  139.2510   77.2770  222.3660 C   0  0  0  0  0  0  0  0  0  0  0  0
  140.4720   76.8450  221.6970 N   0  0  0  0  0  0  0  0  0  0  0  0
  140.6380   75.4740  221.4560 C   0  0  0  0  0  0  0  0  0  0  0  0
  140.1410   74.5820  222.3300 N   0  0  0  0  0  0  0  0  0  0  0  0
  140.2710   73.2380  222.1480 C   0  0  0  0  0  0  0  0  0  0  0  0
  139.7270   72.3090  223.1030 N   0  0  0  0  0  0  0  0  0  0  0  0
  140.6360   71.4150  223.8180 C   0  0  0  0  0  0  0  0  0  0  0  0
  140.2370   71.4480  225.2730 C   0  0  0  0  0  0  0  0  0  0  0  0
  140.6860   70.2150  226.0210 C   0  0  0  0  0  0  0  0  0  0  0  0
  139.9270   68.9850  225.6000 C   0  0  0  0  0  0  0  0  0  0  0  0
  140.3820   67.8430  226.4940 C   0  0  0  0  0  0  0  0  0  0  0  0
  139.9070   68.1120  227.7720 O   0  0  0  0  0  0  0  0  0  0  0  0
  140.5320   69.2200  228.3370 C   0  0  0  0  0  0  0  0  0  0  0  0
  140.4080   70.4530  227.4790 C   0  0  0  0  0  0  0  0  0  0  0  0
  140.9180   72.8300  221.0580 N   0  0  0  0  0  0  0  0  0  0  0  0
  141.4350   73.6770  220.1510 C   0  0  0  0  0  0  0  0  0  0  0  0
  142.1560   73.2620  218.9380 C   0  0  2  0  0  0  0  0  0  0  0  0
  141.5700   71.9780  218.3900 C   0  0  0  0  0  0  0  0  0  0  0  0
  142.2460   70.9340  219.2560 C   0  0  0  0  0  0  0  0  0  0  0  0
  143.6190   71.4870  219.3880 C   0  0  0  0  0  0  0  0  0  0  0  0
  144.8560   70.9350  219.6460 C   0  0  0  0  0  0  0  0  0  0  0  0
  146.0150   71.7050  219.7190 C   0  0  0  0  0  0  0  0  0  0  0  0
  145.9420   73.0660  219.5300 C   0  0  0  0  0  0  0  0  0  0  0  0
  144.7210   73.6290  219.2740 C   0  0  0  0  0  0  0  0  0  0  0  0
  143.5720   72.8530  219.2030 C   0  0  0  0  0  0  0  0  0  0  0  0
  141.2930   75.0180  220.3550 N   0  0  0  0  0  0  0  0  0  0  0  0
  141.4980   77.7770  221.2830 C   0  0  0  0  0  0  0  0  0  0  0  0
  141.3688   81.9151  224.6055 H   0  0  0  0  0  0  0  0  0  0  0  0
  143.5476   81.0409  223.9067 H   0  0  0  0  0  0  0  0  0  0  0  0
  143.6826   79.1030  222.3519 H   0  0  0  0  0  0  0  0  0  0  0  0
  139.2470   80.9161  223.7984 H   0  0  0  0  0  0  0  0  0  0  0  0
  138.1846   79.1441  222.5388 H   0  0  0  0  0  0  0  0  0  0  0  0
  139.0059   78.9246  220.9781 H   0  0  0  0  0  0  0  0  0  0  0  0
  139.3359   77.1198  223.4514 H   0  0  0  0  0  0  0  0  0  0  0  0
  138.3802   76.7034  222.0158 H   0  0  0  0  0  0  0  0  0  0  0  0
  138.6990   72.3090  223.2480 H   0  0  0  0  0  0  0  0  0  0  0  0
  140.5455   70.3916  223.4250 H   0  0  0  0  0  0  0  0  0  0  0  0
  141.6807   71.7352  223.6910 H   0  0  0  0  0  0  0  0  0  0  0  0
  140.6915   72.3321  225.7440 H   0  0  0  0  0  0  0  0  0  0  0  0
  139.1386   71.4869  225.3189 H   0  0  0  0  0  0  0  0  0  0  0  0
  141.7521   70.0447  225.8102 H   0  0  0  0  0  0  0  0  0  0  0  0
  138.8462   69.1500  225.7214 H   0  0  0  0  0  0  0  0  0  0  0  0
  140.1205   68.7517  224.5426 H   0  0  0  0  0  0  0  0  0  0  0  0
  139.9685   66.8909  226.1301 H   0  0  0  0  0  0  0  0  0  0  0  0
  141.4787   67.7575  226.4933 H   0  0  0  0  0  0  0  0  0  0  0  0
  140.0723   69.4235  229.3154 H   0  0  0  0  0  0  0  0  0  0  0  0
  141.6026   68.9865  228.4337 H   0  0  0  0  0  0  0  0  0  0  0  0
  139.3832   70.8406  227.5768 H   0  0  0  0  0  0  0  0  0  0  0  0
  141.1667   71.1655  227.8350 H   0  0  0  0  0  0  0  0  0  0  0  0
  142.0849   74.1349  218.2725 H   0  0  0  0  0  0  0  0  0  0  0  0
  140.4771   71.9526  218.5117 H   0  0  0  0  0  0  0  0  0  0  0  0
  141.7358   71.8374  217.3117 H   0  0  0  0  0  0  0  0  0  0  0  0
  141.7537   70.8474  220.2359 H   0  0  0  0  0  0  0  0  0  0  0  0
  142.2146   69.9186  218.8340 H   0  0  0  0  0  0  0  0  0  0  0  0
  144.9305   69.8483  219.7996 H   0  0  0  0  0  0  0  0  0  0  0  0
  146.9838   71.2271  219.9267 H   0  0  0  0  0  0  0  0  0  0  0  0
  146.8469   73.6891  219.5836 H   0  0  0  0  0  0  0  0  0  0  0  0
  144.6488   74.7160  219.1218 H   0  0  0  0  0  0  0  0  0  0  0  0
  142.4755   77.2727  221.2934 H   0  0  0  0  0  0  0  0  0  0  0  0
  141.2765   78.1338  220.2663 H   0  0  0  0  0  0  0  0  0  0  0  0
  1  2  2  0
  2  3  1  0
  3  4  2  0
  4  5  1  0
  5  6  2  0
  5  7  1  0
  7  8  1  0
  8  9  1  0
  9 10  1  0
 10 11  2  0
 11 12  1  0
 12 13  1  0
 13 14  1  0
 14 15  1  0
 15 16  1  0
 16 17  1  0
 17 18  1  0
 18 19  1  0
 19 20  1  0
 20 21  1  0
 12 22  2  0
 22 23  1  0
 23 24  1  0
 24 25  1  0
 25 26  1  0
 26 27  1  0
 27 28  2  0
 28 29  1  0
 29 30  2  0
 30 31  1  0
 31 32  2  0
 23 33  2  0
  9 34  1  0
  6  1  1  0
 33 10  1  0
 34  4  1  0
 21 16  1  0
 32 24  1  0
 32 27  1  0
  1 35  1  0
  2 36  1  0
  3 37  1  0
  6 38  1  0
  7 39  1  0
  7 40  1  0
  8 41  1  0
  8 42  1  0
 13 43  1  0
 14 44  1  0
 14 45  1  0
 15 46  1  0
 15 47  1  0
 16 48  1  0
 17 49  1  0
 17 50  1  0
 18 51  1  0
 18 52  1  0
 20 53  1  0
 20 54  1  0
 21 55  1  0
 21 56  1  0
 24 57  1  6
 25 58  1  0
 25 59  1  0
 26 60  1  0
 26 61  1  0
 28 62  1  0
 29 63  1  0
 30 64  1  0
 31 65  1  0
 34 66  1  0
 34 67  1  0
M  END
>  <smiles>  (23) 
c1ccc2c(c1)CCN(c1nc(NCCC3CCOCC3)nc(C3CCc4ccccc43)n1)C2

>  <score_type>  (23) 
oracle

>  <origin>  (23) 
autodockgpu

>  <m_score__min__energy>  (23) 
-9.9800000000000004

>  <m_primary>  (23) 
energy

>  <rmsd>  (23) 
7.469245097504877

>  <m_score__min__rmsd>  (23) 
7.469245097504877

>  <meeko>  (23) 
{"free_energy": -9.68, "intermolecular_energy": -11.47, "internal_energy": -1.06, "cluster_size": 19, "cluster_id": 1, "rank_in_cluster": 10}

>  <energy>  (23) 
-9.31

>  <cluster_rmsd>  (23) 
0.43

>  <cluster>  (23) 
2

$$$$

     RDKit          3D

 67 72  0  0  0  0  0  0  0  0999 V2000
  141.9510   80.8380  222.1560 C   0  0  0  0  0  0  0  0  0  0  0  0
  141.6900   80.4000  223.4300 C   0  0  0  0  0  0  0  0  0  0  0  0
  141.4020   79.0740  223.6630 C   0  0  0  0  0  0  0  0  0  0  0  0
  141.3860   78.2070  222.5850 C   0  0  0  0  0  0  0  0  0  0  0  0
  141.6530   78.6630  221.3010 C   0  0  0  0  0  0  0  0  0  0  0  0
  141.9400   79.9920  221.0670 C   0  0  0  0  0  0  0  0  0  0  0  0
  141.6080   77.6430  220.2150 C   0  0  0  0  0  0  0  0  0  0  0  0
  140.2670   76.9480  220.3210 C   0  0  0  0  0  0  0  0  0  0  0  0
  140.2240   76.3320  221.6420 N   0  0  0  0  0  0  0  0  0  0  0  0
  139.3070   75.2930  221.8530 C   0  0  0  0  0  0  0  0  0  0  0  0
  139.7540   74.0320  221.9880 N   0  0  0  0  0  0  0  0  0  0  0  0
  138.9110   72.9830  222.1950 C   0  0  0  0  0  0  0  0  0  0  0  0
  139.4210   71.6440  222.3360 N   0  0  0  0  0  0  0  0  0  0  0  0
  139.4880   71.0490  223.6690 C   0  0  0  0  0  0  0  0  0  0  0  0
  140.7080   71.6210  224.3490 C   0  0  0  0  0  0  0  0  0  0  0  0
  141.0510   70.8890  225.6250 C   0  0  0  0  0  0  0  0  0  0  0  0
  140.0590   69.8050  225.9460 C   0  0  0  0  0  0  0  0  0  0  0  0
  140.4430   69.2240  227.2970 C   0  0  0  0  0  0  0  0  0  0  0  0
  140.1900   70.2040  228.2490 O   0  0  0  0  0  0  0  0  0  0  0  0
  141.0510   71.2890  228.1190 C   0  0  0  0  0  0  0  0  0  0  0  0
  141.0110   71.8970  226.7400 C   0  0  0  0  0  0  0  0  0  0  0  0
  137.6080   73.2510  222.2610 N   0  0  0  0  0  0  0  0  0  0  0  0
  137.1060   74.4910  222.1320 C   0  0  0  0  0  0  0  0  0  0  0  0
  135.6750   74.8230  222.1980 C   0  0  2  0  0  0  0  0  0  0  0  0
  135.4720   76.3160  222.0400 C   0  0  0  0  0  0  0  0  0  0  0  0
  135.7440   76.8170  223.4430 C   0  0  0  0  0  0  0  0  0  0  0  0
  135.1180   75.7560  224.2750 C   0  0  0  0  0  0  0  0  0  0  0  0
  134.6030   75.7170  225.5530 C   0  0  0  0  0  0  0  0  0  0  0  0
  134.0600   74.5580  226.1030 C   0  0  0  0  0  0  0  0  0  0  0  0
  134.0280   73.4000  225.3580 C   0  0  0  0  0  0  0  0  0  0  0  0
  134.5360   73.4230  224.0880 C   0  0  0  0  0  0  0  0  0  0  0  0
  135.0740   74.5850  223.5490 C   0  0  0  0  0  0  0  0  0  0  0  0
  137.9690   75.5260  221.9250 N   0  0  0  0  0  0  0  0  0  0  0  0
  141.0890   76.7580  222.7210 C   0  0  0  0  0  0  0  0  0  0  0  0
  142.1773   81.9028  221.9976 H   0  0  0  0  0  0  0  0  0  0  0  0
  141.7110   81.1114  224.2687 H   0  0  0  0  0  0  0  0  0  0  0  0
  141.1900   78.7131  224.6803 H   0  0  0  0  0  0  0  0  0  0  0  0
  142.1515   80.3618  220.0529 H   0  0  0  0  0  0  0  0  0  0  0  0
  141.7051   78.1305  219.2337 H   0  0  0  0  0  0  0  0  0  0  0  0
  142.4339   76.9234  220.3157 H   0  0  0  0  0  0  0  0  0  0  0  0
  139.4510   77.6781  220.2153 H   0  0  0  0  0  0  0  0  0  0  0  0
  140.1442   76.1965  219.5271 H   0  0  0  0  0  0  0  0  0  0  0  0
  139.7240   71.1480  221.4760 H   0  0  0  0  0  0  0  0  0  0  0  0
  138.5834   71.3023  224.2413 H   0  0  0  0  0  0  0  0  0  0  0  0
  139.5526   69.9527  223.6058 H   0  0  0  0  0  0  0  0  0  0  0  0
  141.5626   71.5499  223.6601 H   0  0  0  0  0  0  0  0  0  0  0  0
  140.4876   72.6665  224.6104 H   0  0  0  0  0  0  0  0  0  0  0  0
  142.0385   70.4194  225.5058 H   0  0  0  0  0  0  0  0  0  0  0  0
  139.0438   70.2259  225.9924 H   0  0  0  0  0  0  0  0  0  0  0  0
  140.0706   69.0253  225.1701 H   0  0  0  0  0  0  0  0  0  0  0  0
  139.8402   68.3283  227.5078 H   0  0  0  0  0  0  0  0  0  0  0  0
  141.5027   68.9293  227.3100 H   0  0  0  0  0  0  0  0  0  0  0  0
  140.7630   72.0574  228.8516 H   0  0  0  0  0  0  0  0  0  0  0  0
  142.0744   70.9259  228.2942 H   0  0  0  0  0  0  0  0  0  0  0  0
  140.0829   72.4800  226.6460 H   0  0  0  0  0  0  0  0  0  0  0  0
  141.9136   72.5177  226.6399 H   0  0  0  0  0  0  0  0  0  0  0  0
  135.2198   74.1984  221.4153 H   0  0  0  0  0  0  0  0  0  0  0  0
  136.1835   76.7425  221.3176 H   0  0  0  0  0  0  0  0  0  0  0  0
  134.4797   76.5918  221.6536 H   0  0  0  0  0  0  0  0  0  0  0  0
  136.8239   76.8933  223.6381 H   0  0  0  0  0  0  0  0  0  0  0  0
  135.3501   77.8252  223.6388 H   0  0  0  0  0  0  0  0  0  0  0  0
  134.6214   76.6339  226.1603 H   0  0  0  0  0  0  0  0  0  0  0  0
  133.6588   74.5676  227.1272 H   0  0  0  0  0  0  0  0  0  0  0  0
  133.6027   72.4755  225.7757 H   0  0  0  0  0  0  0  0  0  0  0  0
  134.5182   72.5048  223.4826 H   0  0  0  0  0  0  0  0  0  0  0  0
  140.5886   76.5765  223.6836 H   0  0  0  0  0  0  0  0  0  0  0  0
  142.0294   76.1888  222.6792 H   0  0  0  0  0  0  0  0  0  0  0  0
  1  2  2  0
  2  3  1  0
  3  4  2  0
  4  5  1  0
  5  6  2  0
  5  7  1  0
  7  8  1  0
  8  9  1  0
  9 10  1  0
 10 11  2  0
 11 12  1  0
 12 13  1  0
 13 14  1  0
 14 15  1  0
 15 16  1  0
 16 17  1  0
 17 18  1  0
 18 19  1  0
 19 20  1  0
 20 21  1  0
 12 22  2  0
 22 23  1  0
 23 24  1  0
 24 25  1  0
 25 26  1  0
 26 27  1  0
 27 28  2  0
 28 29  1  0
 29 30  2  0
 30 31  1  0
 31 32  2  0
 23 33  2  0
  9 34  1  0
  6  1  1  0
 33 10  1  0
 34  4  1  0
 21 16  1  0
 32 24  1  0
 32 27  1  0
  1 35  1  0
  2 36  1  0
  3 37  1  0
  6 38  1  0
  7 39  1  0
  7 40  1  0
  8 41  1  0
  8 42  1  0
 13 43  1  0
 14 44  1  0
 14 45  1  0
 15 46  1  0
 15 47  1  0
 16 48  1  0
 17 49  1  0
 17 50  1  0
 18 51  1  0
 18 52  1  0
 20 53  1  0
 20 54  1  0
 21 55  1  0
 21 56  1  0
 24 57  1  6
 25 58  1  0
 25 59  1  0
 26 60  1  0
 26 61  1  0
 28 62  1  0
 29 63  1  0
 30 64  1  0
 31 65  1  0
 34 66  1  0
 34 67  1  0
M  END
>  <smiles>  (24) 
c1ccc2c(c1)CCN(c1nc(NCCC3CCOCC3)nc(C3CCc4ccccc43)n1)C2

>  <score_type>  (24) 
oracle

>  <origin>  (24) 
autodockgpu

>  <m_score__min__energy>  (24) 
-9.9800000000000004

>  <m_primary>  (24) 
energy

>  <rmsd>  (24) 
7.5185356904356135

>  <m_score__min__rmsd>  (24) 
7.5185356904356135

>  <meeko>  (24) 
{"free_energy": -9.18, "intermolecular_energy": -10.97, "internal_energy": -1.33, "cluster_size": 13, "cluster_id": 2, "rank_in_cluster": 5}

>  <energy>  (24) 
-9.18

>  <cluster_rmsd>  (24) 
0.42

>  <cluster>  (24) 
2

$$$$

     RDKit          3D

 67 72  0  0  0  0  0  0  0  0999 V2000
  142.1410   81.1300  223.8540 C   0  0  0  0  0  0  0  0  0  0  0  0
  143.0280   80.1530  223.4780 C   0  0  0  0  0  0  0  0  0  0  0  0
  142.5900   79.0480  222.7850 C   0  0  0  0  0  0  0  0  0  0  0  0
  141.2440   78.9530  222.4830 C   0  0  0  0  0  0  0  0  0  0  0  0
  140.3560   79.9490  222.8680 C   0  0  0  0  0  0  0  0  0  0  0  0
  140.7950   81.0580  223.5630 C   0  0  0  0  0  0  0  0  0  0  0  0
  138.9290   79.7460  222.4900 C   0  0  0  0  0  0  0  0  0  0  0  0
  138.5300   78.3780  223.0030 C   0  0  0  0  0  0  0  0  0  0  0  0
  139.4060   77.4180  222.3420 N   0  0  0  0  0  0  0  0  0  0  0  0
  138.9980   76.0770  222.2990 C   0  0  0  0  0  0  0  0  0  0  0  0
  139.9240   75.1030  222.2790 N   0  0  0  0  0  0  0  0  0  0  0  0
  139.5870   73.7840  222.2380 C   0  0  0  0  0  0  0  0  0  0  0  0
  140.6030   72.7640  222.2170 N   0  0  0  0  0  0  0  0  0  0  0  0
  140.3070   71.4580  222.8040 C   0  0  0  0  0  0  0  0  0  0  0  0
  140.6740   71.5360  224.2650 C   0  0  0  0  0  0  0  0  0  0  0  0
  139.8020   70.6510  225.1250 C   0  0  0  0  0  0  0  0  0  0  0  0
  140.5810   69.5400  225.7740 C   0  0  0  0  0  0  0  0  0  0  0  0
  139.5860   68.6590  226.5120 C   0  0  0  0  0  0  0  0  0  0  0  0
  138.8190   68.0150  225.5490 O   0  0  0  0  0  0  0  0  0  0  0  0
  137.9990   68.9030  224.8580 C   0  0  0  0  0  0  0  0  0  0  0  0
  138.7740   70.0290  224.2230 C   0  0  0  0  0  0  0  0  0  0  0  0
  138.2890   73.4850  222.2180 N   0  0  0  0  0  0  0  0  0  0  0  0
  137.3210   74.4180  222.2370 C   0  0  0  0  0  0  0  0  0  0  0  0
  135.8800   74.1260  222.2160 C   0  0  2  0  0  0  0  0  0  0  0  0
  135.0910   75.3280  222.6900 C   0  0  0  0  0  0  0  0  0  0  0  0
  135.1870   75.1890  224.1960 C   0  0  0  0  0  0  0  0  0  0  0  0
  135.0670   73.7190  224.3760 C   0  0  0  0  0  0  0  0  0  0  0  0
  134.6560   72.9100  225.4140 C   0  0  0  0  0  0  0  0  0  0  0  0
  134.6420   71.5200  225.3150 C   0  0  0  0  0  0  0  0  0  0  0  0
  135.0510   70.9160  224.1480 C   0  0  0  0  0  0  0  0  0  0  0  0
  135.4640   71.7060  223.1090 C   0  0  0  0  0  0  0  0  0  0  0  0
  135.4720   73.0900  223.2180 C   0  0  0  0  0  0  0  0  0  0  0  0
  137.6820   75.7320  222.2780 N   0  0  0  0  0  0  0  0  0  0  0  0
  140.6620   77.8050  221.7390 C   0  0  0  0  0  0  0  0  0  0  0  0
  142.5174   82.0027  224.4079 H   0  0  0  0  0  0  0  0  0  0  0  0
  144.0936   80.2536  223.7316 H   0  0  0  0  0  0  0  0  0  0  0  0
  143.2933   78.2596  222.4788 H   0  0  0  0  0  0  0  0  0  0  0  0
  140.0993   81.8520  223.8721 H   0  0  0  0  0  0  0  0  0  0  0  0
  138.3009   80.5217  222.9524 H   0  0  0  0  0  0  0  0  0  0  0  0
  138.7964   79.8126  221.4001 H   0  0  0  0  0  0  0  0  0  0  0  0
  138.6640   78.3269  224.0936 H   0  0  0  0  0  0  0  0  0  0  0  0
  137.4722   78.1652  222.7891 H   0  0  0  0  0  0  0  0  0  0  0  0
  141.5160   72.9980  221.7810 H   0  0  0  0  0  0  0  0  0  0  0  0
  139.2366   71.2292  222.6954 H   0  0  0  0  0  0  0  0  0  0  0  0
  140.8757   70.6633  222.2990 H   0  0  0  0  0  0  0  0  0  0  0  0
  141.7216   71.2223  224.3835 H   0  0  0  0  0  0  0  0  0  0  0  0
  140.5253   72.5752  224.5936 H   0  0  0  0  0  0  0  0  0  0  0  0
  139.3578   71.2641  225.9230 H   0  0  0  0  0  0  0  0  0  0  0  0
  141.1075   68.9523  225.0076 H   0  0  0  0  0  0  0  0  0  0  0  0
  141.3311   69.9456  226.4689 H   0  0  0  0  0  0  0  0  0  0  0  0
  140.1201   67.9190  227.1261 H   0  0  0  0  0  0  0  0  0  0  0  0
  138.9519   69.2594  227.1809 H   0  0  0  0  0  0  0  0  0  0  0  0
  137.4677   68.3512  224.0685 H   0  0  0  0  0  0  0  0  0  0  0  0
  137.2997   69.3454  225.5827 H   0  0  0  0  0  0  0  0  0  0  0  0
  139.2876   69.6361  223.3331 H   0  0  0  0  0  0  0  0  0  0  0  0
  138.0464   70.8174  223.9801 H   0  0  0  0  0  0  0  0  0  0  0  0
  135.6860   73.8129  221.1795 H   0  0  0  0  0  0  0  0  0  0  0  0
  135.5470   76.2676  222.3448 H   0  0  0  0  0  0  0  0  0  0  0  0
  134.0589   75.3605  222.3110 H   0  0  0  0  0  0  0  0  0  0  0  0
  136.1518   75.5607  224.5715 H   0  0  0  0  0  0  0  0  0  0  0  0
  134.4294   75.7675  224.7451 H   0  0  0  0  0  0  0  0  0  0  0  0
  134.3275   73.3783  226.3536 H   0  0  0  0  0  0  0  0  0  0  0  0
  134.3057   70.9086  226.1654 H   0  0  0  0  0  0  0  0  0  0  0  0
  135.0461   69.8202  224.0520 H   0  0  0  0  0  0  0  0  0  0  0  0
  135.7953   71.2359  222.1713 H   0  0  0  0  0  0  0  0  0  0  0  0
  141.3605   76.9559  221.7727 H   0  0  0  0  0  0  0  0  0  0  0  0
  140.4880   78.0998  220.6936 H   0  0  0  0  0  0  0  0  0  0  0  0
  1  2  2  0
  2  3  1  0
  3  4  2  0
  4  5  1  0
  5  6  2  0
  5  7  1  0
  7  8  1  0
  8  9  1  0
  9 10  1  0
 10 11  2  0
 11 12  1  0
 12 13  1  0
 13 14  1  0
 14 15  1  0
 15 16  1  0
 16 17  1  0
 17 18  1  0
 18 19  1  0
 19 20  1  0
 20 21  1  0
 12 22  2  0
 22 23  1  0
 23 24  1  0
 24 25  1  0
 25 26  1  0
 26 27  1  0
 27 28  2  0
 28 29  1  0
 29 30  2  0
 30 31  1  0
 31 32  2  0
 23 33  2  0
  9 34  1  0
  6  1  1  0
 33 10  1  0
 34  4  1  0
 21 16  1  0
 32 24  1  0
 32 27  1  0
  1 35  1  0
  2 36  1  0
  3 37  1  0
  6 38  1  0
  7 39  1  0
  7 40  1  0
  8 41  1  0
  8 42  1  0
 13 43  1  0
 14 44  1  0
 14 45  1  0
 15 46  1  0
 15 47  1  0
 16 48  1  0
 17 49  1  0
 17 50  1  0
 18 51  1  0
 18 52  1  0
 20 53  1  0
 20 54  1  0
 21 55  1  0
 21 56  1  0
 24 57  1  6
 25 58  1  0
 25 59  1  0
 26 60  1  0
 26 61  1  0
 28 62  1  0
 29 63  1  0
 30 64  1  0
 31 65  1  0
 34 66  1  0
 34 67  1  0
M  END
>  <smiles>  (25) 
c1ccc2c(c1)CCN(c1nc(NCCC3CCOCC3)nc(C3CCc4ccccc43)n1)C2

>  <score_type>  (25) 
oracle

>  <origin>  (25) 
autodockgpu

>  <m_score__min__energy>  (25) 
-9.9800000000000004

>  <m_primary>  (25) 
energy

>  <rmsd>  (25) 
6.492966445638502

>  <m_score__min__rmsd>  (25) 
6.492966445638502

>  <meeko>  (25) 
{"free_energy": -8.56, "intermolecular_energy": -10.35, "internal_energy": -1.83, "cluster_size": 13, "cluster_id": 2, "rank_in_cluster": 13}

>  <energy>  (25) 
-9.17

>  <cluster_rmsd>  (25) 
0.59

>  <cluster>  (25) 
2

$$$$

     RDKit          3D

 67 72  0  0  0  0  0  0  0  0999 V2000
  141.3590   81.2630  222.2090 C   0  0  0  0  0  0  0  0  0  0  0  0
  140.9860   80.8550  223.4640 C   0  0  0  0  0  0  0  0  0  0  0  0
  140.8870   79.5140  223.7560 C   0  0  0  0  0  0  0  0  0  0  0  0
  141.1710   78.6010  222.7570 C   0  0  0  0  0  0  0  0  0  0  0  0
  141.5480   79.0280  221.4900 C   0  0  0  0  0  0  0  0  0  0  0  0
  141.6470   80.3730  221.1970 C   0  0  0  0  0  0  0  0  0  0  0  0
  141.8320   77.9600  220.4900 C   0  0  0  0  0  0  0  0  0  0  0  0
  140.6200   77.0510  220.4640 C   0  0  0  0  0  0  0  0  0  0  0  0
  140.4830   76.5080  221.8090 N   0  0  0  0  0  0  0  0  0  0  0  0
  139.7260   75.3390  221.9710 C   0  0  0  0  0  0  0  0  0  0  0  0
  138.3850   75.4060  221.9200 N   0  0  0  0  0  0  0  0  0  0  0  0
  137.5980   74.3040  222.0710 C   0  0  0  0  0  0  0  0  0  0  0  0
  136.1630   74.4090  222.0110 N   0  0  0  0  0  0  0  0  0  0  0  0
  135.5010   75.4870  222.7440 C   0  0  0  0  0  0  0  0  0  0  0  0
  135.6820   75.1990  224.2140 C   0  0  0  0  0  0  0  0  0  0  0  0
  134.3800   74.8470  224.8950 C   0  0  0  0  0  0  0  0  0  0  0  0
  134.1770   75.6170  226.1710 C   0  0  0  0  0  0  0  0  0  0  0  0
  132.9030   75.0970  226.8170 C   0  0  0  0  0  0  0  0  0  0  0  0
  133.1620   73.8000  227.2430 O   0  0  0  0  0  0  0  0  0  0  0  0
  133.3490   72.9280  226.1740 C   0  0  0  0  0  0  0  0  0  0  0  0
  134.4410   73.3850  225.2410 C   0  0  0  0  0  0  0  0  0  0  0  0
  138.2110   73.1390  222.2730 N   0  0  0  0  0  0  0  0  0  0  0  0
  139.5480   73.0140  222.3330 C   0  0  0  0  0  0  0  0  0  0  0  0
  140.2580   71.7460  222.5550 C   0  0  2  0  0  0  0  0  0  0  0  0
  139.5790   70.6210  221.8020 C   0  0  0  0  0  0  0  0  0  0  0  0
  138.4480   70.2560  222.7410 C   0  0  0  0  0  0  0  0  0  0  0  0
  139.1000   70.3830  224.0700 C   0  0  0  0  0  0  0  0  0  0  0  0
  138.8640   69.8320  225.3120 C   0  0  0  0  0  0  0  0  0  0  0  0
  139.6520   70.1300  226.4220 C   0  0  0  0  0  0  0  0  0  0  0  0
  140.7070   71.0040  226.2940 C   0  0  0  0  0  0  0  0  0  0  0  0
  140.9540   71.5600  225.0670 C   0  0  0  0  0  0  0  0  0  0  0  0
  140.1630   71.2550  223.9670 C   0  0  0  0  0  0  0  0  0  0  0  0
  140.3150   74.1310  222.1800 N   0  0  0  0  0  0  0  0  0  0  0  0
  141.0970   77.1310  222.9610 C   0  0  0  0  0  0  0  0  0  0  0  0
  141.4310   82.3410  222.0024 H   0  0  0  0  0  0  0  0  0  0  0  0
  140.7651   81.6026  224.2401 H   0  0  0  0  0  0  0  0  0  0  0  0
  140.5892   79.1764  224.7597 H   0  0  0  0  0  0  0  0  0  0  0  0
  141.9437   80.7205  220.1964 H   0  0  0  0  0  0  0  0  0  0  0  0
  141.9934   78.4044  219.4968 H   0  0  0  0  0  0  0  0  0  0  0  0
  142.7399   77.3997  220.7580 H   0  0  0  0  0  0  0  0  0  0  0  0
  139.7211   77.6235  220.1917 H   0  0  0  0  0  0  0  0  0  0  0  0
  140.7395   76.2489  219.7208 H   0  0  0  0  0  0  0  0  0  0  0  0
  135.6490   73.7070  221.4430 H   0  0  0  0  0  0  0  0  0  0  0  0
  135.9598   76.4538  222.4895 H   0  0  0  0  0  0  0  0  0  0  0  0
  134.4336   75.5401  222.4836 H   0  0  0  0  0  0  0  0  0  0  0  0
  136.3788   74.3552  224.3258 H   0  0  0  0  0  0  0  0  0  0  0  0
  136.0742   76.1103  224.6892 H   0  0  0  0  0  0  0  0  0  0  0  0
  133.5502   75.0929  224.2161 H   0  0  0  0  0  0  0  0  0  0  0  0
  135.0318   75.4598  226.8452 H   0  0  0  0  0  0  0  0  0  0  0  0
  134.0970   76.6948  225.9661 H   0  0  0  0  0  0  0  0  0  0  0  0
  132.6298   75.7287  227.6751 H   0  0  0  0  0  0  0  0  0  0  0  0
  132.0660   75.1154  226.1035 H   0  0  0  0  0  0  0  0  0  0  0  0
  133.6149   71.9367  226.5697 H   0  0  0  0  0  0  0  0  0  0  0  0
  132.4109   72.8960  225.6005 H   0  0  0  0  0  0  0  0  0  0  0  0
  135.4109   73.1832  225.7191 H   0  0  0  0  0  0  0  0  0  0  0  0
  134.3077   72.8303  224.3005 H   0  0  0  0  0  0  0  0  0  0  0  0
  141.2922   71.9623  222.2489 H   0  0  0  0  0  0  0  0  0  0  0  0
  139.1967   70.9640  220.8292 H   0  0  0  0  0  0  0  0  0  0  0  0
  140.2464   69.7803  221.5614 H   0  0  0  0  0  0  0  0  0  0  0  0
  137.6039   70.9542  222.6411 H   0  0  0  0  0  0  0  0  0  0  0  0
  138.0157   69.2625  222.5511 H   0  0  0  0  0  0  0  0  0  0  0  0
  138.0236   69.1322  225.4307 H   0  0  0  0  0  0  0  0  0  0  0  0
  139.4316   69.6687  227.3960 H   0  0  0  0  0  0  0  0  0  0  0  0
  141.3392   71.2511  227.1596 H   0  0  0  0  0  0  0  0  0  0  0  0
  141.7939   72.2607  224.9507 H   0  0  0  0  0  0  0  0  0  0  0  0
  140.4955   76.9162  223.8566 H   0  0  0  0  0  0  0  0  0  0  0  0
  142.1130   76.7305  223.0928 H   0  0  0  0  0  0  0  0  0  0  0  0
  1  2  2  0
  2  3  1  0
  3  4  2  0
  4  5  1  0
  5  6  2  0
  5  7  1  0
  7  8  1  0
  8  9  1  0
  9 10  1  0
 10 11  2  0
 11 12  1  0
 12 13  1  0
 13 14  1  0
 14 15  1  0
 15 16  1  0
 16 17  1  0
 17 18  1  0
 18 19  1  0
 19 20  1  0
 20 21  1  0
 12 22  2  0
 22 23  1  0
 23 24  1  0
 24 25  1  0
 25 26  1  0
 26 27  1  0
 27 28  2  0
 28 29  1  0
 29 30  2  0
 30 31  1  0
 31 32  2  0
 23 33  2  0
  9 34  1  0
  6  1  1  0
 33 10  1  0
 34  4  1  0
 21 16  1  0
 32 24  1  0
 32 27  1  0
  1 35  1  0
  2 36  1  0
  3 37  1  0
  6 38  1  0
  7 39  1  0
  7 40  1  0
  8 41  1  0
  8 42  1  0
 13 43  1  0
 14 44  1  0
 14 45  1  0
 15 46  1  0
 15 47  1  0
 16 48  1  0
 17 49  1  0
 17 50  1  0
 18 51  1  0
 18 52  1  0
 20 53  1  0
 20 54  1  0
 21 55  1  0
 21 56  1  0
 24 57  1  6
 25 58  1  0
 25 59  1  0
 26 60  1  0
 26 61  1  0
 28 62  1  0
 29 63  1  0
 30 64  1  0
 31 65  1  0
 34 66  1  0
 34 67  1  0
M  END
>  <smiles>  (26) 
c1ccc2c(c1)CCN(c1nc(NCCC3CCOCC3)nc(C3CCc4ccccc43)n1)C2

>  <score_type>  (26) 
oracle

>  <origin>  (26) 
autodockgpu

>  <m_score__min__energy>  (26) 
-9.9800000000000004

>  <m_primary>  (26) 
energy

>  <rmsd>  (26) 
2.1269745527538118

>  <m_score__min__rmsd>  (26) 
2.1269745527538118

>  <meeko>  (26) 
{"free_energy": -9.33, "intermolecular_energy": -11.12, "internal_energy": -1.3, "cluster_size": 7, "cluster_id": 3, "rank_in_cluster": 1}

>  <energy>  (26) 
-9.17

>  <cluster_rmsd>  (26) 
0.58

>  <cluster>  (26) 
2

$$$$

     RDKit          3D

 67 72  0  0  0  0  0  0  0  0999 V2000
  140.3330   67.5700  226.4490 C   0  0  0  0  0  0  0  0  0  0  0  0
  141.3800   68.3870  226.7910 C   0  0  0  0  0  0  0  0  0  0  0  0
  141.4240   69.6860  226.3370 C   0  0  0  0  0  0  0  0  0  0  0  0
  140.3900   70.1360  225.5350 C   0  0  0  0  0  0  0  0  0  0  0  0
  139.3360   69.2980  225.1980 C   0  0  0  0  0  0  0  0  0  0  0  0
  139.2920   67.9960  225.6520 C   0  0  0  0  0  0  0  0  0  0  0  0
  138.2760   69.8860  224.3290 C   0  0  0  0  0  0  0  0  0  0  0  0
  138.9750   70.4650  223.1160 C   0  0  0  0  0  0  0  0  0  0  0  0
  139.8920   71.4830  223.6140 N   0  0  0  0  0  0  0  0  0  0  0  0
  140.3480   72.4540  222.7120 C   0  0  0  0  0  0  0  0  0  0  0  0
  139.7230   73.6420  222.6450 N   0  0  0  0  0  0  0  0  0  0  0  0
  140.1210   74.6240  221.7890 C   0  0  0  0  0  0  0  0  0  0  0  0
  139.4310   75.8860  221.7420 N   0  0  0  0  0  0  0  0  0  0  0  0
  140.0600   77.0590  222.3460 C   0  0  0  0  0  0  0  0  0  0  0  0
  141.0740   77.5780  221.3570 C   0  0  0  0  0  0  0  0  0  0  0  0
  141.8450   78.7620  221.8900 C   0  0  0  0  0  0  0  0  0  0  0  0
  141.7440   78.8810  223.3870 C   0  0  0  0  0  0  0  0  0  0  0  0
  142.4570   80.1620  223.7890 C   0  0  0  0  0  0  0  0  0  0  0  0
  141.6910   81.2200  223.3150 O   0  0  0  0  0  0  0  0  0  0  0  0
  141.6950   81.2830  221.9250 C   0  0  0  0  0  0  0  0  0  0  0  0
  141.2360   79.9970  221.2870 C   0  0  0  0  0  0  0  0  0  0  0  0
  141.1670   74.3640  221.0060 N   0  0  0  0  0  0  0  0  0  0  0  0
  141.8290   73.1930  221.0300 C   0  0  0  0  0  0  0  0  0  0  0  0
  142.9860   72.8710  220.1810 C   0  0  2  0  0  0  0  0  0  0  0  0
  144.2520   73.4570  220.7700 C   0  0  0  0  0  0  0  0  0  0  0  0
  144.1850   74.8910  220.2880 C   0  0  0  0  0  0  0  0  0  0  0  0
  143.6470   74.7290  218.9130 C   0  0  0  0  0  0  0  0  0  0  0  0
  143.7100   75.4840  217.7620 C   0  0  0  0  0  0  0  0  0  0  0  0
  143.0980   75.0870  216.5750 C   0  0  0  0  0  0  0  0  0  0  0  0
  142.4000   73.9010  216.5310 C   0  0  0  0  0  0  0  0  0  0  0  0
  142.3270   73.1400  217.6670 C   0  0  0  0  0  0  0  0  0  0  0  0
  142.9420   73.5450  218.8440 C   0  0  0  0  0  0  0  0  0  0  0  0
  141.4120   72.2260  221.8950 N   0  0  0  0  0  0  0  0  0  0  0  0
  140.3350   71.5170  224.9910 C   0  0  0  0  0  0  0  0  0  0  0  0
  140.3235   66.5362  226.8247 H   0  0  0  0  0  0  0  0  0  0  0  0
  142.1881   68.0028  227.4308 H   0  0  0  0  0  0  0  0  0  0  0  0
  142.2597   70.3492  226.6049 H   0  0  0  0  0  0  0  0  0  0  0  0
  138.4606   67.3255  225.3889 H   0  0  0  0  0  0  0  0  0  0  0  0
  137.5644   69.1063  224.0196 H   0  0  0  0  0  0  0  0  0  0  0  0
  137.7108   70.6618  224.8663 H   0  0  0  0  0  0  0  0  0  0  0  0
  139.5320   69.6779  222.5866 H   0  0  0  0  0  0  0  0  0  0  0  0
  138.2517   70.8936  222.4067 H   0  0  0  0  0  0  0  0  0  0  0  0
  138.5030   75.9150  221.2760 H   0  0  0  0  0  0  0  0  0  0  0  0
  139.3026   77.8303  222.5496 H   0  0  0  0  0  0  0  0  0  0  0  0
  140.5419   76.7971  223.2995 H   0  0  0  0  0  0  0  0  0  0  0  0
  141.7837   76.7710  221.1225 H   0  0  0  0  0  0  0  0  0  0  0  0
  140.5290   77.9089  220.4606 H   0  0  0  0  0  0  0  0  0  0  0  0
  142.9065   78.6361  221.6302 H   0  0  0  0  0  0  0  0  0  0  0  0
  140.6877   78.9273  223.6903 H   0  0  0  0  0  0  0  0  0  0  0  0
  142.2025   78.0101  223.8782 H   0  0  0  0  0  0  0  0  0  0  0  0
  142.5427   80.2187  224.8842 H   0  0  0  0  0  0  0  0  0  0  0  0
  143.4729   80.1940  223.3685 H   0  0  0  0  0  0  0  0  0  0  0  0
  141.0233   82.0939  221.6068 H   0  0  0  0  0  0  0  0  0  0  0  0
  142.7306   81.4650  221.6019 H   0  0  0  0  0  0  0  0  0  0  0  0
  140.1431   79.9300  221.3920 H   0  0  0  0  0  0  0  0  0  0  0  0
  141.5602   80.0304  220.2364 H   0  0  0  0  0  0  0  0  0  0  0  0
  142.9652   71.7739  220.1045 H   0  0  0  0  0  0  0  0  0  0  0  0
  144.2445   73.4033  221.8687 H   0  0  0  0  0  0  0  0  0  0  0  0
  145.1687   72.9288  220.4688 H   0  0  0  0  0  0  0  0  0  0  0  0
  143.5087   75.4919  220.9137 H   0  0  0  0  0  0  0  0  0  0  0  0
  145.1496   75.4181  220.3279 H   0  0  0  0  0  0  0  0  0  0  0  0
  144.2635   76.4344  217.7810 H   0  0  0  0  0  0  0  0  0  0  0  0
  143.1721   75.7181  215.6771 H   0  0  0  0  0  0  0  0  0  0  0  0
  141.9110   73.5716  215.6023 H   0  0  0  0  0  0  0  0  0  0  0  0
  141.7712   72.1909  217.6467 H   0  0  0  0  0  0  0  0  0  0  0  0
  141.3362   71.9698  225.0416 H   0  0  0  0  0  0  0  0  0  0  0  0
  139.6282   72.1142  225.5857 H   0  0  0  0  0  0  0  0  0  0  0  0
  1  2  2  0
  2  3  1  0
  3  4  2  0
  4  5  1  0
  5  6  2  0
  5  7  1  0
  7  8  1  0
  8  9  1  0
  9 10  1  0
 10 11  2  0
 11 12  1  0
 12 13  1  0
 13 14  1  0
 14 15  1  0
 15 16  1  0
 16 17  1  0
 17 18  1  0
 18 19  1  0
 19 20  1  0
 20 21  1  0
 12 22  2  0
 22 23  1  0
 23 24  1  0
 24 25  1  0
 25 26  1  0
 26 27  1  0
 27 28  2  0
 28 29  1  0
 29 30  2  0
 30 31  1  0
 31 32  2  0
 23 33  2  0
  9 34  1  0
  6  1  1  0
 33 10  1  0
 34  4  1  0
 21 16  1  0
 32 24  1  0
 32 27  1  0
  1 35  1  0
  2 36  1  0
  3 37  1  0
  6 38  1  0
  7 39  1  0
  7 40  1  0
  8 41  1  0
  8 42  1  0
 13 43  1  0
 14 44  1  0
 14 45  1  0
 15 46  1  0
 15 47  1  0
 16 48  1  0
 17 49  1  0
 17 50  1  0
 18 51  1  0
 18 52  1  0
 20 53  1  0
 20 54  1  0
 21 55  1  0
 21 56  1  0
 24 57  1  6
 25 58  1  0
 25 59  1  0
 26 60  1  0
 26 61  1  0
 28 62  1  0
 29 63  1  0
 30 64  1  0
 31 65  1  0
 34 66  1  0
 34 67  1  0
M  END
>  <smiles>  (27) 
c1ccc2c(c1)CCN(c1nc(NCCC3CCOCC3)nc(C3CCc4ccccc43)n1)C2

>  <score_type>  (27) 
oracle

>  <origin>  (27) 
autodockgpu

>  <m_score__min__energy>  (27) 
-9.9800000000000004

>  <m_primary>  (27) 
energy

>  <rmsd>  (27) 
9.278666675025416

>  <m_score__min__rmsd>  (27) 
9.278666675025416

>  <meeko>  (27) 
{"free_energy": -9.13, "intermolecular_energy": -10.92, "internal_energy": -1.45, "cluster_size": 3, "cluster_id": 6, "rank_in_cluster": 1}

>  <energy>  (27) 
-9.14

>  <cluster_rmsd>  (27) 
0.45

>  <cluster>  (27) 
2

$$$$

     RDKit          3D

 67 72  0  0  0  0  0  0  0  0999 V2000
  141.4610   81.4040  222.3000 C   0  0  0  0  0  0  0  0  0  0  0  0
  141.1040   80.9500  223.5440 C   0  0  0  0  0  0  0  0  0  0  0  0
  140.9810   79.6000  223.7810 C   0  0  0  0  0  0  0  0  0  0  0  0
  141.2250   78.7250  222.7380 C   0  0  0  0  0  0  0  0  0  0  0  0
  141.5870   79.1980  221.4840 C   0  0  0  0  0  0  0  0  0  0  0  0
  141.7100   80.5520  221.2460 C   0  0  0  0  0  0  0  0  0  0  0  0
  141.8270   78.1680  220.4330 C   0  0  0  0  0  0  0  0  0  0  0  0
  140.5960   77.2870  220.3930 C   0  0  0  0  0  0  0  0  0  0  0  0
  140.4720   76.6890  221.7170 N   0  0  0  0  0  0  0  0  0  0  0  0
  139.6930   75.5310  221.8450 C   0  0  0  0  0  0  0  0  0  0  0  0
  140.2970   74.3370  221.9730 N   0  0  0  0  0  0  0  0  0  0  0  0
  139.5920   73.1790  222.1010 C   0  0  0  0  0  0  0  0  0  0  0  0
  140.2690   71.9150  222.2370 N   0  0  0  0  0  0  0  0  0  0  0  0
  139.7390   70.9260  223.1740 C   0  0  0  0  0  0  0  0  0  0  0  0
  139.9160   71.4900  224.5620 C   0  0  0  0  0  0  0  0  0  0  0  0
  140.5290   70.4910  225.5150 C   0  0  0  0  0  0  0  0  0  0  0  0
  139.6320   69.3070  225.7560 C   0  0  0  0  0  0  0  0  0  0  0  0
  140.3010   68.4380  226.8080 C   0  0  0  0  0  0  0  0  0  0  0  0
  140.2570   69.1430  228.0060 O   0  0  0  0  0  0  0  0  0  0  0  0
  141.0680   70.2740  227.9730 C   0  0  0  0  0  0  0  0  0  0  0  0
  140.7290   71.1940  226.8280 C   0  0  0  0  0  0  0  0  0  0  0  0
  138.2640   73.2690  222.0950 N   0  0  0  0  0  0  0  0  0  0  0  0
  137.6080   74.4350  221.9690 C   0  0  0  0  0  0  0  0  0  0  0  0
  136.1430   74.5720  221.9570 C   0  0  2  0  0  0  0  0  0  0  0  0
  135.7510   76.0290  221.8230 C   0  0  0  0  0  0  0  0  0  0  0  0
  135.8730   76.5170  223.2520 C   0  0  0  0  0  0  0  0  0  0  0  0
  135.3500   75.3560  224.0180 C   0  0  0  0  0  0  0  0  0  0  0  0
  134.7740   75.2080  225.2620 C   0  0  0  0  0  0  0  0  0  0  0  0
  134.3620   73.9700  225.7500 C   0  0  0  0  0  0  0  0  0  0  0  0
  134.5280   72.8430  224.9780 C   0  0  0  0  0  0  0  0  0  0  0  0
  135.0990   72.9740  223.7410 C   0  0  0  0  0  0  0  0  0  0  0  0
  135.5060   74.2130  223.2630 C   0  0  0  0  0  0  0  0  0  0  0  0
  138.3340   75.5820  221.8420 N   0  0  0  0  0  0  0  0  0  0  0  0
  141.1220   77.2500  222.8810 C   0  0  0  0  0  0  0  0  0  0  0  0
  141.5519   82.4882  222.1377 H   0  0  0  0  0  0  0  0  0  0  0  0
  140.9152   81.6680  224.3557 H   0  0  0  0  0  0  0  0  0  0  0  0
  140.6957   79.2260  224.7754 H   0  0  0  0  0  0  0  0  0  0  0  0
  141.9952   80.9354  220.2552 H   0  0  0  0  0  0  0  0  0  0  0  0
  141.9782   78.6516  219.4566 H   0  0  0  0  0  0  0  0  0  0  0  0
  142.7273   77.5774  220.6581 H   0  0  0  0  0  0  0  0  0  0  0  0
  139.7048   77.8894  220.1631 H   0  0  0  0  0  0  0  0  0  0  0  0
  140.6843   76.5150  219.6144 H   0  0  0  0  0  0  0  0  0  0  0  0
  141.1160   71.7540  221.6590 H   0  0  0  0  0  0  0  0  0  0  0  0
  138.6723   70.7486  222.9720 H   0  0  0  0  0  0  0  0  0  0  0  0
  140.2674   69.9668  223.0710 H   0  0  0  0  0  0  0  0  0  0  0  0
  140.5714   72.3715  224.5043 H   0  0  0  0  0  0  0  0  0  0  0  0
  138.9197   71.7534  224.9469 H   0  0  0  0  0  0  0  0  0  0  0  0
  141.4686   70.1207  225.0791 H   0  0  0  0  0  0  0  0  0  0  0  0
  138.6501   69.6464  226.1174 H   0  0  0  0  0  0  0  0  0  0  0  0
  139.4767   68.7411  224.8256 H   0  0  0  0  0  0  0  0  0  0  0  0
  139.7607   67.4853  226.9103 H   0  0  0  0  0  0  0  0  0  0  0  0
  141.3391   68.2088  226.5254 H   0  0  0  0  0  0  0  0  0  0  0  0
  140.9437   70.8249  228.9169 H   0  0  0  0  0  0  0  0  0  0  0  0
  142.1060   69.9371  227.8351 H   0  0  0  0  0  0  0  0  0  0  0  0
  139.8012   71.7295  227.0781 H   0  0  0  0  0  0  0  0  0  0  0  0
  141.5875   71.8694  226.6988 H   0  0  0  0  0  0  0  0  0  0  0  0
  135.8195   73.9183  221.1336 H   0  0  0  0  0  0  0  0  0  0  0  0
  136.4389   76.5688  221.1556 H   0  0  0  0  0  0  0  0  0  0  0  0
  134.7543   76.1830  221.3839 H   0  0  0  0  0  0  0  0  0  0  0  0
  136.9198   76.7303  223.5139 H   0  0  0  0  0  0  0  0  0  0  0  0
  135.3364   77.4570  223.4480 H   0  0  0  0  0  0  0  0  0  0  0  0
  134.6349   76.0993  225.8915 H   0  0  0  0  0  0  0  0  0  0  0  0
  133.9060   73.8936  226.7481 H   0  0  0  0  0  0  0  0  0  0  0  0
  134.2084   71.8574  225.3473 H   0  0  0  0  0  0  0  0  0  0  0  0
  135.2382   72.0813  223.1136 H   0  0  0  0  0  0  0  0  0  0  0  0
  140.5334   77.0104  223.7789 H   0  0  0  0  0  0  0  0  0  0  0  0
  142.1314   76.8228  222.9745 H   0  0  0  0  0  0  0  0  0  0  0  0
  1  2  2  0
  2  3  1  0
  3  4  2  0
  4  5  1  0
  5  6  2  0
  5  7  1  0
  7  8  1  0
  8  9  1  0
  9 10  1  0
 10 11  2  0
 11 12  1  0
 12 13  1  0
 13 14  1  0
 14 15  1  0
 15 16  1  0
 16 17  1  0
 17 18  1  0
 18 19  1  0
 19 20  1  0
 20 21  1  0
 12 22  2  0
 22 23  1  0
 23 24  1  0
 24 25  1  0
 25 26  1  0
 26 27  1  0
 27 28  2  0
 28 29  1  0
 29 30  2  0
 30 31  1  0
 31 32  2  0
 23 33  2  0
  9 34  1  0
  6  1  1  0
 33 10  1  0
 34  4  1  0
 21 16  1  0
 32 24  1  0
 32 27  1  0
  1 35  1  0
  2 36  1  0
  3 37  1  0
  6 38  1  0
  7 39  1  0
  7 40  1  0
  8 41  1  0
  8 42  1  0
 13 43  1  0
 14 44  1  0
 14 45  1  0
 15 46  1  0
 15 47  1  0
 16 48  1  0
 17 49  1  0
 17 50  1  0
 18 51  1  0
 18 52  1  0
 20 53  1  0
 20 54  1  0
 21 55  1  0
 21 56  1  0
 24 57  1  6
 25 58  1  0
 25 59  1  0
 26 60  1  0
 26 61  1  0
 28 62  1  0
 29 63  1  0
 30 64  1  0
 31 65  1  0
 34 66  1  0
 34 67  1  0
M  END
>  <smiles>  (28) 
c1ccc2c(c1)CCN(c1nc(NCCC3CCOCC3)nc(C3CCc4ccccc43)n1)C2

>  <score_type>  (28) 
oracle

>  <origin>  (28) 
autodockgpu

>  <m_score__min__energy>  (28) 
-9.9800000000000004

>  <m_primary>  (28) 
energy

>  <rmsd>  (28) 
7.155119990690559

>  <m_score__min__rmsd>  (28) 
7.155119990690559

>  <meeko>  (28) 
{"free_energy": -9.17, "intermolecular_energy": -10.96, "internal_energy": -1.36, "cluster_size": 13, "cluster_id": 2, "rank_in_cluster": 7}

>  <energy>  (28) 
-9.06

>  <cluster_rmsd>  (28) 
0.74

>  <cluster>  (28) 
2

$$$$

     RDKit          3D

 67 72  0  0  0  0  0  0  0  0999 V2000
  141.3040   81.2820  222.2430 C   0  0  0  0  0  0  0  0  0  0  0  0
  140.9230   80.8580  223.4910 C   0  0  0  0  0  0  0  0  0  0  0  0
  140.8350   79.5130  223.7700 C   0  0  0  0  0  0  0  0  0  0  0  0
  141.1400   78.6130  222.7650 C   0  0  0  0  0  0  0  0  0  0  0  0
  141.5260   79.0560  221.5060 C   0  0  0  0  0  0  0  0  0  0  0  0
  141.6130   80.4040  221.2260 C   0  0  0  0  0  0  0  0  0  0  0  0
  141.8310   78.0000  220.4990 C   0  0  0  0  0  0  0  0  0  0  0  0
  140.6300   77.0780  220.4520 C   0  0  0  0  0  0  0  0  0  0  0  0
  140.4850   76.5210  221.7910 N   0  0  0  0  0  0  0  0  0  0  0  0
  139.7390   75.3430  221.9340 C   0  0  0  0  0  0  0  0  0  0  0  0
  138.3990   75.3900  221.8360 N   0  0  0  0  0  0  0  0  0  0  0  0
  137.6230   74.2780  221.9660 C   0  0  0  0  0  0  0  0  0  0  0  0
  136.1900   74.3620  221.8550 N   0  0  0  0  0  0  0  0  0  0  0  0
  135.5050   75.5300  222.4070 C   0  0  0  0  0  0  0  0  0  0  0  0
  135.6900   75.4860  223.9040 C   0  0  0  0  0  0  0  0  0  0  0  0
  134.4700   74.9510  224.6180 C   0  0  0  0  0  0  0  0  0  0  0  0
  134.2790   75.5820  225.9710 C   0  0  0  0  0  0  0  0  0  0  0  0
  133.1000   74.8870  226.6320 C   0  0  0  0  0  0  0  0  0  0  0  0
  133.5020   73.5880  226.9210 O   0  0  0  0  0  0  0  0  0  0  0  0
  133.7000   72.8370  225.7660 C   0  0  0  0  0  0  0  0  0  0  0  0
  134.6860   73.4770  224.8230 C   0  0  0  0  0  0  0  0  0  0  0  0
  138.2450   73.1240  222.1970 N   0  0  0  0  0  0  0  0  0  0  0  0
  139.5810   73.0180  222.3050 C   0  0  0  0  0  0  0  0  0  0  0  0
  140.3000   71.7610  222.5610 C   0  0  2  0  0  0  0  0  0  0  0  0
  139.6500   70.6180  221.8090 C   0  0  0  0  0  0  0  0  0  0  0  0
  138.5030   70.2530  222.7290 C   0  0  0  0  0  0  0  0  0  0  0  0
  139.1250   70.4060  224.0700 C   0  0  0  0  0  0  0  0  0  0  0  0
  138.8680   69.8690  225.3140 C   0  0  0  0  0  0  0  0  0  0  0  0
  139.6280   70.1930  226.4360 C   0  0  0  0  0  0  0  0  0  0  0  0
  140.6760   71.0770  226.3190 C   0  0  0  0  0  0  0  0  0  0  0  0
  140.9430   71.6190  225.0900 C   0  0  0  0  0  0  0  0  0  0  0  0
  140.1800   71.2890  223.9770 C   0  0  0  0  0  0  0  0  0  0  0  0
  140.3370   74.1440  222.1720 N   0  0  0  0  0  0  0  0  0  0  0  0
  141.0800   77.1400  222.9550 C   0  0  0  0  0  0  0  0  0  0  0  0
  141.3652   82.3626  222.0466 H   0  0  0  0  0  0  0  0  0  0  0  0
  140.6869   81.5960  224.2718 H   0  0  0  0  0  0  0  0  0  0  0  0
  140.5298   79.1627  224.7671 H   0  0  0  0  0  0  0  0  0  0  0  0
  141.9166   80.7637  220.2318 H   0  0  0  0  0  0  0  0  0  0  0  0
  141.9973   78.4554  219.5116 H   0  0  0  0  0  0  0  0  0  0  0  0
  142.7420   77.4469  220.7715 H   0  0  0  0  0  0  0  0  0  0  0  0
  139.7276   77.6429  220.1753 H   0  0  0  0  0  0  0  0  0  0  0  0
  140.7663   76.2841  219.7029 H   0  0  0  0  0  0  0  0  0  0  0  0
  135.6930   73.5820  221.3830 H   0  0  0  0  0  0  0  0  0  0  0  0
  135.9441   76.4526  221.9994 H   0  0  0  0  0  0  0  0  0  0  0  0
  134.4370   75.5184  222.1438 H   0  0  0  0  0  0  0  0  0  0  0  0
  136.5479   74.8375  224.1354 H   0  0  0  0  0  0  0  0  0  0  0  0
  135.8588   76.5157  224.2523 H   0  0  0  0  0  0  0  0  0  0  0  0
  133.5807   75.1744  224.0104 H   0  0  0  0  0  0  0  0  0  0  0  0
  135.1850   75.4476  226.5802 H   0  0  0  0  0  0  0  0  0  0  0  0
  134.0901   76.6613  225.8739 H   0  0  0  0  0  0  0  0  0  0  0  0
  132.8236   75.4116  227.5585 H   0  0  0  0  0  0  0  0  0  0  0  0
  132.2226   74.8873  225.9685 H   0  0  0  0  0  0  0  0  0  0  0  0
  134.0782   71.8443  226.0513 H   0  0  0  0  0  0  0  0  0  0  0  0
  132.7347   72.7673  225.2432 H   0  0  0  0  0  0  0  0  0  0  0  0
  135.6979   73.3290  225.2282 H   0  0  0  0  0  0  0  0  0  0  0  0
  134.5467   72.9963  223.8435 H   0  0  0  0  0  0  0  0  0  0  0  0
  141.3383   71.9847  222.2749 H   0  0  0  0  0  0  0  0  0  0  0  0
  139.2849   70.9433  220.8237 H   0  0  0  0  0  0  0  0  0  0  0  0
  140.3317   69.7818  221.5942 H   0  0  0  0  0  0  0  0  0  0  0  0
  137.6535   70.9400  222.6013 H   0  0  0  0  0  0  0  0  0  0  0  0
  138.0861   69.2520  222.5440 H   0  0  0  0  0  0  0  0  0  0  0  0
  138.0340   69.1603  225.4243 H   0  0  0  0  0  0  0  0  0  0  0  0
  139.3911   69.7437  227.4117 H   0  0  0  0  0  0  0  0  0  0  0  0
  141.2866   71.3428  227.1945 H   0  0  0  0  0  0  0  0  0  0  0  0
  141.7767   72.3285  224.9822 H   0  0  0  0  0  0  0  0  0  0  0  0
  140.4715   76.9105  223.8422 H   0  0  0  0  0  0  0  0  0  0  0  0
  142.0989   76.7493  223.0940 H   0  0  0  0  0  0  0  0  0  0  0  0
  1  2  2  0
  2  3  1  0
  3  4  2  0
  4  5  1  0
  5  6  2  0
  5  7  1  0
  7  8  1  0
  8  9  1  0
  9 10  1  0
 10 11  2  0
 11 12  1  0
 12 13  1  0
 13 14  1  0
 14 15  1  0
 15 16  1  0
 16 17  1  0
 17 18  1  0
 18 19  1  0
 19 20  1  0
 20 21  1  0
 12 22  2  0
 22 23  1  0
 23 24  1  0
 24 25  1  0
 25 26  1  0
 26 27  1  0
 27 28  2  0
 28 29  1  0
 29 30  2  0
 30 31  1  0
 31 32  2  0
 23 33  2  0
  9 34  1  0
  6  1  1  0
 33 10  1  0
 34  4  1  0
 21 16  1  0
 32 24  1  0
 32 27  1  0
  1 35  1  0
  2 36  1  0
  3 37  1  0
  6 38  1  0
  7 39  1  0
  7 40  1  0
  8 41  1  0
  8 42  1  0
 13 43  1  0
 14 44  1  0
 14 45  1  0
 15 46  1  0
 15 47  1  0
 16 48  1  0
 17 49  1  0
 17 50  1  0
 18 51  1  0
 18 52  1  0
 20 53  1  0
 20 54  1  0
 21 55  1  0
 21 56  1  0
 24 57  1  6
 25 58  1  0
 25 59  1  0
 26 60  1  0
 26 61  1  0
 28 62  1  0
 29 63  1  0
 30 64  1  0
 31 65  1  0
 34 66  1  0
 34 67  1  0
M  END
>  <smiles>  (29) 
c1ccc2c(c1)CCN(c1nc(NCCC3CCOCC3)nc(C3CCc4ccccc43)n1)C2

>  <score_type>  (29) 
oracle

>  <origin>  (29) 
autodockgpu

>  <m_score__min__energy>  (29) 
-9.9800000000000004

>  <m_primary>  (29) 
energy

>  <rmsd>  (29) 
2.1272719751323517

>  <m_score__min__rmsd>  (29) 
2.1272719751323517

>  <meeko>  (29) 
{"free_energy": -9.23, "intermolecular_energy": -11.02, "internal_energy": -1.37, "cluster_size": 7, "cluster_id": 3, "rank_in_cluster": 2}

>  <energy>  (29) 
-9.06

>  <cluster_rmsd>  (29) 
0.45

>  <cluster>  (29) 
2

$$$$

     RDKit          3D

 67 72  0  0  0  0  0  0  0  0999 V2000
  140.1240   67.5280  226.3870 C   0  0  0  0  0  0  0  0  0  0  0  0
  141.3030   68.2010  226.5820 C   0  0  0  0  0  0  0  0  0  0  0  0
  141.4570   69.4820  226.1030 C   0  0  0  0  0  0  0  0  0  0  0  0
  140.3990   70.0630  225.4270 C   0  0  0  0  0  0  0  0  0  0  0  0
  139.2110   69.3700  225.2380 C   0  0  0  0  0  0  0  0  0  0  0  0
  139.0560   68.0850  225.7170 C   0  0  0  0  0  0  0  0  0  0  0  0
  138.1370   70.0910  224.4970 C   0  0  0  0  0  0  0  0  0  0  0  0
  138.7480   70.5700  223.1960 C   0  0  0  0  0  0  0  0  0  0  0  0
  139.8440   71.4600  223.5580 N   0  0  0  0  0  0  0  0  0  0  0  0
  140.3060   72.3620  222.5890 C   0  0  0  0  0  0  0  0  0  0  0  0
  139.6040   73.4810  222.3370 N   0  0  0  0  0  0  0  0  0  0  0  0
  140.0040   74.3920  221.4070 C   0  0  0  0  0  0  0  0  0  0  0  0
  139.2310   75.5810  221.1610 N   0  0  0  0  0  0  0  0  0  0  0  0
  139.9250   76.8580  221.0070 C   0  0  0  0  0  0  0  0  0  0  0  0
  140.5940   77.1610  222.3260 C   0  0  0  0  0  0  0  0  0  0  0  0
  140.9330   78.6250  222.4760 C   0  0  0  0  0  0  0  0  0  0  0  0
  141.7340   79.1470  221.3130 C   0  0  0  0  0  0  0  0  0  0  0  0
  142.1090   80.5850  221.6300 C   0  0  0  0  0  0  0  0  0  0  0  0
  143.0220   80.5470  222.6780 O   0  0  0  0  0  0  0  0  0  0  0  0
  142.4360   80.1080  223.8620 C   0  0  0  0  0  0  0  0  0  0  0  0
  141.7740   78.7620  223.7140 C   0  0  0  0  0  0  0  0  0  0  0  0
  141.1310   74.1360  220.7460 N   0  0  0  0  0  0  0  0  0  0  0  0
  141.8710   73.0330  220.9570 C   0  0  0  0  0  0  0  0  0  0  0  0
  143.1190   72.7170  220.2450 C   0  0  2  0  0  0  0  0  0  0  0  0
  144.2720   73.5100  220.8240 C   0  0  0  0  0  0  0  0  0  0  0  0
  144.1100   74.8470  220.1290 C   0  0  0  0  0  0  0  0  0  0  0  0
  143.7040   74.4340  218.7600 C   0  0  0  0  0  0  0  0  0  0  0  0
  143.7890   75.0200  217.5150 C   0  0  0  0  0  0  0  0  0  0  0  0
  143.3160   74.3960  216.3630 C   0  0  0  0  0  0  0  0  0  0  0  0
  142.7390   73.1490  216.4510 C   0  0  0  0  0  0  0  0  0  0  0  0
  142.6460   72.5540  217.6800 C   0  0  0  0  0  0  0  0  0  0  0  0
  143.1220   73.1850  218.8230 C   0  0  0  0  0  0  0  0  0  0  0  0
  141.4510   72.1340  221.8920 N   0  0  0  0  0  0  0  0  0  0  0  0
  140.4560   71.4390  224.8690 C   0  0  0  0  0  0  0  0  0  0  0  0
  140.0271   66.5052  226.7801 H   0  0  0  0  0  0  0  0  0  0  0  0
  142.1284   67.7152  227.1231 H   0  0  0  0  0  0  0  0  0  0  0  0
  142.3984   70.0305  226.2540 H   0  0  0  0  0  0  0  0  0  0  0  0
  138.1187   67.5283  225.5701 H   0  0  0  0  0  0  0  0  0  0  0  0
  137.2962   69.4117  224.2929 H   0  0  0  0  0  0  0  0  0  0  0  0
  137.7502   70.9358  225.0858 H   0  0  0  0  0  0  0  0  0  0  0  0
  139.1276   69.7153  222.6168 H   0  0  0  0  0  0  0  0  0  0  0  0
  138.0036   71.0876  222.5731 H   0  0  0  0  0  0  0  0  0  0  0  0
  138.1990   75.4850  221.1010 H   0  0  0  0  0  0  0  0  0  0  0  0
  140.6791   76.7840  220.2096 H   0  0  0  0  0  0  0  0  0  0  0  0
  139.2198   77.6565  220.7329 H   0  0  0  0  0  0  0  0  0  0  0  0
  139.9155   76.8701  223.1414 H   0  0  0  0  0  0  0  0  0  0  0  0
  141.5353   76.5930  222.3633 H   0  0  0  0  0  0  0  0  0  0  0  0
  139.9962   79.1992  222.5279 H   0  0  0  0  0  0  0  0  0  0  0  0
  142.6429   78.5417  221.1803 H   0  0  0  0  0  0  0  0  0  0  0  0
  141.1492   79.0936  220.3829 H   0  0  0  0  0  0  0  0  0  0  0  0
  142.5655   81.0591  220.7486 H   0  0  0  0  0  0  0  0  0  0  0  0
  141.2195   81.1702  221.9062 H   0  0  0  0  0  0  0  0  0  0  0  0
  143.2150   80.0349  224.6352 H   0  0  0  0  0  0  0  0  0  0  0  0
  141.6579   80.8345  224.1392 H   0  0  0  0  0  0  0  0  0  0  0  0
  142.5591   77.9921  223.6853 H   0  0  0  0  0  0  0  0  0  0  0  0
  141.0963   78.6456  224.5726 H   0  0  0  0  0  0  0  0  0  0  0  0
  143.2074   71.6240  220.3319 H   0  0  0  0  0  0  0  0  0  0  0  0
  144.1795   73.6123  221.9153 H   0  0  0  0  0  0  0  0  0  0  0  0
  145.2559   73.0435  220.6678 H   0  0  0  0  0  0  0  0  0  0  0  0
  143.3311   75.4564  220.6105 H   0  0  0  0  0  0  0  0  0  0  0  0
  145.0138   75.4735  220.1545 H   0  0  0  0  0  0  0  0  0  0  0  0
  144.2469   76.0164  217.4282 H   0  0  0  0  0  0  0  0  0  0  0  0
  143.4030   74.8971  215.3876 H   0  0  0  0  0  0  0  0  0  0  0  0
  142.3604   72.6412  215.5517 H   0  0  0  0  0  0  0  0  0  0  0  0
  142.1862   71.5583  217.7646 H   0  0  0  0  0  0  0  0  0  0  0  0
  141.5058   71.7572  224.7875 H   0  0  0  0  0  0  0  0  0  0  0  0
  139.9125   72.1249  225.5355 H   0  0  0  0  0  0  0  0  0  0  0  0
  1  2  2  0
  2  3  1  0
  3  4  2  0
  4  5  1  0
  5  6  2  0
  5  7  1  0
  7  8  1  0
  8  9  1  0
  9 10  1  0
 10 11  2  0
 11 12  1  0
 12 13  1  0
 13 14  1  0
 14 15  1  0
 15 16  1  0
 16 17  1  0
 17 18  1  0
 18 19  1  0
 19 20  1  0
 20 21  1  0
 12 22  2  0
 22 23  1  0
 23 24  1  0
 24 25  1  0
 25 26  1  0
 26 27  1  0
 27 28  2  0
 28 29  1  0
 29 30  2  0
 30 31  1  0
 31 32  2  0
 23 33  2  0
  9 34  1  0
  6  1  1  0
 33 10  1  0
 34  4  1  0
 21 16  1  0
 32 24  1  0
 32 27  1  0
  1 35  1  0
  2 36  1  0
  3 37  1  0
  6 38  1  0
  7 39  1  0
  7 40  1  0
  8 41  1  0
  8 42  1  0
 13 43  1  0
 14 44  1  0
 14 45  1  0
 15 46  1  0
 15 47  1  0
 16 48  1  0
 17 49  1  0
 17 50  1  0
 18 51  1  0
 18 52  1  0
 20 53  1  0
 20 54  1  0
 21 55  1  0
 21 56  1  0
 24 57  1  6
 25 58  1  0
 25 59  1  0
 26 60  1  0
 26 61  1  0
 28 62  1  0
 29 63  1  0
 30 64  1  0
 31 65  1  0
 34 66  1  0
 34 67  1  0
M  END
>  <smiles>  (30) 
c1ccc2c(c1)CCN(c1nc(NCCC3CCOCC3)nc(C3CCc4ccccc43)n1)C2

>  <score_type>  (30) 
oracle

>  <origin>  (30) 
autodockgpu

>  <m_score__min__energy>  (30) 
-9.9800000000000004

>  <m_primary>  (30) 
energy

>  <rmsd>  (30) 
9.245338039858883

>  <m_score__min__rmsd>  (30) 
9.245338039858883

>  <meeko>  (30) 
{"free_energy": -9.06, "intermolecular_energy": -10.85, "internal_energy": -1.41, "cluster_size": 3, "cluster_id": 6, "rank_in_cluster": 3}

>  <energy>  (30) 
-9.03

>  <cluster_rmsd>  (30) 
0.58

>  <cluster>  (30) 
2

$$$$

     RDKit          3D

 67 72  0  0  0  0  0  0  0  0999 V2000
  141.7640   81.2690  224.1500 C   0  0  0  0  0  0  0  0  0  0  0  0
  142.9290   80.8010  223.5970 C   0  0  0  0  0  0  0  0  0  0  0  0
  142.8990   79.7730  222.6820 C   0  0  0  0  0  0  0  0  0  0  0  0
  141.6720   79.2340  222.3410 C   0  0  0  0  0  0  0  0  0  0  0  0
  140.5000   79.7180  222.9070 C   0  0  0  0  0  0  0  0  0  0  0  0
  140.5310   80.7480  223.8250 C   0  0  0  0  0  0  0  0  0  0  0  0
  139.2350   79.0640  222.4670 C   0  0  0  0  0  0  0  0  0  0  0  0
  139.4150   77.5750  222.6780 C   0  0  0  0  0  0  0  0  0  0  0  0
  140.5450   77.1740  221.8500 N   0  0  0  0  0  0  0  0  0  0  0  0
  140.6710   75.8170  221.5230 C   0  0  0  0  0  0  0  0  0  0  0  0
  140.0620   74.8920  222.2860 N   0  0  0  0  0  0  0  0  0  0  0  0
  140.1490   73.5590  222.0170 C   0  0  0  0  0  0  0  0  0  0  0  0
  139.4850   72.5940  222.8540 N   0  0  0  0  0  0  0  0  0  0  0  0
  140.1150   71.2920  223.0700 C   0  0  0  0  0  0  0  0  0  0  0  0
  139.4190   70.6530  224.2460 C   0  0  0  0  0  0  0  0  0  0  0  0
  140.3330   70.4980  225.4390 C   0  0  0  0  0  0  0  0  0  0  0  0
  139.6670   69.7740  226.5780 C   0  0  0  0  0  0  0  0  0  0  0  0
  140.6360   69.7820  227.7490 C   0  0  0  0  0  0  0  0  0  0  0  0
  140.7280   71.0950  228.1930 O   0  0  0  0  0  0  0  0  0  0  0  0
  141.3570   71.9160  227.2610 C   0  0  0  0  0  0  0  0  0  0  0  0
  140.6830   71.8810  225.9130 C   0  0  0  0  0  0  0  0  0  0  0  0
  140.8680   73.1960  220.9570 N   0  0  0  0  0  0  0  0  0  0  0  0
  141.4980   74.0770  220.1600 C   0  0  0  0  0  0  0  0  0  0  0  0
  142.3000   73.7120  218.9830 C   0  0  2  0  0  0  0  0  0  0  0  0
  141.7100   72.4970  218.2990 C   0  0  0  0  0  0  0  0  0  0  0  0
  142.2670   71.3660  219.1390 C   0  0  0  0  0  0  0  0  0  0  0  0
  143.6450   71.8430  219.4230 C   0  0  0  0  0  0  0  0  0  0  0  0
  144.8320   71.2170  219.7400 C   0  0  0  0  0  0  0  0  0  0  0  0
  146.0120   71.9250  219.9610 C   0  0  0  0  0  0  0  0  0  0  0  0
  146.0120   73.2980  219.8650 C   0  0  0  0  0  0  0  0  0  0  0  0
  144.8410   73.9340  219.5520 C   0  0  0  0  0  0  0  0  0  0  0  0
  143.6700   73.2190  219.3320 C   0  0  0  0  0  0  0  0  0  0  0  0
  141.3970   75.4060  220.4490 N   0  0  0  0  0  0  0  0  0  0  0  0
  141.5230   78.1230  221.3650 C   0  0  0  0  0  0  0  0  0  0  0  0
  141.8165   82.0904  224.8797 H   0  0  0  0  0  0  0  0  0  0  0  0
  143.8911   81.2491  223.8860 H   0  0  0  0  0  0  0  0  0  0  0  0
  143.8275   79.3900  222.2335 H   0  0  0  0  0  0  0  0  0  0  0  0
  139.6079   81.1374  224.2791 H   0  0  0  0  0  0  0  0  0  0  0  0
  138.3899   79.4320  223.0673 H   0  0  0  0  0  0  0  0  0  0  0  0
  139.0205   79.2898  221.4120 H   0  0  0  0  0  0  0  0  0  0  0  0
  139.6257   77.3638  223.7368 H   0  0  0  0  0  0  0  0  0  0  0  0
  138.5047   77.0213  222.4044 H   0  0  0  0  0  0  0  0  0  0  0  0
  138.5750   72.8620  223.2760 H   0  0  0  0  0  0  0  0  0  0  0  0
  139.9984   70.6631  222.1751 H   0  0  0  0  0  0  0  0  0  0  0  0
  141.1915   71.4052  223.2660 H   0  0  0  0  0  0  0  0  0  0  0  0
  138.5638   71.2816  224.5350 H   0  0  0  0  0  0  0  0  0  0  0  0
  139.0937   69.6481  223.9388 H   0  0  0  0  0  0  0  0  0  0  0  0
  141.2131   69.9130  225.1338 H   0  0  0  0  0  0  0  0  0  0  0  0
  138.7355   70.2881  226.8571 H   0  0  0  0  0  0  0  0  0  0  0  0
  139.4149   68.7430  226.2890 H   0  0  0  0  0  0  0  0  0  0  0  0
  140.2586   69.1363  228.5556 H   0  0  0  0  0  0  0  0  0  0  0  0
  141.6220   69.4013  227.4443 H   0  0  0  0  0  0  0  0  0  0  0  0
  141.3431   72.9501  227.6356 H   0  0  0  0  0  0  0  0  0  0  0  0
  142.3850   71.5470  227.1304 H   0  0  0  0  0  0  0  0  0  0  0  0
  139.7562   72.4702  225.9745 H   0  0  0  0  0  0  0  0  0  0  0  0
  141.4004   72.2933  225.1882 H   0  0  0  0  0  0  0  0  0  0  0  0
  142.3210   74.6305  218.3781 H   0  0  0  0  0  0  0  0  0  0  0  0
  140.6106   72.5147  218.3298 H   0  0  0  0  0  0  0  0  0  0  0  0
  141.9601   72.4226  217.2304 H   0  0  0  0  0  0  0  0  0  0  0  0
  141.6901   71.2351  220.0664 H   0  0  0  0  0  0  0  0  0  0  0  0
  142.2303   70.3849  218.6429 H   0  0  0  0  0  0  0  0  0  0  0  0
  144.8482   70.1201  219.8213 H   0  0  0  0  0  0  0  0  0  0  0  0
  146.9393   71.3888  220.2111 H   0  0  0  0  0  0  0  0  0  0  0  0
  146.9342   73.8725  220.0363 H   0  0  0  0  0  0  0  0  0  0  0  0
  144.8267   75.0311  219.4732 H   0  0  0  0  0  0  0  0  0  0  0  0
  142.4912   77.6168  221.2370 H   0  0  0  0  0  0  0  0  0  0  0  0
  141.1875   78.5296  220.3996 H   0  0  0  0  0  0  0  0  0  0  0  0
  1  2  2  0
  2  3  1  0
  3  4  2  0
  4  5  1  0
  5  6  2  0
  5  7  1  0
  7  8  1  0
  8  9  1  0
  9 10  1  0
 10 11  2  0
 11 12  1  0
 12 13  1  0
 13 14  1  0
 14 15  1  0
 15 16  1  0
 16 17  1  0
 17 18  1  0
 18 19  1  0
 19 20  1  0
 20 21  1  0
 12 22  2  0
 22 23  1  0
 23 24  1  0
 24 25  1  0
 25 26  1  0
 26 27  1  0
 27 28  2  0
 28 29  1  0
 29 30  2  0
 30 31  1  0
 31 32  2  0
 23 33  2  0
  9 34  1  0
  6  1  1  0
 33 10  1  0
 34  4  1  0
 21 16  1  0
 32 24  1  0
 32 27  1  0
  1 35  1  0
  2 36  1  0
  3 37  1  0
  6 38  1  0
  7 39  1  0
  7 40  1  0
  8 41  1  0
  8 42  1  0
 13 43  1  0
 14 44  1  0
 14 45  1  0
 15 46  1  0
 15 47  1  0
 16 48  1  0
 17 49  1  0
 17 50  1  0
 18 51  1  0
 18 52  1  0
 20 53  1  0
 20 54  1  0
 21 55  1  0
 21 56  1  0
 24 57  1  6
 25 58  1  0
 25 59  1  0
 26 60  1  0
 26 61  1  0
 28 62  1  0
 29 63  1  0
 30 64  1  0
 31 65  1  0
 34 66  1  0
 34 67  1  0
M  END
>  <smiles>  (31) 
c1ccc2c(c1)CCN(c1nc(NCCC3CCOCC3)nc(C3CCc4ccccc43)n1)C2

>  <score_type>  (31) 
oracle

>  <origin>  (31) 
autodockgpu

>  <m_score__min__energy>  (31) 
-9.9800000000000004

>  <m_primary>  (31) 
energy

>  <rmsd>  (31) 
7.509039819907377

>  <m_score__min__rmsd>  (31) 
7.509039819907377

>  <meeko>  (31) 
{"free_energy": -9.87, "intermolecular_energy": -11.66, "internal_energy": -1.18, "cluster_size": 19, "cluster_id": 1, "rank_in_cluster": 3}

>  <energy>  (31) 
-8.87

>  <cluster_rmsd>  (31) 
0.81

>  <cluster>  (31) 
2

$$$$

     RDKit          3D

 67 72  0  0  0  0  0  0  0  0999 V2000
  141.1650   80.4620  223.4210 C   0  0  0  0  0  0  0  0  0  0  0  0
  141.8450   79.5340  224.1680 C   0  0  0  0  0  0  0  0  0  0  0  0
  141.8290   78.2060  223.8080 C   0  0  0  0  0  0  0  0  0  0  0  0
  141.1140   77.8400  222.6820 C   0  0  0  0  0  0  0  0  0  0  0  0
  140.4310   78.7890  221.9330 C   0  0  0  0  0  0  0  0  0  0  0  0
  140.4460   80.1210  222.2950 C   0  0  0  0  0  0  0  0  0  0  0  0
  139.6940   78.2850  220.7400 C   0  0  0  0  0  0  0  0  0  0  0  0
  138.7970   77.1620  221.2210 C   0  0  0  0  0  0  0  0  0  0  0  0
  139.6750   76.1440  221.7830 N   0  0  0  0  0  0  0  0  0  0  0  0
  139.1720   74.8420  221.9130 C   0  0  0  0  0  0  0  0  0  0  0  0
  137.8780   74.6020  221.6420 N   0  0  0  0  0  0  0  0  0  0  0  0
  137.3340   73.3580  221.7510 C   0  0  0  0  0  0  0  0  0  0  0  0
  135.9430   73.1330  221.4530 N   0  0  0  0  0  0  0  0  0  0  0  0
  134.9580   73.2760  222.5230 C   0  0  0  0  0  0  0  0  0  0  0  0
  135.3660   74.4740  223.3440 C   0  0  0  0  0  0  0  0  0  0  0  0
  135.0430   74.3030  224.8100 C   0  0  0  0  0  0  0  0  0  0  0  0
  133.9000   73.3510  225.0360 C   0  0  0  0  0  0  0  0  0  0  0  0
  133.5980   73.3500  226.5250 C   0  0  0  0  0  0  0  0  0  0  0  0
  133.0640   74.5960  226.8330 O   0  0  0  0  0  0  0  0  0  0  0  0
  134.0070   75.6110  226.7060 C   0  0  0  0  0  0  0  0  0  0  0  0
  134.6320   75.6500  225.3350 C   0  0  0  0  0  0  0  0  0  0  0  0
  138.1380   72.3710  222.1410 N   0  0  0  0  0  0  0  0  0  0  0  0
  139.4400   72.5550  222.4250 C   0  0  0  0  0  0  0  0  0  0  0  0
  140.3570   71.4900  222.8590 C   0  0  2  0  0  0  0  0  0  0  0  0
  139.9090   70.1510  222.3100 C   0  0  0  0  0  0  0  0  0  0  0  0
  138.8350   69.7530  223.3010 C   0  0  0  0  0  0  0  0  0  0  0  0
  139.4160   70.2160  224.5870 C   0  0  0  0  0  0  0  0  0  0  0  0
  139.2470   69.8490  225.9060 C   0  0  0  0  0  0  0  0  0  0  0  0
  139.9380   70.4660  226.9460 C   0  0  0  0  0  0  0  0  0  0  0  0
  140.8240   71.4810  226.6680 C   0  0  0  0  0  0  0  0  0  0  0  0
  141.0030   71.8580  225.3640 C   0  0  0  0  0  0  0  0  0  0  0  0
  140.3100   71.2350  224.3340 C   0  0  0  0  0  0  0  0  0  0  0  0
  139.9630   73.8080  222.3100 N   0  0  0  0  0  0  0  0  0  0  0  0
  141.0290   76.4360  222.2010 C   0  0  0  0  0  0  0  0  0  0  0  0
  141.1944   81.5168  223.7317 H   0  0  0  0  0  0  0  0  0  0  0  0
  142.4057   79.8529  225.0590 H   0  0  0  0  0  0  0  0  0  0  0  0
  142.3711   77.4545  224.4007 H   0  0  0  0  0  0  0  0  0  0  0  0
  139.9063   80.8795  221.7090 H   0  0  0  0  0  0  0  0  0  0  0  0
  139.0885   79.0914  220.3005 H   0  0  0  0  0  0  0  0  0  0  0  0
  140.3910   77.9295  219.9669 H   0  0  0  0  0  0  0  0  0  0  0  0
  138.1033   77.5325  221.9901 H   0  0  0  0  0  0  0  0  0  0  0  0
  138.1920   76.7552  220.3973 H   0  0  0  0  0  0  0  0  0  0  0  0
  135.6910   72.8750  220.4790 H   0  0  0  0  0  0  0  0  0  0  0  0
  133.9569   73.4347  222.0956 H   0  0  0  0  0  0  0  0  0  0  0  0
  134.9209   72.3694  223.1448 H   0  0  0  0  0  0  0  0  0  0  0  0
  136.4504   74.6238  223.2361 H   0  0  0  0  0  0  0  0  0  0  0  0
  134.8011   75.3426  222.9746 H   0  0  0  0  0  0  0  0  0  0  0  0
  135.9290   73.8957  225.3191 H   0  0  0  0  0  0  0  0  0  0  0  0
  133.0158   73.6846  224.4731 H   0  0  0  0  0  0  0  0  0  0  0  0
  134.1627   72.3397  224.6920 H   0  0  0  0  0  0  0  0  0  0  0  0
  132.8717   72.5587  226.7625 H   0  0  0  0  0  0  0  0  0  0  0  0
  134.5097   73.1585  227.1100 H   0  0  0  0  0  0  0  0  0  0  0  0
  133.5145   76.5759  226.8967 H   0  0  0  0  0  0  0  0  0  0  0  0
  134.8087   75.4153  227.4333 H   0  0  0  0  0  0  0  0  0  0  0  0
  133.9036   76.0860  224.6355 H   0  0  0  0  0  0  0  0  0  0  0  0
  135.5496   76.2505  225.4214 H   0  0  0  0  0  0  0  0  0  0  0  0
  141.3451   71.8331  222.5186 H   0  0  0  0  0  0  0  0  0  0  0  0
  139.4991   70.2516  221.2942 H   0  0  0  0  0  0  0  0  0  0  0  0
  140.7208   69.4150  222.2137 H   0  0  0  0  0  0  0  0  0  0  0  0
  137.8839   70.2619  223.0857 H   0  0  0  0  0  0  0  0  0  0  0  0
  138.5913   68.6805  223.2846 H   0  0  0  0  0  0  0  0  0  0  0  0
  138.5411   69.0399  226.1450 H   0  0  0  0  0  0  0  0  0  0  0  0
  139.7760   70.1432  227.9850 H   0  0  0  0  0  0  0  0  0  0  0  0
  141.3776   71.9797  227.4772 H   0  0  0  0  0  0  0  0  0  0  0  0
  141.7081   72.6686  225.1279 H   0  0  0  0  0  0  0  0  0  0  0  0
  141.3158   75.7530  223.0142 H   0  0  0  0  0  0  0  0  0  0  0  0
  141.7102   76.3017  221.3478 H   0  0  0  0  0  0  0  0  0  0  0  0
  1  2  2  0
  2  3  1  0
  3  4  2  0
  4  5  1  0
  5  6  2  0
  5  7  1  0
  7  8  1  0
  8  9  1  0
  9 10  1  0
 10 11  2  0
 11 12  1  0
 12 13  1  0
 13 14  1  0
 14 15  1  0
 15 16  1  0
 16 17  1  0
 17 18  1  0
 18 19  1  0
 19 20  1  0
 20 21  1  0
 12 22  2  0
 22 23  1  0
 23 24  1  0
 24 25  1  0
 25 26  1  0
 26 27  1  0
 27 28  2  0
 28 29  1  0
 29 30  2  0
 30 31  1  0
 31 32  2  0
 23 33  2  0
  9 34  1  0
  6  1  1  0
 33 10  1  0
 34  4  1  0
 21 16  1  0
 32 24  1  0
 32 27  1  0
  1 35  1  0
  2 36  1  0
  3 37  1  0
  6 38  1  0
  7 39  1  0
  7 40  1  0
  8 41  1  0
  8 42  1  0
 13 43  1  0
 14 44  1  0
 14 45  1  0
 15 46  1  0
 15 47  1  0
 16 48  1  0
 17 49  1  0
 17 50  1  0
 18 51  1  0
 18 52  1  0
 20 53  1  0
 20 54  1  0
 21 55  1  0
 21 56  1  0
 24 57  1  6
 25 58  1  0
 25 59  1  0
 26 60  1  0
 26 61  1  0
 28 62  1  0
 29 63  1  0
 30 64  1  0
 31 65  1  0
 34 66  1  0
 34 67  1  0
M  END
>  <smiles>  (32) 
c1ccc2c(c1)CCN(c1nc(NCCC3CCOCC3)nc(C3CCc4ccccc43)n1)C2

>  <score_type>  (32) 
oracle

>  <origin>  (32) 
autodockgpu

>  <m_score__min__energy>  (32) 
-9.9800000000000004

>  <m_primary>  (32) 
energy

>  <rmsd>  (32) 
1.7150967185320498

>  <m_score__min__rmsd>  (32) 
1.7150967185320498

>  <meeko>  (32) 
{"free_energy": -8.8, "intermolecular_energy": -10.59, "internal_energy": -1.44, "cluster_size": 7, "cluster_id": 3, "rank_in_cluster": 6}

>  <energy>  (32) 
-8.56

>  <cluster_rmsd>  (32) 
1.62

>  <cluster>  (32) 
2

$$$$

     RDKit          3D

 67 72  0  0  0  0  0  0  0  0999 V2000
  141.2870   80.5700  222.8950 C   0  0  0  0  0  0  0  0  0  0  0  0
  141.8260   79.7530  223.8560 C   0  0  0  0  0  0  0  0  0  0  0  0
  141.7800   78.3850  223.7090 C   0  0  0  0  0  0  0  0  0  0  0  0
  141.1820   77.8670  222.5750 C   0  0  0  0  0  0  0  0  0  0  0  0
  140.6410   78.7050  221.6090 C   0  0  0  0  0  0  0  0  0  0  0  0
  140.6870   80.0770  221.7570 C   0  0  0  0  0  0  0  0  0  0  0  0
  140.0210   78.0400  220.4280 C   0  0  0  0  0  0  0  0  0  0  0  0
  139.0160   77.0420  220.9650 C   0  0  0  0  0  0  0  0  0  0  0  0
  139.7670   76.0980  221.7830 N   0  0  0  0  0  0  0  0  0  0  0  0
  139.1830   74.8530  222.0530 C   0  0  0  0  0  0  0  0  0  0  0  0
  137.8450   74.7280  222.0220 N   0  0  0  0  0  0  0  0  0  0  0  0
  137.2220   73.5440  222.2760 C   0  0  0  0  0  0  0  0  0  0  0  0
  135.7860   73.4430  222.2350 N   0  0  0  0  0  0  0  0  0  0  0  0
  135.1470   72.2270  222.7360 C   0  0  0  0  0  0  0  0  0  0  0  0
  135.2220   72.2760  224.2420 C   0  0  0  0  0  0  0  0  0  0  0  0
  134.1440   73.1480  224.8430 C   0  0  0  0  0  0  0  0  0  0  0  0
  134.6810   74.4700  225.3220 C   0  0  0  0  0  0  0  0  0  0  0  0
  133.5380   75.2040  226.0030 C   0  0  0  0  0  0  0  0  0  0  0  0
  133.2510   74.5130  227.1740 O   0  0  0  0  0  0  0  0  0  0  0  0
  132.7080   73.2570  226.9170 C   0  0  0  0  0  0  0  0  0  0  0  0
  133.5920   72.4150  226.0340 C   0  0  0  0  0  0  0  0  0  0  0  0
  137.9930   72.4970  222.5590 N   0  0  0  0  0  0  0  0  0  0  0  0
  139.3350   72.5640  222.6040 C   0  0  0  0  0  0  0  0  0  0  0  0
  140.2180   71.4290  222.9150 C   0  0  2  0  0  0  0  0  0  0  0  0
  139.6560   70.1490  222.3320 C   0  0  0  0  0  0  0  0  0  0  0  0
  138.6330   69.7550  223.3770 C   0  0  0  0  0  0  0  0  0  0  0  0
  139.3290   70.1140  224.6400 C   0  0  0  0  0  0  0  0  0  0  0  0
  139.2320   69.6840  225.9460 C   0  0  0  0  0  0  0  0  0  0  0  0
  140.0280   70.2060  226.9640 C   0  0  0  0  0  0  0  0  0  0  0  0
  140.9500   71.1850  226.6740 C   0  0  0  0  0  0  0  0  0  0  0  0
  141.0580   71.6230  225.3810 C   0  0  0  0  0  0  0  0  0  0  0  0
  140.2600   71.0970  224.3740 C   0  0  0  0  0  0  0  0  0  0  0  0
  139.9370   73.7600  222.3470 N   0  0  0  0  0  0  0  0  0  0  0  0
  141.0770   76.4080  222.3130 C   0  0  0  0  0  0  0  0  0  0  0  0
  141.3356   81.6595  223.0383 H   0  0  0  0  0  0  0  0  0  0  0  0
  142.2969   80.1926  224.7476 H   0  0  0  0  0  0  0  0  0  0  0  0
  142.2081   77.7209  224.4743 H   0  0  0  0  0  0  0  0  0  0  0  0
  140.2618   80.7492  220.9971 H   0  0  0  0  0  0  0  0  0  0  0  0
  139.5146   78.7849  219.7966 H   0  0  0  0  0  0  0  0  0  0  0  0
  140.7827   77.5402  219.8115 H   0  0  0  0  0  0  0  0  0  0  0  0
  138.2592   77.5560  221.5758 H   0  0  0  0  0  0  0  0  0  0  0  0
  138.4893   76.5285  220.1471 H   0  0  0  0  0  0  0  0  0  0  0  0
  135.2540   74.2460  221.8470 H   0  0  0  0  0  0  0  0  0  0  0  0
  134.0966   72.1912  222.4113 H   0  0  0  0  0  0  0  0  0  0  0  0
  135.6518   71.3303  222.3474 H   0  0  0  0  0  0  0  0  0  0  0  0
  135.1105   71.2546  224.6349 H   0  0  0  0  0  0  0  0  0  0  0  0
  136.1956   72.7084  224.5160 H   0  0  0  0  0  0  0  0  0  0  0  0
  133.3846   73.3492  224.0731 H   0  0  0  0  0  0  0  0  0  0  0  0
  135.5014   74.3062  226.0363 H   0  0  0  0  0  0  0  0  0  0  0  0
  135.0736   75.0583  224.4796 H   0  0  0  0  0  0  0  0  0  0  0  0
  133.8383   76.2359  226.2374 H   0  0  0  0  0  0  0  0  0  0  0  0
  132.6554   75.2495  225.3480 H   0  0  0  0  0  0  0  0  0  0  0  0
  132.5632   72.7331  227.8733 H   0  0  0  0  0  0  0  0  0  0  0  0
  131.7546   73.4071  226.3892 H   0  0  0  0  0  0  0  0  0  0  0  0
  134.4364   72.0501  226.6373 H   0  0  0  0  0  0  0  0  0  0  0  0
  132.9663   71.5991  225.6432 H   0  0  0  0  0  0  0  0  0  0  0  0
  141.1983   71.7361  222.5217 H   0  0  0  0  0  0  0  0  0  0  0  0
  139.1824   70.3279  221.3554 H   0  0  0  0  0  0  0  0  0  0  0  0
  140.4152   69.3768  222.1387 H   0  0  0  0  0  0  0  0  0  0  0  0
  137.7001   70.3257  223.2584 H   0  0  0  0  0  0  0  0  0  0  0  0
  138.3272   68.6997  223.3231 H   0  0  0  0  0  0  0  0  0  0  0  0
  138.5002   68.9009  226.1936 H   0  0  0  0  0  0  0  0  0  0  0  0
  139.9195   69.8369  227.9946 H   0  0  0  0  0  0  0  0  0  0  0  0
  141.5875   71.6074  227.4647 H   0  0  0  0  0  0  0  0  0  0  0  0
  141.7906   72.4061  225.1357 H   0  0  0  0  0  0  0  0  0  0  0  0
  141.2308   75.8564  223.2522 H   0  0  0  0  0  0  0  0  0  0  0  0
  141.8436   76.1145  221.5808 H   0  0  0  0  0  0  0  0  0  0  0  0
  1  2  2  0
  2  3  1  0
  3  4  2  0
  4  5  1  0
  5  6  2  0
  5  7  1  0
  7  8  1  0
  8  9  1  0
  9 10  1  0
 10 11  2  0
 11 12  1  0
 12 13  1  0
 13 14  1  0
 14 15  1  0
 15 16  1  0
 16 17  1  0
 17 18  1  0
 18 19  1  0
 19 20  1  0
 20 21  1  0
 12 22  2  0
 22 23  1  0
 23 24  1  0
 24 25  1  0
 25 26  1  0
 26 27  1  0
 27 28  2  0
 28 29  1  0
 29 30  2  0
 30 31  1  0
 31 32  2  0
 23 33  2  0
  9 34  1  0
  6  1  1  0
 33 10  1  0
 34  4  1  0
 21 16  1  0
 32 24  1  0
 32 27  1  0
  1 35  1  0
  2 36  1  0
  3 37  1  0
  6 38  1  0
  7 39  1  0
  7 40  1  0
  8 41  1  0
  8 42  1  0
 13 43  1  0
 14 44  1  0
 14 45  1  0
 15 46  1  0
 15 47  1  0
 16 48  1  0
 17 49  1  0
 17 50  1  0
 18 51  1  0
 18 52  1  0
 20 53  1  0
 20 54  1  0
 21 55  1  0
 21 56  1  0
 24 57  1  6
 25 58  1  0
 25 59  1  0
 26 60  1  0
 26 61  1  0
 28 62  1  0
 29 63  1  0
 30 64  1  0
 31 65  1  0
 34 66  1  0
 34 67  1  0
M  END
>  <smiles>  (33) 
c1ccc2c(c1)CCN(c1nc(NCCC3CCOCC3)nc(C3CCc4ccccc43)n1)C2

>  <score_type>  (33) 
oracle

>  <origin>  (33) 
autodockgpu

>  <m_score__min__energy>  (33) 
-9.9800000000000004

>  <m_primary>  (33) 
energy

>  <rmsd>  (33) 
1.665499394126936

>  <m_score__min__rmsd>  (33) 
1.665499394126936

>  <meeko>  (33) 
{"free_energy": -9.19, "intermolecular_energy": -10.98, "internal_energy": -1.46, "cluster_size": 7, "cluster_id": 3, "rank_in_cluster": 3}

>  <energy>  (33) 
-9.33

>  <cluster_rmsd>  (33) 
0.0

>  <cluster>  (33) 
3

$$$$

     RDKit          3D

 67 72  0  0  0  0  0  0  0  0999 V2000
  140.0890   68.0740  227.1110 C   0  0  0  0  0  0  0  0  0  0  0  0
  141.0470   69.0200  227.3740 C   0  0  0  0  0  0  0  0  0  0  0  0
  141.1410   70.1490  226.5940 C   0  0  0  0  0  0  0  0  0  0  0  0
  140.2500   70.3000  225.5470 C   0  0  0  0  0  0  0  0  0  0  0  0
  139.2830   69.3360  225.2920 C   0  0  0  0  0  0  0  0  0  0  0  0
  139.1890   68.2030  226.0740 C   0  0  0  0  0  0  0  0  0  0  0  0
  138.3750   69.6000  224.1400 C   0  0  0  0  0  0  0  0  0  0  0  0
  139.2570   69.8750  222.9400 C   0  0  0  0  0  0  0  0  0  0  0  0
  140.0570   71.0470  223.2760 N   0  0  0  0  0  0  0  0  0  0  0  0
  140.6400   71.7680  222.2240 C   0  0  0  0  0  0  0  0  0  0  0  0
  140.8280   73.0930  222.3540 N   0  0  0  0  0  0  0  0  0  0  0  0
  141.3900   73.8440  221.3660 C   0  0  0  0  0  0  0  0  0  0  0  0
  141.5780   75.2620  221.5360 N   0  0  0  0  0  0  0  0  0  0  0  0
  141.0840   76.1700  220.5030 C   0  0  0  0  0  0  0  0  0  0  0  0
  139.9700   76.9790  221.1200 C   0  0  0  0  0  0  0  0  0  0  0  0
  140.4680   78.2670  221.7330 C   0  0  0  0  0  0  0  0  0  0  0  0
  141.5490   78.9120  220.9080 C   0  0  0  0  0  0  0  0  0  0  0  0
  142.0430   80.1260  221.6780 C   0  0  0  0  0  0  0  0  0  0  0  0
  142.7140   79.6520  222.7990 O   0  0  0  0  0  0  0  0  0  0  0  0
  141.8480   79.0410  223.7020 C   0  0  0  0  0  0  0  0  0  0  0  0
  141.0540   77.9240  223.0740 C   0  0  0  0  0  0  0  0  0  0  0  0
  141.7520   73.2140  220.2500 N   0  0  0  0  0  0  0  0  0  0  0  0
  141.5870   71.8930  220.0670 C   0  0  0  0  0  0  0  0  0  0  0  0
  141.9740   71.1640  218.8490 C   0  0  2  0  0  0  0  0  0  0  0  0
  141.0140   70.0220  218.5910 C   0  0  0  0  0  0  0  0  0  0  0  0
  141.5540   68.9470  219.5120 C   0  0  0  0  0  0  0  0  0  0  0  0
  143.0220   69.1350  219.3750 C   0  0  0  0  0  0  0  0  0  0  0  0
  144.1150   68.3130  219.5500 C   0  0  0  0  0  0  0  0  0  0  0  0
  145.4210   68.7570  219.3480 C   0  0  0  0  0  0  0  0  0  0  0  0
  145.6470   70.0580  218.9600 C   0  0  0  0  0  0  0  0  0  0  0  0
  144.5710   70.8860  218.7830 C   0  0  0  0  0  0  0  0  0  0  0  0
  143.2740   70.4340  218.9860 C   0  0  0  0  0  0  0  0  0  0  0  0
  141.0220   71.1600  221.0690 N   0  0  0  0  0  0  0  0  0  0  0  0
  140.2600   71.4780  224.6420 C   0  0  0  0  0  0  0  0  0  0  0  0
  140.0368   67.1803  227.7502 H   0  0  0  0  0  0  0  0  0  0  0  0
  141.7435   68.8749  228.2129 H   0  0  0  0  0  0  0  0  0  0  0  0
  141.9058   70.9128  226.7979 H   0  0  0  0  0  0  0  0  0  0  0  0
  138.4272   67.4340  225.8783 H   0  0  0  0  0  0  0  0  0  0  0  0
  137.7400   68.7222  223.9497 H   0  0  0  0  0  0  0  0  0  0  0  0
  137.7137   70.4542  224.3471 H   0  0  0  0  0  0  0  0  0  0  0  0
  139.9104   69.0124  222.7426 H   0  0  0  0  0  0  0  0  0  0  0  0
  138.6560   70.0489  222.0353 H   0  0  0  0  0  0  0  0  0  0  0  0
  142.0640   75.5870  222.3940 H   0  0  0  0  0  0  0  0  0  0  0  0
  141.8928   76.8358  220.1675 H   0  0  0  0  0  0  0  0  0  0  0  0
  140.7228   75.6090  219.6285 H   0  0  0  0  0  0  0  0  0  0  0  0
  139.2338   77.2204  220.3391 H   0  0  0  0  0  0  0  0  0  0  0  0
  139.5211   76.3758  221.9229 H   0  0  0  0  0  0  0  0  0  0  0  0
  139.6263   78.9721  221.7997 H   0  0  0  0  0  0  0  0  0  0  0  0
  142.3759   78.2037  220.7514 H   0  0  0  0  0  0  0  0  0  0  0  0
  141.1615   79.2080  219.9220 H   0  0  0  0  0  0  0  0  0  0  0  0
  142.7261   80.7182  221.0514 H   0  0  0  0  0  0  0  0  0  0  0  0
  141.2032   80.7743  221.9687 H   0  0  0  0  0  0  0  0  0  0  0  0
  142.4384   78.6298  224.5340 H   0  0  0  0  0  0  0  0  0  0  0  0
  141.1354   79.8032  224.0501 H   0  0  0  0  0  0  0  0  0  0  0  0
  141.7179   77.0559  222.9492 H   0  0  0  0  0  0  0  0  0  0  0  0
  140.2084   77.7185  223.7468 H   0  0  0  0  0  0  0  0  0  0  0  0
  142.0040   71.9402  218.0701 H   0  0  0  0  0  0  0  0  0  0  0  0
  139.9832   70.2975  218.8585 H   0  0  0  0  0  0  0  0  0  0  0  0
  140.9589   69.7170  217.5356 H   0  0  0  0  0  0  0  0  0  0  0  0
  141.2253   69.1068  220.5495 H   0  0  0  0  0  0  0  0  0  0  0  0
  141.2104   67.9327  219.2607 H   0  0  0  0  0  0  0  0  0  0  0  0
  143.9508   67.2704  219.8598 H   0  0  0  0  0  0  0  0  0  0  0  0
  146.2672   68.0704  219.4981 H   0  0  0  0  0  0  0  0  0  0  0  0
  146.6708   70.4250  218.7955 H   0  0  0  0  0  0  0  0  0  0  0  0
  144.7372   71.9286  218.4743 H   0  0  0  0  0  0  0  0  0  0  0  0
  141.2289   71.9925  224.7226 H   0  0  0  0  0  0  0  0  0  0  0  0
  139.4509   72.1651  224.9305 H   0  0  0  0  0  0  0  0  0  0  0  0
  1  2  2  0
  2  3  1  0
  3  4  2  0
  4  5  1  0
  5  6  2  0
  5  7  1  0
  7  8  1  0
  8  9  1  0
  9 10  1  0
 10 11  2  0
 11 12  1  0
 12 13  1  0
 13 14  1  0
 14 15  1  0
 15 16  1  0
 16 17  1  0
 17 18  1  0
 18 19  1  0
 19 20  1  0
 20 21  1  0
 12 22  2  0
 22 23  1  0
 23 24  1  0
 24 25  1  0
 25 26  1  0
 26 27  1  0
 27 28  2  0
 28 29  1  0
 29 30  2  0
 30 31  1  0
 31 32  2  0
 23 33  2  0
  9 34  1  0
  6  1  1  0
 33 10  1  0
 34  4  1  0
 21 16  1  0
 32 24  1  0
 32 27  1  0
  1 35  1  0
  2 36  1  0
  3 37  1  0
  6 38  1  0
  7 39  1  0
  7 40  1  0
  8 41  1  0
  8 42  1  0
 13 43  1  0
 14 44  1  0
 14 45  1  0
 15 46  1  0
 15 47  1  0
 16 48  1  0
 17 49  1  0
 17 50  1  0
 18 51  1  0
 18 52  1  0
 20 53  1  0
 20 54  1  0
 21 55  1  0
 21 56  1  0
 24 57  1  6
 25 58  1  0
 25 59  1  0
 26 60  1  0
 26 61  1  0
 28 62  1  0
 29 63  1  0
 30 64  1  0
 31 65  1  0
 34 66  1  0
 34 67  1  0
M  END
>  <smiles>  (34) 
c1ccc2c(c1)CCN(c1nc(NCCC3CCOCC3)nc(C3CCc4ccccc43)n1)C2

>  <score_type>  (34) 
oracle

>  <origin>  (34) 
autodockgpu

>  <m_score__min__energy>  (34) 
-9.9800000000000004

>  <m_primary>  (34) 
energy

>  <rmsd>  (34) 
7.124210639342954

>  <m_score__min__rmsd>  (34) 
7.124210639342954

>  <meeko>  (34) 
{"free_energy": -8.87, "intermolecular_energy": -10.66, "internal_energy": -1.14, "cluster_size": 2, "cluster_id": 5, "rank_in_cluster": 2}

>  <energy>  (34) 
-9.23

>  <cluster_rmsd>  (34) 
0.21

>  <cluster>  (34) 
3

$$$$

     RDKit          3D

 67 72  0  0  0  0  0  0  0  0999 V2000
  145.5080   73.5100  216.1670 C   0  0  0  0  0  0  0  0  0  0  0  0
  144.6230   74.5250  215.9070 C   0  0  0  0  0  0  0  0  0  0  0  0
  143.8810   75.0770  216.9270 C   0  0  0  0  0  0  0  0  0  0  0  0
  144.0550   74.5810  218.2070 C   0  0  0  0  0  0  0  0  0  0  0  0
  144.9550   73.5540  218.4560 C   0  0  0  0  0  0  0  0  0  0  0  0
  145.6980   73.0010  217.4330 C   0  0  0  0  0  0  0  0  0  0  0  0
  145.0620   73.0980  219.8710 C   0  0  0  0  0  0  0  0  0  0  0  0
  143.6580   72.7690  220.3330 C   0  0  0  0  0  0  0  0  0  0  0  0
  142.8870   74.0010  220.2200 N   0  0  0  0  0  0  0  0  0  0  0  0
  141.7000   74.1040  220.9590 C   0  0  0  0  0  0  0  0  0  0  0  0
  141.0860   72.9860  221.3840 N   0  0  0  0  0  0  0  0  0  0  0  0
  139.9310   73.0240  222.1060 C   0  0  0  0  0  0  0  0  0  0  0  0
  139.2980   71.8080  222.5470 N   0  0  0  0  0  0  0  0  0  0  0  0
  139.2960   71.4890  223.9730 C   0  0  0  0  0  0  0  0  0  0  0  0
  140.7350   71.4620  224.4230 C   0  0  0  0  0  0  0  0  0  0  0  0
  140.9020   70.8130  225.7780 C   0  0  0  0  0  0  0  0  0  0  0  0
  139.7090   69.9820  226.1630 C   0  0  0  0  0  0  0  0  0  0  0  0
  139.9430   69.4800  227.5780 C   0  0  0  0  0  0  0  0  0  0  0  0
  139.8710   70.5840  228.4200 O   0  0  0  0  0  0  0  0  0  0  0  0
  140.9340   71.4610  228.2180 C   0  0  0  0  0  0  0  0  0  0  0  0
  141.0410   71.9180  226.7860 C   0  0  0  0  0  0  0  0  0  0  0  0
  139.4220   74.2230  222.3810 N   0  0  0  0  0  0  0  0  0  0  0  0
  139.9930   75.3720  221.9810 C   0  0  0  0  0  0  0  0  0  0  0  0
  139.4590   76.7130  222.2650 C   0  0  2  0  0  0  0  0  0  0  0  0
  138.6520   77.2190  221.0880 C   0  0  0  0  0  0  0  0  0  0  0  0
  139.7360   77.7480  220.1720 C   0  0  0  0  0  0  0  0  0  0  0  0
  140.6810   78.3660  221.1380 C   0  0  0  0  0  0  0  0  0  0  0  0
  141.6280   79.3650  221.0510 C   0  0  0  0  0  0  0  0  0  0  0  0
  142.3970   79.7590  222.1430 C   0  0  0  0  0  0  0  0  0  0  0  0
  142.2210   79.1420  223.3610 C   0  0  0  0  0  0  0  0  0  0  0  0
  141.2850   78.1480  223.4630 C   0  0  0  0  0  0  0  0  0  0  0  0
  140.5220   77.7630  222.3680 C   0  0  0  0  0  0  0  0  0  0  0  0
  141.1490   75.3100  221.2600 N   0  0  0  0  0  0  0  0  0  0  0  0
  143.3080   75.1020  219.3810 C   0  0  0  0  0  0  0  0  0  0  0  0
  146.0877   73.0865  215.3336 H   0  0  0  0  0  0  0  0  0  0  0  0
  144.5055   74.8996  214.8794 H   0  0  0  0  0  0  0  0  0  0  0  0
  143.1683   75.8913  216.7295 H   0  0  0  0  0  0  0  0  0  0  0  0
  146.4131   72.1866  217.6208 H   0  0  0  0  0  0  0  0  0  0  0  0
  145.7002   72.2043  219.9334 H   0  0  0  0  0  0  0  0  0  0  0  0
  145.5128   73.8771  220.5033 H   0  0  0  0  0  0  0  0  0  0  0  0
  143.2211   71.9871  219.6945 H   0  0  0  0  0  0  0  0  0  0  0  0
  143.6569   72.3918  221.3663 H   0  0  0  0  0  0  0  0  0  0  0  0
  138.8620   71.2000  221.8270 H   0  0  0  0  0  0  0  0  0  0  0  0
  138.7405   72.2573  224.5308 H   0  0  0  0  0  0  0  0  0  0  0  0
  138.8099   70.5195  224.1568 H   0  0  0  0  0  0  0  0  0  0  0  0
  141.3253   70.8980  223.6858 H   0  0  0  0  0  0  0  0  0  0  0  0
  141.0810   72.5030  224.5043 H   0  0  0  0  0  0  0  0  0  0  0  0
  141.7795   70.1505  225.7448 H   0  0  0  0  0  0  0  0  0  0  0  0
  138.7964   70.5951  226.1276 H   0  0  0  0  0  0  0  0  0  0  0  0
  139.5819   69.1391  225.4677 H   0  0  0  0  0  0  0  0  0  0  0  0
  139.1702   68.7463  227.8508 H   0  0  0  0  0  0  0  0  0  0  0  0
  140.9226   68.9867  227.6617 H   0  0  0  0  0  0  0  0  0  0  0  0
  140.7907   72.3427  228.8599 H   0  0  0  0  0  0  0  0  0  0  0  0
  141.8615   70.9251  228.4680 H   0  0  0  0  0  0  0  0  0  0  0  0
  140.2486   72.6577  226.5993 H   0  0  0  0  0  0  0  0  0  0  0  0
  142.0506   72.3365  226.6610 H   0  0  0  0  0  0  0  0  0  0  0  0
  138.8978   76.5844  223.2023 H   0  0  0  0  0  0  0  0  0  0  0  0
  138.0866   76.4050  220.6107 H   0  0  0  0  0  0  0  0  0  0  0  0
  137.8929   77.9679  221.3580 H   0  0  0  0  0  0  0  0  0  0  0  0
  140.2156   76.9341  219.6084 H   0  0  0  0  0  0  0  0  0  0  0  0
  139.3676   78.4442  219.4042 H   0  0  0  0  0  0  0  0  0  0  0  0
  141.7812   79.8682  220.0849 H   0  0  0  0  0  0  0  0  0  0  0  0
  143.1424   80.5604  222.0328 H   0  0  0  0  0  0  0  0  0  0  0  0
  142.8197   79.4413  224.2339 H   0  0  0  0  0  0  0  0  0  0  0  0
  141.1345   77.6451  224.4297 H   0  0  0  0  0  0  0  0  0  0  0  0
  142.4234   75.6566  219.0346 H   0  0  0  0  0  0  0  0  0  0  0  0
  143.9610   75.7716  219.9599 H   0  0  0  0  0  0  0  0  0  0  0  0
  1  2  2  0
  2  3  1  0
  3  4  2  0
  4  5  1  0
  5  6  2  0
  5  7  1  0
  7  8  1  0
  8  9  1  0
  9 10  1  0
 10 11  2  0
 11 12  1  0
 12 13  1  0
 13 14  1  0
 14 15  1  0
 15 16  1  0
 16 17  1  0
 17 18  1  0
 18 19  1  0
 19 20  1  0
 20 21  1  0
 12 22  2  0
 22 23  1  0
 23 24  1  0
 24 25  1  0
 25 26  1  0
 26 27  1  0
 27 28  2  0
 28 29  1  0
 29 30  2  0
 30 31  1  0
 31 32  2  0
 23 33  2  0
  9 34  1  0
  6  1  1  0
 33 10  1  0
 34  4  1  0
 21 16  1  0
 32 24  1  0
 32 27  1  0
  1 35  1  0
  2 36  1  0
  3 37  1  0
  6 38  1  0
  7 39  1  0
  7 40  1  0
  8 41  1  0
  8 42  1  0
 13 43  1  0
 14 44  1  0
 14 45  1  0
 15 46  1  0
 15 47  1  0
 16 48  1  0
 17 49  1  0
 17 50  1  0
 18 51  1  0
 18 52  1  0
 20 53  1  0
 20 54  1  0
 21 55  1  0
 21 56  1  0
 24 57  1  1
 25 58  1  0
 25 59  1  0
 26 60  1  0
 26 61  1  0
 28 62  1  0
 29 63  1  0
 30 64  1  0
 31 65  1  0
 34 66  1  0
 34 67  1  0
M  END
>  <smiles>  (35) 
c1ccc2c(c1)CCN(c1nc(NCCC3CCOCC3)nc(C3CCc4ccccc43)n1)C2

>  <score_type>  (35) 
oracle

>  <origin>  (35) 
autodockgpu

>  <m_score__min__energy>  (35) 
-9.9800000000000004

>  <m_primary>  (35) 
energy

>  <rmsd>  (35) 
8.939185309602243

>  <m_score__min__rmsd>  (35) 
8.939185309602243

>  <meeko>  (35) 
{"free_energy": -9.03, "intermolecular_energy": -10.82, "internal_energy": -1.44, "cluster_size": 19, "cluster_id": 1, "rank_in_cluster": 18}

>  <energy>  (35) 
-9.19

>  <cluster_rmsd>  (35) 
0.99

>  <cluster>  (35) 
3

$$$$

     RDKit          3D

 67 72  0  0  0  0  0  0  0  0999 V2000
  141.5230   80.9460  223.8770 C   0  0  0  0  0  0  0  0  0  0  0  0
  142.6540   80.4250  223.3000 C   0  0  0  0  0  0  0  0  0  0  0  0
  142.5630   79.3550  222.4390 C   0  0  0  0  0  0  0  0  0  0  0  0
  141.3110   78.8280  222.1770 C   0  0  0  0  0  0  0  0  0  0  0  0
  140.1750   79.3660  222.7660 C   0  0  0  0  0  0  0  0  0  0  0  0
  140.2660   80.4380  223.6310 C   0  0  0  0  0  0  0  0  0  0  0  0
  138.8790   78.7210  222.4130 C   0  0  0  0  0  0  0  0  0  0  0  0
  139.0360   77.2400  222.6900 C   0  0  0  0  0  0  0  0  0  0  0  0
  140.1210   76.7730  221.8360 N   0  0  0  0  0  0  0  0  0  0  0  0
  140.2050   75.3990  221.5720 C   0  0  0  0  0  0  0  0  0  0  0  0
  139.5640   74.5300  222.3730 N   0  0  0  0  0  0  0  0  0  0  0  0
  139.6090   73.1850  222.1660 C   0  0  0  0  0  0  0  0  0  0  0  0
  138.9120   72.2800  223.0420 N   0  0  0  0  0  0  0  0  0  0  0  0
  139.5760   71.0470  223.4600 C   0  0  0  0  0  0  0  0  0  0  0  0
  140.8250   71.4460  224.2060 C   0  0  0  0  0  0  0  0  0  0  0  0
  140.9170   70.7930  225.5650 C   0  0  0  0  0  0  0  0  0  0  0  0
  139.6640   70.0410  225.9220 C   0  0  0  0  0  0  0  0  0  0  0  0
  139.8310   69.5300  227.3440 C   0  0  0  0  0  0  0  0  0  0  0  0
  139.8070   70.6400  228.1810 O   0  0  0  0  0  0  0  0  0  0  0  0
  140.9270   71.4480  228.0050 C   0  0  0  0  0  0  0  0  0  0  0  0
  141.0990   71.8920  226.5750 C   0  0  0  0  0  0  0  0  0  0  0  0
  140.3190   72.7510  221.1260 N   0  0  0  0  0  0  0  0  0  0  0  0
  140.9790   73.5740  220.2930 C   0  0  0  0  0  0  0  0  0  0  0  0
  141.7730   73.1310  219.1370 C   0  0  2  0  0  0  0  0  0  0  0  0
  141.4380   71.6960  218.7860 C   0  0  0  0  0  0  0  0  0  0  0  0
  142.2870   70.9270  219.7780 C   0  0  0  0  0  0  0  0  0  0  0  0
  143.5330   71.7350  219.8060 C   0  0  0  0  0  0  0  0  0  0  0  0
  144.8490   71.4610  220.1160 C   0  0  0  0  0  0  0  0  0  0  0  0
  145.8460   72.4330  220.0580 C   0  0  0  0  0  0  0  0  0  0  0  0
  145.5260   73.7170  219.6810 C   0  0  0  0  0  0  0  0  0  0  0  0
  144.2240   74.0050  219.3710 C   0  0  0  0  0  0  0  0  0  0  0  0
  143.2380   73.0290  219.4310 C   0  0  0  0  0  0  0  0  0  0  0  0
  140.9200   74.9170  220.5200 N   0  0  0  0  0  0  0  0  0  0  0  0
  141.0970   77.6750  221.2640 C   0  0  0  0  0  0  0  0  0  0  0  0
  141.6237   81.8012  224.5615 H   0  0  0  0  0  0  0  0  0  0  0  0
  143.6368   80.8641  223.5265 H   0  0  0  0  0  0  0  0  0  0  0  0
  143.4631   78.9297  221.9710 H   0  0  0  0  0  0  0  0  0  0  0  0
  139.3716   80.8691  224.1045 H   0  0  0  0  0  0  0  0  0  0  0  0
  138.0687   79.1375  223.0294 H   0  0  0  0  0  0  0  0  0  0  0  0
  138.6241   78.8999  221.3580 H   0  0  0  0  0  0  0  0  0  0  0  0
  139.2874   77.0757  223.7482 H   0  0  0  0  0  0  0  0  0  0  0  0
  138.1033   76.6950  222.4827 H   0  0  0  0  0  0  0  0  0  0  0  0
  137.9540   72.5410  223.3470 H   0  0  0  0  0  0  0  0  0  0  0  0
  138.9131   70.4659  224.1179 H   0  0  0  0  0  0  0  0  0  0  0  0
  139.8231   70.4213  222.5897 H   0  0  0  0  0  0  0  0  0  0  0  0
  141.7016   71.1494  223.6114 H   0  0  0  0  0  0  0  0  0  0  0  0
  140.7913   72.5349  224.3585 H   0  0  0  0  0  0  0  0  0  0  0  0
  141.7517   70.0766  225.5549 H   0  0  0  0  0  0  0  0  0  0  0  0
  138.7935   70.7109  225.8629 H   0  0  0  0  0  0  0  0  0  0  0  0
  139.5003   69.2055  225.2254 H   0  0  0  0  0  0  0  0  0  0  0  0
  139.0074   68.8469  227.5990 H   0  0  0  0  0  0  0  0  0  0  0  0
  140.7752   68.9765  227.4535 H   0  0  0  0  0  0  0  0  0  0  0  0
  140.8225   72.3394  228.6411 H   0  0  0  0  0  0  0  0  0  0  0  0
  141.8126   70.8565  228.2803 H   0  0  0  0  0  0  0  0  0  0  0  0
  140.3594   72.6790  226.3663 H   0  0  0  0  0  0  0  0  0  0  0  0
  142.1357   72.2461  226.4752 H   0  0  0  0  0  0  0  0  0  0  0  0
  141.5473   73.8731  218.3570 H   0  0  0  0  0  0  0  0  0  0  0  0
  140.3674   71.4882  218.9296 H   0  0  0  0  0  0  0  0  0  0  0  0
  141.6362   71.4368  217.7355 H   0  0  0  0  0  0  0  0  0  0  0  0
  141.8109   70.8914  220.7690 H   0  0  0  0  0  0  0  0  0  0  0  0
  142.4464   69.8737  219.5040 H   0  0  0  0  0  0  0  0  0  0  0  0
  145.1210   70.4393  220.4197 H   0  0  0  0  0  0  0  0  0  0  0  0
  146.8845   72.1748  220.3126 H   0  0  0  0  0  0  0  0  0  0  0  0
  146.3006   74.4963  219.6297 H   0  0  0  0  0  0  0  0  0  0  0  0
  143.9541   75.0277  219.0690 H   0  0  0  0  0  0  0  0  0  0  0  0
  142.0480   77.1411  221.1205 H   0  0  0  0  0  0  0  0  0  0  0  0
  140.7288   78.0421  220.2946 H   0  0  0  0  0  0  0  0  0  0  0  0
  1  2  2  0
  2  3  1  0
  3  4  2  0
  4  5  1  0
  5  6  2  0
  5  7  1  0
  7  8  1  0
  8  9  1  0
  9 10  1  0
 10 11  2  0
 11 12  1  0
 12 13  1  0
 13 14  1  0
 14 15  1  0
 15 16  1  0
 16 17  1  0
 17 18  1  0
 18 19  1  0
 19 20  1  0
 20 21  1  0
 12 22  2  0
 22 23  1  0
 23 24  1  0
 24 25  1  0
 25 26  1  0
 26 27  1  0
 27 28  2  0
 28 29  1  0
 29 30  2  0
 30 31  1  0
 31 32  2  0
 23 33  2  0
  9 34  1  0
  6  1  1  0
 33 10  1  0
 34  4  1  0
 21 16  1  0
 32 24  1  0
 32 27  1  0
  1 35  1  0
  2 36  1  0
  3 37  1  0
  6 38  1  0
  7 39  1  0
  7 40  1  0
  8 41  1  0
  8 42  1  0
 13 43  1  0
 14 44  1  0
 14 45  1  0
 15 46  1  0
 15 47  1  0
 16 48  1  0
 17 49  1  0
 17 50  1  0
 18 51  1  0
 18 52  1  0
 20 53  1  0
 20 54  1  0
 21 55  1  0
 21 56  1  0
 24 57  1  6
 25 58  1  0
 25 59  1  0
 26 60  1  0
 26 61  1  0
 28 62  1  0
 29 63  1  0
 30 64  1  0
 31 65  1  0
 34 66  1  0
 34 67  1  0
M  END
>  <smiles>  (36) 
c1ccc2c(c1)CCN(c1nc(NCCC3CCOCC3)nc(C3CCc4ccccc43)n1)C2

>  <score_type>  (36) 
oracle

>  <origin>  (36) 
autodockgpu

>  <m_score__min__energy>  (36) 
-9.9800000000000004

>  <m_primary>  (36) 
energy

>  <rmsd>  (36) 
7.227284803570052

>  <m_score__min__rmsd>  (36) 
7.227284803570052

>  <meeko>  (36) 
{"free_energy": -9.71, "intermolecular_energy": -11.5, "internal_energy": -1.4, "cluster_size": 19, "cluster_id": 1, "rank_in_cluster": 9}

>  <energy>  (36) 
-9.15

>  <cluster_rmsd>  (36) 
0.61

>  <cluster>  (36) 
3

$$$$

     RDKit          3D

 67 72  0  0  0  0  0  0  0  0999 V2000
  141.6850   81.2640  222.3750 C   0  0  0  0  0  0  0  0  0  0  0  0
  141.3960   80.7950  223.6320 C   0  0  0  0  0  0  0  0  0  0  0  0
  141.1910   79.4500  223.8400 C   0  0  0  0  0  0  0  0  0  0  0  0
  141.2860   78.5960  222.7570 C   0  0  0  0  0  0  0  0  0  0  0  0
  141.5800   79.0840  221.4900 C   0  0  0  0  0  0  0  0  0  0  0  0
  141.7840   80.4330  221.2810 C   0  0  0  0  0  0  0  0  0  0  0  0
  141.6580   78.0750  220.3950 C   0  0  0  0  0  0  0  0  0  0  0  0
  140.3640   77.2880  220.4320 C   0  0  0  0  0  0  0  0  0  0  0  0
  140.3030   76.6560  221.7450 N   0  0  0  0  0  0  0  0  0  0  0  0
  139.4530   75.5530  221.9040 C   0  0  0  0  0  0  0  0  0  0  0  0
  139.9780   74.3180  221.9920 N   0  0  0  0  0  0  0  0  0  0  0  0
  139.2010   73.2100  222.1480 C   0  0  0  0  0  0  0  0  0  0  0  0
  139.7940   71.9010  222.2390 N   0  0  0  0  0  0  0  0  0  0  0  0
  139.5730   71.1070  223.4460 C   0  0  0  0  0  0  0  0  0  0  0  0
  140.6740   71.4590  224.4160 C   0  0  0  0  0  0  0  0  0  0  0  0
  140.2980   71.1560  225.8470 C   0  0  0  0  0  0  0  0  0  0  0  0
  141.1520   71.9060  226.8330 C   0  0  0  0  0  0  0  0  0  0  0  0
  140.7600   71.4350  228.2240 C   0  0  0  0  0  0  0  0  0  0  0  0
  141.1850   70.1180  228.3430 O   0  0  0  0  0  0  0  0  0  0  0  0
  140.4690   69.2630  227.5100 C   0  0  0  0  0  0  0  0  0  0  0  0
  140.5240   69.6860  226.0650 C   0  0  0  0  0  0  0  0  0  0  0  0
  137.8830   73.3920  222.2110 N   0  0  0  0  0  0  0  0  0  0  0  0
  137.3050   74.6030  222.1280 C   0  0  0  0  0  0  0  0  0  0  0  0
  135.8550   74.8410  222.1920 C   0  0  2  0  0  0  0  0  0  0  0  0
  135.5570   76.3210  222.0650 C   0  0  0  0  0  0  0  0  0  0  0  0
  135.7900   76.8070  223.4810 C   0  0  0  0  0  0  0  0  0  0  0  0
  135.2300   75.6910  224.2850 C   0  0  0  0  0  0  0  0  0  0  0  0
  134.7130   75.5910  225.5600 C   0  0  0  0  0  0  0  0  0  0  0  0
  134.2430   74.3870  226.0810 C   0  0  0  0  0  0  0  0  0  0  0  0
  134.2890   73.2470  225.3120 C   0  0  0  0  0  0  0  0  0  0  0  0
  134.8000   73.3300  224.0440 C   0  0  0  0  0  0  0  0  0  0  0  0
  135.2650   74.5350  223.5340 C   0  0  0  0  0  0  0  0  0  0  0  0
  138.1020   75.6980  221.9720 N   0  0  0  0  0  0  0  0  0  0  0  0
  141.0850   77.1280  222.8670 C   0  0  0  0  0  0  0  0  0  0  0  0
  141.8435   82.3436  222.2360 H   0  0  0  0  0  0  0  0  0  0  0  0
  141.3279   81.4967  224.4764 H   0  0  0  0  0  0  0  0  0  0  0  0
  140.9573   79.0641  224.8432 H   0  0  0  0  0  0  0  0  0  0  0  0
  142.0162   80.8285  220.2812 H   0  0  0  0  0  0  0  0  0  0  0  0
  141.7673   78.5785  219.4232 H   0  0  0  0  0  0  0  0  0  0  0  0
  142.5264   77.4133  220.5292 H   0  0  0  0  0  0  0  0  0  0  0  0
  139.5053   77.9614  220.2938 H   0  0  0  0  0  0  0  0  0  0  0  0
  140.3301   76.5389  219.6272 H   0  0  0  0  0  0  0  0  0  0  0  0
  140.3610   71.5690  221.4350 H   0  0  0  0  0  0  0  0  0  0  0  0
  138.5931   71.3495  223.8831 H   0  0  0  0  0  0  0  0  0  0  0  0
  139.5837   70.0316  223.2148 H   0  0  0  0  0  0  0  0  0  0  0  0
  141.5723   70.8797  224.1564 H   0  0  0  0  0  0  0  0  0  0  0  0
  140.8564   72.5410  224.3387 H   0  0  0  0  0  0  0  0  0  0  0  0
  139.2522   71.4576  226.0062 H   0  0  0  0  0  0  0  0  0  0  0  0
  142.2151   71.6916  226.6491 H   0  0  0  0  0  0  0  0  0  0  0  0
  140.9995   72.9908  226.7328 H   0  0  0  0  0  0  0  0  0  0  0  0
  141.2490   72.0598  228.9859 H   0  0  0  0  0  0  0  0  0  0  0  0
  139.6726   71.5108  228.3715 H   0  0  0  0  0  0  0  0  0  0  0  0
  140.8902   68.2506  227.5975 H   0  0  0  0  0  0  0  0  0  0  0  0
  139.4160   69.2916  227.8269 H   0  0  0  0  0  0  0  0  0  0  0  0
  141.5158   69.4261  225.6665 H   0  0  0  0  0  0  0  0  0  0  0  0
  139.7076   69.1595  225.5490 H   0  0  0  0  0  0  0  0  0  0  0  0
  135.4443   74.2063  221.3930 H   0  0  0  0  0  0  0  0  0  0  0  0
  136.2429   76.8082  221.3564 H   0  0  0  0  0  0  0  0  0  0  0  0
  134.5510   76.5412  221.6785 H   0  0  0  0  0  0  0  0  0  0  0  0
  136.8619   76.9477  223.6842 H   0  0  0  0  0  0  0  0  0  0  0  0
  135.3314   77.7833  223.6965 H   0  0  0  0  0  0  0  0  0  0  0  0
  134.6702   76.4934  226.1875 H   0  0  0  0  0  0  0  0  0  0  0  0
  133.8370   74.3482  227.1026 H   0  0  0  0  0  0  0  0  0  0  0  0
  133.9227   72.2882  225.7076 H   0  0  0  0  0  0  0  0  0  0  0  0
  134.8428   72.4261  223.4185 H   0  0  0  0  0  0  0  0  0  0  0  0
  140.5544   76.9010  223.8034 H   0  0  0  0  0  0  0  0  0  0  0  0
  142.0637   76.6258  222.8651 H   0  0  0  0  0  0  0  0  0  0  0  0
  1  2  2  0
  2  3  1  0
  3  4  2  0
  4  5  1  0
  5  6  2  0
  5  7  1  0
  7  8  1  0
  8  9  1  0
  9 10  1  0
 10 11  2  0
 11 12  1  0
 12 13  1  0
 13 14  1  0
 14 15  1  0
 15 16  1  0
 16 17  1  0
 17 18  1  0
 18 19  1  0
 19 20  1  0
 20 21  1  0
 12 22  2  0
 22 23  1  0
 23 24  1  0
 24 25  1  0
 25 26  1  0
 26 27  1  0
 27 28  2  0
 28 29  1  0
 29 30  2  0
 30 31  1  0
 31 32  2  0
 23 33  2  0
  9 34  1  0
  6  1  1  0
 33 10  1  0
 34  4  1  0
 21 16  1  0
 32 24  1  0
 32 27  1  0
  1 35  1  0
  2 36  1  0
  3 37  1  0
  6 38  1  0
  7 39  1  0
  7 40  1  0
  8 41  1  0
  8 42  1  0
 13 43  1  0
 14 44  1  0
 14 45  1  0
 15 46  1  0
 15 47  1  0
 16 48  1  0
 17 49  1  0
 17 50  1  0
 18 51  1  0
 18 52  1  0
 20 53  1  0
 20 54  1  0
 21 55  1  0
 21 56  1  0
 24 57  1  6
 25 58  1  0
 25 59  1  0
 26 60  1  0
 26 61  1  0
 28 62  1  0
 29 63  1  0
 30 64  1  0
 31 65  1  0
 34 66  1  0
 34 67  1  0
M  END
>  <smiles>  (37) 
c1ccc2c(c1)CCN(c1nc(NCCC3CCOCC3)nc(C3CCc4ccccc43)n1)C2

>  <score_type>  (37) 
oracle

>  <origin>  (37) 
autodockgpu

>  <m_score__min__energy>  (37) 
-9.9800000000000004

>  <m_primary>  (37) 
energy

>  <rmsd>  (37) 
7.394706107339468

>  <m_score__min__rmsd>  (37) 
7.394706107339468

>  <meeko>  (37) 
{"free_energy": -9.48, "intermolecular_energy": -11.27, "internal_energy": -1.3, "cluster_size": 13, "cluster_id": 2, "rank_in_cluster": 1}

>  <energy>  (37) 
-8.91

>  <cluster_rmsd>  (37) 
1.3

>  <cluster>  (37) 
3

$$$$

     RDKit          3D

 67 72  0  0  0  0  0  0  0  0999 V2000
  140.1630   68.4750  227.5660 C   0  0  0  0  0  0  0  0  0  0  0  0
  141.0680   69.4930  227.7260 C   0  0  0  0  0  0  0  0  0  0  0  0
  141.1180   70.5260  226.8180 C   0  0  0  0  0  0  0  0  0  0  0  0
  140.2370   70.5060  225.7520 C   0  0  0  0  0  0  0  0  0  0  0  0
  139.3250   69.4690  225.6020 C   0  0  0  0  0  0  0  0  0  0  0  0
  139.2750   68.4330  226.5120 C   0  0  0  0  0  0  0  0  0  0  0  0
  138.4240   69.5480  224.4170 C   0  0  0  0  0  0  0  0  0  0  0  0
  139.3110   69.7260  223.2020 C   0  0  0  0  0  0  0  0  0  0  0  0
  140.0440   70.9690  223.4060 N   0  0  0  0  0  0  0  0  0  0  0  0
  140.6070   71.5910  222.2830 C   0  0  0  0  0  0  0  0  0  0  0  0
  140.8670   72.9100  222.3160 N   0  0  0  0  0  0  0  0  0  0  0  0
  141.4130   73.5670  221.2550 C   0  0  0  0  0  0  0  0  0  0  0  0
  141.6790   74.9810  221.3220 N   0  0  0  0  0  0  0  0  0  0  0  0
  141.8510   75.7280  220.0770 C   0  0  0  0  0  0  0  0  0  0  0  0
  143.3330   75.8120  219.8110 C   0  0  0  0  0  0  0  0  0  0  0  0
  143.9730   74.4480  219.6890 C   0  0  0  0  0  0  0  0  0  0  0  0
  145.2450   74.3410  220.4870 C   0  0  0  0  0  0  0  0  0  0  0  0
  145.8500   72.9780  220.1950 C   0  0  0  0  0  0  0  0  0  0  0  0
  146.2810   72.9980  218.8740 O   0  0  0  0  0  0  0  0  0  0  0  0
  145.2160   73.0650  217.9800 C   0  0  0  0  0  0  0  0  0  0  0  0
  144.3190   74.2480  218.2400 C   0  0  0  0  0  0  0  0  0  0  0  0
  141.6880   72.8500  220.1670 N   0  0  0  0  0  0  0  0  0  0  0  0
  141.4490   71.5300  220.0790 C   0  0  0  0  0  0  0  0  0  0  0  0
  141.7380   70.7070  218.8950 C   0  0  2  0  0  0  0  0  0  0  0  0
  140.7000   69.6140  218.7470 C   0  0  0  0  0  0  0  0  0  0  0  0
  141.2130   68.5640  219.7110 C   0  0  0  0  0  0  0  0  0  0  0  0
  142.6820   68.6500  219.5040 C   0  0  0  0  0  0  0  0  0  0  0  0
  143.7300   67.7720  219.6870 C   0  0  0  0  0  0  0  0  0  0  0  0
  145.0500   68.1190  219.4060 C   0  0  0  0  0  0  0  0  0  0  0  0
  145.3380   69.3780  218.9290 C   0  0  0  0  0  0  0  0  0  0  0  0
  144.3080   70.2610  218.7430 C   0  0  0  0  0  0  0  0  0  0  0  0
  142.9950   69.9050  219.0250 C   0  0  0  0  0  0  0  0  0  0  0  0
  140.9010   70.8930  221.1530 N   0  0  0  0  0  0  0  0  0  0  0  0
  140.2030   71.5680  224.7130 C   0  0  0  0  0  0  0  0  0  0  0  0
  140.1449   67.6615  228.3062 H   0  0  0  0  0  0  0  0  0  0  0  0
  141.7567   69.4838  228.5836 H   0  0  0  0  0  0  0  0  0  0  0  0
  141.8405   71.3469  226.9371 H   0  0  0  0  0  0  0  0  0  0  0  0
  138.5563   67.6076  226.4012 H   0  0  0  0  0  0  0  0  0  0  0  0
  137.8376   68.6219  224.3251 H   0  0  0  0  0  0  0  0  0  0  0  0
  137.7169   70.3849  224.5147 H   0  0  0  0  0  0  0  0  0  0  0  0
  140.0107   68.8817  223.1148 H   0  0  0  0  0  0  0  0  0  0  0  0
  138.7174   69.7605  222.2766 H   0  0  0  0  0  0  0  0  0  0  0  0
  141.7390   75.4190  222.2610 H   0  0  0  0  0  0  0  0  0  0  0  0
  141.3484   75.2044  219.2504 H   0  0  0  0  0  0  0  0  0  0  0  0
  141.4106   76.7326  220.1593 H   0  0  0  0  0  0  0  0  0  0  0  0
  143.4931   76.3629  218.8725 H   0  0  0  0  0  0  0  0  0  0  0  0
  143.7990   76.3269  220.6641 H   0  0  0  0  0  0  0  0  0  0  0  0
  143.2690   73.6938  220.0705 H   0  0  0  0  0  0  0  0  0  0  0  0
  145.9448   75.1351  220.1877 H   0  0  0  0  0  0  0  0  0  0  0  0
  145.0403   74.4534  221.5619 H   0  0  0  0  0  0  0  0  0  0  0  0
  146.7006   72.7907  220.8669 H   0  0  0  0  0  0  0  0  0  0  0  0
  145.1111   72.1788  220.3542 H   0  0  0  0  0  0  0  0  0  0  0  0
  145.6169   73.1438  216.9587 H   0  0  0  0  0  0  0  0  0  0  0  0
  144.6136   72.1536  218.1082 H   0  0  0  0  0  0  0  0  0  0  0  0
  144.8277   75.1536  217.8780 H   0  0  0  0  0  0  0  0  0  0  0  0
  143.3741   74.0522  217.7120 H   0  0  0  0  0  0  0  0  0  0  0  0
  141.7817   71.4325  218.0693 H   0  0  0  0  0  0  0  0  0  0  0  0
  139.7003   69.9695  219.0373 H   0  0  0  0  0  0  0  0  0  0  0  0
  140.5810   69.2505  217.7156 H   0  0  0  0  0  0  0  0  0  0  0  0
  140.9403   68.8062  220.7488 H   0  0  0  0  0  0  0  0  0  0  0  0
  140.7976   67.5603  219.5376 H   0  0  0  0  0  0  0  0  0  0  0  0
  143.5162   66.7625  220.0681 H   0  0  0  0  0  0  0  0  0  0  0  0
  145.8585   67.3901  219.5646 H   0  0  0  0  0  0  0  0  0  0  0  0
  146.3743   69.6686  218.7019 H   0  0  0  0  0  0  0  0  0  0  0  0
  144.5241   71.2706  218.3634 H   0  0  0  0  0  0  0  0  0  0  0  0
  141.1437   72.1375  224.7418 H   0  0  0  0  0  0  0  0  0  0  0  0
  139.3560   72.2418  224.9095 H   0  0  0  0  0  0  0  0  0  0  0  0
  1  2  2  0
  2  3  1  0
  3  4  2  0
  4  5  1  0
  5  6  2  0
  5  7  1  0
  7  8  1  0
  8  9  1  0
  9 10  1  0
 10 11  2  0
 11 12  1  0
 12 13  1  0
 13 14  1  0
 14 15  1  0
 15 16  1  0
 16 17  1  0
 17 18  1  0
 18 19  1  0
 19 20  1  0
 20 21  1  0
 12 22  2  0
 22 23  1  0
 23 24  1  0
 24 25  1  0
 25 26  1  0
 26 27  1  0
 27 28  2  0
 28 29  1  0
 29 30  2  0
 30 31  1  0
 31 32  2  0
 23 33  2  0
  9 34  1  0
  6  1  1  0
 33 10  1  0
 34  4  1  0
 21 16  1  0
 32 24  1  0
 32 27  1  0
  1 35  1  0
  2 36  1  0
  3 37  1  0
  6 38  1  0
  7 39  1  0
  7 40  1  0
  8 41  1  0
  8 42  1  0
 13 43  1  0
 14 44  1  0
 14 45  1  0
 15 46  1  0
 15 47  1  0
 16 48  1  0
 17 49  1  0
 17 50  1  0
 18 51  1  0
 18 52  1  0
 20 53  1  0
 20 54  1  0
 21 55  1  0
 21 56  1  0
 24 57  1  6
 25 58  1  0
 25 59  1  0
 26 60  1  0
 26 61  1  0
 28 62  1  0
 29 63  1  0
 30 64  1  0
 31 65  1  0
 34 66  1  0
 34 67  1  0
M  END
>  <smiles>  (38) 
c1ccc2c(c1)CCN(c1nc(NCCC3CCOCC3)nc(C3CCc4ccccc43)n1)C2

>  <score_type>  (38) 
oracle

>  <origin>  (38) 
autodockgpu

>  <m_score__min__energy>  (38) 
-9.9800000000000004

>  <m_primary>  (38) 
energy

>  <rmsd>  (38) 
6.972684837900415

>  <m_score__min__rmsd>  (38) 
6.972684837900415

>  <meeko>  (38) 
{"free_energy": -8.93, "intermolecular_energy": -10.72, "internal_energy": -1.83, "cluster_size": 2, "cluster_id": 7, "rank_in_cluster": 1}

>  <energy>  (38) 
-8.8

>  <cluster_rmsd>  (38) 
1.02

>  <cluster>  (38) 
3

$$$$

     RDKit          3D

 67 72  0  0  0  0  0  0  0  0999 V2000
  140.1740   68.1290  227.2300 C   0  0  0  0  0  0  0  0  0  0  0  0
  141.0450   69.1510  227.5110 C   0  0  0  0  0  0  0  0  0  0  0  0
  141.0750   70.2750  226.7180 C   0  0  0  0  0  0  0  0  0  0  0  0
  140.2100   70.3420  225.6410 C   0  0  0  0  0  0  0  0  0  0  0  0
  139.3320   69.3020  225.3680 C   0  0  0  0  0  0  0  0  0  0  0  0
  139.3020   68.1740  226.1630 C   0  0  0  0  0  0  0  0  0  0  0  0
  138.4440   69.4800  224.1840 C   0  0  0  0  0  0  0  0  0  0  0  0
  139.3420   69.8110  223.0090 C   0  0  0  0  0  0  0  0  0  0  0  0
  140.0340   71.0470  223.3550 N   0  0  0  0  0  0  0  0  0  0  0  0
  140.5930   71.8000  222.3130 C   0  0  0  0  0  0  0  0  0  0  0  0
  140.7300   73.1300  222.4560 N   0  0  0  0  0  0  0  0  0  0  0  0
  141.2660   73.9120  221.4790 C   0  0  0  0  0  0  0  0  0  0  0  0
  141.3990   75.3340  221.6630 N   0  0  0  0  0  0  0  0  0  0  0  0
  140.4810   76.2280  220.9600 C   0  0  0  0  0  0  0  0  0  0  0  0
  141.1170   77.5960  220.9480 C   0  0  0  0  0  0  0  0  0  0  0  0
  141.0590   78.2690  222.3000 C   0  0  0  0  0  0  0  0  0  0  0  0
  139.7890   79.0530  222.4930 C   0  0  0  0  0  0  0  0  0  0  0  0
  139.8980   79.7700  223.8290 C   0  0  0  0  0  0  0  0  0  0  0  0
  140.8780   80.7450  223.6890 O   0  0  0  0  0  0  0  0  0  0  0  0
  142.1440   80.1900  223.5290 C   0  0  0  0  0  0  0  0  0  0  0  0
  142.2110   79.2320  222.3670 C   0  0  0  0  0  0  0  0  0  0  0  0
  141.6560   73.3080  220.3580 N   0  0  0  0  0  0  0  0  0  0  0  0
  141.5430   71.9830  220.1610 C   0  0  0  0  0  0  0  0  0  0  0  0
  141.9610   71.2820  218.9370 C   0  0  2  0  0  0  0  0  0  0  0  0
  140.9260   70.2510  218.5400 C   0  0  0  0  0  0  0  0  0  0  0  0
  141.2870   69.0850  219.4370 C   0  0  0  0  0  0  0  0  0  0  0  0
  142.7720   69.1380  219.4260 C   0  0  0  0  0  0  0  0  0  0  0  0
  143.7680   68.2080  219.6390 C   0  0  0  0  0  0  0  0  0  0  0  0
  145.1200   68.5340  219.5660 C   0  0  0  0  0  0  0  0  0  0  0  0
  145.4960   69.8250  219.2720 C   0  0  0  0  0  0  0  0  0  0  0  0
  144.5190   70.7600  219.0590 C   0  0  0  0  0  0  0  0  0  0  0  0
  143.1730   70.4250  219.1330 C   0  0  0  0  0  0  0  0  0  0  0  0
  141.0030   71.2190  221.1530 N   0  0  0  0  0  0  0  0  0  0  0  0
  140.1570   71.5080  224.7210 C   0  0  0  0  0  0  0  0  0  0  0  0
  140.1712   67.2413  227.8796 H   0  0  0  0  0  0  0  0  0  0  0  0
  141.7223   69.0715  228.3741 H   0  0  0  0  0  0  0  0  0  0  0  0
  141.7697   71.0998  226.9352 H   0  0  0  0  0  0  0  0  0  0  0  0
  138.6104   67.3446  225.9537 H   0  0  0  0  0  0  0  0  0  0  0  0
  137.8871   68.5524  223.9855 H   0  0  0  0  0  0  0  0  0  0  0  0
  137.7102   70.2808  224.3578 H   0  0  0  0  0  0  0  0  0  0  0  0
  140.0684   69.0013  222.8454 H   0  0  0  0  0  0  0  0  0  0  0  0
  138.7603   69.9256  222.0824 H   0  0  0  0  0  0  0  0  0  0  0  0
  142.1510   75.6730  222.2950 H   0  0  0  0  0  0  0  0  0  0  0  0
  140.3253   75.8751  219.9298 H   0  0  0  0  0  0  0  0  0  0  0  0
  139.5015   76.2557  221.4599 H   0  0  0  0  0  0  0  0  0  0  0  0
  142.1706   77.4933  220.6492 H   0  0  0  0  0  0  0  0  0  0  0  0
  140.5562   78.2209  220.2374 H   0  0  0  0  0  0  0  0  0  0  0  0
  141.1012   77.4946  223.0801 H   0  0  0  0  0  0  0  0  0  0  0  0
  139.6722   79.7859  221.6811 H   0  0  0  0  0  0  0  0  0  0  0  0
  138.9142   78.3862  222.4795 H   0  0  0  0  0  0  0  0  0  0  0  0
  138.9356   80.2362  224.0870 H   0  0  0  0  0  0  0  0  0  0  0  0
  140.1581   79.0650  224.6323 H   0  0  0  0  0  0  0  0  0  0  0  0
  142.8664   81.0020  223.3590 H   0  0  0  0  0  0  0  0  0  0  0  0
  142.3793   79.6245  224.4427 H   0  0  0  0  0  0  0  0  0  0  0  0
  142.2262   79.8181  221.4363 H   0  0  0  0  0  0  0  0  0  0  0  0
  143.1212   78.6296  222.5039 H   0  0  0  0  0  0  0  0  0  0  0  0
  142.1256   72.0897  218.2086 H   0  0  0  0  0  0  0  0  0  0  0  0
  139.9059   70.6099  218.7414 H   0  0  0  0  0  0  0  0  0  0  0  0
  140.9315   70.0055  217.4678 H   0  0  0  0  0  0  0  0  0  0  0  0
  140.8892   69.2238  220.4531 H   0  0  0  0  0  0  0  0  0  0  0  0
  140.8742   68.1220  219.1019 H   0  0  0  0  0  0  0  0  0  0  0  0
  143.4843   67.1717  219.8750 H   0  0  0  0  0  0  0  0  0  0  0  0
  145.8843   67.7629  219.7426 H   0  0  0  0  0  0  0  0  0  0  0  0
  146.5593   70.0997  219.2095 H   0  0  0  0  0  0  0  0  0  0  0  0
  144.8052   71.7960  218.8249 H   0  0  0  0  0  0  0  0  0  0  0  0
  141.0791   72.0986  224.8258 H   0  0  0  0  0  0  0  0  0  0  0  0
  139.2874   72.1322  224.9742 H   0  0  0  0  0  0  0  0  0  0  0  0
  1  2  2  0
  2  3  1  0
  3  4  2  0
  4  5  1  0
  5  6  2  0
  5  7  1  0
  7  8  1  0
  8  9  1  0
  9 10  1  0
 10 11  2  0
 11 12  1  0
 12 13  1  0
 13 14  1  0
 14 15  1  0
 15 16  1  0
 16 17  1  0
 17 18  1  0
 18 19  1  0
 19 20  1  0
 20 21  1  0
 12 22  2  0
 22 23  1  0
 23 24  1  0
 24 25  1  0
 25 26  1  0
 26 27  1  0
 27 28  2  0
 28 29  1  0
 29 30  2  0
 30 31  1  0
 31 32  2  0
 23 33  2  0
  9 34  1  0
  6  1  1  0
 33 10  1  0
 34  4  1  0
 21 16  1  0
 32 24  1  0
 32 27  1  0
  1 35  1  0
  2 36  1  0
  3 37  1  0
  6 38  1  0
  7 39  1  0
  7 40  1  0
  8 41  1  0
  8 42  1  0
 13 43  1  0
 14 44  1  0
 14 45  1  0
 15 46  1  0
 15 47  1  0
 16 48  1  0
 17 49  1  0
 17 50  1  0
 18 51  1  0
 18 52  1  0
 20 53  1  0
 20 54  1  0
 21 55  1  0
 21 56  1  0
 24 57  1  6
 25 58  1  0
 25 59  1  0
 26 60  1  0
 26 61  1  0
 28 62  1  0
 29 63  1  0
 30 64  1  0
 31 65  1  0
 34 66  1  0
 34 67  1  0
M  END
>  <smiles>  (39) 
c1ccc2c(c1)CCN(c1nc(NCCC3CCOCC3)nc(C3CCc4ccccc43)n1)C2

>  <score_type>  (39) 
oracle

>  <origin>  (39) 
autodockgpu

>  <m_score__min__energy>  (39) 
-9.9800000000000004

>  <m_primary>  (39) 
energy

>  <rmsd>  (39) 
6.9388665597779

>  <m_score__min__rmsd>  (39) 
6.9388665597779

>  <meeko>  (39) 
{"free_energy": -9.19, "intermolecular_energy": -10.98, "internal_energy": -1.03, "cluster_size": 2, "cluster_id": 5, "rank_in_cluster": 1}

>  <energy>  (39) 
-8.78

>  <cluster_rmsd>  (39) 
1.71

>  <cluster>  (39) 
3

$$$$

     RDKit          3D

 67 72  0  0  0  0  0  0  0  0999 V2000
  140.4870   67.7400  226.8880 C   0  0  0  0  0  0  0  0  0  0  0  0
  141.0680   68.8670  227.4140 C   0  0  0  0  0  0  0  0  0  0  0  0
  140.8760   70.0900  226.8140 C   0  0  0  0  0  0  0  0  0  0  0  0
  140.0880   70.1480  225.6790 C   0  0  0  0  0  0  0  0  0  0  0  0
  139.5050   69.0010  225.1580 C   0  0  0  0  0  0  0  0  0  0  0  0
  139.6990   67.7730  225.7590 C   0  0  0  0  0  0  0  0  0  0  0  0
  138.6760   69.1780  223.9320 C   0  0  0  0  0  0  0  0  0  0  0  0
  139.5390   69.9060  222.9210 C   0  0  0  0  0  0  0  0  0  0  0  0
  139.8910   71.1860  223.5250 N   0  0  0  0  0  0  0  0  0  0  0  0
  140.3150   72.2180  222.6760 C   0  0  0  0  0  0  0  0  0  0  0  0
  139.6900   73.4070  222.7150 N   0  0  0  0  0  0  0  0  0  0  0  0
  140.0580   74.4460  221.9140 C   0  0  0  0  0  0  0  0  0  0  0  0
  139.3680   75.7080  221.9790 N   0  0  0  0  0  0  0  0  0  0  0  0
  139.7470   76.7710  221.0510 C   0  0  0  0  0  0  0  0  0  0  0  0
  141.1120   77.2590  221.4710 C   0  0  0  0  0  0  0  0  0  0  0  0
  141.0790   78.6740  221.9990 C   0  0  0  0  0  0  0  0  0  0  0  0
  141.7970   79.6380  221.0930 C   0  0  0  0  0  0  0  0  0  0  0  0
  141.7950   80.9930  221.7810 C   0  0  0  0  0  0  0  0  0  0  0  0
  142.6270   80.8890  222.8890 O   0  0  0  0  0  0  0  0  0  0  0  0
  142.0960   80.0450  223.8600 C   0  0  0  0  0  0  0  0  0  0  0  0
  141.7880   78.6710  223.3240 C   0  0  0  0  0  0  0  0  0  0  0  0
  141.0750   74.2420  221.0790 N   0  0  0  0  0  0  0  0  0  0  0  0
  141.7360   73.0740  220.9990 C   0  0  0  0  0  0  0  0  0  0  0  0
  142.8620   72.8130  220.0880 C   0  0  2  0  0  0  0  0  0  0  0  0
  144.1660   73.2430  220.7270 C   0  0  0  0  0  0  0  0  0  0  0  0
  144.1720   74.7330  220.4500 C   0  0  0  0  0  0  0  0  0  0  0  0
  143.6070   74.7920  219.0770 C   0  0  0  0  0  0  0  0  0  0  0  0
  143.6970   75.6970  218.0410 C   0  0  0  0  0  0  0  0  0  0  0  0
  143.0470   75.5030  216.8240 C   0  0  0  0  0  0  0  0  0  0  0  0
  142.2850   74.3740  216.6300 C   0  0  0  0  0  0  0  0  0  0  0  0
  142.1860   73.4660  217.6500 C   0  0  0  0  0  0  0  0  0  0  0  0
  142.8380   73.6690  218.8600 C   0  0  0  0  0  0  0  0  0  0  0  0
  141.3490   72.0480  221.8090 N   0  0  0  0  0  0  0  0  0  0  0  0
  139.8140   71.4150  224.9510 C   0  0  0  0  0  0  0  0  0  0  0  0
  140.6572   66.7745  227.3869 H   0  0  0  0  0  0  0  0  0  0  0  0
  141.6894   68.7919  228.3186 H   0  0  0  0  0  0  0  0  0  0  0  0
  141.3378   70.9991  227.2267 H   0  0  0  0  0  0  0  0  0  0  0  0
  139.2427   66.8584  225.3525 H   0  0  0  0  0  0  0  0  0  0  0  0
  138.3729   68.1979  223.5351 H   0  0  0  0  0  0  0  0  0  0  0  0
  137.7613   69.7477  224.1530 H   0  0  0  0  0  0  0  0  0  0  0  0
  140.4474   69.3238  222.7071 H   0  0  0  0  0  0  0  0  0  0  0  0
  139.0050   70.0476  221.9698 H   0  0  0  0  0  0  0  0  0  0  0  0
  138.6190   75.8140  222.6910 H   0  0  0  0  0  0  0  0  0  0  0  0
  139.7856   76.3794  220.0238 H   0  0  0  0  0  0  0  0  0  0  0  0
  139.0137   77.5906  221.0730 H   0  0  0  0  0  0  0  0  0  0  0  0
  141.4971   76.5962  222.2599 H   0  0  0  0  0  0  0  0  0  0  0  0
  141.7610   77.2469  220.5830 H   0  0  0  0  0  0  0  0  0  0  0  0
  140.0300   78.9963  222.0743 H   0  0  0  0  0  0  0  0  0  0  0  0
  142.8311   79.3009  220.9287 H   0  0  0  0  0  0  0  0  0  0  0  0
  141.2979   79.6977  220.1146 H   0  0  0  0  0  0  0  0  0  0  0  0
  142.1742   81.7650  221.0953 H   0  0  0  0  0  0  0  0  0  0  0  0
  140.7761   81.2784  222.0815 H   0  0  0  0  0  0  0  0  0  0  0  0
  142.8230   79.9490  224.6799 H   0  0  0  0  0  0  0  0  0  0  0  0
  141.1509   80.4879  224.2074 H   0  0  0  0  0  0  0  0  0  0  0  0
  142.7359   78.1252  223.2073 H   0  0  0  0  0  0  0  0  0  0  0  0
  141.1090   78.1937  224.0460 H   0  0  0  0  0  0  0  0  0  0  0  0
  142.7790   71.7403  219.8588 H   0  0  0  0  0  0  0  0  0  0  0  0
  144.1695   73.0367  221.8075 H   0  0  0  0  0  0  0  0  0  0  0  0
  145.0483   72.7143  220.3369 H   0  0  0  0  0  0  0  0  0  0  0  0
  143.5385   75.2757  221.1670 H   0  0  0  0  0  0  0  0  0  0  0  0
  145.1645   75.1982  220.5425 H   0  0  0  0  0  0  0  0  0  0  0  0
  144.3033   76.6042  218.1801 H   0  0  0  0  0  0  0  0  0  0  0  0
  143.1426   76.2494  216.0216 H   0  0  0  0  0  0  0  0  0  0  0  0
  141.7660   74.2043  215.6751 H   0  0  0  0  0  0  0  0  0  0  0  0
  141.5793   72.5594  217.5089 H   0  0  0  0  0  0  0  0  0  0  0  0
  140.5587   72.1711  225.2404 H   0  0  0  0  0  0  0  0  0  0  0  0
  138.8056   71.7714  225.2081 H   0  0  0  0  0  0  0  0  0  0  0  0
  1  2  2  0
  2  3  1  0
  3  4  2  0
  4  5  1  0
  5  6  2  0
  5  7  1  0
  7  8  1  0
  8  9  1  0
  9 10  1  0
 10 11  2  0
 11 12  1  0
 12 13  1  0
 13 14  1  0
 14 15  1  0
 15 16  1  0
 16 17  1  0
 17 18  1  0
 18 19  1  0
 19 20  1  0
 20 21  1  0
 12 22  2  0
 22 23  1  0
 23 24  1  0
 24 25  1  0
 25 26  1  0
 26 27  1  0
 27 28  2  0
 28 29  1  0
 29 30  2  0
 30 31  1  0
 31 32  2  0
 23 33  2  0
  9 34  1  0
  6  1  1  0
 33 10  1  0
 34  4  1  0
 21 16  1  0
 32 24  1  0
 32 27  1  0
  1 35  1  0
  2 36  1  0
  3 37  1  0
  6 38  1  0
  7 39  1  0
  7 40  1  0
  8 41  1  0
  8 42  1  0
 13 43  1  0
 14 44  1  0
 14 45  1  0
 15 46  1  0
 15 47  1  0
 16 48  1  0
 17 49  1  0
 17 50  1  0
 18 51  1  0
 18 52  1  0
 20 53  1  0
 20 54  1  0
 21 55  1  0
 21 56  1  0
 24 57  1  6
 25 58  1  0
 25 59  1  0
 26 60  1  0
 26 61  1  0
 28 62  1  0
 29 63  1  0
 30 64  1  0
 31 65  1  0
 34 66  1  0
 34 67  1  0
M  END
>  <smiles>  (40) 
c1ccc2c(c1)CCN(c1nc(NCCC3CCOCC3)nc(C3CCc4ccccc43)n1)C2

>  <score_type>  (40) 
oracle

>  <origin>  (40) 
autodockgpu

>  <m_score__min__energy>  (40) 
-9.9800000000000004

>  <m_primary>  (40) 
energy

>  <rmsd>  (40) 
9.21622755302673

>  <m_score__min__rmsd>  (40) 
9.21622755302673

>  <meeko>  (40) 
{"free_energy": -9.12, "intermolecular_energy": -10.91, "internal_energy": -1.53, "cluster_size": 3, "cluster_id": 6, "rank_in_cluster": 2}

>  <energy>  (40) 
-9.21

>  <cluster_rmsd>  (40) 
0.0

>  <cluster>  (40) 
4

$$$$

     RDKit          3D

 67 72  0  0  0  0  0  0  0  0999 V2000
  141.8200   81.0660  224.1590 C   0  0  0  0  0  0  0  0  0  0  0  0
  142.9600   80.5540  223.5920 C   0  0  0  0  0  0  0  0  0  0  0  0
  142.8790   79.5290  222.6780 C   0  0  0  0  0  0  0  0  0  0  0  0
  141.6290   79.0370  222.3510 C   0  0  0  0  0  0  0  0  0  0  0  0
  140.4830   79.5650  222.9310 C   0  0  0  0  0  0  0  0  0  0  0  0
  140.5640   80.5930  223.8490 C   0  0  0  0  0  0  0  0  0  0  0  0
  139.1880   78.9610  222.5070 C   0  0  0  0  0  0  0  0  0  0  0  0
  139.3130   77.4650  222.7160 C   0  0  0  0  0  0  0  0  0  0  0  0
  140.4170   77.0220  221.8740 N   0  0  0  0  0  0  0  0  0  0  0  0
  140.4870   75.6610  221.5460 C   0  0  0  0  0  0  0  0  0  0  0  0
  139.8370   74.7620  222.3060 N   0  0  0  0  0  0  0  0  0  0  0  0
  139.8690   73.4270  222.0350 C   0  0  0  0  0  0  0  0  0  0  0  0
  139.1610   72.4890  222.8680 N   0  0  0  0  0  0  0  0  0  0  0  0
  139.8910   71.3570  223.4370 C   0  0  0  0  0  0  0  0  0  0  0  0
  140.6960   71.8860  224.5980 C   0  0  0  0  0  0  0  0  0  0  0  0
  140.2410   71.3140  225.9200 C   0  0  0  0  0  0  0  0  0  0  0  0
  140.9910   71.9030  227.0850 C   0  0  0  0  0  0  0  0  0  0  0  0
  140.5310   71.1730  228.3360 C   0  0  0  0  0  0  0  0  0  0  0  0
  141.0120   69.8720  228.2490 O   0  0  0  0  0  0  0  0  0  0  0  0
  140.3950   69.1570  227.2250 C   0  0  0  0  0  0  0  0  0  0  0  0
  140.5240   69.8380  225.8870 C   0  0  0  0  0  0  0  0  0  0  0  0
  140.5760   73.0350  220.9770 N   0  0  0  0  0  0  0  0  0  0  0  0
  141.2450   73.8900  220.1840 C   0  0  0  0  0  0  0  0  0  0  0  0
  142.0360   73.4930  219.0090 C   0  0  2  0  0  0  0  0  0  0  0  0
  141.5280   72.1790  218.4510 C   0  0  0  0  0  0  0  0  0  0  0  0
  142.2060   71.1730  219.3590 C   0  0  0  0  0  0  0  0  0  0  0  0
  143.5470   71.7840  219.5460 C   0  0  0  0  0  0  0  0  0  0  0  0
  144.7930   71.2850  219.8650 C   0  0  0  0  0  0  0  0  0  0  0  0
  145.9150   72.1030  219.9800 C   0  0  0  0  0  0  0  0  0  0  0  0
  145.7960   73.4580  219.7720 C   0  0  0  0  0  0  0  0  0  0  0  0
  144.5660   73.9680  219.4560 C   0  0  0  0  0  0  0  0  0  0  0  0
  143.4530   73.1440  219.3420 C   0  0  0  0  0  0  0  0  0  0  0  0
  141.1990   75.2210  220.4740 N   0  0  0  0  0  0  0  0  0  0  0  0
  141.4250   77.9330  221.3770 C   0  0  0  0  0  0  0  0  0  0  0  0
  141.9127   81.8845  224.8881 H   0  0  0  0  0  0  0  0  0  0  0  0
  143.9421   80.9646  223.8693 H   0  0  0  0  0  0  0  0  0  0  0  0
  143.7868   79.1110  222.2185 H   0  0  0  0  0  0  0  0  0  0  0  0
  139.6619   81.0172  224.3141 H   0  0  0  0  0  0  0  0  0  0  0  0
  138.3655   79.3612  223.1180 H   0  0  0  0  0  0  0  0  0  0  0  0
  138.9690   79.1955  221.4548 H   0  0  0  0  0  0  0  0  0  0  0  0
  139.5282   77.2452  223.7721 H   0  0  0  0  0  0  0  0  0  0  0  0
  138.3789   76.9466  222.4538 H   0  0  0  0  0  0  0  0  0  0  0  0
  138.1500   72.6560  223.0350 H   0  0  0  0  0  0  0  0  0  0  0  0
  139.1845   70.5897  223.7863 H   0  0  0  0  0  0  0  0  0  0  0  0
  140.5469   70.8960  222.6838 H   0  0  0  0  0  0  0  0  0  0  0  0
  141.7531   71.6234  224.4442 H   0  0  0  0  0  0  0  0  0  0  0  0
  140.5539   72.9761  224.6366 H   0  0  0  0  0  0  0  0  0  0  0  0
  139.1734   71.5432  226.0533 H   0  0  0  0  0  0  0  0  0  0  0  0
  142.0731   71.7640  226.9448 H   0  0  0  0  0  0  0  0  0  0  0  0
  140.7933   72.9818  227.1694 H   0  0  0  0  0  0  0  0  0  0  0  0
  140.9366   71.6663  229.2316 H   0  0  0  0  0  0  0  0  0  0  0  0
  139.4337   71.1808  228.4132 H   0  0  0  0  0  0  0  0  0  0  0  0
  140.8590   68.1617  227.1605 H   0  0  0  0  0  0  0  0  0  0  0  0
  139.3233   69.0889  227.4635 H   0  0  0  0  0  0  0  0  0  0  0  0
  141.5514   69.6913  225.5223 H   0  0  0  0  0  0  0  0  0  0  0  0
  139.7700   69.3850  225.2264 H   0  0  0  0  0  0  0  0  0  0  0  0
  141.9595   74.3556  218.3307 H   0  0  0  0  0  0  0  0  0  0  0  0
  140.4326   72.1098  218.5240 H   0  0  0  0  0  0  0  0  0  0  0  0
  141.7482   72.0340  217.3831 H   0  0  0  0  0  0  0  0  0  0  0  0
  141.6735   71.0758  220.3166 H   0  0  0  0  0  0  0  0  0  0  0  0
  142.2357   70.1529  218.9484 H   0  0  0  0  0  0  0  0  0  0  0  0
  144.9045   70.2039  220.0344 H   0  0  0  0  0  0  0  0  0  0  0  0
  146.8921   71.6673  220.2360 H   0  0  0  0  0  0  0  0  0  0  0  0
  146.6718   74.1179  219.8580 H   0  0  0  0  0  0  0  0  0  0  0  0
  144.4565   75.0498  219.2892 H   0  0  0  0  0  0  0  0  0  0  0  0
  142.3712   77.3898  221.2370 H   0  0  0  0  0  0  0  0  0  0  0  0
  141.0934   78.3528  220.4159 H   0  0  0  0  0  0  0  0  0  0  0  0
  1  2  2  0
  2  3  1  0
  3  4  2  0
  4  5  1  0
  5  6  2  0
  5  7  1  0
  7  8  1  0
  8  9  1  0
  9 10  1  0
 10 11  2  0
 11 12  1  0
 12 13  1  0
 13 14  1  0
 14 15  1  0
 15 16  1  0
 16 17  1  0
 17 18  1  0
 18 19  1  0
 19 20  1  0
 20 21  1  0
 12 22  2  0
 22 23  1  0
 23 24  1  0
 24 25  1  0
 25 26  1  0
 26 27  1  0
 27 28  2  0
 28 29  1  0
 29 30  2  0
 30 31  1  0
 31 32  2  0
 23 33  2  0
  9 34  1  0
  6  1  1  0
 33 10  1  0
 34  4  1  0
 21 16  1  0
 32 24  1  0
 32 27  1  0
  1 35  1  0
  2 36  1  0
  3 37  1  0
  6 38  1  0
  7 39  1  0
  7 40  1  0
  8 41  1  0
  8 42  1  0
 13 43  1  0
 14 44  1  0
 14 45  1  0
 15 46  1  0
 15 47  1  0
 16 48  1  0
 17 49  1  0
 17 50  1  0
 18 51  1  0
 18 52  1  0
 20 53  1  0
 20 54  1  0
 21 55  1  0
 21 56  1  0
 24 57  1  6
 25 58  1  0
 25 59  1  0
 26 60  1  0
 26 61  1  0
 28 62  1  0
 29 63  1  0
 30 64  1  0
 31 65  1  0
 34 66  1  0
 34 67  1  0
M  END
>  <smiles>  (41) 
c1ccc2c(c1)CCN(c1nc(NCCC3CCOCC3)nc(C3CCc4ccccc43)n1)C2

>  <score_type>  (41) 
oracle

>  <origin>  (41) 
autodockgpu

>  <m_score__min__energy>  (41) 
-9.9800000000000004

>  <m_primary>  (41) 
energy

>  <rmsd>  (41) 
7.383728664127771

>  <m_score__min__rmsd>  (41) 
7.383728664127771

>  <meeko>  (41) 
{"free_energy": -9.73, "intermolecular_energy": -11.52, "internal_energy": -1.23, "cluster_size": 19, "cluster_id": 1, "rank_in_cluster": 8}

>  <energy>  (41) 
-9.19

>  <cluster_rmsd>  (41) 
0.0

>  <cluster>  (41) 
5

$$$$

     RDKit          3D

 67 72  0  0  0  0  0  0  0  0999 V2000
  141.3350   80.9910  223.9170 C   0  0  0  0  0  0  0  0  0  0  0  0
  142.4720   80.4940  223.3320 C   0  0  0  0  0  0  0  0  0  0  0  0
  142.3960   79.4320  222.4600 C   0  0  0  0  0  0  0  0  0  0  0  0
  141.1520   78.8880  222.1960 C   0  0  0  0  0  0  0  0  0  0  0  0
  140.0090   79.4010  222.7930 C   0  0  0  0  0  0  0  0  0  0  0  0
  140.0850   80.4660  223.6680 C   0  0  0  0  0  0  0  0  0  0  0  0
  138.7220   78.7390  222.4370 C   0  0  0  0  0  0  0  0  0  0  0  0
  138.9040   77.2580  222.6980 C   0  0  0  0  0  0  0  0  0  0  0  0
  139.9940   76.8180  221.8370 N   0  0  0  0  0  0  0  0  0  0  0  0
  140.0990   75.4480  221.5580 C   0  0  0  0  0  0  0  0  0  0  0  0
  139.2150   74.5920  222.1000 N   0  0  0  0  0  0  0  0  0  0  0  0
  139.2680   73.2510  221.8660 C   0  0  0  0  0  0  0  0  0  0  0  0
  138.3060   72.3600  222.4610 N   0  0  0  0  0  0  0  0  0  0  0  0
  138.7240   71.5090  223.5730 C   0  0  0  0  0  0  0  0  0  0  0  0
  140.2310   71.5550  223.6240 C   0  0  0  0  0  0  0  0  0  0  0  0
  140.7870   70.8660  224.8490 C   0  0  0  0  0  0  0  0  0  0  0  0
  139.9580   69.6790  225.2600 C   0  0  0  0  0  0  0  0  0  0  0  0
  140.5450   69.1440  226.5570 C   0  0  0  0  0  0  0  0  0  0  0  0
  140.2880   70.0910  227.5410 O   0  0  0  0  0  0  0  0  0  0  0  0
  141.0080   71.2640  227.3330 C   0  0  0  0  0  0  0  0  0  0  0  0
  140.7550   71.8630  225.9730 C   0  0  0  0  0  0  0  0  0  0  0  0
  140.2380   72.8080  221.0680 N   0  0  0  0  0  0  0  0  0  0  0  0
  141.1480   73.6190  220.5000 C   0  0  0  0  0  0  0  0  0  0  0  0
  142.2320   73.1650  219.6160 C   0  0  2  0  0  0  0  0  0  0  0  0
  142.3080   71.6520  219.6080 C   0  0  0  0  0  0  0  0  0  0  0  0
  143.1000   71.3740  220.8700 C   0  0  0  0  0  0  0  0  0  0  0  0
  144.0990   72.4740  220.8540 C   0  0  0  0  0  0  0  0  0  0  0  0
  145.3550   72.6370  221.3980 C   0  0  0  0  0  0  0  0  0  0  0  0
  146.0960   73.8050  221.2240 C   0  0  0  0  0  0  0  0  0  0  0  0
  145.5720   74.8420  220.4870 C   0  0  0  0  0  0  0  0  0  0  0  0
  144.3250   74.6950  219.9410 C   0  0  0  0  0  0  0  0  0  0  0  0
  143.5950   73.5270  220.1200 C   0  0  0  0  0  0  0  0  0  0  0  0
  141.0760   74.9570  220.7490 N   0  0  0  0  0  0  0  0  0  0  0  0
  140.9540   77.7410  221.2710 C   0  0  0  0  0  0  0  0  0  0  0  0
  141.4241   81.8401  224.6106 H   0  0  0  0  0  0  0  0  0  0  0  0
  143.4483   80.9461  223.5608 H   0  0  0  0  0  0  0  0  0  0  0  0
  143.3014   79.0262  221.9851 H   0  0  0  0  0  0  0  0  0  0  0  0
  139.1849   80.8788  224.1469 H   0  0  0  0  0  0  0  0  0  0  0  0
  137.9071   79.1359  223.0602 H   0  0  0  0  0  0  0  0  0  0  0  0
  138.4607   78.9249  221.3848 H   0  0  0  0  0  0  0  0  0  0  0  0
  139.1607   77.0868  223.7538 H   0  0  0  0  0  0  0  0  0  0  0  0
  137.9798   76.7000  222.4870 H   0  0  0  0  0  0  0  0  0  0  0  0
  137.3420   72.3580  222.0740 H   0  0  0  0  0  0  0  0  0  0  0  0
  138.3028   71.8867  224.5163 H   0  0  0  0  0  0  0  0  0  0  0  0
  138.3681   70.4777  223.4323 H   0  0  0  0  0  0  0  0  0  0  0  0
  140.6302   71.0582  222.7274 H   0  0  0  0  0  0  0  0  0  0  0  0
  140.5332   72.6118  223.6672 H   0  0  0  0  0  0  0  0  0  0  0  0
  141.8023   70.5089  224.6216 H   0  0  0  0  0  0  0  0  0  0  0  0
  138.9136   69.9860  225.4180 H   0  0  0  0  0  0  0  0  0  0  0  0
  139.9717   68.9053  224.4782 H   0  0  0  0  0  0  0  0  0  0  0  0
  140.0700   68.1874  226.8202 H   0  0  0  0  0  0  0  0  0  0  0  0
  141.6260   68.9676  226.4550 H   0  0  0  0  0  0  0  0  0  0  0  0
  140.7182   71.9966  228.1006 H   0  0  0  0  0  0  0  0  0  0  0  0
  142.0777   71.0151  227.3949 H   0  0  0  0  0  0  0  0  0  0  0  0
  139.7637   72.3396  225.9842 H   0  0  0  0  0  0  0  0  0  0  0  0
  141.5682   72.5796  225.7853 H   0  0  0  0  0  0  0  0  0  0  0  0
  142.0000   73.6309  218.6469 H   0  0  0  0  0  0  0  0  0  0  0  0
  141.3061   71.2005  219.6564 H   0  0  0  0  0  0  0  0  0  0  0  0
  142.7609   71.2338  218.6970 H   0  0  0  0  0  0  0  0  0  0  0  0
  142.4606   71.4273  221.7635 H   0  0  0  0  0  0  0  0  0  0  0  0
  143.5462   70.3691  220.9022 H   0  0  0  0  0  0  0  0  0  0  0  0
  145.7877   71.8170  221.9900 H   0  0  0  0  0  0  0  0  0  0  0  0
  147.0955   73.8971  221.6741 H   0  0  0  0  0  0  0  0  0  0  0  0
  146.1433   75.7703  220.3394 H   0  0  0  0  0  0  0  0  0  0  0  0
  143.8937   75.5165  219.3501 H   0  0  0  0  0  0  0  0  0  0  0  0
  141.9129   77.2238  221.1193 H   0  0  0  0  0  0  0  0  0  0  0  0
  140.5776   78.1119  220.3062 H   0  0  0  0  0  0  0  0  0  0  0  0
  1  2  2  0
  2  3  1  0
  3  4  2  0
  4  5  1  0
  5  6  2  0
  5  7  1  0
  7  8  1  0
  8  9  1  0
  9 10  1  0
 10 11  2  0
 11 12  1  0
 12 13  1  0
 13 14  1  0
 14 15  1  0
 15 16  1  0
 16 17  1  0
 17 18  1  0
 18 19  1  0
 19 20  1  0
 20 21  1  0
 12 22  2  0
 22 23  1  0
 23 24  1  0
 24 25  1  0
 25 26  1  0
 26 27  1  0
 27 28  2  0
 28 29  1  0
 29 30  2  0
 30 31  1  0
 31 32  2  0
 23 33  2  0
  9 34  1  0
  6  1  1  0
 33 10  1  0
 34  4  1  0
 21 16  1  0
 32 24  1  0
 32 27  1  0
  1 35  1  0
  2 36  1  0
  3 37  1  0
  6 38  1  0
  7 39  1  0
  7 40  1  0
  8 41  1  0
  8 42  1  0
 13 43  1  0
 14 44  1  0
 14 45  1  0
 15 46  1  0
 15 47  1  0
 16 48  1  0
 17 49  1  0
 17 50  1  0
 18 51  1  0
 18 52  1  0
 20 53  1  0
 20 54  1  0
 21 55  1  0
 21 56  1  0
 24 57  1  6
 25 58  1  0
 25 59  1  0
 26 60  1  0
 26 61  1  0
 28 62  1  0
 29 63  1  0
 30 64  1  0
 31 65  1  0
 34 66  1  0
 34 67  1  0
M  END
>  <smiles>  (42) 
c1ccc2c(c1)CCN(c1nc(NCCC3CCOCC3)nc(C3CCc4ccccc43)n1)C2

>  <score_type>  (42) 
oracle

>  <origin>  (42) 
autodockgpu

>  <m_score__min__energy>  (42) 
-9.9800000000000004

>  <m_primary>  (42) 
energy

>  <rmsd>  (42) 
7.13071048275158

>  <m_score__min__rmsd>  (42) 
7.13071048275158

>  <meeko>  (42) 
{"free_energy": -8.9, "intermolecular_energy": -10.69, "internal_energy": -1.59, "cluster_size": 19, "cluster_id": 1, "rank_in_cluster": 19}

>  <energy>  (42) 
-8.87

>  <cluster_rmsd>  (42) 
0.64

>  <cluster>  (42) 
5

$$$$

     RDKit          3D

 67 72  0  0  0  0  0  0  0  0999 V2000
  141.6910   81.2620  222.2170 C   0  0  0  0  0  0  0  0  0  0  0  0
  141.3580   80.8620  223.4860 C   0  0  0  0  0  0  0  0  0  0  0  0
  141.1480   79.5300  223.7610 C   0  0  0  0  0  0  0  0  0  0  0  0
  141.2820   78.6180  222.7300 C   0  0  0  0  0  0  0  0  0  0  0  0
  141.6220   79.0360  221.4500 C   0  0  0  0  0  0  0  0  0  0  0  0
  141.8320   80.3720  221.1750 C   0  0  0  0  0  0  0  0  0  0  0  0
  141.7400   77.9690  220.4160 C   0  0  0  0  0  0  0  0  0  0  0  0
  140.4480   77.1800  220.4500 C   0  0  0  0  0  0  0  0  0  0  0  0
  140.3400   76.6210  221.7910 N   0  0  0  0  0  0  0  0  0  0  0  0
  139.4860   75.5260  221.9800 C   0  0  0  0  0  0  0  0  0  0  0  0
  140.0090   74.2990  222.1470 N   0  0  0  0  0  0  0  0  0  0  0  0
  139.2280   73.1980  222.3350 C   0  0  0  0  0  0  0  0  0  0  0  0
  139.8190   71.8970  222.5110 N   0  0  0  0  0  0  0  0  0  0  0  0
  139.0400   70.8490  223.1670 C   0  0  0  0  0  0  0  0  0  0  0  0
  139.9580   70.1620  224.1480 C   0  0  0  0  0  0  0  0  0  0  0  0
  139.8640   70.7550  225.5350 C   0  0  0  0  0  0  0  0  0  0  0  0
  141.0900   71.5470  225.9010 C   0  0  0  0  0  0  0  0  0  0  0  0
  140.9280   71.9910  227.3460 C   0  0  0  0  0  0  0  0  0  0  0  0
  141.0160   70.8500  228.1350 O   0  0  0  0  0  0  0  0  0  0  0  0
  139.9290   70.0020  227.9450 C   0  0  0  0  0  0  0  0  0  0  0  0
  139.7490   69.6090  226.5010 C   0  0  0  0  0  0  0  0  0  0  0  0
  137.9090   73.3800  222.3480 N   0  0  0  0  0  0  0  0  0  0  0  0
  137.3330   74.5840  222.1860 C   0  0  0  0  0  0  0  0  0  0  0  0
  135.8810   74.8220  222.1940 C   0  0  2  0  0  0  0  0  0  0  0  0
  135.5880   76.2980  222.0240 C   0  0  0  0  0  0  0  0  0  0  0  0
  135.7700   76.8160  223.4360 C   0  0  0  0  0  0  0  0  0  0  0  0
  135.1820   75.7170  224.2440 C   0  0  0  0  0  0  0  0  0  0  0  0
  134.6200   75.6440  225.5020 C   0  0  0  0  0  0  0  0  0  0  0  0
  134.1330   74.4520  226.0320 C   0  0  0  0  0  0  0  0  0  0  0  0
  134.2070   73.2950  225.2910 C   0  0  0  0  0  0  0  0  0  0  0  0
  134.7630   73.3500  224.0410 C   0  0  0  0  0  0  0  0  0  0  0  0
  135.2450   74.5440  223.5210 C   0  0  0  0  0  0  0  0  0  0  0  0
  138.1330   75.6710  221.9990 N   0  0  0  0  0  0  0  0  0  0  0  0
  141.0800   77.1570  222.9130 C   0  0  0  0  0  0  0  0  0  0  0  0
  141.8514   82.3330  222.0242 H   0  0  0  0  0  0  0  0  0  0  0  0
  141.2584   81.6090  224.2873 H   0  0  0  0  0  0  0  0  0  0  0  0
  140.8803   79.1991  224.7753 H   0  0  0  0  0  0  0  0  0  0  0  0
  142.1012   80.7126  220.1643 H   0  0  0  0  0  0  0  0  0  0  0  0
  141.8826   78.4190  219.4224 H   0  0  0  0  0  0  0  0  0  0  0  0
  142.6042   77.3189  220.6174 H   0  0  0  0  0  0  0  0  0  0  0  0
  139.5934   77.8412  220.2439 H   0  0  0  0  0  0  0  0  0  0  0  0
  140.4457   76.3874  219.6872 H   0  0  0  0  0  0  0  0  0  0  0  0
  140.7860   71.7520  222.1610 H   0  0  0  0  0  0  0  0  0  0  0  0
  138.1839   71.2913  223.6975 H   0  0  0  0  0  0  0  0  0  0  0  0
  138.6483   70.1328  222.4298 H   0  0  0  0  0  0  0  0  0  0  0  0
  139.6871   69.0971  224.1996 H   0  0  0  0  0  0  0  0  0  0  0  0
  140.9905   70.2976  223.7937 H   0  0  0  0  0  0  0  0  0  0  0  0
  138.9992   71.4339  225.5694 H   0  0  0  0  0  0  0  0  0  0  0  0
  141.9877   70.9196  225.7986 H   0  0  0  0  0  0  0  0  0  0  0  0
  141.2037   72.4167  225.2372 H   0  0  0  0  0  0  0  0  0  0  0  0
  141.7259   72.6987  227.6153 H   0  0  0  0  0  0  0  0  0  0  0  0
  139.9628   72.4972  227.4948 H   0  0  0  0  0  0  0  0  0  0  0  0
  140.0837   69.0911  228.5419 H   0  0  0  0  0  0  0  0  0  0  0  0
  139.0242   70.5428  228.2595 H   0  0  0  0  0  0  0  0  0  0  0  0
  140.5178   68.8644  226.2470 H   0  0  0  0  0  0  0  0  0  0  0  0
  138.7270   69.2136  226.4045 H   0  0  0  0  0  0  0  0  0  0  0  0
  135.4978   74.1700  221.3953 H   0  0  0  0  0  0  0  0  0  0  0  0
  136.2989   76.7699  221.3298 H   0  0  0  0  0  0  0  0  0  0  0  0
  134.5963   76.5085  221.5972 H   0  0  0  0  0  0  0  0  0  0  0  0
  136.8338   76.9627  223.6743 H   0  0  0  0  0  0  0  0  0  0  0  0
  135.3037   77.7964  223.6132 H   0  0  0  0  0  0  0  0  0  0  0  0
  134.5543   76.5599  226.1077 H   0  0  0  0  0  0  0  0  0  0  0  0
  133.6909   74.4354  227.0391 H   0  0  0  0  0  0  0  0  0  0  0  0
  133.8271   72.3449  225.6948 H   0  0  0  0  0  0  0  0  0  0  0  0
  134.8290   72.4323  223.4381 H   0  0  0  0  0  0  0  0  0  0  0  0
  140.5163   76.9795  223.8407 H   0  0  0  0  0  0  0  0  0  0  0  0
  142.0591   76.6594  222.9738 H   0  0  0  0  0  0  0  0  0  0  0  0
  1  2  2  0
  2  3  1  0
  3  4  2  0
  4  5  1  0
  5  6  2  0
  5  7  1  0
  7  8  1  0
  8  9  1  0
  9 10  1  0
 10 11  2  0
 11 12  1  0
 12 13  1  0
 13 14  1  0
 14 15  1  0
 15 16  1  0
 16 17  1  0
 17 18  1  0
 18 19  1  0
 19 20  1  0
 20 21  1  0
 12 22  2  0
 22 23  1  0
 23 24  1  0
 24 25  1  0
 25 26  1  0
 26 27  1  0
 27 28  2  0
 28 29  1  0
 29 30  2  0
 30 31  1  0
 31 32  2  0
 23 33  2  0
  9 34  1  0
  6  1  1  0
 33 10  1  0
 34  4  1  0
 21 16  1  0
 32 24  1  0
 32 27  1  0
  1 35  1  0
  2 36  1  0
  3 37  1  0
  6 38  1  0
  7 39  1  0
  7 40  1  0
  8 41  1  0
  8 42  1  0
 13 43  1  0
 14 44  1  0
 14 45  1  0
 15 46  1  0
 15 47  1  0
 16 48  1  0
 17 49  1  0
 17 50  1  0
 18 51  1  0
 18 52  1  0
 20 53  1  0
 20 54  1  0
 21 55  1  0
 21 56  1  0
 24 57  1  6
 25 58  1  0
 25 59  1  0
 26 60  1  0
 26 61  1  0
 28 62  1  0
 29 63  1  0
 30 64  1  0
 31 65  1  0
 34 66  1  0
 34 67  1  0
M  END
>  <smiles>  (43) 
c1ccc2c(c1)CCN(c1nc(NCCC3CCOCC3)nc(C3CCc4ccccc43)n1)C2

>  <score_type>  (43) 
oracle

>  <origin>  (43) 
autodockgpu

>  <m_score__min__energy>  (43) 
-9.9800000000000004

>  <m_primary>  (43) 
energy

>  <rmsd>  (43) 
7.438501920339165

>  <m_score__min__rmsd>  (43) 
7.438501920339165

>  <meeko>  (43) 
{"free_energy": -9.14, "intermolecular_energy": -10.93, "internal_energy": -1.36, "cluster_size": 13, "cluster_id": 2, "rank_in_cluster": 8}

>  <energy>  (43) 
-9.13

>  <cluster_rmsd>  (43) 
0.0

>  <cluster>  (43) 
6

$$$$

     RDKit          3D

 67 72  0  0  0  0  0  0  0  0999 V2000
  146.3090   68.3310  219.3520 C   0  0  0  0  0  0  0  0  0  0  0  0
  145.1090   67.7240  219.6240 C   0  0  0  0  0  0  0  0  0  0  0  0
  143.9480   68.4630  219.6450 C   0  0  0  0  0  0  0  0  0  0  0  0
  144.0270   69.8190  219.3850 C   0  0  0  0  0  0  0  0  0  0  0  0
  145.2480   70.4200  219.1090 C   0  0  0  0  0  0  0  0  0  0  0  0
  146.4130   69.6800  219.0900 C   0  0  0  0  0  0  0  0  0  0  0  0
  145.2180   71.8860  218.8430 C   0  0  0  0  0  0  0  0  0  0  0  0
  144.5010   72.5290  220.0130 C   0  0  0  0  0  0  0  0  0  0  0  0
  143.1600   71.9580  220.0390 N   0  0  0  0  0  0  0  0  0  0  0  0
  142.1610   72.6570  220.7300 C   0  0  0  0  0  0  0  0  0  0  0  0
  141.6520   72.1390  221.8620 N   0  0  0  0  0  0  0  0  0  0  0  0
  140.6810   72.7730  222.5760 C   0  0  0  0  0  0  0  0  0  0  0  0
  140.1570   72.1920  223.7850 N   0  0  0  0  0  0  0  0  0  0  0  0
  141.0690   71.4920  224.6880 C   0  0  0  0  0  0  0  0  0  0  0  0
  140.3460   71.3160  226.0000 C   0  0  0  0  0  0  0  0  0  0  0  0
  139.6050   70.0020  226.0760 C   0  0  0  0  0  0  0  0  0  0  0  0
  140.4210   68.9230  226.7360 C   0  0  0  0  0  0  0  0  0  0  0  0
  139.6210   67.6340  226.6500 C   0  0  0  0  0  0  0  0  0  0  0  0
  139.5900   67.2620  225.3120 O   0  0  0  0  0  0  0  0  0  0  0  0
  138.8380   68.1470  224.5440 C   0  0  0  0  0  0  0  0  0  0  0  0
  139.3210   69.5690  224.6650 C   0  0  0  0  0  0  0  0  0  0  0  0
  140.2450   73.9410  222.1100 N   0  0  0  0  0  0  0  0  0  0  0  0
  140.7180   74.5060  220.9850 C   0  0  0  0  0  0  0  0  0  0  0  0
  140.2590   75.7930  220.4410 C   0  0  2  0  0  0  0  0  0  0  0  0
  141.0550   76.1560  219.2040 C   0  0  0  0  0  0  0  0  0  0  0  0
  142.3090   76.7560  219.8060 C   0  0  0  0  0  0  0  0  0  0  0  0
  141.7620   77.5140  220.9610 C   0  0  0  0  0  0  0  0  0  0  0  0
  142.1970   78.6030  221.6870 C   0  0  0  0  0  0  0  0  0  0  0  0
  141.4690   79.1270  222.7530 C   0  0  0  0  0  0  0  0  0  0  0  0
  140.2710   78.5500  223.1090 C   0  0  0  0  0  0  0  0  0  0  0  0
  139.8270   77.4680  222.3990 C   0  0  0  0  0  0  0  0  0  0  0  0
  140.5600   76.9540  221.3370 C   0  0  0  0  0  0  0  0  0  0  0  0
  141.6890   73.8530  220.2860 N   0  0  0  0  0  0  0  0  0  0  0  0
  142.8390   70.7100  219.3800 C   0  0  0  0  0  0  0  0  0  0  0  0
  147.2223   67.7180  219.3427 H   0  0  0  0  0  0  0  0  0  0  0  0
  145.0746   66.6432  219.8259 H   0  0  0  0  0  0  0  0  0  0  0  0
  142.9808   67.9866  219.8633 H   0  0  0  0  0  0  0  0  0  0  0  0
  147.3849   70.1480  218.8745 H   0  0  0  0  0  0  0  0  0  0  0  0
  146.2429   72.2778  218.7654 H   0  0  0  0  0  0  0  0  0  0  0  0
  144.7028   72.1047  217.8960 H   0  0  0  0  0  0  0  0  0  0  0  0
  145.0282   72.3046  220.9520 H   0  0  0  0  0  0  0  0  0  0  0  0
  144.4662   73.6233  219.9064 H   0  0  0  0  0  0  0  0  0  0  0  0
  139.1400   72.2930  223.9700 H   0  0  0  0  0  0  0  0  0  0  0  0
  141.3350   70.5103  224.2691 H   0  0  0  0  0  0  0  0  0  0  0  0
  141.9982   72.0641  224.8268 H   0  0  0  0  0  0  0  0  0  0  0  0
  141.0816   71.3548  226.8169 H   0  0  0  0  0  0  0  0  0  0  0  0
  139.6054   72.1248  226.0866 H   0  0  0  0  0  0  0  0  0  0  0  0
  138.6920   70.1481  226.6719 H   0  0  0  0  0  0  0  0  0  0  0  0
  141.3818   68.8051  226.2136 H   0  0  0  0  0  0  0  0  0  0  0  0
  140.6319   69.1809  227.7843 H   0  0  0  0  0  0  0  0  0  0  0  0
  140.1051   66.8486  227.2490 H   0  0  0  0  0  0  0  0  0  0  0  0
  138.6027   67.7780  227.0404 H   0  0  0  0  0  0  0  0  0  0  0  0
  138.9018   67.8412  223.4893 H   0  0  0  0  0  0  0  0  0  0  0  0
  137.8022   68.1130  224.9126 H   0  0  0  0  0  0  0  0  0  0  0  0
  140.2466   69.6706  224.0794 H   0  0  0  0  0  0  0  0  0  0  0  0
  138.5103   70.2124  224.2925 H   0  0  0  0  0  0  0  0  0  0  0  0
  139.1801   75.6476  220.2832 H   0  0  0  0  0  0  0  0  0  0  0  0
  141.2868   75.2654  218.6015 H   0  0  0  0  0  0  0  0  0  0  0  0
  140.5249   76.8308  218.5158 H   0  0  0  0  0  0  0  0  0  0  0  0
  143.0083   75.9736  220.1359 H   0  0  0  0  0  0  0  0  0  0  0  0
  142.8880   77.3732  219.1033 H   0  0  0  0  0  0  0  0  0  0  0  0
  143.1528   79.0746  221.4147 H   0  0  0  0  0  0  0  0  0  0  0  0
  141.8496   79.9975  223.3074 H   0  0  0  0  0  0  0  0  0  0  0  0
  139.6825   78.9508  223.9474 H   0  0  0  0  0  0  0  0  0  0  0  0
  138.8720   76.9965  222.6743 H   0  0  0  0  0  0  0  0  0  0  0  0
  142.0114   70.2183  219.9122 H   0  0  0  0  0  0  0  0  0  0  0  0
  142.5419   70.9138  218.3407 H   0  0  0  0  0  0  0  0  0  0  0  0
  1  2  2  0
  2  3  1  0
  3  4  2  0
  4  5  1  0
  5  6  2  0
  5  7  1  0
  7  8  1  0
  8  9  1  0
  9 10  1  0
 10 11  2  0
 11 12  1  0
 12 13  1  0
 13 14  1  0
 14 15  1  0
 15 16  1  0
 16 17  1  0
 17 18  1  0
 18 19  1  0
 19 20  1  0
 20 21  1  0
 12 22  2  0
 22 23  1  0
 23 24  1  0
 24 25  1  0
 25 26  1  0
 26 27  1  0
 27 28  2  0
 28 29  1  0
 29 30  2  0
 30 31  1  0
 31 32  2  0
 23 33  2  0
  9 34  1  0
  6  1  1  0
 33 10  1  0
 34  4  1  0
 21 16  1  0
 32 24  1  0
 32 27  1  0
  1 35  1  0
  2 36  1  0
  3 37  1  0
  6 38  1  0
  7 39  1  0
  7 40  1  0
  8 41  1  0
  8 42  1  0
 13 43  1  0
 14 44  1  0
 14 45  1  0
 15 46  1  0
 15 47  1  0
 16 48  1  0
 17 49  1  0
 17 50  1  0
 18 51  1  0
 18 52  1  0
 20 53  1  0
 20 54  1  0
 21 55  1  0
 21 56  1  0
 24 57  1  6
 25 58  1  0
 25 59  1  0
 26 60  1  0
 26 61  1  0
 28 62  1  0
 29 63  1  0
 30 64  1  0
 31 65  1  0
 34 66  1  0
 34 67  1  0
M  END
>  <smiles>  (44) 
c1ccc2c(c1)CCN(c1nc(NCCC3CCOCC3)nc(C3CCc4ccccc43)n1)C2

>  <score_type>  (44) 
oracle

>  <origin>  (44) 
autodockgpu

>  <m_score__min__energy>  (44) 
-9.9800000000000004

>  <m_primary>  (44) 
energy

>  <rmsd>  (44) 
8.604026913026537

>  <m_score__min__rmsd>  (44) 
8.604026913026537

>  <meeko>  (44) 
{"free_energy": -9.21, "intermolecular_energy": -11.0, "internal_energy": -1.16, "cluster_size": 1, "cluster_id": 4, "rank_in_cluster": 1}

>  <energy>  (44) 
-9.12

>  <cluster_rmsd>  (44) 
0.58

>  <cluster>  (44) 
6

$$$$

     RDKit          3D

 67 72  0  0  0  0  0  0  0  0999 V2000
  141.7070   81.2870  222.3980 C   0  0  0  0  0  0  0  0  0  0  0  0
  141.4290   80.8010  223.6500 C   0  0  0  0  0  0  0  0  0  0  0  0
  141.2310   79.4530  223.8430 C   0  0  0  0  0  0  0  0  0  0  0  0
  141.3200   78.6130  222.7480 C   0  0  0  0  0  0  0  0  0  0  0  0
  141.6040   79.1180  221.4860 C   0  0  0  0  0  0  0  0  0  0  0  0
  141.8020   80.4700  221.2920 C   0  0  0  0  0  0  0  0  0  0  0  0
  141.6780   78.1240  220.3780 C   0  0  0  0  0  0  0  0  0  0  0  0
  140.3880   77.3300  220.4140 C   0  0  0  0  0  0  0  0  0  0  0  0
  140.3380   76.6820  221.7180 N   0  0  0  0  0  0  0  0  0  0  0  0
  139.4930   75.5740  221.8690 C   0  0  0  0  0  0  0  0  0  0  0  0
  140.0230   74.3410  221.9500 N   0  0  0  0  0  0  0  0  0  0  0  0
  139.2520   73.2290  222.0970 C   0  0  0  0  0  0  0  0  0  0  0  0
  139.8510   71.9220  222.1800 N   0  0  0  0  0  0  0  0  0  0  0  0
  140.6420   71.5800  223.3610 C   0  0  0  0  0  0  0  0  0  0  0  0
  139.6780   71.0970  224.4160 C   0  0  0  0  0  0  0  0  0  0  0  0
  140.3820   70.4280  225.5740 C   0  0  0  0  0  0  0  0  0  0  0  0
  139.5530   69.3320  226.1890 C   0  0  0  0  0  0  0  0  0  0  0  0
  140.3100   68.8180  227.4020 C   0  0  0  0  0  0  0  0  0  0  0  0
  140.2890   69.8300  228.3540 O   0  0  0  0  0  0  0  0  0  0  0  0
  141.0440   70.9310  227.9590 C   0  0  0  0  0  0  0  0  0  0  0  0
  140.6090   71.4790  226.6240 C   0  0  0  0  0  0  0  0  0  0  0  0
  137.9330   73.4040  222.1610 N   0  0  0  0  0  0  0  0  0  0  0  0
  137.3490   74.6120  222.0850 C   0  0  0  0  0  0  0  0  0  0  0  0
  135.8980   74.8430  222.1500 C   0  0  2  0  0  0  0  0  0  0  0  0
  135.5920   76.3210  222.0160 C   0  0  0  0  0  0  0  0  0  0  0  0
  135.8240   76.8160  223.4300 C   0  0  0  0  0  0  0  0  0  0  0  0
  135.2710   75.7000  224.2400 C   0  0  0  0  0  0  0  0  0  0  0  0
  134.7560   75.6040  225.5160 C   0  0  0  0  0  0  0  0  0  0  0  0
  134.2930   74.4000  226.0430 C   0  0  0  0  0  0  0  0  0  0  0  0
  134.3440   73.2560  225.2800 C   0  0  0  0  0  0  0  0  0  0  0  0
  134.8540   73.3360  224.0120 C   0  0  0  0  0  0  0  0  0  0  0  0
  135.3110   74.5410  223.4940 C   0  0  0  0  0  0  0  0  0  0  0  0
  138.1410   75.7120  221.9370 N   0  0  0  0  0  0  0  0  0  0  0  0
  141.1260   77.1430  222.8410 C   0  0  0  0  0  0  0  0  0  0  0  0
  141.8598   82.3690  222.2718 H   0  0  0  0  0  0  0  0  0  0  0  0
  141.3640   81.4918  224.5036 H   0  0  0  0  0  0  0  0  0  0  0  0
  141.0075   79.0536  224.8433 H   0  0  0  0  0  0  0  0  0  0  0  0
  142.0264   80.8787  220.2957 H   0  0  0  0  0  0  0  0  0  0  0  0
  141.7776   78.6407  219.4120 H   0  0  0  0  0  0  0  0  0  0  0  0
  142.5503   77.4646  220.4975 H   0  0  0  0  0  0  0  0  0  0  0  0
  139.5252   78.0008  220.2896 H   0  0  0  0  0  0  0  0  0  0  0  0
  140.3530   76.5905  219.6004 H   0  0  0  0  0  0  0  0  0  0  0  0
  139.6960   71.2660  221.3900 H   0  0  0  0  0  0  0  0  0  0  0  0
  141.3621   70.7854  223.1157 H   0  0  0  0  0  0  0  0  0  0  0  0
  141.2089   72.4523  223.7185 H   0  0  0  0  0  0  0  0  0  0  0  0
  139.1103   71.9586  224.7973 H   0  0  0  0  0  0  0  0  0  0  0  0
  139.0150   70.3529  223.9504 H   0  0  0  0  0  0  0  0  0  0  0  0
  141.3170   69.9807  225.2057 H   0  0  0  0  0  0  0  0  0  0  0  0
  138.5740   69.7282  226.4966 H   0  0  0  0  0  0  0  0  0  0  0  0
  139.3813   68.5215  225.4654 H   0  0  0  0  0  0  0  0  0  0  0  0
  139.8203   67.9164  227.7985 H   0  0  0  0  0  0  0  0  0  0  0  0
  141.3435   68.5518  227.1354 H   0  0  0  0  0  0  0  0  0  0  0  0
  140.9382   71.7216  228.7165 H   0  0  0  0  0  0  0  0  0  0  0  0
  142.0892   70.6024  227.8614 H   0  0  0  0  0  0  0  0  0  0  0  0
  139.6694   72.0327  226.7674 H   0  0  0  0  0  0  0  0  0  0  0  0
  141.4275   72.1181  226.2614 H   0  0  0  0  0  0  0  0  0  0  0  0
  135.4898   74.2019  221.3547 H   0  0  0  0  0  0  0  0  0  0  0  0
  136.2745   76.8083  221.3042 H   0  0  0  0  0  0  0  0  0  0  0  0
  134.5843   76.5337  221.6296 H   0  0  0  0  0  0  0  0  0  0  0  0
  136.8952   76.9640  223.6314 H   0  0  0  0  0  0  0  0  0  0  0  0
  135.3603   77.7909  223.6413 H   0  0  0  0  0  0  0  0  0  0  0  0
  134.7092   76.5092  226.1392 H   0  0  0  0  0  0  0  0  0  0  0  0
  133.8882   74.3642  227.0652 H   0  0  0  0  0  0  0  0  0  0  0  0
  133.9826   72.2973  225.6805 H   0  0  0  0  0  0  0  0  0  0  0  0
  134.9028   72.4289  223.3917 H   0  0  0  0  0  0  0  0  0  0  0  0
  140.6028   76.9020  223.7781 H   0  0  0  0  0  0  0  0  0  0  0  0
  142.1067   76.6449  222.8263 H   0  0  0  0  0  0  0  0  0  0  0  0
  1  2  2  0
  2  3  1  0
  3  4  2  0
  4  5  1  0
  5  6  2  0
  5  7  1  0
  7  8  1  0
  8  9  1  0
  9 10  1  0
 10 11  2  0
 11 12  1  0
 12 13  1  0
 13 14  1  0
 14 15  1  0
 15 16  1  0
 16 17  1  0
 17 18  1  0
 18 19  1  0
 19 20  1  0
 20 21  1  0
 12 22  2  0
 22 23  1  0
 23 24  1  0
 24 25  1  0
 25 26  1  0
 26 27  1  0
 27 28  2  0
 28 29  1  0
 29 30  2  0
 30 31  1  0
 31 32  2  0
 23 33  2  0
  9 34  1  0
  6  1  1  0
 33 10  1  0
 34  4  1  0
 21 16  1  0
 32 24  1  0
 32 27  1  0
  1 35  1  0
  2 36  1  0
  3 37  1  0
  6 38  1  0
  7 39  1  0
  7 40  1  0
  8 41  1  0
  8 42  1  0
 13 43  1  0
 14 44  1  0
 14 45  1  0
 15 46  1  0
 15 47  1  0
 16 48  1  0
 17 49  1  0
 17 50  1  0
 18 51  1  0
 18 52  1  0
 20 53  1  0
 20 54  1  0
 21 55  1  0
 21 56  1  0
 24 57  1  6
 25 58  1  0
 25 59  1  0
 26 60  1  0
 26 61  1  0
 28 62  1  0
 29 63  1  0
 30 64  1  0
 31 65  1  0
 34 66  1  0
 34 67  1  0
M  END
>  <smiles>  (45) 
c1ccc2c(c1)CCN(c1nc(NCCC3CCOCC3)nc(C3CCc4ccccc43)n1)C2

>  <score_type>  (45) 
oracle

>  <origin>  (45) 
autodockgpu

>  <m_score__min__energy>  (45) 
-9.9800000000000004

>  <m_primary>  (45) 
energy

>  <rmsd>  (45) 
7.381090800291343

>  <m_score__min__rmsd>  (45) 
7.381090800291343

>  <meeko>  (45) 
{"free_energy": -9.31, "intermolecular_energy": -11.1, "internal_energy": -1.29, "cluster_size": 13, "cluster_id": 2, "rank_in_cluster": 4}

>  <energy>  (45) 
-9.06

>  <cluster_rmsd>  (45) 
0.57

>  <cluster>  (45) 
6

$$$$

     RDKit          3D

 67 72  0  0  0  0  0  0  0  0999 V2000
  141.5240   80.9770  223.9340 C   0  0  0  0  0  0  0  0  0  0  0  0
  142.6650   80.4670  223.3680 C   0  0  0  0  0  0  0  0  0  0  0  0
  142.5930   79.4000  222.5020 C   0  0  0  0  0  0  0  0  0  0  0  0
  141.3490   78.8650  222.2220 C   0  0  0  0  0  0  0  0  0  0  0  0
  140.2020   79.3910  222.8010 C   0  0  0  0  0  0  0  0  0  0  0  0
  140.2740   80.4600  223.6700 C   0  0  0  0  0  0  0  0  0  0  0  0
  138.9150   78.7370  222.4290 C   0  0  0  0  0  0  0  0  0  0  0  0
  139.0800   77.2560  222.7020 C   0  0  0  0  0  0  0  0  0  0  0  0
  140.1790   76.8020  221.8590 N   0  0  0  0  0  0  0  0  0  0  0  0
  140.2770   75.4300  221.5900 C   0  0  0  0  0  0  0  0  0  0  0  0
  139.6500   74.5510  222.3920 N   0  0  0  0  0  0  0  0  0  0  0  0
  139.7090   73.2070  222.1790 C   0  0  0  0  0  0  0  0  0  0  0  0
  139.0260   72.2920  223.0570 N   0  0  0  0  0  0  0  0  0  0  0  0
  139.5420   70.9320  223.2010 C   0  0  0  0  0  0  0  0  0  0  0  0
  140.7030   70.9980  224.1630 C   0  0  0  0  0  0  0  0  0  0  0  0
  140.2530   71.0510  225.6040 C   0  0  0  0  0  0  0  0  0  0  0  0
  141.1690   71.8860  226.4580 C   0  0  0  0  0  0  0  0  0  0  0  0
  140.6820   71.7700  227.8930 C   0  0  0  0  0  0  0  0  0  0  0  0
  140.9330   70.4670  228.3040 O   0  0  0  0  0  0  0  0  0  0  0  0
  140.1370   69.5460  227.6290 C   0  0  0  0  0  0  0  0  0  0  0  0
  140.2840   69.6440  226.1320 C   0  0  0  0  0  0  0  0  0  0  0  0
  140.4180   72.7840  221.1350 N   0  0  0  0  0  0  0  0  0  0  0  0
  141.0650   73.6170  220.3010 C   0  0  0  0  0  0  0  0  0  0  0  0
  141.8580   73.1860  219.1400 C   0  0  2  0  0  0  0  0  0  0  0  0
  141.5210   71.7560  218.7730 C   0  0  0  0  0  0  0  0  0  0  0  0
  142.3700   70.9750  219.7550 C   0  0  0  0  0  0  0  0  0  0  0  0
  143.6170   71.7810  219.7920 C   0  0  0  0  0  0  0  0  0  0  0  0
  144.9320   71.5020  220.0980 C   0  0  0  0  0  0  0  0  0  0  0  0
  145.9300   72.4720  220.0520 C   0  0  0  0  0  0  0  0  0  0  0  0
  145.6120   73.7610  219.6900 C   0  0  0  0  0  0  0  0  0  0  0  0
  144.3100   74.0540  219.3830 C   0  0  0  0  0  0  0  0  0  0  0  0
  143.3230   73.0790  219.4320 C   0  0  0  0  0  0  0  0  0  0  0  0
  140.9920   74.9590  220.5330 N   0  0  0  0  0  0  0  0  0  0  0  0
  141.1540   77.7140  221.3020 C   0  0  0  0  0  0  0  0  0  0  0  0
  141.6100   81.8296  224.6237 H   0  0  0  0  0  0  0  0  0  0  0  0
  143.6416   80.9130  223.6075 H   0  0  0  0  0  0  0  0  0  0  0  0
  143.5021   78.9832  222.0440 H   0  0  0  0  0  0  0  0  0  0  0  0
  139.3703   80.8826  224.1334 H   0  0  0  0  0  0  0  0  0  0  0  0
  138.0938   79.1447  223.0368 H   0  0  0  0  0  0  0  0  0  0  0  0
  138.6721   78.9182  221.3716 H   0  0  0  0  0  0  0  0  0  0  0  0
  139.3199   77.0891  223.7625 H   0  0  0  0  0  0  0  0  0  0  0  0
  138.1542   76.7043  222.4816 H   0  0  0  0  0  0  0  0  0  0  0  0
  138.1850   72.6370  223.5580 H   0  0  0  0  0  0  0  0  0  0  0  0
  138.7583   70.2713  223.6001 H   0  0  0  0  0  0  0  0  0  0  0  0
  139.8615   70.5292  222.2285 H   0  0  0  0  0  0  0  0  0  0  0  0
  141.3306   70.1058  224.0213 H   0  0  0  0  0  0  0  0  0  0  0  0
  141.2623   71.9213  223.9516 H   0  0  0  0  0  0  0  0  0  0  0  0
  139.2502   71.5014  225.6422 H   0  0  0  0  0  0  0  0  0  0  0  0
  142.2007   71.5126  226.3795 H   0  0  0  0  0  0  0  0  0  0  0  0
  141.1594   72.9352  226.1277 H   0  0  0  0  0  0  0  0  0  0  0  0
  141.2251   72.4795  228.5346 H   0  0  0  0  0  0  0  0  0  0  0  0
  139.6094   72.0036  227.9632 H   0  0  0  0  0  0  0  0  0  0  0  0
  140.4238   68.5325  227.9461 H   0  0  0  0  0  0  0  0  0  0  0  0
  139.0880   69.7655  227.8770 H   0  0  0  0  0  0  0  0  0  0  0  0
  141.2448   69.1896  225.8486 H   0  0  0  0  0  0  0  0  0  0  0  0
  139.4214   69.1211  225.6933 H   0  0  0  0  0  0  0  0  0  0  0  0
  141.6331   73.9372  218.3686 H   0  0  0  0  0  0  0  0  0  0  0  0
  140.4503   71.5478  218.9154 H   0  0  0  0  0  0  0  0  0  0  0  0
  141.7177   71.5086  217.7194 H   0  0  0  0  0  0  0  0  0  0  0  0
  141.8945   70.9282  220.7458 H   0  0  0  0  0  0  0  0  0  0  0  0
  142.5283   69.9249  219.4681 H   0  0  0  0  0  0  0  0  0  0  0  0
  145.2026   70.4763  220.3890 H   0  0  0  0  0  0  0  0  0  0  0  0
  146.9680   72.2091  220.3039 H   0  0  0  0  0  0  0  0  0  0  0  0
  146.3876   74.5399  219.6481 H   0  0  0  0  0  0  0  0  0  0  0  0
  144.0414   75.0803  219.0923 H   0  0  0  0  0  0  0  0  0  0  0  0
  142.1107   77.1882  221.1669 H   0  0  0  0  0  0  0  0  0  0  0  0
  140.7935   78.0824  220.3302 H   0  0  0  0  0  0  0  0  0  0  0  0
  1  2  2  0
  2  3  1  0
  3  4  2  0
  4  5  1  0
  5  6  2  0
  5  7  1  0
  7  8  1  0
  8  9  1  0
  9 10  1  0
 10 11  2  0
 11 12  1  0
 12 13  1  0
 13 14  1  0
 14 15  1  0
 15 16  1  0
 16 17  1  0
 17 18  1  0
 18 19  1  0
 19 20  1  0
 20 21  1  0
 12 22  2  0
 22 23  1  0
 23 24  1  0
 24 25  1  0
 25 26  1  0
 26 27  1  0
 27 28  2  0
 28 29  1  0
 29 30  2  0
 30 31  1  0
 31 32  2  0
 23 33  2  0
  9 34  1  0
  6  1  1  0
 33 10  1  0
 34  4  1  0
 21 16  1  0
 32 24  1  0
 32 27  1  0
  1 35  1  0
  2 36  1  0
  3 37  1  0
  6 38  1  0
  7 39  1  0
  7 40  1  0
  8 41  1  0
  8 42  1  0
 13 43  1  0
 14 44  1  0
 14 45  1  0
 15 46  1  0
 15 47  1  0
 16 48  1  0
 17 49  1  0
 17 50  1  0
 18 51  1  0
 18 52  1  0
 20 53  1  0
 20 54  1  0
 21 55  1  0
 21 56  1  0
 24 57  1  6
 25 58  1  0
 25 59  1  0
 26 60  1  0
 26 61  1  0
 28 62  1  0
 29 63  1  0
 30 64  1  0
 31 65  1  0
 34 66  1  0
 34 67  1  0
M  END
>  <smiles>  (46) 
c1ccc2c(c1)CCN(c1nc(NCCC3CCOCC3)nc(C3CCc4ccccc43)n1)C2

>  <score_type>  (46) 
oracle

>  <origin>  (46) 
autodockgpu

>  <m_score__min__energy>  (46) 
-9.9800000000000004

>  <m_primary>  (46) 
energy

>  <rmsd>  (46) 
7.284848420407217

>  <m_score__min__rmsd>  (46) 
7.284848420407217

>  <meeko>  (46) 
{"free_energy": -9.81, "intermolecular_energy": -11.6, "internal_energy": -1.36, "cluster_size": 19, "cluster_id": 1, "rank_in_cluster": 6}

>  <energy>  (46) 
-8.93

>  <cluster_rmsd>  (46) 
0.0

>  <cluster>  (46) 
7

$$$$

     RDKit          3D

 67 72  0  0  0  0  0  0  0  0999 V2000
  145.4770   73.3950  216.5870 C   0  0  0  0  0  0  0  0  0  0  0  0
  144.6970   74.4700  216.2430 C   0  0  0  0  0  0  0  0  0  0  0  0
  143.9730   75.1380  217.2040 C   0  0  0  0  0  0  0  0  0  0  0  0
  144.0560   74.6970  218.5130 C   0  0  0  0  0  0  0  0  0  0  0  0
  144.8500   73.6090  218.8470 C   0  0  0  0  0  0  0  0  0  0  0  0
  145.5750   72.9380  217.8830 C   0  0  0  0  0  0  0  0  0  0  0  0
  144.8660   73.2190  220.2860 C   0  0  0  0  0  0  0  0  0  0  0  0
  143.4220   73.0410  220.7080 C   0  0  0  0  0  0  0  0  0  0  0  0
  142.7710   74.3290  220.5050 N   0  0  0  0  0  0  0  0  0  0  0  0
  141.5730   74.5750  221.1900 C   0  0  0  0  0  0  0  0  0  0  0  0
  140.8570   73.5410  221.6650 N   0  0  0  0  0  0  0  0  0  0  0  0
  139.6860   73.7190  222.3380 C   0  0  0  0  0  0  0  0  0  0  0  0
  138.9420   72.5910  222.8340 N   0  0  0  0  0  0  0  0  0  0  0  0
  139.6220   71.3060  222.9840 C   0  0  0  0  0  0  0  0  0  0  0  0
  140.7050   71.4940  224.0180 C   0  0  0  0  0  0  0  0  0  0  0  0
  140.2060   71.2540  225.4230 C   0  0  0  0  0  0  0  0  0  0  0  0
  141.0990   71.8780  226.4610 C   0  0  0  0  0  0  0  0  0  0  0  0
  140.5620   71.4750  227.8240 C   0  0  0  0  0  0  0  0  0  0  0  0
  140.7870   70.1100  227.9630 O   0  0  0  0  0  0  0  0  0  0  0  0
  140.0060   69.3630  227.0850 C   0  0  0  0  0  0  0  0  0  0  0  0
  140.2060   69.7680  225.6470 C   0  0  0  0  0  0  0  0  0  0  0  0
  139.2680   74.9710  222.5150 N   0  0  0  0  0  0  0  0  0  0  0  0
  139.9430   76.0420  222.0620 C   0  0  0  0  0  0  0  0  0  0  0  0
  139.5110   77.4370  222.2370 C   0  0  2  0  0  0  0  0  0  0  0  0
  139.0120   78.0030  220.9240 C   0  0  0  0  0  0  0  0  0  0  0  0
  140.3070   78.3970  220.2430 C   0  0  0  0  0  0  0  0  0  0  0  0
  141.1020   78.9290  221.3800 C   0  0  0  0  0  0  0  0  0  0  0  0
  142.1500   79.8200  221.4860 C   0  0  0  0  0  0  0  0  0  0  0  0
  142.7260   80.1510  222.7100 C   0  0  0  0  0  0  0  0  0  0  0  0
  142.2460   79.5790  223.8660 C   0  0  0  0  0  0  0  0  0  0  0  0
  141.2070   78.6920  223.7780 C   0  0  0  0  0  0  0  0  0  0  0  0
  140.6390   78.3690  222.5520 C   0  0  0  0  0  0  0  0  0  0  0  0
  141.1120   75.8390  221.3900 N   0  0  0  0  0  0  0  0  0  0  0  0
  143.3190   75.3430  219.6300 C   0  0  0  0  0  0  0  0  0  0  0  0
  146.0451   72.8790  215.7990 H   0  0  0  0  0  0  0  0  0  0  0  0
  144.6501   74.7994  215.1945 H   0  0  0  0  0  0  0  0  0  0  0  0
  143.3443   76.0006  216.9383 H   0  0  0  0  0  0  0  0  0  0  0  0
  146.2053   72.0736  218.1391 H   0  0  0  0  0  0  0  0  0  0  0  0
  145.4175   72.2763  220.4166 H   0  0  0  0  0  0  0  0  0  0  0  0
  145.3638   73.9863  220.8971 H   0  0  0  0  0  0  0  0  0  0  0  0
  142.9381   72.2691  220.0916 H   0  0  0  0  0  0  0  0  0  0  0  0
  143.3505   72.7196  221.7576 H   0  0  0  0  0  0  0  0  0  0  0  0
  137.9410   72.7350  223.0690 H   0  0  0  0  0  0  0  0  0  0  0  0
  138.9088   70.5389  223.3200 H   0  0  0  0  0  0  0  0  0  0  0  0
  140.0492   70.9754  222.0258 H   0  0  0  0  0  0  0  0  0  0  0  0
  141.5213   70.7874  223.8073 H   0  0  0  0  0  0  0  0  0  0  0  0
  141.0496   72.5369  223.9576 H   0  0  0  0  0  0  0  0  0  0  0  0
  139.2067   71.7031  225.5220 H   0  0  0  0  0  0  0  0  0  0  0  0
  142.1293   71.5121  226.3396 H   0  0  0  0  0  0  0  0  0  0  0  0
  141.1101   72.9729  226.3562 H   0  0  0  0  0  0  0  0  0  0  0  0
  141.0892   72.0272  228.6159 H   0  0  0  0  0  0  0  0  0  0  0  0
  139.4898   71.7063  227.9072 H   0  0  0  0  0  0  0  0  0  0  0  0
  140.2718   68.3010  227.1926 H   0  0  0  0  0  0  0  0  0  0  0  0
  138.9512   69.5437  227.3395 H   0  0  0  0  0  0  0  0  0  0  0  0
  141.1720   69.3672  225.3063 H   0  0  0  0  0  0  0  0  0  0  0  0
  139.3545   69.3617  225.0814 H   0  0  0  0  0  0  0  0  0  0  0  0
  138.7646   77.3871  223.0434 H   0  0  0  0  0  0  0  0  0  0  0  0
  138.4682   77.2444  220.3419 H   0  0  0  0  0  0  0  0  0  0  0  0
  138.2993   78.8330  221.0393 H   0  0  0  0  0  0  0  0  0  0  0  0
  140.7985   77.5266  219.7839 H   0  0  0  0  0  0  0  0  0  0  0  0
  140.1755   79.1137  219.4189 H   0  0  0  0  0  0  0  0  0  0  0  0
  142.5448   80.2856  220.5709 H   0  0  0  0  0  0  0  0  0  0  0  0
  143.5606   80.8662  222.7526 H   0  0  0  0  0  0  0  0  0  0  0  0
  142.6885   79.8296  224.8414 H   0  0  0  0  0  0  0  0  0  0  0  0
  140.8149   78.2267  224.6944 H   0  0  0  0  0  0  0  0  0  0  0  0
  142.5009   75.9550  219.2224 H   0  0  0  0  0  0  0  0  0  0  0  0
  144.0096   75.9814  220.2006 H   0  0  0  0  0  0  0  0  0  0  0  0
  1  2  2  0
  2  3  1  0
  3  4  2  0
  4  5  1  0
  5  6  2  0
  5  7  1  0
  7  8  1  0
  8  9  1  0
  9 10  1  0
 10 11  2  0
 11 12  1  0
 12 13  1  0
 13 14  1  0
 14 15  1  0
 15 16  1  0
 16 17  1  0
 17 18  1  0
 18 19  1  0
 19 20  1  0
 20 21  1  0
 12 22  2  0
 22 23  1  0
 23 24  1  0
 24 25  1  0
 25 26  1  0
 26 27  1  0
 27 28  2  0
 28 29  1  0
 29 30  2  0
 30 31  1  0
 31 32  2  0
 23 33  2  0
  9 34  1  0
  6  1  1  0
 33 10  1  0
 34  4  1  0
 21 16  1  0
 32 24  1  0
 32 27  1  0
  1 35  1  0
  2 36  1  0
  3 37  1  0
  6 38  1  0
  7 39  1  0
  7 40  1  0
  8 41  1  0
  8 42  1  0
 13 43  1  0
 14 44  1  0
 14 45  1  0
 15 46  1  0
 15 47  1  0
 16 48  1  0
 17 49  1  0
 17 50  1  0
 18 51  1  0
 18 52  1  0
 20 53  1  0
 20 54  1  0
 21 55  1  0
 21 56  1  0
 24 57  1  1
 25 58  1  0
 25 59  1  0
 26 60  1  0
 26 61  1  0
 28 62  1  0
 29 63  1  0
 30 64  1  0
 31 65  1  0
 34 66  1  0
 34 67  1  0
M  END
>  <smiles>  (47) 
c1ccc2c(c1)CCN(c1nc(NCCC3CCOCC3)nc(C3CCc4ccccc43)n1)C2

>  <score_type>  (47) 
oracle

>  <origin>  (47) 
autodockgpu

>  <m_score__min__energy>  (47) 
-9.9800000000000004

>  <m_primary>  (47) 
energy

>  <rmsd>  (47) 
9.336653977368115

>  <m_score__min__rmsd>  (47) 
9.336653977368115

>  <meeko>  (47) 
{"free_energy": -9.49, "intermolecular_energy": -11.28, "internal_energy": -1.42, "cluster_size": 19, "cluster_id": 1, "rank_in_cluster": 12}

>  <energy>  (47) 
-8.9

>  <cluster_rmsd>  (47) 
0.25

>  <cluster>  (47) 
7

$$$$

     RDKit          3D

 67 72  0  0  0  0  0  0  0  0999 V2000
  141.5060   80.9560  223.8550 C   0  0  0  0  0  0  0  0  0  0  0  0
  142.6410   80.4440  223.2790 C   0  0  0  0  0  0  0  0  0  0  0  0
  142.5610   79.3690  222.4240 C   0  0  0  0  0  0  0  0  0  0  0  0
  141.3140   78.8270  222.1660 C   0  0  0  0  0  0  0  0  0  0  0  0
  140.1730   79.3550  222.7540 C   0  0  0  0  0  0  0  0  0  0  0  0
  140.2540   80.4340  223.6120 C   0  0  0  0  0  0  0  0  0  0  0  0
  138.8830   78.6950  222.4050 C   0  0  0  0  0  0  0  0  0  0  0  0
  139.0570   77.2170  222.6900 C   0  0  0  0  0  0  0  0  0  0  0  0
  140.1460   76.7570  221.8380 N   0  0  0  0  0  0  0  0  0  0  0  0
  140.2440   75.3830  221.5810 C   0  0  0  0  0  0  0  0  0  0  0  0
  139.6180   74.5110  222.3910 N   0  0  0  0  0  0  0  0  0  0  0  0
  139.6770   73.1650  222.1900 C   0  0  0  0  0  0  0  0  0  0  0  0
  138.9950   72.2570  223.0760 N   0  0  0  0  0  0  0  0  0  0  0  0
  139.5190   70.9030  223.2420 C   0  0  0  0  0  0  0  0  0  0  0  0
  140.6910   70.9950  224.1880 C   0  0  0  0  0  0  0  0  0  0  0  0
  140.2580   71.0940  225.6320 C   0  0  0  0  0  0  0  0  0  0  0  0
  141.2270   71.8900  226.4640 C   0  0  0  0  0  0  0  0  0  0  0  0
  140.7480   71.8220  227.9050 C   0  0  0  0  0  0  0  0  0  0  0  0
  140.9320   70.5130  228.3350 O   0  0  0  0  0  0  0  0  0  0  0  0
  140.0810   69.6270  227.6800 C   0  0  0  0  0  0  0  0  0  0  0  0
  140.2190   69.6950  226.1810 C   0  0  0  0  0  0  0  0  0  0  0  0
  140.3860   72.7330  221.1490 N   0  0  0  0  0  0  0  0  0  0  0  0
  141.0320   73.5600  220.3080 C   0  0  0  0  0  0  0  0  0  0  0  0
  141.8250   73.1180  219.1500 C   0  0  2  0  0  0  0  0  0  0  0  0
  141.5100   71.6760  218.8140 C   0  0  0  0  0  0  0  0  0  0  0  0
  142.3780   70.9290  219.8060 C   0  0  0  0  0  0  0  0  0  0  0  0
  143.6120   71.7570  219.8190 C   0  0  0  0  0  0  0  0  0  0  0  0
  144.9340   71.5060  220.1220 C   0  0  0  0  0  0  0  0  0  0  0  0
  145.9150   72.4920  220.0490 C   0  0  0  0  0  0  0  0  0  0  0  0
  145.5720   73.7680  219.6630 C   0  0  0  0  0  0  0  0  0  0  0  0
  144.2640   74.0330  219.3600 C   0  0  0  0  0  0  0  0  0  0  0  0
  143.2930   73.0420  219.4350 C   0  0  0  0  0  0  0  0  0  0  0  0
  140.9590   74.9030  220.5280 N   0  0  0  0  0  0  0  0  0  0  0  0
  141.1110   77.6670  221.2600 C   0  0  0  0  0  0  0  0  0  0  0  0
  141.5988   81.8149  224.5359 H   0  0  0  0  0  0  0  0  0  0  0  0
  143.6193   80.8949  223.5017 H   0  0  0  0  0  0  0  0  0  0  0  0
  143.4652   78.9510  221.9574 H   0  0  0  0  0  0  0  0  0  0  0  0
  139.3554   80.8596  224.0825 H   0  0  0  0  0  0  0  0  0  0  0  0
  138.0687   79.1060  223.0198 H   0  0  0  0  0  0  0  0  0  0  0  0
  138.6247   78.8660  221.3495 H   0  0  0  0  0  0  0  0  0  0  0  0
  139.3112   77.0615  223.7489 H   0  0  0  0  0  0  0  0  0  0  0  0
  138.1302   76.6607  222.4863 H   0  0  0  0  0  0  0  0  0  0  0  0
  138.1480   72.6040  223.5670 H   0  0  0  0  0  0  0  0  0  0  0  0
  138.7434   70.2472  223.6644 H   0  0  0  0  0  0  0  0  0  0  0  0
  139.8284   70.4810  222.2744 H   0  0  0  0  0  0  0  0  0  0  0  0
  141.3144   70.0969  224.0667 H   0  0  0  0  0  0  0  0  0  0  0  0
  141.2503   71.9096  223.9417 H   0  0  0  0  0  0  0  0  0  0  0  0
  139.2813   71.5984  225.6728 H   0  0  0  0  0  0  0  0  0  0  0  0
  142.2358   71.4592  226.3820 H   0  0  0  0  0  0  0  0  0  0  0  0
  141.2723   72.9330  226.1176 H   0  0  0  0  0  0  0  0  0  0  0  0
  141.3347   72.5108  228.5306 H   0  0  0  0  0  0  0  0  0  0  0  0
  139.6902   72.1141  227.9804 H   0  0  0  0  0  0  0  0  0  0  0  0
  140.3153   68.6041  228.0097 H   0  0  0  0  0  0  0  0  0  0  0  0
  139.0479   69.9072  227.9333 H   0  0  0  0  0  0  0  0  0  0  0  0
  141.1516   69.1859  225.8963 H   0  0  0  0  0  0  0  0  0  0  0  0
  139.3258   69.2124  225.7576 H   0  0  0  0  0  0  0  0  0  0  0  0
  141.5823   73.8489  218.3646 H   0  0  0  0  0  0  0  0  0  0  0  0
  140.4438   71.4529  218.9674 H   0  0  0  0  0  0  0  0  0  0  0  0
  141.7044   71.4108  217.7643 H   0  0  0  0  0  0  0  0  0  0  0  0
  141.9094   70.8940  220.8006 H   0  0  0  0  0  0  0  0  0  0  0  0
  142.5523   69.8762  219.5391 H   0  0  0  0  0  0  0  0  0  0  0  0
  145.2238   70.4912  220.4323 H   0  0  0  0  0  0  0  0  0  0  0  0
  146.9591   72.2521  220.2987 H   0  0  0  0  0  0  0  0  0  0  0  0
  146.3340   74.5588  219.5994 H   0  0  0  0  0  0  0  0  0  0  0  0
  143.9762   75.0489  219.0515 H   0  0  0  0  0  0  0  0  0  0  0  0
  142.0676   77.1429  221.1177 H   0  0  0  0  0  0  0  0  0  0  0  0
  140.7368   78.0251  220.2896 H   0  0  0  0  0  0  0  0  0  0  0  0
  1  2  2  0
  2  3  1  0
  3  4  2  0
  4  5  1  0
  5  6  2  0
  5  7  1  0
  7  8  1  0
  8  9  1  0
  9 10  1  0
 10 11  2  0
 11 12  1  0
 12 13  1  0
 13 14  1  0
 14 15  1  0
 15 16  1  0
 16 17  1  0
 17 18  1  0
 18 19  1  0
 19 20  1  0
 20 21  1  0
 12 22  2  0
 22 23  1  0
 23 24  1  0
 24 25  1  0
 25 26  1  0
 26 27  1  0
 27 28  2  0
 28 29  1  0
 29 30  2  0
 30 31  1  0
 31 32  2  0
 23 33  2  0
  9 34  1  0
  6  1  1  0
 33 10  1  0
 34  4  1  0
 21 16  1  0
 32 24  1  0
 32 27  1  0
  1 35  1  0
  2 36  1  0
  3 37  1  0
  6 38  1  0
  7 39  1  0
  7 40  1  0
  8 41  1  0
  8 42  1  0
 13 43  1  0
 14 44  1  0
 14 45  1  0
 15 46  1  0
 15 47  1  0
 16 48  1  0
 17 49  1  0
 17 50  1  0
 18 51  1  0
 18 52  1  0
 20 53  1  0
 20 54  1  0
 21 55  1  0
 21 56  1  0
 24 57  1  6
 25 58  1  0
 25 59  1  0
 26 60  1  0
 26 61  1  0
 28 62  1  0
 29 63  1  0
 30 64  1  0
 31 65  1  0
 34 66  1  0
 34 67  1  0
M  END
>  <smiles>  (48) 
c1ccc2c(c1)CCN(c1nc(NCCC3CCOCC3)nc(C3CCc4ccccc43)n1)C2

>  <score_type>  (48) 
oracle

>  <origin>  (48) 
autodockgpu

>  <m_score__min__energy>  (48) 
-9.9800000000000004

>  <m_primary>  (48) 
energy

>  <rmsd>  (48) 
7.264624121689962

>  <m_score__min__rmsd>  (48) 
7.264624121689962

>  <meeko>  (48) 
{"free_energy": -9.82, "intermolecular_energy": -11.61, "internal_energy": -1.36, "cluster_size": 19, "cluster_id": 1, "rank_in_cluster": 5}

>  <energy>  (48) 
-8.86

>  <cluster_rmsd>  (48) 
0.0

>  <cluster>  (48) 
8

$$$$

     RDKit          3D

 67 72  0  0  0  0  0  0  0  0999 V2000
  141.2230   80.7770  223.8550 C   0  0  0  0  0  0  0  0  0  0  0  0
  142.4470   80.3340  223.4230 C   0  0  0  0  0  0  0  0  0  0  0  0
  142.5380   79.2130  222.6300 C   0  0  0  0  0  0  0  0  0  0  0  0
  141.3710   78.5550  222.2870 C   0  0  0  0  0  0  0  0  0  0  0  0
  140.1380   79.0150  222.7300 C   0  0  0  0  0  0  0  0  0  0  0  0
  140.0470   80.1390  223.5250 C   0  0  0  0  0  0  0  0  0  0  0  0
  138.9460   78.2300  222.2990 C   0  0  0  0  0  0  0  0  0  0  0  0
  139.2060   76.7900  222.6880 C   0  0  0  0  0  0  0  0  0  0  0  0
  140.4090   76.3800  221.9730 N   0  0  0  0  0  0  0  0  0  0  0  0
  140.6400   75.0070  221.8090 C   0  0  0  0  0  0  0  0  0  0  0  0
  139.7610   74.1230  222.3110 N   0  0  0  0  0  0  0  0  0  0  0  0
  139.9330   72.7770  222.1830 C   0  0  0  0  0  0  0  0  0  0  0  0
  138.9730   71.8560  222.7320 N   0  0  0  0  0  0  0  0  0  0  0  0
  139.2070   71.2990  224.0630 C   0  0  0  0  0  0  0  0  0  0  0  0
  140.7010   71.2410  224.2630 C   0  0  0  0  0  0  0  0  0  0  0  0
  141.0780   70.7360  225.6360 C   0  0  0  0  0  0  0  0  0  0  0  0
  140.1430   69.6650  226.1270 C   0  0  0  0  0  0  0  0  0  0  0  0
  140.5520   69.3220  227.5500 C   0  0  0  0  0  0  0  0  0  0  0  0
  140.2450   70.4250  228.3380 O   0  0  0  0  0  0  0  0  0  0  0  0
  141.0500   71.5200  228.0360 C   0  0  0  0  0  0  0  0  0  0  0  0
  140.9820   71.9020  226.5800 C   0  0  0  0  0  0  0  0  0  0  0  0
  141.0180   72.3600  221.5340 N   0  0  0  0  0  0  0  0  0  0  0  0
  141.9300   73.2000  221.0120 C   0  0  0  0  0  0  0  0  0  0  0  0
  143.1390   72.7750  220.2910 C   0  0  2  0  0  0  0  0  0  0  0  0
  144.3590   73.4810  220.8440 C   0  0  0  0  0  0  0  0  0  0  0  0
  144.2950   74.8170  220.1310 C   0  0  0  0  0  0  0  0  0  0  0  0
  143.8400   74.4180  218.7740 C   0  0  0  0  0  0  0  0  0  0  0  0
  143.9570   74.9790  217.5190 C   0  0  0  0  0  0  0  0  0  0  0  0
  143.4210   74.3780  216.3820 C   0  0  0  0  0  0  0  0  0  0  0  0
  142.7480   73.1830  216.4950 C   0  0  0  0  0  0  0  0  0  0  0  0
  142.6230   72.6140  217.7340 C   0  0  0  0  0  0  0  0  0  0  0  0
  143.1620   73.2210  218.8610 C   0  0  0  0  0  0  0  0  0  0  0  0
  141.7370   74.5420  221.1530 N   0  0  0  0  0  0  0  0  0  0  0  0
  141.3520   77.3360  221.4360 C   0  0  0  0  0  0  0  0  0  0  0  0
  141.1784   81.6751  224.4885 H   0  0  0  0  0  0  0  0  0  0  0  0
  143.3593   80.8767  223.7115 H   0  0  0  0  0  0  0  0  0  0  0  0
  143.5146   78.8494  222.2778 H   0  0  0  0  0  0  0  0  0  0  0  0
  139.0749   80.5108  223.8810 H   0  0  0  0  0  0  0  0  0  0  0  0
  138.0438   78.6023  222.8064 H   0  0  0  0  0  0  0  0  0  0  0  0
  138.7835   78.3227  221.2150 H   0  0  0  0  0  0  0  0  0  0  0  0
  139.3638   76.7120  223.7738 H   0  0  0  0  0  0  0  0  0  0  0  0
  138.3512   76.1473  222.4306 H   0  0  0  0  0  0  0  0  0  0  0  0
  138.1430   71.6200  222.1540 H   0  0  0  0  0  0  0  0  0  0  0  0
  138.7487   71.9434  224.8276 H   0  0  0  0  0  0  0  0  0  0  0  0
  138.7608   70.2976  224.1524 H   0  0  0  0  0  0  0  0  0  0  0  0
  141.1328   70.5677  223.5079 H   0  0  0  0  0  0  0  0  0  0  0  0
  141.0933   72.2637  224.1619 H   0  0  0  0  0  0  0  0  0  0  0  0
  142.0892   70.3058  225.5867 H   0  0  0  0  0  0  0  0  0  0  0  0
  139.1071   70.0346  226.1123 H   0  0  0  0  0  0  0  0  0  0  0  0
  140.1982   68.7757  225.4820 H   0  0  0  0  0  0  0  0  0  0  0  0
  139.9956   68.4404  227.9009 H   0  0  0  0  0  0  0  0  0  0  0  0
  141.6253   69.0873  227.6043 H   0  0  0  0  0  0  0  0  0  0  0  0
  140.7209   72.3774  228.6414 H   0  0  0  0  0  0  0  0  0  0  0  0
  142.0904   71.2420  228.2604 H   0  0  0  0  0  0  0  0  0  0  0  0
  140.0248   72.4137  226.4012 H   0  0  0  0  0  0  0  0  0  0  0  0
  141.8510   72.5459  226.3793 H   0  0  0  0  0  0  0  0  0  0  0  0
  143.1402   71.6798  220.3939 H   0  0  0  0  0  0  0  0  0  0  0  0
  144.2894   73.6055  221.9347 H   0  0  0  0  0  0  0  0  0  0  0  0
  145.3003   72.9351  220.6829 H   0  0  0  0  0  0  0  0  0  0  0  0
  143.5733   75.4933  220.6123 H   0  0  0  0  0  0  0  0  0  0  0  0
  145.2459   75.3700  220.1365 H   0  0  0  0  0  0  0  0  0  0  0  0
  144.4921   75.9341  217.4123 H   0  0  0  0  0  0  0  0  0  0  0  0
  143.5353   74.8567  215.3982 H   0  0  0  0  0  0  0  0  0  0  0  0
  142.3190   72.6947  215.6076 H   0  0  0  0  0  0  0  0  0  0  0  0
  142.0864   71.6595  217.8387 H   0  0  0  0  0  0  0  0  0  0  0  0
  142.3563   76.8877  221.4173 H   0  0  0  0  0  0  0  0  0  0  0  0
  141.0502   77.6102  220.4144 H   0  0  0  0  0  0  0  0  0  0  0  0
  1  2  2  0
  2  3  1  0
  3  4  2  0
  4  5  1  0
  5  6  2  0
  5  7  1  0
  7  8  1  0
  8  9  1  0
  9 10  1  0
 10 11  2  0
 11 12  1  0
 12 13  1  0
 13 14  1  0
 14 15  1  0
 15 16  1  0
 16 17  1  0
 17 18  1  0
 18 19  1  0
 19 20  1  0
 20 21  1  0
 12 22  2  0
 22 23  1  0
 23 24  1  0
 24 25  1  0
 25 26  1  0
 26 27  1  0
 27 28  2  0
 28 29  1  0
 29 30  2  0
 30 31  1  0
 31 32  2  0
 23 33  2  0
  9 34  1  0
  6  1  1  0
 33 10  1  0
 34  4  1  0
 21 16  1  0
 32 24  1  0
 32 27  1  0
  1 35  1  0
  2 36  1  0
  3 37  1  0
  6 38  1  0
  7 39  1  0
  7 40  1  0
  8 41  1  0
  8 42  1  0
 13 43  1  0
 14 44  1  0
 14 45  1  0
 15 46  1  0
 15 47  1  0
 16 48  1  0
 17 49  1  0
 17 50  1  0
 18 51  1  0
 18 52  1  0
 20 53  1  0
 20 54  1  0
 21 55  1  0
 21 56  1  0
 24 57  1  6
 25 58  1  0
 25 59  1  0
 26 60  1  0
 26 61  1  0
 28 62  1  0
 29 63  1  0
 30 64  1  0
 31 65  1  0
 34 66  1  0
 34 67  1  0
M  END
>  <smiles>  (49) 
c1ccc2c(c1)CCN(c1nc(NCCC3CCOCC3)nc(C3CCc4ccccc43)n1)C2

>  <score_type>  (49) 
oracle

>  <origin>  (49) 
autodockgpu

>  <m_score__min__energy>  (49) 
-9.9800000000000004

>  <m_primary>  (49) 
energy

>  <rmsd>  (49) 
9.25131716341765

>  <m_score__min__rmsd>  (49) 
9.25131716341765

>  <meeko>  (49) 
{"free_energy": -9.45, "intermolecular_energy": -11.24, "internal_energy": -1.31, "cluster_size": 19, "cluster_id": 1, "rank_in_cluster": 13}

>  <energy>  (49) 
-8.6

>  <cluster_rmsd>  (49) 
0.0

>  <cluster>  (49) 
9

$$$$

     RDKit          3D

 67 72  0  0  0  0  0  0  0  0999 V2000
  141.7090   81.3380  222.3070 C   0  0  0  0  0  0  0  0  0  0  0  0
  141.5050   80.8560  223.5740 C   0  0  0  0  0  0  0  0  0  0  0  0
  141.3090   79.5090  223.7810 C   0  0  0  0  0  0  0  0  0  0  0  0
  141.3240   78.6680  222.6830 C   0  0  0  0  0  0  0  0  0  0  0  0
  141.5330   79.1690  221.4050 C   0  0  0  0  0  0  0  0  0  0  0  0
  141.7290   80.5200  221.1980 C   0  0  0  0  0  0  0  0  0  0  0  0
  141.5290   78.1740  220.2960 C   0  0  0  0  0  0  0  0  0  0  0  0
  140.2380   77.3910  220.4130 C   0  0  0  0  0  0  0  0  0  0  0  0
  140.2650   76.7430  221.7190 N   0  0  0  0  0  0  0  0  0  0  0  0
  139.4220   75.6430  221.9230 C   0  0  0  0  0  0  0  0  0  0  0  0
  139.9560   74.4180  222.0780 N   0  0  0  0  0  0  0  0  0  0  0  0
  139.1870   73.3120  222.2800 C   0  0  0  0  0  0  0  0  0  0  0  0
  139.7890   72.0150  222.4420 N   0  0  0  0  0  0  0  0  0  0  0  0
  139.2540   71.1070  223.4550 C   0  0  0  0  0  0  0  0  0  0  0  0
  140.4150   70.6590  224.3070 C   0  0  0  0  0  0  0  0  0  0  0  0
  140.1550   70.8550  225.7820 C   0  0  0  0  0  0  0  0  0  0  0  0
  141.0840   71.8660  226.3970 C   0  0  0  0  0  0  0  0  0  0  0  0
  140.8040   71.8910  227.8910 C   0  0  0  0  0  0  0  0  0  0  0  0
  141.2390   70.6760  228.4070 O   0  0  0  0  0  0  0  0  0  0  0  0
  140.4600   69.6130  227.9600 C   0  0  0  0  0  0  0  0  0  0  0  0
  140.3990   69.5340  226.4560 C   0  0  0  0  0  0  0  0  0  0  0  0
  137.8670   73.4860  222.3200 N   0  0  0  0  0  0  0  0  0  0  0  0
  137.2790   74.6860  222.1720 C   0  0  0  0  0  0  0  0  0  0  0  0
  135.8270   74.9140  222.2100 C   0  0  2  0  0  0  0  0  0  0  0  0
  135.5200   76.3890  222.0490 C   0  0  0  0  0  0  0  0  0  0  0  0
  135.7280   76.9050  223.4580 C   0  0  0  0  0  0  0  0  0  0  0  0
  135.1640   75.8000  224.2760 C   0  0  0  0  0  0  0  0  0  0  0  0
  134.6280   75.7210  225.5450 C   0  0  0  0  0  0  0  0  0  0  0  0
  134.1600   74.5240  226.0820 C   0  0  0  0  0  0  0  0  0  0  0  0
  134.2260   73.3690  225.3370 C   0  0  0  0  0  0  0  0  0  0  0  0
  134.7560   73.4310  224.0760 C   0  0  0  0  0  0  0  0  0  0  0  0
  135.2190   74.6300  223.5490 C   0  0  0  0  0  0  0  0  0  0  0  0
  138.0690   75.7790  221.9700 N   0  0  0  0  0  0  0  0  0  0  0  0
  141.1240   77.1990  222.7900 C   0  0  0  0  0  0  0  0  0  0  0  0
  141.8625   82.4186  222.1703 H   0  0  0  0  0  0  0  0  0  0  0  0
  141.4979   81.5483  224.4288 H   0  0  0  0  0  0  0  0  0  0  0  0
  141.1447   79.1119  224.7936 H   0  0  0  0  0  0  0  0  0  0  0  0
  141.8943   80.9267  220.1894 H   0  0  0  0  0  0  0  0  0  0  0  0
  141.5723   78.6893  219.3251 H   0  0  0  0  0  0  0  0  0  0  0  0
  142.4015   77.5073  220.3617 H   0  0  0  0  0  0  0  0  0  0  0  0
  139.3745   78.0688  220.3426 H   0  0  0  0  0  0  0  0  0  0  0  0
  140.1457   76.6519  219.6035 H   0  0  0  0  0  0  0  0  0  0  0  0
  140.5900   71.7720  221.8260 H   0  0  0  0  0  0  0  0  0  0  0  0
  138.5105   71.6294  224.0750 H   0  0  0  0  0  0  0  0  0  0  0  0
  138.7578   70.2450  222.9851 H   0  0  0  0  0  0  0  0  0  0  0  0
  140.5995   69.5909  224.1195 H   0  0  0  0  0  0  0  0  0  0  0  0
  141.2871   71.2720  224.0354 H   0  0  0  0  0  0  0  0  0  0  0  0
  139.1251   71.2193  225.9110 H   0  0  0  0  0  0  0  0  0  0  0  0
  142.1293   71.5756  226.2152 H   0  0  0  0  0  0  0  0  0  0  0  0
  140.9233   72.8604  225.9551 H   0  0  0  0  0  0  0  0  0  0  0  0
  141.3512   72.7198  228.3640 H   0  0  0  0  0  0  0  0  0  0  0  0
  139.7317   72.0389  228.0867 H   0  0  0  0  0  0  0  0  0  0  0  0
  140.8878   68.6757  228.3454 H   0  0  0  0  0  0  0  0  0  0  0  0
  139.4356   69.7716  228.3280 H   0  0  0  0  0  0  0  0  0  0  0  0
  141.3560   69.1319  226.0920 H   0  0  0  0  0  0  0  0  0  0  0  0
  139.5445   68.8877  226.2065 H   0  0  0  0  0  0  0  0  0  0  0  0
  135.4330   74.2603  221.4179 H   0  0  0  0  0  0  0  0  0  0  0  0
  136.2129   76.8673  221.3411 H   0  0  0  0  0  0  0  0  0  0  0  0
  134.5182   76.5936  221.6433 H   0  0  0  0  0  0  0  0  0  0  0  0
  136.7956   77.0582  223.6744 H   0  0  0  0  0  0  0  0  0  0  0  0
  135.2590   77.8819  223.6471 H   0  0  0  0  0  0  0  0  0  0  0  0
  134.5682   76.6352  226.1538 H   0  0  0  0  0  0  0  0  0  0  0  0
  133.7391   74.5021  227.0981 H   0  0  0  0  0  0  0  0  0  0  0  0
  133.8605   72.4155  225.7460 H   0  0  0  0  0  0  0  0  0  0  0  0
  134.8162   72.5152  223.4696 H   0  0  0  0  0  0  0  0  0  0  0  0
  140.6576   76.9633  223.7579 H   0  0  0  0  0  0  0  0  0  0  0  0
  142.0979   76.6931  222.7154 H   0  0  0  0  0  0  0  0  0  0  0  0
  1  2  2  0
  2  3  1  0
  3  4  2  0
  4  5  1  0
  5  6  2  0
  5  7  1  0
  7  8  1  0
  8  9  1  0
  9 10  1  0
 10 11  2  0
 11 12  1  0
 12 13  1  0
 13 14  1  0
 14 15  1  0
 15 16  1  0
 16 17  1  0
 17 18  1  0
 18 19  1  0
 19 20  1  0
 20 21  1  0
 12 22  2  0
 22 23  1  0
 23 24  1  0
 24 25  1  0
 25 26  1  0
 26 27  1  0
 27 28  2  0
 28 29  1  0
 29 30  2  0
 30 31  1  0
 31 32  2  0
 23 33  2  0
  9 34  1  0
  6  1  1  0
 33 10  1  0
 34  4  1  0
 21 16  1  0
 32 24  1  0
 32 27  1  0
  1 35  1  0
  2 36  1  0
  3 37  1  0
  6 38  1  0
  7 39  1  0
  7 40  1  0
  8 41  1  0
  8 42  1  0
 13 43  1  0
 14 44  1  0
 14 45  1  0
 15 46  1  0
 15 47  1  0
 16 48  1  0
 17 49  1  0
 17 50  1  0
 18 51  1  0
 18 52  1  0
 20 53  1  0
 20 54  1  0
 21 55  1  0
 21 56  1  0
 24 57  1  6
 25 58  1  0
 25 59  1  0
 26 60  1  0
 26 61  1  0
 28 62  1  0
 29 63  1  0
 30 64  1  0
 31 65  1  0
 34 66  1  0
 34 67  1  0
M  END
>  <smiles>  (50) 
c1ccc2c(c1)CCN(c1nc(NCCC3CCOCC3)nc(C3CCc4ccccc43)n1)C2

>  <score_type>  (50) 
oracle

>  <origin>  (50) 
autodockgpu

>  <m_score__min__energy>  (50) 
-9.9800000000000004

>  <m_primary>  (50) 
energy

>  <rmsd>  (50) 
7.490305327459851

>  <m_score__min__rmsd>  (50) 
7.490305327459851

>  <meeko>  (50) 
{"free_energy": -9.33, "intermolecular_energy": -11.12, "internal_energy": -1.28, "cluster_size": 13, "cluster_id": 2, "rank_in_cluster": 3}

>  <energy>  (50) 
-8.09

>  <cluster_rmsd>  (50) 
0.0

>  <cluster>  (50) 
10

$$$$

     RDKit          3D

 67 72  0  0  0  0  0  0  0  0999 V2000
  140.3670   68.0980  226.5970 C   0  0  0  0  0  0  0  0  0  0  0  0
  141.0830   69.1750  227.0550 C   0  0  0  0  0  0  0  0  0  0  0  0
  141.0500   70.3690  226.3660 C   0  0  0  0  0  0  0  0  0  0  0  0
  140.2970   70.5070  225.2060 C   0  0  0  0  0  0  0  0  0  0  0  0
  139.5680   69.4210  224.7340 C   0  0  0  0  0  0  0  0  0  0  0  0
  139.6210   68.2300  225.4490 C   0  0  0  0  0  0  0  0  0  0  0  0
  138.7410   69.5290  223.4850 C   0  0  0  0  0  0  0  0  0  0  0  0
  139.5810   70.3310  222.5040 C   0  0  0  0  0  0  0  0  0  0  0  0
  139.9840   71.6050  223.0610 N   0  0  0  0  0  0  0  0  0  0  0  0
  140.1110   72.7260  222.1990 C   0  0  0  0  0  0  0  0  0  0  0  0
  139.2620   73.7790  222.3430 N   0  0  0  0  0  0  0  0  0  0  0  0
  139.3630   74.8480  221.5420 C   0  0  0  0  0  0  0  0  0  0  0  0
  138.5140   75.9830  221.6360 N   0  0  0  0  0  0  0  0  0  0  0  0
  139.0560   77.3490  221.6270 C   0  0  0  0  0  0  0  0  0  0  0  0
  140.4060   77.2970  222.2920 C   0  0  0  0  0  0  0  0  0  0  0  0
  141.0430   78.6320  222.4880 C   0  0  0  0  0  0  0  0  0  0  0  0
  141.8240   79.1160  221.3150 C   0  0  0  0  0  0  0  0  0  0  0  0
  142.2450   80.5470  221.5490 C   0  0  0  0  0  0  0  0  0  0  0  0
  141.8220   80.9370  222.8110 O   0  0  0  0  0  0  0  0  0  0  0  0
  142.3980   80.1510  223.8060 C   0  0  0  0  0  0  0  0  0  0  0  0
  141.8880   78.7110  223.7690 C   0  0  0  0  0  0  0  0  0  0  0  0
  140.3180   74.8520  220.5990 N   0  0  0  0  0  0  0  0  0  0  0  0
  141.1790   73.8360  220.4190 C   0  0  0  0  0  0  0  0  0  0  0  0
  142.2380   73.8060  219.4020 C   0  0  1  0  0  0  0  0  0  0  0  0
  142.3790   75.2080  218.8480 C   0  0  0  0  0  0  0  0  0  0  0  0
  143.3120   75.8500  219.8520 C   0  0  0  0  0  0  0  0  0  0  0  0
  144.2370   74.7410  220.1840 C   0  0  0  0  0  0  0  0  0  0  0  0
  145.5230   74.6520  220.6730 C   0  0  0  0  0  0  0  0  0  0  0  0
  146.1730   73.4570  220.9000 C   0  0  0  0  0  0  0  0  0  0  0  0
  145.5050   72.2580  220.6230 C   0  0  0  0  0  0  0  0  0  0  0  0
  144.2340   72.3440  220.1390 C   0  0  0  0  0  0  0  0  0  0  0  0
  143.5900   73.5540  219.9150 C   0  0  0  0  0  0  0  0  0  0  0  0
  141.0590   72.7730  221.2360 N   0  0  0  0  0  0  0  0  0  0  0  0
  140.2600   71.7840  224.4680 C   0  0  0  0  0  0  0  0  0  0  0  0
  140.3893   67.1419  227.1405 H   0  0  0  0  0  0  0  0  0  0  0  0
  141.6836   69.0860  227.9722 H   0  0  0  0  0  0  0  0  0  0  0  0
  141.6290   71.2261  226.7405 H   0  0  0  0  0  0  0  0  0  0  0  0
  139.0476   67.3648  225.0848 H   0  0  0  0  0  0  0  0  0  0  0  0
  138.5270   68.5293  223.0790 H   0  0  0  0  0  0  0  0  0  0  0  0
  137.7722   70.0122  223.6799 H   0  0  0  0  0  0  0  0  0  0  0  0
  140.4812   69.7524  222.2494 H   0  0  0  0  0  0  0  0  0  0  0  0
  138.9713   70.5253  221.6093 H   0  0  0  0  0  0  0  0  0  0  0  0
  137.4910   75.7940  221.7090 H   0  0  0  0  0  0  0  0  0  0  0  0
  139.1593   77.7066  220.5919 H   0  0  0  0  0  0  0  0  0  0  0  0
  138.3848   78.0388  222.1595 H   0  0  0  0  0  0  0  0  0  0  0  0
  140.2870   76.8235  223.2777 H   0  0  0  0  0  0  0  0  0  0  0  0
  141.0666   76.7268  221.6223 H   0  0  0  0  0  0  0  0  0  0  0  0
  140.1890   79.3162  222.6001 H   0  0  0  0  0  0  0  0  0  0  0  0
  142.7171   78.4874  221.1841 H   0  0  0  0  0  0  0  0  0  0  0  0
  141.2011   79.0594  220.4101 H   0  0  0  0  0  0  0  0  0  0  0  0
  143.3404   80.6251  221.4858 H   0  0  0  0  0  0  0  0  0  0  0  0
  141.7942   81.1986  220.7860 H   0  0  0  0  0  0  0  0  0  0  0  0
  143.4890   80.1445  223.6656 H   0  0  0  0  0  0  0  0  0  0  0  0
  142.1232   80.5825  224.7798 H   0  0  0  0  0  0  0  0  0  0  0  0
  142.7282   78.0025  223.7243 H   0  0  0  0  0  0  0  0  0  0  0  0
  141.3092   78.4502  224.6673 H   0  0  0  0  0  0  0  0  0  0  0  0
  141.9365   73.0090  218.7064 H   0  0  0  0  0  0  0  0  0  0  0  0
  142.8215   75.1973  217.8410 H   0  0  0  0  0  0  0  0  0  0  0  0
  141.4218   75.7370  218.7303 H   0  0  0  0  0  0  0  0  0  0  0  0
  143.8522   76.6986  219.4069 H   0  0  0  0  0  0  0  0  0  0  0  0
  142.7940   76.2666  220.7284 H   0  0  0  0  0  0  0  0  0  0  0  0
  146.0604   75.5859  220.8944 H   0  0  0  0  0  0  0  0  0  0  0  0
  147.2005   73.4460  221.2926 H   0  0  0  0  0  0  0  0  0  0  0  0
  145.9878   71.2838  220.7897 H   0  0  0  0  0  0  0  0  0  0  0  0
  143.6934   71.4125  219.9155 H   0  0  0  0  0  0  0  0  0  0  0  0
  141.2353   72.2812  224.5752 H   0  0  0  0  0  0  0  0  0  0  0  0
  139.4465   72.3906  224.8925 H   0  0  0  0  0  0  0  0  0  0  0  0
  1  2  2  0
  2  3  1  0
  3  4  2  0
  4  5  1  0
  5  6  2  0
  5  7  1  0
  7  8  1  0
  8  9  1  0
  9 10  1  0
 10 11  2  0
 11 12  1  0
 12 13  1  0
 13 14  1  0
 14 15  1  0
 15 16  1  0
 16 17  1  0
 17 18  1  0
 18 19  1  0
 19 20  1  0
 20 21  1  0
 12 22  2  0
 22 23  1  0
 23 24  1  0
 24 25  1  0
 25 26  1  0
 26 27  1  0
 27 28  2  0
 28 29  1  0
 29 30  2  0
 30 31  1  0
 31 32  2  0
 23 33  2  0
  9 34  1  0
  6  1  1  0
 33 10  1  0
 34  4  1  0
 21 16  1  0
 32 24  1  0
 32 27  1  0
  1 35  1  0
  2 36  1  0
  3 37  1  0
  6 38  1  0
  7 39  1  0
  7 40  1  0
  8 41  1  0
  8 42  1  0
 13 43  1  0
 14 44  1  0
 14 45  1  0
 15 46  1  0
 15 47  1  0
 16 48  1  0
 17 49  1  0
 17 50  1  0
 18 51  1  0
 18 52  1  0
 20 53  1  0
 20 54  1  0
 21 55  1  0
 21 56  1  0
 24 57  1  6
 25 58  1  0
 25 59  1  0
 26 60  1  0
 26 61  1  0
 28 62  1  0
 29 63  1  0
 30 64  1  0
 31 65  1  0
 34 66  1  0
 34 67  1  0
M  END
>  <smiles>  (51) 
c1ccc2c(c1)CCN(c1nc(NCCC3CCOCC3)nc(C3CCc4ccccc43)n1)C2

>  <score_type>  (51) 
oracle

>  <origin>  (51) 
autodockgpu

>  <m_score__min__energy>  (51) 
-9.8699999999999992

>  <m_primary>  (51) 
energy

>  <rmsd>  (51) 
8.304517358011983

>  <m_score__min__rmsd>  (51) 
8.304517358011983

>  <meeko>  (51) 
{"free_energy": -9.65, "intermolecular_energy": -11.44, "internal_energy": -1.63, "cluster_size": 26, "cluster_id": 1, "rank_in_cluster": 9}

>  <energy>  (51) 
-9.87

>  <cluster_rmsd>  (51) 
0.0

>  <cluster>  (51) 
1

$$$$

     RDKit          3D

 67 72  0  0  0  0  0  0  0  0999 V2000
  137.9660   81.6970  223.3290 C   0  0  0  0  0  0  0  0  0  0  0  0
  136.9100   80.9020  222.9640 C   0  0  0  0  0  0  0  0  0  0  0  0
  137.0990   79.5520  222.7610 C   0  0  0  0  0  0  0  0  0  0  0  0
  138.3510   78.9710  222.9230 C   0  0  0  0  0  0  0  0  0  0  0  0
  139.4290   79.7690  223.2930 C   0  0  0  0  0  0  0  0  0  0  0  0
  139.2080   81.1270  223.4900 C   0  0  0  0  0  0  0  0  0  0  0  0
  140.7980   79.1800  223.4780 C   0  0  0  0  0  0  0  0  0  0  0  0
  140.9770   78.1880  222.3400 C   0  0  0  0  0  0  0  0  0  0  0  0
  139.9100   77.2100  222.3110 N   0  0  0  0  0  0  0  0  0  0  0  0
  140.1970   75.8870  221.8830 C   0  0  0  0  0  0  0  0  0  0  0  0
  139.5910   74.8380  222.5030 N   0  0  0  0  0  0  0  0  0  0  0  0
  139.8470   73.5810  222.1160 C   0  0  0  0  0  0  0  0  0  0  0  0
  139.2500   72.4390  222.7130 N   0  0  0  0  0  0  0  0  0  0  0  0
  139.9490   71.1470  222.7660 C   0  0  0  0  0  0  0  0  0  0  0  0
  139.2500   70.3040  223.8010 C   0  0  0  0  0  0  0  0  0  0  0  0
  139.7430   70.5130  225.1940 C   0  0  0  0  0  0  0  0  0  0  0  0
  140.8610   71.4910  225.3080 C   0  0  0  0  0  0  0  0  0  0  0  0
  141.1340   71.7720  226.7660 C   0  0  0  0  0  0  0  0  0  0  0  0
  140.2970   70.9800  227.5380 O   0  0  0  0  0  0  0  0  0  0  0  0
  140.5250   69.6250  227.3110 C   0  0  0  0  0  0  0  0  0  0  0  0
  140.1010   69.1990  225.9050 C   0  0  0  0  0  0  0  0  0  0  0  0
  140.7110   73.3860  221.1080 N   0  0  0  0  0  0  0  0  0  0  0  0
  141.3340   74.3900  220.4660 C   0  0  0  0  0  0  0  0  0  0  0  0
  142.2810   74.2150  219.3580 C   0  0  1  0  0  0  0  0  0  0  0  0
  142.7620   75.5920  218.9490 C   0  0  0  0  0  0  0  0  0  0  0  0
  143.8930   75.8330  219.9250 C   0  0  0  0  0  0  0  0  0  0  0  0
  144.5020   74.4870  220.0480 C   0  0  0  0  0  0  0  0  0  0  0  0
  145.7440   74.0040  220.4030 C   0  0  0  0  0  0  0  0  0  0  0  0
  146.0580   72.6620  220.4380 C   0  0  0  0  0  0  0  0  0  0  0  0
  145.0750   71.7240  220.0960 C   0  0  0  0  0  0  0  0  0  0  0  0
  143.8480   72.2020  219.7450 C   0  0  0  0  0  0  0  0  0  0  0  0
  143.5430   73.5560  219.7140 C   0  0  0  0  0  0  0  0  0  0  0  0
  141.0610   75.6440  220.8720 N   0  0  0  0  0  0  0  0  0  0  0  0
  138.5570   77.5270  222.7070 C   0  0  0  0  0  0  0  0  0  0  0  0
  137.8222   82.7755  223.4908 H   0  0  0  0  0  0  0  0  0  0  0  0
  135.9106   81.3424  222.8330 H   0  0  0  0  0  0  0  0  0  0  0  0
  136.2452   78.9243  222.4660 H   0  0  0  0  0  0  0  0  0  0  0  0
  140.0532   81.7667  223.7841 H   0  0  0  0  0  0  0  0  0  0  0  0
  141.5645   79.9672  223.4246 H   0  0  0  0  0  0  0  0  0  0  0  0
  140.9015   78.6944  224.4596 H   0  0  0  0  0  0  0  0  0  0  0  0
  140.9842   78.7365  221.3865 H   0  0  0  0  0  0  0  0  0  0  0  0
  141.9269   77.6554  222.4948 H   0  0  0  0  0  0  0  0  0  0  0  0
  138.2960   72.5690  223.1110 H   0  0  0  0  0  0  0  0  0  0  0  0
  139.9031   70.6532  221.7842 H   0  0  0  0  0  0  0  0  0  0  0  0
  141.0084   71.2868  223.0270 H   0  0  0  0  0  0  0  0  0  0  0  0
  138.1770   70.5449  223.7749 H   0  0  0  0  0  0  0  0  0  0  0  0
  139.4571   69.2541  223.5463 H   0  0  0  0  0  0  0  0  0  0  0  0
  138.8823   70.9596  225.7134 H   0  0  0  0  0  0  0  0  0  0  0  0
  141.7640   71.0726  224.8395 H   0  0  0  0  0  0  0  0  0  0  0  0
  140.5848   72.4261  224.7988 H   0  0  0  0  0  0  0  0  0  0  0  0
  142.1832   71.5366  226.9978 H   0  0  0  0  0  0  0  0  0  0  0  0
  140.9485   72.8343  226.9831 H   0  0  0  0  0  0  0  0  0  0  0  0
  141.5986   69.4201  227.4353 H   0  0  0  0  0  0  0  0  0  0  0  0
  139.9239   69.0542  228.0341 H   0  0  0  0  0  0  0  0  0  0  0  0
  140.9275   68.6900  225.3875 H   0  0  0  0  0  0  0  0  0  0  0  0
  139.2603   68.4898  225.9195 H   0  0  0  0  0  0  0  0  0  0  0  0
  141.7344   73.6204  218.6112 H   0  0  0  0  0  0  0  0  0  0  0  0
  143.1229   75.5970  217.9099 H   0  0  0  0  0  0  0  0  0  0  0  0
  141.9779   76.3629  218.9797 H   0  0  0  0  0  0  0  0  0  0  0  0
  144.6146   76.5609  219.5256 H   0  0  0  0  0  0  0  0  0  0  0  0
  143.5614   76.2540  220.8856 H   0  0  0  0  0  0  0  0  0  0  0  0
  146.5264   74.7286  220.6728 H   0  0  0  0  0  0  0  0  0  0  0  0
  147.0659   72.3324  220.7303 H   0  0  0  0  0  0  0  0  0  0  0  0
  145.2853   70.6444  220.1102 H   0  0  0  0  0  0  0  0  0  0  0  0
  143.0626   71.4813  219.4735 H   0  0  0  0  0  0  0  0  0  0  0  0
  137.8705   77.1878  221.9172 H   0  0  0  0  0  0  0  0  0  0  0  0
  138.3621   77.0170  223.6619 H   0  0  0  0  0  0  0  0  0  0  0  0
  1  2  2  0
  2  3  1  0
  3  4  2  0
  4  5  1  0
  5  6  2  0
  5  7  1  0
  7  8  1  0
  8  9  1  0
  9 10  1  0
 10 11  2  0
 11 12  1  0
 12 13  1  0
 13 14  1  0
 14 15  1  0
 15 16  1  0
 16 17  1  0
 17 18  1  0
 18 19  1  0
 19 20  1  0
 20 21  1  0
 12 22  2  0
 22 23  1  0
 23 24  1  0
 24 25  1  0
 25 26  1  0
 26 27  1  0
 27 28  2  0
 28 29  1  0
 29 30  2  0
 30 31  1  0
 31 32  2  0
 23 33  2  0
  9 34  1  0
  6  1  1  0
 33 10  1  0
 34  4  1  0
 21 16  1  0
 32 24  1  0
 32 27  1  0
  1 35  1  0
  2 36  1  0
  3 37  1  0
  6 38  1  0
  7 39  1  0
  7 40  1  0
  8 41  1  0
  8 42  1  0
 13 43  1  0
 14 44  1  0
 14 45  1  0
 15 46  1  0
 15 47  1  0
 16 48  1  0
 17 49  1  0
 17 50  1  0
 18 51  1  0
 18 52  1  0
 20 53  1  0
 20 54  1  0
 21 55  1  0
 21 56  1  0
 24 57  1  6
 25 58  1  0
 25 59  1  0
 26 60  1  0
 26 61  1  0
 28 62  1  0
 29 63  1  0
 30 64  1  0
 31 65  1  0
 34 66  1  0
 34 67  1  0
M  END
>  <smiles>  (52) 
c1ccc2c(c1)CCN(c1nc(NCCC3CCOCC3)nc(C3CCc4ccccc43)n1)C2

>  <score_type>  (52) 
oracle

>  <origin>  (52) 
autodockgpu

>  <m_score__min__energy>  (52) 
-9.8699999999999992

>  <m_primary>  (52) 
energy

>  <rmsd>  (52) 
8.424764209286142

>  <m_score__min__rmsd>  (52) 
8.424764209286142

>  <meeko>  (52) 
{"free_energy": -9.41, "intermolecular_energy": -11.2, "internal_energy": -1.28, "cluster_size": 11, "cluster_id": 2, "rank_in_cluster": 7}

>  <energy>  (52) 
-9.86

>  <cluster_rmsd>  (52) 
0.6

>  <cluster>  (52) 
1

$$$$

     RDKit          3D

 67 72  0  0  0  0  0  0  0  0999 V2000
  140.4770   68.1250  226.4120 C   0  0  0  0  0  0  0  0  0  0  0  0
  141.3850   69.0950  226.7540 C   0  0  0  0  0  0  0  0  0  0  0  0
  141.3760   70.3090  226.1010 C   0  0  0  0  0  0  0  0  0  0  0  0
  140.4560   70.5760  225.0950 C   0  0  0  0  0  0  0  0  0  0  0  0
  139.5310   69.5990  224.7410 C   0  0  0  0  0  0  0  0  0  0  0  0
  139.5650   68.3840  225.4160 C   0  0  0  0  0  0  0  0  0  0  0  0
  138.5200   69.8480  223.6590 C   0  0  0  0  0  0  0  0  0  0  0  0
  139.2670   70.5840  222.5590 C   0  0  0  0  0  0  0  0  0  0  0  0
  139.9090   71.7810  223.0580 N   0  0  0  0  0  0  0  0  0  0  0  0
  140.0180   72.9120  222.2050 C   0  0  0  0  0  0  0  0  0  0  0  0
  139.1560   73.9520  222.3620 N   0  0  0  0  0  0  0  0  0  0  0  0
  139.2400   75.0290  221.5700 C   0  0  0  0  0  0  0  0  0  0  0  0
  138.3770   76.1530  221.6780 N   0  0  0  0  0  0  0  0  0  0  0  0
  138.7740   77.3560  222.4220 C   0  0  0  0  0  0  0  0  0  0  0  0
  140.2590   77.2650  222.6580 C   0  0  0  0  0  0  0  0  0  0  0  0
  140.9550   78.5840  222.6900 C   0  0  0  0  0  0  0  0  0  0  0  0
  141.6870   78.9210  221.4370 C   0  0  0  0  0  0  0  0  0  0  0  0
  142.1740   80.3480  221.5080 C   0  0  0  0  0  0  0  0  0  0  0  0
  141.8360   80.8730  222.7470 O   0  0  0  0  0  0  0  0  0  0  0  0
  142.4380   80.1620  223.7820 C   0  0  0  0  0  0  0  0  0  0  0  0
  141.8720   78.7480  223.9110 C   0  0  0  0  0  0  0  0  0  0  0  0
  140.1900   75.0540  220.6230 N   0  0  0  0  0  0  0  0  0  0  0  0
  141.0640   74.0510  220.4300 C   0  0  0  0  0  0  0  0  0  0  0  0
  142.1190   74.0430  219.4080 C   0  0  1  0  0  0  0  0  0  0  0  0
  142.3480   75.4770  218.9790 C   0  0  0  0  0  0  0  0  0  0  0  0
  143.3200   75.9680  220.0290 C   0  0  0  0  0  0  0  0  0  0  0  0
  144.1740   74.7780  220.2580 C   0  0  0  0  0  0  0  0  0  0  0  0
  145.4510   74.5650  220.7290 C   0  0  0  0  0  0  0  0  0  0  0  0
  146.0240   73.3160  220.8470 C   0  0  0  0  0  0  0  0  0  0  0  0
  145.2810   72.1900  220.4690 C   0  0  0  0  0  0  0  0  0  0  0  0
  144.0180   72.4000  220.0030 C   0  0  0  0  0  0  0  0  0  0  0  0
  143.4520   73.6630  219.8890 C   0  0  0  0  0  0  0  0  0  0  0  0
  140.9610   72.9800  221.2380 N   0  0  0  0  0  0  0  0  0  0  0  0
  140.4440   71.8750  224.3960 C   0  0  0  0  0  0  0  0  0  0  0  0
  140.4785   67.1533  226.9276 H   0  0  0  0  0  0  0  0  0  0  0  0
  142.1203   68.9039  227.5495 H   0  0  0  0  0  0  0  0  0  0  0  0
  142.1097   71.0792  226.3812 H   0  0  0  0  0  0  0  0  0  0  0  0
  138.8383   67.6042  225.1443 H   0  0  0  0  0  0  0  0  0  0  0  0
  138.1210   68.8954  223.2804 H   0  0  0  0  0  0  0  0  0  0  0  0
  137.6646   70.4320  224.0295 H   0  0  0  0  0  0  0  0  0  0  0  0
  140.0340   69.9160  222.1401 H   0  0  0  0  0  0  0  0  0  0  0  0
  138.5397   70.8800  221.7887 H   0  0  0  0  0  0  0  0  0  0  0  0
  137.4530   76.0760  221.2010 H   0  0  0  0  0  0  0  0  0  0  0  0
  138.5403   78.2563  221.8348 H   0  0  0  0  0  0  0  0  0  0  0  0
  138.2306   77.4216  223.3762 H   0  0  0  0  0  0  0  0  0  0  0  0
  140.4249   76.7639  223.6231 H   0  0  0  0  0  0  0  0  0  0  0  0
  140.6802   76.7058  221.8095 H   0  0  0  0  0  0  0  0  0  0  0  0
  140.1345   79.3113  222.7790 H   0  0  0  0  0  0  0  0  0  0  0  0
  142.5472   78.2452  221.3216 H   0  0  0  0  0  0  0  0  0  0  0  0
  141.0126   78.8058  220.5757 H   0  0  0  0  0  0  0  0  0  0  0  0
  143.2664   80.3729  221.3811 H   0  0  0  0  0  0  0  0  0  0  0  0
  141.7073   80.9431  220.7092 H   0  0  0  0  0  0  0  0  0  0  0  0
  143.5183   80.0955  223.5856 H   0  0  0  0  0  0  0  0  0  0  0  0
  142.2364   80.6955  224.7226 H   0  0  0  0  0  0  0  0  0  0  0  0
  142.6809   78.0028  223.8918 H   0  0  0  0  0  0  0  0  0  0  0  0
  141.3344   78.5991  224.8590 H   0  0  0  0  0  0  0  0  0  0  0  0
  141.7680   73.3303  218.6472 H   0  0  0  0  0  0  0  0  0  0  0  0
  142.7881   75.5275  217.9722 H   0  0  0  0  0  0  0  0  0  0  0  0
  141.4259   76.0733  218.9148 H   0  0  0  0  0  0  0  0  0  0  0  0
  143.9125   76.8166  219.6563 H   0  0  0  0  0  0  0  0  0  0  0  0
  142.8296   76.3377  220.9416 H   0  0  0  0  0  0  0  0  0  0  0  0
  146.0470   75.4400  221.0277 H   0  0  0  0  0  0  0  0  0  0  0  0
  147.0485   73.2056  221.2319 H   0  0  0  0  0  0  0  0  0  0  0  0
  145.7008   71.1761  220.5454 H   0  0  0  0  0  0  0  0  0  0  0  0
  143.4184   71.5280  219.7029 H   0  0  0  0  0  0  0  0  0  0  0  0
  141.4754   72.2529  224.3372 H   0  0  0  0  0  0  0  0  0  0  0  0
  139.7947   72.5547  224.9673 H   0  0  0  0  0  0  0  0  0  0  0  0
  1  2  2  0
  2  3  1  0
  3  4  2  0
  4  5  1  0
  5  6  2  0
  5  7  1  0
  7  8  1  0
  8  9  1  0
  9 10  1  0
 10 11  2  0
 11 12  1  0
 12 13  1  0
 13 14  1  0
 14 15  1  0
 15 16  1  0
 16 17  1  0
 17 18  1  0
 18 19  1  0
 19 20  1  0
 20 21  1  0
 12 22  2  0
 22 23  1  0
 23 24  1  0
 24 25  1  0
 25 26  1  0
 26 27  1  0
 27 28  2  0
 28 29  1  0
 29 30  2  0
 30 31  1  0
 31 32  2  0
 23 33  2  0
  9 34  1  0
  6  1  1  0
 33 10  1  0
 34  4  1  0
 21 16  1  0
 32 24  1  0
 32 27  1  0
  1 35  1  0
  2 36  1  0
  3 37  1  0
  6 38  1  0
  7 39  1  0
  7 40  1  0
  8 41  1  0
  8 42  1  0
 13 43  1  0
 14 44  1  0
 14 45  1  0
 15 46  1  0
 15 47  1  0
 16 48  1  0
 17 49  1  0
 17 50  1  0
 18 51  1  0
 18 52  1  0
 20 53  1  0
 20 54  1  0
 21 55  1  0
 21 56  1  0
 24 57  1  6
 25 58  1  0
 25 59  1  0
 26 60  1  0
 26 61  1  0
 28 62  1  0
 29 63  1  0
 30 64  1  0
 31 65  1  0
 34 66  1  0
 34 67  1  0
M  END
>  <smiles>  (53) 
c1ccc2c(c1)CCN(c1nc(NCCC3CCOCC3)nc(C3CCc4ccccc43)n1)C2

>  <score_type>  (53) 
oracle

>  <origin>  (53) 
autodockgpu

>  <m_score__min__energy>  (53) 
-9.8699999999999992

>  <m_primary>  (53) 
energy

>  <rmsd>  (53) 
8.305938346206554

>  <m_score__min__rmsd>  (53) 
8.305938346206554

>  <meeko>  (53) 
{"free_energy": -9.48, "intermolecular_energy": -11.27, "internal_energy": -1.73, "cluster_size": 26, "cluster_id": 1, "rank_in_cluster": 14}

>  <energy>  (53) 
-9.84

>  <cluster_rmsd>  (53) 
0.59

>  <cluster>  (53) 
1

$$$$

     RDKit          3D

 67 72  0  0  0  0  0  0  0  0999 V2000
  140.4100   68.1140  226.4820 C   0  0  0  0  0  0  0  0  0  0  0  0
  141.1110   69.1900  226.9640 C   0  0  0  0  0  0  0  0  0  0  0  0
  141.0680   70.3970  226.2980 C   0  0  0  0  0  0  0  0  0  0  0  0
  140.3190   70.5490  225.1370 C   0  0  0  0  0  0  0  0  0  0  0  0
  139.6040   69.4640  224.6410 C   0  0  0  0  0  0  0  0  0  0  0  0
  139.6680   68.2600  225.3330 C   0  0  0  0  0  0  0  0  0  0  0  0
  138.7830   69.5870  223.3900 C   0  0  0  0  0  0  0  0  0  0  0  0
  139.6190   70.4160  222.4290 C   0  0  0  0  0  0  0  0  0  0  0  0
  140.0040   71.6830  223.0120 N   0  0  0  0  0  0  0  0  0  0  0  0
  140.1230   72.8220  222.1720 C   0  0  0  0  0  0  0  0  0  0  0  0
  139.2760   73.8730  222.3470 N   0  0  0  0  0  0  0  0  0  0  0  0
  139.3690   74.9570  221.5670 C   0  0  0  0  0  0  0  0  0  0  0  0
  138.5230   76.0910  221.6940 N   0  0  0  0  0  0  0  0  0  0  0  0
  138.9940   77.3340  222.3200 C   0  0  0  0  0  0  0  0  0  0  0  0
  140.4890   77.2200  222.4680 C   0  0  0  0  0  0  0  0  0  0  0  0
  141.1610   78.4870  222.8810 C   0  0  0  0  0  0  0  0  0  0  0  0
  140.2240   79.5900  223.2350 C   0  0  0  0  0  0  0  0  0  0  0  0
  141.0040   80.7390  223.8270 C   0  0  0  0  0  0  0  0  0  0  0  0
  142.3550   80.4250  223.7970 O   0  0  0  0  0  0  0  0  0  0  0  0
  142.8020   80.2290  222.4930 C   0  0  0  0  0  0  0  0  0  0  0  0
  142.2050   78.9710  221.8640 C   0  0  0  0  0  0  0  0  0  0  0  0
  140.3140   74.9800  220.6150 N   0  0  0  0  0  0  0  0  0  0  0  0
  141.1730   73.9680  220.4040 C   0  0  0  0  0  0  0  0  0  0  0  0
  142.2210   73.9580  219.3750 C   0  0  1  0  0  0  0  0  0  0  0  0
  142.4390   75.3900  218.9340 C   0  0  0  0  0  0  0  0  0  0  0  0
  143.4160   75.8940  219.9740 C   0  0  0  0  0  0  0  0  0  0  0  0
  144.2770   74.7100  220.2060 C   0  0  0  0  0  0  0  0  0  0  0  0
  145.5590   74.5080  220.6700 C   0  0  0  0  0  0  0  0  0  0  0  0
  146.1390   73.2630  220.7930 C   0  0  0  0  0  0  0  0  0  0  0  0
  145.3990   72.1300  220.4290 C   0  0  0  0  0  0  0  0  0  0  0  0
  144.1320   72.3290  219.9690 C   0  0  0  0  0  0  0  0  0  0  0  0
  143.5590   73.5880  219.8500 C   0  0  0  0  0  0  0  0  0  0  0  0
  141.0610   72.8890  221.2000 N   0  0  0  0  0  0  0  0  0  0  0  0
  140.2710   71.8390  224.4240 C   0  0  0  0  0  0  0  0  0  0  0  0
  140.4408   67.1478  227.0070 H   0  0  0  0  0  0  0  0  0  0  0  0
  141.7080   69.0902  227.8825 H   0  0  0  0  0  0  0  0  0  0  0  0
  141.6355   71.2530  226.6919 H   0  0  0  0  0  0  0  0  0  0  0  0
  139.1067   67.3954  224.9490 H   0  0  0  0  0  0  0  0  0  0  0  0
  138.5819   68.5930  222.9640 H   0  0  0  0  0  0  0  0  0  0  0  0
  137.8082   70.0563  223.5887 H   0  0  0  0  0  0  0  0  0  0  0  0
  140.5272   69.8525  222.1689 H   0  0  0  0  0  0  0  0  0  0  0  0
  139.0124   70.6200  221.5343 H   0  0  0  0  0  0  0  0  0  0  0  0
  137.5550   75.9920  221.3190 H   0  0  0  0  0  0  0  0  0  0  0  0
  138.7430   78.1952  221.6833 H   0  0  0  0  0  0  0  0  0  0  0  0
  138.5152   77.4838  223.2989 H   0  0  0  0  0  0  0  0  0  0  0  0
  140.7031   76.4528  223.2266 H   0  0  0  0  0  0  0  0  0  0  0  0
  140.8861   76.9604  221.4756 H   0  0  0  0  0  0  0  0  0  0  0  0
  141.6883   78.2143  223.8071 H   0  0  0  0  0  0  0  0  0  0  0  0
  139.6989   79.9302  222.3303 H   0  0  0  0  0  0  0  0  0  0  0  0
  139.4896   79.2272  223.9691 H   0  0  0  0  0  0  0  0  0  0  0  0
  140.8232   81.6506  223.2385 H   0  0  0  0  0  0  0  0  0  0  0  0
  140.6837   80.9126  224.8649 H   0  0  0  0  0  0  0  0  0  0  0  0
  142.5154   81.0998  221.8851 H   0  0  0  0  0  0  0  0  0  0  0  0
  143.8947   80.1064  222.5242 H   0  0  0  0  0  0  0  0  0  0  0  0
  141.7286   79.2070  220.9010 H   0  0  0  0  0  0  0  0  0  0  0  0
  142.9683   78.2072  221.6543 H   0  0  0  0  0  0  0  0  0  0  0  0
  141.8691   73.2381  218.6214 H   0  0  0  0  0  0  0  0  0  0  0  0
  142.8717   75.4356  217.9237 H   0  0  0  0  0  0  0  0  0  0  0  0
  141.5132   75.9808  218.8719 H   0  0  0  0  0  0  0  0  0  0  0  0
  144.0018   76.7425  219.5908 H   0  0  0  0  0  0  0  0  0  0  0  0
  142.9301   76.2684  220.8871 H   0  0  0  0  0  0  0  0  0  0  0  0
  146.1522   75.3884  220.9581 H   0  0  0  0  0  0  0  0  0  0  0  0
  147.1669   73.1608  221.1711 H   0  0  0  0  0  0  0  0  0  0  0  0
  145.8246   71.1190  220.5115 H   0  0  0  0  0  0  0  0  0  0  0  0
  143.5355   71.4516  219.6785 H   0  0  0  0  0  0  0  0  0  0  0  0
  141.2400   72.3453  224.5457 H   0  0  0  0  0  0  0  0  0  0  0  0
  139.4488   72.4285  224.8558 H   0  0  0  0  0  0  0  0  0  0  0  0
  1  2  2  0
  2  3  1  0
  3  4  2  0
  4  5  1  0
  5  6  2  0
  5  7  1  0
  7  8  1  0
  8  9  1  0
  9 10  1  0
 10 11  2  0
 11 12  1  0
 12 13  1  0
 13 14  1  0
 14 15  1  0
 15 16  1  0
 16 17  1  0
 17 18  1  0
 18 19  1  0
 19 20  1  0
 20 21  1  0
 12 22  2  0
 22 23  1  0
 23 24  1  0
 24 25  1  0
 25 26  1  0
 26 27  1  0
 27 28  2  0
 28 29  1  0
 29 30  2  0
 30 31  1  0
 31 32  2  0
 23 33  2  0
  9 34  1  0
  6  1  1  0
 33 10  1  0
 34  4  1  0
 21 16  1  0
 32 24  1  0
 32 27  1  0
  1 35  1  0
  2 36  1  0
  3 37  1  0
  6 38  1  0
  7 39  1  0
  7 40  1  0
  8 41  1  0
  8 42  1  0
 13 43  1  0
 14 44  1  0
 14 45  1  0
 15 46  1  0
 15 47  1  0
 16 48  1  0
 17 49  1  0
 17 50  1  0
 18 51  1  0
 18 52  1  0
 20 53  1  0
 20 54  1  0
 21 55  1  0
 21 56  1  0
 24 57  1  6
 25 58  1  0
 25 59  1  0
 26 60  1  0
 26 61  1  0
 28 62  1  0
 29 63  1  0
 30 64  1  0
 31 65  1  0
 34 66  1  0
 34 67  1  0
M  END
>  <smiles>  (54) 
c1ccc2c(c1)CCN(c1nc(NCCC3CCOCC3)nc(C3CCc4ccccc43)n1)C2

>  <score_type>  (54) 
oracle

>  <origin>  (54) 
autodockgpu

>  <m_score__min__energy>  (54) 
-9.8699999999999992

>  <m_primary>  (54) 
energy

>  <rmsd>  (54) 
8.346472503734566

>  <m_score__min__rmsd>  (54) 
8.346472503734566

>  <meeko>  (54) 
{"free_energy": -9.62, "intermolecular_energy": -11.41, "internal_energy": -1.6, "cluster_size": 26, "cluster_id": 1, "rank_in_cluster": 11}

>  <energy>  (54) 
-9.84

>  <cluster_rmsd>  (54) 
0.65

>  <cluster>  (54) 
1

$$$$

     RDKit          3D

 67 72  0  0  0  0  0  0  0  0999 V2000
  140.2740   67.9270  226.1810 C   0  0  0  0  0  0  0  0  0  0  0  0
  141.0400   68.9370  226.7030 C   0  0  0  0  0  0  0  0  0  0  0  0
  141.0560   70.1750  226.0960 C   0  0  0  0  0  0  0  0  0  0  0  0
  140.3030   70.4250  224.9560 C   0  0  0  0  0  0  0  0  0  0  0  0
  139.5220   69.4060  224.4190 C   0  0  0  0  0  0  0  0  0  0  0  0
  139.5270   68.1690  225.0520 C   0  0  0  0  0  0  0  0  0  0  0  0
  138.6940   69.6350  223.1870 C   0  0  0  0  0  0  0  0  0  0  0  0
  139.5630   70.4630  222.2550 C   0  0  0  0  0  0  0  0  0  0  0  0
  140.0260   71.6770  222.8920 N   0  0  0  0  0  0  0  0  0  0  0  0
  140.1970   72.8470  222.1060 C   0  0  0  0  0  0  0  0  0  0  0  0
  139.4330   73.9430  222.3630 N   0  0  0  0  0  0  0  0  0  0  0  0
  139.5770   75.0580  221.6350 C   0  0  0  0  0  0  0  0  0  0  0  0
  138.8170   76.2390  221.8480 N   0  0  0  0  0  0  0  0  0  0  0  0
  139.4490   77.5660  221.8610 C   0  0  0  0  0  0  0  0  0  0  0  0
  140.8210   77.4010  222.4600 C   0  0  0  0  0  0  0  0  0  0  0  0
  141.6210   78.6590  222.5110 C   0  0  0  0  0  0  0  0  0  0  0  0
  141.6230   79.3300  223.8410 C   0  0  0  0  0  0  0  0  0  0  0  0
  142.6190   80.4650  223.8290 C   0  0  0  0  0  0  0  0  0  0  0  0
  143.1720   80.5600  222.5610 O   0  0  0  0  0  0  0  0  0  0  0  0
  142.2000   80.8310  221.6010 C   0  0  0  0  0  0  0  0  0  0  0  0
  141.2430   79.6550  221.4050 C   0  0  0  0  0  0  0  0  0  0  0  0
  140.4900   75.0650  220.6520 N   0  0  0  0  0  0  0  0  0  0  0  0
  141.2680   74.0080  220.3600 C   0  0  0  0  0  0  0  0  0  0  0  0
  142.2790   73.9800  219.2960 C   0  0  1  0  0  0  0  0  0  0  0  0
  142.6060   75.4150  218.9400 C   0  0  0  0  0  0  0  0  0  0  0  0
  143.6540   75.7640  219.9740 C   0  0  0  0  0  0  0  0  0  0  0  0
  144.4170   74.4980  220.0970 C   0  0  0  0  0  0  0  0  0  0  0  0
  145.6900   74.1590  220.5010 C   0  0  0  0  0  0  0  0  0  0  0  0
  146.1640   72.8640  220.5210 C   0  0  0  0  0  0  0  0  0  0  0  0
  145.3190   71.8240  220.1130 C   0  0  0  0  0  0  0  0  0  0  0  0
  144.0600   72.1600  219.7130 C   0  0  0  0  0  0  0  0  0  0  0  0
  143.5940   73.4680  219.6970 C   0  0  0  0  0  0  0  0  0  0  0  0
  141.1050   72.9000  221.1060 N   0  0  0  0  0  0  0  0  0  0  0  0
  140.3180   71.7490  224.3050 C   0  0  0  0  0  0  0  0  0  0  0  0
  140.2571   66.9363  226.6588 H   0  0  0  0  0  0  0  0  0  0  0  0
  141.6421   68.7598  227.6064 H   0  0  0  0  0  0  0  0  0  0  0  0
  141.6755   70.9781  226.5218 H   0  0  0  0  0  0  0  0  0  0  0  0
  138.9131   67.3564  224.6363 H   0  0  0  0  0  0  0  0  0  0  0  0
  138.4331   68.6755  222.7165 H   0  0  0  0  0  0  0  0  0  0  0  0
  137.7492   70.1468  223.4224 H   0  0  0  0  0  0  0  0  0  0  0  0
  140.4349   69.8635  221.9542 H   0  0  0  0  0  0  0  0  0  0  0  0
  138.9571   70.7441  221.3810 H   0  0  0  0  0  0  0  0  0  0  0  0
  137.7930   76.1120  221.9920 H   0  0  0  0  0  0  0  0  0  0  0  0
  139.5301   77.9547  220.8352 H   0  0  0  0  0  0  0  0  0  0  0  0
  138.8500   78.2777  222.4481 H   0  0  0  0  0  0  0  0  0  0  0  0
  140.7061   77.0234  223.4867 H   0  0  0  0  0  0  0  0  0  0  0  0
  141.3687   76.7041  221.8086 H   0  0  0  0  0  0  0  0  0  0  0  0
  142.6519   78.3215  222.3284 H   0  0  0  0  0  0  0  0  0  0  0  0
  140.6188   79.7252  224.0541 H   0  0  0  0  0  0  0  0  0  0  0  0
  141.9030   78.6038  224.6184 H   0  0  0  0  0  0  0  0  0  0  0  0
  142.1097   81.4066  224.0818 H   0  0  0  0  0  0  0  0  0  0  0  0
  143.4106   80.2758  224.5690 H   0  0  0  0  0  0  0  0  0  0  0  0
  141.6211   81.7101  221.9204 H   0  0  0  0  0  0  0  0  0  0  0  0
  142.7105   81.0159  220.6443 H   0  0  0  0  0  0  0  0  0  0  0  0
  140.1986   79.9815  221.5169 H   0  0  0  0  0  0  0  0  0  0  0  0
  141.3247   79.2137  220.4007 H   0  0  0  0  0  0  0  0  0  0  0  0
  141.8432   73.3445  218.5110 H   0  0  0  0  0  0  0  0  0  0  0  0
  143.0099   75.4917  217.9197 H   0  0  0  0  0  0  0  0  0  0  0  0
  141.7332   76.0844  218.9493 H   0  0  0  0  0  0  0  0  0  0  0  0
  144.2986   76.5845  219.6256 H   0  0  0  0  0  0  0  0  0  0  0  0
  143.2306   76.1153  220.9265 H   0  0  0  0  0  0  0  0  0  0  0  0
  146.3648   74.9650  220.8252 H   0  0  0  0  0  0  0  0  0  0  0  0
  147.1910   72.6509  220.8526 H   0  0  0  0  0  0  0  0  0  0  0  0
  145.6580   70.7775  220.1153 H   0  0  0  0  0  0  0  0  0  0  0  0
  143.3815   71.3576  219.3877 H   0  0  0  0  0  0  0  0  0  0  0  0
  141.3150   72.1948  224.4364 H   0  0  0  0  0  0  0  0  0  0  0  0
  139.5345   72.3607  224.7762 H   0  0  0  0  0  0  0  0  0  0  0  0
  1  2  2  0
  2  3  1  0
  3  4  2  0
  4  5  1  0
  5  6  2  0
  5  7  1  0
  7  8  1  0
  8  9  1  0
  9 10  1  0
 10 11  2  0
 11 12  1  0
 12 13  1  0
 13 14  1  0
 14 15  1  0
 15 16  1  0
 16 17  1  0
 17 18  1  0
 18 19  1  0
 19 20  1  0
 20 21  1  0
 12 22  2  0
 22 23  1  0
 23 24  1  0
 24 25  1  0
 25 26  1  0
 26 27  1  0
 27 28  2  0
 28 29  1  0
 29 30  2  0
 30 31  1  0
 31 32  2  0
 23 33  2  0
  9 34  1  0
  6  1  1  0
 33 10  1  0
 34  4  1  0
 21 16  1  0
 32 24  1  0
 32 27  1  0
  1 35  1  0
  2 36  1  0
  3 37  1  0
  6 38  1  0
  7 39  1  0
  7 40  1  0
  8 41  1  0
  8 42  1  0
 13 43  1  0
 14 44  1  0
 14 45  1  0
 15 46  1  0
 15 47  1  0
 16 48  1  0
 17 49  1  0
 17 50  1  0
 18 51  1  0
 18 52  1  0
 20 53  1  0
 20 54  1  0
 21 55  1  0
 21 56  1  0
 24 57  1  6
 25 58  1  0
 25 59  1  0
 26 60  1  0
 26 61  1  0
 28 62  1  0
 29 63  1  0
 30 64  1  0
 31 65  1  0
 34 66  1  0
 34 67  1  0
M  END
>  <smiles>  (55) 
c1ccc2c(c1)CCN(c1nc(NCCC3CCOCC3)nc(C3CCc4ccccc43)n1)C2

>  <score_type>  (55) 
oracle

>  <origin>  (55) 
autodockgpu

>  <m_score__min__energy>  (55) 
-9.8699999999999992

>  <m_primary>  (55) 
energy

>  <rmsd>  (55) 
8.419505815840582

>  <m_score__min__rmsd>  (55) 
8.419505815840582

>  <meeko>  (55) 
{"free_energy": -9.84, "intermolecular_energy": -11.63, "internal_energy": -1.56, "cluster_size": 26, "cluster_id": 1, "rank_in_cluster": 3}

>  <energy>  (55) 
-9.78

>  <cluster_rmsd>  (55) 
0.68

>  <cluster>  (55) 
1

$$$$

     RDKit          3D

 67 72  0  0  0  0  0  0  0  0999 V2000
  140.4170   68.0680  226.4640 C   0  0  0  0  0  0  0  0  0  0  0  0
  141.1330   69.1370  226.9390 C   0  0  0  0  0  0  0  0  0  0  0  0
  141.0910   70.3450  226.2750 C   0  0  0  0  0  0  0  0  0  0  0  0
  140.3300   70.5040  225.1240 C   0  0  0  0  0  0  0  0  0  0  0  0
  139.6000   69.4260  224.6350 C   0  0  0  0  0  0  0  0  0  0  0  0
  139.6620   68.2210  225.3250 C   0  0  0  0  0  0  0  0  0  0  0  0
  138.7650   69.5570  223.3940 C   0  0  0  0  0  0  0  0  0  0  0  0
  139.5960   70.3810  222.4240 C   0  0  0  0  0  0  0  0  0  0  0  0
  139.9980   71.6440  223.0040 N   0  0  0  0  0  0  0  0  0  0  0  0
  140.1160   72.7830  222.1640 C   0  0  0  0  0  0  0  0  0  0  0  0
  139.2910   73.8470  222.3610 N   0  0  0  0  0  0  0  0  0  0  0  0
  139.3830   74.9320  221.5810 C   0  0  0  0  0  0  0  0  0  0  0  0
  138.5580   76.0790  221.7300 N   0  0  0  0  0  0  0  0  0  0  0  0
  139.0390   77.2860  222.4170 C   0  0  0  0  0  0  0  0  0  0  0  0
  140.3990   77.6070  221.8540 C   0  0  0  0  0  0  0  0  0  0  0  0
  141.0870   78.7470  222.5280 C   0  0  0  0  0  0  0  0  0  0  0  0
  140.1700   79.8200  223.0050 C   0  0  0  0  0  0  0  0  0  0  0  0
  140.9470   80.8080  223.8420 C   0  0  0  0  0  0  0  0  0  0  0  0
  142.2820   80.4340  223.8500 O   0  0  0  0  0  0  0  0  0  0  0  0
  142.8200   80.4420  222.5650 C   0  0  0  0  0  0  0  0  0  0  0  0
  142.2240   79.3430  221.6860 C   0  0  0  0  0  0  0  0  0  0  0  0
  140.3060   74.9420  220.6070 N   0  0  0  0  0  0  0  0  0  0  0  0
  141.1430   73.9170  220.3750 C   0  0  0  0  0  0  0  0  0  0  0  0
  142.1670   73.8930  219.3220 C   0  0  1  0  0  0  0  0  0  0  0  0
  142.4430   75.3270  218.9220 C   0  0  0  0  0  0  0  0  0  0  0  0
  143.4650   75.7500  219.9550 C   0  0  0  0  0  0  0  0  0  0  0  0
  144.2740   74.5190  220.1280 C   0  0  0  0  0  0  0  0  0  0  0  0
  145.5550   74.2420  220.5550 C   0  0  0  0  0  0  0  0  0  0  0  0
  146.0770   72.9680  220.6240 C   0  0  0  0  0  0  0  0  0  0  0  0
  145.2770   71.8840  220.2400 C   0  0  0  0  0  0  0  0  0  0  0  0
  144.0110   72.1570  219.8180 C   0  0  0  0  0  0  0  0  0  0  0  0
  143.4960   73.4450  219.7530 C   0  0  0  0  0  0  0  0  0  0  0  0
  141.0320   72.8370  221.1710 N   0  0  0  0  0  0  0  0  0  0  0  0
  140.2830   71.7960  224.4120 C   0  0  0  0  0  0  0  0  0  0  0  0
  140.4464   67.1009  226.9873 H   0  0  0  0  0  0  0  0  0  0  0  0
  141.7408   69.0308  227.8497 H   0  0  0  0  0  0  0  0  0  0  0  0
  141.6695   71.1963  226.6632 H   0  0  0  0  0  0  0  0  0  0  0  0
  139.0883   67.3617  224.9476 H   0  0  0  0  0  0  0  0  0  0  0  0
  138.5512   68.5651  222.9692 H   0  0  0  0  0  0  0  0  0  0  0  0
  137.7963   70.0335  223.6050 H   0  0  0  0  0  0  0  0  0  0  0  0
  140.4965   69.8107  222.1521 H   0  0  0  0  0  0  0  0  0  0  0  0
  138.9802   70.5911  221.5370 H   0  0  0  0  0  0  0  0  0  0  0  0
  137.5990   76.0170  221.3260 H   0  0  0  0  0  0  0  0  0  0  0  0
  138.3489   78.1232  222.2357 H   0  0  0  0  0  0  0  0  0  0  0  0
  139.0951   77.1209  223.5031 H   0  0  0  0  0  0  0  0  0  0  0  0
  141.0332   76.7138  221.9538 H   0  0  0  0  0  0  0  0  0  0  0  0
  140.2449   77.9057  220.8066 H   0  0  0  0  0  0  0  0  0  0  0  0
  141.5306   78.2920  223.4259 H   0  0  0  0  0  0  0  0  0  0  0  0
  139.7297   80.3379  222.1401 H   0  0  0  0  0  0  0  0  0  0  0  0
  139.3678   79.3749  223.6119 H   0  0  0  0  0  0  0  0  0  0  0  0
  140.8479   81.8155  223.4118 H   0  0  0  0  0  0  0  0  0  0  0  0
  140.5551   80.8168  224.8698 H   0  0  0  0  0  0  0  0  0  0  0  0
  142.6151   81.4179  222.1006 H   0  0  0  0  0  0  0  0  0  0  0  0
  143.9015   80.2596  222.6492 H   0  0  0  0  0  0  0  0  0  0  0  0
  141.8328   79.7651  220.7486 H   0  0  0  0  0  0  0  0  0  0  0  0
  142.9705   78.5877  221.3992 H   0  0  0  0  0  0  0  0  0  0  0  0
  141.7647   73.2159  218.5541 H   0  0  0  0  0  0  0  0  0  0  0  0
  142.8556   75.3857  217.9040 H   0  0  0  0  0  0  0  0  0  0  0  0
  141.5452   75.9622  218.9000 H   0  0  0  0  0  0  0  0  0  0  0  0
  144.0819   76.5827  219.5862 H   0  0  0  0  0  0  0  0  0  0  0  0
  143.0174   76.1160  220.8908 H   0  0  0  0  0  0  0  0  0  0  0  0
  146.1957   75.0835  220.8572 H   0  0  0  0  0  0  0  0  0  0  0  0
  147.1065   72.8050  220.9754 H   0  0  0  0  0  0  0  0  0  0  0  0
  145.6565   70.8522  220.2778 H   0  0  0  0  0  0  0  0  0  0  0  0
  143.3668   71.3185  219.5147 H   0  0  0  0  0  0  0  0  0  0  0  0
  141.2571   72.2948  224.5225 H   0  0  0  0  0  0  0  0  0  0  0  0
  139.4703   72.3909  224.8542 H   0  0  0  0  0  0  0  0  0  0  0  0
  1  2  2  0
  2  3  1  0
  3  4  2  0
  4  5  1  0
  5  6  2  0
  5  7  1  0
  7  8  1  0
  8  9  1  0
  9 10  1  0
 10 11  2  0
 11 12  1  0
 12 13  1  0
 13 14  1  0
 14 15  1  0
 15 16  1  0
 16 17  1  0
 17 18  1  0
 18 19  1  0
 19 20  1  0
 20 21  1  0
 12 22  2  0
 22 23  1  0
 23 24  1  0
 24 25  1  0
 25 26  1  0
 26 27  1  0
 27 28  2  0
 28 29  1  0
 29 30  2  0
 30 31  1  0
 31 32  2  0
 23 33  2  0
  9 34  1  0
  6  1  1  0
 33 10  1  0
 34  4  1  0
 21 16  1  0
 32 24  1  0
 32 27  1  0
  1 35  1  0
  2 36  1  0
  3 37  1  0
  6 38  1  0
  7 39  1  0
  7 40  1  0
  8 41  1  0
  8 42  1  0
 13 43  1  0
 14 44  1  0
 14 45  1  0
 15 46  1  0
 15 47  1  0
 16 48  1  0
 17 49  1  0
 17 50  1  0
 18 51  1  0
 18 52  1  0
 20 53  1  0
 20 54  1  0
 21 55  1  0
 21 56  1  0
 24 57  1  6
 25 58  1  0
 25 59  1  0
 26 60  1  0
 26 61  1  0
 28 62  1  0
 29 63  1  0
 30 64  1  0
 31 65  1  0
 34 66  1  0
 34 67  1  0
M  END
>  <smiles>  (56) 
c1ccc2c(c1)CCN(c1nc(NCCC3CCOCC3)nc(C3CCc4ccccc43)n1)C2

>  <score_type>  (56) 
oracle

>  <origin>  (56) 
autodockgpu

>  <m_score__min__energy>  (56) 
-9.8699999999999992

>  <m_primary>  (56) 
energy

>  <rmsd>  (56) 
8.321849679571704

>  <m_score__min__rmsd>  (56) 
8.321849679571704

>  <meeko>  (56) 
{"free_energy": -9.4, "intermolecular_energy": -11.19, "internal_energy": -1.5, "cluster_size": 26, "cluster_id": 1, "rank_in_cluster": 16}

>  <energy>  (56) 
-9.78

>  <cluster_rmsd>  (56) 
0.4

>  <cluster>  (56) 
1

$$$$

     RDKit          3D

 67 72  0  0  0  0  0  0  0  0999 V2000
  140.2580   67.8570  226.2740 C   0  0  0  0  0  0  0  0  0  0  0  0
  141.0590   68.8300  226.8160 C   0  0  0  0  0  0  0  0  0  0  0  0
  141.1030   70.0840  226.2450 C   0  0  0  0  0  0  0  0  0  0  0  0
  140.3430   70.3880  225.1210 C   0  0  0  0  0  0  0  0  0  0  0  0
  139.5270   69.4080  224.5650 C   0  0  0  0  0  0  0  0  0  0  0  0
  139.5040   68.1530  225.1620 C   0  0  0  0  0  0  0  0  0  0  0  0
  138.6910   69.6960  223.3520 C   0  0  0  0  0  0  0  0  0  0  0  0
  139.5720   70.5260  222.4320 C   0  0  0  0  0  0  0  0  0  0  0  0
  140.0770   71.7070  223.0990 N   0  0  0  0  0  0  0  0  0  0  0  0
  140.2730   72.8950  222.3440 C   0  0  0  0  0  0  0  0  0  0  0  0
  139.5860   74.0200  222.6800 N   0  0  0  0  0  0  0  0  0  0  0  0
  139.7540   75.1510  221.9830 C   0  0  0  0  0  0  0  0  0  0  0  0
  139.0740   76.3640  222.2770 N   0  0  0  0  0  0  0  0  0  0  0  0
  139.6070   77.6650  221.8520 C   0  0  0  0  0  0  0  0  0  0  0  0
  139.4360   78.6170  223.0070 C   0  0  0  0  0  0  0  0  0  0  0  0
  140.5280   79.6260  223.1360 C   0  0  0  0  0  0  0  0  0  0  0  0
  140.5730   80.6240  222.0320 C   0  0  0  0  0  0  0  0  0  0  0  0
  141.5730   81.7030  222.3710 C   0  0  0  0  0  0  0  0  0  0  0  0
  142.1780   81.3860  223.5780 O   0  0  0  0  0  0  0  0  0  0  0  0
  142.8610   80.1750  223.5030 C   0  0  0  0  0  0  0  0  0  0  0  0
  141.9100   78.9890  223.3440 C   0  0  0  0  0  0  0  0  0  0  0  0
  140.6130   75.1450  220.9520 N   0  0  0  0  0  0  0  0  0  0  0  0
  141.3130   74.0590  220.5830 C   0  0  0  0  0  0  0  0  0  0  0  0
  142.2630   74.0150  219.4640 C   0  0  1  0  0  0  0  0  0  0  0  0
  142.5980   75.4450  219.0940 C   0  0  0  0  0  0  0  0  0  0  0  0
  143.7080   75.7700  220.0690 C   0  0  0  0  0  0  0  0  0  0  0  0
  144.4520   74.4890  220.1470 C   0  0  0  0  0  0  0  0  0  0  0  0
  145.7390   74.1240  220.4790 C   0  0  0  0  0  0  0  0  0  0  0  0
  146.1880   72.8200  220.4710 C   0  0  0  0  0  0  0  0  0  0  0  0
  145.3010   71.7990  220.1070 C   0  0  0  0  0  0  0  0  0  0  0  0
  144.0290   72.1590  219.7780 C   0  0  0  0  0  0  0  0  0  0  0  0
  143.5890   73.4760  219.7910 C   0  0  0  0  0  0  0  0  0  0  0  0
  141.1280   72.9340  221.2980 N   0  0  0  0  0  0  0  0  0  0  0  0
  140.3880   71.7290  224.5090 C   0  0  0  0  0  0  0  0  0  0  0  0
  140.2191   66.8534  226.7226 H   0  0  0  0  0  0  0  0  0  0  0  0
  141.6662   68.6095  227.7063 H   0  0  0  0  0  0  0  0  0  0  0  0
  141.7499   70.8568  226.6858 H   0  0  0  0  0  0  0  0  0  0  0  0
  138.8618   67.3707  224.7312 H   0  0  0  0  0  0  0  0  0  0  0  0
  138.3966   68.7584  222.8578 H   0  0  0  0  0  0  0  0  0  0  0  0
  137.7644   70.2275  223.6147 H   0  0  0  0  0  0  0  0  0  0  0  0
  140.4226   69.9113  222.1023 H   0  0  0  0  0  0  0  0  0  0  0  0
  138.9644   70.8493  221.5740 H   0  0  0  0  0  0  0  0  0  0  0  0
  138.1810   76.2780  222.8070 H   0  0  0  0  0  0  0  0  0  0  0  0
  140.6728   77.5702  221.5967 H   0  0  0  0  0  0  0  0  0  0  0  0
  139.0750   78.0323  220.9620 H   0  0  0  0  0  0  0  0  0  0  0  0
  138.4849   79.1534  222.8738 H   0  0  0  0  0  0  0  0  0  0  0  0
  139.4582   78.0089  223.9233 H   0  0  0  0  0  0  0  0  0  0  0  0
  140.2665   80.1806  224.0492 H   0  0  0  0  0  0  0  0  0  0  0  0
  140.8736   80.1254  221.0987 H   0  0  0  0  0  0  0  0  0  0  0  0
  139.5774   81.0736  221.9027 H   0  0  0  0  0  0  0  0  0  0  0  0
  142.3348   81.7633  221.5798 H   0  0  0  0  0  0  0  0  0  0  0  0
  141.0631   82.6744  222.4514 H   0  0  0  0  0  0  0  0  0  0  0  0
  143.5404   80.2036  222.6384 H   0  0  0  0  0  0  0  0  0  0  0  0
  143.4172   80.0404  224.4424 H   0  0  0  0  0  0  0  0  0  0  0  0
  142.1917   78.3794  222.4728 H   0  0  0  0  0  0  0  0  0  0  0  0
  141.9327   78.3164  224.2141 H   0  0  0  0  0  0  0  0  0  0  0  0
  141.7721   73.3909  218.7027 H   0  0  0  0  0  0  0  0  0  0  0  0
  142.9463   75.5175  218.0531 H   0  0  0  0  0  0  0  0  0  0  0  0
  141.7403   76.1312  219.1534 H   0  0  0  0  0  0  0  0  0  0  0  0
  144.3482   76.5789  219.6873 H   0  0  0  0  0  0  0  0  0  0  0  0
  143.3447   76.1262  221.0443 H   0  0  0  0  0  0  0  0  0  0  0  0
  146.4465   74.9159  220.7660 H   0  0  0  0  0  0  0  0  0  0  0  0
  147.2268   72.5854  220.7463 H   0  0  0  0  0  0  0  0  0  0  0  0
  145.6194   70.7463  220.0875 H   0  0  0  0  0  0  0  0  0  0  0  0
  143.3183   71.3707  219.4890 H   0  0  0  0  0  0  0  0  0  0  0  0
  141.3989   72.1424  224.6403 H   0  0  0  0  0  0  0  0  0  0  0  0
  139.6282   72.3484  225.0080 H   0  0  0  0  0  0  0  0  0  0  0  0
  1  2  2  0
  2  3  1  0
  3  4  2  0
  4  5  1  0
  5  6  2  0
  5  7  1  0
  7  8  1  0
  8  9  1  0
  9 10  1  0
 10 11  2  0
 11 12  1  0
 12 13  1  0
 13 14  1  0
 14 15  1  0
 15 16  1  0
 16 17  1  0
 17 18  1  0
 18 19  1  0
 19 20  1  0
 20 21  1  0
 12 22  2  0
 22 23  1  0
 23 24  1  0
 24 25  1  0
 25 26  1  0
 26 27  1  0
 27 28  2  0
 28 29  1  0
 29 30  2  0
 30 31  1  0
 31 32  2  0
 23 33  2  0
  9 34  1  0
  6  1  1  0
 33 10  1  0
 34  4  1  0
 21 16  1  0
 32 24  1  0
 32 27  1  0
  1 35  1  0
  2 36  1  0
  3 37  1  0
  6 38  1  0
  7 39  1  0
  7 40  1  0
  8 41  1  0
  8 42  1  0
 13 43  1  0
 14 44  1  0
 14 45  1  0
 15 46  1  0
 15 47  1  0
 16 48  1  0
 17 49  1  0
 17 50  1  0
 18 51  1  0
 18 52  1  0
 20 53  1  0
 20 54  1  0
 21 55  1  0
 21 56  1  0
 24 57  1  6
 25 58  1  0
 25 59  1  0
 26 60  1  0
 26 61  1  0
 28 62  1  0
 29 63  1  0
 30 64  1  0
 31 65  1  0
 34 66  1  0
 34 67  1  0
M  END
>  <smiles>  (57) 
c1ccc2c(c1)CCN(c1nc(NCCC3CCOCC3)nc(C3CCc4ccccc43)n1)C2

>  <score_type>  (57) 
oracle

>  <origin>  (57) 
autodockgpu

>  <m_score__min__energy>  (57) 
-9.8699999999999992

>  <m_primary>  (57) 
energy

>  <rmsd>  (57) 
8.402384360278885

>  <m_score__min__rmsd>  (57) 
8.402384360278885

>  <meeko>  (57) 
{"free_energy": -9.86, "intermolecular_energy": -11.65, "internal_energy": -1.34, "cluster_size": 26, "cluster_id": 1, "rank_in_cluster": 2}

>  <energy>  (57) 
-9.75

>  <cluster_rmsd>  (57) 
0.69

>  <cluster>  (57) 
1

$$$$

     RDKit          3D

 67 72  0  0  0  0  0  0  0  0999 V2000
  140.0570   67.5090  226.7990 C   0  0  0  0  0  0  0  0  0  0  0  0
  140.9430   68.4340  227.2890 C   0  0  0  0  0  0  0  0  0  0  0  0
  141.0780   69.6570  226.6660 C   0  0  0  0  0  0  0  0  0  0  0  0
  140.3250   69.9770  225.5430 C   0  0  0  0  0  0  0  0  0  0  0  0
  139.4240   69.0450  225.0390 C   0  0  0  0  0  0  0  0  0  0  0  0
  139.3100   67.8210  225.6860 C   0  0  0  0  0  0  0  0  0  0  0  0
  138.5920   69.3520  223.8270 C   0  0  0  0  0  0  0  0  0  0  0  0
  139.5210   70.0710  222.8610 C   0  0  0  0  0  0  0  0  0  0  0  0
  140.1310   71.2330  223.4720 N   0  0  0  0  0  0  0  0  0  0  0  0
  140.4080   72.3700  222.6670 C   0  0  0  0  0  0  0  0  0  0  0  0
  139.5760   73.4440  222.7200 N   0  0  0  0  0  0  0  0  0  0  0  0
  139.8170   74.5280  221.9700 C   0  0  0  0  0  0  0  0  0  0  0  0
  138.9950   75.6860  221.9760 N   0  0  0  0  0  0  0  0  0  0  0  0
  139.5140   76.9980  221.5640 C   0  0  0  0  0  0  0  0  0  0  0  0
  140.8000   77.2250  222.3160 C   0  0  0  0  0  0  0  0  0  0  0  0
  140.9890   78.6250  222.7940 C   0  0  0  0  0  0  0  0  0  0  0  0
  139.7520   79.4540  222.7700 C   0  0  0  0  0  0  0  0  0  0  0  0
  140.0160   80.7700  223.4600 C   0  0  0  0  0  0  0  0  0  0  0  0
  141.3480   80.8130  223.8440 O   0  0  0  0  0  0  0  0  0  0  0  0
  142.1980   80.7270  222.7440 C   0  0  0  0  0  0  0  0  0  0  0  0
  142.1390   79.3510  222.0810 C   0  0  0  0  0  0  0  0  0  0  0  0
  140.8950   74.5240  221.1710 N   0  0  0  0  0  0  0  0  0  0  0  0
  141.7450   73.4870  221.0840 C   0  0  0  0  0  0  0  0  0  0  0  0
  142.9350   73.4480  220.2250 C   0  0  1  0  0  0  0  0  0  0  0  0
  142.8040   72.2420  219.3190 C   0  0  0  0  0  0  0  0  0  0  0  0
  141.9610   72.7880  218.1880 C   0  0  0  0  0  0  0  0  0  0  0  0
  142.4720   74.1730  218.0470 C   0  0  0  0  0  0  0  0  0  0  0  0
  142.5000   75.1080  217.0340 C   0  0  0  0  0  0  0  0  0  0  0  0
  143.0540   76.3630  217.1700 C   0  0  0  0  0  0  0  0  0  0  0  0
  143.6250   76.7250  218.3970 C   0  0  0  0  0  0  0  0  0  0  0  0
  143.5980   75.8010  219.3980 C   0  0  0  0  0  0  0  0  0  0  0  0
  143.0370   74.5400  219.2490 C   0  0  0  0  0  0  0  0  0  0  0  0
  141.4830   72.4100  221.8470 N   0  0  0  0  0  0  0  0  0  0  0  0
  140.4670   71.2850  224.8760 C   0  0  0  0  0  0  0  0  0  0  0  0
  139.9449   66.5306  227.2891 H   0  0  0  0  0  0  0  0  0  0  0  0
  141.5459   68.2005  228.1789 H   0  0  0  0  0  0  0  0  0  0  0  0
  141.7936   70.3912  227.0647 H   0  0  0  0  0  0  0  0  0  0  0  0
  138.5997   67.0771  225.2961 H   0  0  0  0  0  0  0  0  0  0  0  0
  138.2142   68.4227  223.3757 H   0  0  0  0  0  0  0  0  0  0  0  0
  137.7160   69.9668  224.0812 H   0  0  0  0  0  0  0  0  0  0  0  0
  140.3135   69.3768  222.5447 H   0  0  0  0  0  0  0  0  0  0  0  0
  138.9264   70.4082  221.9992 H   0  0  0  0  0  0  0  0  0  0  0  0
  138.0080   75.5540  222.2860 H   0  0  0  0  0  0  0  0  0  0  0  0
  139.7048   77.0045  220.4807 H   0  0  0  0  0  0  0  0  0  0  0  0
  138.7866   77.7927  221.7859 H   0  0  0  0  0  0  0  0  0  0  0  0
  140.8110   76.5574  223.1902 H   0  0  0  0  0  0  0  0  0  0  0  0
  141.6192   77.0179  221.6117 H   0  0  0  0  0  0  0  0  0  0  0  0
  141.2643   78.5052  223.8522 H   0  0  0  0  0  0  0  0  0  0  0  0
  139.4550   79.6396  221.7273 H   0  0  0  0  0  0  0  0  0  0  0  0
  138.9432   78.9217  223.2919 H   0  0  0  0  0  0  0  0  0  0  0  0
  139.8033   81.5991  222.7691 H   0  0  0  0  0  0  0  0  0  0  0  0
  139.3685   80.8654  224.3441 H   0  0  0  0  0  0  0  0  0  0  0  0
  141.9037   81.4891  222.0074 H   0  0  0  0  0  0  0  0  0  0  0  0
  143.2272   80.8906  223.0963 H   0  0  0  0  0  0  0  0  0  0  0  0
  141.9297   79.4471  221.0054 H   0  0  0  0  0  0  0  0  0  0  0  0
  143.0912   78.8067  222.1653 H   0  0  0  0  0  0  0  0  0  0  0  0
  143.7856   73.4749  220.9220 H   0  0  0  0  0  0  0  0  0  0  0  0
  143.7868   71.9047  218.9581 H   0  0  0  0  0  0  0  0  0  0  0  0
  142.3667   71.3618  219.8130 H   0  0  0  0  0  0  0  0  0  0  0  0
  142.1143   72.2116  217.2637 H   0  0  0  0  0  0  0  0  0  0  0  0
  140.8796   72.7371  218.3828 H   0  0  0  0  0  0  0  0  0  0  0  0
  142.0561   74.8378  216.0645 H   0  0  0  0  0  0  0  0  0  0  0  0
  143.0478   77.0699  216.3273 H   0  0  0  0  0  0  0  0  0  0  0  0
  144.0774   77.7164  218.5465 H   0  0  0  0  0  0  0  0  0  0  0  0
  144.0413   76.0665  220.3691 H   0  0  0  0  0  0  0  0  0  0  0  0
  141.5099   71.6200  224.9763 H   0  0  0  0  0  0  0  0  0  0  0  0
  139.7678   71.9829  225.3599 H   0  0  0  0  0  0  0  0  0  0  0  0
  1  2  2  0
  2  3  1  0
  3  4  2  0
  4  5  1  0
  5  6  2  0
  5  7  1  0
  7  8  1  0
  8  9  1  0
  9 10  1  0
 10 11  2  0
 11 12  1  0
 12 13  1  0
 13 14  1  0
 14 15  1  0
 15 16  1  0
 16 17  1  0
 17 18  1  0
 18 19  1  0
 19 20  1  0
 20 21  1  0
 12 22  2  0
 22 23  1  0
 23 24  1  0
 24 25  1  0
 25 26  1  0
 26 27  1  0
 27 28  2  0
 28 29  1  0
 29 30  2  0
 30 31  1  0
 31 32  2  0
 23 33  2  0
  9 34  1  0
  6  1  1  0
 33 10  1  0
 34  4  1  0
 21 16  1  0
 32 24  1  0
 32 27  1  0
  1 35  1  0
  2 36  1  0
  3 37  1  0
  6 38  1  0
  7 39  1  0
  7 40  1  0
  8 41  1  0
  8 42  1  0
 13 43  1  0
 14 44  1  0
 14 45  1  0
 15 46  1  0
 15 47  1  0
 16 48  1  0
 17 49  1  0
 17 50  1  0
 18 51  1  0
 18 52  1  0
 20 53  1  0
 20 54  1  0
 21 55  1  0
 21 56  1  0
 24 57  1  1
 25 58  1  0
 25 59  1  0
 26 60  1  0
 26 61  1  0
 28 62  1  0
 29 63  1  0
 30 64  1  0
 31 65  1  0
 34 66  1  0
 34 67  1  0
M  END
>  <smiles>  (58) 
c1ccc2c(c1)CCN(c1nc(NCCC3CCOCC3)nc(C3CCc4ccccc43)n1)C2

>  <score_type>  (58) 
oracle

>  <origin>  (58) 
autodockgpu

>  <m_score__min__energy>  (58) 
-9.8699999999999992

>  <m_primary>  (58) 
energy

>  <rmsd>  (58) 
8.958454002680172

>  <m_score__min__rmsd>  (58) 
8.958454002680172

>  <meeko>  (58) 
{"free_energy": -8.86, "intermolecular_energy": -10.65, "internal_energy": -1.47, "cluster_size": 26, "cluster_id": 1, "rank_in_cluster": 25}

>  <energy>  (58) 
-9.68

>  <cluster_rmsd>  (58) 
0.77

>  <cluster>  (58) 
1

$$$$

     RDKit          3D

 67 72  0  0  0  0  0  0  0  0999 V2000
  140.1230   67.7850  226.1910 C   0  0  0  0  0  0  0  0  0  0  0  0
  140.9350   68.7380  226.7500 C   0  0  0  0  0  0  0  0  0  0  0  0
  141.0040   69.9990  226.1950 C   0  0  0  0  0  0  0  0  0  0  0  0
  140.2570   70.3290  225.0700 C   0  0  0  0  0  0  0  0  0  0  0  0
  139.4300   69.3690  224.4960 C   0  0  0  0  0  0  0  0  0  0  0  0
  139.3820   68.1070  225.0770 C   0  0  0  0  0  0  0  0  0  0  0  0
  138.6070   69.6850  223.2810 C   0  0  0  0  0  0  0  0  0  0  0  0
  139.5070   70.5130  222.3780 C   0  0  0  0  0  0  0  0  0  0  0  0
  140.0270   71.6770  223.0630 N   0  0  0  0  0  0  0  0  0  0  0  0
  140.2470   72.8710  222.3250 C   0  0  0  0  0  0  0  0  0  0  0  0
  139.5830   74.0050  222.6760 N   0  0  0  0  0  0  0  0  0  0  0  0
  139.7740   75.1420  221.9940 C   0  0  0  0  0  0  0  0  0  0  0  0
  139.1190   76.3640  222.3060 N   0  0  0  0  0  0  0  0  0  0  0  0
  138.7010   77.3000  221.2530 C   0  0  0  0  0  0  0  0  0  0  0  0
  139.9240   78.0720  220.8300 C   0  0  0  0  0  0  0  0  0  0  0  0
  140.4800   78.9640  221.8880 C   0  0  0  0  0  0  0  0  0  0  0  0
  141.1700   80.1770  221.3670 C   0  0  0  0  0  0  0  0  0  0  0  0
  141.5070   81.0960  222.5160 C   0  0  0  0  0  0  0  0  0  0  0  0
  141.1190   80.4900  223.7010 O   0  0  0  0  0  0  0  0  0  0  0  0
  141.7940   79.2870  223.9010 C   0  0  0  0  0  0  0  0  0  0  0  0
  141.3780   78.2210  222.8880 C   0  0  0  0  0  0  0  0  0  0  0  0
  140.6330   75.1330  220.9640 N   0  0  0  0  0  0  0  0  0  0  0  0
  141.3110   74.0380  220.5790 C   0  0  0  0  0  0  0  0  0  0  0  0
  142.2600   73.9900  219.4600 C   0  0  1  0  0  0  0  0  0  0  0  0
  142.5940   75.4180  219.0830 C   0  0  0  0  0  0  0  0  0  0  0  0
  143.7040   75.7480  220.0560 C   0  0  0  0  0  0  0  0  0  0  0  0
  144.4490   74.4690  220.1390 C   0  0  0  0  0  0  0  0  0  0  0  0
  145.7370   74.1060  220.4720 C   0  0  0  0  0  0  0  0  0  0  0  0
  146.1870   72.8030  220.4690 C   0  0  0  0  0  0  0  0  0  0  0  0
  145.3010   71.7790  220.1100 C   0  0  0  0  0  0  0  0  0  0  0  0
  144.0280   72.1370  219.7810 C   0  0  0  0  0  0  0  0  0  0  0  0
  143.5860   73.4530  219.7880 C   0  0  0  0  0  0  0  0  0  0  0  0
  141.1030   72.9070  221.2790 N   0  0  0  0  0  0  0  0  0  0  0  0
  140.3280   71.6770  224.4750 C   0  0  0  0  0  0  0  0  0  0  0  0
  140.0647   66.7768  226.6271 H   0  0  0  0  0  0  0  0  0  0  0  0
  141.5320   68.4968  227.6419 H   0  0  0  0  0  0  0  0  0  0  0  0
  141.6605   70.7554  226.6498 H   0  0  0  0  0  0  0  0  0  0  0  0
  138.7304   67.3407  224.6317 H   0  0  0  0  0  0  0  0  0  0  0  0
  138.3020   68.7583  222.7728 H   0  0  0  0  0  0  0  0  0  0  0  0
  137.6867   70.2270  223.5440 H   0  0  0  0  0  0  0  0  0  0  0  0
  140.3496   69.8890  222.0454 H   0  0  0  0  0  0  0  0  0  0  0  0
  138.9096   70.8576  221.5211 H   0  0  0  0  0  0  0  0  0  0  0  0
  138.9520   76.5570  223.3160 H   0  0  0  0  0  0  0  0  0  0  0  0
  138.2912   76.7447  220.3964 H   0  0  0  0  0  0  0  0  0  0  0  0
  137.9195   77.9798  221.6233 H   0  0  0  0  0  0  0  0  0  0  0  0
  140.7037   77.3519  220.5411 H   0  0  0  0  0  0  0  0  0  0  0  0
  139.6153   78.7224  219.9983 H   0  0  0  0  0  0  0  0  0  0  0  0
  139.5885   79.3174  222.4268 H   0  0  0  0  0  0  0  0  0  0  0  0
  142.0952   79.8797  220.8516 H   0  0  0  0  0  0  0  0  0  0  0  0
  140.5089   80.7002  220.6605 H   0  0  0  0  0  0  0  0  0  0  0  0
  142.5908   81.2833  222.5341 H   0  0  0  0  0  0  0  0  0  0  0  0
  140.9797   82.0538  222.3957 H   0  0  0  0  0  0  0  0  0  0  0  0
  142.8750   79.4661  223.8042 H   0  0  0  0  0  0  0  0  0  0  0  0
  141.5399   78.9181  224.9057 H   0  0  0  0  0  0  0  0  0  0  0  0
  142.2599   77.8024  222.3810 H   0  0  0  0  0  0  0  0  0  0  0  0
  140.8608   77.3743  223.3630 H   0  0  0  0  0  0  0  0  0  0  0  0
  141.7686   73.3624  218.7019 H   0  0  0  0  0  0  0  0  0  0  0  0
  142.9419   75.4856  218.0417 H   0  0  0  0  0  0  0  0  0  0  0  0
  141.7360   76.1041  219.1392 H   0  0  0  0  0  0  0  0  0  0  0  0
  144.3432   76.5560  219.6706 H   0  0  0  0  0  0  0  0  0  0  0  0
  143.3407   76.1078  221.0300 H   0  0  0  0  0  0  0  0  0  0  0  0
  146.4440   74.8996  220.7555 H   0  0  0  0  0  0  0  0  0  0  0  0
  147.2263   72.5708  220.7444 H   0  0  0  0  0  0  0  0  0  0  0  0
  145.6206   70.7266  220.0943 H   0  0  0  0  0  0  0  0  0  0  0  0
  143.3177   71.3466  219.4967 H   0  0  0  0  0  0  0  0  0  0  0  0
  141.3444   72.0724  224.6186 H   0  0  0  0  0  0  0  0  0  0  0  0
  139.5748   72.3026  224.9763 H   0  0  0  0  0  0  0  0  0  0  0  0
  1  2  2  0
  2  3  1  0
  3  4  2  0
  4  5  1  0
  5  6  2  0
  5  7  1  0
  7  8  1  0
  8  9  1  0
  9 10  1  0
 10 11  2  0
 11 12  1  0
 12 13  1  0
 13 14  1  0
 14 15  1  0
 15 16  1  0
 16 17  1  0
 17 18  1  0
 18 19  1  0
 19 20  1  0
 20 21  1  0
 12 22  2  0
 22 23  1  0
 23 24  1  0
 24 25  1  0
 25 26  1  0
 26 27  1  0
 27 28  2  0
 28 29  1  0
 29 30  2  0
 30 31  1  0
 31 32  2  0
 23 33  2  0
  9 34  1  0
  6  1  1  0
 33 10  1  0
 34  4  1  0
 21 16  1  0
 32 24  1  0
 32 27  1  0
  1 35  1  0
  2 36  1  0
  3 37  1  0
  6 38  1  0
  7 39  1  0
  7 40  1  0
  8 41  1  0
  8 42  1  0
 13 43  1  0
 14 44  1  0
 14 45  1  0
 15 46  1  0
 15 47  1  0
 16 48  1  0
 17 49  1  0
 17 50  1  0
 18 51  1  0
 18 52  1  0
 20 53  1  0
 20 54  1  0
 21 55  1  0
 21 56  1  0
 24 57  1  6
 25 58  1  0
 25 59  1  0
 26 60  1  0
 26 61  1  0
 28 62  1  0
 29 63  1  0
 30 64  1  0
 31 65  1  0
 34 66  1  0
 34 67  1  0
M  END
>  <smiles>  (59) 
c1ccc2c(c1)CCN(c1nc(NCCC3CCOCC3)nc(C3CCc4ccccc43)n1)C2

>  <score_type>  (59) 
oracle

>  <origin>  (59) 
autodockgpu

>  <m_score__min__energy>  (59) 
-9.8699999999999992

>  <m_primary>  (59) 
energy

>  <rmsd>  (59) 
8.393830312993837

>  <m_score__min__rmsd>  (59) 
8.393830312993837

>  <meeko>  (59) 
{"free_energy": -9.23, "intermolecular_energy": -11.02, "internal_energy": -1.57, "cluster_size": 26, "cluster_id": 1, "rank_in_cluster": 19}

>  <energy>  (59) 
-9.65

>  <cluster_rmsd>  (59) 
0.65

>  <cluster>  (59) 
1

$$$$

     RDKit          3D

 67 72  0  0  0  0  0  0  0  0999 V2000
  142.2460   81.1260  222.3040 C   0  0  0  0  0  0  0  0  0  0  0  0
  142.4190   80.4740  223.4980 C   0  0  0  0  0  0  0  0  0  0  0  0
  142.0060   79.1660  223.6370 C   0  0  0  0  0  0  0  0  0  0  0  0
  141.4150   78.4850  222.5800 C   0  0  0  0  0  0  0  0  0  0  0  0
  141.2350   79.1370  221.3640 C   0  0  0  0  0  0  0  0  0  0  0  0
  141.6610   80.4560  221.2550 C   0  0  0  0  0  0  0  0  0  0  0  0
  140.6000   78.4360  220.1980 C   0  0  0  0  0  0  0  0  0  0  0  0
  139.4460   77.6340  220.7780 C   0  0  0  0  0  0  0  0  0  0  0  0
  139.8880   76.7490  221.8340 N   0  0  0  0  0  0  0  0  0  0  0  0
  139.2370   75.4980  222.0020 C   0  0  0  0  0  0  0  0  0  0  0  0
  139.9820   74.3620  222.0760 N   0  0  0  0  0  0  0  0  0  0  0  0
  139.3900   73.1700  222.2350 C   0  0  0  0  0  0  0  0  0  0  0  0
  140.1030   71.9450  222.3240 N   0  0  0  0  0  0  0  0  0  0  0  0
  140.7450   71.5200  223.5750 C   0  0  0  0  0  0  0  0  0  0  0  0
  139.7050   70.7930  224.3860 C   0  0  0  0  0  0  0  0  0  0  0  0
  139.9400   70.8320  225.8590 C   0  0  0  0  0  0  0  0  0  0  0  0
  141.0560   71.7260  226.2780 C   0  0  0  0  0  0  0  0  0  0  0  0
  141.0680   71.8430  227.7830 C   0  0  0  0  0  0  0  0  0  0  0  0
  140.0700   71.0310  228.3010 O   0  0  0  0  0  0  0  0  0  0  0  0
  140.2810   69.6940  227.9730 C   0  0  0  0  0  0  0  0  0  0  0  0
  140.1060   69.4360  226.4760 C   0  0  0  0  0  0  0  0  0  0  0  0
  138.0520   73.1280  222.3190 N   0  0  0  0  0  0  0  0  0  0  0  0
  137.2740   74.2220  222.2510 C   0  0  0  0  0  0  0  0  0  0  0  0
  135.8080   74.2160  222.3410 C   0  0  1  0  0  0  0  0  0  0  0  0
  135.3630   72.7710  222.4180 C   0  0  0  0  0  0  0  0  0  0  0  0
  135.4910   72.4800  223.8970 C   0  0  0  0  0  0  0  0  0  0  0  0
  135.0620   73.7590  224.5130 C   0  0  0  0  0  0  0  0  0  0  0  0
  134.5440   74.1320  225.7350 C   0  0  0  0  0  0  0  0  0  0  0  0
  134.2220   75.4320  226.0630 C   0  0  0  0  0  0  0  0  0  0  0  0
  134.4250   76.4420  225.1140 C   0  0  0  0  0  0  0  0  0  0  0  0
  134.9370   76.0740  223.9060 C   0  0  0  0  0  0  0  0  0  0  0  0
  135.2570   74.7610  223.5880 C   0  0  0  0  0  0  0  0  0  0  0  0
  137.8910   75.4080  222.0920 N   0  0  0  0  0  0  0  0  0  0  0  0
  140.9730   77.0850  222.7260 C   0  0  0  0  0  0  0  0  0  0  0  0
  142.5707   82.1705  222.1869 H   0  0  0  0  0  0  0  0  0  0  0  0
  142.8878   80.9952  224.3457 H   0  0  0  0  0  0  0  0  0  0  0  0
  142.1466   78.6534  224.6001 H   0  0  0  0  0  0  0  0  0  0  0  0
  141.5256   80.9811  220.2980 H   0  0  0  0  0  0  0  0  0  0  0  0
  140.2283   79.1685  219.4663 H   0  0  0  0  0  0  0  0  0  0  0  0
  141.3189   77.7904  219.6722 H   0  0  0  0  0  0  0  0  0  0  0  0
  138.6975   78.3295  221.1855 H   0  0  0  0  0  0  0  0  0  0  0  0
  139.0158   77.0200  219.9730 H   0  0  0  0  0  0  0  0  0  0  0  0
  140.1430   71.3670  221.4570 H   0  0  0  0  0  0  0  0  0  0  0  0
  141.5888   70.8491  223.3563 H   0  0  0  0  0  0  0  0  0  0  0  0
  141.1344   72.3876  224.1279 H   0  0  0  0  0  0  0  0  0  0  0  0
  138.7259   71.2503  224.1808 H   0  0  0  0  0  0  0  0  0  0  0  0
  139.7531   69.7357  224.0864 H   0  0  0  0  0  0  0  0  0  0  0  0
  139.0165   71.2748  226.2604 H   0  0  0  0  0  0  0  0  0  0  0  0
  142.0123   71.3042  225.9352 H   0  0  0  0  0  0  0  0  0  0  0  0
  140.9148   72.7223  225.8335 H   0  0  0  0  0  0  0  0  0  0  0  0
  142.0456   71.5212  228.1713 H   0  0  0  0  0  0  0  0  0  0  0  0
  140.8917   72.8877  228.0787 H   0  0  0  0  0  0  0  0  0  0  0  0
  141.3042   69.4143  228.2642 H   0  0  0  0  0  0  0  0  0  0  0  0
  139.5348   69.0908  228.5109 H   0  0  0  0  0  0  0  0  0  0  0  0
  140.9919   68.9317  226.0627 H   0  0  0  0  0  0  0  0  0  0  0  0
  139.2481   68.7812  226.2631 H   0  0  0  0  0  0  0  0  0  0  0  0
  135.4703   74.8108  221.4795 H   0  0  0  0  0  0  0  0  0  0  0  0
  134.3240   72.6542  222.0763 H   0  0  0  0  0  0  0  0  0  0  0  0
  135.9487   72.0924  221.7805 H   0  0  0  0  0  0  0  0  0  0  0  0
  134.8315   71.6527  224.1981 H   0  0  0  0  0  0  0  0  0  0  0  0
  136.5017   72.1657  224.1967 H   0  0  0  0  0  0  0  0  0  0  0  0
  134.3785   73.3493  226.4900 H   0  0  0  0  0  0  0  0  0  0  0  0
  133.8119   75.6723  227.0550 H   0  0  0  0  0  0  0  0  0  0  0  0
  134.1806   77.4914  225.3353 H   0  0  0  0  0  0  0  0  0  0  0  0
  135.1045   76.8532  223.1478 H   0  0  0  0  0  0  0  0  0  0  0  0
  140.6389   76.9273  223.7621 H   0  0  0  0  0  0  0  0  0  0  0  0
  141.8257   76.4383  222.4716 H   0  0  0  0  0  0  0  0  0  0  0  0
  1  2  2  0
  2  3  1  0
  3  4  2  0
  4  5  1  0
  5  6  2  0
  5  7  1  0
  7  8  1  0
  8  9  1  0
  9 10  1  0
 10 11  2  0
 11 12  1  0
 12 13  1  0
 13 14  1  0
 14 15  1  0
 15 16  1  0
 16 17  1  0
 17 18  1  0
 18 19  1  0
 19 20  1  0
 20 21  1  0
 12 22  2  0
 22 23  1  0
 23 24  1  0
 24 25  1  0
 25 26  1  0
 26 27  1  0
 27 28  2  0
 28 29  1  0
 29 30  2  0
 30 31  1  0
 31 32  2  0
 23 33  2  0
  9 34  1  0
  6  1  1  0
 33 10  1  0
 34  4  1  0
 21 16  1  0
 32 24  1  0
 32 27  1  0
  1 35  1  0
  2 36  1  0
  3 37  1  0
  6 38  1  0
  7 39  1  0
  7 40  1  0
  8 41  1  0
  8 42  1  0
 13 43  1  0
 14 44  1  0
 14 45  1  0
 15 46  1  0
 15 47  1  0
 16 48  1  0
 17 49  1  0
 17 50  1  0
 18 51  1  0
 18 52  1  0
 20 53  1  0
 20 54  1  0
 21 55  1  0
 21 56  1  0
 24 57  1  6
 25 58  1  0
 25 59  1  0
 26 60  1  0
 26 61  1  0
 28 62  1  0
 29 63  1  0
 30 64  1  0
 31 65  1  0
 34 66  1  0
 34 67  1  0
M  END
>  <smiles>  (60) 
c1ccc2c(c1)CCN(c1nc(NCCC3CCOCC3)nc(C3CCc4ccccc43)n1)C2

>  <score_type>  (60) 
oracle

>  <origin>  (60) 
autodockgpu

>  <m_score__min__energy>  (60) 
-9.8699999999999992

>  <m_primary>  (60) 
energy

>  <rmsd>  (60) 
6.736380642755254

>  <m_score__min__rmsd>  (60) 
6.736380642755254

>  <meeko>  (60) 
{"free_energy": -9.37, "intermolecular_energy": -11.16, "internal_energy": -1.37, "cluster_size": 11, "cluster_id": 3, "rank_in_cluster": 1}

>  <energy>  (60) 
-9.64

>  <cluster_rmsd>  (60) 
0.59

>  <cluster>  (60) 
1

$$$$

     RDKit          3D

 67 72  0  0  0  0  0  0  0  0999 V2000
  140.2300   68.1450  226.3700 C   0  0  0  0  0  0  0  0  0  0  0  0
  141.1160   69.1070  226.7800 C   0  0  0  0  0  0  0  0  0  0  0  0
  141.1680   70.3210  226.1280 C   0  0  0  0  0  0  0  0  0  0  0  0
  140.3310   70.5940  225.0530 C   0  0  0  0  0  0  0  0  0  0  0  0
  139.4280   69.6240  224.6290 C   0  0  0  0  0  0  0  0  0  0  0  0
  139.4000   68.4100  225.3060 C   0  0  0  0  0  0  0  0  0  0  0  0
  138.5070   69.8790  223.4720 C   0  0  0  0  0  0  0  0  0  0  0  0
  139.3430   70.6070  222.4320 C   0  0  0  0  0  0  0  0  0  0  0  0
  139.9550   71.8000  222.9780 N   0  0  0  0  0  0  0  0  0  0  0  0
  140.1390   72.9280  222.1350 C   0  0  0  0  0  0  0  0  0  0  0  0
  139.3610   74.0300  222.3140 N   0  0  0  0  0  0  0  0  0  0  0  0
  139.5170   75.1060  221.5320 C   0  0  0  0  0  0  0  0  0  0  0  0
  138.7440   76.2910  221.6620 N   0  0  0  0  0  0  0  0  0  0  0  0
  139.0430   77.2910  222.6970 C   0  0  0  0  0  0  0  0  0  0  0  0
  140.5380   77.4740  222.7220 C   0  0  0  0  0  0  0  0  0  0  0  0
  140.9790   78.8980  222.7750 C   0  0  0  0  0  0  0  0  0  0  0  0
  142.1920   79.1340  223.6080 C   0  0  0  0  0  0  0  0  0  0  0  0
  142.6580   80.5570  223.4230 C   0  0  0  0  0  0  0  0  0  0  0  0
  141.7720   81.2120  222.5820 O   0  0  0  0  0  0  0  0  0  0  0  0
  140.4890   81.2480  223.1230 C   0  0  0  0  0  0  0  0  0  0  0  0
  139.8510   79.8600  223.1800 C   0  0  0  0  0  0  0  0  0  0  0  0
  140.4550   75.0680  220.5730 N   0  0  0  0  0  0  0  0  0  0  0  0
  141.2470   74.0030  220.3580 C   0  0  0  0  0  0  0  0  0  0  0  0
  142.2850   73.9270  219.3220 C   0  0  1  0  0  0  0  0  0  0  0  0
  142.5160   75.3300  218.8030 C   0  0  0  0  0  0  0  0  0  0  0  0
  143.5080   75.8770  219.8060 C   0  0  0  0  0  0  0  0  0  0  0  0
  144.3570   74.6970  220.0930 C   0  0  0  0  0  0  0  0  0  0  0  0
  145.6410   74.5040  220.5570 C   0  0  0  0  0  0  0  0  0  0  0  0
  146.2080   73.2610  220.7400 C   0  0  0  0  0  0  0  0  0  0  0  0
  145.4520   72.1190  220.4440 C   0  0  0  0  0  0  0  0  0  0  0  0
  144.1830   72.3090  219.9850 C   0  0  0  0  0  0  0  0  0  0  0  0
  143.6230   73.5660  219.8050 C   0  0  0  0  0  0  0  0  0  0  0  0
  141.0720   72.9340  221.1570 N   0  0  0  0  0  0  0  0  0  0  0  0
  140.3840   71.8920  224.3540 C   0  0  0  0  0  0  0  0  0  0  0  0
  140.1835   67.1741  226.8850 H   0  0  0  0  0  0  0  0  0  0  0  0
  141.7862   68.9105  227.6299 H   0  0  0  0  0  0  0  0  0  0  0  0
  141.8837   71.0856  226.4644 H   0  0  0  0  0  0  0  0  0  0  0  0
  138.6902   67.6356  224.9797 H   0  0  0  0  0  0  0  0  0  0  0  0
  138.1309   68.9289  223.0648 H   0  0  0  0  0  0  0  0  0  0  0  0
  137.6304   70.4707  223.7743 H   0  0  0  0  0  0  0  0  0  0  0  0
  140.1344   69.9319  222.0743 H   0  0  0  0  0  0  0  0  0  0  0  0
  138.6798   70.9078  221.6076 H   0  0  0  0  0  0  0  0  0  0  0  0
  137.9600   76.4100  220.9870 H   0  0  0  0  0  0  0  0  0  0  0  0
  138.5508   78.2441  222.4534 H   0  0  0  0  0  0  0  0  0  0  0  0
  138.6741   76.9588  223.6786 H   0  0  0  0  0  0  0  0  0  0  0  0
  140.9340   76.9570  223.6085 H   0  0  0  0  0  0  0  0  0  0  0  0
  140.9230   77.0588  221.7790 H   0  0  0  0  0  0  0  0  0  0  0  0
  141.2636   79.1228  221.7365 H   0  0  0  0  0  0  0  0  0  0  0  0
  141.9491   78.9621  224.6670 H   0  0  0  0  0  0  0  0  0  0  0  0
  142.9901   78.4430  223.2989 H   0  0  0  0  0  0  0  0  0  0  0  0
  142.6873   81.0660  224.3977 H   0  0  0  0  0  0  0  0  0  0  0  0
  143.6662   80.5656  222.9832 H   0  0  0  0  0  0  0  0  0  0  0  0
  140.5454   81.6548  224.1434 H   0  0  0  0  0  0  0  0  0  0  0  0
  139.8654   81.8816  222.4752 H   0  0  0  0  0  0  0  0  0  0  0  0
  139.4968   79.6369  224.1972 H   0  0  0  0  0  0  0  0  0  0  0  0
  138.9745   79.7763  222.5206 H   0  0  0  0  0  0  0  0  0  0  0  0
  141.9172   73.1732  218.6103 H   0  0  0  0  0  0  0  0  0  0  0  0
  142.9402   75.3160  217.7882 H   0  0  0  0  0  0  0  0  0  0  0  0
  141.5968   75.9280  218.7169 H   0  0  0  0  0  0  0  0  0  0  0  0
  144.1000   76.6969  219.3732 H   0  0  0  0  0  0  0  0  0  0  0  0
  143.0350   76.3054  220.7019 H   0  0  0  0  0  0  0  0  0  0  0  0
  146.2465   75.3912  220.7943 H   0  0  0  0  0  0  0  0  0  0  0  0
  147.2386   73.1670  221.1129 H   0  0  0  0  0  0  0  0  0  0  0  0
  145.8665   71.1088  220.5769 H   0  0  0  0  0  0  0  0  0  0  0  0
  143.5740   71.4247  219.7460 H   0  0  0  0  0  0  0  0  0  0  0  0
  141.4197   72.2619  224.3761 H   0  0  0  0  0  0  0  0  0  0  0  0
  139.6971   72.5775  224.8719 H   0  0  0  0  0  0  0  0  0  0  0  0
  1  2  2  0
  2  3  1  0
  3  4  2  0
  4  5  1  0
  5  6  2  0
  5  7  1  0
  7  8  1  0
  8  9  1  0
  9 10  1  0
 10 11  2  0
 11 12  1  0
 12 13  1  0
 13 14  1  0
 14 15  1  0
 15 16  1  0
 16 17  1  0
 17 18  1  0
 18 19  1  0
 19 20  1  0
 20 21  1  0
 12 22  2  0
 22 23  1  0
 23 24  1  0
 24 25  1  0
 25 26  1  0
 26 27  1  0
 27 28  2  0
 28 29  1  0
 29 30  2  0
 30 31  1  0
 31 32  2  0
 23 33  2  0
  9 34  1  0
  6  1  1  0
 33 10  1  0
 34  4  1  0
 21 16  1  0
 32 24  1  0
 32 27  1  0
  1 35  1  0
  2 36  1  0
  3 37  1  0
  6 38  1  0
  7 39  1  0
  7 40  1  0
  8 41  1  0
  8 42  1  0
 13 43  1  0
 14 44  1  0
 14 45  1  0
 15 46  1  0
 15 47  1  0
 16 48  1  0
 17 49  1  0
 17 50  1  0
 18 51  1  0
 18 52  1  0
 20 53  1  0
 20 54  1  0
 21 55  1  0
 21 56  1  0
 24 57  1  6
 25 58  1  0
 25 59  1  0
 26 60  1  0
 26 61  1  0
 28 62  1  0
 29 63  1  0
 30 64  1  0
 31 65  1  0
 34 66  1  0
 34 67  1  0
M  END
>  <smiles>  (61) 
c1ccc2c(c1)CCN(c1nc(NCCC3CCOCC3)nc(C3CCc4ccccc43)n1)C2

>  <score_type>  (61) 
oracle

>  <origin>  (61) 
autodockgpu

>  <m_score__min__energy>  (61) 
-9.8699999999999992

>  <m_primary>  (61) 
energy

>  <rmsd>  (61) 
8.406677767433344

>  <m_score__min__rmsd>  (61) 
8.406677767433344

>  <meeko>  (61) 
{"free_energy": -9.68, "intermolecular_energy": -11.47, "internal_energy": -1.46, "cluster_size": 26, "cluster_id": 1, "rank_in_cluster": 8}

>  <energy>  (61) 
-9.62

>  <cluster_rmsd>  (61) 
0.8

>  <cluster>  (61) 
1

$$$$

     RDKit          3D

 67 72  0  0  0  0  0  0  0  0999 V2000
  140.3390   68.0950  226.2780 C   0  0  0  0  0  0  0  0  0  0  0  0
  141.0910   69.1290  226.7740 C   0  0  0  0  0  0  0  0  0  0  0  0
  141.0820   70.3540  226.1410 C   0  0  0  0  0  0  0  0  0  0  0  0
  140.3170   70.5660  225.0000 C   0  0  0  0  0  0  0  0  0  0  0  0
  139.5510   69.5230  224.4900 C   0  0  0  0  0  0  0  0  0  0  0  0
  139.5810   68.3000  225.1490 C   0  0  0  0  0  0  0  0  0  0  0  0
  138.7110   69.7110  223.2600 C   0  0  0  0  0  0  0  0  0  0  0  0
  139.5590   70.5340  222.3040 C   0  0  0  0  0  0  0  0  0  0  0  0
  140.0050   71.7690  222.9130 N   0  0  0  0  0  0  0  0  0  0  0  0
  140.1520   72.9250  222.1000 C   0  0  0  0  0  0  0  0  0  0  0  0
  139.3630   74.0090  222.3340 N   0  0  0  0  0  0  0  0  0  0  0  0
  139.4840   75.1110  221.5810 C   0  0  0  0  0  0  0  0  0  0  0  0
  138.6980   76.2800  221.7680 N   0  0  0  0  0  0  0  0  0  0  0  0
  139.2130   77.4400  222.5080 C   0  0  0  0  0  0  0  0  0  0  0  0
  139.7750   78.4020  221.4940 C   0  0  0  0  0  0  0  0  0  0  0  0
  140.9160   79.2230  221.9960 C   0  0  0  0  0  0  0  0  0  0  0  0
  141.1450   79.1200  223.4650 C   0  0  0  0  0  0  0  0  0  0  0  0
  142.4330   79.8210  223.8220 C   0  0  0  0  0  0  0  0  0  0  0  0
  142.9640   80.3920  222.6750 O   0  0  0  0  0  0  0  0  0  0  0  0
  142.0980   81.3360  222.1290 C   0  0  0  0  0  0  0  0  0  0  0  0
  140.8300   80.6940  221.5650 C   0  0  0  0  0  0  0  0  0  0  0  0
  140.3960   75.1160  220.5970 N   0  0  0  0  0  0  0  0  0  0  0  0
  141.1970   74.0700  220.3290 C   0  0  0  0  0  0  0  0  0  0  0  0
  142.2090   74.0400  219.2650 C   0  0  1  0  0  0  0  0  0  0  0  0
  142.5340   75.4750  218.9050 C   0  0  0  0  0  0  0  0  0  0  0  0
  143.5810   75.8290  219.9380 C   0  0  0  0  0  0  0  0  0  0  0  0
  144.3450   74.5650  220.0660 C   0  0  0  0  0  0  0  0  0  0  0  0
  145.6190   74.2290  220.4710 C   0  0  0  0  0  0  0  0  0  0  0  0
  146.0950   72.9350  220.4960 C   0  0  0  0  0  0  0  0  0  0  0  0
  145.2520   71.8930  220.0900 C   0  0  0  0  0  0  0  0  0  0  0  0
  143.9920   72.2250  219.6890 C   0  0  0  0  0  0  0  0  0  0  0  0
  143.5250   73.5320  219.6680 C   0  0  0  0  0  0  0  0  0  0  0  0
  141.0590   72.9750  221.0990 N   0  0  0  0  0  0  0  0  0  0  0  0
  140.3050   71.8760  224.3210 C   0  0  0  0  0  0  0  0  0  0  0  0
  140.3421   67.1145  226.7766 H   0  0  0  0  0  0  0  0  0  0  0  0
  141.7015   68.9811  227.6770 H   0  0  0  0  0  0  0  0  0  0  0  0
  141.6900   71.1766  226.5455 H   0  0  0  0  0  0  0  0  0  0  0  0
  138.9786   67.4684  224.7546 H   0  0  0  0  0  0  0  0  0  0  0  0
  138.4637   68.7373  222.8120 H   0  0  0  0  0  0  0  0  0  0  0  0
  137.7590   70.2112  223.4913 H   0  0  0  0  0  0  0  0  0  0  0  0
  140.4391   69.9435  222.0093 H   0  0  0  0  0  0  0  0  0  0  0  0
  138.9427   70.7860  221.4284 H   0  0  0  0  0  0  0  0  0  0  0  0
  137.7420   76.2680  221.3520 H   0  0  0  0  0  0  0  0  0  0  0  0
  138.3988   77.9193  223.0713 H   0  0  0  0  0  0  0  0  0  0  0  0
  139.9879   77.1325  223.2257 H   0  0  0  0  0  0  0  0  0  0  0  0
  140.1222   77.8235  220.6252 H   0  0  0  0  0  0  0  0  0  0  0  0
  138.9666   79.1045  221.2429 H   0  0  0  0  0  0  0  0  0  0  0  0
  141.7955   78.7758  221.5097 H   0  0  0  0  0  0  0  0  0  0  0  0
  140.3089   79.5932  224.0008 H   0  0  0  0  0  0  0  0  0  0  0  0
  141.2113   78.0605  223.7531 H   0  0  0  0  0  0  0  0  0  0  0  0
  142.2328   80.6053  224.5668 H   0  0  0  0  0  0  0  0  0  0  0  0
  143.1468   79.0987  224.2448 H   0  0  0  0  0  0  0  0  0  0  0  0
  141.8140   82.0527  222.9136 H   0  0  0  0  0  0  0  0  0  0  0  0
  142.6211   81.8374  221.3014 H   0  0  0  0  0  0  0  0  0  0  0  0
  139.9328   81.1705  221.9870 H   0  0  0  0  0  0  0  0  0  0  0  0
  140.7564   80.8051  220.4731 H   0  0  0  0  0  0  0  0  0  0  0  0
  141.7746   73.4010  218.4821 H   0  0  0  0  0  0  0  0  0  0  0  0
  142.9381   75.5494  217.8846 H   0  0  0  0  0  0  0  0  0  0  0  0
  141.6600   76.1429  218.9124 H   0  0  0  0  0  0  0  0  0  0  0  0
  144.2248   76.6489  219.5868 H   0  0  0  0  0  0  0  0  0  0  0  0
  143.1567   76.1834  220.8890 H   0  0  0  0  0  0  0  0  0  0  0  0
  146.2928   75.0372  220.7918 H   0  0  0  0  0  0  0  0  0  0  0  0
  147.1217   72.7244  220.8299 H   0  0  0  0  0  0  0  0  0  0  0  0
  145.5932   70.8473  220.0945 H   0  0  0  0  0  0  0  0  0  0  0  0
  143.3145   71.4203  219.3674 H   0  0  0  0  0  0  0  0  0  0  0  0
  141.2951   72.3414  224.4358 H   0  0  0  0  0  0  0  0  0  0  0  0
  139.5144   72.4842  224.7847 H   0  0  0  0  0  0  0  0  0  0  0  0
  1  2  2  0
  2  3  1  0
  3  4  2  0
  4  5  1  0
  5  6  2  0
  5  7  1  0
  7  8  1  0
  8  9  1  0
  9 10  1  0
 10 11  2  0
 11 12  1  0
 12 13  1  0
 13 14  1  0
 14 15  1  0
 15 16  1  0
 16 17  1  0
 17 18  1  0
 18 19  1  0
 19 20  1  0
 20 21  1  0
 12 22  2  0
 22 23  1  0
 23 24  1  0
 24 25  1  0
 25 26  1  0
 26 27  1  0
 27 28  2  0
 28 29  1  0
 29 30  2  0
 30 31  1  0
 31 32  2  0
 23 33  2  0
  9 34  1  0
  6  1  1  0
 33 10  1  0
 34  4  1  0
 21 16  1  0
 32 24  1  0
 32 27  1  0
  1 35  1  0
  2 36  1  0
  3 37  1  0
  6 38  1  0
  7 39  1  0
  7 40  1  0
  8 41  1  0
  8 42  1  0
 13 43  1  0
 14 44  1  0
 14 45  1  0
 15 46  1  0
 15 47  1  0
 16 48  1  0
 17 49  1  0
 17 50  1  0
 18 51  1  0
 18 52  1  0
 20 53  1  0
 20 54  1  0
 21 55  1  0
 21 56  1  0
 24 57  1  6
 25 58  1  0
 25 59  1  0
 26 60  1  0
 26 61  1  0
 28 62  1  0
 29 63  1  0
 30 64  1  0
 31 65  1  0
 34 66  1  0
 34 67  1  0
M  END
>  <smiles>  (62) 
c1ccc2c(c1)CCN(c1nc(NCCC3CCOCC3)nc(C3CCc4ccccc43)n1)C2

>  <score_type>  (62) 
oracle

>  <origin>  (62) 
autodockgpu

>  <m_score__min__energy>  (62) 
-9.8699999999999992

>  <m_primary>  (62) 
energy

>  <rmsd>  (62) 
8.432804164627651

>  <m_score__min__rmsd>  (62) 
8.432804164627651

>  <meeko>  (62) 
{"free_energy": -9.4, "intermolecular_energy": -11.19, "internal_energy": -1.44, "cluster_size": 26, "cluster_id": 1, "rank_in_cluster": 17}

>  <energy>  (62) 
-9.55

>  <cluster_rmsd>  (62) 
1.1

>  <cluster>  (62) 
1

$$$$

     RDKit          3D

 67 72  0  0  0  0  0  0  0  0999 V2000
  142.4110   81.1620  222.4370 C   0  0  0  0  0  0  0  0  0  0  0  0
  142.2530   80.6460  223.6980 C   0  0  0  0  0  0  0  0  0  0  0  0
  141.8130   79.3500  223.8630 C   0  0  0  0  0  0  0  0  0  0  0  0
  141.5250   78.5450  222.7670 C   0  0  0  0  0  0  0  0  0  0  0  0
  141.6820   79.0590  221.4840 C   0  0  0  0  0  0  0  0  0  0  0  0
  142.1260   80.3700  221.3490 C   0  0  0  0  0  0  0  0  0  0  0  0
  141.3820   78.2230  220.2740 C   0  0  0  0  0  0  0  0  0  0  0  0
  140.1110   77.4580  220.6070 C   0  0  0  0  0  0  0  0  0  0  0  0
  140.2480   76.7010  221.8330 N   0  0  0  0  0  0  0  0  0  0  0  0
  139.5710   75.4590  221.9570 C   0  0  0  0  0  0  0  0  0  0  0  0
  140.2940   74.3120  222.0670 N   0  0  0  0  0  0  0  0  0  0  0  0
  139.6770   73.1290  222.1840 C   0  0  0  0  0  0  0  0  0  0  0  0
  140.3660   71.8920  222.3060 N   0  0  0  0  0  0  0  0  0  0  0  0
  140.0650   70.9510  223.3930 C   0  0  0  0  0  0  0  0  0  0  0  0
  140.6900   71.5030  224.6480 C   0  0  0  0  0  0  0  0  0  0  0  0
  140.3120   70.7720  225.8930 C   0  0  0  0  0  0  0  0  0  0  0  0
  140.6570   71.4880  227.1530 C   0  0  0  0  0  0  0  0  0  0  0  0
  140.0500   70.7590  228.3270 C   0  0  0  0  0  0  0  0  0  0  0  0
  139.4140   69.6170  227.8630 O   0  0  0  0  0  0  0  0  0  0  0  0
  140.3100   68.7540  227.2380 C   0  0  0  0  0  0  0  0  0  0  0  0
  140.8450   69.3320  225.9270 C   0  0  0  0  0  0  0  0  0  0  0  0
  138.3360   73.1050  222.1900 N   0  0  0  0  0  0  0  0  0  0  0  0
  137.5790   74.2110  222.0850 C   0  0  0  0  0  0  0  0  0  0  0  0
  136.1110   74.2260  222.0910 C   0  0  1  0  0  0  0  0  0  0  0  0
  135.6400   72.7950  221.9330 C   0  0  0  0  0  0  0  0  0  0  0  0
  135.6760   72.2930  223.3590 C   0  0  0  0  0  0  0  0  0  0  0  0
  135.2310   73.4800  224.1290 C   0  0  0  0  0  0  0  0  0  0  0  0
  134.6480   73.6850  225.3600 C   0  0  0  0  0  0  0  0  0  0  0  0
  134.3260   74.9320  225.8540 C   0  0  0  0  0  0  0  0  0  0  0  0
  134.5990   76.0630  225.0730 C   0  0  0  0  0  0  0  0  0  0  0  0
  135.1760   75.8600  223.8560 C   0  0  0  0  0  0  0  0  0  0  0  0
  135.4950   74.5990  223.3700 C   0  0  0  0  0  0  0  0  0  0  0  0
  138.2210   75.3880  221.9680 N   0  0  0  0  0  0  0  0  0  0  0  0
  141.0550   77.1580  222.9410 C   0  0  0  0  0  0  0  0  0  0  0  0
  142.7610   82.1955  222.2976 H   0  0  0  0  0  0  0  0  0  0  0  0
  142.4775   81.2666  224.5780 H   0  0  0  0  0  0  0  0  0  0  0  0
  141.6878   78.9463  224.8786 H   0  0  0  0  0  0  0  0  0  0  0  0
  142.2535   80.7872  220.3392 H   0  0  0  0  0  0  0  0  0  0  0  0
  141.2243   78.8643  219.3943 H   0  0  0  0  0  0  0  0  0  0  0  0
  142.2133   77.5439  220.0336 H   0  0  0  0  0  0  0  0  0  0  0  0
  139.2834   78.1737  220.7204 H   0  0  0  0  0  0  0  0  0  0  0  0
  139.9113   76.7514  219.7880 H   0  0  0  0  0  0  0  0  0  0  0  0
  141.0910   71.6920  221.5850 H   0  0  0  0  0  0  0  0  0  0  0  0
  138.9764   70.8610  223.5226 H   0  0  0  0  0  0  0  0  0  0  0  0
  140.4646   69.9517  223.1654 H   0  0  0  0  0  0  0  0  0  0  0  0
  141.7835   71.4551  224.5385 H   0  0  0  0  0  0  0  0  0  0  0  0
  140.3172   72.5318  224.7603 H   0  0  0  0  0  0  0  0  0  0  0  0
  139.2138   70.7286  225.8485 H   0  0  0  0  0  0  0  0  0  0  0  0
  141.7504   71.5222  227.2679 H   0  0  0  0  0  0  0  0  0  0  0  0
  140.2608   72.5134  227.1129 H   0  0  0  0  0  0  0  0  0  0  0  0
  140.8415   70.4787  229.0376 H   0  0  0  0  0  0  0  0  0  0  0  0
  139.3247   71.4100  228.8370 H   0  0  0  0  0  0  0  0  0  0  0  0
  141.1564   68.5694  227.9159 H   0  0  0  0  0  0  0  0  0  0  0  0
  139.7755   67.8214  227.0043 H   0  0  0  0  0  0  0  0  0  0  0  0
  141.9450   69.3247  225.9195 H   0  0  0  0  0  0  0  0  0  0  0  0
  140.5247   68.7477  225.0518 H   0  0  0  0  0  0  0  0  0  0  0  0
  135.8342   74.9462  221.3069 H   0  0  0  0  0  0  0  0  0  0  0  0
  134.6214   72.7528  221.5200 H   0  0  0  0  0  0  0  0  0  0  0  0
  136.2516   72.2009  221.2381 H   0  0  0  0  0  0  0  0  0  0  0  0
  134.9874   71.4468  223.5000 H   0  0  0  0  0  0  0  0  0  0  0  0
  136.6626   71.9159  223.6662 H   0  0  0  0  0  0  0  0  0  0  0  0
  134.4270   72.8060  225.9834 H   0  0  0  0  0  0  0  0  0  0  0  0
  133.8620   75.0370  226.8458 H   0  0  0  0  0  0  0  0  0  0  0  0
  134.3568   77.0753  225.4289 H   0  0  0  0  0  0  0  0  0  0  0  0
  135.3997   76.7357  223.2290 H   0  0  0  0  0  0  0  0  0  0  0  0
  140.4542   77.1025  223.8607 H   0  0  0  0  0  0  0  0  0  0  0  0
  141.9424   76.5103  222.9960 H   0  0  0  0  0  0  0  0  0  0  0  0
  1  2  2  0
  2  3  1  0
  3  4  2  0
  4  5  1  0
  5  6  2  0
  5  7  1  0
  7  8  1  0
  8  9  1  0
  9 10  1  0
 10 11  2  0
 11 12  1  0
 12 13  1  0
 13 14  1  0
 14 15  1  0
 15 16  1  0
 16 17  1  0
 17 18  1  0
 18 19  1  0
 19 20  1  0
 20 21  1  0
 12 22  2  0
 22 23  1  0
 23 24  1  0
 24 25  1  0
 25 26  1  0
 26 27  1  0
 27 28  2  0
 28 29  1  0
 29 30  2  0
 30 31  1  0
 31 32  2  0
 23 33  2  0
  9 34  1  0
  6  1  1  0
 33 10  1  0
 34  4  1  0
 21 16  1  0
 32 24  1  0
 32 27  1  0
  1 35  1  0
  2 36  1  0
  3 37  1  0
  6 38  1  0
  7 39  1  0
  7 40  1  0
  8 41  1  0
  8 42  1  0
 13 43  1  0
 14 44  1  0
 14 45  1  0
 15 46  1  0
 15 47  1  0
 16 48  1  0
 17 49  1  0
 17 50  1  0
 18 51  1  0
 18 52  1  0
 20 53  1  0
 20 54  1  0
 21 55  1  0
 21 56  1  0
 24 57  1  6
 25 58  1  0
 25 59  1  0
 26 60  1  0
 26 61  1  0
 28 62  1  0
 29 63  1  0
 30 64  1  0
 31 65  1  0
 34 66  1  0
 34 67  1  0
M  END
>  <smiles>  (63) 
c1ccc2c(c1)CCN(c1nc(NCCC3CCOCC3)nc(C3CCc4ccccc43)n1)C2

>  <score_type>  (63) 
oracle

>  <origin>  (63) 
autodockgpu

>  <m_score__min__energy>  (63) 
-9.8699999999999992

>  <m_primary>  (63) 
energy

>  <rmsd>  (63) 
6.4894437349968035

>  <m_score__min__rmsd>  (63) 
6.4894437349968035

>  <meeko>  (63) 
{"free_energy": -9.35, "intermolecular_energy": -11.14, "internal_energy": -1.3, "cluster_size": 11, "cluster_id": 3, "rank_in_cluster": 2}

>  <energy>  (63) 
-9.51

>  <cluster_rmsd>  (63) 
0.53

>  <cluster>  (63) 
1

$$$$

     RDKit          3D

 67 72  0  0  0  0  0  0  0  0999 V2000
  139.0660   80.8160  223.9790 C   0  0  0  0  0  0  0  0  0  0  0  0
  140.4290   80.7520  223.8480 C   0  0  0  0  0  0  0  0  0  0  0  0
  141.0130   79.6670  223.2290 C   0  0  0  0  0  0  0  0  0  0  0  0
  140.2400   78.6260  222.7280 C   0  0  0  0  0  0  0  0  0  0  0  0
  138.8560   78.6820  222.8560 C   0  0  0  0  0  0  0  0  0  0  0  0
  138.2970   79.7880  223.4860 C   0  0  0  0  0  0  0  0  0  0  0  0
  137.9860   77.5780  222.3290 C   0  0  0  0  0  0  0  0  0  0  0  0
  138.7040   76.2850  222.6800 C   0  0  0  0  0  0  0  0  0  0  0  0
  140.0580   76.2690  222.1680 N   0  0  0  0  0  0  0  0  0  0  0  0
  140.6220   75.0360  221.7460 C   0  0  0  0  0  0  0  0  0  0  0  0
  140.2240   73.8800  222.3450 N   0  0  0  0  0  0  0  0  0  0  0  0
  140.7430   72.7050  221.9640 C   0  0  0  0  0  0  0  0  0  0  0  0
  140.3740   71.4600  222.5400 N   0  0  0  0  0  0  0  0  0  0  0  0
  139.3010   71.3660  223.5400 C   0  0  0  0  0  0  0  0  0  0  0  0
  139.5920   70.1590  224.3940 C   0  0  0  0  0  0  0  0  0  0  0  0
  139.9300   70.4800  225.8120 C   0  0  0  0  0  0  0  0  0  0  0  0
  140.9840   71.5200  225.9710 C   0  0  0  0  0  0  0  0  0  0  0  0
  141.0930   71.9050  227.4270 C   0  0  0  0  0  0  0  0  0  0  0  0
  140.2170   71.1210  228.1630 O   0  0  0  0  0  0  0  0  0  0  0  0
  140.5290   69.7680  228.0510 C   0  0  0  0  0  0  0  0  0  0  0  0
  140.2710   69.2340  226.6430 C   0  0  0  0  0  0  0  0  0  0  0  0
  141.6570   72.6980  220.9830 N   0  0  0  0  0  0  0  0  0  0  0  0
  142.0810   73.8130  220.3620 C   0  0  0  0  0  0  0  0  0  0  0  0
  143.0770   73.8450  219.2830 C   0  0  1  0  0  0  0  0  0  0  0  0
  144.0450   74.9680  219.5890 C   0  0  0  0  0  0  0  0  0  0  0  0
  145.0250   74.2920  220.5220 C   0  0  0  0  0  0  0  0  0  0  0  0
  145.1260   72.9290  219.9490 C   0  0  0  0  0  0  0  0  0  0  0  0
  146.0650   71.9200  219.9820 C   0  0  0  0  0  0  0  0  0  0  0  0
  145.9060   70.7090  219.3420 C   0  0  0  0  0  0  0  0  0  0  0  0
  144.7330   70.4740  218.6130 C   0  0  0  0  0  0  0  0  0  0  0  0
  143.8050   71.4710  218.5800 C   0  0  0  0  0  0  0  0  0  0  0  0
  143.9760   72.6860  219.2290 C   0  0  0  0  0  0  0  0  0  0  0  0
  141.5460   74.9820  220.7610 N   0  0  0  0  0  0  0  0  0  0  0  0
  140.8620   77.4640  222.0650 C   0  0  0  0  0  0  0  0  0  0  0  0
  138.5935   81.6784  224.4720 H   0  0  0  0  0  0  0  0  0  0  0  0
  141.0574   81.5668  224.2370 H   0  0  0  0  0  0  0  0  0  0  0  0
  142.1077   79.6246  223.1301 H   0  0  0  0  0  0  0  0  0  0  0  0
  137.2036   79.8427  223.5937 H   0  0  0  0  0  0  0  0  0  0  0  0
  136.9958   77.6087  222.8070 H   0  0  0  0  0  0  0  0  0  0  0  0
  137.8242   77.6711  221.2449 H   0  0  0  0  0  0  0  0  0  0  0  0
  138.7354   76.1804  223.7746 H   0  0  0  0  0  0  0  0  0  0  0  0
  138.1534   75.4511  222.2202 H   0  0  0  0  0  0  0  0  0  0  0  0
  140.9020   70.6230  222.2150 H   0  0  0  0  0  0  0  0  0  0  0  0
  139.2853   72.2730  224.1622 H   0  0  0  0  0  0  0  0  0  0  0  0
  138.3197   71.2715  223.0520 H   0  0  0  0  0  0  0  0  0  0  0  0
  138.7033   69.5108  224.3894 H   0  0  0  0  0  0  0  0  0  0  0  0
  140.4775   69.6711  223.9606 H   0  0  0  0  0  0  0  0  0  0  0  0
  139.0010   70.9131  226.2112 H   0  0  0  0  0  0  0  0  0  0  0  0
  141.9485   71.1211  225.6236 H   0  0  0  0  0  0  0  0  0  0  0  0
  140.7188   72.4060  225.3755 H   0  0  0  0  0  0  0  0  0  0  0  0
  142.1222   71.7382  227.7775 H   0  0  0  0  0  0  0  0  0  0  0  0
  140.8394   72.9680  227.5527 H   0  0  0  0  0  0  0  0  0  0  0  0
  141.5926   69.6278  228.2943 H   0  0  0  0  0  0  0  0  0  0  0  0
  139.8840   69.2125  228.7477 H   0  0  0  0  0  0  0  0  0  0  0  0
  141.1680   68.7362  226.2461 H   0  0  0  0  0  0  0  0  0  0  0  0
  139.4652   68.4855  226.6221 H   0  0  0  0  0  0  0  0  0  0  0  0
  142.4869   73.9166  218.3574 H   0  0  0  0  0  0  0  0  0  0  0  0
  144.5438   75.3258  218.6762 H   0  0  0  0  0  0  0  0  0  0  0  0
  143.5673   75.8610  220.0183 H   0  0  0  0  0  0  0  0  0  0  0  0
  146.0001   74.8010  220.5110 H   0  0  0  0  0  0  0  0  0  0  0  0
  144.7064   74.3024  221.5748 H   0  0  0  0  0  0  0  0  0  0  0  0
  146.9916   72.0903  220.5499 H   0  0  0  0  0  0  0  0  0  0  0  0
  146.6888   69.9386  219.4030 H   0  0  0  0  0  0  0  0  0  0  0  0
  144.5677   69.5217  218.0878 H   0  0  0  0  0  0  0  0  0  0  0  0
  142.8772   71.3054  218.0127 H   0  0  0  0  0  0  0  0  0  0  0  0
  141.8389   77.2727  222.5331 H   0  0  0  0  0  0  0  0  0  0  0  0
  140.9640   77.7055  220.9967 H   0  0  0  0  0  0  0  0  0  0  0  0
  1  2  2  0
  2  3  1  0
  3  4  2  0
  4  5  1  0
  5  6  2  0
  5  7  1  0
  7  8  1  0
  8  9  1  0
  9 10  1  0
 10 11  2  0
 11 12  1  0
 12 13  1  0
 13 14  1  0
 14 15  1  0
 15 16  1  0
 16 17  1  0
 17 18  1  0
 18 19  1  0
 19 20  1  0
 20 21  1  0
 12 22  2  0
 22 23  1  0
 23 24  1  0
 24 25  1  0
 25 26  1  0
 26 27  1  0
 27 28  2  0
 28 29  1  0
 29 30  2  0
 30 31  1  0
 31 32  2  0
 23 33  2  0
  9 34  1  0
  6  1  1  0
 33 10  1  0
 34  4  1  0
 21 16  1  0
 32 24  1  0
 32 27  1  0
  1 35  1  0
  2 36  1  0
  3 37  1  0
  6 38  1  0
  7 39  1  0
  7 40  1  0
  8 41  1  0
  8 42  1  0
 13 43  1  0
 14 44  1  0
 14 45  1  0
 15 46  1  0
 15 47  1  0
 16 48  1  0
 17 49  1  0
 17 50  1  0
 18 51  1  0
 18 52  1  0
 20 53  1  0
 20 54  1  0
 21 55  1  0
 21 56  1  0
 24 57  1  6
 25 58  1  0
 25 59  1  0
 26 60  1  0
 26 61  1  0
 28 62  1  0
 29 63  1  0
 30 64  1  0
 31 65  1  0
 34 66  1  0
 34 67  1  0
M  END
>  <smiles>  (64) 
c1ccc2c(c1)CCN(c1nc(NCCC3CCOCC3)nc(C3CCc4ccccc43)n1)C2

>  <score_type>  (64) 
oracle

>  <origin>  (64) 
autodockgpu

>  <m_score__min__energy>  (64) 
-9.8699999999999992

>  <m_primary>  (64) 
energy

>  <rmsd>  (64) 
8.593309016050311

>  <m_score__min__rmsd>  (64) 
8.593309016050311

>  <meeko>  (64) 
{"free_energy": -9.76, "intermolecular_energy": -11.55, "internal_energy": -1.23, "cluster_size": 11, "cluster_id": 2, "rank_in_cluster": 3}

>  <energy>  (64) 
-9.48

>  <cluster_rmsd>  (64) 
0.74

>  <cluster>  (64) 
1

$$$$

     RDKit          3D

 67 72  0  0  0  0  0  0  0  0999 V2000
  140.2630   67.6940  226.2490 C   0  0  0  0  0  0  0  0  0  0  0  0
  141.0480   68.6780  226.7950 C   0  0  0  0  0  0  0  0  0  0  0  0
  141.0860   69.9300  226.2180 C   0  0  0  0  0  0  0  0  0  0  0  0
  140.3360   70.2210  225.0850 C   0  0  0  0  0  0  0  0  0  0  0  0
  139.5360   69.2300  224.5250 C   0  0  0  0  0  0  0  0  0  0  0  0
  139.5190   67.9770  225.1270 C   0  0  0  0  0  0  0  0  0  0  0  0
  138.7110   69.5030  223.3010 C   0  0  0  0  0  0  0  0  0  0  0  0
  139.5930   70.3380  222.3870 C   0  0  0  0  0  0  0  0  0  0  0  0
  140.0790   71.5270  223.0530 N   0  0  0  0  0  0  0  0  0  0  0  0
  140.2710   72.7130  222.2950 C   0  0  0  0  0  0  0  0  0  0  0  0
  139.6390   73.8570  222.6730 N   0  0  0  0  0  0  0  0  0  0  0  0
  139.8050   74.9880  221.9740 C   0  0  0  0  0  0  0  0  0  0  0  0
  139.1810   76.2180  222.3110 N   0  0  0  0  0  0  0  0  0  0  0  0
  139.7430   77.5060  221.8820 C   0  0  0  0  0  0  0  0  0  0  0  0
  139.5590   78.4750  223.0210 C   0  0  0  0  0  0  0  0  0  0  0  0
  140.5760   79.5660  223.0660 C   0  0  0  0  0  0  0  0  0  0  0  0
  140.9570   80.1050  221.7310 C   0  0  0  0  0  0  0  0  0  0  0  0
  141.8260   81.3260  221.9110 C   0  0  0  0  0  0  0  0  0  0  0  0
  142.0420   81.5230  223.2670 O   0  0  0  0  0  0  0  0  0  0  0  0
  142.7030   80.4380  223.8390 C   0  0  0  0  0  0  0  0  0  0  0  0
  141.8270   79.1860  223.8720 C   0  0  0  0  0  0  0  0  0  0  0  0
  140.6060   74.9610  220.8980 N   0  0  0  0  0  0  0  0  0  0  0  0
  141.2520   73.8570  220.4860 C   0  0  0  0  0  0  0  0  0  0  0  0
  142.1380   73.7900  219.3170 C   0  0  1  0  0  0  0  0  0  0  0  0
  142.5180   75.2100  218.9520 C   0  0  0  0  0  0  0  0  0  0  0  0
  143.6920   75.4670  219.8720 C   0  0  0  0  0  0  0  0  0  0  0  0
  144.3790   74.1540  219.8900 C   0  0  0  0  0  0  0  0  0  0  0  0
  145.6640   73.7250  220.1460 C   0  0  0  0  0  0  0  0  0  0  0  0
  146.0520   72.4030  220.0930 C   0  0  0  0  0  0  0  0  0  0  0  0
  145.1010   71.4290  219.7610 C   0  0  0  0  0  0  0  0  0  0  0  0
  143.8310   71.8520  219.5070 C   0  0  0  0  0  0  0  0  0  0  0  0
  143.4530   73.1870  219.5640 C   0  0  0  0  0  0  0  0  0  0  0  0
  141.0700   72.7330  221.2040 N   0  0  0  0  0  0  0  0  0  0  0  0
  140.3740   71.5590  224.4670 C   0  0  0  0  0  0  0  0  0  0  0  0
  140.2290   66.6923  226.7023 H   0  0  0  0  0  0  0  0  0  0  0  0
  141.6472   68.4682  227.6933 H   0  0  0  0  0  0  0  0  0  0  0  0
  141.7205   70.7112  226.6620 H   0  0  0  0  0  0  0  0  0  0  0  0
  138.8902   67.1862  224.6920 H   0  0  0  0  0  0  0  0  0  0  0  0
  138.4326   68.5598  222.8082 H   0  0  0  0  0  0  0  0  0  0  0  0
  137.7758   70.0257  223.5505 H   0  0  0  0  0  0  0  0  0  0  0  0
  140.4532   69.7305  222.0691 H   0  0  0  0  0  0  0  0  0  0  0  0
  138.9907   70.6514  221.5215 H   0  0  0  0  0  0  0  0  0  0  0  0
  138.3060   76.1560  222.8740 H   0  0  0  0  0  0  0  0  0  0  0  0
  140.8129   77.3926  221.6530 H   0  0  0  0  0  0  0  0  0  0  0  0
  139.2376   77.8695  220.9751 H   0  0  0  0  0  0  0  0  0  0  0  0
  138.5641   78.9345  222.9258 H   0  0  0  0  0  0  0  0  0  0  0  0
  139.6742   77.8969  223.9497 H   0  0  0  0  0  0  0  0  0  0  0  0
  140.0622   80.3809  223.5970 H   0  0  0  0  0  0  0  0  0  0  0  0
  141.5129   79.3385  221.1711 H   0  0  0  0  0  0  0  0  0  0  0  0
  140.0493   80.3798  221.1737 H   0  0  0  0  0  0  0  0  0  0  0  0
  142.7888   81.1734  221.4013 H   0  0  0  0  0  0  0  0  0  0  0  0
  141.3283   82.2068  221.4792 H   0  0  0  0  0  0  0  0  0  0  0  0
  143.6075   80.2231  223.2510 H   0  0  0  0  0  0  0  0  0  0  0  0
  142.9560   80.7029  224.8762 H   0  0  0  0  0  0  0  0  0  0  0  0
  142.3465   78.3363  223.4048 H   0  0  0  0  0  0  0  0  0  0  0  0
  141.5829   78.8750  224.8985 H   0  0  0  0  0  0  0  0  0  0  0  0
  141.5796   73.2020  218.5737 H   0  0  0  0  0  0  0  0  0  0  0  0
  142.8141   75.2856  217.8953 H   0  0  0  0  0  0  0  0  0  0  0  0
  141.6970   75.9329  219.0676 H   0  0  0  0  0  0  0  0  0  0  0  0
  144.3477   76.2532  219.4696 H   0  0  0  0  0  0  0  0  0  0  0  0
  143.3970   75.8213  220.8707 H   0  0  0  0  0  0  0  0  0  0  0  0
  146.4214   74.4789  220.4069 H   0  0  0  0  0  0  0  0  0  0  0  0
  147.0923   72.1173  220.3081 H   0  0  0  0  0  0  0  0  0  0  0  0
  145.3695   70.3636  219.7075 H   0  0  0  0  0  0  0  0  0  0  0  0
  143.0704   71.1018  219.2448 H   0  0  0  0  0  0  0  0  0  0  0  0
  141.3790   71.9835  224.6076 H   0  0  0  0  0  0  0  0  0  0  0  0
  139.6022   72.1729  224.9543 H   0  0  0  0  0  0  0  0  0  0  0  0
  1  2  2  0
  2  3  1  0
  3  4  2  0
  4  5  1  0
  5  6  2  0
  5  7  1  0
  7  8  1  0
  8  9  1  0
  9 10  1  0
 10 11  2  0
 11 12  1  0
 12 13  1  0
 13 14  1  0
 14 15  1  0
 15 16  1  0
 16 17  1  0
 17 18  1  0
 18 19  1  0
 19 20  1  0
 20 21  1  0
 12 22  2  0
 22 23  1  0
 23 24  1  0
 24 25  1  0
 25 26  1  0
 26 27  1  0
 27 28  2  0
 28 29  1  0
 29 30  2  0
 30 31  1  0
 31 32  2  0
 23 33  2  0
  9 34  1  0
  6  1  1  0
 33 10  1  0
 34  4  1  0
 21 16  1  0
 32 24  1  0
 32 27  1  0
  1 35  1  0
  2 36  1  0
  3 37  1  0
  6 38  1  0
  7 39  1  0
  7 40  1  0
  8 41  1  0
  8 42  1  0
 13 43  1  0
 14 44  1  0
 14 45  1  0
 15 46  1  0
 15 47  1  0
 16 48  1  0
 17 49  1  0
 17 50  1  0
 18 51  1  0
 18 52  1  0
 20 53  1  0
 20 54  1  0
 21 55  1  0
 21 56  1  0
 24 57  1  6
 25 58  1  0
 25 59  1  0
 26 60  1  0
 26 61  1  0
 28 62  1  0
 29 63  1  0
 30 64  1  0
 31 65  1  0
 34 66  1  0
 34 67  1  0
M  END
>  <smiles>  (65) 
c1ccc2c(c1)CCN(c1nc(NCCC3CCOCC3)nc(C3CCc4ccccc43)n1)C2

>  <score_type>  (65) 
oracle

>  <origin>  (65) 
autodockgpu

>  <m_score__min__energy>  (65) 
-9.8699999999999992

>  <m_primary>  (65) 
energy

>  <rmsd>  (65) 
8.38260036069034

>  <m_score__min__rmsd>  (65) 
8.38260036069034

>  <meeko>  (65) 
{"free_energy": -9.78, "intermolecular_energy": -11.57, "internal_energy": -1.28, "cluster_size": 26, "cluster_id": 1, "rank_in_cluster": 6}

>  <energy>  (65) 
-9.41

>  <cluster_rmsd>  (65) 
1.06

>  <cluster>  (65) 
1

$$$$

     RDKit          3D

 67 72  0  0  0  0  0  0  0  0999 V2000
  139.6630   68.5840  227.1700 C   0  0  0  0  0  0  0  0  0  0  0  0
  140.6800   69.4480  227.4880 C   0  0  0  0  0  0  0  0  0  0  0  0
  141.0090   70.4730  226.6280 C   0  0  0  0  0  0  0  0  0  0  0  0
  140.3240   70.6550  225.4330 C   0  0  0  0  0  0  0  0  0  0  0  0
  139.2900   69.7850  225.1010 C   0  0  0  0  0  0  0  0  0  0  0  0
  138.9820   68.7600  225.9880 C   0  0  0  0  0  0  0  0  0  0  0  0
  138.5250   69.9470  223.8200 C   0  0  0  0  0  0  0  0  0  0  0  0
  139.5610   70.2920  222.7620 C   0  0  0  0  0  0  0  0  0  0  0  0
  140.3420   71.4510  223.1380 N   0  0  0  0  0  0  0  0  0  0  0  0
  140.8000   72.3330  222.1230 C   0  0  0  0  0  0  0  0  0  0  0  0
  140.7040   73.6770  222.3130 N   0  0  0  0  0  0  0  0  0  0  0  0
  141.1290   74.5280  221.3690 C   0  0  0  0  0  0  0  0  0  0  0  0
  141.0630   75.9410  221.5000 N   0  0  0  0  0  0  0  0  0  0  0  0
  139.7760   76.6470  221.5650 C   0  0  0  0  0  0  0  0  0  0  0  0
  139.8570   77.6180  222.7140 C   0  0  0  0  0  0  0  0  0  0  0  0
  140.9950   78.5780  222.6240 C   0  0  0  0  0  0  0  0  0  0  0  0
  141.2040   79.3980  223.8500 C   0  0  0  0  0  0  0  0  0  0  0  0
  142.4910   80.1750  223.7210 C   0  0  0  0  0  0  0  0  0  0  0  0
  143.0410   79.9250  222.4720 O   0  0  0  0  0  0  0  0  0  0  0  0
  142.1870   80.3340  221.4500 C   0  0  0  0  0  0  0  0  0  0  0  0
  140.9240   79.4770  221.3800 C   0  0  0  0  0  0  0  0  0  0  0  0
  141.6480   74.0230  220.2400 N   0  0  0  0  0  0  0  0  0  0  0  0
  141.7640   72.7040  220.0080 C   0  0  0  0  0  0  0  0  0  0  0  0
  142.3300   72.1150  218.7870 C   0  0  1  0  0  0  0  0  0  0  0  0
  143.3040   73.1180  218.2060 C   0  0  0  0  0  0  0  0  0  0  0  0
  144.5680   72.8140  218.9810 C   0  0  0  0  0  0  0  0  0  0  0  0
  144.5140   71.3380  219.1150 C   0  0  0  0  0  0  0  0  0  0  0  0
  145.4430   70.3390  219.3170 C   0  0  0  0  0  0  0  0  0  0  0  0
  145.1180   69.0020  219.4080 C   0  0  0  0  0  0  0  0  0  0  0  0
  143.7750   68.6200  219.2890 C   0  0  0  0  0  0  0  0  0  0  0  0
  142.8570   69.6070  219.0900 C   0  0  0  0  0  0  0  0  0  0  0  0
  143.1970   70.9500  219.0000 C   0  0  0  0  0  0  0  0  0  0  0  0
  141.3310   71.8680  220.9700 N   0  0  0  0  0  0  0  0  0  0  0  0
  140.6740   71.7520  224.5110 C   0  0  0  0  0  0  0  0  0  0  0  0
  139.3959   67.7621  227.8506 H   0  0  0  0  0  0  0  0  0  0  0  0
  141.2333   69.3224  228.4304 H   0  0  0  0  0  0  0  0  0  0  0  0
  141.8277   71.1587  226.8919 H   0  0  0  0  0  0  0  0  0  0  0  0
  138.1663   68.0664  225.7362 H   0  0  0  0  0  0  0  0  0  0  0  0
  138.0091   69.0108  223.5605 H   0  0  0  0  0  0  0  0  0  0  0  0
  137.7548   70.7279  223.9034 H   0  0  0  0  0  0  0  0  0  0  0  0
  140.2365   69.4338  222.6308 H   0  0  0  0  0  0  0  0  0  0  0  0
  139.0322   70.5230  221.8255 H   0  0  0  0  0  0  0  0  0  0  0  0
  141.9740   76.4460  221.5470 H   0  0  0  0  0  0  0  0  0  0  0  0
  139.5961   77.1896  220.6252 H   0  0  0  0  0  0  0  0  0  0  0  0
  138.9486   75.9371  221.7118 H   0  0  0  0  0  0  0  0  0  0  0  0
  138.9208   78.1947  222.7450 H   0  0  0  0  0  0  0  0  0  0  0  0
  140.0192   77.0197  223.6227 H   0  0  0  0  0  0  0  0  0  0  0  0
  141.8777   77.9288  222.5267 H   0  0  0  0  0  0  0  0  0  0  0  0
  140.3637   80.0975  223.9711 H   0  0  0  0  0  0  0  0  0  0  0  0
  141.2603   78.7377  224.7280 H   0  0  0  0  0  0  0  0  0  0  0  0
  142.2856   81.2506  223.8259 H   0  0  0  0  0  0  0  0  0  0  0  0
  143.1947   79.8658  224.5079 H   0  0  0  0  0  0  0  0  0  0  0  0
  141.8966   81.3800  221.6275 H   0  0  0  0  0  0  0  0  0  0  0  0
  142.7236   80.2256  220.4959 H   0  0  0  0  0  0  0  0  0  0  0  0
  140.0241   80.1089  221.4086 H   0  0  0  0  0  0  0  0  0  0  0  0
  140.8662   78.8953  220.4482 H   0  0  0  0  0  0  0  0  0  0  0  0
  141.4572   71.8377  218.1777 H   0  0  0  0  0  0  0  0  0  0  0  0
  143.4479   72.9568  217.1274 H   0  0  0  0  0  0  0  0  0  0  0  0
  142.9703   74.1625  218.2936 H   0  0  0  0  0  0  0  0  0  0  0  0
  145.4620   73.1303  218.4236 H   0  0  0  0  0  0  0  0  0  0  0  0
  144.6290   73.3403  219.9450 H   0  0  0  0  0  0  0  0  0  0  0  0
  146.5012   70.6243  219.4107 H   0  0  0  0  0  0  0  0  0  0  0  0
  145.9010   68.2469  219.5715 H   0  0  0  0  0  0  0  0  0  0  0  0
  143.4735   67.5641  219.3537 H   0  0  0  0  0  0  0  0  0  0  0  0
  141.7974   69.3267  218.9963 H   0  0  0  0  0  0  0  0  0  0  0  0
  141.7560   71.9378  224.5792 H   0  0  0  0  0  0  0  0  0  0  0  0
  140.0909   72.6360  224.8086 H   0  0  0  0  0  0  0  0  0  0  0  0
  1  2  2  0
  2  3  1  0
  3  4  2  0
  4  5  1  0
  5  6  2  0
  5  7  1  0
  7  8  1  0
  8  9  1  0
  9 10  1  0
 10 11  2  0
 11 12  1  0
 12 13  1  0
 13 14  1  0
 14 15  1  0
 15 16  1  0
 16 17  1  0
 17 18  1  0
 18 19  1  0
 19 20  1  0
 20 21  1  0
 12 22  2  0
 22 23  1  0
 23 24  1  0
 24 25  1  0
 25 26  1  0
 26 27  1  0
 27 28  2  0
 28 29  1  0
 29 30  2  0
 30 31  1  0
 31 32  2  0
 23 33  2  0
  9 34  1  0
  6  1  1  0
 33 10  1  0
 34  4  1  0
 21 16  1  0
 32 24  1  0
 32 27  1  0
  1 35  1  0
  2 36  1  0
  3 37  1  0
  6 38  1  0
  7 39  1  0
  7 40  1  0
  8 41  1  0
  8 42  1  0
 13 43  1  0
 14 44  1  0
 14 45  1  0
 15 46  1  0
 15 47  1  0
 16 48  1  0
 17 49  1  0
 17 50  1  0
 18 51  1  0
 18 52  1  0
 20 53  1  0
 20 54  1  0
 21 55  1  0
 21 56  1  0
 24 57  1  6
 25 58  1  0
 25 59  1  0
 26 60  1  0
 26 61  1  0
 28 62  1  0
 29 63  1  0
 30 64  1  0
 31 65  1  0
 34 66  1  0
 34 67  1  0
M  END
>  <smiles>  (66) 
c1ccc2c(c1)CCN(c1nc(NCCC3CCOCC3)nc(C3CCc4ccccc43)n1)C2

>  <score_type>  (66) 
oracle

>  <origin>  (66) 
autodockgpu

>  <m_score__min__energy>  (66) 
-9.8699999999999992

>  <m_primary>  (66) 
energy

>  <rmsd>  (66) 
8.062079148747976

>  <m_score__min__rmsd>  (66) 
8.062079148747976

>  <meeko>  (66) 
{"free_energy": -9.22, "intermolecular_energy": -11.01, "internal_energy": -1.24, "cluster_size": 26, "cluster_id": 1, "rank_in_cluster": 20}

>  <energy>  (66) 
-9.4

>  <cluster_rmsd>  (66) 
0.75

>  <cluster>  (66) 
1

$$$$

     RDKit          3D

 67 72  0  0  0  0  0  0  0  0999 V2000
  142.1000   81.3560  223.1960 C   0  0  0  0  0  0  0  0  0  0  0  0
  142.8890   80.3300  223.6470 C   0  0  0  0  0  0  0  0  0  0  0  0
  142.5130   79.0220  223.4250 C   0  0  0  0  0  0  0  0  0  0  0  0
  141.3410   78.7180  222.7440 C   0  0  0  0  0  0  0  0  0  0  0  0
  140.5340   79.7530  222.2820 C   0  0  0  0  0  0  0  0  0  0  0  0
  140.9380   81.0610  222.5220 C   0  0  0  0  0  0  0  0  0  0  0  0
  139.2590   79.4670  221.5420 C   0  0  0  0  0  0  0  0  0  0  0  0
  138.6120   78.3010  222.2710 C   0  0  0  0  0  0  0  0  0  0  0  0
  139.5070   77.1690  222.3710 N   0  0  0  0  0  0  0  0  0  0  0  0
  138.9660   75.8560  222.3320 C   0  0  0  0  0  0  0  0  0  0  0  0
  139.8070   74.7900  222.2440 N   0  0  0  0  0  0  0  0  0  0  0  0
  139.3190   73.5420  222.2060 C   0  0  0  0  0  0  0  0  0  0  0  0
  140.1350   72.3830  222.1180 N   0  0  0  0  0  0  0  0  0  0  0  0
  140.7030   71.7520  223.3170 C   0  0  0  0  0  0  0  0  0  0  0  0
  139.5730   71.0640  224.0370 C   0  0  0  0  0  0  0  0  0  0  0  0
  139.8530   70.7670  225.4720 C   0  0  0  0  0  0  0  0  0  0  0  0
  141.0040   71.5220  226.0420 C   0  0  0  0  0  0  0  0  0  0  0  0
  141.0630   71.2970  227.5330 C   0  0  0  0  0  0  0  0  0  0  0  0
  140.0600   70.4080  227.8910 O   0  0  0  0  0  0  0  0  0  0  0  0
  140.2260   69.1750  227.2630 C   0  0  0  0  0  0  0  0  0  0  0  0
  140.0000   69.2640  225.7540 C   0  0  0  0  0  0  0  0  0  0  0  0
  137.9890   73.3740  222.2560 N   0  0  0  0  0  0  0  0  0  0  0  0
  137.1200   74.3960  222.3430 C   0  0  0  0  0  0  0  0  0  0  0  0
  135.6600   74.2510  222.4040 C   0  0  1  0  0  0  0  0  0  0  0  0
  135.3500   72.7690  222.4420 C   0  0  0  0  0  0  0  0  0  0  0  0
  135.4770   72.4590  223.9170 C   0  0  0  0  0  0  0  0  0  0  0  0
  134.9200   73.6780  224.5510 C   0  0  0  0  0  0  0  0  0  0  0  0
  134.3480   73.9730  225.7690 C   0  0  0  0  0  0  0  0  0  0  0  0
  133.8990   75.2300  226.1170 C   0  0  0  0  0  0  0  0  0  0  0  0
  134.0240   76.2750  225.1940 C   0  0  0  0  0  0  0  0  0  0  0  0
  134.5900   75.9840  223.9890 C   0  0  0  0  0  0  0  0  0  0  0  0
  135.0370   74.7140  223.6500 C   0  0  0  0  0  0  0  0  0  0  0  0
  137.6320   75.6400  222.3810 N   0  0  0  0  0  0  0  0  0  0  0  0
  140.9370   77.3190  222.5040 C   0  0  0  0  0  0  0  0  0  0  0  0
  142.3924   82.4019  223.3709 H   0  0  0  0  0  0  0  0  0  0  0  0
  143.8223   80.5500  224.1861 H   0  0  0  0  0  0  0  0  0  0  0  0
  143.1518   78.2057  223.7933 H   0  0  0  0  0  0  0  0  0  0  0  0
  140.3078   81.8872  222.1611 H   0  0  0  0  0  0  0  0  0  0  0  0
  138.5983   80.3462  221.5627 H   0  0  0  0  0  0  0  0  0  0  0  0
  139.4482   79.2297  220.4847 H   0  0  0  0  0  0  0  0  0  0  0  0
  138.3326   78.6251  223.2844 H   0  0  0  0  0  0  0  0  0  0  0  0
  137.7262   77.9881  221.6987 H   0  0  0  0  0  0  0  0  0  0  0  0
  140.3060   72.0070  221.1610 H   0  0  0  0  0  0  0  0  0  0  0  0
  141.4691   71.0170  223.0289 H   0  0  0  0  0  0  0  0  0  0  0  0
  141.1786   72.5030  223.9649 H   0  0  0  0  0  0  0  0  0  0  0  0
  138.6858   71.7122  223.9856 H   0  0  0  0  0  0  0  0  0  0  0  0
  139.4228   70.0957  223.5373 H   0  0  0  0  0  0  0  0  0  0  0  0
  138.9544   71.1268  225.9945 H   0  0  0  0  0  0  0  0  0  0  0  0
  141.9384   71.1698  225.5806 H   0  0  0  0  0  0  0  0  0  0  0  0
  140.8764   72.5953  225.8375 H   0  0  0  0  0  0  0  0  0  0  0  0
  142.0429   70.8779  227.8051 H   0  0  0  0  0  0  0  0  0  0  0  0
  140.9222   72.2517  228.0609 H   0  0  0  0  0  0  0  0  0  0  0  0
  141.2497   68.8176  227.4480 H   0  0  0  0  0  0  0  0  0  0  0  0
  139.4802   68.4805  227.6771 H   0  0  0  0  0  0  0  0  0  0  0  0
  140.8595   68.8486  225.2075 H   0  0  0  0  0  0  0  0  0  0  0  0
  139.1190   68.6907  225.4297 H   0  0  0  0  0  0  0  0  0  0  0  0
  135.2845   74.8313  221.5482 H   0  0  0  0  0  0  0  0  0  0  0  0
  134.3329   72.5639  222.0766 H   0  0  0  0  0  0  0  0  0  0  0  0
  136.0078   72.1617  221.8029 H   0  0  0  0  0  0  0  0  0  0  0  0
  134.8920   71.5676  224.1876 H   0  0  0  0  0  0  0  0  0  0  0  0
  136.5071   72.2338  224.2303 H   0  0  0  0  0  0  0  0  0  0  0  0
  134.2436   73.1617  226.5044 H   0  0  0  0  0  0  0  0  0  0  0  0
  133.4495   75.4085  227.1050 H   0  0  0  0  0  0  0  0  0  0  0  0
  133.6787   77.2919  225.4322 H   0  0  0  0  0  0  0  0  0  0  0  0
  134.6977   76.7925  223.2509 H   0  0  0  0  0  0  0  0  0  0  0  0
  141.2787   76.7037  223.3494 H   0  0  0  0  0  0  0  0  0  0  0  0
  141.3952   76.9977  221.5570 H   0  0  0  0  0  0  0  0  0  0  0  0
  1  2  2  0
  2  3  1  0
  3  4  2  0
  4  5  1  0
  5  6  2  0
  5  7  1  0
  7  8  1  0
  8  9  1  0
  9 10  1  0
 10 11  2  0
 11 12  1  0
 12 13  1  0
 13 14  1  0
 14 15  1  0
 15 16  1  0
 16 17  1  0
 17 18  1  0
 18 19  1  0
 19 20  1  0
 20 21  1  0
 12 22  2  0
 22 23  1  0
 23 24  1  0
 24 25  1  0
 25 26  1  0
 26 27  1  0
 27 28  2  0
 28 29  1  0
 29 30  2  0
 30 31  1  0
 31 32  2  0
 23 33  2  0
  9 34  1  0
  6  1  1  0
 33 10  1  0
 34  4  1  0
 21 16  1  0
 32 24  1  0
 32 27  1  0
  1 35  1  0
  2 36  1  0
  3 37  1  0
  6 38  1  0
  7 39  1  0
  7 40  1  0
  8 41  1  0
  8 42  1  0
 13 43  1  0
 14 44  1  0
 14 45  1  0
 15 46  1  0
 15 47  1  0
 16 48  1  0
 17 49  1  0
 17 50  1  0
 18 51  1  0
 18 52  1  0
 20 53  1  0
 20 54  1  0
 21 55  1  0
 21 56  1  0
 24 57  1  6
 25 58  1  0
 25 59  1  0
 26 60  1  0
 26 61  1  0
 28 62  1  0
 29 63  1  0
 30 64  1  0
 31 65  1  0
 34 66  1  0
 34 67  1  0
M  END
>  <smiles>  (67) 
c1ccc2c(c1)CCN(c1nc(NCCC3CCOCC3)nc(C3CCc4ccccc43)n1)C2

>  <score_type>  (67) 
oracle

>  <origin>  (67) 
autodockgpu

>  <m_score__min__energy>  (67) 
-9.8699999999999992

>  <m_primary>  (67) 
energy

>  <rmsd>  (67) 
6.812254725595548

>  <m_score__min__rmsd>  (67) 
6.812254725595548

>  <meeko>  (67) 
{"free_energy": -9.16, "intermolecular_energy": -10.95, "internal_energy": -1.44, "cluster_size": 11, "cluster_id": 3, "rank_in_cluster": 7}

>  <energy>  (67) 
-9.4

>  <cluster_rmsd>  (67) 
0.71

>  <cluster>  (67) 
1

$$$$

     RDKit          3D

 67 72  0  0  0  0  0  0  0  0999 V2000
  139.0920   80.6230  223.8520 C   0  0  0  0  0  0  0  0  0  0  0  0
  140.4580   80.6530  223.7280 C   0  0  0  0  0  0  0  0  0  0  0  0
  141.1170   79.6140  223.1060 C   0  0  0  0  0  0  0  0  0  0  0  0
  140.4200   78.5260  222.5940 C   0  0  0  0  0  0  0  0  0  0  0  0
  139.0350   78.4870  222.7150 C   0  0  0  0  0  0  0  0  0  0  0  0
  138.3980   79.5480  223.3480 C   0  0  0  0  0  0  0  0  0  0  0  0
  138.2450   77.3300  222.1760 C   0  0  0  0  0  0  0  0  0  0  0  0
  139.0470   76.0860  222.5230 C   0  0  0  0  0  0  0  0  0  0  0  0
  140.4010   76.1660  222.0190 N   0  0  0  0  0  0  0  0  0  0  0  0
  141.0500   74.9770  221.5930 C   0  0  0  0  0  0  0  0  0  0  0  0
  140.5430   73.7700  221.9630 N   0  0  0  0  0  0  0  0  0  0  0  0
  141.1390   72.6350  221.5730 C   0  0  0  0  0  0  0  0  0  0  0  0
  140.6640   71.3410  221.9180 N   0  0  0  0  0  0  0  0  0  0  0  0
  139.9550   71.0950  223.1810 C   0  0  0  0  0  0  0  0  0  0  0  0
  140.6690   71.8770  224.2530 C   0  0  0  0  0  0  0  0  0  0  0  0
  140.5000   71.3240  225.6280 C   0  0  0  0  0  0  0  0  0  0  0  0
  141.4340   71.8960  226.6380 C   0  0  0  0  0  0  0  0  0  0  0  0
  141.0380   71.4200  228.0150 C   0  0  0  0  0  0  0  0  0  0  0  0
  139.9640   70.5510  227.8950 O   0  0  0  0  0  0  0  0  0  0  0  0
  140.2980   69.4330  227.1330 C   0  0  0  0  0  0  0  0  0  0  0  0
  140.5380   69.7890  225.6660 C   0  0  0  0  0  0  0  0  0  0  0  0
  142.2410   72.7200  220.8130 N   0  0  0  0  0  0  0  0  0  0  0  0
  142.7780   73.8880  220.4220 C   0  0  0  0  0  0  0  0  0  0  0  0
  143.9800   74.0210  219.5880 C   0  0  1  0  0  0  0  0  0  0  0  0
  145.1320   74.3800  220.5030 C   0  0  0  0  0  0  0  0  0  0  0  0
  145.5790   73.0200  220.9930 C   0  0  0  0  0  0  0  0  0  0  0  0
  145.4010   72.1710  219.7900 C   0  0  0  0  0  0  0  0  0  0  0  0
  145.9410   70.9850  219.3400 C   0  0  0  0  0  0  0  0  0  0  0  0
  145.5890   70.3910  218.1470 C   0  0  0  0  0  0  0  0  0  0  0  0
  144.6330   71.0130  217.3340 C   0  0  0  0  0  0  0  0  0  0  0  0
  144.0980   72.1850  217.7790 C   0  0  0  0  0  0  0  0  0  0  0  0
  144.4610   72.7730  218.9830 C   0  0  0  0  0  0  0  0  0  0  0  0
  142.1630   75.0150  220.8260 N   0  0  0  0  0  0  0  0  0  0  0  0
  141.1230   77.4140  221.9280 C   0  0  0  0  0  0  0  0  0  0  0  0
  138.5591   81.4477  224.3479 H   0  0  0  0  0  0  0  0  0  0  0  0
  141.0276   81.5063  224.1249 H   0  0  0  0  0  0  0  0  0  0  0  0
  142.2126   79.6466  223.0134 H   0  0  0  0  0  0  0  0  0  0  0  0
  137.3029   79.5271  223.4491 H   0  0  0  0  0  0  0  0  0  0  0  0
  137.2524   77.2903  222.6483 H   0  0  0  0  0  0  0  0  0  0  0  0
  138.0835   77.4191  221.0916 H   0  0  0  0  0  0  0  0  0  0  0  0
  139.0795   75.9761  223.6170 H   0  0  0  0  0  0  0  0  0  0  0  0
  138.5568   75.2196  222.0549 H   0  0  0  0  0  0  0  0  0  0  0  0
  140.8460   70.5810  221.2280 H   0  0  0  0  0  0  0  0  0  0  0  0
  138.9116   71.4335  223.0995 H   0  0  0  0  0  0  0  0  0  0  0  0
  139.9465   70.0216  223.4211 H   0  0  0  0  0  0  0  0  0  0  0  0
  141.7429   71.8876  224.0150 H   0  0  0  0  0  0  0  0  0  0  0  0
  140.2242   72.8830  224.2599 H   0  0  0  0  0  0  0  0  0  0  0  0
  139.4893   71.6473  225.9176 H   0  0  0  0  0  0  0  0  0  0  0  0
  142.4599   71.5665  226.4170 H   0  0  0  0  0  0  0  0  0  0  0  0
  141.3862   72.9944  226.6015 H   0  0  0  0  0  0  0  0  0  0  0  0
  141.8853   70.8982  228.4838 H   0  0  0  0  0  0  0  0  0  0  0  0
  140.7557   72.2793  228.6410 H   0  0  0  0  0  0  0  0  0  0  0  0
  141.2145   68.9844  227.5438 H   0  0  0  0  0  0  0  0  0  0  0  0
  139.4547   68.7281  227.1773 H   0  0  0  0  0  0  0  0  0  0  0  0
  141.5174   69.4165  225.3313 H   0  0  0  0  0  0  0  0  0  0  0  0
  139.7890   69.3368  224.9993 H   0  0  0  0  0  0  0  0  0  0  0  0
  143.7023   74.7442  218.8071 H   0  0  0  0  0  0  0  0  0  0  0  0
  145.9358   74.8906  219.9524 H   0  0  0  0  0  0  0  0  0  0  0  0
  144.8575   75.0746  221.3106 H   0  0  0  0  0  0  0  0  0  0  0  0
  146.6310   73.0391  221.3140 H   0  0  0  0  0  0  0  0  0  0  0  0
  145.0172   72.6630  221.8687 H   0  0  0  0  0  0  0  0  0  0  0  0
  146.6939   70.4854  219.9673 H   0  0  0  0  0  0  0  0  0  0  0  0
  146.0521   69.4423  217.8380 H   0  0  0  0  0  0  0  0  0  0  0  0
  144.3259   70.5728  216.3738 H   0  0  0  0  0  0  0  0  0  0  0  0
  143.3441   72.6879  217.1556 H   0  0  0  0  0  0  0  0  0  0  0  0
  142.1080   77.2864  222.4008 H   0  0  0  0  0  0  0  0  0  0  0  0
  141.2146   77.6688  220.8618 H   0  0  0  0  0  0  0  0  0  0  0  0
  1  2  2  0
  2  3  1  0
  3  4  2  0
  4  5  1  0
  5  6  2  0
  5  7  1  0
  7  8  1  0
  8  9  1  0
  9 10  1  0
 10 11  2  0
 11 12  1  0
 12 13  1  0
 13 14  1  0
 14 15  1  0
 15 16  1  0
 16 17  1  0
 17 18  1  0
 18 19  1  0
 19 20  1  0
 20 21  1  0
 12 22  2  0
 22 23  1  0
 23 24  1  0
 24 25  1  0
 25 26  1  0
 26 27  1  0
 27 28  2  0
 28 29  1  0
 29 30  2  0
 30 31  1  0
 31 32  2  0
 23 33  2  0
  9 34  1  0
  6  1  1  0
 33 10  1  0
 34  4  1  0
 21 16  1  0
 32 24  1  0
 32 27  1  0
  1 35  1  0
  2 36  1  0
  3 37  1  0
  6 38  1  0
  7 39  1  0
  7 40  1  0
  8 41  1  0
  8 42  1  0
 13 43  1  0
 14 44  1  0
 14 45  1  0
 15 46  1  0
 15 47  1  0
 16 48  1  0
 17 49  1  0
 17 50  1  0
 18 51  1  0
 18 52  1  0
 20 53  1  0
 20 54  1  0
 21 55  1  0
 21 56  1  0
 24 57  1  6
 25 58  1  0
 25 59  1  0
 26 60  1  0
 26 61  1  0
 28 62  1  0
 29 63  1  0
 30 64  1  0
 31 65  1  0
 34 66  1  0
 34 67  1  0
M  END
>  <smiles>  (68) 
c1ccc2c(c1)CCN(c1nc(NCCC3CCOCC3)nc(C3CCc4ccccc43)n1)C2

>  <score_type>  (68) 
oracle

>  <origin>  (68) 
autodockgpu

>  <m_score__min__energy>  (68) 
-9.8699999999999992

>  <m_primary>  (68) 
energy

>  <rmsd>  (68) 
8.944238309359102

>  <m_score__min__rmsd>  (68) 
8.944238309359102

>  <meeko>  (68) 
{"free_energy": -9.78, "intermolecular_energy": -11.57, "internal_energy": -1.26, "cluster_size": 11, "cluster_id": 2, "rank_in_cluster": 2}

>  <energy>  (68) 
-9.3

>  <cluster_rmsd>  (68) 
0.87

>  <cluster>  (68) 
1

$$$$

     RDKit          3D

 67 72  0  0  0  0  0  0  0  0999 V2000
  139.1190   80.8790  223.8590 C   0  0  0  0  0  0  0  0  0  0  0  0
  140.4870   80.8530  223.7680 C   0  0  0  0  0  0  0  0  0  0  0  0
  141.1190   79.7780  223.1810 C   0  0  0  0  0  0  0  0  0  0  0  0
  140.3920   78.7090  222.6720 C   0  0  0  0  0  0  0  0  0  0  0  0
  139.0040   78.7260  222.7600 C   0  0  0  0  0  0  0  0  0  0  0  0
  138.3950   79.8230  223.3580 C   0  0  0  0  0  0  0  0  0  0  0  0
  138.1810   77.5910  222.2220 C   0  0  0  0  0  0  0  0  0  0  0  0
  138.9250   76.3230  222.6110 C   0  0  0  0  0  0  0  0  0  0  0  0
  140.2930   76.3410  222.1390 N   0  0  0  0  0  0  0  0  0  0  0  0
  140.9040   75.1190  221.7500 C   0  0  0  0  0  0  0  0  0  0  0  0
  140.4090   73.9440  222.2240 N   0  0  0  0  0  0  0  0  0  0  0  0
  140.9690   72.7790  221.8710 C   0  0  0  0  0  0  0  0  0  0  0  0
  140.5040   71.5150  222.3230 N   0  0  0  0  0  0  0  0  0  0  0  0
  139.5330   71.4020  223.4200 C   0  0  0  0  0  0  0  0  0  0  0  0
  139.9650   70.2450  224.2820 C   0  0  0  0  0  0  0  0  0  0  0  0
  140.0810   70.5710  225.7330 C   0  0  0  0  0  0  0  0  0  0  0  0
  141.1580   71.5470  226.0580 C   0  0  0  0  0  0  0  0  0  0  0  0
  141.0470   71.9530  227.5080 C   0  0  0  0  0  0  0  0  0  0  0  0
  140.0120   71.2390  228.0930 O   0  0  0  0  0  0  0  0  0  0  0  0
  140.2510   69.8670  228.0470 C   0  0  0  0  0  0  0  0  0  0  0  0
  140.1980   69.3230  226.6200 C   0  0  0  0  0  0  0  0  0  0  0  0
  142.0240   72.8030  221.0430 N   0  0  0  0  0  0  0  0  0  0  0  0
  142.5490   73.9370  220.5500 C   0  0  0  0  0  0  0  0  0  0  0  0
  143.7000   74.0030  219.6400 C   0  0  1  0  0  0  0  0  0  0  0  0
  144.9160   74.3610  220.4680 C   0  0  0  0  0  0  0  0  0  0  0  0
  145.3550   73.0080  220.9840 C   0  0  0  0  0  0  0  0  0  0  0  0
  145.0790   72.1200  219.8290 C   0  0  0  0  0  0  0  0  0  0  0  0
  145.5580   70.9030  219.3940 C   0  0  0  0  0  0  0  0  0  0  0  0
  145.1170   70.2740  218.2480 C   0  0  0  0  0  0  0  0  0  0  0  0
  144.1300   70.8930  217.4710 C   0  0  0  0  0  0  0  0  0  0  0  0
  143.6560   72.0970  217.9010 C   0  0  0  0  0  0  0  0  0  0  0  0
  144.1080   72.7190  219.0560 C   0  0  0  0  0  0  0  0  0  0  0  0
  141.9700   75.0950  220.9180 N   0  0  0  0  0  0  0  0  0  0  0  0
  141.0660   77.5570  222.0430 C   0  0  0  0  0  0  0  0  0  0  0  0
  138.6077   81.7333  224.3266 H   0  0  0  0  0  0  0  0  0  0  0  0
  141.0803   81.6905  224.1637 H   0  0  0  0  0  0  0  0  0  0  0  0
  142.2169   79.7662  223.1144 H   0  0  0  0  0  0  0  0  0  0  0  0
  137.2978   79.8471  223.4329 H   0  0  0  0  0  0  0  0  0  0  0  0
  137.1766   77.5993  222.6704 H   0  0  0  0  0  0  0  0  0  0  0  0
  138.0486   77.6661  221.1326 H   0  0  0  0  0  0  0  0  0  0  0  0
  138.9269   76.2325  223.7073 H   0  0  0  0  0  0  0  0  0  0  0  0
  138.4125   75.4676  222.1467 H   0  0  0  0  0  0  0  0  0  0  0  0
  140.8860   70.6780  221.8340 H   0  0  0  0  0  0  0  0  0  0  0  0
  139.5235   72.3294  224.0115 H   0  0  0  0  0  0  0  0  0  0  0  0
  138.5186   71.2381  223.0273 H   0  0  0  0  0  0  0  0  0  0  0  0
  139.2279   69.4365  224.1683 H   0  0  0  0  0  0  0  0  0  0  0  0
  140.9708   69.9570  223.9422 H   0  0  0  0  0  0  0  0  0  0  0  0
  139.1277   71.0677  225.9667 H   0  0  0  0  0  0  0  0  0  0  0  0
  142.1394   71.0827  225.8811 H   0  0  0  0  0  0  0  0  0  0  0  0
  141.0530   72.4360  225.4187 H   0  0  0  0  0  0  0  0  0  0  0  0
  141.9904   71.7299  228.0279 H   0  0  0  0  0  0  0  0  0  0  0  0
  140.8449   73.0319  227.5801 H   0  0  0  0  0  0  0  0  0  0  0  0
  141.2478   69.6661  228.4666 H   0  0  0  0  0  0  0  0  0  0  0  0
  139.4646   69.3659  228.6305 H   0  0  0  0  0  0  0  0  0  0  0  0
  141.1150   68.7633  226.3836 H   0  0  0  0  0  0  0  0  0  0  0  0
  139.3607   68.6254  226.4706 H   0  0  0  0  0  0  0  0  0  0  0  0
  143.3944   74.7048  218.8500 H   0  0  0  0  0  0  0  0  0  0  0  0
  145.6979   74.8258  219.8495 H   0  0  0  0  0  0  0  0  0  0  0  0
  144.7113   75.0935  221.2627 H   0  0  0  0  0  0  0  0  0  0  0  0
  146.4250   73.0077  221.2390 H   0  0  0  0  0  0  0  0  0  0  0  0
  144.8395   72.7016  221.9061 H   0  0  0  0  0  0  0  0  0  0  0  0
  146.3347   70.4058  219.9936 H   0  0  0  0  0  0  0  0  0  0  0  0
  145.5343   69.3011  217.9492 H   0  0  0  0  0  0  0  0  0  0  0  0
  143.7518   70.4261  216.5496 H   0  0  0  0  0  0  0  0  0  0  0  0
  142.8794   72.5983  217.3047 H   0  0  0  0  0  0  0  0  0  0  0  0
  142.0337   77.3996  222.5418 H   0  0  0  0  0  0  0  0  0  0  0  0
  141.1928   77.7877  220.9750 H   0  0  0  0  0  0  0  0  0  0  0  0
  1  2  2  0
  2  3  1  0
  3  4  2  0
  4  5  1  0
  5  6  2  0
  5  7  1  0
  7  8  1  0
  8  9  1  0
  9 10  1  0
 10 11  2  0
 11 12  1  0
 12 13  1  0
 13 14  1  0
 14 15  1  0
 15 16  1  0
 16 17  1  0
 17 18  1  0
 18 19  1  0
 19 20  1  0
 20 21  1  0
 12 22  2  0
 22 23  1  0
 23 24  1  0
 24 25  1  0
 25 26  1  0
 26 27  1  0
 27 28  2  0
 28 29  1  0
 29 30  2  0
 30 31  1  0
 31 32  2  0
 23 33  2  0
  9 34  1  0
  6  1  1  0
 33 10  1  0
 34  4  1  0
 21 16  1  0
 32 24  1  0
 32 27  1  0
  1 35  1  0
  2 36  1  0
  3 37  1  0
  6 38  1  0
  7 39  1  0
  7 40  1  0
  8 41  1  0
  8 42  1  0
 13 43  1  0
 14 44  1  0
 14 45  1  0
 15 46  1  0
 15 47  1  0
 16 48  1  0
 17 49  1  0
 17 50  1  0
 18 51  1  0
 18 52  1  0
 20 53  1  0
 20 54  1  0
 21 55  1  0
 21 56  1  0
 24 57  1  6
 25 58  1  0
 25 59  1  0
 26 60  1  0
 26 61  1  0
 28 62  1  0
 29 63  1  0
 30 64  1  0
 31 65  1  0
 34 66  1  0
 34 67  1  0
M  END
>  <smiles>  (69) 
c1ccc2c(c1)CCN(c1nc(NCCC3CCOCC3)nc(C3CCc4ccccc43)n1)C2

>  <score_type>  (69) 
oracle

>  <origin>  (69) 
autodockgpu

>  <m_score__min__energy>  (69) 
-9.8699999999999992

>  <m_primary>  (69) 
energy

>  <rmsd>  (69) 
8.709779943426133

>  <m_score__min__rmsd>  (69) 
8.709779943426133

>  <meeko>  (69) 
{"free_energy": -9.82, "intermolecular_energy": -11.61, "internal_energy": -1.2, "cluster_size": 11, "cluster_id": 2, "rank_in_cluster": 1}

>  <energy>  (69) 
-9.23

>  <cluster_rmsd>  (69) 
0.58

>  <cluster>  (69) 
1

$$$$

     RDKit          3D

 67 72  0  0  0  0  0  0  0  0999 V2000
  142.2070   81.1870  222.3090 C   0  0  0  0  0  0  0  0  0  0  0  0
  142.3970   80.5310  223.4980 C   0  0  0  0  0  0  0  0  0  0  0  0
  142.0050   79.2160  223.6330 C   0  0  0  0  0  0  0  0  0  0  0  0
  141.4160   78.5320  222.5760 C   0  0  0  0  0  0  0  0  0  0  0  0
  141.2200   79.1880  221.3650 C   0  0  0  0  0  0  0  0  0  0  0  0
  141.6250   80.5140  221.2600 C   0  0  0  0  0  0  0  0  0  0  0  0
  140.5870   78.4850  220.1990 C   0  0  0  0  0  0  0  0  0  0  0  0
  139.4490   77.6630  220.7820 C   0  0  0  0  0  0  0  0  0  0  0  0
  139.9100   76.7780  221.8300 N   0  0  0  0  0  0  0  0  0  0  0  0
  139.2790   75.5170  221.9960 C   0  0  0  0  0  0  0  0  0  0  0  0
  140.0410   74.3930  222.0720 N   0  0  0  0  0  0  0  0  0  0  0  0
  139.4680   73.1920  222.2280 C   0  0  0  0  0  0  0  0  0  0  0  0
  140.2000   71.9780  222.3180 N   0  0  0  0  0  0  0  0  0  0  0  0
  140.7530   71.5090  223.5960 C   0  0  0  0  0  0  0  0  0  0  0  0
  139.5960   71.0340  224.4360 C   0  0  0  0  0  0  0  0  0  0  0  0
  139.9190   70.8640  225.8820 C   0  0  0  0  0  0  0  0  0  0  0  0
  140.9760   71.7850  226.3870 C   0  0  0  0  0  0  0  0  0  0  0  0
  141.0710   71.6660  227.8880 C   0  0  0  0  0  0  0  0  0  0  0  0
  140.1840   70.6890  228.3150 O   0  0  0  0  0  0  0  0  0  0  0  0
  140.4910   69.4470  227.7650 C   0  0  0  0  0  0  0  0  0  0  0  0
  140.2460   69.4110  226.2560 C   0  0  0  0  0  0  0  0  0  0  0  0
  138.1300   73.1290  222.3070 N   0  0  0  0  0  0  0  0  0  0  0  0
  137.3350   74.2100  222.2380 C   0  0  0  0  0  0  0  0  0  0  0  0
  135.8700   74.1810  222.3240 C   0  0  1  0  0  0  0  0  0  0  0  0
  135.4470   72.7280  222.4000 C   0  0  0  0  0  0  0  0  0  0  0  0
  135.5750   72.4410  223.8790 C   0  0  0  0  0  0  0  0  0  0  0  0
  135.1240   73.7130  224.4930 C   0  0  0  0  0  0  0  0  0  0  0  0
  134.5970   74.0780  225.7140 C   0  0  0  0  0  0  0  0  0  0  0  0
  134.2530   75.3730  226.0400 C   0  0  0  0  0  0  0  0  0  0  0  0
  134.4420   76.3860  225.0900 C   0  0  0  0  0  0  0  0  0  0  0  0
  134.9640   76.0250  223.8840 C   0  0  0  0  0  0  0  0  0  0  0  0
  135.3060   74.7180  223.5680 C   0  0  0  0  0  0  0  0  0  0  0  0
  137.9340   75.4060  222.0810 N   0  0  0  0  0  0  0  0  0  0  0  0
  140.9960   77.1250  222.7170 C   0  0  0  0  0  0  0  0  0  0  0  0
  142.5157   82.2367  222.1956 H   0  0  0  0  0  0  0  0  0  0  0  0
  142.8630   81.0548  224.3457 H   0  0  0  0  0  0  0  0  0  0  0  0
  142.1608   78.7002  224.5920 H   0  0  0  0  0  0  0  0  0  0  0  0
  141.4751   81.0421  220.3068 H   0  0  0  0  0  0  0  0  0  0  0  0
  140.1997   79.2165  219.4745 H   0  0  0  0  0  0  0  0  0  0  0  0
  141.3114   77.8532  219.6642 H   0  0  0  0  0  0  0  0  0  0  0  0
  138.6934   78.3453  221.1984 H   0  0  0  0  0  0  0  0  0  0  0  0
  139.0229   77.0473  219.9761 H   0  0  0  0  0  0  0  0  0  0  0  0
  140.3200   71.4410  221.4330 H   0  0  0  0  0  0  0  0  0  0  0  0
  141.4562   70.6814  223.4211 H   0  0  0  0  0  0  0  0  0  0  0  0
  141.2985   72.3174  224.1050 H   0  0  0  0  0  0  0  0  0  0  0  0
  138.7818   71.7685  224.3485 H   0  0  0  0  0  0  0  0  0  0  0  0
  139.3165   70.0403  224.0558 H   0  0  0  0  0  0  0  0  0  0  0  0
  138.9870   71.1468  226.3933 H   0  0  0  0  0  0  0  0  0  0  0  0
  141.9426   71.5164  225.9359 H   0  0  0  0  0  0  0  0  0  0  0  0
  140.7204   72.8201  226.1165 H   0  0  0  0  0  0  0  0  0  0  0  0
  142.0957   71.3852  228.1727 H   0  0  0  0  0  0  0  0  0  0  0  0
  140.8205   72.6293  228.3563 H   0  0  0  0  0  0  0  0  0  0  0  0
  141.5511   69.2257  227.9578 H   0  0  0  0  0  0  0  0  0  0  0  0
  139.8359   68.6975  228.2330 H   0  0  0  0  0  0  0  0  0  0  0  0
  141.1453   69.0662  225.7247 H   0  0  0  0  0  0  0  0  0  0  0  0
  139.4377   68.7174  225.9810 H   0  0  0  0  0  0  0  0  0  0  0  0
  135.5260   74.7704  221.4613 H   0  0  0  0  0  0  0  0  0  0  0  0
  134.4110   72.5946  222.0550 H   0  0  0  0  0  0  0  0  0  0  0  0
  136.0447   72.0580  221.7646 H   0  0  0  0  0  0  0  0  0  0  0  0
  134.9280   71.6035  224.1789 H   0  0  0  0  0  0  0  0  0  0  0  0
  136.5898   72.1436  224.1817 H   0  0  0  0  0  0  0  0  0  0  0  0
  134.4426   73.2932  226.4692 H   0  0  0  0  0  0  0  0  0  0  0  0
  133.8365   75.6074  227.0307 H   0  0  0  0  0  0  0  0  0  0  0  0
  134.1793   77.4314  225.3092 H   0  0  0  0  0  0  0  0  0  0  0  0
  135.1215   76.8062  223.1258 H   0  0  0  0  0  0  0  0  0  0  0  0
  140.6712   76.9565  223.7544 H   0  0  0  0  0  0  0  0  0  0  0  0
  141.8565   76.4924  222.4535 H   0  0  0  0  0  0  0  0  0  0  0  0
  1  2  2  0
  2  3  1  0
  3  4  2  0
  4  5  1  0
  5  6  2  0
  5  7  1  0
  7  8  1  0
  8  9  1  0
  9 10  1  0
 10 11  2  0
 11 12  1  0
 12 13  1  0
 13 14  1  0
 14 15  1  0
 15 16  1  0
 16 17  1  0
 17 18  1  0
 18 19  1  0
 19 20  1  0
 20 21  1  0
 12 22  2  0
 22 23  1  0
 23 24  1  0
 24 25  1  0
 25 26  1  0
 26 27  1  0
 27 28  2  0
 28 29  1  0
 29 30  2  0
 30 31  1  0
 31 32  2  0
 23 33  2  0
  9 34  1  0
  6  1  1  0
 33 10  1  0
 34  4  1  0
 21 16  1  0
 32 24  1  0
 32 27  1  0
  1 35  1  0
  2 36  1  0
  3 37  1  0
  6 38  1  0
  7 39  1  0
  7 40  1  0
  8 41  1  0
  8 42  1  0
 13 43  1  0
 14 44  1  0
 14 45  1  0
 15 46  1  0
 15 47  1  0
 16 48  1  0
 17 49  1  0
 17 50  1  0
 18 51  1  0
 18 52  1  0
 20 53  1  0
 20 54  1  0
 21 55  1  0
 21 56  1  0
 24 57  1  6
 25 58  1  0
 25 59  1  0
 26 60  1  0
 26 61  1  0
 28 62  1  0
 29 63  1  0
 30 64  1  0
 31 65  1  0
 34 66  1  0
 34 67  1  0
M  END
>  <smiles>  (70) 
c1ccc2c(c1)CCN(c1nc(NCCC3CCOCC3)nc(C3CCc4ccccc43)n1)C2

>  <score_type>  (70) 
oracle

>  <origin>  (70) 
autodockgpu

>  <m_score__min__energy>  (70) 
-9.8699999999999992

>  <m_primary>  (70) 
energy

>  <rmsd>  (70) 
6.680739481230717

>  <m_score__min__rmsd>  (70) 
6.680739481230717

>  <meeko>  (70) 
{"free_energy": -9.32, "intermolecular_energy": -11.11, "internal_energy": -1.4, "cluster_size": 11, "cluster_id": 3, "rank_in_cluster": 3}

>  <energy>  (70) 
-9.22

>  <cluster_rmsd>  (70) 
1.54

>  <cluster>  (70) 
1

$$$$

     RDKit          3D

 67 72  0  0  0  0  0  0  0  0999 V2000
  138.6560   80.9640  223.9750 C   0  0  0  0  0  0  0  0  0  0  0  0
  140.0180   80.8790  223.8420 C   0  0  0  0  0  0  0  0  0  0  0  0
  140.5860   79.7810  223.2310 C   0  0  0  0  0  0  0  0  0  0  0  0
  139.7980   78.7480  222.7390 C   0  0  0  0  0  0  0  0  0  0  0  0
  138.4150   78.8240  222.8690 C   0  0  0  0  0  0  0  0  0  0  0  0
  137.8720   79.9430  223.4910 C   0  0  0  0  0  0  0  0  0  0  0  0
  137.5290   77.7280  222.3510 C   0  0  0  0  0  0  0  0  0  0  0  0
  138.2290   76.4280  222.7100 C   0  0  0  0  0  0  0  0  0  0  0  0
  139.5810   76.3890  222.1970 N   0  0  0  0  0  0  0  0  0  0  0  0
  140.1270   75.1450  221.7840 C   0  0  0  0  0  0  0  0  0  0  0  0
  139.7430   74.0040  222.4160 N   0  0  0  0  0  0  0  0  0  0  0  0
  140.2440   72.8190  222.0440 C   0  0  0  0  0  0  0  0  0  0  0  0
  139.8870   71.5870  222.6560 N   0  0  0  0  0  0  0  0  0  0  0  0
  139.7490   71.4670  224.1140 C   0  0  0  0  0  0  0  0  0  0  0  0
  140.9830   70.7660  224.6210 C   0  0  0  0  0  0  0  0  0  0  0  0
  141.0220   70.5930  226.1030 C   0  0  0  0  0  0  0  0  0  0  0  0
  140.0080   69.6410  226.6360 C   0  0  0  0  0  0  0  0  0  0  0  0
  140.2740   69.3930  228.1010 C   0  0  0  0  0  0  0  0  0  0  0  0
  141.3440   70.1810  228.5000 O   0  0  0  0  0  0  0  0  0  0  0  0
  141.0660   71.5360  228.3370 C   0  0  0  0  0  0  0  0  0  0  0  0
  140.9620   71.9270  226.8630 C   0  0  0  0  0  0  0  0  0  0  0  0
  141.1300   72.7880  221.0370 N   0  0  0  0  0  0  0  0  0  0  0  0
  141.5400   73.8880  220.3820 C   0  0  0  0  0  0  0  0  0  0  0  0
  142.5040   73.8930  219.2740 C   0  0  1  0  0  0  0  0  0  0  0  0
  142.9600   75.3230  219.0730 C   0  0  0  0  0  0  0  0  0  0  0  0
  144.0740   75.4440  220.0900 C   0  0  0  0  0  0  0  0  0  0  0  0
  144.7110   74.1060  220.0270 C   0  0  0  0  0  0  0  0  0  0  0  0
  145.9580   73.6010  220.3270 C   0  0  0  0  0  0  0  0  0  0  0  0
  146.3000   72.2740  220.1730 C   0  0  0  0  0  0  0  0  0  0  0  0
  145.3410   71.3760  219.6860 C   0  0  0  0  0  0  0  0  0  0  0  0
  144.1080   71.8750  219.3900 C   0  0  0  0  0  0  0  0  0  0  0  0
  143.7750   73.2140  219.5490 C   0  0  0  0  0  0  0  0  0  0  0  0
  141.0220   75.0670  220.7730 N   0  0  0  0  0  0  0  0  0  0  0  0
  140.4020   77.5720  222.0840 C   0  0  0  0  0  0  0  0  0  0  0  0
  138.1967   81.8368  224.4621 H   0  0  0  0  0  0  0  0  0  0  0  0
  140.6586   81.6879  224.2232 H   0  0  0  0  0  0  0  0  0  0  0  0
  141.6799   79.7221  223.1316 H   0  0  0  0  0  0  0  0  0  0  0  0
  136.7796   80.0138  223.5994 H   0  0  0  0  0  0  0  0  0  0  0  0
  136.5400   77.7759  222.8301 H   0  0  0  0  0  0  0  0  0  0  0  0
  137.3673   77.8156  221.2665 H   0  0  0  0  0  0  0  0  0  0  0  0
  138.2603   76.3307  223.8052 H   0  0  0  0  0  0  0  0  0  0  0  0
  137.6661   75.5988  222.2565 H   0  0  0  0  0  0  0  0  0  0  0  0
  139.7270   70.7800  222.0160 H   0  0  0  0  0  0  0  0  0  0  0  0
  139.6689   72.4654  224.5686 H   0  0  0  0  0  0  0  0  0  0  0  0
  138.8426   70.9013  224.3757 H   0  0  0  0  0  0  0  0  0  0  0  0
  141.0299   69.7703  224.1559 H   0  0  0  0  0  0  0  0  0  0  0  0
  141.8402   71.4015  224.3539 H   0  0  0  0  0  0  0  0  0  0  0  0
  142.0061   70.1379  226.2883 H   0  0  0  0  0  0  0  0  0  0  0  0
  139.0023   70.0693  226.5130 H   0  0  0  0  0  0  0  0  0  0  0  0
  140.0710   68.6909  226.0853 H   0  0  0  0  0  0  0  0  0  0  0  0
  139.3819   69.6556  228.6885 H   0  0  0  0  0  0  0  0  0  0  0  0
  140.5103   68.3311  228.2638 H   0  0  0  0  0  0  0  0  0  0  0  0
  140.1112   71.7646  228.8331 H   0  0  0  0  0  0  0  0  0  0  0  0
  141.8933   72.1081  228.7823 H   0  0  0  0  0  0  0  0  0  0  0  0
  140.0119   72.4446  226.6646 H   0  0  0  0  0  0  0  0  0  0  0  0
  141.7617   72.6177  226.5572 H   0  0  0  0  0  0  0  0  0  0  0  0
  141.9784   73.4015  218.4420 H   0  0  0  0  0  0  0  0  0  0  0  0
  143.3330   75.4836  218.0507 H   0  0  0  0  0  0  0  0  0  0  0  0
  142.1592   76.0661  219.2019 H   0  0  0  0  0  0  0  0  0  0  0  0
  144.7840   76.2361  219.8099 H   0  0  0  0  0  0  0  0  0  0  0  0
  143.7223   75.7159  221.0962 H   0  0  0  0  0  0  0  0  0  0  0  0
  146.7216   74.2940  220.7100 H   0  0  0  0  0  0  0  0  0  0  0  0
  147.3114   71.9254  220.4289 H   0  0  0  0  0  0  0  0  0  0  0  0
  145.5743   70.3099  219.5480 H   0  0  0  0  0  0  0  0  0  0  0  0
  143.3410   71.1855  219.0075 H   0  0  0  0  0  0  0  0  0  0  0  0
  141.3767   77.3701  222.5522 H   0  0  0  0  0  0  0  0  0  0  0  0
  140.5055   77.8040  221.0137 H   0  0  0  0  0  0  0  0  0  0  0  0
  1  2  2  0
  2  3  1  0
  3  4  2  0
  4  5  1  0
  5  6  2  0
  5  7  1  0
  7  8  1  0
  8  9  1  0
  9 10  1  0
 10 11  2  0
 11 12  1  0
 12 13  1  0
 13 14  1  0
 14 15  1  0
 15 16  1  0
 16 17  1  0
 17 18  1  0
 18 19  1  0
 19 20  1  0
 20 21  1  0
 12 22  2  0
 22 23  1  0
 23 24  1  0
 24 25  1  0
 25 26  1  0
 26 27  1  0
 27 28  2  0
 28 29  1  0
 29 30  2  0
 30 31  1  0
 31 32  2  0
 23 33  2  0
  9 34  1  0
  6  1  1  0
 33 10  1  0
 34  4  1  0
 21 16  1  0
 32 24  1  0
 32 27  1  0
  1 35  1  0
  2 36  1  0
  3 37  1  0
  6 38  1  0
  7 39  1  0
  7 40  1  0
  8 41  1  0
  8 42  1  0
 13 43  1  0
 14 44  1  0
 14 45  1  0
 15 46  1  0
 15 47  1  0
 16 48  1  0
 17 49  1  0
 17 50  1  0
 18 51  1  0
 18 52  1  0
 20 53  1  0
 20 54  1  0
 21 55  1  0
 21 56  1  0
 24 57  1  6
 25 58  1  0
 25 59  1  0
 26 60  1  0
 26 61  1  0
 28 62  1  0
 29 63  1  0
 30 64  1  0
 31 65  1  0
 34 66  1  0
 34 67  1  0
M  END
>  <smiles>  (71) 
c1ccc2c(c1)CCN(c1nc(NCCC3CCOCC3)nc(C3CCc4ccccc43)n1)C2

>  <score_type>  (71) 
oracle

>  <origin>  (71) 
autodockgpu

>  <m_score__min__energy>  (71) 
-9.8699999999999992

>  <m_primary>  (71) 
energy

>  <rmsd>  (71) 
8.497778223839429

>  <m_score__min__rmsd>  (71) 
8.497778223839429

>  <meeko>  (71) 
{"free_energy": -9.68, "intermolecular_energy": -11.47, "internal_energy": -1.22, "cluster_size": 11, "cluster_id": 2, "rank_in_cluster": 5}

>  <energy>  (71) 
-9.13

>  <cluster_rmsd>  (71) 
0.72

>  <cluster>  (71) 
1

$$$$

     RDKit          3D

 67 72  0  0  0  0  0  0  0  0999 V2000
  139.9560   68.2480  227.2990 C   0  0  0  0  0  0  0  0  0  0  0  0
  140.8880   69.2080  227.5950 C   0  0  0  0  0  0  0  0  0  0  0  0
  141.0880   70.2660  226.7340 C   0  0  0  0  0  0  0  0  0  0  0  0
  140.3550   70.3830  225.5590 C   0  0  0  0  0  0  0  0  0  0  0  0
  139.4070   69.4140  225.2490 C   0  0  0  0  0  0  0  0  0  0  0  0
  139.2280   68.3580  226.1370 C   0  0  0  0  0  0  0  0  0  0  0  0
  138.5940   69.5030  223.9900 C   0  0  0  0  0  0  0  0  0  0  0  0
  139.5600   69.9560  222.9080 C   0  0  0  0  0  0  0  0  0  0  0  0
  140.2290   71.1870  223.2700 N   0  0  0  0  0  0  0  0  0  0  0  0
  140.5670   72.1150  222.2500 C   0  0  0  0  0  0  0  0  0  0  0  0
  140.1530   73.4070  222.3580 N   0  0  0  0  0  0  0  0  0  0  0  0
  140.4600   74.3000  221.4080 C   0  0  0  0  0  0  0  0  0  0  0  0
  140.0650   75.6640  221.4560 N   0  0  0  0  0  0  0  0  0  0  0  0
  141.0530   76.7510  221.4140 C   0  0  0  0  0  0  0  0  0  0  0  0
  140.9920   77.4600  222.7420 C   0  0  0  0  0  0  0  0  0  0  0  0
  141.2710   78.9240  222.6660 C   0  0  0  0  0  0  0  0  0  0  0  0
  141.7880   79.3820  221.3460 C   0  0  0  0  0  0  0  0  0  0  0  0
  141.8370   80.8910  221.3230 C   0  0  0  0  0  0  0  0  0  0  0  0
  141.4430   81.3700  222.5630 O   0  0  0  0  0  0  0  0  0  0  0  0
  142.2940   80.9270  223.5740 C   0  0  0  0  0  0  0  0  0  0  0  0
  142.1780   79.4200  223.8020 C   0  0  0  0  0  0  0  0  0  0  0  0
  141.1810   73.8900  220.3540 N   0  0  0  0  0  0  0  0  0  0  0  0
  141.6120   72.6260  220.2030 C   0  0  0  0  0  0  0  0  0  0  0  0
  142.4050   72.1410  219.0660 C   0  0  1  0  0  0  0  0  0  0  0  0
  143.7680   72.7960  219.1490 C   0  0  0  0  0  0  0  0  0  0  0  0
  144.5020   71.8760  220.0990 C   0  0  0  0  0  0  0  0  0  0  0  0
  143.9870   70.5400  219.7150 C   0  0  0  0  0  0  0  0  0  0  0  0
  144.4460   69.2450  219.8250 C   0  0  0  0  0  0  0  0  0  0  0  0
  143.7460   68.1470  219.3710 C   0  0  0  0  0  0  0  0  0  0  0  0
  142.5000   68.3390  218.7620 C   0  0  0  0  0  0  0  0  0  0  0  0
  142.0460   69.6190  218.6530 C   0  0  0  0  0  0  0  0  0  0  0  0
  142.7590   70.7170  219.1140 C   0  0  0  0  0  0  0  0  0  0  0  0
  141.2920   71.7460  221.1700 N   0  0  0  0  0  0  0  0  0  0  0  0
  140.5670   71.5140  224.6360 C   0  0  0  0  0  0  0  0  0  0  0  0
  139.7922   67.4009  227.9813 H   0  0  0  0  0  0  0  0  0  0  0  0
  141.4774   69.1344  228.5209 H   0  0  0  0  0  0  0  0  0  0  0  0
  141.8399   71.0299  226.9810 H   0  0  0  0  0  0  0  0  0  0  0  0
  138.4802   67.5862  225.9023 H   0  0  0  0  0  0  0  0  0  0  0  0
  138.1689   68.5203  223.7377 H   0  0  0  0  0  0  0  0  0  0  0  0
  137.7508   70.2009  224.0996 H   0  0  0  0  0  0  0  0  0  0  0  0
  140.3156   69.1717  222.7533 H   0  0  0  0  0  0  0  0  0  0  0  0
  138.9848   70.1357  221.9877 H   0  0  0  0  0  0  0  0  0  0  0  0
  139.0410   75.8490  221.5200 H   0  0  0  0  0  0  0  0  0  0  0  0
  142.0601   76.3389  221.2527 H   0  0  0  0  0  0  0  0  0  0  0  0
  140.8342   77.4460  220.5899 H   0  0  0  0  0  0  0  0  0  0  0  0
  139.9844   77.3219  223.1610 H   0  0  0  0  0  0  0  0  0  0  0  0
  141.7790   77.0201  223.3722 H   0  0  0  0  0  0  0  0  0  0  0  0
  140.2810   79.3866  222.7920 H   0  0  0  0  0  0  0  0  0  0  0  0
  142.7995   78.9795  221.1882 H   0  0  0  0  0  0  0  0  0  0  0  0
  141.1230   79.0237  220.5464 H   0  0  0  0  0  0  0  0  0  0  0  0
  142.8628   81.2243  221.1069 H   0  0  0  0  0  0  0  0  0  0  0  0
  141.1632   81.2749  220.5428 H   0  0  0  0  0  0  0  0  0  0  0  0
  143.3310   81.1650  223.2947 H   0  0  0  0  0  0  0  0  0  0  0  0
  142.0061   81.4345  224.5065 H   0  0  0  0  0  0  0  0  0  0  0  0
  143.1670   78.9417  223.7461 H   0  0  0  0  0  0  0  0  0  0  0  0
  141.7716   79.1788  224.7953 H   0  0  0  0  0  0  0  0  0  0  0  0
  141.7875   72.3538  218.1809 H   0  0  0  0  0  0  0  0  0  0  0  0
  144.2573   72.8266  218.1643 H   0  0  0  0  0  0  0  0  0  0  0  0
  143.7368   73.8439  219.4820 H   0  0  0  0  0  0  0  0  0  0  0  0
  145.5903   71.9396  219.9524 H   0  0  0  0  0  0  0  0  0  0  0  0
  144.3392   72.1203  221.1591 H   0  0  0  0  0  0  0  0  0  0  0  0
  145.4237   69.0783  220.3007 H   0  0  0  0  0  0  0  0  0  0  0  0
  144.1607   67.1346  219.4857 H   0  0  0  0  0  0  0  0  0  0  0  0
  141.9106   67.4896  218.3862 H   0  0  0  0  0  0  0  0  0  0  0  0
  141.0690   69.7902  218.1775 H   0  0  0  0  0  0  0  0  0  0  0  0
  141.6263   71.8078  224.6762 H   0  0  0  0  0  0  0  0  0  0  0  0
  139.9064   72.3334  224.9557 H   0  0  0  0  0  0  0  0  0  0  0  0
  1  2  2  0
  2  3  1  0
  3  4  2  0
  4  5  1  0
  5  6  2  0
  5  7  1  0
  7  8  1  0
  8  9  1  0
  9 10  1  0
 10 11  2  0
 11 12  1  0
 12 13  1  0
 13 14  1  0
 14 15  1  0
 15 16  1  0
 16 17  1  0
 17 18  1  0
 18 19  1  0
 19 20  1  0
 20 21  1  0
 12 22  2  0
 22 23  1  0
 23 24  1  0
 24 25  1  0
 25 26  1  0
 26 27  1  0
 27 28  2  0
 28 29  1  0
 29 30  2  0
 30 31  1  0
 31 32  2  0
 23 33  2  0
  9 34  1  0
  6  1  1  0
 33 10  1  0
 34  4  1  0
 21 16  1  0
 32 24  1  0
 32 27  1  0
  1 35  1  0
  2 36  1  0
  3 37  1  0
  6 38  1  0
  7 39  1  0
  7 40  1  0
  8 41  1  0
  8 42  1  0
 13 43  1  0
 14 44  1  0
 14 45  1  0
 15 46  1  0
 15 47  1  0
 16 48  1  0
 17 49  1  0
 17 50  1  0
 18 51  1  0
 18 52  1  0
 20 53  1  0
 20 54  1  0
 21 55  1  0
 21 56  1  0
 24 57  1  6
 25 58  1  0
 25 59  1  0
 26 60  1  0
 26 61  1  0
 28 62  1  0
 29 63  1  0
 30 64  1  0
 31 65  1  0
 34 66  1  0
 34 67  1  0
M  END
>  <smiles>  (72) 
c1ccc2c(c1)CCN(c1nc(NCCC3CCOCC3)nc(C3CCc4ccccc43)n1)C2

>  <score_type>  (72) 
oracle

>  <origin>  (72) 
autodockgpu

>  <m_score__min__energy>  (72) 
-9.8699999999999992

>  <m_primary>  (72) 
energy

>  <rmsd>  (72) 
7.638637960378712

>  <m_score__min__rmsd>  (72) 
7.638637960378712

>  <meeko>  (72) 
{"free_energy": -9.11, "intermolecular_energy": -10.9, "internal_energy": -1.24, "cluster_size": 26, "cluster_id": 1, "rank_in_cluster": 22}

>  <energy>  (72) 
-9.11

>  <cluster_rmsd>  (72) 
1.5

>  <cluster>  (72) 
1

$$$$

     RDKit          3D

 67 72  0  0  0  0  0  0  0  0999 V2000
  138.1700   81.5000  223.6600 C   0  0  0  0  0  0  0  0  0  0  0  0
  137.0740   80.7590  223.3010 C   0  0  0  0  0  0  0  0  0  0  0  0
  137.2100   79.4160  223.0220 C   0  0  0  0  0  0  0  0  0  0  0  0
  138.4480   78.7890  223.1000 C   0  0  0  0  0  0  0  0  0  0  0  0
  139.5660   79.5330  223.4650 C   0  0  0  0  0  0  0  0  0  0  0  0
  139.3970   80.8850  223.7390 C   0  0  0  0  0  0  0  0  0  0  0  0
  140.9210   78.8940  223.5610 C   0  0  0  0  0  0  0  0  0  0  0  0
  141.0200   77.9560  222.3690 C   0  0  0  0  0  0  0  0  0  0  0  0
  139.9210   77.0150  222.3360 N   0  0  0  0  0  0  0  0  0  0  0  0
  140.1480   75.7080  221.8300 C   0  0  0  0  0  0  0  0  0  0  0  0
  139.4270   74.6650  222.3250 N   0  0  0  0  0  0  0  0  0  0  0  0
  139.6230   73.4240  221.8630 C   0  0  0  0  0  0  0  0  0  0  0  0
  138.9060   72.2890  222.3300 N   0  0  0  0  0  0  0  0  0  0  0  0
  139.5890   71.1690  222.9910 C   0  0  0  0  0  0  0  0  0  0  0  0
  140.6430   71.7570  223.8920 C   0  0  0  0  0  0  0  0  0  0  0  0
  140.8350   71.0170  225.1730 C   0  0  0  0  0  0  0  0  0  0  0  0
  139.9420   69.8360  225.3390 C   0  0  0  0  0  0  0  0  0  0  0  0
  140.3630   69.0560  226.5610 C   0  0  0  0  0  0  0  0  0  0  0  0
  141.4120   69.7230  227.1760 O   0  0  0  0  0  0  0  0  0  0  0  0
  141.0320   70.9970  227.5900 C   0  0  0  0  0  0  0  0  0  0  0  0
  140.7610   71.9280  226.4080 C   0  0  0  0  0  0  0  0  0  0  0  0
  140.5430   73.2360  220.9050 N   0  0  0  0  0  0  0  0  0  0  0  0
  141.2790   74.2330  220.3850 C   0  0  0  0  0  0  0  0  0  0  0  0
  142.2920   74.0670  219.3340 C   0  0  1  0  0  0  0  0  0  0  0  0
  142.6540   75.4480  218.8290 C   0  0  0  0  0  0  0  0  0  0  0  0
  143.7080   75.8810  219.8250 C   0  0  0  0  0  0  0  0  0  0  0  0
  144.4400   74.6180  220.0870 C   0  0  0  0  0  0  0  0  0  0  0  0
  145.7040   74.2940  220.5310 C   0  0  0  0  0  0  0  0  0  0  0  0
  146.1460   72.9980  220.6920 C   0  0  0  0  0  0  0  0  0  0  0  0
  145.2770   71.9410  220.3920 C   0  0  0  0  0  0  0  0  0  0  0  0
  144.0280   72.2610  219.9530 C   0  0  0  0  0  0  0  0  0  0  0  0
  143.5940   73.5700  219.7950 C   0  0  0  0  0  0  0  0  0  0  0  0
  141.0640   75.4720  220.8640 N   0  0  0  0  0  0  0  0  0  0  0  0
  138.5970   77.3520  222.8030 C   0  0  0  0  0  0  0  0  0  0  0  0
  138.0690   82.5726  223.8820 H   0  0  0  0  0  0  0  0  0  0  0  0
  136.0852   81.2365  223.2355 H   0  0  0  0  0  0  0  0  0  0  0  0
  136.3244   78.8310  222.7330 H   0  0  0  0  0  0  0  0  0  0  0  0
  140.2739   81.4827  224.0286 H   0  0  0  0  0  0  0  0  0  0  0  0
  141.7099   79.6591  223.5133 H   0  0  0  0  0  0  0  0  0  0  0  0
  141.0493   78.3563  224.5120 H   0  0  0  0  0  0  0  0  0  0  0  0
  141.0071   78.5518  221.4444 H   0  0  0  0  0  0  0  0  0  0  0  0
  141.9568   77.3863  222.4577 H   0  0  0  0  0  0  0  0  0  0  0  0
  137.8740   72.2980  222.1800 H   0  0  0  0  0  0  0  0  0  0  0  0
  138.8690   70.5861  223.5842 H   0  0  0  0  0  0  0  0  0  0  0  0
  140.0424   70.4960  222.2483 H   0  0  0  0  0  0  0  0  0  0  0  0
  141.5993   71.7594  223.3484 H   0  0  0  0  0  0  0  0  0  0  0  0
  140.3020   72.7681  224.1592 H   0  0  0  0  0  0  0  0  0  0  0  0
  141.8603   70.6256  225.0983 H   0  0  0  0  0  0  0  0  0  0  0  0
  138.9030   70.1760  225.4608 H   0  0  0  0  0  0  0  0  0  0  0  0
  140.0149   69.1927  224.4497 H   0  0  0  0  0  0  0  0  0  0  0  0
  139.5162   68.9756  227.2584 H   0  0  0  0  0  0  0  0  0  0  0  0
  140.6827   68.0451  226.2680 H   0  0  0  0  0  0  0  0  0  0  0  0
  140.1166   70.9153  228.1945 H   0  0  0  0  0  0  0  0  0  0  0  0
  141.8596   71.4242  228.1753 H   0  0  0  0  0  0  0  0  0  0  0  0
  139.7642   72.3852  226.4942 H   0  0  0  0  0  0  0  0  0  0  0  0
  141.4802   72.7588  226.3576 H   0  0  0  0  0  0  0  0  0  0  0  0
  141.8435   73.3617  218.6189 H   0  0  0  0  0  0  0  0  0  0  0  0
  143.0619   75.4061  217.8083 H   0  0  0  0  0  0  0  0  0  0  0  0
  141.7973   76.1348  218.7631 H   0  0  0  0  0  0  0  0  0  0  0  0
  144.3730   76.6438  219.3937 H   0  0  0  0  0  0  0  0  0  0  0  0
  143.2908   76.3424  220.7322 H   0  0  0  0  0  0  0  0  0  0  0  0
  146.3976   75.1137  220.7698 H   0  0  0  0  0  0  0  0  0  0  0  0
  147.1662   72.7969  221.0508 H   0  0  0  0  0  0  0  0  0  0  0  0
  145.5912   70.8931  220.5065 H   0  0  0  0  0  0  0  0  0  0  0  0
  143.3311   71.4445  219.7126 H   0  0  0  0  0  0  0  0  0  0  0  0
  137.8687   77.0756  222.0263 H   0  0  0  0  0  0  0  0  0  0  0  0
  138.4232   76.7992  223.7380 H   0  0  0  0  0  0  0  0  0  0  0  0
  1  2  2  0
  2  3  1  0
  3  4  2  0
  4  5  1  0
  5  6  2  0
  5  7  1  0
  7  8  1  0
  8  9  1  0
  9 10  1  0
 10 11  2  0
 11 12  1  0
 12 13  1  0
 13 14  1  0
 14 15  1  0
 15 16  1  0
 16 17  1  0
 17 18  1  0
 18 19  1  0
 19 20  1  0
 20 21  1  0
 12 22  2  0
 22 23  1  0
 23 24  1  0
 24 25  1  0
 25 26  1  0
 26 27  1  0
 27 28  2  0
 28 29  1  0
 29 30  2  0
 30 31  1  0
 31 32  2  0
 23 33  2  0
  9 34  1  0
  6  1  1  0
 33 10  1  0
 34  4  1  0
 21 16  1  0
 32 24  1  0
 32 27  1  0
  1 35  1  0
  2 36  1  0
  3 37  1  0
  6 38  1  0
  7 39  1  0
  7 40  1  0
  8 41  1  0
  8 42  1  0
 13 43  1  0
 14 44  1  0
 14 45  1  0
 15 46  1  0
 15 47  1  0
 16 48  1  0
 17 49  1  0
 17 50  1  0
 18 51  1  0
 18 52  1  0
 20 53  1  0
 20 54  1  0
 21 55  1  0
 21 56  1  0
 24 57  1  6
 25 58  1  0
 25 59  1  0
 26 60  1  0
 26 61  1  0
 28 62  1  0
 29 63  1  0
 30 64  1  0
 31 65  1  0
 34 66  1  0
 34 67  1  0
M  END
>  <smiles>  (73) 
c1ccc2c(c1)CCN(c1nc(NCCC3CCOCC3)nc(C3CCc4ccccc43)n1)C2

>  <score_type>  (73) 
oracle

>  <origin>  (73) 
autodockgpu

>  <m_score__min__energy>  (73) 
-9.8699999999999992

>  <m_primary>  (73) 
energy

>  <rmsd>  (73) 
8.380563377970148

>  <m_score__min__rmsd>  (73) 
8.380563377970148

>  <meeko>  (73) 
{"free_energy": -9.02, "intermolecular_energy": -10.81, "internal_energy": -1.34, "cluster_size": 11, "cluster_id": 2, "rank_in_cluster": 11}

>  <energy>  (73) 
-9.05

>  <cluster_rmsd>  (73) 
0.74

>  <cluster>  (73) 
1

$$$$

     RDKit          3D

 67 72  0  0  0  0  0  0  0  0999 V2000
  140.2170   67.6710  226.1610 C   0  0  0  0  0  0  0  0  0  0  0  0
  141.0010   68.6390  226.7350 C   0  0  0  0  0  0  0  0  0  0  0  0
  141.0490   69.9030  226.1860 C   0  0  0  0  0  0  0  0  0  0  0  0
  140.3090   70.2220  225.0540 C   0  0  0  0  0  0  0  0  0  0  0  0
  139.5100   69.2470  224.4650 C   0  0  0  0  0  0  0  0  0  0  0  0
  139.4840   67.9810  225.0400 C   0  0  0  0  0  0  0  0  0  0  0  0
  138.6960   69.5510  223.2410 C   0  0  0  0  0  0  0  0  0  0  0  0
  139.5890   70.4020  222.3530 C   0  0  0  0  0  0  0  0  0  0  0  0
  140.0740   71.5740  223.0500 N   0  0  0  0  0  0  0  0  0  0  0  0
  140.2770   72.7760  222.3200 C   0  0  0  0  0  0  0  0  0  0  0  0
  139.6030   73.9000  222.6840 N   0  0  0  0  0  0  0  0  0  0  0  0
  139.7780   75.0450  222.0100 C   0  0  0  0  0  0  0  0  0  0  0  0
  139.1120   76.2570  222.3350 N   0  0  0  0  0  0  0  0  0  0  0  0
  139.4060   77.5080  221.6240 C   0  0  0  0  0  0  0  0  0  0  0  0
  139.2650   78.6310  222.6180 C   0  0  0  0  0  0  0  0  0  0  0  0
  140.5570   79.2640  223.0140 C   0  0  0  0  0  0  0  0  0  0  0  0
  140.5000   80.7470  223.1410 C   0  0  0  0  0  0  0  0  0  0  0  0
  141.7920   81.2500  223.7380 C   0  0  0  0  0  0  0  0  0  0  0  0
  142.6470   80.1740  223.9210 O   0  0  0  0  0  0  0  0  0  0  0  0
  142.9460   79.5500  222.7120 C   0  0  0  0  0  0  0  0  0  0  0  0
  141.7290   78.8440  222.1140 C   0  0  0  0  0  0  0  0  0  0  0  0
  140.6300   75.0520  220.9740 N   0  0  0  0  0  0  0  0  0  0  0  0
  141.3180   73.9680  220.5770 C   0  0  0  0  0  0  0  0  0  0  0  0
  142.2600   73.9390  219.4520 C   0  0  1  0  0  0  0  0  0  0  0  0
  142.5580   75.3730  219.0690 C   0  0  0  0  0  0  0  0  0  0  0  0
  143.6660   75.7330  220.0340 C   0  0  0  0  0  0  0  0  0  0  0  0
  144.4420   74.4720  220.1160 C   0  0  0  0  0  0  0  0  0  0  0  0
  145.7390   74.1400  220.4410 C   0  0  0  0  0  0  0  0  0  0  0  0
  146.2200   72.8480  220.4390 C   0  0  0  0  0  0  0  0  0  0  0  0
  145.3560   71.8020  220.0880 C   0  0  0  0  0  0  0  0  0  0  0  0
  144.0730   72.1290  219.7670 C   0  0  0  0  0  0  0  0  0  0  0  0
  143.6010   73.4350  219.7730 C   0  0  0  0  0  0  0  0  0  0  0  0
  141.1260   72.8290  221.2690 N   0  0  0  0  0  0  0  0  0  0  0  0
  140.3570   71.5740  224.4660 C   0  0  0  0  0  0  0  0  0  0  0  0
  140.1753   66.6598  226.5920 H   0  0  0  0  0  0  0  0  0  0  0  0
  141.5916   68.4070  227.6335 H   0  0  0  0  0  0  0  0  0  0  0  0
  141.6835   70.6714  226.6518 H   0  0  0  0  0  0  0  0  0  0  0  0
  138.8562   67.2020  224.5828 H   0  0  0  0  0  0  0  0  0  0  0  0
  138.4173   68.6203  222.7250 H   0  0  0  0  0  0  0  0  0  0  0  0
  137.7612   70.0723  223.4947 H   0  0  0  0  0  0  0  0  0  0  0  0
  140.4494   69.7981  222.0289 H   0  0  0  0  0  0  0  0  0  0  0  0
  138.9957   70.7369  221.4894 H   0  0  0  0  0  0  0  0  0  0  0  0
  138.4060   76.2080  223.1010 H   0  0  0  0  0  0  0  0  0  0  0  0
  140.4315   77.4833  221.2267 H   0  0  0  0  0  0  0  0  0  0  0  0
  138.7164   77.6471  220.7784 H   0  0  0  0  0  0  0  0  0  0  0  0
  138.6231   79.4061  222.1739 H   0  0  0  0  0  0  0  0  0  0  0  0
  138.8352   78.1927  223.5308 H   0  0  0  0  0  0  0  0  0  0  0  0
  140.7432   78.8709  224.0243 H   0  0  0  0  0  0  0  0  0  0  0  0
  140.3564   81.1951  222.1467 H   0  0  0  0  0  0  0  0  0  0  0  0
  139.6603   81.0275  223.7938 H   0  0  0  0  0  0  0  0  0  0  0  0
  142.2552   81.9789  223.0567 H   0  0  0  0  0  0  0  0  0  0  0  0
  141.5931   81.7384  224.7034 H   0  0  0  0  0  0  0  0  0  0  0  0
  143.3017   80.3088  221.9995 H   0  0  0  0  0  0  0  0  0  0  0  0
  143.7182   78.7906  222.9042 H   0  0  0  0  0  0  0  0  0  0  0  0
  141.5599   79.1721  221.0778 H   0  0  0  0  0  0  0  0  0  0  0  0
  141.8564   77.7520  222.0770 H   0  0  0  0  0  0  0  0  0  0  0  0
  141.7784   73.2977  218.6991 H   0  0  0  0  0  0  0  0  0  0  0  0
  142.8978   75.4455  218.0253 H   0  0  0  0  0  0  0  0  0  0  0  0
  141.6843   76.0386  219.1289 H   0  0  0  0  0  0  0  0  0  0  0  0
  144.2832   76.5549  219.6420 H   0  0  0  0  0  0  0  0  0  0  0  0
  143.3005   76.0873  221.0091 H   0  0  0  0  0  0  0  0  0  0  0  0
  146.4291   74.9508  220.7174 H   0  0  0  0  0  0  0  0  0  0  0  0
  147.2662   72.6413  220.7088 H   0  0  0  0  0  0  0  0  0  0  0  0
  145.7004   70.7574  220.0723 H   0  0  0  0  0  0  0  0  0  0  0  0
  143.3791   71.3215  219.4904 H   0  0  0  0  0  0  0  0  0  0  0  0
  141.3622   71.9916  224.6244 H   0  0  0  0  0  0  0  0  0  0  0  0
  139.5835   72.1800  224.9604 H   0  0  0  0  0  0  0  0  0  0  0  0
  1  2  2  0
  2  3  1  0
  3  4  2  0
  4  5  1  0
  5  6  2  0
  5  7  1  0
  7  8  1  0
  8  9  1  0
  9 10  1  0
 10 11  2  0
 11 12  1  0
 12 13  1  0
 13 14  1  0
 14 15  1  0
 15 16  1  0
 16 17  1  0
 17 18  1  0
 18 19  1  0
 19 20  1  0
 20 21  1  0
 12 22  2  0
 22 23  1  0
 23 24  1  0
 24 25  1  0
 25 26  1  0
 26 27  1  0
 27 28  2  0
 28 29  1  0
 29 30  2  0
 30 31  1  0
 31 32  2  0
 23 33  2  0
  9 34  1  0
  6  1  1  0
 33 10  1  0
 34  4  1  0
 21 16  1  0
 32 24  1  0
 32 27  1  0
  1 35  1  0
  2 36  1  0
  3 37  1  0
  6 38  1  0
  7 39  1  0
  7 40  1  0
  8 41  1  0
  8 42  1  0
 13 43  1  0
 14 44  1  0
 14 45  1  0
 15 46  1  0
 15 47  1  0
 16 48  1  0
 17 49  1  0
 17 50  1  0
 18 51  1  0
 18 52  1  0
 20 53  1  0
 20 54  1  0
 21 55  1  0
 21 56  1  0
 24 57  1  6
 25 58  1  0
 25 59  1  0
 26 60  1  0
 26 61  1  0
 28 62  1  0
 29 63  1  0
 30 64  1  0
 31 65  1  0
 34 66  1  0
 34 67  1  0
M  END
>  <smiles>  (74) 
c1ccc2c(c1)CCN(c1nc(NCCC3CCOCC3)nc(C3CCc4ccccc43)n1)C2

>  <score_type>  (74) 
oracle

>  <origin>  (74) 
autodockgpu

>  <m_score__min__energy>  (74) 
-9.8699999999999992

>  <m_primary>  (74) 
energy

>  <rmsd>  (74) 
8.403255655485864

>  <m_score__min__rmsd>  (74) 
8.403255655485864

>  <meeko>  (74) 
{"free_energy": -9.78, "intermolecular_energy": -11.57, "internal_energy": -1.43, "cluster_size": 26, "cluster_id": 1, "rank_in_cluster": 5}

>  <energy>  (74) 
-8.94

>  <cluster_rmsd>  (74) 
1.01

>  <cluster>  (74) 
1

$$$$

     RDKit          3D

 67 72  0  0  0  0  0  0  0  0999 V2000
  140.1420   68.0340  226.1060 C   0  0  0  0  0  0  0  0  0  0  0  0
  140.8110   69.0560  226.7290 C   0  0  0  0  0  0  0  0  0  0  0  0
  140.8780   70.3000  226.1360 C   0  0  0  0  0  0  0  0  0  0  0  0
  140.2730   70.5430  224.9090 C   0  0  0  0  0  0  0  0  0  0  0  0
  139.5920   69.5120  224.2690 C   0  0  0  0  0  0  0  0  0  0  0  0
  139.5420   68.2700  224.8900 C   0  0  0  0  0  0  0  0  0  0  0  0
  138.9260   69.7330  222.9420 C   0  0  0  0  0  0  0  0  0  0  0  0
  139.8890   70.5880  222.1350 C   0  0  0  0  0  0  0  0  0  0  0  0
  140.2380   71.8060  222.8340 N   0  0  0  0  0  0  0  0  0  0  0  0
  140.4840   72.9860  222.0840 C   0  0  0  0  0  0  0  0  0  0  0  0
  139.8090   74.1270  222.3920 N   0  0  0  0  0  0  0  0  0  0  0  0
  140.0250   75.2520  221.6970 C   0  0  0  0  0  0  0  0  0  0  0  0
  139.3600   76.4790  221.9640 N   0  0  0  0  0  0  0  0  0  0  0  0
  139.9950   77.7730  221.6810 C   0  0  0  0  0  0  0  0  0  0  0  0
  139.8660   78.6150  222.9240 C   0  0  0  0  0  0  0  0  0  0  0  0
  141.0680   79.4450  223.2290 C   0  0  0  0  0  0  0  0  0  0  0  0
  140.7810   80.8950  223.4090 C   0  0  0  0  0  0  0  0  0  0  0  0
  142.0220   81.5940  223.9100 C   0  0  0  0  0  0  0  0  0  0  0  0
  143.0540   80.6710  223.9850 O   0  0  0  0  0  0  0  0  0  0  0  0
  143.3420   80.1270  222.7350 C   0  0  0  0  0  0  0  0  0  0  0  0
  142.2070   79.2420  222.2190 C   0  0  0  0  0  0  0  0  0  0  0  0
  140.9180   75.2250  220.6970 N   0  0  0  0  0  0  0  0  0  0  0  0
  141.6090   74.1230  220.3560 C   0  0  0  0  0  0  0  0  0  0  0  0
  142.5970   74.0560  219.2710 C   0  0  1  0  0  0  0  0  0  0  0  0
  143.6050   75.1610  219.5040 C   0  0  0  0  0  0  0  0  0  0  0  0
  144.5700   74.5090  220.4700 C   0  0  0  0  0  0  0  0  0  0  0  0
  144.6190   73.1100  219.9780 C   0  0  0  0  0  0  0  0  0  0  0  0
  145.5230   72.0730  220.0660 C   0  0  0  0  0  0  0  0  0  0  0  0
  145.3170   70.8320  219.5020 C   0  0  0  0  0  0  0  0  0  0  0  0
  144.1310   70.5950  218.7960 C   0  0  0  0  0  0  0  0  0  0  0  0
  143.2370   71.6200  218.7080 C   0  0  0  0  0  0  0  0  0  0  0  0
  143.4550   72.8660  219.2820 C   0  0  0  0  0  0  0  0  0  0  0  0
  141.3760   73.0050  221.0680 N   0  0  0  0  0  0  0  0  0  0  0  0
  140.3430   71.8720  224.2730 C   0  0  0  0  0  0  0  0  0  0  0  0
  140.0856   67.0391  226.5717 H   0  0  0  0  0  0  0  0  0  0  0  0
  141.2945   68.8840  227.7020 H   0  0  0  0  0  0  0  0  0  0  0  0
  141.4192   71.1126  226.6428 H   0  0  0  0  0  0  0  0  0  0  0  0
  139.0052   67.4483  224.3934 H   0  0  0  0  0  0  0  0  0  0  0  0
  138.7504   68.7720  222.4364 H   0  0  0  0  0  0  0  0  0  0  0  0
  137.9471   70.2218  223.0558 H   0  0  0  0  0  0  0  0  0  0  0  0
  140.8058   70.0104  221.9458 H   0  0  0  0  0  0  0  0  0  0  0  0
  139.3949   70.8636  221.1916 H   0  0  0  0  0  0  0  0  0  0  0  0
  138.4010   76.4090  222.3680 H   0  0  0  0  0  0  0  0  0  0  0  0
  141.0568   77.6256  221.4343 H   0  0  0  0  0  0  0  0  0  0  0  0
  139.5118   78.2656  220.8243 H   0  0  0  0  0  0  0  0  0  0  0  0
  139.0054   79.2882  222.7967 H   0  0  0  0  0  0  0  0  0  0  0  0
  139.7416   77.9181  223.7659 H   0  0  0  0  0  0  0  0  0  0  0  0
  141.4062   79.0689  224.2058 H   0  0  0  0  0  0  0  0  0  0  0  0
  140.4777   81.3313  222.4458 H   0  0  0  0  0  0  0  0  0  0  0  0
  139.9685   81.0205  224.1398 H   0  0  0  0  0  0  0  0  0  0  0  0
  142.2976   82.4014  223.2156 H   0  0  0  0  0  0  0  0  0  0  0  0
  141.8329   82.0255  224.9040 H   0  0  0  0  0  0  0  0  0  0  0  0
  143.5057   80.9470  222.0202 H   0  0  0  0  0  0  0  0  0  0  0  0
  144.2410   79.5012  222.8363 H   0  0  0  0  0  0  0  0  0  0  0  0
  141.8947   79.5582  221.2128 H   0  0  0  0  0  0  0  0  0  0  0  0
  142.5062   78.1869  222.1341 H   0  0  0  0  0  0  0  0  0  0  0  0
  142.0028   74.0925  218.3460 H   0  0  0  0  0  0  0  0  0  0  0  0
  144.1081   75.4467  218.5684 H   0  0  0  0  0  0  0  0  0  0  0  0
  143.1609   76.0934  219.8827 H   0  0  0  0  0  0  0  0  0  0  0  0
  145.5617   74.9825  220.4219 H   0  0  0  0  0  0  0  0  0  0  0  0
  144.2618   74.5936  221.5226 H   0  0  0  0  0  0  0  0  0  0  0  0
  146.4598   72.2451  220.6162 H   0  0  0  0  0  0  0  0  0  0  0  0
  146.0730   70.0397  219.6050 H   0  0  0  0  0  0  0  0  0  0  0  0
  143.9287   69.6191  218.3304 H   0  0  0  0  0  0  0  0  0  0  0  0
  142.2997   71.4529  218.1571 H   0  0  0  0  0  0  0  0  0  0  0  0
  141.3046   72.3376  224.5350 H   0  0  0  0  0  0  0  0  0  0  0  0
  139.4918   72.4629  224.6421 H   0  0  0  0  0  0  0  0  0  0  0  0
  1  2  2  0
  2  3  1  0
  3  4  2  0
  4  5  1  0
  5  6  2  0
  5  7  1  0
  7  8  1  0
  8  9  1  0
  9 10  1  0
 10 11  2  0
 11 12  1  0
 12 13  1  0
 13 14  1  0
 14 15  1  0
 15 16  1  0
 16 17  1  0
 17 18  1  0
 18 19  1  0
 19 20  1  0
 20 21  1  0
 12 22  2  0
 22 23  1  0
 23 24  1  0
 24 25  1  0
 25 26  1  0
 26 27  1  0
 27 28  2  0
 28 29  1  0
 29 30  2  0
 30 31  1  0
 31 32  2  0
 23 33  2  0
  9 34  1  0
  6  1  1  0
 33 10  1  0
 34  4  1  0
 21 16  1  0
 32 24  1  0
 32 27  1  0
  1 35  1  0
  2 36  1  0
  3 37  1  0
  6 38  1  0
  7 39  1  0
  7 40  1  0
  8 41  1  0
  8 42  1  0
 13 43  1  0
 14 44  1  0
 14 45  1  0
 15 46  1  0
 15 47  1  0
 16 48  1  0
 17 49  1  0
 17 50  1  0
 18 51  1  0
 18 52  1  0
 20 53  1  0
 20 54  1  0
 21 55  1  0
 21 56  1  0
 24 57  1  6
 25 58  1  0
 25 59  1  0
 26 60  1  0
 26 61  1  0
 28 62  1  0
 29 63  1  0
 30 64  1  0
 31 65  1  0
 34 66  1  0
 34 67  1  0
M  END
>  <smiles>  (75) 
c1ccc2c(c1)CCN(c1nc(NCCC3CCOCC3)nc(C3CCc4ccccc43)n1)C2

>  <score_type>  (75) 
oracle

>  <origin>  (75) 
autodockgpu

>  <m_score__min__energy>  (75) 
-9.8699999999999992

>  <m_primary>  (75) 
energy

>  <rmsd>  (75) 
8.363973820840974

>  <m_score__min__rmsd>  (75) 
8.363973820840974

>  <meeko>  (75) 
{"free_energy": -9.3, "intermolecular_energy": -11.09, "internal_energy": -1.35, "cluster_size": 26, "cluster_id": 1, "rank_in_cluster": 18}

>  <energy>  (75) 
-8.86

>  <cluster_rmsd>  (75) 
1.41

>  <cluster>  (75) 
1

$$$$

     RDKit          3D

 67 72  0  0  0  0  0  0  0  0999 V2000
  140.3680   68.0980  226.3060 C   0  0  0  0  0  0  0  0  0  0  0  0
  141.1620   69.1140  226.7730 C   0  0  0  0  0  0  0  0  0  0  0  0
  141.1620   70.3380  226.1390 C   0  0  0  0  0  0  0  0  0  0  0  0
  140.3640   70.5680  225.0240 C   0  0  0  0  0  0  0  0  0  0  0  0
  139.5550   69.5440  224.5430 C   0  0  0  0  0  0  0  0  0  0  0  0
  139.5770   68.3210  225.2030 C   0  0  0  0  0  0  0  0  0  0  0  0
  138.6790   69.7520  223.3420 C   0  0  0  0  0  0  0  0  0  0  0  0
  139.5140   70.5520  222.3560 C   0  0  0  0  0  0  0  0  0  0  0  0
  140.0110   71.7760  222.9460 N   0  0  0  0  0  0  0  0  0  0  0  0
  140.1590   72.9270  222.1270 C   0  0  0  0  0  0  0  0  0  0  0  0
  139.3660   74.0110  222.3500 N   0  0  0  0  0  0  0  0  0  0  0  0
  139.4870   75.1070  221.5900 C   0  0  0  0  0  0  0  0  0  0  0  0
  138.6980   76.2760  221.7660 N   0  0  0  0  0  0  0  0  0  0  0  0
  139.3140   77.5970  221.9490 C   0  0  0  0  0  0  0  0  0  0  0  0
  140.7230   77.3700  222.4290 C   0  0  0  0  0  0  0  0  0  0  0  0
  141.5540   78.6070  222.4970 C   0  0  0  0  0  0  0  0  0  0  0  0
  141.5490   79.2770  223.8280 C   0  0  0  0  0  0  0  0  0  0  0  0
  142.5720   80.3870  223.8350 C   0  0  0  0  0  0  0  0  0  0  0  0
  143.1500   80.4690  222.5770 O   0  0  0  0  0  0  0  0  0  0  0  0
  142.2020   80.7650  221.6000 C   0  0  0  0  0  0  0  0  0  0  0  0
  141.2210   79.6140  221.3850 C   0  0  0  0  0  0  0  0  0  0  0  0
  140.4050   75.1090  220.6110 N   0  0  0  0  0  0  0  0  0  0  0  0
  141.2100   74.0630  220.3540 C   0  0  0  0  0  0  0  0  0  0  0  0
  142.2260   74.0290  219.2950 C   0  0  1  0  0  0  0  0  0  0  0  0
  142.5520   75.4620  218.9290 C   0  0  0  0  0  0  0  0  0  0  0  0
  143.5930   75.8220  219.9650 C   0  0  0  0  0  0  0  0  0  0  0  0
  144.3590   74.5590  220.1030 C   0  0  0  0  0  0  0  0  0  0  0  0
  145.6310   74.2260  220.5160 C   0  0  0  0  0  0  0  0  0  0  0  0
  146.1080   72.9330  220.5500 C   0  0  0  0  0  0  0  0  0  0  0  0
  145.2670   71.8880  220.1450 C   0  0  0  0  0  0  0  0  0  0  0  0
  144.0100   72.2170  219.7370 C   0  0  0  0  0  0  0  0  0  0  0  0
  143.5410   73.5230  219.7070 C   0  0  0  0  0  0  0  0  0  0  0  0
  141.0700   72.9730  221.1300 N   0  0  0  0  0  0  0  0  0  0  0  0
  140.3620   71.8770  224.3440 C   0  0  0  0  0  0  0  0  0  0  0  0
  140.3638   67.1185  226.8065 H   0  0  0  0  0  0  0  0  0  0  0  0
  141.7996   68.9520  227.6546 H   0  0  0  0  0  0  0  0  0  0  0  0
  141.8036   71.1456  226.5213 H   0  0  0  0  0  0  0  0  0  0  0  0
  138.9408   67.5044  224.8310 H   0  0  0  0  0  0  0  0  0  0  0  0
  138.3920   68.7843  222.9046 H   0  0  0  0  0  0  0  0  0  0  0  0
  137.7486   70.2767  223.6047 H   0  0  0  0  0  0  0  0  0  0  0  0
  140.3685   69.9393  222.0329 H   0  0  0  0  0  0  0  0  0  0  0  0
  138.8745   70.8180  221.5014 H   0  0  0  0  0  0  0  0  0  0  0  0
  137.6640   76.1430  221.7560 H   0  0  0  0  0  0  0  0  0  0  0  0
  139.3247   78.1431  220.9942 H   0  0  0  0  0  0  0  0  0  0  0  0
  138.7457   78.1948  222.6767 H   0  0  0  0  0  0  0  0  0  0  0  0
  140.6774   76.9296  223.4360 H   0  0  0  0  0  0  0  0  0  0  0  0
  141.2036   76.7071  221.6945 H   0  0  0  0  0  0  0  0  0  0  0  0
  142.5792   78.2433  222.3334 H   0  0  0  0  0  0  0  0  0  0  0  0
  140.5511   79.6964  224.0239 H   0  0  0  0  0  0  0  0  0  0  0  0
  141.7976   78.5436  224.6092 H   0  0  0  0  0  0  0  0  0  0  0  0
  142.0813   81.3407  224.0795 H   0  0  0  0  0  0  0  0  0  0  0  0
  143.3452   80.1784  224.5891 H   0  0  0  0  0  0  0  0  0  0  0  0
  141.6392   81.6576  221.9106 H   0  0  0  0  0  0  0  0  0  0  0  0
  142.7339   80.9386  220.6529 H   0  0  0  0  0  0  0  0  0  0  0  0
  140.1830   79.9661  221.4782 H   0  0  0  0  0  0  0  0  0  0  0  0
  141.3105   79.1719  220.3817 H   0  0  0  0  0  0  0  0  0  0  0  0
  141.7951   73.3865  218.5129 H   0  0  0  0  0  0  0  0  0  0  0  0
  142.9613   75.5311  217.9103 H   0  0  0  0  0  0  0  0  0  0  0  0
  141.6777   76.1295  218.9283 H   0  0  0  0  0  0  0  0  0  0  0  0
  144.2373   76.6412  219.6131 H   0  0  0  0  0  0  0  0  0  0  0  0
  143.1634   76.1800  220.9122 H   0  0  0  0  0  0  0  0  0  0  0  0
  146.3025   75.0364  220.8361 H   0  0  0  0  0  0  0  0  0  0  0  0
  147.1333   72.7248  220.8899 H   0  0  0  0  0  0  0  0  0  0  0  0
  145.6088   70.8425  220.1562 H   0  0  0  0  0  0  0  0  0  0  0  0
  143.3348   71.4100  219.4162 H   0  0  0  0  0  0  0  0  0  0  0  0
  141.3669   72.3172  224.4241 H   0  0  0  0  0  0  0  0  0  0  0  0
  139.6036   72.5057  224.8335 H   0  0  0  0  0  0  0  0  0  0  0  0
  1  2  2  0
  2  3  1  0
  3  4  2  0
  4  5  1  0
  5  6  2  0
  5  7  1  0
  7  8  1  0
  8  9  1  0
  9 10  1  0
 10 11  2  0
 11 12  1  0
 12 13  1  0
 13 14  1  0
 14 15  1  0
 15 16  1  0
 16 17  1  0
 17 18  1  0
 18 19  1  0
 19 20  1  0
 20 21  1  0
 12 22  2  0
 22 23  1  0
 23 24  1  0
 24 25  1  0
 25 26  1  0
 26 27  1  0
 27 28  2  0
 28 29  1  0
 29 30  2  0
 30 31  1  0
 31 32  2  0
 23 33  2  0
  9 34  1  0
  6  1  1  0
 33 10  1  0
 34  4  1  0
 21 16  1  0
 32 24  1  0
 32 27  1  0
  1 35  1  0
  2 36  1  0
  3 37  1  0
  6 38  1  0
  7 39  1  0
  7 40  1  0
  8 41  1  0
  8 42  1  0
 13 43  1  0
 14 44  1  0
 14 45  1  0
 15 46  1  0
 15 47  1  0
 16 48  1  0
 17 49  1  0
 17 50  1  0
 18 51  1  0
 18 52  1  0
 20 53  1  0
 20 54  1  0
 21 55  1  0
 21 56  1  0
 24 57  1  6
 25 58  1  0
 25 59  1  0
 26 60  1  0
 26 61  1  0
 28 62  1  0
 29 63  1  0
 30 64  1  0
 31 65  1  0
 34 66  1  0
 34 67  1  0
M  END
>  <smiles>  (76) 
c1ccc2c(c1)CCN(c1nc(NCCC3CCOCC3)nc(C3CCc4ccccc43)n1)C2

>  <score_type>  (76) 
oracle

>  <origin>  (76) 
autodockgpu

>  <m_score__min__energy>  (76) 
-9.8699999999999992

>  <m_primary>  (76) 
energy

>  <rmsd>  (76) 
8.410822441325466

>  <m_score__min__rmsd>  (76) 
8.410822441325466

>  <meeko>  (76) 
{"free_energy": -9.84, "intermolecular_energy": -11.63, "internal_energy": -1.58, "cluster_size": 26, "cluster_id": 1, "rank_in_cluster": 4}

>  <energy>  (76) 
-8.37

>  <cluster_rmsd>  (76) 
1.58

>  <cluster>  (76) 
1

$$$$

     RDKit          3D

 67 72  0  0  0  0  0  0  0  0999 V2000
  140.0280   80.8080  223.8380 C   0  0  0  0  0  0  0  0  0  0  0  0
  141.3470   80.4820  223.6580 C   0  0  0  0  0  0  0  0  0  0  0  0
  141.6870   79.2860  223.0600 C   0  0  0  0  0  0  0  0  0  0  0  0
  140.7100   78.3970  222.6290 C   0  0  0  0  0  0  0  0  0  0  0  0
  139.3690   78.7200  222.8070 C   0  0  0  0  0  0  0  0  0  0  0  0
  139.0570   79.9310  223.4140 C   0  0  0  0  0  0  0  0  0  0  0  0
  138.2830   77.7860  222.3560 C   0  0  0  0  0  0  0  0  0  0  0  0
  138.7580   76.3910  222.7290 C   0  0  0  0  0  0  0  0  0  0  0  0
  140.0600   76.1020  222.1680 N   0  0  0  0  0  0  0  0  0  0  0  0
  140.3620   74.7710  221.7730 C   0  0  0  0  0  0  0  0  0  0  0  0
  139.6800   73.7370  222.3360 N   0  0  0  0  0  0  0  0  0  0  0  0
  139.9470   72.4740  221.9790 C   0  0  0  0  0  0  0  0  0  0  0  0
  139.2740   71.3460  222.5210 N   0  0  0  0  0  0  0  0  0  0  0  0
  139.8350   70.5860  223.6480 C   0  0  0  0  0  0  0  0  0  0  0  0
  140.5420   71.5720  224.5420 C   0  0  0  0  0  0  0  0  0  0  0  0
  140.4370   71.2600  225.9980 C   0  0  0  0  0  0  0  0  0  0  0  0
  141.3190   72.0890  226.8660 C   0  0  0  0  0  0  0  0  0  0  0  0
  140.9820   71.8320  228.3150 C   0  0  0  0  0  0  0  0  0  0  0  0
  139.9960   70.8580  228.3780 O   0  0  0  0  0  0  0  0  0  0  0  0
  140.4300   69.6580  227.8180 C   0  0  0  0  0  0  0  0  0  0  0  0
  140.6240   69.7670  226.3060 C   0  0  0  0  0  0  0  0  0  0  0  0
  140.8980   72.2570  221.0580 N   0  0  0  0  0  0  0  0  0  0  0  0
  141.5980   73.2460  220.4750 C   0  0  0  0  0  0  0  0  0  0  0  0
  142.6420   73.0480  219.4620 C   0  0  1  0  0  0  0  0  0  0  0  0
  143.9520   73.5180  220.0600 C   0  0  0  0  0  0  0  0  0  0  0  0
  144.4080   72.2920  220.8200 C   0  0  0  0  0  0  0  0  0  0  0  0
  143.9820   71.1860  219.9290 C   0  0  0  0  0  0  0  0  0  0  0  0
  144.3760   69.8790  219.7340 C   0  0  0  0  0  0  0  0  0  0  0  0
  143.7940   69.0360  218.8110 C   0  0  0  0  0  0  0  0  0  0  0  0
  142.7440   69.5180  218.0190 C   0  0  0  0  0  0  0  0  0  0  0  0
  142.3540   70.8090  218.2110 C   0  0  0  0  0  0  0  0  0  0  0  0
  142.9480   71.6480  219.1440 C   0  0  0  0  0  0  0  0  0  0  0  0
  141.3120   74.5070  220.8490 N   0  0  0  0  0  0  0  0  0  0  0  0
  141.0710   77.1180  221.9890 C   0  0  0  0  0  0  0  0  0  0  0  0
  139.7495   81.7590  224.3155 H   0  0  0  0  0  0  0  0  0  0  0  0
  142.1348   81.1741  223.9904 H   0  0  0  0  0  0  0  0  0  0  0  0
  142.7484   79.0322  222.9222 H   0  0  0  0  0  0  0  0  0  0  0  0
  137.9995   80.1964  223.5599 H   0  0  0  0  0  0  0  0  0  0  0  0
  137.3387   78.0196  222.8695 H   0  0  0  0  0  0  0  0  0  0  0  0
  138.0940   77.8750  221.2760 H   0  0  0  0  0  0  0  0  0  0  0  0
  138.8171   76.3155  223.8248 H   0  0  0  0  0  0  0  0  0  0  0  0
  138.0399   75.6637  222.3223 H   0  0  0  0  0  0  0  0  0  0  0  0
  138.3660   71.0900  222.0790 H   0  0  0  0  0  0  0  0  0  0  0  0
  139.0285   70.0847  224.2032 H   0  0  0  0  0  0  0  0  0  0  0  0
  140.5319   69.8138  223.2901 H   0  0  0  0  0  0  0  0  0  0  0  0
  141.6071   71.5848  224.2676 H   0  0  0  0  0  0  0  0  0  0  0  0
  140.0520   72.5451  224.3904 H   0  0  0  0  0  0  0  0  0  0  0  0
  139.4019   71.5326  226.2515 H   0  0  0  0  0  0  0  0  0  0  0  0
  142.3703   71.8233  226.6811 H   0  0  0  0  0  0  0  0  0  0  0  0
  141.1647   73.1536  226.6363 H   0  0  0  0  0  0  0  0  0  0  0  0
  141.8796   71.4846  228.8475 H   0  0  0  0  0  0  0  0  0  0  0  0
  140.6227   72.7590  228.7856 H   0  0  0  0  0  0  0  0  0  0  0  0
  141.3883   69.3772  228.2794 H   0  0  0  0  0  0  0  0  0  0  0  0
  139.6584   68.8971  228.0068 H   0  0  0  0  0  0  0  0  0  0  0  0
  141.6325   69.4346  226.0189 H   0  0  0  0  0  0  0  0  0  0  0  0
  139.9179   69.1344  225.7482 H   0  0  0  0  0  0  0  0  0  0  0  0
  142.2695   73.5712  218.5690 H   0  0  0  0  0  0  0  0  0  0  0  0
  144.6730   73.7937  219.2764 H   0  0  0  0  0  0  0  0  0  0  0  0
  143.8567   74.4178  220.6855 H   0  0  0  0  0  0  0  0  0  0  0  0
  145.4992   72.2931  220.9586 H   0  0  0  0  0  0  0  0  0  0  0  0
  143.9892   72.2239  221.8349 H   0  0  0  0  0  0  0  0  0  0  0  0
  145.2000   69.4873  220.3486 H   0  0  0  0  0  0  0  0  0  0  0  0
  144.1488   68.0009  218.6984 H   0  0  0  0  0  0  0  0  0  0  0  0
  142.2531   68.8785  217.2706 H   0  0  0  0  0  0  0  0  0  0  0  0
  141.5305   71.2049  217.5986 H   0  0  0  0  0  0  0  0  0  0  0  0
  142.0134   76.7583  222.4277 H   0  0  0  0  0  0  0  0  0  0  0  0
  141.1702   77.3024  220.9091 H   0  0  0  0  0  0  0  0  0  0  0  0
  1  2  2  0
  2  3  1  0
  3  4  2  0
  4  5  1  0
  5  6  2  0
  5  7  1  0
  7  8  1  0
  8  9  1  0
  9 10  1  0
 10 11  2  0
 11 12  1  0
 12 13  1  0
 13 14  1  0
 14 15  1  0
 15 16  1  0
 16 17  1  0
 17 18  1  0
 18 19  1  0
 19 20  1  0
 20 21  1  0
 12 22  2  0
 22 23  1  0
 23 24  1  0
 24 25  1  0
 25 26  1  0
 26 27  1  0
 27 28  2  0
 28 29  1  0
 29 30  2  0
 30 31  1  0
 31 32  2  0
 23 33  2  0
  9 34  1  0
  6  1  1  0
 33 10  1  0
 34  4  1  0
 21 16  1  0
 32 24  1  0
 32 27  1  0
  1 35  1  0
  2 36  1  0
  3 37  1  0
  6 38  1  0
  7 39  1  0
  7 40  1  0
  8 41  1  0
  8 42  1  0
 13 43  1  0
 14 44  1  0
 14 45  1  0
 15 46  1  0
 15 47  1  0
 16 48  1  0
 17 49  1  0
 17 50  1  0
 18 51  1  0
 18 52  1  0
 20 53  1  0
 20 54  1  0
 21 55  1  0
 21 56  1  0
 24 57  1  6
 25 58  1  0
 25 59  1  0
 26 60  1  0
 26 61  1  0
 28 62  1  0
 29 63  1  0
 30 64  1  0
 31 65  1  0
 34 66  1  0
 34 67  1  0
M  END
>  <smiles>  (77) 
c1ccc2c(c1)CCN(c1nc(NCCC3CCOCC3)nc(C3CCc4ccccc43)n1)C2

>  <score_type>  (77) 
oracle

>  <origin>  (77) 
autodockgpu

>  <m_score__min__energy>  (77) 
-9.8699999999999992

>  <m_primary>  (77) 
energy

>  <rmsd>  (77) 
7.809598402750124

>  <m_score__min__rmsd>  (77) 
7.809598402750124

>  <meeko>  (77) 
{"free_energy": -9.2, "intermolecular_energy": -10.99, "internal_energy": -1.36, "cluster_size": 11, "cluster_id": 2, "rank_in_cluster": 10}

>  <energy>  (77) 
-9.82

>  <cluster_rmsd>  (77) 
0.0

>  <cluster>  (77) 
2

$$$$

     RDKit          3D

 67 72  0  0  0  0  0  0  0  0999 V2000
  140.3610   68.0980  226.3430 C   0  0  0  0  0  0  0  0  0  0  0  0
  141.0980   69.1460  226.8300 C   0  0  0  0  0  0  0  0  0  0  0  0
  141.0740   70.3660  226.1870 C   0  0  0  0  0  0  0  0  0  0  0  0
  140.3080   70.5580  225.0440 C   0  0  0  0  0  0  0  0  0  0  0  0
  139.5560   69.5000  224.5420 C   0  0  0  0  0  0  0  0  0  0  0  0
  139.6020   68.2830  225.2110 C   0  0  0  0  0  0  0  0  0  0  0  0
  138.7150   69.6670  223.3090 C   0  0  0  0  0  0  0  0  0  0  0  0
  139.5530   70.4930  222.3470 C   0  0  0  0  0  0  0  0  0  0  0  0
  139.9820   71.7390  222.9460 N   0  0  0  0  0  0  0  0  0  0  0  0
  140.1140   72.8890  222.1240 C   0  0  0  0  0  0  0  0  0  0  0  0
  139.3080   73.9630  222.3430 N   0  0  0  0  0  0  0  0  0  0  0  0
  139.4140   75.0590  221.5810 C   0  0  0  0  0  0  0  0  0  0  0  0
  138.6090   76.2170  221.7540 N   0  0  0  0  0  0  0  0  0  0  0  0
  139.1270   77.4190  222.4220 C   0  0  0  0  0  0  0  0  0  0  0  0
  140.4860   77.7040  221.8370 C   0  0  0  0  0  0  0  0  0  0  0  0
  141.0780   79.0030  222.2700 C   0  0  0  0  0  0  0  0  0  0  0  0
  141.8300   79.7200  221.2020 C   0  0  0  0  0  0  0  0  0  0  0  0
  142.2030   81.0990  221.6900 C   0  0  0  0  0  0  0  0  0  0  0  0
  141.7790   81.2370  223.0040 O   0  0  0  0  0  0  0  0  0  0  0  0
  142.3930   80.3060  223.8370 C   0  0  0  0  0  0  0  0  0  0  0  0
  141.9330   78.8780  223.5400 C   0  0  0  0  0  0  0  0  0  0  0  0
  140.3320   75.0700  220.6020 N   0  0  0  0  0  0  0  0  0  0  0  0
  141.1500   74.0350  220.3470 C   0  0  0  0  0  0  0  0  0  0  0  0
  142.1670   74.0120  219.2890 C   0  0  1  0  0  0  0  0  0  0  0  0
  142.4790   75.4480  218.9240 C   0  0  0  0  0  0  0  0  0  0  0  0
  143.5170   75.8170  219.9610 C   0  0  0  0  0  0  0  0  0  0  0  0
  144.2940   74.5620  220.0980 C   0  0  0  0  0  0  0  0  0  0  0  0
  145.5700   74.2410  220.5110 C   0  0  0  0  0  0  0  0  0  0  0  0
  146.0590   72.9520  220.5440 C   0  0  0  0  0  0  0  0  0  0  0  0
  145.2290   71.8990  220.1370 C   0  0  0  0  0  0  0  0  0  0  0  0
  143.9680   72.2160  219.7290 C   0  0  0  0  0  0  0  0  0  0  0  0
  143.4870   73.5180  219.7010 C   0  0  0  0  0  0  0  0  0  0  0  0
  141.0250   72.9450  221.1260 N   0  0  0  0  0  0  0  0  0  0  0  0
  140.2790   71.8610  224.3540 C   0  0  0  0  0  0  0  0  0  0  0  0
  140.3763   67.1222  226.8506 H   0  0  0  0  0  0  0  0  0  0  0  0
  141.7094   69.0139  227.7348 H   0  0  0  0  0  0  0  0  0  0  0  0
  141.6706   71.1999  226.5854 H   0  0  0  0  0  0  0  0  0  0  0  0
  139.0120   67.4398  224.8225 H   0  0  0  0  0  0  0  0  0  0  0  0
  138.4810   68.6864  222.8689 H   0  0  0  0  0  0  0  0  0  0  0  0
  137.7564   70.1568  223.5352 H   0  0  0  0  0  0  0  0  0  0  0  0
  140.4411   69.9118  222.0581 H   0  0  0  0  0  0  0  0  0  0  0  0
  138.9343   70.7294  221.4687 H   0  0  0  0  0  0  0  0  0  0  0  0
  137.6370   76.1670  221.3800 H   0  0  0  0  0  0  0  0  0  0  0  0
  138.4534   78.2698  222.2421 H   0  0  0  0  0  0  0  0  0  0  0  0
  139.1949   77.2628  223.5087 H   0  0  0  0  0  0  0  0  0  0  0  0
  141.1682   76.8960  222.1398 H   0  0  0  0  0  0  0  0  0  0  0  0
  140.3544   77.7645  220.7466 H   0  0  0  0  0  0  0  0  0  0  0  0
  140.2018   79.6241  222.5077 H   0  0  0  0  0  0  0  0  0  0  0  0
  142.7433   79.1583  220.9561 H   0  0  0  0  0  0  0  0  0  0  0  0
  141.2003   79.8061  220.3042 H   0  0  0  0  0  0  0  0  0  0  0  0
  143.2943   81.2272  221.6380 H   0  0  0  0  0  0  0  0  0  0  0  0
  141.7225   81.8617  221.0596 H   0  0  0  0  0  0  0  0  0  0  0  0
  143.4820   80.3651  223.6934 H   0  0  0  0  0  0  0  0  0  0  0  0
  142.1142   80.5432  224.8743 H   0  0  0  0  0  0  0  0  0  0  0  0
  142.7970   78.2205  223.3634 H   0  0  0  0  0  0  0  0  0  0  0  0
  141.3734   78.4370  224.3781 H   0  0  0  0  0  0  0  0  0  0  0  0
  141.7428   73.3659  218.5063 H   0  0  0  0  0  0  0  0  0  0  0  0
  142.8877   75.5218  217.9054 H   0  0  0  0  0  0  0  0  0  0  0  0
  141.5984   76.1071  218.9235 H   0  0  0  0  0  0  0  0  0  0  0  0
  144.1537   76.6424  219.6099 H   0  0  0  0  0  0  0  0  0  0  0  0
  143.0840   76.1703  220.9085 H   0  0  0  0  0  0  0  0  0  0  0  0
  146.2338   75.0575  220.8315 H   0  0  0  0  0  0  0  0  0  0  0  0
  147.0858   72.7533  220.8849 H   0  0  0  0  0  0  0  0  0  0  0  0
  145.5816   70.8571  220.1464 H   0  0  0  0  0  0  0  0  0  0  0  0
  143.3006   71.4030  219.4071 H   0  0  0  0  0  0  0  0  0  0  0  0
  141.2626   72.3406  224.4660 H   0  0  0  0  0  0  0  0  0  0  0  0
  139.4793   72.4618  224.8117 H   0  0  0  0  0  0  0  0  0  0  0  0
  1  2  2  0
  2  3  1  0
  3  4  2  0
  4  5  1  0
  5  6  2  0
  5  7  1  0
  7  8  1  0
  8  9  1  0
  9 10  1  0
 10 11  2  0
 11 12  1  0
 12 13  1  0
 13 14  1  0
 14 15  1  0
 15 16  1  0
 16 17  1  0
 17 18  1  0
 18 19  1  0
 19 20  1  0
 20 21  1  0
 12 22  2  0
 22 23  1  0
 23 24  1  0
 24 25  1  0
 25 26  1  0
 26 27  1  0
 27 28  2  0
 28 29  1  0
 29 30  2  0
 30 31  1  0
 31 32  2  0
 23 33  2  0
  9 34  1  0
  6  1  1  0
 33 10  1  0
 34  4  1  0
 21 16  1  0
 32 24  1  0
 32 27  1  0
  1 35  1  0
  2 36  1  0
  3 37  1  0
  6 38  1  0
  7 39  1  0
  7 40  1  0
  8 41  1  0
  8 42  1  0
 13 43  1  0
 14 44  1  0
 14 45  1  0
 15 46  1  0
 15 47  1  0
 16 48  1  0
 17 49  1  0
 17 50  1  0
 18 51  1  0
 18 52  1  0
 20 53  1  0
 20 54  1  0
 21 55  1  0
 21 56  1  0
 24 57  1  6
 25 58  1  0
 25 59  1  0
 26 60  1  0
 26 61  1  0
 28 62  1  0
 29 63  1  0
 30 64  1  0
 31 65  1  0
 34 66  1  0
 34 67  1  0
M  END
>  <smiles>  (78) 
c1ccc2c(c1)CCN(c1nc(NCCC3CCOCC3)nc(C3CCc4ccccc43)n1)C2

>  <score_type>  (78) 
oracle

>  <origin>  (78) 
autodockgpu

>  <m_score__min__energy>  (78) 
-9.8699999999999992

>  <m_primary>  (78) 
energy

>  <rmsd>  (78) 
8.386136568962192

>  <m_score__min__rmsd>  (78) 
8.386136568962192

>  <meeko>  (78) 
{"free_energy": -9.64, "intermolecular_energy": -11.43, "internal_energy": -1.52, "cluster_size": 26, "cluster_id": 1, "rank_in_cluster": 10}

>  <energy>  (78) 
-9.78

>  <cluster_rmsd>  (78) 
0.51

>  <cluster>  (78) 
2

$$$$

     RDKit          3D

 67 72  0  0  0  0  0  0  0  0999 V2000
  140.2840   67.5600  226.1380 C   0  0  0  0  0  0  0  0  0  0  0  0
  141.0550   68.5340  226.7200 C   0  0  0  0  0  0  0  0  0  0  0  0
  141.0870   69.8030  226.1820 C   0  0  0  0  0  0  0  0  0  0  0  0
  140.3450   70.1210  225.0510 C   0  0  0  0  0  0  0  0  0  0  0  0
  139.5590   69.1410  224.4540 C   0  0  0  0  0  0  0  0  0  0  0  0
  139.5480   67.8710  225.0180 C   0  0  0  0  0  0  0  0  0  0  0  0
  138.7420   69.4450  223.2310 C   0  0  0  0  0  0  0  0  0  0  0  0
  139.6250   70.3150  222.3510 C   0  0  0  0  0  0  0  0  0  0  0  0
  140.0950   71.4870  223.0580 N   0  0  0  0  0  0  0  0  0  0  0  0
  140.2830   72.6970  222.3380 C   0  0  0  0  0  0  0  0  0  0  0  0
  139.5970   73.8110  222.7120 N   0  0  0  0  0  0  0  0  0  0  0  0
  139.7590   74.9630  222.0480 C   0  0  0  0  0  0  0  0  0  0  0  0
  139.0790   76.1650  222.3840 N   0  0  0  0  0  0  0  0  0  0  0  0
  139.1820   77.3650  221.5420 C   0  0  0  0  0  0  0  0  0  0  0  0
  139.1450   78.5580  222.4610 C   0  0  0  0  0  0  0  0  0  0  0  0
  140.3830   79.3910  222.4310 C   0  0  0  0  0  0  0  0  0  0  0  0
  141.0630   79.4310  221.1060 C   0  0  0  0  0  0  0  0  0  0  0  0
  142.1730   80.4540  221.1430 C   0  0  0  0  0  0  0  0  0  0  0  0
  142.2450   80.9890  222.4200 O   0  0  0  0  0  0  0  0  0  0  0  0
  142.5340   80.0080  223.3660 C   0  0  0  0  0  0  0  0  0  0  0  0
  141.3810   79.0190  223.5380 C   0  0  0  0  0  0  0  0  0  0  0  0
  140.6100   74.9890  221.0120 N   0  0  0  0  0  0  0  0  0  0  0  0
  141.3090   73.9160  220.6050 C   0  0  0  0  0  0  0  0  0  0  0  0
  142.2510   73.9070  219.4780 C   0  0  1  0  0  0  0  0  0  0  0  0
  142.5290   75.3480  219.1060 C   0  0  0  0  0  0  0  0  0  0  0  0
  143.6340   75.7140  220.0720 C   0  0  0  0  0  0  0  0  0  0  0  0
  144.4260   74.4630  220.1440 C   0  0  0  0  0  0  0  0  0  0  0  0
  145.7280   74.1450  220.4650 C   0  0  0  0  0  0  0  0  0  0  0  0
  146.2250   72.8590  220.4530 C   0  0  0  0  0  0  0  0  0  0  0  0
  145.3740   71.8050  220.0960 C   0  0  0  0  0  0  0  0  0  0  0  0
  144.0870   72.1180  219.7780 C   0  0  0  0  0  0  0  0  0  0  0  0
  143.5980   73.4180  219.7940 C   0  0  0  0  0  0  0  0  0  0  0  0
  141.1310   72.7690  221.2870 N   0  0  0  0  0  0  0  0  0  0  0  0
  140.3770   71.4790  224.4740 C   0  0  0  0  0  0  0  0  0  0  0  0
  140.2546   66.5449  226.5607 H   0  0  0  0  0  0  0  0  0  0  0  0
  141.6483   68.3023  227.6168 H   0  0  0  0  0  0  0  0  0  0  0  0
  141.7099   70.5761  226.6557 H   0  0  0  0  0  0  0  0  0  0  0  0
  138.9303   67.0883  224.5535 H   0  0  0  0  0  0  0  0  0  0  0  0
  138.4758   68.5152  222.7069 H   0  0  0  0  0  0  0  0  0  0  0  0
  137.8003   69.9521  223.4881 H   0  0  0  0  0  0  0  0  0  0  0  0
  140.4931   69.7247  222.0224 H   0  0  0  0  0  0  0  0  0  0  0  0
  139.0279   70.6500  221.4900 H   0  0  0  0  0  0  0  0  0  0  0  0
  138.5060   76.1460  223.2550 H   0  0  0  0  0  0  0  0  0  0  0  0
  140.1276   77.3512  220.9801 H   0  0  0  0  0  0  0  0  0  0  0  0
  138.3563   77.4051  220.8164 H   0  0  0  0  0  0  0  0  0  0  0  0
  138.2951   79.1923  222.1690 H   0  0  0  0  0  0  0  0  0  0  0  0
  139.0520   78.1662  223.4846 H   0  0  0  0  0  0  0  0  0  0  0  0
  140.0185   80.4102  222.6269 H   0  0  0  0  0  0  0  0  0  0  0  0
  141.4842   78.4404  220.8795 H   0  0  0  0  0  0  0  0  0  0  0  0
  140.3358   79.7057  220.3278 H   0  0  0  0  0  0  0  0  0  0  0  0
  143.1287   79.9719  220.8897 H   0  0  0  0  0  0  0  0  0  0  0  0
  141.9699   81.2524  220.4141 H   0  0  0  0  0  0  0  0  0  0  0  0
  143.4294   79.4566  223.0432 H   0  0  0  0  0  0  0  0  0  0  0  0
  142.6999   80.5069  224.3322 H   0  0  0  0  0  0  0  0  0  0  0  0
  141.7341   77.9850  223.4110 H   0  0  0  0  0  0  0  0  0  0  0  0
  140.9313   79.0728  224.5404 H   0  0  0  0  0  0  0  0  0  0  0  0
  141.7779   73.2648  218.7205 H   0  0  0  0  0  0  0  0  0  0  0  0
  142.8658   75.4336  218.0623 H   0  0  0  0  0  0  0  0  0  0  0  0
  141.6468   76.0016  219.1727 H   0  0  0  0  0  0  0  0  0  0  0  0
  144.2403   76.5464  219.6853 H   0  0  0  0  0  0  0  0  0  0  0  0
  143.2652   76.0560  221.0503 H   0  0  0  0  0  0  0  0  0  0  0  0
  146.4083   74.9624  220.7463 H   0  0  0  0  0  0  0  0  0  0  0  0
  147.2741   72.6635  220.7198 H   0  0  0  0  0  0  0  0  0  0  0  0
  145.7313   70.7649  220.0733 H   0  0  0  0  0  0  0  0  0  0  0  0
  143.4035   71.3038  219.4955 H   0  0  0  0  0  0  0  0  0  0  0  0
  141.3770   71.9075  224.6366 H   0  0  0  0  0  0  0  0  0  0  0  0
  139.5959   72.0716  224.9728 H   0  0  0  0  0  0  0  0  0  0  0  0
  1  2  2  0
  2  3  1  0
  3  4  2  0
  4  5  1  0
  5  6  2  0
  5  7  1  0
  7  8  1  0
  8  9  1  0
  9 10  1  0
 10 11  2  0
 11 12  1  0
 12 13  1  0
 13 14  1  0
 14 15  1  0
 15 16  1  0
 16 17  1  0
 17 18  1  0
 18 19  1  0
 19 20  1  0
 20 21  1  0
 12 22  2  0
 22 23  1  0
 23 24  1  0
 24 25  1  0
 25 26  1  0
 26 27  1  0
 27 28  2  0
 28 29  1  0
 29 30  2  0
 30 31  1  0
 31 32  2  0
 23 33  2  0
  9 34  1  0
  6  1  1  0
 33 10  1  0
 34  4  1  0
 21 16  1  0
 32 24  1  0
 32 27  1  0
  1 35  1  0
  2 36  1  0
  3 37  1  0
  6 38  1  0
  7 39  1  0
  7 40  1  0
  8 41  1  0
  8 42  1  0
 13 43  1  0
 14 44  1  0
 14 45  1  0
 15 46  1  0
 15 47  1  0
 16 48  1  0
 17 49  1  0
 17 50  1  0
 18 51  1  0
 18 52  1  0
 20 53  1  0
 20 54  1  0
 21 55  1  0
 21 56  1  0
 24 57  1  6
 25 58  1  0
 25 59  1  0
 26 60  1  0
 26 61  1  0
 28 62  1  0
 29 63  1  0
 30 64  1  0
 31 65  1  0
 34 66  1  0
 34 67  1  0
M  END
>  <smiles>  (79) 
c1ccc2c(c1)CCN(c1nc(NCCC3CCOCC3)nc(C3CCc4ccccc43)n1)C2

>  <score_type>  (79) 
oracle

>  <origin>  (79) 
autodockgpu

>  <m_score__min__energy>  (79) 
-9.8699999999999992

>  <m_primary>  (79) 
energy

>  <rmsd>  (79) 
8.380541570037414

>  <m_score__min__rmsd>  (79) 
8.380541570037414

>  <meeko>  (79) 
{"free_energy": -9.51, "intermolecular_energy": -11.3, "internal_energy": -1.47, "cluster_size": 26, "cluster_id": 1, "rank_in_cluster": 13}

>  <energy>  (79) 
-9.76

>  <cluster_rmsd>  (79) 
0.44

>  <cluster>  (79) 
2

$$$$

     RDKit          3D

 67 72  0  0  0  0  0  0  0  0999 V2000
  146.2920   67.8960  218.8550 C   0  0  0  0  0  0  0  0  0  0  0  0
  145.1440   67.3220  219.3370 C   0  0  0  0  0  0  0  0  0  0  0  0
  144.0670   68.1120  219.6780 C   0  0  0  0  0  0  0  0  0  0  0  0
  144.1190   69.4940  219.5400 C   0  0  0  0  0  0  0  0  0  0  0  0
  145.2790   70.0860  219.0510 C   0  0  0  0  0  0  0  0  0  0  0  0
  146.3490   69.2640  218.7170 C   0  0  0  0  0  0  0  0  0  0  0  0
  145.3770   71.5760  218.8870 C   0  0  0  0  0  0  0  0  0  0  0  0
  144.7120   72.1700  220.1180 C   0  0  0  0  0  0  0  0  0  0  0  0
  143.3610   71.6780  220.2860 N   0  0  0  0  0  0  0  0  0  0  0  0
  142.3780   72.5380  220.8440 C   0  0  0  0  0  0  0  0  0  0  0  0
  141.4900   72.0400  221.7460 N   0  0  0  0  0  0  0  0  0  0  0  0
  140.5540   72.8320  222.2860 C   0  0  0  0  0  0  0  0  0  0  0  0
  139.5970   72.3820  223.2350 N   0  0  0  0  0  0  0  0  0  0  0  0
  139.7530   71.0990  223.9330 C   0  0  0  0  0  0  0  0  0  0  0  0
  140.6590   71.3390  225.1120 C   0  0  0  0  0  0  0  0  0  0  0  0
  140.7430   70.1920  226.0620 C   0  0  0  0  0  0  0  0  0  0  0  0
  139.8840   69.0300  225.6990 C   0  0  0  0  0  0  0  0  0  0  0  0
  140.2020   67.8670  226.6060 C   0  0  0  0  0  0  0  0  0  0  0  0
  141.1530   68.2700  227.5320 O   0  0  0  0  0  0  0  0  0  0  0  0
  140.6820   69.3150  228.3230 C   0  0  0  0  0  0  0  0  0  0  0  0
  140.5020   70.6050  227.5220 C   0  0  0  0  0  0  0  0  0  0  0  0
  140.5160   74.1210  221.9160 N   0  0  0  0  0  0  0  0  0  0  0  0
  141.3720   74.6580  221.0290 C   0  0  0  0  0  0  0  0  0  0  0  0
  141.3640   76.0630  220.6030 C   0  0  1  0  0  0  0  0  0  0  0  0
  140.3810   76.1860  219.4570 C   0  0  0  0  0  0  0  0  0  0  0  0
  139.0680   76.3640  220.1870 C   0  0  0  0  0  0  0  0  0  0  0  0
  139.4580   77.2000  221.3490 C   0  0  0  0  0  0  0  0  0  0  0  0
  138.8010   78.0700  222.1930 C   0  0  0  0  0  0  0  0  0  0  0  0
  139.4180   78.7390  223.2290 C   0  0  0  0  0  0  0  0  0  0  0  0
  140.7860   78.5360  223.4490 C   0  0  0  0  0  0  0  0  0  0  0  0
  141.4360   77.6770  222.6150 C   0  0  0  0  0  0  0  0  0  0  0  0
  140.8040   77.0080  221.5750 C   0  0  0  0  0  0  0  0  0  0  0  0
  142.3040   73.8440  220.5000 N   0  0  0  0  0  0  0  0  0  0  0  0
  142.9680   70.3420  219.9030 C   0  0  0  0  0  0  0  0  0  0  0  0
  147.1556   67.2716  218.5823 H   0  0  0  0  0  0  0  0  0  0  0  0
  145.0823   66.2297  219.4518 H   0  0  0  0  0  0  0  0  0  0  0  0
  143.1516   67.6410  220.0656 H   0  0  0  0  0  0  0  0  0  0  0  0
  147.2712   69.7219  218.3298 H   0  0  0  0  0  0  0  0  0  0  0  0
  146.4306   71.8873  218.8324 H   0  0  0  0  0  0  0  0  0  0  0  0
  144.8917   71.9151  217.9599 H   0  0  0  0  0  0  0  0  0  0  0  0
  145.3023   71.9018  221.0066 H   0  0  0  0  0  0  0  0  0  0  0  0
  144.6663   73.2616  219.9903 H   0  0  0  0  0  0  0  0  0  0  0  0
  138.7840   73.0120  223.4090 H   0  0  0  0  0  0  0  0  0  0  0  0
  138.7735   70.7366  224.2783 H   0  0  0  0  0  0  0  0  0  0  0  0
  140.1798   70.3393  223.2616 H   0  0  0  0  0  0  0  0  0  0  0  0
  141.6703   71.5478  224.7330 H   0  0  0  0  0  0  0  0  0  0  0  0
  140.2312   72.1832  225.6727 H   0  0  0  0  0  0  0  0  0  0  0  0
  141.7850   69.8518  225.9698 H   0  0  0  0  0  0  0  0  0  0  0  0
  138.8255   69.3062  225.8143 H   0  0  0  0  0  0  0  0  0  0  0  0
  140.0764   68.7438  224.6545 H   0  0  0  0  0  0  0  0  0  0  0  0
  139.2893   67.5457  227.1292 H   0  0  0  0  0  0  0  0  0  0  0  0
  140.5902   67.0256  226.0132 H   0  0  0  0  0  0  0  0  0  0  0  0
  139.7116   69.0255  228.7525 H   0  0  0  0  0  0  0  0  0  0  0  0
  141.4255   69.5058  229.1110 H   0  0  0  0  0  0  0  0  0  0  0  0
  139.4844   71.0027  227.6501 H   0  0  0  0  0  0  0  0  0  0  0  0
  141.1895   71.3987  227.8497 H   0  0  0  0  0  0  0  0  0  0  0  0
  142.4187   76.3012  220.4010 H   0  0  0  0  0  0  0  0  0  0  0  0
  140.6092   77.0580  218.8265 H   0  0  0  0  0  0  0  0  0  0  0  0
  140.3930   75.3284  218.7683 H   0  0  0  0  0  0  0  0  0  0  0  0
  138.3291   76.8799  219.5562 H   0  0  0  0  0  0  0  0  0  0  0  0
  138.5913   75.4140  220.4703 H   0  0  0  0  0  0  0  0  0  0  0  0
  137.7263   78.2397  222.0312 H   0  0  0  0  0  0  0  0  0  0  0  0
  138.8443   79.4218  223.8729 H   0  0  0  0  0  0  0  0  0  0  0  0
  141.3156   79.0506  224.2643 H   0  0  0  0  0  0  0  0  0  0  0  0
  142.5110   77.5054  222.7726 H   0  0  0  0  0  0  0  0  0  0  0  0
  142.4386   69.8751  220.7466 H   0  0  0  0  0  0  0  0  0  0  0  0
  142.3232   70.4260  219.0157 H   0  0  0  0  0  0  0  0  0  0  0  0
  1  2  2  0
  2  3  1  0
  3  4  2  0
  4  5  1  0
  5  6  2  0
  5  7  1  0
  7  8  1  0
  8  9  1  0
  9 10  1  0
 10 11  2  0
 11 12  1  0
 12 13  1  0
 13 14  1  0
 14 15  1  0
 15 16  1  0
 16 17  1  0
 17 18  1  0
 18 19  1  0
 19 20  1  0
 20 21  1  0
 12 22  2  0
 22 23  1  0
 23 24  1  0
 24 25  1  0
 25 26  1  0
 26 27  1  0
 27 28  2  0
 28 29  1  0
 29 30  2  0
 30 31  1  0
 31 32  2  0
 23 33  2  0
  9 34  1  0
  6  1  1  0
 33 10  1  0
 34  4  1  0
 21 16  1  0
 32 24  1  0
 32 27  1  0
  1 35  1  0
  2 36  1  0
  3 37  1  0
  6 38  1  0
  7 39  1  0
  7 40  1  0
  8 41  1  0
  8 42  1  0
 13 43  1  0
 14 44  1  0
 14 45  1  0
 15 46  1  0
 15 47  1  0
 16 48  1  0
 17 49  1  0
 17 50  1  0
 18 51  1  0
 18 52  1  0
 20 53  1  0
 20 54  1  0
 21 55  1  0
 21 56  1  0
 24 57  1  6
 25 58  1  0
 25 59  1  0
 26 60  1  0
 26 61  1  0
 28 62  1  0
 29 63  1  0
 30 64  1  0
 31 65  1  0
 34 66  1  0
 34 67  1  0
M  END
>  <smiles>  (80) 
c1ccc2c(c1)CCN(c1nc(NCCC3CCOCC3)nc(C3CCc4ccccc43)n1)C2

>  <score_type>  (80) 
oracle

>  <origin>  (80) 
autodockgpu

>  <m_score__min__energy>  (80) 
-9.8699999999999992

>  <m_primary>  (80) 
energy

>  <rmsd>  (80) 
8.371711861704444

>  <m_score__min__rmsd>  (80) 
8.371711861704444

>  <meeko>  (80) 
{"free_energy": -9.4, "intermolecular_energy": -11.19, "internal_energy": -1.16, "cluster_size": 11, "cluster_id": 2, "rank_in_cluster": 8}

>  <energy>  (80) 
-9.69

>  <cluster_rmsd>  (80) 
1.24

>  <cluster>  (80) 
2

$$$$

     RDKit          3D

 67 72  0  0  0  0  0  0  0  0999 V2000
  142.1060   81.3290  223.3580 C   0  0  0  0  0  0  0  0  0  0  0  0
  142.9830   80.2800  223.4640 C   0  0  0  0  0  0  0  0  0  0  0  0
  142.5750   79.0040  223.1400 C   0  0  0  0  0  0  0  0  0  0  0  0
  141.2800   78.7540  222.7030 C   0  0  0  0  0  0  0  0  0  0  0  0
  140.3830   79.8120  222.5910 C   0  0  0  0  0  0  0  0  0  0  0  0
  140.8230   81.0870  222.9250 C   0  0  0  0  0  0  0  0  0  0  0  0
  138.9750   79.5850  222.1220 C   0  0  0  0  0  0  0  0  0  0  0  0
  138.5170   78.3030  222.7980 C   0  0  0  0  0  0  0  0  0  0  0  0
  139.4180   77.2030  222.5250 N   0  0  0  0  0  0  0  0  0  0  0  0
  138.8910   75.8890  222.4150 C   0  0  0  0  0  0  0  0  0  0  0  0
  139.7400   74.8400  222.2490 N   0  0  0  0  0  0  0  0  0  0  0  0
  139.2660   73.5920  222.1430 C   0  0  0  0  0  0  0  0  0  0  0  0
  140.0920   72.4490  221.9710 N   0  0  0  0  0  0  0  0  0  0  0  0
  140.6940   71.7580  223.1200 C   0  0  0  0  0  0  0  0  0  0  0  0
  139.5700   71.1200  223.8950 C   0  0  0  0  0  0  0  0  0  0  0  0
  139.8630   70.9200  225.3440 C   0  0  0  0  0  0  0  0  0  0  0  0
  140.9830   71.7530  225.8630 C   0  0  0  0  0  0  0  0  0  0  0  0
  141.0520   71.6200  227.3660 C   0  0  0  0  0  0  0  0  0  0  0  0
  140.0860   70.7150  227.7790 O   0  0  0  0  0  0  0  0  0  0  0  0
  140.3000   69.4550  227.2260 C   0  0  0  0  0  0  0  0  0  0  0  0
  140.0700   69.4440  225.7150 C   0  0  0  0  0  0  0  0  0  0  0  0
  137.9380   73.4060  222.2040 N   0  0  0  0  0  0  0  0  0  0  0  0
  137.0600   74.4100  222.3670 C   0  0  0  0  0  0  0  0  0  0  0  0
  135.6030   74.2450  222.4420 C   0  0  1  0  0  0  0  0  0  0  0  0
  135.3150   72.7600  222.5100 C   0  0  0  0  0  0  0  0  0  0  0  0
  135.4580   72.4800  223.9900 C   0  0  0  0  0  0  0  0  0  0  0  0
  134.8880   73.7030  224.6050 C   0  0  0  0  0  0  0  0  0  0  0  0
  134.3200   74.0130  225.8220 C   0  0  0  0  0  0  0  0  0  0  0  0
  133.8570   75.2690  226.1500 C   0  0  0  0  0  0  0  0  0  0  0  0
  133.9590   76.2990  225.2050 C   0  0  0  0  0  0  0  0  0  0  0  0
  134.5200   75.9930  224.0020 C   0  0  0  0  0  0  0  0  0  0  0  0
  134.9830   74.7230  223.6840 C   0  0  0  0  0  0  0  0  0  0  0  0
  137.5600   75.6550  222.4720 N   0  0  0  0  0  0  0  0  0  0  0  0
  140.8410   77.3900  222.3550 C   0  0  0  0  0  0  0  0  0  0  0  0
  142.4242   82.3500  223.6157 H   0  0  0  0  0  0  0  0  0  0  0  0
  144.0128   80.4571  223.8079 H   0  0  0  0  0  0  0  0  0  0  0  0
  143.2864   78.1697  223.2289 H   0  0  0  0  0  0  0  0  0  0  0  0
  140.1222   81.9306  222.8404 H   0  0  0  0  0  0  0  0  0  0  0  0
  138.3316   80.4262  222.4193 H   0  0  0  0  0  0  0  0  0  0  0  0
  138.9200   79.5077  221.0261 H   0  0  0  0  0  0  0  0  0  0  0  0
  138.4750   78.4682  223.8847 H   0  0  0  0  0  0  0  0  0  0  0  0
  137.5252   78.0410  222.4008 H   0  0  0  0  0  0  0  0  0  0  0  0
  140.2450   72.1300  220.9910 H   0  0  0  0  0  0  0  0  0  0  0  0
  141.3961   70.9867  222.7704 H   0  0  0  0  0  0  0  0  0  0  0  0
  141.2523   72.4644  223.7519 H   0  0  0  0  0  0  0  0  0  0  0  0
  138.6822   71.7637  223.8082 H   0  0  0  0  0  0  0  0  0  0  0  0
  139.4155   70.1204  223.4628 H   0  0  0  0  0  0  0  0  0  0  0  0
  138.9511   71.2734  225.8475 H   0  0  0  0  0  0  0  0  0  0  0  0
  141.9303   71.4113  225.4204 H   0  0  0  0  0  0  0  0  0  0  0  0
  140.8129   72.8061  225.5946 H   0  0  0  0  0  0  0  0  0  0  0  0
  142.0481   71.2574  227.6598 H   0  0  0  0  0  0  0  0  0  0  0  0
  140.8735   72.5981  227.8365 H   0  0  0  0  0  0  0  0  0  0  0  0
  141.3371   69.1499  227.4292 H   0  0  0  0  0  0  0  0  0  0  0  0
  139.5822   68.7580  227.6831 H   0  0  0  0  0  0  0  0  0  0  0  0
  140.9452   69.0312  225.1920 H   0  0  0  0  0  0  0  0  0  0  0  0
  139.2126   68.8175  225.4280 H   0  0  0  0  0  0  0  0  0  0  0  0
  135.2124   74.8032  221.5784 H   0  0  0  0  0  0  0  0  0  0  0  0
  134.2983   72.5334  222.1566 H   0  0  0  0  0  0  0  0  0  0  0  0
  135.9765   72.1502  221.8770 H   0  0  0  0  0  0  0  0  0  0  0  0
  134.8881   71.5856  224.2822 H   0  0  0  0  0  0  0  0  0  0  0  0
  136.4936   72.2756  224.2994 H   0  0  0  0  0  0  0  0  0  0  0  0
  134.2314   73.2140  226.5728 H   0  0  0  0  0  0  0  0  0  0  0  0
  133.4141   75.4602  227.1386 H   0  0  0  0  0  0  0  0  0  0  0  0
  133.6000   77.3150  225.4262 H   0  0  0  0  0  0  0  0  0  0  0  0
  134.6104   76.7885  223.2477 H   0  0  0  0  0  0  0  0  0  0  0  0
  141.3700   76.6741  223.0013 H   0  0  0  0  0  0  0  0  0  0  0  0
  141.0736   77.2265  221.2924 H   0  0  0  0  0  0  0  0  0  0  0  0
  1  2  2  0
  2  3  1  0
  3  4  2  0
  4  5  1  0
  5  6  2  0
  5  7  1  0
  7  8  1  0
  8  9  1  0
  9 10  1  0
 10 11  2  0
 11 12  1  0
 12 13  1  0
 13 14  1  0
 14 15  1  0
 15 16  1  0
 16 17  1  0
 17 18  1  0
 18 19  1  0
 19 20  1  0
 20 21  1  0
 12 22  2  0
 22 23  1  0
 23 24  1  0
 24 25  1  0
 25 26  1  0
 26 27  1  0
 27 28  2  0
 28 29  1  0
 29 30  2  0
 30 31  1  0
 31 32  2  0
 23 33  2  0
  9 34  1  0
  6  1  1  0
 33 10  1  0
 34  4  1  0
 21 16  1  0
 32 24  1  0
 32 27  1  0
  1 35  1  0
  2 36  1  0
  3 37  1  0
  6 38  1  0
  7 39  1  0
  7 40  1  0
  8 41  1  0
  8 42  1  0
 13 43  1  0
 14 44  1  0
 14 45  1  0
 15 46  1  0
 15 47  1  0
 16 48  1  0
 17 49  1  0
 17 50  1  0
 18 51  1  0
 18 52  1  0
 20 53  1  0
 20 54  1  0
 21 55  1  0
 21 56  1  0
 24 57  1  6
 25 58  1  0
 25 59  1  0
 26 60  1  0
 26 61  1  0
 28 62  1  0
 29 63  1  0
 30 64  1  0
 31 65  1  0
 34 66  1  0
 34 67  1  0
M  END
>  <smiles>  (81) 
c1ccc2c(c1)CCN(c1nc(NCCC3CCOCC3)nc(C3CCc4ccccc43)n1)C2

>  <score_type>  (81) 
oracle

>  <origin>  (81) 
autodockgpu

>  <m_score__min__energy>  (81) 
-9.8699999999999992

>  <m_primary>  (81) 
energy

>  <rmsd>  (81) 
6.850074780038209

>  <m_score__min__rmsd>  (81) 
6.850074780038209

>  <meeko>  (81) 
{"free_energy": -9.2, "intermolecular_energy": -10.99, "internal_energy": -1.5, "cluster_size": 11, "cluster_id": 3, "rank_in_cluster": 5}

>  <energy>  (81) 
-9.68

>  <cluster_rmsd>  (81) 
0.98

>  <cluster>  (81) 
2

$$$$

     RDKit          3D

 67 72  0  0  0  0  0  0  0  0999 V2000
  140.2690   68.2400  227.5640 C   0  0  0  0  0  0  0  0  0  0  0  0
  141.0590   69.3190  227.8670 C   0  0  0  0  0  0  0  0  0  0  0  0
  141.0910   70.4090  227.0240 C   0  0  0  0  0  0  0  0  0  0  0  0
  140.3310   70.4390  225.8610 C   0  0  0  0  0  0  0  0  0  0  0  0
  139.5260   69.3490  225.5450 C   0  0  0  0  0  0  0  0  0  0  0  0
  139.5150   68.2640  226.4140 C   0  0  0  0  0  0  0  0  0  0  0  0
  138.6890   69.3420  224.2990 C   0  0  0  0  0  0  0  0  0  0  0  0
  139.5630   69.9480  223.2120 C   0  0  0  0  0  0  0  0  0  0  0  0
  140.0550   71.2550  223.5900 N   0  0  0  0  0  0  0  0  0  0  0  0
  140.2400   72.2400  222.5820 C   0  0  0  0  0  0  0  0  0  0  0  0
  139.4080   73.3160  222.5390 N   0  0  0  0  0  0  0  0  0  0  0  0
  139.5630   74.2570  221.5990 C   0  0  0  0  0  0  0  0  0  0  0  0
  138.7360   75.4070  221.4950 N   0  0  0  0  0  0  0  0  0  0  0  0
  138.8390   76.5160  222.4540 C   0  0  0  0  0  0  0  0  0  0  0  0
  140.2990   76.8680  222.5730 C   0  0  0  0  0  0  0  0  0  0  0  0
  140.5640   78.3250  222.7520 C   0  0  0  0  0  0  0  0  0  0  0  0
  141.8430   78.6340  223.4500 C   0  0  0  0  0  0  0  0  0  0  0  0
  142.1000   80.1210  223.3920 C   0  0  0  0  0  0  0  0  0  0  0  0
  141.0300   80.7340  222.7600 O   0  0  0  0  0  0  0  0  0  0  0  0
  139.8410   80.5300  223.4570 C   0  0  0  0  0  0  0  0  0  0  0  0
  139.3950   79.0690  223.4150 C   0  0  0  0  0  0  0  0  0  0  0  0
  140.5540   74.1110  220.7060 N   0  0  0  0  0  0  0  0  0  0  0  0
  141.4000   73.0660  220.7090 C   0  0  0  0  0  0  0  0  0  0  0  0
  142.4970   72.8740  219.7520 C   0  0  1  0  0  0  0  0  0  0  0  0
  142.3750   73.9530  218.6960 C   0  0  0  0  0  0  0  0  0  0  0  0
  143.0990   75.1120  219.3460 C   0  0  0  0  0  0  0  0  0  0  0  0
  144.2140   74.4380  220.0540 C   0  0  0  0  0  0  0  0  0  0  0  0
  145.4610   74.8180  220.5010 C   0  0  0  0  0  0  0  0  0  0  0  0
  146.3300   73.9680  221.1520 C   0  0  0  0  0  0  0  0  0  0  0  0
  145.9400   72.6420  221.3790 C   0  0  0  0  0  0  0  0  0  0  0  0
  144.7080   72.2650  220.9370 C   0  0  0  0  0  0  0  0  0  0  0  0
  143.8410   73.1310  220.2820 C   0  0  0  0  0  0  0  0  0  0  0  0
  141.2250   72.1340  221.6630 N   0  0  0  0  0  0  0  0  0  0  0  0
  140.3630   71.6040  224.9570 C   0  0  0  0  0  0  0  0  0  0  0  0
  140.2387   67.3666  228.2320 H   0  0  0  0  0  0  0  0  0  0  0  0
  141.6675   69.3147  228.7833 H   0  0  0  0  0  0  0  0  0  0  0  0
  141.7286   71.2692  227.2760 H   0  0  0  0  0  0  0  0  0  0  0  0
  138.8827   67.3965  226.1741 H   0  0  0  0  0  0  0  0  0  0  0  0
  138.4052   68.3129  224.0335 H   0  0  0  0  0  0  0  0  0  0  0  0
  137.7565   69.9098  224.4334 H   0  0  0  0  0  0  0  0  0  0  0  0
  140.4201   69.2827  223.0311 H   0  0  0  0  0  0  0  0  0  0  0  0
  138.9533   70.0599  222.3033 H   0  0  0  0  0  0  0  0  0  0  0  0
  138.0570   75.4210  220.7040 H   0  0  0  0  0  0  0  0  0  0  0  0
  138.2706   77.3841  222.0888 H   0  0  0  0  0  0  0  0  0  0  0  0
  138.4263   76.2264  223.4316 H   0  0  0  0  0  0  0  0  0  0  0  0
  140.7133   76.3329  223.4402 H   0  0  0  0  0  0  0  0  0  0  0  0
  140.7732   76.5746  221.6248 H   0  0  0  0  0  0  0  0  0  0  0  0
  140.6694   78.7006  221.7235 H   0  0  0  0  0  0  0  0  0  0  0  0
  141.7744   78.3142  224.5002 H   0  0  0  0  0  0  0  0  0  0  0  0
  142.6686   78.0991  222.9577 H   0  0  0  0  0  0  0  0  0  0  0  0
  142.2040   80.5184  224.4124 H   0  0  0  0  0  0  0  0  0  0  0  0
  143.0273   80.3189  222.8343 H   0  0  0  0  0  0  0  0  0  0  0  0
  139.9893   80.8258  224.5060 H   0  0  0  0  0  0  0  0  0  0  0  0
  139.0587   81.1375  222.9785 H   0  0  0  0  0  0  0  0  0  0  0  0
  139.2187   78.6876  224.4316 H   0  0  0  0  0  0  0  0  0  0  0  0
  138.4514   78.9369  222.8652 H   0  0  0  0  0  0  0  0  0  0  0  0
  142.4062   71.8269  219.4273 H   0  0  0  0  0  0  0  0  0  0  0  0
  142.8642   73.6515  217.7580 H   0  0  0  0  0  0  0  0  0  0  0  0
  141.3369   74.1811  218.4126 H   0  0  0  0  0  0  0  0  0  0  0  0
  143.4763   75.8182  218.5918 H   0  0  0  0  0  0  0  0  0  0  0  0
  142.4586   75.7128  220.0085 H   0  0  0  0  0  0  0  0  0  0  0  0
  145.7807   75.8564  220.3291 H   0  0  0  0  0  0  0  0  0  0  0  0
  147.3145   74.3258  221.4879 H   0  0  0  0  0  0  0  0  0  0  0  0
  146.6034   71.9321  221.8946 H   0  0  0  0  0  0  0  0  0  0  0  0
  144.3846   71.2273  221.1064 H   0  0  0  0  0  0  0  0  0  0  0  0
  141.3692   72.0473  224.9892 H   0  0  0  0  0  0  0  0  0  0  0  0
  139.5958   72.3134  225.3006 H   0  0  0  0  0  0  0  0  0  0  0  0
  1  2  2  0
  2  3  1  0
  3  4  2  0
  4  5  1  0
  5  6  2  0
  5  7  1  0
  7  8  1  0
  8  9  1  0
  9 10  1  0
 10 11  2  0
 11 12  1  0
 12 13  1  0
 13 14  1  0
 14 15  1  0
 15 16  1  0
 16 17  1  0
 17 18  1  0
 18 19  1  0
 19 20  1  0
 20 21  1  0
 12 22  2  0
 22 23  1  0
 23 24  1  0
 24 25  1  0
 25 26  1  0
 26 27  1  0
 27 28  2  0
 28 29  1  0
 29 30  2  0
 30 31  1  0
 31 32  2  0
 23 33  2  0
  9 34  1  0
  6  1  1  0
 33 10  1  0
 34  4  1  0
 21 16  1  0
 32 24  1  0
 32 27  1  0
  1 35  1  0
  2 36  1  0
  3 37  1  0
  6 38  1  0
  7 39  1  0
  7 40  1  0
  8 41  1  0
  8 42  1  0
 13 43  1  0
 14 44  1  0
 14 45  1  0
 15 46  1  0
 15 47  1  0
 16 48  1  0
 17 49  1  0
 17 50  1  0
 18 51  1  0
 18 52  1  0
 20 53  1  0
 20 54  1  0
 21 55  1  0
 21 56  1  0
 24 57  1  6
 25 58  1  0
 25 59  1  0
 26 60  1  0
 26 61  1  0
 28 62  1  0
 29 63  1  0
 30 64  1  0
 31 65  1  0
 34 66  1  0
 34 67  1  0
M  END
>  <smiles>  (82) 
c1ccc2c(c1)CCN(c1nc(NCCC3CCOCC3)nc(C3CCc4ccccc43)n1)C2

>  <score_type>  (82) 
oracle

>  <origin>  (82) 
autodockgpu

>  <m_score__min__energy>  (82) 
-9.8699999999999992

>  <m_primary>  (82) 
energy

>  <rmsd>  (82) 
8.02400898144708

>  <m_score__min__rmsd>  (82) 
8.02400898144708

>  <meeko>  (82) 
{"free_energy": -9.55, "intermolecular_energy": -11.34, "internal_energy": -1.37, "cluster_size": 26, "cluster_id": 1, "rank_in_cluster": 12}

>  <energy>  (82) 
-9.58

>  <cluster_rmsd>  (82) 
1.1

>  <cluster>  (82) 
2

$$$$

     RDKit          3D

 67 72  0  0  0  0  0  0  0  0999 V2000
  142.1650   81.2800  222.5840 C   0  0  0  0  0  0  0  0  0  0  0  0
  142.5260   80.5140  223.6620 C   0  0  0  0  0  0  0  0  0  0  0  0
  142.1720   79.1830  223.7130 C   0  0  0  0  0  0  0  0  0  0  0  0
  141.4500   78.5930  222.6820 C   0  0  0  0  0  0  0  0  0  0  0  0
  141.0800   79.3620  221.5830 C   0  0  0  0  0  0  0  0  0  0  0  0
  141.4500   80.7010  221.5610 C   0  0  0  0  0  0  0  0  0  0  0  0
  140.3000   78.7630  220.4490 C   0  0  0  0  0  0  0  0  0  0  0  0
  139.2630   77.8570  221.0940 C   0  0  0  0  0  0  0  0  0  0  0  0
  139.8760   76.8840  221.9720 N   0  0  0  0  0  0  0  0  0  0  0  0
  139.2890   75.5960  222.0920 C   0  0  0  0  0  0  0  0  0  0  0  0
  140.0910   74.4990  222.1520 N   0  0  0  0  0  0  0  0  0  0  0  0
  139.5600   73.2750  222.2650 C   0  0  0  0  0  0  0  0  0  0  0  0
  140.3350   72.0860  222.3370 N   0  0  0  0  0  0  0  0  0  0  0  0
  139.9730   70.9880  223.2450 C   0  0  0  0  0  0  0  0  0  0  0  0
  140.2930   71.4440  224.6450 C   0  0  0  0  0  0  0  0  0  0  0  0
  140.4100   70.3360  225.6370 C   0  0  0  0  0  0  0  0  0  0  0  0
  139.3290   69.3150  225.5460 C   0  0  0  0  0  0  0  0  0  0  0  0
  139.6610   68.1510  226.4480 C   0  0  0  0  0  0  0  0  0  0  0  0
  140.8400   68.4320  227.1230 O   0  0  0  0  0  0  0  0  0  0  0  0
  140.7130   69.5690  227.9180 C   0  0  0  0  0  0  0  0  0  0  0  0
  140.5570   70.8390  227.0810 C   0  0  0  0  0  0  0  0  0  0  0  0
  138.2240   73.1600  222.3170 N   0  0  0  0  0  0  0  0  0  0  0  0
  137.3910   74.2130  222.2610 C   0  0  0  0  0  0  0  0  0  0  0  0
  135.9260   74.1280  222.3180 C   0  0  1  0  0  0  0  0  0  0  0  0
  135.5600   72.6640  222.4490 C   0  0  0  0  0  0  0  0  0  0  0  0
  135.6660   72.4460  223.9420 C   0  0  0  0  0  0  0  0  0  0  0  0
  135.1520   73.7240  224.4900 C   0  0  0  0  0  0  0  0  0  0  0  0
  134.5830   74.1190  225.6820 C   0  0  0  0  0  0  0  0  0  0  0  0
  134.1800   75.4110  225.9440 C   0  0  0  0  0  0  0  0  0  0  0  0
  134.3510   76.3890  224.9560 C   0  0  0  0  0  0  0  0  0  0  0  0
  134.9130   75.9990  223.7770 C   0  0  0  0  0  0  0  0  0  0  0  0
  135.3140   74.6940  223.5250 C   0  0  0  0  0  0  0  0  0  0  0  0
  137.9480   75.4340  222.1480 N   0  0  0  0  0  0  0  0  0  0  0  0
  141.0710   77.1680  222.7330 C   0  0  0  0  0  0  0  0  0  0  0  0
  142.4432   82.3432  222.5375 H   0  0  0  0  0  0  0  0  0  0  0  0
  143.0989   80.9621  224.4872 H   0  0  0  0  0  0  0  0  0  0  0  0
  142.4655   78.5779  224.5835 H   0  0  0  0  0  0  0  0  0  0  0  0
  141.1619   81.3184  220.6974 H   0  0  0  0  0  0  0  0  0  0  0  0
  139.8074   79.5531  219.8632 H   0  0  0  0  0  0  0  0  0  0  0  0
  140.9510   78.2066  219.7586 H   0  0  0  0  0  0  0  0  0  0  0  0
  138.5641   78.4740  221.6779 H   0  0  0  0  0  0  0  0  0  0  0  0
  138.7363   77.3147  220.2949 H   0  0  0  0  0  0  0  0  0  0  0  0
  141.1670   72.0360  221.7120 H   0  0  0  0  0  0  0  0  0  0  0  0
  138.8994   70.7649  223.1574 H   0  0  0  0  0  0  0  0  0  0  0  0
  140.5315   70.0740  222.9947 H   0  0  0  0  0  0  0  0  0  0  0  0
  141.2489   71.9877  224.6207 H   0  0  0  0  0  0  0  0  0  0  0  0
  139.4527   72.0739  224.9722 H   0  0  0  0  0  0  0  0  0  0  0  0
  141.3442   69.8285  225.3548 H   0  0  0  0  0  0  0  0  0  0  0  0
  138.3745   69.7622  225.8604 H   0  0  0  0  0  0  0  0  0  0  0  0
  139.2434   68.9622  224.5076 H   0  0  0  0  0  0  0  0  0  0  0  0
  138.8469   68.0004  227.1723 H   0  0  0  0  0  0  0  0  0  0  0  0
  139.7814   67.2361  225.8493 H   0  0  0  0  0  0  0  0  0  0  0  0
  139.8272   69.4560  228.5603 H   0  0  0  0  0  0  0  0  0  0  0  0
  141.6297   69.6681  228.5179 H   0  0  0  0  0  0  0  0  0  0  0  0
  139.6626   71.4001  227.3897 H   0  0  0  0  0  0  0  0  0  0  0  0
  141.4096   71.5238  227.1993 H   0  0  0  0  0  0  0  0  0  0  0  0
  135.5779   74.6652  221.4234 H   0  0  0  0  0  0  0  0  0  0  0  0
  134.5382   72.4736  222.0888 H   0  0  0  0  0  0  0  0  0  0  0  0
  136.1984   71.9924  221.8562 H   0  0  0  0  0  0  0  0  0  0  0  0
  135.0456   71.5969  224.2648 H   0  0  0  0  0  0  0  0  0  0  0  0
  136.6846   72.2027  224.2785 H   0  0  0  0  0  0  0  0  0  0  0  0
  134.4429   73.3615  226.4672 H   0  0  0  0  0  0  0  0  0  0  0  0
  133.7310   75.6700  226.9142 H   0  0  0  0  0  0  0  0  0  0  0  0
  134.0436   77.4316  225.1250 H   0  0  0  0  0  0  0  0  0  0  0  0
  135.0554   76.7531  222.9889 H   0  0  0  0  0  0  0  0  0  0  0  0
  140.8958   76.8872  223.7820 H   0  0  0  0  0  0  0  0  0  0  0  0
  141.8941   76.5880  222.2902 H   0  0  0  0  0  0  0  0  0  0  0  0
  1  2  2  0
  2  3  1  0
  3  4  2  0
  4  5  1  0
  5  6  2  0
  5  7  1  0
  7  8  1  0
  8  9  1  0
  9 10  1  0
 10 11  2  0
 11 12  1  0
 12 13  1  0
 13 14  1  0
 14 15  1  0
 15 16  1  0
 16 17  1  0
 17 18  1  0
 18 19  1  0
 19 20  1  0
 20 21  1  0
 12 22  2  0
 22 23  1  0
 23 24  1  0
 24 25  1  0
 25 26  1  0
 26 27  1  0
 27 28  2  0
 28 29  1  0
 29 30  2  0
 30 31  1  0
 31 32  2  0
 23 33  2  0
  9 34  1  0
  6  1  1  0
 33 10  1  0
 34  4  1  0
 21 16  1  0
 32 24  1  0
 32 27  1  0
  1 35  1  0
  2 36  1  0
  3 37  1  0
  6 38  1  0
  7 39  1  0
  7 40  1  0
  8 41  1  0
  8 42  1  0
 13 43  1  0
 14 44  1  0
 14 45  1  0
 15 46  1  0
 15 47  1  0
 16 48  1  0
 17 49  1  0
 17 50  1  0
 18 51  1  0
 18 52  1  0
 20 53  1  0
 20 54  1  0
 21 55  1  0
 21 56  1  0
 24 57  1  6
 25 58  1  0
 25 59  1  0
 26 60  1  0
 26 61  1  0
 28 62  1  0
 29 63  1  0
 30 64  1  0
 31 65  1  0
 34 66  1  0
 34 67  1  0
M  END
>  <smiles>  (83) 
c1ccc2c(c1)CCN(c1nc(NCCC3CCOCC3)nc(C3CCc4ccccc43)n1)C2

>  <score_type>  (83) 
oracle

>  <origin>  (83) 
autodockgpu

>  <m_score__min__energy>  (83) 
-9.8699999999999992

>  <m_primary>  (83) 
energy

>  <rmsd>  (83) 
6.700874753318414

>  <m_score__min__rmsd>  (83) 
6.700874753318414

>  <meeko>  (83) 
{"free_energy": -9.19, "intermolecular_energy": -10.98, "internal_energy": -1.36, "cluster_size": 11, "cluster_id": 3, "rank_in_cluster": 6}

>  <energy>  (83) 
-9.41

>  <cluster_rmsd>  (83) 
1.38

>  <cluster>  (83) 
2

$$$$

     RDKit          3D

 67 72  0  0  0  0  0  0  0  0999 V2000
  141.0960   81.2980  223.7490 C   0  0  0  0  0  0  0  0  0  0  0  0
  142.3330   80.7710  223.4780 C   0  0  0  0  0  0  0  0  0  0  0  0
  142.4410   79.5460  222.8560 C   0  0  0  0  0  0  0  0  0  0  0  0
  141.3110   78.8260  222.4890 C   0  0  0  0  0  0  0  0  0  0  0  0
  140.0510   79.3510  222.7590 C   0  0  0  0  0  0  0  0  0  0  0  0
  139.9740   80.5880  223.3890 C   0  0  0  0  0  0  0  0  0  0  0  0
  138.8050   78.6050  222.3790 C   0  0  0  0  0  0  0  0  0  0  0  0
  139.0790   77.1480  222.7150 C   0  0  0  0  0  0  0  0  0  0  0  0
  140.2800   76.6670  222.0670 N   0  0  0  0  0  0  0  0  0  0  0  0
  140.3420   75.3110  221.6490 C   0  0  0  0  0  0  0  0  0  0  0  0
  139.6500   74.3660  222.3410 N   0  0  0  0  0  0  0  0  0  0  0  0
  139.6940   73.0810  221.9650 C   0  0  0  0  0  0  0  0  0  0  0  0
  138.9950   72.0420  222.6370 N   0  0  0  0  0  0  0  0  0  0  0  0
  139.7060   70.9120  223.2500 C   0  0  0  0  0  0  0  0  0  0  0  0
  140.6790   71.4850  224.2480 C   0  0  0  0  0  0  0  0  0  0  0  0
  140.4560   71.0280  225.6510 C   0  0  0  0  0  0  0  0  0  0  0  0
  141.1680   71.8380  226.6780 C   0  0  0  0  0  0  0  0  0  0  0  0
  140.7110   71.4170  228.0540 C   0  0  0  0  0  0  0  0  0  0  0  0
  139.8160   70.3660  227.9250 O   0  0  0  0  0  0  0  0  0  0  0  0
  140.4120   69.2640  227.3140 C   0  0  0  0  0  0  0  0  0  0  0  0
  140.7460   69.5330  225.8470 C   0  0  0  0  0  0  0  0  0  0  0  0
  140.4340   72.7530  220.8950 N   0  0  0  0  0  0  0  0  0  0  0  0
  141.1340   73.6500  220.1800 C   0  0  0  0  0  0  0  0  0  0  0  0
  141.9510   73.3290  219.0030 C   0  0  1  0  0  0  0  0  0  0  0  0
  142.3670   74.6390  218.3660 C   0  0  0  0  0  0  0  0  0  0  0  0
  143.5990   75.0010  219.1670 C   0  0  0  0  0  0  0  0  0  0  0  0
  144.2330   73.6800  219.3930 C   0  0  0  0  0  0  0  0  0  0  0  0
  145.5120   73.2420  219.6630 C   0  0  0  0  0  0  0  0  0  0  0  0
  145.8440   71.9150  219.8360 C   0  0  0  0  0  0  0  0  0  0  0  0
  144.8380   70.9450  219.7330 C   0  0  0  0  0  0  0  0  0  0  0  0
  143.5740   71.3770  219.4650 C   0  0  0  0  0  0  0  0  0  0  0  0
  143.2530   72.7170  219.2940 C   0  0  0  0  0  0  0  0  0  0  0  0
  141.0750   74.9350  220.5760 N   0  0  0  0  0  0  0  0  0  0  0  0
  141.4230   77.5150  221.8220 C   0  0  0  0  0  0  0  0  0  0  0  0
  141.0024   82.2743  224.2470 H   0  0  0  0  0  0  0  0  0  0  0  0
  143.2401   81.3269  223.7575 H   0  0  0  0  0  0  0  0  0  0  0  0
  143.4382   79.1315  222.6467 H   0  0  0  0  0  0  0  0  0  0  0  0
  138.9831   81.0131  223.6068 H   0  0  0  0  0  0  0  0  0  0  0  0
  137.9449   78.9763  222.9555 H   0  0  0  0  0  0  0  0  0  0  0  0
  138.5615   78.7372  221.3145 H   0  0  0  0  0  0  0  0  0  0  0  0
  139.1974   77.0493  223.8041 H   0  0  0  0  0  0  0  0  0  0  0  0
  138.2307   76.5473  222.3552 H   0  0  0  0  0  0  0  0  0  0  0  0
  137.9570   72.1270  222.6710 H   0  0  0  0  0  0  0  0  0  0  0  0
  138.9912   70.2486  223.7589 H   0  0  0  0  0  0  0  0  0  0  0  0
  140.2331   70.3220  222.4858 H   0  0  0  0  0  0  0  0  0  0  0  0
  141.6953   71.1911  223.9468 H   0  0  0  0  0  0  0  0  0  0  0  0
  140.5317   72.5751  224.2433 H   0  0  0  0  0  0  0  0  0  0  0  0
  139.3802   71.1908  225.8129 H   0  0  0  0  0  0  0  0  0  0  0  0
  142.2522   71.6764  226.5860 H   0  0  0  0  0  0  0  0  0  0  0  0
  140.9428   72.9040  226.5262 H   0  0  0  0  0  0  0  0  0  0  0  0
  141.5780   71.0935  228.6487 H   0  0  0  0  0  0  0  0  0  0  0  0
  140.2239   72.2628  228.5613 H   0  0  0  0  0  0  0  0  0  0  0  0
  141.3407   69.0197  227.8505 H   0  0  0  0  0  0  0  0  0  0  0  0
  139.6985   68.4277  227.3519 H   0  0  0  0  0  0  0  0  0  0  0  0
  141.8043   69.3128  225.6431 H   0  0  0  0  0  0  0  0  0  0  0  0
  140.1597   68.9014  225.1633 H   0  0  0  0  0  0  0  0  0  0  0  0
  141.3291   72.6443  218.4077 H   0  0  0  0  0  0  0  0  0  0  0  0
  142.6074   74.5069  217.3008 H   0  0  0  0  0  0  0  0  0  0  0  0
  141.5830   75.4103  218.3853 H   0  0  0  0  0  0  0  0  0  0  0  0
  144.2622   75.6681  218.5969 H   0  0  0  0  0  0  0  0  0  0  0  0
  143.3742   75.5448  220.0964 H   0  0  0  0  0  0  0  0  0  0  0  0
  146.3118   73.9927  219.7449 H   0  0  0  0  0  0  0  0  0  0  0  0
  146.8822   71.6224  220.0515 H   0  0  0  0  0  0  0  0  0  0  0  0
  145.0603   69.8756  219.8635 H   0  0  0  0  0  0  0  0  0  0  0  0
  142.7710   70.6300  219.3802 H   0  0  0  0  0  0  0  0  0  0  0  0
  142.3248   77.0066  222.1938 H   0  0  0  0  0  0  0  0  0  0  0  0
  141.4767   77.6964  220.7384 H   0  0  0  0  0  0  0  0  0  0  0  0
  1  2  2  0
  2  3  1  0
  3  4  2  0
  4  5  1  0
  5  6  2  0
  5  7  1  0
  7  8  1  0
  8  9  1  0
  9 10  1  0
 10 11  2  0
 11 12  1  0
 12 13  1  0
 13 14  1  0
 14 15  1  0
 15 16  1  0
 16 17  1  0
 17 18  1  0
 18 19  1  0
 19 20  1  0
 20 21  1  0
 12 22  2  0
 22 23  1  0
 23 24  1  0
 24 25  1  0
 25 26  1  0
 26 27  1  0
 27 28  2  0
 28 29  1  0
 29 30  2  0
 30 31  1  0
 31 32  2  0
 23 33  2  0
  9 34  1  0
  6  1  1  0
 33 10  1  0
 34  4  1  0
 21 16  1  0
 32 24  1  0
 32 27  1  0
  1 35  1  0
  2 36  1  0
  3 37  1  0
  6 38  1  0
  7 39  1  0
  7 40  1  0
  8 41  1  0
  8 42  1  0
 13 43  1  0
 14 44  1  0
 14 45  1  0
 15 46  1  0
 15 47  1  0
 16 48  1  0
 17 49  1  0
 17 50  1  0
 18 51  1  0
 18 52  1  0
 20 53  1  0
 20 54  1  0
 21 55  1  0
 21 56  1  0
 24 57  1  6
 25 58  1  0
 25 59  1  0
 26 60  1  0
 26 61  1  0
 28 62  1  0
 29 63  1  0
 30 64  1  0
 31 65  1  0
 34 66  1  0
 34 67  1  0
M  END
>  <smiles>  (84) 
c1ccc2c(c1)CCN(c1nc(NCCC3CCOCC3)nc(C3CCc4ccccc43)n1)C2

>  <score_type>  (84) 
oracle

>  <origin>  (84) 
autodockgpu

>  <m_score__min__energy>  (84) 
-9.8699999999999992

>  <m_primary>  (84) 
energy

>  <rmsd>  (84) 
8.278881357204824

>  <m_score__min__rmsd>  (84) 
8.278881357204824

>  <meeko>  (84) 
{"free_energy": -9.69, "intermolecular_energy": -11.48, "internal_energy": -1.29, "cluster_size": 11, "cluster_id": 2, "rank_in_cluster": 4}

>  <energy>  (84) 
-9.4

>  <cluster_rmsd>  (84) 
1.97

>  <cluster>  (84) 
2

$$$$

     RDKit          3D

 67 72  0  0  0  0  0  0  0  0999 V2000
  138.5160   80.7330  223.9630 C   0  0  0  0  0  0  0  0  0  0  0  0
  139.8820   80.6740  223.8530 C   0  0  0  0  0  0  0  0  0  0  0  0
  140.4800   79.5830  223.2590 C   0  0  0  0  0  0  0  0  0  0  0  0
  139.7200   78.5310  222.7620 C   0  0  0  0  0  0  0  0  0  0  0  0
  138.3340   78.5820  222.8680 C   0  0  0  0  0  0  0  0  0  0  0  0
  137.7600   79.6940  223.4720 C   0  0  0  0  0  0  0  0  0  0  0  0
  137.4770   77.4660  222.3430 C   0  0  0  0  0  0  0  0  0  0  0  0
  138.1950   76.1820  222.7230 C   0  0  0  0  0  0  0  0  0  0  0  0
  139.5570   76.1650  222.2340 N   0  0  0  0  0  0  0  0  0  0  0  0
  140.1330   74.9290  221.8390 C   0  0  0  0  0  0  0  0  0  0  0  0
  139.8000   73.7920  222.5090 N   0  0  0  0  0  0  0  0  0  0  0  0
  140.3310   72.6150  222.1540 C   0  0  0  0  0  0  0  0  0  0  0  0
  140.0280   71.3890  222.8050 N   0  0  0  0  0  0  0  0  0  0  0  0
  139.5540   71.3550  224.1960 C   0  0  0  0  0  0  0  0  0  0  0  0
  140.7690   71.2250  225.0780 C   0  0  0  0  0  0  0  0  0  0  0  0
  140.7030   70.0920  226.0460 C   0  0  0  0  0  0  0  0  0  0  0  0
  139.7950   68.9850  225.6330 C   0  0  0  0  0  0  0  0  0  0  0  0
  139.9650   67.8180  226.5770 C   0  0  0  0  0  0  0  0  0  0  0  0
  140.8700   68.1730  227.5660 O   0  0  0  0  0  0  0  0  0  0  0  0
  140.4140   69.2610  228.3060 C   0  0  0  0  0  0  0  0  0  0  0  0
  140.3830   70.5460  227.4780 C   0  0  0  0  0  0  0  0  0  0  0  0
  141.1940   72.5860  221.1270 N   0  0  0  0  0  0  0  0  0  0  0  0
  141.5530   73.6810  220.4350 C   0  0  0  0  0  0  0  0  0  0  0  0
  142.4900   73.6880  219.3050 C   0  0  1  0  0  0  0  0  0  0  0  0
  142.9290   75.1210  219.0860 C   0  0  0  0  0  0  0  0  0  0  0  0
  144.0660   75.2560  220.0750 C   0  0  0  0  0  0  0  0  0  0  0  0
  144.7120   73.9230  220.0040 C   0  0  0  0  0  0  0  0  0  0  0  0
  145.9700   73.4300  220.2770 C   0  0  0  0  0  0  0  0  0  0  0  0
  146.3200   72.1060  220.1220 C   0  0  0  0  0  0  0  0  0  0  0  0
  145.3580   71.1980  219.6630 C   0  0  0  0  0  0  0  0  0  0  0  0
  144.1140   71.6850  219.3930 C   0  0  0  0  0  0  0  0  0  0  0  0
  143.7730   73.0210  219.5530 C   0  0  0  0  0  0  0  0  0  0  0  0
  141.0070   74.8530  220.8090 N   0  0  0  0  0  0  0  0  0  0  0  0
  140.3580   77.3630  222.1250 C   0  0  0  0  0  0  0  0  0  0  0  0
  138.0318   81.5993  224.4374 H   0  0  0  0  0  0  0  0  0  0  0  0
  140.5006   81.4976  224.2389 H   0  0  0  0  0  0  0  0  0  0  0  0
  141.5763   79.5446  223.1772 H   0  0  0  0  0  0  0  0  0  0  0  0
  136.6647   79.7451  223.5604 H   0  0  0  0  0  0  0  0  0  0  0  0
  136.4793   77.4987  222.8052 H   0  0  0  0  0  0  0  0  0  0  0  0
  137.3317   77.5431  221.2554 H   0  0  0  0  0  0  0  0  0  0  0  0
  138.2088   76.0924  223.8193 H   0  0  0  0  0  0  0  0  0  0  0  0
  137.6559   75.3395  222.2652 H   0  0  0  0  0  0  0  0  0  0  0  0
  140.1580   70.5200  222.2430 H   0  0  0  0  0  0  0  0  0  0  0  0
  139.0140   72.2836  224.4329 H   0  0  0  0  0  0  0  0  0  0  0  0
  138.8654   70.5117  224.3533 H   0  0  0  0  0  0  0  0  0  0  0  0
  141.6486   71.0779  224.4341 H   0  0  0  0  0  0  0  0  0  0  0  0
  140.8271   72.1475  225.6743 H   0  0  0  0  0  0  0  0  0  0  0  0
  141.7230   69.6802  226.0378 H   0  0  0  0  0  0  0  0  0  0  0  0
  138.7524   69.3342  225.6651 H   0  0  0  0  0  0  0  0  0  0  0  0
  140.0434   68.6686  224.6092 H   0  0  0  0  0  0  0  0  0  0  0  0
  138.9963   67.5680  227.0344 H   0  0  0  0  0  0  0  0  0  0  0  0
  140.3374   66.9419  226.0259 H   0  0  0  0  0  0  0  0  0  0  0  0
  139.3967   69.0451  228.6644 H   0  0  0  0  0  0  0  0  0  0  0  0
  141.1080   69.4151  229.1454 H   0  0  0  0  0  0  0  0  0  0  0  0
  139.3884   71.0137  227.5240 H   0  0  0  0  0  0  0  0  0  0  0  0
  141.0969   71.2972  227.8468 H   0  0  0  0  0  0  0  0  0  0  0  0
  141.9491   73.1875  218.4883 H   0  0  0  0  0  0  0  0  0  0  0  0
  143.2758   75.2796  218.0542 H   0  0  0  0  0  0  0  0  0  0  0  0
  142.1254   75.8582  219.2305 H   0  0  0  0  0  0  0  0  0  0  0  0
  144.7627   76.0521  219.7737 H   0  0  0  0  0  0  0  0  0  0  0  0
  143.7363   75.5305  221.0879 H   0  0  0  0  0  0  0  0  0  0  0  0
  146.7363   74.1316  220.6383 H   0  0  0  0  0  0  0  0  0  0  0  0
  147.3403   71.7675  220.3555 H   0  0  0  0  0  0  0  0  0  0  0  0
  145.5970   70.1331  219.5257 H   0  0  0  0  0  0  0  0  0  0  0  0
  143.3445   70.9869  219.0316 H   0  0  0  0  0  0  0  0  0  0  0  0
  141.3287   77.1833  222.6103 H   0  0  0  0  0  0  0  0  0  0  0  0
  140.4756   77.5894  221.0550 H   0  0  0  0  0  0  0  0  0  0  0  0
  1  2  2  0
  2  3  1  0
  3  4  2  0
  4  5  1  0
  5  6  2  0
  5  7  1  0
  7  8  1  0
  8  9  1  0
  9 10  1  0
 10 11  2  0
 11 12  1  0
 12 13  1  0
 13 14  1  0
 14 15  1  0
 15 16  1  0
 16 17  1  0
 17 18  1  0
 18 19  1  0
 19 20  1  0
 20 21  1  0
 12 22  2  0
 22 23  1  0
 23 24  1  0
 24 25  1  0
 25 26  1  0
 26 27  1  0
 27 28  2  0
 28 29  1  0
 29 30  2  0
 30 31  1  0
 31 32  2  0
 23 33  2  0
  9 34  1  0
  6  1  1  0
 33 10  1  0
 34  4  1  0
 21 16  1  0
 32 24  1  0
 32 27  1  0
  1 35  1  0
  2 36  1  0
  3 37  1  0
  6 38  1  0
  7 39  1  0
  7 40  1  0
  8 41  1  0
  8 42  1  0
 13 43  1  0
 14 44  1  0
 14 45  1  0
 15 46  1  0
 15 47  1  0
 16 48  1  0
 17 49  1  0
 17 50  1  0
 18 51  1  0
 18 52  1  0
 20 53  1  0
 20 54  1  0
 21 55  1  0
 21 56  1  0
 24 57  1  6
 25 58  1  0
 25 59  1  0
 26 60  1  0
 26 61  1  0
 28 62  1  0
 29 63  1  0
 30 64  1  0
 31 65  1  0
 34 66  1  0
 34 67  1  0
M  END
>  <smiles>  (85) 
c1ccc2c(c1)CCN(c1nc(NCCC3CCOCC3)nc(C3CCc4ccccc43)n1)C2

>  <score_type>  (85) 
oracle

>  <origin>  (85) 
autodockgpu

>  <m_score__min__energy>  (85) 
-9.8699999999999992

>  <m_primary>  (85) 
energy

>  <rmsd>  (85) 
8.438898504657095

>  <m_score__min__rmsd>  (85) 
8.438898504657095

>  <meeko>  (85) 
{"free_energy": -9.58, "intermolecular_energy": -11.37, "internal_energy": -1.21, "cluster_size": 11, "cluster_id": 2, "rank_in_cluster": 6}

>  <energy>  (85) 
-9.39

>  <cluster_rmsd>  (85) 
0.92

>  <cluster>  (85) 
2

$$$$

     RDKit          3D

 67 72  0  0  0  0  0  0  0  0999 V2000
  142.1960   81.2420  222.5860 C   0  0  0  0  0  0  0  0  0  0  0  0
  142.4890   80.4790  223.6880 C   0  0  0  0  0  0  0  0  0  0  0  0
  142.1040   79.1560  223.7330 C   0  0  0  0  0  0  0  0  0  0  0  0
  141.4210   78.5710  222.6740 C   0  0  0  0  0  0  0  0  0  0  0  0
  141.1200   79.3360  221.5520 C   0  0  0  0  0  0  0  0  0  0  0  0
  141.5190   80.6670  221.5360 C   0  0  0  0  0  0  0  0  0  0  0  0
  140.3830   78.7420  220.3870 C   0  0  0  0  0  0  0  0  0  0  0  0
  139.2970   77.8650  220.9890 C   0  0  0  0  0  0  0  0  0  0  0  0
  139.8460   76.8880  221.9050 N   0  0  0  0  0  0  0  0  0  0  0  0
  139.2270   75.6140  222.0070 C   0  0  0  0  0  0  0  0  0  0  0  0
  139.9990   74.4940  222.0160 N   0  0  0  0  0  0  0  0  0  0  0  0
  139.4370   73.2820  222.1120 C   0  0  0  0  0  0  0  0  0  0  0  0
  140.1800   72.0710  222.1300 N   0  0  0  0  0  0  0  0  0  0  0  0
  140.7280   71.5260  223.3790 C   0  0  0  0  0  0  0  0  0  0  0  0
  139.5600   71.1140  224.2370 C   0  0  0  0  0  0  0  0  0  0  0  0
  139.8800   70.9920  225.6890 C   0  0  0  0  0  0  0  0  0  0  0  0
  140.9920   71.8720  226.1470 C   0  0  0  0  0  0  0  0  0  0  0  0
  141.0870   71.8150  227.6530 C   0  0  0  0  0  0  0  0  0  0  0  0
  140.1470   70.9130  228.1270 O   0  0  0  0  0  0  0  0  0  0  0  0
  140.3780   69.6310  227.6330 C   0  0  0  0  0  0  0  0  0  0  0  0
  140.1240   69.5410  226.1290 C   0  0  0  0  0  0  0  0  0  0  0  0
  138.1010   73.2030  222.1990 N   0  0  0  0  0  0  0  0  0  0  0  0
  137.2960   74.2800  222.1960 C   0  0  0  0  0  0  0  0  0  0  0  0
  135.8320   74.2330  222.2930 C   0  0  1  0  0  0  0  0  0  0  0  0
  135.4260   72.7750  222.3630 C   0  0  0  0  0  0  0  0  0  0  0  0
  135.5690   72.4800  223.8400 C   0  0  0  0  0  0  0  0  0  0  0  0
  135.1090   73.7430  224.4650 C   0  0  0  0  0  0  0  0  0  0  0  0
  134.5870   74.0940  225.6920 C   0  0  0  0  0  0  0  0  0  0  0  0
  134.2310   75.3830  226.0290 C   0  0  0  0  0  0  0  0  0  0  0  0
  134.4020   76.4040  225.0850 C   0  0  0  0  0  0  0  0  0  0  0  0
  134.9170   76.0570  223.8720 C   0  0  0  0  0  0  0  0  0  0  0  0
  135.2720   74.7560  223.5450 C   0  0  0  0  0  0  0  0  0  0  0  0
  137.8840   75.4870  222.0980 N   0  0  0  0  0  0  0  0  0  0  0  0
  141.0090   77.1550  222.7200 C   0  0  0  0  0  0  0  0  0  0  0  0
  142.4983   82.2988  222.5429 H   0  0  0  0  0  0  0  0  0  0  0  0
  143.0312   80.9230  224.5358 H   0  0  0  0  0  0  0  0  0  0  0  0
  142.3415   78.5535  224.6222 H   0  0  0  0  0  0  0  0  0  0  0  0
  141.2855   81.2813  220.6539 H   0  0  0  0  0  0  0  0  0  0  0  0
  139.9365   79.5362  219.7707 H   0  0  0  0  0  0  0  0  0  0  0  0
  141.0545   78.1650  219.7342 H   0  0  0  0  0  0  0  0  0  0  0  0
  138.5842   78.5025  221.5325 H   0  0  0  0  0  0  0  0  0  0  0  0
  138.7979   77.3258  220.1704 H   0  0  0  0  0  0  0  0  0  0  0  0
  140.3110   71.5940  221.2120 H   0  0  0  0  0  0  0  0  0  0  0  0
  141.3628   70.6540  223.1629 H   0  0  0  0  0  0  0  0  0  0  0  0
  141.3450   72.2767  223.8945 H   0  0  0  0  0  0  0  0  0  0  0  0
  138.7650   71.8653  224.1210 H   0  0  0  0  0  0  0  0  0  0  0  0
  139.2547   70.1138  223.8958 H   0  0  0  0  0  0  0  0  0  0  0  0
  138.9689   71.3515  226.1896 H   0  0  0  0  0  0  0  0  0  0  0  0
  141.9388   71.5270  225.7060 H   0  0  0  0  0  0  0  0  0  0  0  0
  140.7970   72.9070  225.8294 H   0  0  0  0  0  0  0  0  0  0  0  0
  142.0949   71.4874  227.9475 H   0  0  0  0  0  0  0  0  0  0  0  0
  140.8952   72.8116  228.0772 H   0  0  0  0  0  0  0  0  0  0  0  0
  141.4243   69.3568  227.8332 H   0  0  0  0  0  0  0  0  0  0  0  0
  139.6823   68.9433  228.1361 H   0  0  0  0  0  0  0  0  0  0  0  0
  140.9991   69.1205  225.6120 H   0  0  0  0  0  0  0  0  0  0  0  0
  139.2752   68.8841  225.8882 H   0  0  0  0  0  0  0  0  0  0  0  0
  135.4744   74.8232  221.4364 H   0  0  0  0  0  0  0  0  0  0  0  0
  134.3889   72.6321  222.0254 H   0  0  0  0  0  0  0  0  0  0  0  0
  136.0262   72.1158  221.7186 H   0  0  0  0  0  0  0  0  0  0  0  0
  134.9336   71.6336  224.1397 H   0  0  0  0  0  0  0  0  0  0  0  0
  136.5893   72.1918  224.1330 H   0  0  0  0  0  0  0  0  0  0  0  0
  134.4469   73.3026  226.4431 H   0  0  0  0  0  0  0  0  0  0  0  0
  133.8189   75.6062  227.0242 H   0  0  0  0  0  0  0  0  0  0  0  0
  134.1311   77.4452  225.3141 H   0  0  0  0  0  0  0  0  0  0  0  0
  135.0578   76.8446  223.1172 H   0  0  0  0  0  0  0  0  0  0  0  0
  140.7776   76.8891  223.7620 H   0  0  0  0  0  0  0  0  0  0  0  0
  141.8396   76.5532  222.3226 H   0  0  0  0  0  0  0  0  0  0  0  0
  1  2  2  0
  2  3  1  0
  3  4  2  0
  4  5  1  0
  5  6  2  0
  5  7  1  0
  7  8  1  0
  8  9  1  0
  9 10  1  0
 10 11  2  0
 11 12  1  0
 12 13  1  0
 13 14  1  0
 14 15  1  0
 15 16  1  0
 16 17  1  0
 17 18  1  0
 18 19  1  0
 19 20  1  0
 20 21  1  0
 12 22  2  0
 22 23  1  0
 23 24  1  0
 24 25  1  0
 25 26  1  0
 26 27  1  0
 27 28  2  0
 28 29  1  0
 29 30  2  0
 30 31  1  0
 31 32  2  0
 23 33  2  0
  9 34  1  0
  6  1  1  0
 33 10  1  0
 34  4  1  0
 21 16  1  0
 32 24  1  0
 32 27  1  0
  1 35  1  0
  2 36  1  0
  3 37  1  0
  6 38  1  0
  7 39  1  0
  7 40  1  0
  8 41  1  0
  8 42  1  0
 13 43  1  0
 14 44  1  0
 14 45  1  0
 15 46  1  0
 15 47  1  0
 16 48  1  0
 17 49  1  0
 17 50  1  0
 18 51  1  0
 18 52  1  0
 20 53  1  0
 20 54  1  0
 21 55  1  0
 21 56  1  0
 24 57  1  6
 25 58  1  0
 25 59  1  0
 26 60  1  0
 26 61  1  0
 28 62  1  0
 29 63  1  0
 30 64  1  0
 31 65  1  0
 34 66  1  0
 34 67  1  0
M  END
>  <smiles>  (86) 
c1ccc2c(c1)CCN(c1nc(NCCC3CCOCC3)nc(C3CCc4ccccc43)n1)C2

>  <score_type>  (86) 
oracle

>  <origin>  (86) 
autodockgpu

>  <m_score__min__energy>  (86) 
-9.8699999999999992

>  <m_primary>  (86) 
energy

>  <rmsd>  (86) 
6.7166543369928435

>  <m_score__min__rmsd>  (86) 
6.7166543369928435

>  <meeko>  (86) 
{"free_energy": -9.29, "intermolecular_energy": -11.08, "internal_energy": -1.45, "cluster_size": 11, "cluster_id": 3, "rank_in_cluster": 4}

>  <energy>  (86) 
-9.2

>  <cluster_rmsd>  (86) 
1.12

>  <cluster>  (86) 
2

$$$$

     RDKit          3D

 67 72  0  0  0  0  0  0  0  0999 V2000
  142.2030   81.5250  223.6190 C   0  0  0  0  0  0  0  0  0  0  0  0
  143.1260   80.5140  223.5310 C   0  0  0  0  0  0  0  0  0  0  0  0
  142.7380   79.2610  223.1080 C   0  0  0  0  0  0  0  0  0  0  0  0
  141.4170   78.9970  222.7640 C   0  0  0  0  0  0  0  0  0  0  0  0
  140.4740   80.0160  222.8500 C   0  0  0  0  0  0  0  0  0  0  0  0
  140.8950   81.2690  223.2810 C   0  0  0  0  0  0  0  0  0  0  0  0
  139.0380   79.7720  222.4880 C   0  0  0  0  0  0  0  0  0  0  0  0
  138.6950   78.4050  223.0580 C   0  0  0  0  0  0  0  0  0  0  0  0
  139.6080   77.3860  222.5870 N   0  0  0  0  0  0  0  0  0  0  0  0
  139.1220   76.0670  222.3820 C   0  0  0  0  0  0  0  0  0  0  0  0
  140.0040   75.0620  222.1280 N   0  0  0  0  0  0  0  0  0  0  0  0
  139.5700   73.8110  221.9310 C   0  0  0  0  0  0  0  0  0  0  0  0
  140.4310   72.7130  221.6650 N   0  0  0  0  0  0  0  0  0  0  0  0
  140.1470   71.3700  222.1900 C   0  0  0  0  0  0  0  0  0  0  0  0
  140.2910   71.4360  223.6880 C   0  0  0  0  0  0  0  0  0  0  0  0
  139.6950   70.2750  224.4110 C   0  0  0  0  0  0  0  0  0  0  0  0
  138.2060   70.2330  224.3820 C   0  0  0  0  0  0  0  0  0  0  0  0
  137.7300   68.9230  224.9610 C   0  0  0  0  0  0  0  0  0  0  0  0
  138.8310   68.1990  225.3940 O   0  0  0  0  0  0  0  0  0  0  0  0
  139.5280   68.8810  226.3890 C   0  0  0  0  0  0  0  0  0  0  0  0
  140.2100   70.1390  225.8520 C   0  0  0  0  0  0  0  0  0  0  0  0
  138.2500   73.5760  221.9910 N   0  0  0  0  0  0  0  0  0  0  0  0
  137.3410   74.5340  222.2380 C   0  0  0  0  0  0  0  0  0  0  0  0
  135.8910   74.3150  222.3140 C   0  0  1  0  0  0  0  0  0  0  0  0
  135.6610   72.8210  222.4130 C   0  0  0  0  0  0  0  0  0  0  0  0
  135.8110   72.5770  223.8980 C   0  0  0  0  0  0  0  0  0  0  0  0
  135.1930   73.7900  224.4870 C   0  0  0  0  0  0  0  0  0  0  0  0
  134.6110   74.1030  225.6960 C   0  0  0  0  0  0  0  0  0  0  0  0
  134.0980   75.3470  225.9970 C   0  0  0  0  0  0  0  0  0  0  0  0
  134.1630   76.3600  225.0320 C   0  0  0  0  0  0  0  0  0  0  0  0
  134.7380   76.0510  223.8360 C   0  0  0  0  0  0  0  0  0  0  0  0
  135.2510   74.7940  223.5450 C   0  0  0  0  0  0  0  0  0  0  0  0
  137.8010   75.7840  222.4330 N   0  0  0  0  0  0  0  0  0  0  0  0
  141.0000   77.6570  222.3110 C   0  0  0  0  0  0  0  0  0  0  0  0
  142.5054   82.5276  223.9556 H   0  0  0  0  0  0  0  0  0  0  0  0
  144.1761   80.7034  223.7981 H   0  0  0  0  0  0  0  0  0  0  0  0
  143.4856   78.4568  223.0415 H   0  0  0  0  0  0  0  0  0  0  0  0
  140.1577   82.0820  223.3540 H   0  0  0  0  0  0  0  0  0  0  0  0
  138.3940   80.5451  222.9325 H   0  0  0  0  0  0  0  0  0  0  0  0
  138.8825   79.8080  221.3996 H   0  0  0  0  0  0  0  0  0  0  0  0
  138.7488   78.4524  224.1557 H   0  0  0  0  0  0  0  0  0  0  0  0
  137.6811   78.1384  222.7249 H   0  0  0  0  0  0  0  0  0  0  0  0
  141.2700   72.9120  221.0800 H   0  0  0  0  0  0  0  0  0  0  0  0
  139.1229   71.0700  221.9230 H   0  0  0  0  0  0  0  0  0  0  0  0
  140.8406   70.6302  221.7639 H   0  0  0  0  0  0  0  0  0  0  0  0
  141.3632   71.4797  223.9300 H   0  0  0  0  0  0  0  0  0  0  0  0
  139.7427   72.3302  224.0194 H   0  0  0  0  0  0  0  0  0  0  0  0
  140.0441   69.4028  223.8388 H   0  0  0  0  0  0  0  0  0  0  0  0
  137.8037   71.0654  224.9780 H   0  0  0  0  0  0  0  0  0  0  0  0
  137.8560   70.3243  223.3432 H   0  0  0  0  0  0  0  0  0  0  0  0
  137.0578   69.1166  225.8099 H   0  0  0  0  0  0  0  0  0  0  0  0
  137.1851   68.3519  224.1949 H   0  0  0  0  0  0  0  0  0  0  0  0
  138.8225   69.1706  227.1817 H   0  0  0  0  0  0  0  0  0  0  0  0
  140.3093   68.2105  226.7765 H   0  0  0  0  0  0  0  0  0  0  0  0
  139.9282   71.0185  226.4496 H   0  0  0  0  0  0  0  0  0  0  0  0
  141.3069   70.0703  225.8979 H   0  0  0  0  0  0  0  0  0  0  0  0
  135.4806   74.8396  221.4386 H   0  0  0  0  0  0  0  0  0  0  0  0
  134.6547   72.5475  222.0628 H   0  0  0  0  0  0  0  0  0  0  0  0
  136.3477   72.2248  221.7942 H   0  0  0  0  0  0  0  0  0  0  0  0
  135.2751   71.6676  224.2075 H   0  0  0  0  0  0  0  0  0  0  0  0
  136.8529   72.4187  224.2132 H   0  0  0  0  0  0  0  0  0  0  0  0
  134.5523   73.3171  226.4634 H   0  0  0  0  0  0  0  0  0  0  0  0
  133.6445   75.5409  226.9802 H   0  0  0  0  0  0  0  0  0  0  0  0
  133.7653   77.3659  225.2319 H   0  0  0  0  0  0  0  0  0  0  0  0
  134.7986   76.8336  223.0653 H   0  0  0  0  0  0  0  0  0  0  0  0
  141.6145   76.9039  222.8260 H   0  0  0  0  0  0  0  0  0  0  0  0
  141.1378   77.6159  221.2204 H   0  0  0  0  0  0  0  0  0  0  0  0
  1  2  2  0
  2  3  1  0
  3  4  2  0
  4  5  1  0
  5  6  2  0
  5  7  1  0
  7  8  1  0
  8  9  1  0
  9 10  1  0
 10 11  2  0
 11 12  1  0
 12 13  1  0
 13 14  1  0
 14 15  1  0
 15 16  1  0
 16 17  1  0
 17 18  1  0
 18 19  1  0
 19 20  1  0
 20 21  1  0
 12 22  2  0
 22 23  1  0
 23 24  1  0
 24 25  1  0
 25 26  1  0
 26 27  1  0
 27 28  2  0
 28 29  1  0
 29 30  2  0
 30 31  1  0
 31 32  2  0
 23 33  2  0
  9 34  1  0
  6  1  1  0
 33 10  1  0
 34  4  1  0
 21 16  1  0
 32 24  1  0
 32 27  1  0
  1 35  1  0
  2 36  1  0
  3 37  1  0
  6 38  1  0
  7 39  1  0
  7 40  1  0
  8 41  1  0
  8 42  1  0
 13 43  1  0
 14 44  1  0
 14 45  1  0
 15 46  1  0
 15 47  1  0
 16 48  1  0
 17 49  1  0
 17 50  1  0
 18 51  1  0
 18 52  1  0
 20 53  1  0
 20 54  1  0
 21 55  1  0
 21 56  1  0
 24 57  1  6
 25 58  1  0
 25 59  1  0
 26 60  1  0
 26 61  1  0
 28 62  1  0
 29 63  1  0
 30 64  1  0
 31 65  1  0
 34 66  1  0
 34 67  1  0
M  END
>  <smiles>  (87) 
c1ccc2c(c1)CCN(c1nc(NCCC3CCOCC3)nc(C3CCc4ccccc43)n1)C2

>  <score_type>  (87) 
oracle

>  <origin>  (87) 
autodockgpu

>  <m_score__min__energy>  (87) 
-9.8699999999999992

>  <m_primary>  (87) 
energy

>  <rmsd>  (87) 
6.752118731375886

>  <m_score__min__rmsd>  (87) 
6.752118731375886

>  <meeko>  (87) 
{"free_energy": -8.95, "intermolecular_energy": -10.74, "internal_energy": -1.7, "cluster_size": 11, "cluster_id": 3, "rank_in_cluster": 9}

>  <energy>  (87) 
-9.02

>  <cluster_rmsd>  (87) 
1.44

>  <cluster>  (87) 
2

$$$$

     RDKit          3D

 67 72  0  0  0  0  0  0  0  0999 V2000
  138.1880   80.6350  223.8690 C   0  0  0  0  0  0  0  0  0  0  0  0
  139.5580   80.6290  223.8140 C   0  0  0  0  0  0  0  0  0  0  0  0
  140.2220   79.5570  223.2580 C   0  0  0  0  0  0  0  0  0  0  0  0
  139.5250   78.4700  222.7430 C   0  0  0  0  0  0  0  0  0  0  0  0
  138.1350   78.4670  222.7940 C   0  0  0  0  0  0  0  0  0  0  0  0
  137.4930   79.5610  223.3620 C   0  0  0  0  0  0  0  0  0  0  0  0
  137.3450   77.3120  222.2490 C   0  0  0  0  0  0  0  0  0  0  0  0
  138.0980   76.0610  222.6730 C   0  0  0  0  0  0  0  0  0  0  0  0
  139.4780   76.0950  222.2370 N   0  0  0  0  0  0  0  0  0  0  0  0
  140.1180   74.8780  221.8800 C   0  0  0  0  0  0  0  0  0  0  0  0
  139.8760   73.7560  222.6110 N   0  0  0  0  0  0  0  0  0  0  0  0
  140.4690   72.5980  222.2930 C   0  0  0  0  0  0  0  0  0  0  0  0
  140.2620   71.3880  223.0080 N   0  0  0  0  0  0  0  0  0  0  0  0
  139.0300   71.1500  223.7730 C   0  0  0  0  0  0  0  0  0  0  0  0
  139.2820   69.9620  224.6650 C   0  0  0  0  0  0  0  0  0  0  0  0
  139.7890   70.3140  226.0230 C   0  0  0  0  0  0  0  0  0  0  0  0
  140.7730   71.4340  226.0390 C   0  0  0  0  0  0  0  0  0  0  0  0
  141.0560   71.8320  227.4670 C   0  0  0  0  0  0  0  0  0  0  0  0
  140.3550   70.9870  228.3140 O   0  0  0  0  0  0  0  0  0  0  0  0
  140.7510   69.6620  228.1520 C   0  0  0  0  0  0  0  0  0  0  0  0
  140.3390   69.1020  226.7900 C   0  0  0  0  0  0  0  0  0  0  0  0
  141.3010   72.5740  221.2410 N   0  0  0  0  0  0  0  0  0  0  0  0
  141.5710   73.6550  220.4890 C   0  0  0  0  0  0  0  0  0  0  0  0
  142.4720   73.6660  219.3300 C   0  0  1  0  0  0  0  0  0  0  0  0
  142.9090   75.0990  219.1060 C   0  0  0  0  0  0  0  0  0  0  0  0
  144.0770   75.2240  220.0600 C   0  0  0  0  0  0  0  0  0  0  0  0
  144.7160   73.8890  219.9610 C   0  0  0  0  0  0  0  0  0  0  0  0
  145.9800   73.3900  220.1910 C   0  0  0  0  0  0  0  0  0  0  0  0
  146.3200   72.0650  220.0170 C   0  0  0  0  0  0  0  0  0  0  0  0
  145.3400   71.1630  219.5820 C   0  0  0  0  0  0  0  0  0  0  0  0
  144.0910   71.6560  219.3550 C   0  0  0  0  0  0  0  0  0  0  0  0
  143.7600   72.9930  219.5330 C   0  0  0  0  0  0  0  0  0  0  0  0
  140.9640   74.8070  220.8270 N   0  0  0  0  0  0  0  0  0  0  0  0
  140.2330   77.3220  222.1460 C   0  0  0  0  0  0  0  0  0  0  0  0
  137.6517   81.4869  224.3125 H   0  0  0  0  0  0  0  0  0  0  0  0
  140.1277   81.4807  224.2141 H   0  0  0  0  0  0  0  0  0  0  0  0
  141.3214   79.5615  223.2211 H   0  0  0  0  0  0  0  0  0  0  0  0
  136.3940   79.5686  223.4077 H   0  0  0  0  0  0  0  0  0  0  0  0
  136.3290   77.3094  222.6707 H   0  0  0  0  0  0  0  0  0  0  0  0
  137.2408   77.3717  221.1556 H   0  0  0  0  0  0  0  0  0  0  0  0
  138.0722   75.9837  223.7700 H   0  0  0  0  0  0  0  0  0  0  0  0
  137.6114   75.1921  222.2058 H   0  0  0  0  0  0  0  0  0  0  0  0
  141.0280   70.6820  222.9570 H   0  0  0  0  0  0  0  0  0  0  0  0
  138.7877   72.0336  224.3817 H   0  0  0  0  0  0  0  0  0  0  0  0
  138.1823   70.9591  223.0985 H   0  0  0  0  0  0  0  0  0  0  0  0
  138.3369   69.4114  224.7816 H   0  0  0  0  0  0  0  0  0  0  0  0
  140.0668   69.3631  224.1799 H   0  0  0  0  0  0  0  0  0  0  0  0
  138.8943   70.6752  226.5512 H   0  0  0  0  0  0  0  0  0  0  0  0
  141.7067   71.1092  225.5566 H   0  0  0  0  0  0  0  0  0  0  0  0
  140.3593   72.2945  225.4928 H   0  0  0  0  0  0  0  0  0  0  0  0
  142.1340   71.7458  227.6680 H   0  0  0  0  0  0  0  0  0  0  0  0
  140.7420   72.8729  227.6340 H   0  0  0  0  0  0  0  0  0  0  0  0
  141.8458   69.6052  228.2426 H   0  0  0  0  0  0  0  0  0  0  0  0
  140.2551   69.0623  228.9294 H   0  0  0  0  0  0  0  0  0  0  0  0
  141.2070   68.6732  226.2677 H   0  0  0  0  0  0  0  0  0  0  0  0
  139.5988   68.2931  226.8781 H   0  0  0  0  0  0  0  0  0  0  0  0
  141.9037   73.1725  218.5278 H   0  0  0  0  0  0  0  0  0  0  0  0
  143.2239   75.2628  218.0649 H   0  0  0  0  0  0  0  0  0  0  0  0
  142.1130   75.8380  219.2800 H   0  0  0  0  0  0  0  0  0  0  0  0
  144.7668   76.0196  219.7419 H   0  0  0  0  0  0  0  0  0  0  0  0
  143.7799   75.4933  221.0843 H   0  0  0  0  0  0  0  0  0  0  0  0
  146.7600   74.0866  220.5319 H   0  0  0  0  0  0  0  0  0  0  0  0
  147.3456   71.7212  220.2168 H   0  0  0  0  0  0  0  0  0  0  0  0
  145.5705   70.0982  219.4298 H   0  0  0  0  0  0  0  0  0  0  0  0
  143.3076   70.9628  219.0147 H   0  0  0  0  0  0  0  0  0  0  0  0
  141.1899   77.1865  222.6713 H   0  0  0  0  0  0  0  0  0  0  0  0
  140.3833   77.5420  221.0787 H   0  0  0  0  0  0  0  0  0  0  0  0
  1  2  2  0
  2  3  1  0
  3  4  2  0
  4  5  1  0
  5  6  2  0
  5  7  1  0
  7  8  1  0
  8  9  1  0
  9 10  1  0
 10 11  2  0
 11 12  1  0
 12 13  1  0
 13 14  1  0
 14 15  1  0
 15 16  1  0
 16 17  1  0
 17 18  1  0
 18 19  1  0
 19 20  1  0
 20 21  1  0
 12 22  2  0
 22 23  1  0
 23 24  1  0
 24 25  1  0
 25 26  1  0
 26 27  1  0
 27 28  2  0
 28 29  1  0
 29 30  2  0
 30 31  1  0
 31 32  2  0
 23 33  2  0
  9 34  1  0
  6  1  1  0
 33 10  1  0
 34  4  1  0
 21 16  1  0
 32 24  1  0
 32 27  1  0
  1 35  1  0
  2 36  1  0
  3 37  1  0
  6 38  1  0
  7 39  1  0
  7 40  1  0
  8 41  1  0
  8 42  1  0
 13 43  1  0
 14 44  1  0
 14 45  1  0
 15 46  1  0
 15 47  1  0
 16 48  1  0
 17 49  1  0
 17 50  1  0
 18 51  1  0
 18 52  1  0
 20 53  1  0
 20 54  1  0
 21 55  1  0
 21 56  1  0
 24 57  1  6
 25 58  1  0
 25 59  1  0
 26 60  1  0
 26 61  1  0
 28 62  1  0
 29 63  1  0
 30 64  1  0
 31 65  1  0
 34 66  1  0
 34 67  1  0
M  END
>  <smiles>  (88) 
c1ccc2c(c1)CCN(c1nc(NCCC3CCOCC3)nc(C3CCc4ccccc43)n1)C2

>  <score_type>  (88) 
oracle

>  <origin>  (88) 
autodockgpu

>  <m_score__min__energy>  (88) 
-9.8699999999999992

>  <m_primary>  (88) 
energy

>  <rmsd>  (88) 
8.457747969159051

>  <m_score__min__rmsd>  (88) 
8.457747969159051

>  <meeko>  (88) 
{"free_energy": -9.39, "intermolecular_energy": -11.18, "internal_energy": -1.23, "cluster_size": 11, "cluster_id": 2, "rank_in_cluster": 9}

>  <energy>  (88) 
-9.37

>  <cluster_rmsd>  (88) 
0.0

>  <cluster>  (88) 
3

$$$$

     RDKit          3D

 67 72  0  0  0  0  0  0  0  0999 V2000
  140.2870   67.6560  226.3100 C   0  0  0  0  0  0  0  0  0  0  0  0
  141.0580   68.6520  226.8530 C   0  0  0  0  0  0  0  0  0  0  0  0
  141.0830   69.9010  226.2700 C   0  0  0  0  0  0  0  0  0  0  0  0
  140.3350   70.1770  225.1320 C   0  0  0  0  0  0  0  0  0  0  0  0
  139.5500   69.1730  224.5730 C   0  0  0  0  0  0  0  0  0  0  0  0
  139.5450   67.9240  225.1830 C   0  0  0  0  0  0  0  0  0  0  0  0
  138.7270   69.4300  223.3440 C   0  0  0  0  0  0  0  0  0  0  0  0
  139.6040   70.2700  222.4300 C   0  0  0  0  0  0  0  0  0  0  0  0
  140.0720   71.4690  223.0920 N   0  0  0  0  0  0  0  0  0  0  0  0
  140.2530   72.6530  222.3280 C   0  0  0  0  0  0  0  0  0  0  0  0
  139.6150   73.7940  222.7040 N   0  0  0  0  0  0  0  0  0  0  0  0
  139.7710   74.9230  221.9990 C   0  0  0  0  0  0  0  0  0  0  0  0
  139.1390   76.1510  222.3340 N   0  0  0  0  0  0  0  0  0  0  0  0
  139.6330   77.4330  221.8140 C   0  0  0  0  0  0  0  0  0  0  0  0
  140.9150   77.7450  222.5410 C   0  0  0  0  0  0  0  0  0  0  0  0
  141.2030   79.2030  222.6760 C   0  0  0  0  0  0  0  0  0  0  0  0
  141.6750   79.8540  221.4220 C   0  0  0  0  0  0  0  0  0  0  0  0
  141.7360   81.3480  221.6240 C   0  0  0  0  0  0  0  0  0  0  0  0
  141.3900   81.6360  222.9360 O   0  0  0  0  0  0  0  0  0  0  0  0
  142.2730   81.0450  223.8360 C   0  0  0  0  0  0  0  0  0  0  0  0
  142.1540   79.5200  223.8400 C   0  0  0  0  0  0  0  0  0  0  0  0
  140.5680   74.8980  220.9210 N   0  0  0  0  0  0  0  0  0  0  0  0
  141.2190   73.7950  220.5110 C   0  0  0  0  0  0  0  0  0  0  0  0
  142.1010   73.7300  219.3390 C   0  0  1  0  0  0  0  0  0  0  0  0
  142.4910   75.1490  218.9820 C   0  0  0  0  0  0  0  0  0  0  0  0
  143.6690   75.3920  219.9000 C   0  0  0  0  0  0  0  0  0  0  0  0
  144.3470   74.0730  219.9070 C   0  0  0  0  0  0  0  0  0  0  0  0
  145.6290   73.6330  220.1570 C   0  0  0  0  0  0  0  0  0  0  0  0
  146.0070   72.3080  220.0940 C   0  0  0  0  0  0  0  0  0  0  0  0
  145.0480   71.3430  219.7580 C   0  0  0  0  0  0  0  0  0  0  0  0
  143.7800   71.7780  219.5110 C   0  0  0  0  0  0  0  0  0  0  0  0
  143.4120   73.1150  219.5770 C   0  0  0  0  0  0  0  0  0  0  0  0
  141.0470   72.6740  221.2340 N   0  0  0  0  0  0  0  0  0  0  0  0
  140.3600   71.5120  224.5070 C   0  0  0  0  0  0  0  0  0  0  0  0
  140.2623   66.6568  226.7693 H   0  0  0  0  0  0  0  0  0  0  0  0
  141.6568   68.4540  227.7543 H   0  0  0  0  0  0  0  0  0  0  0  0
  141.7055   70.6923  226.7131 H   0  0  0  0  0  0  0  0  0  0  0  0
  138.9272   67.1233  224.7502 H   0  0  0  0  0  0  0  0  0  0  0  0
  138.4614   68.4812  222.8549 H   0  0  0  0  0  0  0  0  0  0  0  0
  137.7846   69.9430  223.5864 H   0  0  0  0  0  0  0  0  0  0  0  0
  140.4732   69.6711  222.1206 H   0  0  0  0  0  0  0  0  0  0  0  0
  139.0030   70.5710  221.5592 H   0  0  0  0  0  0  0  0  0  0  0  0
  138.3100   76.0910  222.9630 H   0  0  0  0  0  0  0  0  0  0  0  0
  139.8224   77.3534  220.7334 H   0  0  0  0  0  0  0  0  0  0  0  0
  138.8912   78.2298  221.9714 H   0  0  0  0  0  0  0  0  0  0  0  0
  140.8539   77.3107  223.5498 H   0  0  0  0  0  0  0  0  0  0  0  0
  141.7309   77.3161  221.9408 H   0  0  0  0  0  0  0  0  0  0  0  0
  140.2218   79.6437  222.9065 H   0  0  0  0  0  0  0  0  0  0  0  0
  142.6766   79.4771  221.1676 H   0  0  0  0  0  0  0  0  0  0  0  0
  140.9777   79.6225  220.6034 H   0  0  0  0  0  0  0  0  0  0  0  0
  142.7563   81.7069  221.4234 H   0  0  0  0  0  0  0  0  0  0  0  0
  141.0385   81.8471  220.9353 H   0  0  0  0  0  0  0  0  0  0  0  0
  143.3009   81.3200  223.5572 H   0  0  0  0  0  0  0  0  0  0  0  0
  142.0229   81.4074  224.8441 H   0  0  0  0  0  0  0  0  0  0  0  0
  143.1366   79.0533  223.6769 H   0  0  0  0  0  0  0  0  0  0  0  0
  141.7821   79.1329  224.8001 H   0  0  0  0  0  0  0  0  0  0  0  0
  141.5352   73.1517  218.5937 H   0  0  0  0  0  0  0  0  0  0  0  0
  142.7849   75.2288  217.9250 H   0  0  0  0  0  0  0  0  0  0  0  0
  141.6757   75.8772  219.1045 H   0  0  0  0  0  0  0  0  0  0  0  0
  144.3290   76.1762  219.5008 H   0  0  0  0  0  0  0  0  0  0  0  0
  143.3797   75.7420  220.9019 H   0  0  0  0  0  0  0  0  0  0  0  0
  146.3925   74.3794  220.4212 H   0  0  0  0  0  0  0  0  0  0  0  0
  147.0457   72.0132  220.3043 H   0  0  0  0  0  0  0  0  0  0  0  0
  145.3083   70.2761  219.6960 H   0  0  0  0  0  0  0  0  0  0  0  0
  143.0127   71.0352  219.2472 H   0  0  0  0  0  0  0  0  0  0  0  0
  141.3592   71.9491  224.6499 H   0  0  0  0  0  0  0  0  0  0  0  0
  139.5787   72.1192  224.9875 H   0  0  0  0  0  0  0  0  0  0  0  0
  1  2  2  0
  2  3  1  0
  3  4  2  0
  4  5  1  0
  5  6  2  0
  5  7  1  0
  7  8  1  0
  8  9  1  0
  9 10  1  0
 10 11  2  0
 11 12  1  0
 12 13  1  0
 13 14  1  0
 14 15  1  0
 15 16  1  0
 16 17  1  0
 17 18  1  0
 18 19  1  0
 19 20  1  0
 20 21  1  0
 12 22  2  0
 22 23  1  0
 23 24  1  0
 24 25  1  0
 25 26  1  0
 26 27  1  0
 27 28  2  0
 28 29  1  0
 29 30  2  0
 30 31  1  0
 31 32  2  0
 23 33  2  0
  9 34  1  0
  6  1  1  0
 33 10  1  0
 34  4  1  0
 21 16  1  0
 32 24  1  0
 32 27  1  0
  1 35  1  0
  2 36  1  0
  3 37  1  0
  6 38  1  0
  7 39  1  0
  7 40  1  0
  8 41  1  0
  8 42  1  0
 13 43  1  0
 14 44  1  0
 14 45  1  0
 15 46  1  0
 15 47  1  0
 16 48  1  0
 17 49  1  0
 17 50  1  0
 18 51  1  0
 18 52  1  0
 20 53  1  0
 20 54  1  0
 21 55  1  0
 21 56  1  0
 24 57  1  6
 25 58  1  0
 25 59  1  0
 26 60  1  0
 26 61  1  0
 28 62  1  0
 29 63  1  0
 30 64  1  0
 31 65  1  0
 34 66  1  0
 34 67  1  0
M  END
>  <smiles>  (89) 
c1ccc2c(c1)CCN(c1nc(NCCC3CCOCC3)nc(C3CCc4ccccc43)n1)C2

>  <score_type>  (89) 
oracle

>  <origin>  (89) 
autodockgpu

>  <m_score__min__energy>  (89) 
-9.8699999999999992

>  <m_primary>  (89) 
energy

>  <rmsd>  (89) 
8.327078024548632

>  <m_score__min__rmsd>  (89) 
8.327078024548632

>  <meeko>  (89) 
{"free_energy": -9.87, "intermolecular_energy": -11.65, "internal_energy": -1.4, "cluster_size": 26, "cluster_id": 1, "rank_in_cluster": 1}

>  <energy>  (89) 
-9.35

>  <cluster_rmsd>  (89) 
0.65

>  <cluster>  (89) 
3

$$$$

     RDKit          3D

 67 72  0  0  0  0  0  0  0  0999 V2000
  142.0100   81.4820  223.7070 C   0  0  0  0  0  0  0  0  0  0  0  0
  142.9500   80.4880  223.6080 C   0  0  0  0  0  0  0  0  0  0  0  0
  142.5870   79.2370  223.1570 C   0  0  0  0  0  0  0  0  0  0  0  0
  141.2750   78.9590  222.7930 C   0  0  0  0  0  0  0  0  0  0  0  0
  140.3150   79.9600  222.8890 C   0  0  0  0  0  0  0  0  0  0  0  0
  140.7100   81.2110  223.3480 C   0  0  0  0  0  0  0  0  0  0  0  0
  138.8860   79.7000  222.5060 C   0  0  0  0  0  0  0  0  0  0  0  0
  138.5600   78.3170  223.0450 C   0  0  0  0  0  0  0  0  0  0  0  0
  139.4950   77.3220  222.5640 N   0  0  0  0  0  0  0  0  0  0  0  0
  139.0330   75.9990  222.3270 C   0  0  0  0  0  0  0  0  0  0  0  0
  139.9280   75.0280  222.0020 N   0  0  0  0  0  0  0  0  0  0  0  0
  139.5170   73.7740  221.7740 C   0  0  0  0  0  0  0  0  0  0  0  0
  140.3930   72.7090  221.4330 N   0  0  0  0  0  0  0  0  0  0  0  0
  140.7910   71.6970  222.4210 C   0  0  0  0  0  0  0  0  0  0  0  0
  139.6300   71.5130  223.3640 C   0  0  0  0  0  0  0  0  0  0  0  0
  139.9540   70.7230  224.5870 C   0  0  0  0  0  0  0  0  0  0  0  0
  138.8070   69.9520  225.1410 C   0  0  0  0  0  0  0  0  0  0  0  0
  139.2980   69.0420  226.2410 C   0  0  0  0  0  0  0  0  0  0  0  0
  140.6540   69.2590  226.4280 O   0  0  0  0  0  0  0  0  0  0  0  0
  140.9110   70.5740  226.8110 C   0  0  0  0  0  0  0  0  0  0  0  0
  140.6170   71.5670  225.6870 C   0  0  0  0  0  0  0  0  0  0  0  0
  138.2060   73.5030  221.8760 N   0  0  0  0  0  0  0  0  0  0  0  0
  137.2850   74.4280  222.1940 C   0  0  0  0  0  0  0  0  0  0  0  0
  135.8450   74.1700  222.3180 C   0  0  1  0  0  0  0  0  0  0  0  0
  135.6710   72.6940  222.6080 C   0  0  0  0  0  0  0  0  0  0  0  0
  135.8440   72.6460  224.1110 C   0  0  0  0  0  0  0  0  0  0  0  0
  135.1870   73.9010  224.5490 C   0  0  0  0  0  0  0  0  0  0  0  0
  134.6050   74.3450  225.7170 C   0  0  0  0  0  0  0  0  0  0  0  0
  134.0500   75.5980  225.8650 C   0  0  0  0  0  0  0  0  0  0  0  0
  134.0680   76.4820  224.7780 C   0  0  0  0  0  0  0  0  0  0  0  0
  134.6430   76.0440  223.6230 C   0  0  0  0  0  0  0  0  0  0  0  0
  135.1990   74.7790  223.4870 C   0  0  0  0  0  0  0  0  0  0  0  0
  137.7220   75.6810  222.4190 N   0  0  0  0  0  0  0  0  0  0  0  0
  140.8840   77.6210  222.3080 C   0  0  0  0  0  0  0  0  0  0  0  0
  142.2918   82.4820  224.0684 H   0  0  0  0  0  0  0  0  0  0  0  0
  143.9943   80.6893  223.8887 H   0  0  0  0  0  0  0  0  0  0  0  0
  143.3481   78.4461  223.0841 H   0  0  0  0  0  0  0  0  0  0  0  0
  139.9586   82.0105  223.4268 H   0  0  0  0  0  0  0  0  0  0  0  0
  138.2246   80.4535  222.9585 H   0  0  0  0  0  0  0  0  0  0  0  0
  138.7414   79.7554  221.4169 H   0  0  0  0  0  0  0  0  0  0  0  0
  138.6013   78.3436  224.1439 H   0  0  0  0  0  0  0  0  0  0  0  0
  137.5543   78.0405  222.6955 H   0  0  0  0  0  0  0  0  0  0  0  0
  140.7350   72.6860  220.4490 H   0  0  0  0  0  0  0  0  0  0  0  0
  141.0203   70.7471  221.9159 H   0  0  0  0  0  0  0  0  0  0  0  0
  141.6903   72.0176  222.9673 H   0  0  0  0  0  0  0  0  0  0  0  0
  139.2802   72.5074  223.6784 H   0  0  0  0  0  0  0  0  0  0  0  0
  138.8642   70.9453  222.8151 H   0  0  0  0  0  0  0  0  0  0  0  0
  140.6874   69.9832  224.2337 H   0  0  0  0  0  0  0  0  0  0  0  0
  138.0590   70.6485  225.5476 H   0  0  0  0  0  0  0  0  0  0  0  0
  138.3500   69.3491  224.3424 H   0  0  0  0  0  0  0  0  0  0  0  0
  138.7563   69.2625  227.1726 H   0  0  0  0  0  0  0  0  0  0  0  0
  139.1222   67.9921  225.9640 H   0  0  0  0  0  0  0  0  0  0  0  0
  140.2795   70.8212  227.6771 H   0  0  0  0  0  0  0  0  0  0  0  0
  141.9793   70.6517  227.0614 H   0  0  0  0  0  0  0  0  0  0  0  0
  139.9346   72.3565  226.0350 H   0  0  0  0  0  0  0  0  0  0  0  0
  141.5254   72.0756  225.3318 H   0  0  0  0  0  0  0  0  0  0  0  0
  135.4073   74.5649  221.3893 H   0  0  0  0  0  0  0  0  0  0  0  0
  134.6722   72.3430  222.3092 H   0  0  0  0  0  0  0  0  0  0  0  0
  136.3732   72.0486  222.0599 H   0  0  0  0  0  0  0  0  0  0  0  0
  135.3450   71.7649  224.5408 H   0  0  0  0  0  0  0  0  0  0  0  0
  136.8938   72.5659  224.4296 H   0  0  0  0  0  0  0  0  0  0  0  0
  134.5822   73.6616  226.5786 H   0  0  0  0  0  0  0  0  0  0  0  0
  133.5997   75.8995  226.8222 H   0  0  0  0  0  0  0  0  0  0  0  0
  133.6348   77.4902  224.8541 H   0  0  0  0  0  0  0  0  0  0  0  0
  134.6679   76.7238  222.7586 H   0  0  0  0  0  0  0  0  0  0  0  0
  141.5056   76.8674  222.8136 H   0  0  0  0  0  0  0  0  0  0  0  0
  141.0331   77.6048  221.2183 H   0  0  0  0  0  0  0  0  0  0  0  0
  1  2  2  0
  2  3  1  0
  3  4  2  0
  4  5  1  0
  5  6  2  0
  5  7  1  0
  7  8  1  0
  8  9  1  0
  9 10  1  0
 10 11  2  0
 11 12  1  0
 12 13  1  0
 13 14  1  0
 14 15  1  0
 15 16  1  0
 16 17  1  0
 17 18  1  0
 18 19  1  0
 19 20  1  0
 20 21  1  0
 12 22  2  0
 22 23  1  0
 23 24  1  0
 24 25  1  0
 25 26  1  0
 26 27  1  0
 27 28  2  0
 28 29  1  0
 29 30  2  0
 30 31  1  0
 31 32  2  0
 23 33  2  0
  9 34  1  0
  6  1  1  0
 33 10  1  0
 34  4  1  0
 21 16  1  0
 32 24  1  0
 32 27  1  0
  1 35  1  0
  2 36  1  0
  3 37  1  0
  6 38  1  0
  7 39  1  0
  7 40  1  0
  8 41  1  0
  8 42  1  0
 13 43  1  0
 14 44  1  0
 14 45  1  0
 15 46  1  0
 15 47  1  0
 16 48  1  0
 17 49  1  0
 17 50  1  0
 18 51  1  0
 18 52  1  0
 20 53  1  0
 20 54  1  0
 21 55  1  0
 21 56  1  0
 24 57  1  6
 25 58  1  0
 25 59  1  0
 26 60  1  0
 26 61  1  0
 28 62  1  0
 29 63  1  0
 30 64  1  0
 31 65  1  0
 34 66  1  0
 34 67  1  0
M  END
>  <smiles>  (90) 
c1ccc2c(c1)CCN(c1nc(NCCC3CCOCC3)nc(C3CCc4ccccc43)n1)C2

>  <score_type>  (90) 
oracle

>  <origin>  (90) 
autodockgpu

>  <m_score__min__energy>  (90) 
-9.8699999999999992

>  <m_primary>  (90) 
energy

>  <rmsd>  (90) 
6.854587952630924

>  <m_score__min__rmsd>  (90) 
6.854587952630924

>  <meeko>  (90) 
{"free_energy": -8.82, "intermolecular_energy": -10.61, "internal_energy": -1.61, "cluster_size": 11, "cluster_id": 3, "rank_in_cluster": 11}

>  <energy>  (90) 
-9.32

>  <cluster_rmsd>  (90) 
0.14

>  <cluster>  (90) 
3

$$$$

     RDKit          3D

 67 72  0  0  0  0  0  0  0  0999 V2000
  141.2680   79.6910  220.4390 C   0  0  0  0  0  0  0  0  0  0  0  0
  140.5140   79.4520  221.5590 C   0  0  0  0  0  0  0  0  0  0  0  0
  140.4090   78.1710  222.0600 C   0  0  0  0  0  0  0  0  0  0  0  0
  141.0610   77.1070  221.4500 C   0  0  0  0  0  0  0  0  0  0  0  0
  141.8300   77.3400  220.3140 C   0  0  0  0  0  0  0  0  0  0  0  0
  141.9150   78.6400  219.8310 C   0  0  0  0  0  0  0  0  0  0  0  0
  142.5500   76.2170  219.6240 C   0  0  0  0  0  0  0  0  0  0  0  0
  141.5840   75.0430  219.6290 C   0  0  0  0  0  0  0  0  0  0  0  0
  141.1340   74.7270  220.9680 N   0  0  0  0  0  0  0  0  0  0  0  0
  140.8620   73.3730  221.3020 C   0  0  0  0  0  0  0  0  0  0  0  0
  141.3650   72.3790  220.5220 N   0  0  0  0  0  0  0  0  0  0  0  0
  141.1220   71.0950  220.8180 C   0  0  0  0  0  0  0  0  0  0  0  0
  141.6160   70.0050  220.0510 N   0  0  0  0  0  0  0  0  0  0  0  0
  142.6120   70.2040  218.9890 C   0  0  0  0  0  0  0  0  0  0  0  0
  143.9690   70.1920  219.6430 C   0  0  0  0  0  0  0  0  0  0  0  0
  144.7580   71.4410  219.4350 C   0  0  0  0  0  0  0  0  0  0  0  0
  144.6710   72.4150  220.5600 C   0  0  0  0  0  0  0  0  0  0  0  0
  145.6600   73.5330  220.3330 C   0  0  0  0  0  0  0  0  0  0  0  0
  146.2930   73.3290  219.1160 O   0  0  0  0  0  0  0  0  0  0  0  0
  145.3840   73.3390  218.0610 C   0  0  0  0  0  0  0  0  0  0  0  0
  144.4470   72.1310  218.0990 C   0  0  0  0  0  0  0  0  0  0  0  0
  140.3750   70.8180  221.8970 N   0  0  0  0  0  0  0  0  0  0  0  0
  139.8570   71.7660  222.6980 C   0  0  0  0  0  0  0  0  0  0  0  0
  139.0390   71.5020  223.8880 C   0  0  1  0  0  0  0  0  0  0  0  0
  138.0570   70.4060  223.5330 C   0  0  0  0  0  0  0  0  0  0  0  0
  138.8780   69.1580  223.7770 C   0  0  0  0  0  0  0  0  0  0  0  0
  139.6730   69.5260  224.9730 C   0  0  0  0  0  0  0  0  0  0  0  0
  140.3050   68.8290  225.9810 C   0  0  0  0  0  0  0  0  0  0  0  0
  141.0000   69.4340  227.0070 C   0  0  0  0  0  0  0  0  0  0  0  0
  141.0780   70.8320  227.0430 C   0  0  0  0  0  0  0  0  0  0  0  0
  140.4540   71.5210  226.0470 C   0  0  0  0  0  0  0  0  0  0  0  0
  139.7570   70.9010  225.0190 C   0  0  0  0  0  0  0  0  0  0  0  0
  140.1150   73.0480  222.3810 N   0  0  0  0  0  0  0  0  0  0  0  0
  140.9520   75.7360  221.9840 C   0  0  0  0  0  0  0  0  0  0  0  0
  141.3544   80.7093  220.0321 H   0  0  0  0  0  0  0  0  0  0  0  0
  139.9927   80.2820  222.0582 H   0  0  0  0  0  0  0  0  0  0  0  0
  139.7990   77.9892  222.9571 H   0  0  0  0  0  0  0  0  0  0  0  0
  142.5194   78.8353  218.9329 H   0  0  0  0  0  0  0  0  0  0  0  0
  142.8031   76.5008  218.5918 H   0  0  0  0  0  0  0  0  0  0  0  0
  143.4937   75.9679  220.1313 H   0  0  0  0  0  0  0  0  0  0  0  0
  140.7109   75.2968  219.0099 H   0  0  0  0  0  0  0  0  0  0  0  0
  142.1095   74.1642  219.2270 H   0  0  0  0  0  0  0  0  0  0  0  0
  141.2350   69.0640  220.2850 H   0  0  0  0  0  0  0  0  0  0  0  0
  142.5425   69.3920  218.2502 H   0  0  0  0  0  0  0  0  0  0  0  0
  142.4394   71.1558  218.4652 H   0  0  0  0  0  0  0  0  0  0  0  0
  143.8296   70.0479  220.7246 H   0  0  0  0  0  0  0  0  0  0  0  0
  144.5389   69.3759  219.1748 H   0  0  0  0  0  0  0  0  0  0  0  0
  145.8002   71.0905  219.4032 H   0  0  0  0  0  0  0  0  0  0  0  0
  143.6533   72.8296  220.6086 H   0  0  0  0  0  0  0  0  0  0  0  0
  144.9039   71.9050  221.5064 H   0  0  0  0  0  0  0  0  0  0  0  0
  145.1309   74.4973  220.3175 H   0  0  0  0  0  0  0  0  0  0  0  0
  146.4034   73.5450  221.1437 H   0  0  0  0  0  0  0  0  0  0  0  0
  144.7816   74.2574  218.1203 H   0  0  0  0  0  0  0  0  0  0  0  0
  145.9544   73.2965  217.1214 H   0  0  0  0  0  0  0  0  0  0  0  0
  143.3960   72.4536  218.0640 H   0  0  0  0  0  0  0  0  0  0  0  0
  144.5952   71.4611  217.2392 H   0  0  0  0  0  0  0  0  0  0  0  0
  138.6299   72.4832  224.1709 H   0  0  0  0  0  0  0  0  0  0  0  0
  137.1716   70.4359  224.1850 H   0  0  0  0  0  0  0  0  0  0  0  0
  137.6577   70.4818  222.5109 H   0  0  0  0  0  0  0  0  0  0  0  0
  138.2324   68.2908  223.9801 H   0  0  0  0  0  0  0  0  0  0  0  0
  139.4939   68.8626  222.9148 H   0  0  0  0  0  0  0  0  0  0  0  0
  140.2519   67.7304  225.9659 H   0  0  0  0  0  0  0  0  0  0  0  0
  141.4859   68.8276  227.7856 H   0  0  0  0  0  0  0  0  0  0  0  0
  141.6220   71.3534  227.8444 H   0  0  0  0  0  0  0  0  0  0  0  0
  140.5048   72.6198  226.0579 H   0  0  0  0  0  0  0  0  0  0  0  0
  139.9545   75.6103  222.4302 H   0  0  0  0  0  0  0  0  0  0  0  0
  141.7502   75.6051  222.7294 H   0  0  0  0  0  0  0  0  0  0  0  0
  1  2  2  0
  2  3  1  0
  3  4  2  0
  4  5  1  0
  5  6  2  0
  5  7  1  0
  7  8  1  0
  8  9  1  0
  9 10  1  0
 10 11  2  0
 11 12  1  0
 12 13  1  0
 13 14  1  0
 14 15  1  0
 15 16  1  0
 16 17  1  0
 17 18  1  0
 18 19  1  0
 19 20  1  0
 20 21  1  0
 12 22  2  0
 22 23  1  0
 23 24  1  0
 24 25  1  0
 25 26  1  0
 26 27  1  0
 27 28  2  0
 28 29  1  0
 29 30  2  0
 30 31  1  0
 31 32  2  0
 23 33  2  0
  9 34  1  0
  6  1  1  0
 33 10  1  0
 34  4  1  0
 21 16  1  0
 32 24  1  0
 32 27  1  0
  1 35  1  0
  2 36  1  0
  3 37  1  0
  6 38  1  0
  7 39  1  0
  7 40  1  0
  8 41  1  0
  8 42  1  0
 13 43  1  0
 14 44  1  0
 14 45  1  0
 15 46  1  0
 15 47  1  0
 16 48  1  0
 17 49  1  0
 17 50  1  0
 18 51  1  0
 18 52  1  0
 20 53  1  0
 20 54  1  0
 21 55  1  0
 21 56  1  0
 24 57  1  1
 25 58  1  0
 25 59  1  0
 26 60  1  0
 26 61  1  0
 28 62  1  0
 29 63  1  0
 30 64  1  0
 31 65  1  0
 34 66  1  0
 34 67  1  0
M  END
>  <smiles>  (91) 
c1ccc2c(c1)CCN(c1nc(NCCC3CCOCC3)nc(C3CCc4ccccc43)n1)C2

>  <score_type>  (91) 
oracle

>  <origin>  (91) 
autodockgpu

>  <m_score__min__energy>  (91) 
-9.8699999999999992

>  <m_primary>  (91) 
energy

>  <rmsd>  (91) 
1.5322336736865596

>  <m_score__min__rmsd>  (91) 
1.5322336736865596

>  <meeko>  (91) 
{"free_energy": -8.79, "intermolecular_energy": -10.58, "internal_energy": -1.81, "cluster_size": 2, "cluster_id": 4, "rank_in_cluster": 2}

>  <energy>  (91) 
-9.29

>  <cluster_rmsd>  (91) 
0.22

>  <cluster>  (91) 
3

$$$$

     RDKit          3D

 67 72  0  0  0  0  0  0  0  0999 V2000
  141.9610   81.5560  223.6350 C   0  0  0  0  0  0  0  0  0  0  0  0
  142.8880   80.5540  223.7700 C   0  0  0  0  0  0  0  0  0  0  0  0
  142.5740   79.2670  223.3880 C   0  0  0  0  0  0  0  0  0  0  0  0
  141.3260   78.9600  222.8610 C   0  0  0  0  0  0  0  0  0  0  0  0
  140.3790   79.9690  222.7190 C   0  0  0  0  0  0  0  0  0  0  0  0
  140.7240   81.2560  223.1140 C   0  0  0  0  0  0  0  0  0  0  0  0
  139.0190   79.6780  222.1540 C   0  0  0  0  0  0  0  0  0  0  0  0
  138.5930   78.3530  222.7660 C   0  0  0  0  0  0  0  0  0  0  0  0
  139.5710   77.3140  222.5230 N   0  0  0  0  0  0  0  0  0  0  0  0
  139.1270   75.9770  222.3450 C   0  0  0  0  0  0  0  0  0  0  0  0
  140.0410   74.9930  222.1280 N   0  0  0  0  0  0  0  0  0  0  0  0
  139.6460   73.7240  221.9570 C   0  0  0  0  0  0  0  0  0  0  0  0
  140.5430   72.6460  221.7300 N   0  0  0  0  0  0  0  0  0  0  0  0
  140.2760   71.3020  222.2590 C   0  0  0  0  0  0  0  0  0  0  0  0
  140.2770   71.4050  223.7620 C   0  0  0  0  0  0  0  0  0  0  0  0
  139.8460   70.1600  224.4620 C   0  0  0  0  0  0  0  0  0  0  0  0
  138.3910   70.1060  224.7770 C   0  0  0  0  0  0  0  0  0  0  0  0
  138.0390   68.7310  225.2920 C   0  0  0  0  0  0  0  0  0  0  0  0
  139.1980   67.9720  225.3650 O   0  0  0  0  0  0  0  0  0  0  0  0
  140.1210   68.5360  226.2430 C   0  0  0  0  0  0  0  0  0  0  0  0
  140.6810   69.8570  225.7150 C   0  0  0  0  0  0  0  0  0  0  0  0
  138.3330   73.4520  222.0050 N   0  0  0  0  0  0  0  0  0  0  0  0
  137.3930   74.3890  222.2160 C   0  0  0  0  0  0  0  0  0  0  0  0
  135.9490   74.1290  222.2790 C   0  0  1  0  0  0  0  0  0  0  0  0
  135.7600   72.6300  222.3790 C   0  0  0  0  0  0  0  0  0  0  0  0
  135.9020   72.3950  223.8670 C   0  0  0  0  0  0  0  0  0  0  0  0
  135.2440   73.5910  224.4450 C   0  0  0  0  0  0  0  0  0  0  0  0
  134.6410   73.8910  225.6480 C   0  0  0  0  0  0  0  0  0  0  0  0
  134.0910   75.1210  225.9400 C   0  0  0  0  0  0  0  0  0  0  0  0
  134.1370   76.1330  224.9720 C   0  0  0  0  0  0  0  0  0  0  0  0
  134.7320   75.8370  223.7830 C   0  0  0  0  0  0  0  0  0  0  0  0
  135.2830   74.5940  223.5010 C   0  0  0  0  0  0  0  0  0  0  0  0
  137.8140   75.6570  222.3860 N   0  0  0  0  0  0  0  0  0  0  0  0
  140.9880   77.5840  222.4500 C   0  0  0  0  0  0  0  0  0  0  0  0
  142.2035   82.5849  223.9391 H   0  0  0  0  0  0  0  0  0  0  0  0
  143.8826   80.7774  224.1833 H   0  0  0  0  0  0  0  0  0  0  0  0
  143.3239   78.4704  223.5024 H   0  0  0  0  0  0  0  0  0  0  0  0
  139.9829   82.0617  223.0064 H   0  0  0  0  0  0  0  0  0  0  0  0
  138.3109   80.4732  222.4303 H   0  0  0  0  0  0  0  0  0  0  0  0
  139.0381   79.6297  221.0552 H   0  0  0  0  0  0  0  0  0  0  0  0
  138.4733   78.4835  223.8517 H   0  0  0  0  0  0  0  0  0  0  0  0
  137.6446   78.0481  222.2996 H   0  0  0  0  0  0  0  0  0  0  0  0
  141.3950   72.8610  221.1700 H   0  0  0  0  0  0  0  0  0  0  0  0
  139.2966   70.9462  221.9065 H   0  0  0  0  0  0  0  0  0  0  0  0
  141.0406   70.5892  221.9165 H   0  0  0  0  0  0  0  0  0  0  0  0
  141.2982   71.6490  224.0901 H   0  0  0  0  0  0  0  0  0  0  0  0
  139.5463   72.1840  224.0253 H   0  0  0  0  0  0  0  0  0  0  0  0
  140.0364   69.3661  223.7248 H   0  0  0  0  0  0  0  0  0  0  0  0
  138.1538   70.8571  225.5448 H   0  0  0  0  0  0  0  0  0  0  0  0
  137.8104   70.3167  223.8668 H   0  0  0  0  0  0  0  0  0  0  0  0
  137.5880   68.8147  226.2918 H   0  0  0  0  0  0  0  0  0  0  0  0
  137.3189   68.2502  224.6136 H   0  0  0  0  0  0  0  0  0  0  0  0
  139.6263   68.7205  227.2080 H   0  0  0  0  0  0  0  0  0  0  0  0
  140.9589   67.8319  226.3534 H   0  0  0  0  0  0  0  0  0  0  0  0
  140.5627   70.6552  226.4626 H   0  0  0  0  0  0  0  0  0  0  0  0
  141.7567   69.7948  225.4938 H   0  0  0  0  0  0  0  0  0  0  0  0
  135.5326   74.6395  221.3981 H   0  0  0  0  0  0  0  0  0  0  0  0
  134.7654   72.3275  222.0195 H   0  0  0  0  0  0  0  0  0  0  0  0
  136.4688   72.0514  221.7684 H   0  0  0  0  0  0  0  0  0  0  0  0
  135.3892   71.4717  224.1743 H   0  0  0  0  0  0  0  0  0  0  0  0
  136.9447   72.2675  224.1932 H   0  0  0  0  0  0  0  0  0  0  0  0
  134.5963   73.1058  226.4171 H   0  0  0  0  0  0  0  0  0  0  0  0
  133.6230   75.3052  226.9183 H   0  0  0  0  0  0  0  0  0  0  0  0
  133.7092   77.1279  225.1648 H   0  0  0  0  0  0  0  0  0  0  0  0
  134.7781   76.6187  223.0105 H   0  0  0  0  0  0  0  0  0  0  0  0
  141.5152   76.8797  223.1103 H   0  0  0  0  0  0  0  0  0  0  0  0
  141.2959   77.4649  221.4007 H   0  0  0  0  0  0  0  0  0  0  0  0
  1  2  2  0
  2  3  1  0
  3  4  2  0
  4  5  1  0
  5  6  2  0
  5  7  1  0
  7  8  1  0
  8  9  1  0
  9 10  1  0
 10 11  2  0
 11 12  1  0
 12 13  1  0
 13 14  1  0
 14 15  1  0
 15 16  1  0
 16 17  1  0
 17 18  1  0
 18 19  1  0
 19 20  1  0
 20 21  1  0
 12 22  2  0
 22 23  1  0
 23 24  1  0
 24 25  1  0
 25 26  1  0
 26 27  1  0
 27 28  2  0
 28 29  1  0
 29 30  2  0
 30 31  1  0
 31 32  2  0
 23 33  2  0
  9 34  1  0
  6  1  1  0
 33 10  1  0
 34  4  1  0
 21 16  1  0
 32 24  1  0
 32 27  1  0
  1 35  1  0
  2 36  1  0
  3 37  1  0
  6 38  1  0
  7 39  1  0
  7 40  1  0
  8 41  1  0
  8 42  1  0
 13 43  1  0
 14 44  1  0
 14 45  1  0
 15 46  1  0
 15 47  1  0
 16 48  1  0
 17 49  1  0
 17 50  1  0
 18 51  1  0
 18 52  1  0
 20 53  1  0
 20 54  1  0
 21 55  1  0
 21 56  1  0
 24 57  1  6
 25 58  1  0
 25 59  1  0
 26 60  1  0
 26 61  1  0
 28 62  1  0
 29 63  1  0
 30 64  1  0
 31 65  1  0
 34 66  1  0
 34 67  1  0
M  END
>  <smiles>  (92) 
c1ccc2c(c1)CCN(c1nc(NCCC3CCOCC3)nc(C3CCc4ccccc43)n1)C2

>  <score_type>  (92) 
oracle

>  <origin>  (92) 
autodockgpu

>  <m_score__min__energy>  (92) 
-9.8699999999999992

>  <m_primary>  (92) 
energy

>  <rmsd>  (92) 
6.620434923010146

>  <m_score__min__rmsd>  (92) 
6.620434923010146

>  <meeko>  (92) 
{"free_energy": -8.9, "intermolecular_energy": -10.69, "internal_energy": -1.65, "cluster_size": 11, "cluster_id": 3, "rank_in_cluster": 10}

>  <energy>  (92) 
-9.2

>  <cluster_rmsd>  (92) 
0.86

>  <cluster>  (92) 
3

$$$$

     RDKit          3D

 67 72  0  0  0  0  0  0  0  0999 V2000
  140.2290   67.7240  226.1990 C   0  0  0  0  0  0  0  0  0  0  0  0
  140.9940   68.7060  226.7730 C   0  0  0  0  0  0  0  0  0  0  0  0
  141.0310   69.9670  226.2150 C   0  0  0  0  0  0  0  0  0  0  0  0
  140.3000   70.2670  225.0720 C   0  0  0  0  0  0  0  0  0  0  0  0
  139.5210   69.2770  224.4820 C   0  0  0  0  0  0  0  0  0  0  0  0
  139.5040   68.0160  225.0670 C   0  0  0  0  0  0  0  0  0  0  0  0
  138.7170   69.5600  223.2470 C   0  0  0  0  0  0  0  0  0  0  0  0
  139.6090   70.4160  222.3620 C   0  0  0  0  0  0  0  0  0  0  0  0
  140.0700   71.6000  223.0550 N   0  0  0  0  0  0  0  0  0  0  0  0
  140.2660   72.7990  222.3170 C   0  0  0  0  0  0  0  0  0  0  0  0
  139.5760   73.9180  222.6670 N   0  0  0  0  0  0  0  0  0  0  0  0
  139.7440   75.0590  221.9870 C   0  0  0  0  0  0  0  0  0  0  0  0
  139.0620   76.2660  222.2970 N   0  0  0  0  0  0  0  0  0  0  0  0
  138.6400   77.2010  221.2440 C   0  0  0  0  0  0  0  0  0  0  0  0
  139.8450   78.0260  220.8720 C   0  0  0  0  0  0  0  0  0  0  0  0
  140.3300   78.9260  221.9580 C   0  0  0  0  0  0  0  0  0  0  0  0
  141.3890   78.3300  222.8210 C   0  0  0  0  0  0  0  0  0  0  0  0
  141.9410   79.3910  223.7420 C   0  0  0  0  0  0  0  0  0  0  0  0
  141.2420   80.5710  223.5340 O   0  0  0  0  0  0  0  0  0  0  0  0
  139.8880   80.4170  223.8190 C   0  0  0  0  0  0  0  0  0  0  0  0
  139.1910   79.4960  222.8170 C   0  0  0  0  0  0  0  0  0  0  0  0
  140.6050   75.0690  220.9580 N   0  0  0  0  0  0  0  0  0  0  0  0
  141.3090   73.9900  220.5750 C   0  0  0  0  0  0  0  0  0  0  0  0
  142.2610   73.9630  219.4580 C   0  0  1  0  0  0  0  0  0  0  0  0
  142.5650   75.3980  219.0830 C   0  0  0  0  0  0  0  0  0  0  0  0
  143.6660   75.7520  220.0590 C   0  0  0  0  0  0  0  0  0  0  0  0
  144.4380   74.4890  220.1430 C   0  0  0  0  0  0  0  0  0  0  0  0
  145.7320   74.1530  220.4790 C   0  0  0  0  0  0  0  0  0  0  0  0
  146.2100   72.8600  220.4760 C   0  0  0  0  0  0  0  0  0  0  0  0
  145.3470   71.8170  220.1140 C   0  0  0  0  0  0  0  0  0  0  0  0
  144.0680   72.1480  219.7820 C   0  0  0  0  0  0  0  0  0  0  0  0
  143.5980   73.4550  219.7890 C   0  0  0  0  0  0  0  0  0  0  0  0
  141.1240   72.8540  221.2740 N   0  0  0  0  0  0  0  0  0  0  0  0
  140.3380   71.6150  224.4740 C   0  0  0  0  0  0  0  0  0  0  0  0
  140.1953   66.7159  226.6378 H   0  0  0  0  0  0  0  0  0  0  0  0
  141.5787   68.4884  227.6790 H   0  0  0  0  0  0  0  0  0  0  0  0
  141.6492   70.7477  226.6824 H   0  0  0  0  0  0  0  0  0  0  0  0
  138.8906   67.2257  224.6096 H   0  0  0  0  0  0  0  0  0  0  0  0
  138.4566   68.6216  222.7356 H   0  0  0  0  0  0  0  0  0  0  0  0
  137.7724   70.0705  223.4859 H   0  0  0  0  0  0  0  0  0  0  0  0
  140.4812   69.8212  222.0528 H   0  0  0  0  0  0  0  0  0  0  0  0
  139.0214   70.7358  221.4888 H   0  0  0  0  0  0  0  0  0  0  0  0
  138.8760   76.4490  223.3060 H   0  0  0  0  0  0  0  0  0  0  0  0
  138.2797   76.6433  220.3670 H   0  0  0  0  0  0  0  0  0  0  0  0
  137.8206   77.8439  221.5979 H   0  0  0  0  0  0  0  0  0  0  0  0
  140.6619   77.3407  220.6016 H   0  0  0  0  0  0  0  0  0  0  0  0
  139.5383   78.6745  220.0381 H   0  0  0  0  0  0  0  0  0  0  0  0
  140.7999   79.7604  221.4168 H   0  0  0  0  0  0  0  0  0  0  0  0
  140.9587   77.5129  223.4186 H   0  0  0  0  0  0  0  0  0  0  0  0
  142.1981   77.9343  222.1895 H   0  0  0  0  0  0  0  0  0  0  0  0
  141.8229   79.0707  224.7877 H   0  0  0  0  0  0  0  0  0  0  0  0
  143.0096   79.5478  223.5336 H   0  0  0  0  0  0  0  0  0  0  0  0
  139.7841   79.9884  224.8267 H   0  0  0  0  0  0  0  0  0  0  0  0
  139.4135   81.4074  223.7560 H   0  0  0  0  0  0  0  0  0  0  0  0
  138.6563   78.6885  223.3385 H   0  0  0  0  0  0  0  0  0  0  0  0
  138.4396   80.0273  222.2145 H   0  0  0  0  0  0  0  0  0  0  0  0
  141.7850   73.3254  218.6985 H   0  0  0  0  0  0  0  0  0  0  0  0
  142.9137   75.4739  218.0425 H   0  0  0  0  0  0  0  0  0  0  0  0
  141.6922   76.0652  219.1381 H   0  0  0  0  0  0  0  0  0  0  0  0
  144.2885   76.5737  219.6752 H   0  0  0  0  0  0  0  0  0  0  0  0
  143.2931   76.1038  221.0322 H   0  0  0  0  0  0  0  0  0  0  0  0
  146.4211   74.9612  220.7653 H   0  0  0  0  0  0  0  0  0  0  0  0
  147.2535   72.6501  220.7537 H   0  0  0  0  0  0  0  0  0  0  0  0
  145.6891   70.7717  220.0985 H   0  0  0  0  0  0  0  0  0  0  0  0
  143.3754   71.3430  219.4951 H   0  0  0  0  0  0  0  0  0  0  0  0
  141.3364   72.0460  224.6396 H   0  0  0  0  0  0  0  0  0  0  0  0
  139.5523   72.2157  224.9555 H   0  0  0  0  0  0  0  0  0  0  0  0
  1  2  2  0
  2  3  1  0
  3  4  2  0
  4  5  1  0
  5  6  2  0
  5  7  1  0
  7  8  1  0
  8  9  1  0
  9 10  1  0
 10 11  2  0
 11 12  1  0
 12 13  1  0
 13 14  1  0
 14 15  1  0
 15 16  1  0
 16 17  1  0
 17 18  1  0
 18 19  1  0
 19 20  1  0
 20 21  1  0
 12 22  2  0
 22 23  1  0
 23 24  1  0
 24 25  1  0
 25 26  1  0
 26 27  1  0
 27 28  2  0
 28 29  1  0
 29 30  2  0
 30 31  1  0
 31 32  2  0
 23 33  2  0
  9 34  1  0
  6  1  1  0
 33 10  1  0
 34  4  1  0
 21 16  1  0
 32 24  1  0
 32 27  1  0
  1 35  1  0
  2 36  1  0
  3 37  1  0
  6 38  1  0
  7 39  1  0
  7 40  1  0
  8 41  1  0
  8 42  1  0
 13 43  1  0
 14 44  1  0
 14 45  1  0
 15 46  1  0
 15 47  1  0
 16 48  1  0
 17 49  1  0
 17 50  1  0
 18 51  1  0
 18 52  1  0
 20 53  1  0
 20 54  1  0
 21 55  1  0
 21 56  1  0
 24 57  1  6
 25 58  1  0
 25 59  1  0
 26 60  1  0
 26 61  1  0
 28 62  1  0
 29 63  1  0
 30 64  1  0
 31 65  1  0
 34 66  1  0
 34 67  1  0
M  END
>  <smiles>  (93) 
c1ccc2c(c1)CCN(c1nc(NCCC3CCOCC3)nc(C3CCc4ccccc43)n1)C2

>  <score_type>  (93) 
oracle

>  <origin>  (93) 
autodockgpu

>  <m_score__min__energy>  (93) 
-9.8699999999999992

>  <m_primary>  (93) 
energy

>  <rmsd>  (93) 
8.395664004036863

>  <m_score__min__rmsd>  (93) 
8.395664004036863

>  <meeko>  (93) 
{"free_energy": -9.13, "intermolecular_energy": -10.92, "internal_energy": -1.6, "cluster_size": 26, "cluster_id": 1, "rank_in_cluster": 21}

>  <energy>  (93) 
-9.19

>  <cluster_rmsd>  (93) 
0.74

>  <cluster>  (93) 
3

$$$$

     RDKit          3D

 67 72  0  0  0  0  0  0  0  0999 V2000
  140.3100   67.7330  226.3540 C   0  0  0  0  0  0  0  0  0  0  0  0
  141.0720   68.7360  226.8960 C   0  0  0  0  0  0  0  0  0  0  0  0
  141.0920   69.9830  226.3090 C   0  0  0  0  0  0  0  0  0  0  0  0
  140.3440   70.2500  225.1680 C   0  0  0  0  0  0  0  0  0  0  0  0
  139.5670   69.2400  224.6110 C   0  0  0  0  0  0  0  0  0  0  0  0
  139.5690   67.9930  225.2240 C   0  0  0  0  0  0  0  0  0  0  0  0
  138.7450   69.4880  223.3790 C   0  0  0  0  0  0  0  0  0  0  0  0
  139.6190   70.3310  222.4640 C   0  0  0  0  0  0  0  0  0  0  0  0
  140.0780   71.5340  223.1230 N   0  0  0  0  0  0  0  0  0  0  0  0
  140.2540   72.7170  222.3560 C   0  0  0  0  0  0  0  0  0  0  0  0
  139.5320   73.8280  222.6670 N   0  0  0  0  0  0  0  0  0  0  0  0
  139.6810   74.9540  221.9570 C   0  0  0  0  0  0  0  0  0  0  0  0
  138.9640   76.1520  222.2260 N   0  0  0  0  0  0  0  0  0  0  0  0
  139.4160   77.4490  221.7040 C   0  0  0  0  0  0  0  0  0  0  0  0
  139.3120   78.4430  222.8310 C   0  0  0  0  0  0  0  0  0  0  0  0
  140.5720   79.1970  223.1000 C   0  0  0  0  0  0  0  0  0  0  0  0
  140.4350   80.6760  222.9950 C   0  0  0  0  0  0  0  0  0  0  0  0
  141.7040   81.3330  223.4840 C   0  0  0  0  0  0  0  0  0  0  0  0
  142.6180   80.3450  223.8180 O   0  0  0  0  0  0  0  0  0  0  0  0
  142.9390   79.5560  222.7160 C   0  0  0  0  0  0  0  0  0  0  0  0
  141.7570   78.7030  222.2560 C   0  0  0  0  0  0  0  0  0  0  0  0
  140.5550   74.9580  220.9400 N   0  0  0  0  0  0  0  0  0  0  0  0
  141.2900   73.8860  220.5950 C   0  0  0  0  0  0  0  0  0  0  0  0
  142.2580   73.8530  219.4920 C   0  0  1  0  0  0  0  0  0  0  0  0
  142.4200   75.2710  218.9850 C   0  0  0  0  0  0  0  0  0  0  0  0
  143.4630   75.8250  219.9300 C   0  0  0  0  0  0  0  0  0  0  0  0
  144.3580   74.6610  220.1380 C   0  0  0  0  0  0  0  0  0  0  0  0
  145.6740   74.4920  220.5110 C   0  0  0  0  0  0  0  0  0  0  0  0
  146.2810   73.2600  220.6330 C   0  0  0  0  0  0  0  0  0  0  0  0
  145.5340   72.1060  220.3650 C   0  0  0  0  0  0  0  0  0  0  0  0
  144.2330   72.2710  219.9960 C   0  0  0  0  0  0  0  0  0  0  0  0
  143.6330   73.5180  219.8770 C   0  0  0  0  0  0  0  0  0  0  0  0
  141.1230   72.7660  221.3220 N   0  0  0  0  0  0  0  0  0  0  0  0
  140.3620   71.5840  224.5380 C   0  0  0  0  0  0  0  0  0  0  0  0
  140.2913   66.7349  226.8159 H   0  0  0  0  0  0  0  0  0  0  0  0
  141.6682   68.5452  227.8005 H   0  0  0  0  0  0  0  0  0  0  0  0
  141.7094   70.7793  226.7503 H   0  0  0  0  0  0  0  0  0  0  0  0
  138.9580   67.1869  224.7916 H   0  0  0  0  0  0  0  0  0  0  0  0
  138.4866   68.5360  222.8923 H   0  0  0  0  0  0  0  0  0  0  0  0
  137.7988   69.9958  223.6177 H   0  0  0  0  0  0  0  0  0  0  0  0
  140.4925   69.7365  222.1581 H   0  0  0  0  0  0  0  0  0  0  0  0
  139.0180   70.6258  221.5911 H   0  0  0  0  0  0  0  0  0  0  0  0
  138.1050   76.0580  222.8080 H   0  0  0  0  0  0  0  0  0  0  0  0
  140.4588   77.3749  221.3618 H   0  0  0  0  0  0  0  0  0  0  0  0
  138.7993   77.7622  220.8487 H   0  0  0  0  0  0  0  0  0  0  0  0
  138.5232   79.1676  222.5803 H   0  0  0  0  0  0  0  0  0  0  0  0
  139.0879   77.8670  223.7409 H   0  0  0  0  0  0  0  0  0  0  0  0
  140.7894   78.9771  224.1556 H   0  0  0  0  0  0  0  0  0  0  0  0
  140.2582   80.9547  221.9457 H   0  0  0  0  0  0  0  0  0  0  0  0
  139.5869   81.0112  223.6102 H   0  0  0  0  0  0  0  0  0  0  0  0
  142.1210   81.9692  222.6894 H   0  0  0  0  0  0  0  0  0  0  0  0
  141.4875   81.9554  224.3647 H   0  0  0  0  0  0  0  0  0  0  0  0
  143.2469   80.2115  221.8880 H   0  0  0  0  0  0  0  0  0  0  0  0
  143.7525   78.8769  223.0110 H   0  0  0  0  0  0  0  0  0  0  0  0
  141.5613   78.8560  221.1844 H   0  0  0  0  0  0  0  0  0  0  0  0
  141.9429   77.6267  222.3869 H   0  0  0  0  0  0  0  0  0  0  0  0
  141.8618   73.1016  218.7932 H   0  0  0  0  0  0  0  0  0  0  0  0
  142.7757   75.2852  217.9442 H   0  0  0  0  0  0  0  0  0  0  0  0
  141.4830   75.8471  218.9712 H   0  0  0  0  0  0  0  0  0  0  0  0
  144.0050   76.6669  219.4745 H   0  0  0  0  0  0  0  0  0  0  0  0
  143.0406   76.2257  220.8633 H   0  0  0  0  0  0  0  0  0  0  0  0
  146.2733   75.3897  220.7231 H   0  0  0  0  0  0  0  0  0  0  0  0
  147.3357   73.1847  220.9361 H   0  0  0  0  0  0  0  0  0  0  0  0
  145.9808   71.1044  220.4493 H   0  0  0  0  0  0  0  0  0  0  0  0
  143.6303   71.3759  219.7826 H   0  0  0  0  0  0  0  0  0  0  0  0
  141.3580   72.0281  224.6819 H   0  0  0  0  0  0  0  0  0  0  0  0
  139.5757   72.1880  225.0144 H   0  0  0  0  0  0  0  0  0  0  0  0
  1  2  2  0
  2  3  1  0
  3  4  2  0
  4  5  1  0
  5  6  2  0
  5  7  1  0
  7  8  1  0
  8  9  1  0
  9 10  1  0
 10 11  2  0
 11 12  1  0
 12 13  1  0
 13 14  1  0
 14 15  1  0
 15 16  1  0
 16 17  1  0
 17 18  1  0
 18 19  1  0
 19 20  1  0
 20 21  1  0
 12 22  2  0
 22 23  1  0
 23 24  1  0
 24 25  1  0
 25 26  1  0
 26 27  1  0
 27 28  2  0
 28 29  1  0
 29 30  2  0
 30 31  1  0
 31 32  2  0
 23 33  2  0
  9 34  1  0
  6  1  1  0
 33 10  1  0
 34  4  1  0
 21 16  1  0
 32 24  1  0
 32 27  1  0
  1 35  1  0
  2 36  1  0
  3 37  1  0
  6 38  1  0
  7 39  1  0
  7 40  1  0
  8 41  1  0
  8 42  1  0
 13 43  1  0
 14 44  1  0
 14 45  1  0
 15 46  1  0
 15 47  1  0
 16 48  1  0
 17 49  1  0
 17 50  1  0
 18 51  1  0
 18 52  1  0
 20 53  1  0
 20 54  1  0
 21 55  1  0
 21 56  1  0
 24 57  1  6
 25 58  1  0
 25 59  1  0
 26 60  1  0
 26 61  1  0
 28 62  1  0
 29 63  1  0
 30 64  1  0
 31 65  1  0
 34 66  1  0
 34 67  1  0
M  END
>  <smiles>  (94) 
c1ccc2c(c1)CCN(c1nc(NCCC3CCOCC3)nc(C3CCc4ccccc43)n1)C2

>  <score_type>  (94) 
oracle

>  <origin>  (94) 
autodockgpu

>  <m_score__min__energy>  (94) 
-9.8699999999999992

>  <m_primary>  (94) 
energy

>  <rmsd>  (94) 
8.381171680790915

>  <m_score__min__rmsd>  (94) 
8.381171680790915

>  <meeko>  (94) 
{"free_energy": -9.75, "intermolecular_energy": -11.54, "internal_energy": -1.44, "cluster_size": 26, "cluster_id": 1, "rank_in_cluster": 7}

>  <energy>  (94) 
-9.16

>  <cluster_rmsd>  (94) 
0.72

>  <cluster>  (94) 
3

$$$$

     RDKit          3D

 67 72  0  0  0  0  0  0  0  0999 V2000
  140.2440   67.7280  226.4780 C   0  0  0  0  0  0  0  0  0  0  0  0
  141.0200   68.7170  227.0260 C   0  0  0  0  0  0  0  0  0  0  0  0
  141.0520   69.9690  226.4480 C   0  0  0  0  0  0  0  0  0  0  0  0
  140.3060   70.2530  225.3100 C   0  0  0  0  0  0  0  0  0  0  0  0
  139.5160   69.2560  224.7470 C   0  0  0  0  0  0  0  0  0  0  0  0
  139.5050   68.0040  225.3520 C   0  0  0  0  0  0  0  0  0  0  0  0
  138.6950   69.5220  223.5190 C   0  0  0  0  0  0  0  0  0  0  0  0
  139.5770   70.3620  222.6080 C   0  0  0  0  0  0  0  0  0  0  0  0
  140.0510   71.5550  223.2760 N   0  0  0  0  0  0  0  0  0  0  0  0
  140.2390   72.7410  222.5170 C   0  0  0  0  0  0  0  0  0  0  0  0
  139.1910   73.5900  222.3330 N   0  0  0  0  0  0  0  0  0  0  0  0
  139.3450   74.7140  221.6210 C   0  0  0  0  0  0  0  0  0  0  0  0
  138.2980   75.6470  221.3910 N   0  0  0  0  0  0  0  0  0  0  0  0
  138.1980   76.8930  222.1630 C   0  0  0  0  0  0  0  0  0  0  0  0
  138.7910   77.9900  221.3180 C   0  0  0  0  0  0  0  0  0  0  0  0
  139.9630   78.6740  221.9380 C   0  0  0  0  0  0  0  0  0  0  0  0
  140.8600   79.3570  220.9640 C   0  0  0  0  0  0  0  0  0  0  0  0
  141.8830   80.1760  221.7130 C   0  0  0  0  0  0  0  0  0  0  0  0
  141.7000   79.9830  223.0740 O   0  0  0  0  0  0  0  0  0  0  0  0
  141.8780   78.6470  223.4270 C   0  0  0  0  0  0  0  0  0  0  0  0
  140.7730   77.7530  222.8630 C   0  0  0  0  0  0  0  0  0  0  0  0
  140.5510   74.9790  221.0990 N   0  0  0  0  0  0  0  0  0  0  0  0
  141.6150   74.1730  221.2530 C   0  0  0  0  0  0  0  0  0  0  0  0
  142.9510   74.4310  220.6990 C   0  0  1  0  0  0  0  0  0  0  0  0
  143.4180   73.1590  220.0240 C   0  0  0  0  0  0  0  0  0  0  0  0
  142.7880   73.2820  218.6540 C   0  0  0  0  0  0  0  0  0  0  0  0
  142.8980   74.7350  218.3780 C   0  0  0  0  0  0  0  0  0  0  0  0
  142.9260   75.5160  217.2430 C   0  0  0  0  0  0  0  0  0  0  0  0
  143.0380   76.8900  217.2660 C   0  0  0  0  0  0  0  0  0  0  0  0
  143.1320   77.5440  218.5010 C   0  0  0  0  0  0  0  0  0  0  0  0
  143.1050   76.7720  219.6230 C   0  0  0  0  0  0  0  0  0  0  0  0
  142.9910   75.3890  219.5880 C   0  0  0  0  0  0  0  0  0  0  0  0
  141.4370   73.0490  221.9720 N   0  0  0  0  0  0  0  0  0  0  0  0
  140.3390   71.5910  224.6910 C   0  0  0  0  0  0  0  0  0  0  0  0
  140.2132   66.7271  226.9333 H   0  0  0  0  0  0  0  0  0  0  0  0
  141.6171   68.5118  227.9268 H   0  0  0  0  0  0  0  0  0  0  0  0
  141.6780   70.7554  226.8948 H   0  0  0  0  0  0  0  0  0  0  0  0
  138.8843   67.2079  224.9151 H   0  0  0  0  0  0  0  0  0  0  0  0
  138.4250   68.5765  223.0260 H   0  0  0  0  0  0  0  0  0  0  0  0
  137.7551   70.0387  223.7632 H   0  0  0  0  0  0  0  0  0  0  0  0
  140.4430   69.7600  222.2957 H   0  0  0  0  0  0  0  0  0  0  0  0
  138.9780   70.6701  221.7384 H   0  0  0  0  0  0  0  0  0  0  0  0
  137.6110   75.3990  220.6470 H   0  0  0  0  0  0  0  0  0  0  0  0
  137.1437   77.1157  222.3839 H   0  0  0  0  0  0  0  0  0  0  0  0
  138.7344   76.8037  223.1192 H   0  0  0  0  0  0  0  0  0  0  0  0
  139.1132   77.5527  220.3614 H   0  0  0  0  0  0  0  0  0  0  0  0
  138.0081   78.7530  221.1957 H   0  0  0  0  0  0  0  0  0  0  0  0
  139.5097   79.4646  222.5540 H   0  0  0  0  0  0  0  0  0  0  0  0
  141.3728   78.6043  220.3472 H   0  0  0  0  0  0  0  0  0  0  0  0
  140.2642   80.0168  220.3162 H   0  0  0  0  0  0  0  0  0  0  0  0
  142.8953   79.8547  221.4268 H   0  0  0  0  0  0  0  0  0  0  0  0
  141.7620   81.2413  221.4668 H   0  0  0  0  0  0  0  0  0  0  0  0
  142.8471   78.3027  223.0367 H   0  0  0  0  0  0  0  0  0  0  0  0
  141.8436   78.5782  224.5243 H   0  0  0  0  0  0  0  0  0  0  0  0
  141.2035   76.9145  222.2959 H   0  0  0  0  0  0  0  0  0  0  0  0
  140.1528   77.3071  223.6545 H   0  0  0  0  0  0  0  0  0  0  0  0
  143.5412   74.8046  221.5487 H   0  0  0  0  0  0  0  0  0  0  0  0
  144.5153   73.1212  219.9576 H   0  0  0  0  0  0  0  0  0  0  0  0
  143.1361   72.2417  220.5617 H   0  0  0  0  0  0  0  0  0  0  0  0
  143.3414   72.6929  217.9079 H   0  0  0  0  0  0  0  0  0  0  0  0
  141.7555   72.9050  218.6113 H   0  0  0  0  0  0  0  0  0  0  0  0
  142.8552   75.0161  216.2657 H   0  0  0  0  0  0  0  0  0  0  0  0
  143.0533   77.4643  216.3280 H   0  0  0  0  0  0  0  0  0  0  0  0
  143.2241   78.6384  218.5625 H   0  0  0  0  0  0  0  0  0  0  0  0
  143.1769   77.2676  220.6024 H   0  0  0  0  0  0  0  0  0  0  0  0
  141.3407   72.0217  224.8359 H   0  0  0  0  0  0  0  0  0  0  0  0
  139.5616   72.2012  225.1741 H   0  0  0  0  0  0  0  0  0  0  0  0
  1  2  2  0
  2  3  1  0
  3  4  2  0
  4  5  1  0
  5  6  2  0
  5  7  1  0
  7  8  1  0
  8  9  1  0
  9 10  1  0
 10 11  2  0
 11 12  1  0
 12 13  1  0
 13 14  1  0
 14 15  1  0
 15 16  1  0
 16 17  1  0
 17 18  1  0
 18 19  1  0
 19 20  1  0
 20 21  1  0
 12 22  2  0
 22 23  1  0
 23 24  1  0
 24 25  1  0
 25 26  1  0
 26 27  1  0
 27 28  2  0
 28 29  1  0
 29 30  2  0
 30 31  1  0
 31 32  2  0
 23 33  2  0
  9 34  1  0
  6  1  1  0
 33 10  1  0
 34  4  1  0
 21 16  1  0
 32 24  1  0
 32 27  1  0
  1 35  1  0
  2 36  1  0
  3 37  1  0
  6 38  1  0
  7 39  1  0
  7 40  1  0
  8 41  1  0
  8 42  1  0
 13 43  1  0
 14 44  1  0
 14 45  1  0
 15 46  1  0
 15 47  1  0
 16 48  1  0
 17 49  1  0
 17 50  1  0
 18 51  1  0
 18 52  1  0
 20 53  1  0
 20 54  1  0
 21 55  1  0
 21 56  1  0
 24 57  1  1
 25 58  1  0
 25 59  1  0
 26 60  1  0
 26 61  1  0
 28 62  1  0
 29 63  1  0
 30 64  1  0
 31 65  1  0
 34 66  1  0
 34 67  1  0
M  END
>  <smiles>  (95) 
c1ccc2c(c1)CCN(c1nc(NCCC3CCOCC3)nc(C3CCc4ccccc43)n1)C2

>  <score_type>  (95) 
oracle

>  <origin>  (95) 
autodockgpu

>  <m_score__min__energy>  (95) 
-9.8699999999999992

>  <m_primary>  (95) 
energy

>  <rmsd>  (95) 
9.20102781897562

>  <m_score__min__rmsd>  (95) 
9.20102781897562

>  <meeko>  (95) 
{"free_energy": -8.37, "intermolecular_energy": -10.16, "internal_energy": -2.0, "cluster_size": 26, "cluster_id": 1, "rank_in_cluster": 26}

>  <energy>  (95) 
-9.06

>  <cluster_rmsd>  (95) 
1.18

>  <cluster>  (95) 
3

$$$$

     RDKit          3D

 67 72  0  0  0  0  0  0  0  0999 V2000
  141.2510   80.0820  221.3230 C   0  0  0  0  0  0  0  0  0  0  0  0
  140.5810   79.6990  222.4560 C   0  0  0  0  0  0  0  0  0  0  0  0
  140.4740   78.3630  222.7770 C   0  0  0  0  0  0  0  0  0  0  0  0
  141.0390   77.3840  221.9690 C   0  0  0  0  0  0  0  0  0  0  0  0
  141.7210   77.7610  220.8170 C   0  0  0  0  0  0  0  0  0  0  0  0
  141.8120   79.1160  220.5190 C   0  0  0  0  0  0  0  0  0  0  0  0
  142.3460   76.7350  219.9170 C   0  0  0  0  0  0  0  0  0  0  0  0
  141.3440   75.5940  219.8350 C   0  0  0  0  0  0  0  0  0  0  0  0
  140.9910   75.0980  221.1480 N   0  0  0  0  0  0  0  0  0  0  0  0
  140.7020   73.7160  221.3080 C   0  0  0  0  0  0  0  0  0  0  0  0
  141.1200   72.8320  220.3620 N   0  0  0  0  0  0  0  0  0  0  0  0
  140.8580   71.5250  220.4920 C   0  0  0  0  0  0  0  0  0  0  0  0
  141.2660   70.5450  219.5470 N   0  0  0  0  0  0  0  0  0  0  0  0
  142.6770   70.1630  219.3980 C   0  0  0  0  0  0  0  0  0  0  0  0
  143.4560   70.9150  220.4450 C   0  0  0  0  0  0  0  0  0  0  0  0
  144.4690   71.8610  219.8930 C   0  0  0  0  0  0  0  0  0  0  0  0
  144.8920   72.9280  220.8430 C   0  0  0  0  0  0  0  0  0  0  0  0
  146.0550   73.6910  220.2540 C   0  0  0  0  0  0  0  0  0  0  0  0
  146.3190   73.1930  218.9870 O   0  0  0  0  0  0  0  0  0  0  0  0
  145.2260   73.3550  218.1390 C   0  0  0  0  0  0  0  0  0  0  0  0
  144.0470   72.4720  218.5480 C   0  0  0  0  0  0  0  0  0  0  0  0
  140.1780   71.1130  221.5730 N   0  0  0  0  0  0  0  0  0  0  0  0
  139.7450   71.9480  222.5330 C   0  0  0  0  0  0  0  0  0  0  0  0
  139.0020   71.5350  223.7300 C   0  0  1  0  0  0  0  0  0  0  0  0
  138.1780   70.3200  223.3580 C   0  0  0  0  0  0  0  0  0  0  0  0
  139.1720   69.1960  223.5450 C   0  0  0  0  0  0  0  0  0  0  0  0
  139.9360   69.6380  224.7360 C   0  0  0  0  0  0  0  0  0  0  0  0
  140.6840   69.0090  225.7080 C   0  0  0  0  0  0  0  0  0  0  0  0
  141.3110   69.6760  226.7400 C   0  0  0  0  0  0  0  0  0  0  0  0
  141.1900   71.0700  226.8200 C   0  0  0  0  0  0  0  0  0  0  0  0
  140.4510   71.6920  225.8600 C   0  0  0  0  0  0  0  0  0  0  0  0
  139.8250   71.0090  224.8260 C   0  0  0  0  0  0  0  0  0  0  0  0
  140.0200   73.2570  222.3820 N   0  0  0  0  0  0  0  0  0  0  0  0
  140.9260   75.9530  222.3100 C   0  0  0  0  0  0  0  0  0  0  0  0
  141.3390   81.1465  221.0601 H   0  0  0  0  0  0  0  0  0  0  0  0
  140.1282   80.4590  223.1097 H   0  0  0  0  0  0  0  0  0  0  0  0
  139.9326   78.0669  223.6876 H   0  0  0  0  0  0  0  0  0  0  0  0
  142.3499   79.4261  219.6110 H   0  0  0  0  0  0  0  0  0  0  0  0
  142.5261   77.1597  218.9184 H   0  0  0  0  0  0  0  0  0  0  0  0
  143.3180   76.3945  220.3033 H   0  0  0  0  0  0  0  0  0  0  0  0
  140.4338   75.9539  219.3330 H   0  0  0  0  0  0  0  0  0  0  0  0
  141.8059   74.7712  219.2697 H   0  0  0  0  0  0  0  0  0  0  0  0
  140.5120   70.1140  218.9710 H   0  0  0  0  0  0  0  0  0  0  0  0
  142.7919   69.0795  219.5489 H   0  0  0  0  0  0  0  0  0  0  0  0
  143.0427   70.4068  218.3896 H   0  0  0  0  0  0  0  0  0  0  0  0
  142.7452   71.4896  221.0571 H   0  0  0  0  0  0  0  0  0  0  0  0
  144.0099   70.1635  221.0267 H   0  0  0  0  0  0  0  0  0  0  0  0
  145.3520   71.2285  219.7188 H   0  0  0  0  0  0  0  0  0  0  0  0
  144.0525   73.6167  221.0191 H   0  0  0  0  0  0  0  0  0  0  0  0
  145.1966   72.4718  221.7965 H   0  0  0  0  0  0  0  0  0  0  0  0
  145.8004   74.7590  220.1860 H   0  0  0  0  0  0  0  0  0  0  0  0
  146.9418   73.5744  220.8942 H   0  0  0  0  0  0  0  0  0  0  0  0
  144.9078   74.4076  218.1672 H   0  0  0  0  0  0  0  0  0  0  0  0
  145.5358   73.0596  217.1257 H   0  0  0  0  0  0  0  0  0  0  0  0
  143.1333   73.0734  218.6643 H   0  0  0  0  0  0  0  0  0  0  0  0
  143.8195   71.7041  217.7939 H   0  0  0  0  0  0  0  0  0  0  0  0
  138.4648   72.4389  224.0532 H   0  0  0  0  0  0  0  0  0  0  0  0
  137.3128   70.2038  224.0273 H   0  0  0  0  0  0  0  0  0  0  0  0
  137.7487   70.3684  222.3464 H   0  0  0  0  0  0  0  0  0  0  0  0
  138.6607   68.2404  223.7329 H   0  0  0  0  0  0  0  0  0  0  0  0
  139.8023   69.0166  222.6615 H   0  0  0  0  0  0  0  0  0  0  0  0
  140.7866   67.9149  225.6580 H   0  0  0  0  0  0  0  0  0  0  0  0
  141.8968   69.1224  227.4885 H   0  0  0  0  0  0  0  0  0  0  0  0
  141.6734   71.6398  227.6272 H   0  0  0  0  0  0  0  0  0  0  0  0
  140.3452   72.7859  225.9059 H   0  0  0  0  0  0  0  0  0  0  0  0
  139.9638   75.7865  222.8164 H   0  0  0  0  0  0  0  0  0  0  0  0
  141.7761   75.6973  222.9595 H   0  0  0  0  0  0  0  0  0  0  0  0
  1  2  2  0
  2  3  1  0
  3  4  2  0
  4  5  1  0
  5  6  2  0
  5  7  1  0
  7  8  1  0
  8  9  1  0
  9 10  1  0
 10 11  2  0
 11 12  1  0
 12 13  1  0
 13 14  1  0
 14 15  1  0
 15 16  1  0
 16 17  1  0
 17 18  1  0
 18 19  1  0
 19 20  1  0
 20 21  1  0
 12 22  2  0
 22 23  1  0
 23 24  1  0
 24 25  1  0
 25 26  1  0
 26 27  1  0
 27 28  2  0
 28 29  1  0
 29 30  2  0
 30 31  1  0
 31 32  2  0
 23 33  2  0
  9 34  1  0
  6  1  1  0
 33 10  1  0
 34  4  1  0
 21 16  1  0
 32 24  1  0
 32 27  1  0
  1 35  1  0
  2 36  1  0
  3 37  1  0
  6 38  1  0
  7 39  1  0
  7 40  1  0
  8 41  1  0
  8 42  1  0
 13 43  1  0
 14 44  1  0
 14 45  1  0
 15 46  1  0
 15 47  1  0
 16 48  1  0
 17 49  1  0
 17 50  1  0
 18 51  1  0
 18 52  1  0
 20 53  1  0
 20 54  1  0
 21 55  1  0
 21 56  1  0
 24 57  1  1
 25 58  1  0
 25 59  1  0
 26 60  1  0
 26 61  1  0
 28 62  1  0
 29 63  1  0
 30 64  1  0
 31 65  1  0
 34 66  1  0
 34 67  1  0
M  END
>  <smiles>  (96) 
c1ccc2c(c1)CCN(c1nc(NCCC3CCOCC3)nc(C3CCc4ccccc43)n1)C2

>  <score_type>  (96) 
oracle

>  <origin>  (96) 
autodockgpu

>  <m_score__min__energy>  (96) 
-9.8699999999999992

>  <m_primary>  (96) 
energy

>  <rmsd>  (96) 
1.523437255271445

>  <m_score__min__rmsd>  (96) 
1.523437255271445

>  <meeko>  (96) 
{"free_energy": -8.88, "intermolecular_energy": -10.67, "internal_energy": -1.83, "cluster_size": 2, "cluster_id": 4, "rank_in_cluster": 1}

>  <energy>  (96) 
-8.95

>  <cluster_rmsd>  (96) 
1.36

>  <cluster>  (96) 
3

$$$$

     RDKit          3D

 67 72  0  0  0  0  0  0  0  0999 V2000
  142.2010   81.5510  223.5670 C   0  0  0  0  0  0  0  0  0  0  0  0
  143.1170   80.5310  223.5180 C   0  0  0  0  0  0  0  0  0  0  0  0
  142.7260   79.2700  223.1200 C   0  0  0  0  0  0  0  0  0  0  0  0
  141.4100   79.0080  222.7610 C   0  0  0  0  0  0  0  0  0  0  0  0
  140.4730   80.0360  222.8070 C   0  0  0  0  0  0  0  0  0  0  0  0
  140.8970   81.2960  223.2130 C   0  0  0  0  0  0  0  0  0  0  0  0
  139.0410   79.7930  222.4270 C   0  0  0  0  0  0  0  0  0  0  0  0
  138.6790   78.4440  223.0250 C   0  0  0  0  0  0  0  0  0  0  0  0
  139.5910   77.4060  222.5940 N   0  0  0  0  0  0  0  0  0  0  0  0
  139.0980   76.0860  222.4130 C   0  0  0  0  0  0  0  0  0  0  0  0
  139.9770   75.0690  222.1990 N   0  0  0  0  0  0  0  0  0  0  0  0
  139.5360   73.8160  222.0260 C   0  0  0  0  0  0  0  0  0  0  0  0
  140.3930   72.7060  221.8010 N   0  0  0  0  0  0  0  0  0  0  0  0
  140.2540   71.4610  222.5700 C   0  0  0  0  0  0  0  0  0  0  0  0
  140.2960   71.8310  224.0290 C   0  0  0  0  0  0  0  0  0  0  0  0
  140.3060   70.6620  224.9570 C   0  0  0  0  0  0  0  0  0  0  0  0
  139.0550   69.8530  224.9360 C   0  0  0  0  0  0  0  0  0  0  0  0
  139.2570   68.5970  225.7490 C   0  0  0  0  0  0  0  0  0  0  0  0
  140.5250   68.6260  226.3090 O   0  0  0  0  0  0  0  0  0  0  0  0
  140.6810   69.7190  227.1590 C   0  0  0  0  0  0  0  0  0  0  0  0
  140.6780   71.0440  226.3970 C   0  0  0  0  0  0  0  0  0  0  0  0
  138.2140   73.5920  222.0700 N   0  0  0  0  0  0  0  0  0  0  0  0
  137.3080   74.5630  222.2790 C   0  0  0  0  0  0  0  0  0  0  0  0
  135.8550   74.3570  222.3360 C   0  0  1  0  0  0  0  0  0  0  0  0
  135.6100   72.8640  222.4090 C   0  0  0  0  0  0  0  0  0  0  0  0
  135.7420   72.5960  223.8920 C   0  0  0  0  0  0  0  0  0  0  0  0
  135.1290   73.8050  224.4930 C   0  0  0  0  0  0  0  0  0  0  0  0
  134.5380   74.1050  225.7010 C   0  0  0  0  0  0  0  0  0  0  0  0
  134.0330   75.3500  226.0160 C   0  0  0  0  0  0  0  0  0  0  0  0
  134.1180   76.3760  225.0670 C   0  0  0  0  0  0  0  0  0  0  0  0
  134.7020   76.0800  223.8720 C   0  0  0  0  0  0  0  0  0  0  0  0
  135.2070   74.8230  223.5670 C   0  0  0  0  0  0  0  0  0  0  0  0
  137.7750   75.8140  222.4500 N   0  0  0  0  0  0  0  0  0  0  0  0
  140.9890   77.6600  222.3340 C   0  0  0  0  0  0  0  0  0  0  0  0
  142.5055   82.5590  223.8851 H   0  0  0  0  0  0  0  0  0  0  0  0
  144.1644   80.7192  223.7965 H   0  0  0  0  0  0  0  0  0  0  0  0
  143.4680   78.4587  223.0863 H   0  0  0  0  0  0  0  0  0  0  0  0
  140.1651   82.1163  223.2524 H   0  0  0  0  0  0  0  0  0  0  0  0
  138.3954   80.5815  222.8411 H   0  0  0  0  0  0  0  0  0  0  0  0
  138.9038   79.8028  221.3356 H   0  0  0  0  0  0  0  0  0  0  0  0
  138.7163   78.5186  224.1218 H   0  0  0  0  0  0  0  0  0  0  0  0
  137.6684   78.1768  222.6825 H   0  0  0  0  0  0  0  0  0  0  0  0
  141.1200   72.8230  221.0640 H   0  0  0  0  0  0  0  0  0  0  0  0
  139.2959   70.9760  222.3318 H   0  0  0  0  0  0  0  0  0  0  0  0
  141.0623   70.7572  222.3225 H   0  0  0  0  0  0  0  0  0  0  0  0
  141.2062   72.4219  224.2089 H   0  0  0  0  0  0  0  0  0  0  0  0
  139.3742   72.3932  224.2390 H   0  0  0  0  0  0  0  0  0  0  0  0
  141.1029   70.0169  224.5586 H   0  0  0  0  0  0  0  0  0  0  0  0
  138.2307   70.4404  225.3666 H   0  0  0  0  0  0  0  0  0  0  0  0
  138.8087   69.5836  223.8983 H   0  0  0  0  0  0  0  0  0  0  0  0
  138.5015   68.5477  226.5470 H   0  0  0  0  0  0  0  0  0  0  0  0
  139.1542   67.7130  225.1025 H   0  0  0  0  0  0  0  0  0  0  0  0
  139.8543   69.7251  227.8846 H   0  0  0  0  0  0  0  0  0  0  0  0
  141.6535   69.6202  227.6634 H   0  0  0  0  0  0  0  0  0  0  0  0
  139.9331   71.7338  226.8205 H   0  0  0  0  0  0  0  0  0  0  0  0
  141.6476   71.5603  226.4543 H   0  0  0  0  0  0  0  0  0  0  0  0
  135.4587   74.8990  221.4647 H   0  0  0  0  0  0  0  0  0  0  0  0
  134.6050   72.6055  222.0440 H   0  0  0  0  0  0  0  0  0  0  0  0
  136.2974   72.2708  221.7881 H   0  0  0  0  0  0  0  0  0  0  0  0
  135.1946   71.6870  224.1818 H   0  0  0  0  0  0  0  0  0  0  0  0
  136.7791   72.4234  224.2156 H   0  0  0  0  0  0  0  0  0  0  0  0
  134.4647   73.3082  226.4558 H   0  0  0  0  0  0  0  0  0  0  0  0
  133.5709   75.5335  226.9972 H   0  0  0  0  0  0  0  0  0  0  0  0
  133.7281   77.3827  225.2781 H   0  0  0  0  0  0  0  0  0  0  0  0
  134.7768   76.8735  223.1139 H   0  0  0  0  0  0  0  0  0  0  0  0
  141.5893   76.9150  222.8769 H   0  0  0  0  0  0  0  0  0  0  0  0
  141.1434   77.5916  221.2470 H   0  0  0  0  0  0  0  0  0  0  0  0
  1  2  2  0
  2  3  1  0
  3  4  2  0
  4  5  1  0
  5  6  2  0
  5  7  1  0
  7  8  1  0
  8  9  1  0
  9 10  1  0
 10 11  2  0
 11 12  1  0
 12 13  1  0
 13 14  1  0
 14 15  1  0
 15 16  1  0
 16 17  1  0
 17 18  1  0
 18 19  1  0
 19 20  1  0
 20 21  1  0
 12 22  2  0
 22 23  1  0
 23 24  1  0
 24 25  1  0
 25 26  1  0
 26 27  1  0
 27 28  2  0
 28 29  1  0
 29 30  2  0
 30 31  1  0
 31 32  2  0
 23 33  2  0
  9 34  1  0
  6  1  1  0
 33 10  1  0
 34  4  1  0
 21 16  1  0
 32 24  1  0
 32 27  1  0
  1 35  1  0
  2 36  1  0
  3 37  1  0
  6 38  1  0
  7 39  1  0
  7 40  1  0
  8 41  1  0
  8 42  1  0
 13 43  1  0
 14 44  1  0
 14 45  1  0
 15 46  1  0
 15 47  1  0
 16 48  1  0
 17 49  1  0
 17 50  1  0
 18 51  1  0
 18 52  1  0
 20 53  1  0
 20 54  1  0
 21 55  1  0
 21 56  1  0
 24 57  1  6
 25 58  1  0
 25 59  1  0
 26 60  1  0
 26 61  1  0
 28 62  1  0
 29 63  1  0
 30 64  1  0
 31 65  1  0
 34 66  1  0
 34 67  1  0
M  END
>  <smiles>  (97) 
c1ccc2c(c1)CCN(c1nc(NCCC3CCOCC3)nc(C3CCc4ccccc43)n1)C2

>  <score_type>  (97) 
oracle

>  <origin>  (97) 
autodockgpu

>  <m_score__min__energy>  (97) 
-9.8699999999999992

>  <m_primary>  (97) 
energy

>  <rmsd>  (97) 
6.793301375762509

>  <m_score__min__rmsd>  (97) 
6.793301375762509

>  <meeko>  (97) 
{"free_energy": -9.06, "intermolecular_energy": -10.85, "internal_energy": -1.53, "cluster_size": 11, "cluster_id": 3, "rank_in_cluster": 8}

>  <energy>  (97) 
-8.9

>  <cluster_rmsd>  (97) 
1.32

>  <cluster>  (97) 
3

$$$$

     RDKit          3D

 67 72  0  0  0  0  0  0  0  0999 V2000
  140.4330   68.1210  227.1710 C   0  0  0  0  0  0  0  0  0  0  0  0
  141.1010   69.2700  227.5100 C   0  0  0  0  0  0  0  0  0  0  0  0
  141.0050   70.3860  226.7070 C   0  0  0  0  0  0  0  0  0  0  0  0
  140.2360   70.3730  225.5490 C   0  0  0  0  0  0  0  0  0  0  0  0
  139.5540   69.2130  225.1970 C   0  0  0  0  0  0  0  0  0  0  0  0
  139.6710   68.1030  226.0260 C   0  0  0  0  0  0  0  0  0  0  0  0
  138.7130   69.1570  223.9550 C   0  0  0  0  0  0  0  0  0  0  0  0
  139.5040   69.8960  222.8880 C   0  0  0  0  0  0  0  0  0  0  0  0
  139.8510   71.2350  223.3110 N   0  0  0  0  0  0  0  0  0  0  0  0
  139.9170   72.2700  222.3400 C   0  0  0  0  0  0  0  0  0  0  0  0
  138.9910   73.2660  222.3610 N   0  0  0  0  0  0  0  0  0  0  0  0
  139.0330   74.2520  221.4560 C   0  0  0  0  0  0  0  0  0  0  0  0
  138.1020   75.3250  221.4190 N   0  0  0  0  0  0  0  0  0  0  0  0
  138.5430   76.7180  221.2680 C   0  0  0  0  0  0  0  0  0  0  0  0
  139.4780   77.0160  222.4120 C   0  0  0  0  0  0  0  0  0  0  0  0
  140.3930   78.1700  222.1690 C   0  0  0  0  0  0  0  0  0  0  0  0
  141.0220   78.1800  220.8190 C   0  0  0  0  0  0  0  0  0  0  0  0
  141.7550   79.4850  220.6170 C   0  0  0  0  0  0  0  0  0  0  0  0
  141.6590   80.2350  221.7800 O   0  0  0  0  0  0  0  0  0  0  0  0
  142.2440   79.5770  222.8590 C   0  0  0  0  0  0  0  0  0  0  0  0
  141.4590   78.3290  223.2640 C   0  0  0  0  0  0  0  0  0  0  0  0
  140.0070   74.2310  220.5330 N   0  0  0  0  0  0  0  0  0  0  0  0
  140.9440   73.2700  220.4720 C   0  0  0  0  0  0  0  0  0  0  0  0
  142.0260   73.2150  219.4810 C   0  0  1  0  0  0  0  0  0  0  0  0
  141.9210   74.4590  218.6230 C   0  0  0  0  0  0  0  0  0  0  0  0
  142.6800   75.4740  219.4480 C   0  0  0  0  0  0  0  0  0  0  0  0
  143.7850   74.6650  220.0160 C   0  0  0  0  0  0  0  0  0  0  0  0
  145.0460   74.9350  220.5030 C   0  0  0  0  0  0  0  0  0  0  0  0
  145.8990   73.9670  220.9890 C   0  0  0  0  0  0  0  0  0  0  0  0
  145.4780   72.6310  220.9960 C   0  0  0  0  0  0  0  0  0  0  0  0
  144.2310   72.3640  220.5150 C   0  0  0  0  0  0  0  0  0  0  0  0
  143.3810   73.3470  220.0280 C   0  0  0  0  0  0  0  0  0  0  0  0
  140.8820   72.2890  221.3920 N   0  0  0  0  0  0  0  0  0  0  0  0
  140.1310   71.5670  224.6890 C   0  0  0  0  0  0  0  0  0  0  0  0
  140.5057   67.2259  227.8063 H   0  0  0  0  0  0  0  0  0  0  0  0
  141.7136   69.3008  228.4231 H   0  0  0  0  0  0  0  0  0  0  0  0
  141.5458   71.3021  226.9870 H   0  0  0  0  0  0  0  0  0  0  0  0
  139.1365   67.1799  225.7573 H   0  0  0  0  0  0  0  0  0  0  0  0
  138.5444   68.1128  223.6529 H   0  0  0  0  0  0  0  0  0  0  0  0
  137.7238   69.6111  224.1141 H   0  0  0  0  0  0  0  0  0  0  0  0
  140.4282   69.3375  222.6784 H   0  0  0  0  0  0  0  0  0  0  0  0
  138.8770   69.9724  221.9874 H   0  0  0  0  0  0  0  0  0  0  0  0
  137.0950   75.0690  221.5020 H   0  0  0  0  0  0  0  0  0  0  0  0
  139.0675   76.8455  220.3096 H   0  0  0  0  0  0  0  0  0  0  0  0
  137.6826   77.4033  221.2783 H   0  0  0  0  0  0  0  0  0  0  0  0
  138.8729   77.2372  223.3036 H   0  0  0  0  0  0  0  0  0  0  0  0
  140.1152   76.1284  222.5392 H   0  0  0  0  0  0  0  0  0  0  0  0
  139.7285   79.0456  222.2099 H   0  0  0  0  0  0  0  0  0  0  0  0
  141.7322   77.3439  220.7388 H   0  0  0  0  0  0  0  0  0  0  0  0
  140.2430   78.0731  220.0498 H   0  0  0  0  0  0  0  0  0  0  0  0
  142.8130   79.2841  220.3926 H   0  0  0  0  0  0  0  0  0  0  0  0
  141.3097   80.0383  219.7770 H   0  0  0  0  0  0  0  0  0  0  0  0
  143.2658   79.2790  222.5814 H   0  0  0  0  0  0  0  0  0  0  0  0
  142.2491   80.2675  223.7153 H   0  0  0  0  0  0  0  0  0  0  0  0
  142.1180   77.4488  223.2953 H   0  0  0  0  0  0  0  0  0  0  0  0
  141.0166   78.4214  224.2669 H   0  0  0  0  0  0  0  0  0  0  0  0
  141.9054   72.2400  218.9863 H   0  0  0  0  0  0  0  0  0  0  0  0
  142.3932   74.3084  217.6410 H   0  0  0  0  0  0  0  0  0  0  0  0
  140.8863   74.7557  218.3963 H   0  0  0  0  0  0  0  0  0  0  0  0
  143.0669   76.2887  218.8182 H   0  0  0  0  0  0  0  0  0  0  0  0
  142.0617   75.9687  220.2115 H   0  0  0  0  0  0  0  0  0  0  0  0
  145.3905   75.9797  220.5039 H   0  0  0  0  0  0  0  0  0  0  0  0
  146.8958   74.2399  221.3658 H   0  0  0  0  0  0  0  0  0  0  0  0
  146.1283   71.8288  221.3749 H   0  0  0  0  0  0  0  0  0  0  0  0
  143.8821   71.3208  220.5127 H   0  0  0  0  0  0  0  0  0  0  0  0
  141.0823   72.1176  224.7326 H   0  0  0  0  0  0  0  0  0  0  0  0
  139.2936   72.1747  225.0626 H   0  0  0  0  0  0  0  0  0  0  0  0
  1  2  2  0
  2  3  1  0
  3  4  2  0
  4  5  1  0
  5  6  2  0
  5  7  1  0
  7  8  1  0
  8  9  1  0
  9 10  1  0
 10 11  2  0
 11 12  1  0
 12 13  1  0
 13 14  1  0
 14 15  1  0
 15 16  1  0
 16 17  1  0
 17 18  1  0
 18 19  1  0
 19 20  1  0
 20 21  1  0
 12 22  2  0
 22 23  1  0
 23 24  1  0
 24 25  1  0
 25 26  1  0
 26 27  1  0
 27 28  2  0
 28 29  1  0
 29 30  2  0
 30 31  1  0
 31 32  2  0
 23 33  2  0
  9 34  1  0
  6  1  1  0
 33 10  1  0
 34  4  1  0
 21 16  1  0
 32 24  1  0
 32 27  1  0
  1 35  1  0
  2 36  1  0
  3 37  1  0
  6 38  1  0
  7 39  1  0
  7 40  1  0
  8 41  1  0
  8 42  1  0
 13 43  1  0
 14 44  1  0
 14 45  1  0
 15 46  1  0
 15 47  1  0
 16 48  1  0
 17 49  1  0
 17 50  1  0
 18 51  1  0
 18 52  1  0
 20 53  1  0
 20 54  1  0
 21 55  1  0
 21 56  1  0
 24 57  1  6
 25 58  1  0
 25 59  1  0
 26 60  1  0
 26 61  1  0
 28 62  1  0
 29 63  1  0
 30 64  1  0
 31 65  1  0
 34 66  1  0
 34 67  1  0
M  END
>  <smiles>  (98) 
c1ccc2c(c1)CCN(c1nc(NCCC3CCOCC3)nc(C3CCc4ccccc43)n1)C2

>  <score_type>  (98) 
oracle

>  <origin>  (98) 
autodockgpu

>  <m_score__min__energy>  (98) 
-9.8699999999999992

>  <m_primary>  (98) 
energy

>  <rmsd>  (98) 
8.039451809623133

>  <m_score__min__rmsd>  (98) 
8.039451809623133

>  <meeko>  (98) 
{"free_energy": -8.94, "intermolecular_energy": -10.73, "internal_energy": -1.78, "cluster_size": 26, "cluster_id": 1, "rank_in_cluster": 24}

>  <energy>  (98) 
-8.82

>  <cluster_rmsd>  (98) 
1.16

>  <cluster>  (98) 
3

$$$$

     RDKit          3D

 67 72  0  0  0  0  0  0  0  0999 V2000
  140.4830   68.1520  227.5990 C   0  0  0  0  0  0  0  0  0  0  0  0
  141.1580   69.3050  227.9090 C   0  0  0  0  0  0  0  0  0  0  0  0
  141.0790   70.3980  227.0720 C   0  0  0  0  0  0  0  0  0  0  0  0
  140.3200   70.3570  225.9090 C   0  0  0  0  0  0  0  0  0  0  0  0
  139.6310   69.1920  225.5860 C   0  0  0  0  0  0  0  0  0  0  0  0
  139.7310   68.1070  226.4480 C   0  0  0  0  0  0  0  0  0  0  0  0
  138.8000   69.1070  224.3380 C   0  0  0  0  0  0  0  0  0  0  0  0
  139.6080   69.8060  223.2570 C   0  0  0  0  0  0  0  0  0  0  0  0
  139.9630   71.1550  223.6430 N   0  0  0  0  0  0  0  0  0  0  0  0
  140.0460   72.1600  222.6420 C   0  0  0  0  0  0  0  0  0  0  0  0
  139.1490   73.1830  222.6460 N   0  0  0  0  0  0  0  0  0  0  0  0
  139.2090   74.1420  221.7130 C   0  0  0  0  0  0  0  0  0  0  0  0
  138.3090   75.2400  221.6570 N   0  0  0  0  0  0  0  0  0  0  0  0
  138.6860   76.5660  222.1670 C   0  0  0  0  0  0  0  0  0  0  0  0
  140.1850   76.5780  222.3150 C   0  0  0  0  0  0  0  0  0  0  0  0
  140.7940   77.9390  222.2690 C   0  0  0  0  0  0  0  0  0  0  0  0
  141.4850   78.2580  220.9880 C   0  0  0  0  0  0  0  0  0  0  0  0
  141.8780   79.7150  220.9790 C   0  0  0  0  0  0  0  0  0  0  0  0
  141.5230   80.2810  222.1950 O   0  0  0  0  0  0  0  0  0  0  0  0
  142.1840   79.6640  223.2550 C   0  0  0  0  0  0  0  0  0  0  0  0
  141.7140   78.2250  223.4650 C   0  0  0  0  0  0  0  0  0  0  0  0
  140.1690   74.0660  220.7790 N   0  0  0  0  0  0  0  0  0  0  0  0
  141.0770   73.0750  220.7340 C   0  0  0  0  0  0  0  0  0  0  0  0
  142.1430   72.9610  219.7310 C   0  0  1  0  0  0  0  0  0  0  0  0
  141.9760   74.1060  218.7550 C   0  0  0  0  0  0  0  0  0  0  0  0
  142.7090   75.2280  219.4580 C   0  0  0  0  0  0  0  0  0  0  0  0
  143.8530   74.5210  220.0820 C   0  0  0  0  0  0  0  0  0  0  0  0
  145.1110   74.8850  220.5130 C   0  0  0  0  0  0  0  0  0  0  0  0
  146.0090   74.0040  221.0770 C   0  0  0  0  0  0  0  0  0  0  0  0
  145.6400   72.6610  221.2260 C   0  0  0  0  0  0  0  0  0  0  0  0
  144.3970   72.3000  220.8000 C   0  0  0  0  0  0  0  0  0  0  0  0
  143.5010   73.1970  220.2340 C   0  0  0  0  0  0  0  0  0  0  0  0
  140.9980   72.1240  221.6820 N   0  0  0  0  0  0  0  0  0  0  0  0
  140.2330   71.5250  225.0120 C   0  0  0  0  0  0  0  0  0  0  0  0
  140.5421   67.2757  228.2613 H   0  0  0  0  0  0  0  0  0  0  0  0
  141.7630   69.3579  228.8262 H   0  0  0  0  0  0  0  0  0  0  0  0
  141.6257   71.3172  227.3293 H   0  0  0  0  0  0  0  0  0  0  0  0
  139.1908   67.1810  226.2018 H   0  0  0  0  0  0  0  0  0  0  0  0
  138.6236   68.0560  224.0656 H   0  0  0  0  0  0  0  0  0  0  0  0
  137.8140   69.5752  224.4743 H   0  0  0  0  0  0  0  0  0  0  0  0
  140.5292   69.2334  223.0739 H   0  0  0  0  0  0  0  0  0  0  0  0
  138.9908   69.8602  222.3481 H   0  0  0  0  0  0  0  0  0  0  0  0
  137.3750   75.0540  221.2350 H   0  0  0  0  0  0  0  0  0  0  0  0
  138.3713   77.3458  221.4578 H   0  0  0  0  0  0  0  0  0  0  0  0
  138.1973   76.7661  223.1319 H   0  0  0  0  0  0  0  0  0  0  0  0
  140.4397   76.1188  223.2816 H   0  0  0  0  0  0  0  0  0  0  0  0
  140.5913   76.0212  221.4578 H   0  0  0  0  0  0  0  0  0  0  0  0
  139.9292   78.6155  222.3352 H   0  0  0  0  0  0  0  0  0  0  0  0
  142.3860   77.6344  220.8920 H   0  0  0  0  0  0  0  0  0  0  0  0
  140.8079   78.0552  220.1452 H   0  0  0  0  0  0  0  0  0  0  0  0
  142.9646   79.8040  220.8329 H   0  0  0  0  0  0  0  0  0  0  0  0
  141.3622   80.2363  220.1591 H   0  0  0  0  0  0  0  0  0  0  0  0
  143.2636   79.6575  223.0444 H   0  0  0  0  0  0  0  0  0  0  0  0
  141.9598   80.2310  224.1706 H   0  0  0  0  0  0  0  0  0  0  0  0
  142.5698   77.5339  223.4705 H   0  0  0  0  0  0  0  0  0  0  0  0
  141.1998   78.0906  224.4281 H   0  0  0  0  0  0  0  0  0  0  0  0
  142.0513   71.9374  219.3388 H   0  0  0  0  0  0  0  0  0  0  0  0
  142.4375   73.8739  217.7838 H   0  0  0  0  0  0  0  0  0  0  0  0
  140.9269   74.3398  218.5208 H   0  0  0  0  0  0  0  0  0  0  0  0
  143.0541   75.9879  218.7415 H   0  0  0  0  0  0  0  0  0  0  0  0
  142.0850   75.7756  220.1796 H   0  0  0  0  0  0  0  0  0  0  0  0
  145.4149   75.9362  220.4007 H   0  0  0  0  0  0  0  0  0  0  0  0
  147.0002   74.3504  221.4050 H   0  0  0  0  0  0  0  0  0  0  0  0
  146.3274   71.9258  221.6699 H   0  0  0  0  0  0  0  0  0  0  0  0
  144.0893   71.2496  220.9096 H   0  0  0  0  0  0  0  0  0  0  0  0
  141.1885   72.0688  225.0480 H   0  0  0  0  0  0  0  0  0  0  0  0
  139.3970   72.1500  225.3591 H   0  0  0  0  0  0  0  0  0  0  0  0
  1  2  2  0
  2  3  1  0
  3  4  2  0
  4  5  1  0
  5  6  2  0
  5  7  1  0
  7  8  1  0
  8  9  1  0
  9 10  1  0
 10 11  2  0
 11 12  1  0
 12 13  1  0
 13 14  1  0
 14 15  1  0
 15 16  1  0
 16 17  1  0
 17 18  1  0
 18 19  1  0
 19 20  1  0
 20 21  1  0
 12 22  2  0
 22 23  1  0
 23 24  1  0
 24 25  1  0
 25 26  1  0
 26 27  1  0
 27 28  2  0
 28 29  1  0
 29 30  2  0
 30 31  1  0
 31 32  2  0
 23 33  2  0
  9 34  1  0
  6  1  1  0
 33 10  1  0
 34  4  1  0
 21 16  1  0
 32 24  1  0
 32 27  1  0
  1 35  1  0
  2 36  1  0
  3 37  1  0
  6 38  1  0
  7 39  1  0
  7 40  1  0
  8 41  1  0
  8 42  1  0
 13 43  1  0
 14 44  1  0
 14 45  1  0
 15 46  1  0
 15 47  1  0
 16 48  1  0
 17 49  1  0
 17 50  1  0
 18 51  1  0
 18 52  1  0
 20 53  1  0
 20 54  1  0
 21 55  1  0
 21 56  1  0
 24 57  1  6
 25 58  1  0
 25 59  1  0
 26 60  1  0
 26 61  1  0
 28 62  1  0
 29 63  1  0
 30 64  1  0
 31 65  1  0
 34 66  1  0
 34 67  1  0
M  END
>  <smiles>  (99) 
c1ccc2c(c1)CCN(c1nc(NCCC3CCOCC3)nc(C3CCc4ccccc43)n1)C2

>  <score_type>  (99) 
oracle

>  <origin>  (99) 
autodockgpu

>  <m_score__min__energy>  (99) 
-9.8699999999999992

>  <m_primary>  (99) 
energy

>  <rmsd>  (99) 
7.9184688127239165

>  <m_score__min__rmsd>  (99) 
7.9184688127239165

>  <meeko>  (99) 
{"free_energy": -9.41, "intermolecular_energy": -11.2, "internal_energy": -1.7, "cluster_size": 26, "cluster_id": 1, "rank_in_cluster": 15}

>  <energy>  (99) 
-8.88

>  <cluster_rmsd>  (99) 
0.0

>  <cluster>  (99) 
4

$$$$

     RDKit          3D

 67 72  0  0  0  0  0  0  0  0999 V2000
  140.1500   67.7820  226.1580 C   0  0  0  0  0  0  0  0  0  0  0  0
  140.9210   68.7540  226.7430 C   0  0  0  0  0  0  0  0  0  0  0  0
  140.9720   70.0180  226.1940 C   0  0  0  0  0  0  0  0  0  0  0  0
  140.2500   70.3320  225.0490 C   0  0  0  0  0  0  0  0  0  0  0  0
  139.4660   69.3540  224.4480 C   0  0  0  0  0  0  0  0  0  0  0  0
  139.4350   68.0880  225.0230 C   0  0  0  0  0  0  0  0  0  0  0  0
  138.6710   69.6520  223.2100 C   0  0  0  0  0  0  0  0  0  0  0  0
  139.5760   70.5070  222.3360 C   0  0  0  0  0  0  0  0  0  0  0  0
  140.0430   71.6820  223.0400 N   0  0  0  0  0  0  0  0  0  0  0  0
  140.2530   72.8830  222.3120 C   0  0  0  0  0  0  0  0  0  0  0  0
  139.5800   74.0090  222.6730 N   0  0  0  0  0  0  0  0  0  0  0  0
  139.7620   75.1540  222.0010 C   0  0  0  0  0  0  0  0  0  0  0  0
  139.0960   76.3670  222.3230 N   0  0  0  0  0  0  0  0  0  0  0  0
  138.6270   77.2860  221.2760 C   0  0  0  0  0  0  0  0  0  0  0  0
  138.6790   78.6780  221.8480 C   0  0  0  0  0  0  0  0  0  0  0  0
  140.0600   79.2140  222.0310 C   0  0  0  0  0  0  0  0  0  0  0  0
  140.7540   78.7140  223.2510 C   0  0  0  0  0  0  0  0  0  0  0  0
  142.1980   79.1550  223.2230 C   0  0  0  0  0  0  0  0  0  0  0  0
  142.4030   79.9390  222.0980 O   0  0  0  0  0  0  0  0  0  0  0  0
  141.6050   81.0810  222.1210 C   0  0  0  0  0  0  0  0  0  0  0  0
  140.1210   80.7470  221.9660 C   0  0  0  0  0  0  0  0  0  0  0  0
  140.6200   75.1600  220.9700 N   0  0  0  0  0  0  0  0  0  0  0  0
  141.3080   74.0750  220.5770 C   0  0  0  0  0  0  0  0  0  0  0  0
  142.2580   74.0440  219.4570 C   0  0  1  0  0  0  0  0  0  0  0  0
  142.5740   75.4790  219.0890 C   0  0  0  0  0  0  0  0  0  0  0  0
  143.6800   75.8170  220.0630 C   0  0  0  0  0  0  0  0  0  0  0  0
  144.4400   74.5460  220.1390 C   0  0  0  0  0  0  0  0  0  0  0  0
  145.7320   74.1970  220.4700 C   0  0  0  0  0  0  0  0  0  0  0  0
  146.1980   72.8990  220.4590 C   0  0  0  0  0  0  0  0  0  0  0  0
  145.3240   71.8660  220.0950 C   0  0  0  0  0  0  0  0  0  0  0  0
  144.0470   72.2110  219.7680 C   0  0  0  0  0  0  0  0  0  0  0  0
  143.5900   73.5220  219.7820 C   0  0  0  0  0  0  0  0  0  0  0  0
  141.1090   72.9360  221.2670 N   0  0  0  0  0  0  0  0  0  0  0  0
  140.3030   71.6840  224.4600 C   0  0  0  0  0  0  0  0  0  0  0  0
  140.1039   66.7716  226.5904 H   0  0  0  0  0  0  0  0  0  0  0  0
  141.4989   68.5251  227.6505 H   0  0  0  0  0  0  0  0  0  0  0  0
  141.5942   70.7901  226.6701 H   0  0  0  0  0  0  0  0  0  0  0  0
  138.8189   67.3060  224.5552 H   0  0  0  0  0  0  0  0  0  0  0  0
  138.4058   68.7193  222.6906 H   0  0  0  0  0  0  0  0  0  0  0  0
  137.7291   70.1684  223.4467 H   0  0  0  0  0  0  0  0  0  0  0  0
  140.4449   69.9070  222.0277 H   0  0  0  0  0  0  0  0  0  0  0  0
  138.9964   70.8381  221.4617 H   0  0  0  0  0  0  0  0  0  0  0  0
  138.9600   76.5670  223.3370 H   0  0  0  0  0  0  0  0  0  0  0  0
  139.2802   77.2167  220.3937 H   0  0  0  0  0  0  0  0  0  0  0  0
  137.6038   77.0310  220.9628 H   0  0  0  0  0  0  0  0  0  0  0  0
  138.1353   79.3506  221.1683 H   0  0  0  0  0  0  0  0  0  0  0  0
  138.2256   78.6252  222.8488 H   0  0  0  0  0  0  0  0  0  0  0  0
  140.6134   78.8136  221.1688 H   0  0  0  0  0  0  0  0  0  0  0  0
  140.2627   79.1229  224.1462 H   0  0  0  0  0  0  0  0  0  0  0  0
  140.7058   77.6154  223.2768 H   0  0  0  0  0  0  0  0  0  0  0  0
  142.4239   79.7393  224.1272 H   0  0  0  0  0  0  0  0  0  0  0  0
  142.8574   78.2751  223.1911 H   0  0  0  0  0  0  0  0  0  0  0  0
  141.7540   81.5989  223.0799 H   0  0  0  0  0  0  0  0  0  0  0  0
  141.8997   81.7181  221.2741 H   0  0  0  0  0  0  0  0  0  0  0  0
  139.5350   81.1939  222.7827 H   0  0  0  0  0  0  0  0  0  0  0  0
  139.7002   81.1418  221.0295 H   0  0  0  0  0  0  0  0  0  0  0  0
  141.7751   73.4143  218.6953 H   0  0  0  0  0  0  0  0  0  0  0  0
  142.9204   75.5576  218.0479 H   0  0  0  0  0  0  0  0  0  0  0  0
  141.7074   76.1537  219.1504 H   0  0  0  0  0  0  0  0  0  0  0  0
  144.3095   76.6344  219.6816 H   0  0  0  0  0  0  0  0  0  0  0  0
  143.3130   76.1676  221.0389 H   0  0  0  0  0  0  0  0  0  0  0  0
  146.4292   74.9974  220.7586 H   0  0  0  0  0  0  0  0  0  0  0  0
  147.2404   72.6779  220.7319 H   0  0  0  0  0  0  0  0  0  0  0  0
  145.6559   70.8175  220.0740 H   0  0  0  0  0  0  0  0  0  0  0  0
  143.3458   71.4141  219.4796 H   0  0  0  0  0  0  0  0  0  0  0  0
  141.3042   72.1051  224.6342 H   0  0  0  0  0  0  0  0  0  0  0  0
  139.5194   72.2877  224.9411 H   0  0  0  0  0  0  0  0  0  0  0  0
  1  2  2  0
  2  3  1  0
  3  4  2  0
  4  5  1  0
  5  6  2  0
  5  7  1  0
  7  8  1  0
  8  9  1  0
  9 10  1  0
 10 11  2  0
 11 12  1  0
 12 13  1  0
 13 14  1  0
 14 15  1  0
 15 16  1  0
 16 17  1  0
 17 18  1  0
 18 19  1  0
 19 20  1  0
 20 21  1  0
 12 22  2  0
 22 23  1  0
 23 24  1  0
 24 25  1  0
 25 26  1  0
 26 27  1  0
 27 28  2  0
 28 29  1  0
 29 30  2  0
 30 31  1  0
 31 32  2  0
 23 33  2  0
  9 34  1  0
  6  1  1  0
 33 10  1  0
 34  4  1  0
 21 16  1  0
 32 24  1  0
 32 27  1  0
  1 35  1  0
  2 36  1  0
  3 37  1  0
  6 38  1  0
  7 39  1  0
  7 40  1  0
  8 41  1  0
  8 42  1  0
 13 43  1  0
 14 44  1  0
 14 45  1  0
 15 46  1  0
 15 47  1  0
 16 48  1  0
 17 49  1  0
 17 50  1  0
 18 51  1  0
 18 52  1  0
 20 53  1  0
 20 54  1  0
 21 55  1  0
 21 56  1  0
 24 57  1  6
 25 58  1  0
 25 59  1  0
 26 60  1  0
 26 61  1  0
 28 62  1  0
 29 63  1  0
 30 64  1  0
 31 65  1  0
 34 66  1  0
 34 67  1  0
M  END
>  <smiles>  (100) 
c1ccc2c(c1)CCN(c1nc(NCCC3CCOCC3)nc(C3CCc4ccccc43)n1)C2

>  <score_type>  (100) 
oracle

>  <origin>  (100) 
autodockgpu

>  <m_score__min__energy>  (100) 
-9.8699999999999992

>  <m_primary>  (100) 
energy

>  <rmsd>  (100) 
8.428981901089706

>  <m_score__min__rmsd>  (100) 
8.428981901089706

>  <meeko>  (100) 
{"free_energy": -9.05, "intermolecular_energy": -10.84, "internal_energy": -1.44, "cluster_size": 26, "cluster_id": 1, "rank_in_cluster": 23}

>  <energy>  (100) 
-8.79

>  <cluster_rmsd>  (100) 
0.64

>  <cluster>  (100) 
4

$$$$
