
     RDKit          3D

 69 74  0  0  0  0  0  0  0  0999 V2000
  144.7540   69.9990  219.1040 O   0  0  0  0  0  0  0  0  0  0  0  0
  144.7320   71.2630  219.6440 C   0  0  0  0  0  0  0  0  0  0  0  0
  145.8650   72.0440  219.7120 C   0  0  0  0  0  0  0  0  0  0  0  0
  145.8490   73.3180  220.2550 C   0  0  0  0  0  0  0  0  0  0  0  0
  144.6680   73.8130  220.7370 C   0  0  0  0  0  0  0  0  0  0  0  0
  143.5260   73.0530  220.6800 C   0  0  0  0  0  0  0  0  0  0  0  0
  142.2570   73.5520  221.1830 C   0  0  0  0  0  0  0  0  0  0  0  0
  141.3010   72.7220  221.6080 N   0  0  0  0  0  0  0  0  0  0  0  0
  140.1090   73.1300  222.0830 C   0  0  0  0  0  0  0  0  0  0  0  0
  139.1080   72.1930  222.5320 N   0  0  0  0  0  0  0  0  0  0  0  0
  137.7340   72.3860  222.1180 C   0  0  0  0  0  0  0  0  0  0  0  0
  136.9850   71.0490  222.0810 C   0  0  0  0  0  0  0  0  0  0  0  0
  137.1640   70.4600  223.4610 C   0  0  0  0  0  0  0  0  0  0  0  0
  136.2340   69.4550  223.8100 N   0  0  0  0  0  0  0  0  0  0  0  0
  135.6910   68.6910  222.7610 C   0  0  0  0  0  0  0  0  0  0  0  0
  134.5150   67.8520  223.0750 C   0  0  0  0  0  0  0  0  0  0  0  0
  133.5750   68.4840  224.1050 C   0  0  0  0  0  0  0  0  0  0  0  0
  134.4690   68.6660  225.3270 C   0  0  0  0  0  0  0  0  0  0  0  0
  135.4880   69.6790  224.9890 C   0  0  0  0  0  0  0  0  0  0  0  0
  138.6100   69.9740  223.5080 C   0  0  0  0  0  0  0  0  0  0  0  0
  139.5460   71.1230  223.3680 C   0  0  0  0  0  0  0  0  0  0  0  0
  139.8560   74.4530  222.1370 N   0  0  0  0  0  0  0  0  0  0  0  0
  140.7920   75.3190  221.7190 C   0  0  0  0  0  0  0  0  0  0  0  0
  140.4870   76.7050  221.7930 N   0  0  0  0  0  0  0  0  0  0  0  0
  139.2400   77.1280  222.3970 C   0  0  0  0  0  0  0  0  0  0  0  0
  139.0290   78.5860  222.0550 C   0  0  0  0  0  0  0  0  0  0  0  0
  140.1960   79.3400  222.5790 C   0  0  0  0  0  0  0  0  0  0  0  0
  140.0890   80.4260  223.4190 C   0  0  0  0  0  0  0  0  0  0  0  0
  141.2560   81.0530  223.8440 C   0  0  0  0  0  0  0  0  0  0  0  0
  142.4930   80.5900  223.4290 C   0  0  0  0  0  0  0  0  0  0  0  0
  142.6210   79.4970  222.5840 C   0  0  0  0  0  0  0  0  0  0  0  0
  141.4490   78.8970  222.1800 C   0  0  0  0  0  0  0  0  0  0  0  0
  141.4350   77.7000  221.2660 C   0  0  0  0  0  0  0  0  0  0  0  0
  141.9730   74.8830  221.2490 N   0  0  0  0  0  0  0  0  0  0  0  0
  143.5620   71.8010  220.1410 C   0  0  0  0  0  0  0  0  0  0  0  0
  143.8810   69.5690  218.8150 H   0  0  0  0  0  0  0  0  0  0  0  0
  146.8124   71.6429  219.3227 H   0  0  0  0  0  0  0  0  0  0  0  0
  146.7683   73.9205  220.2980 H   0  0  0  0  0  0  0  0  0  0  0  0
  144.6334   74.8230  221.1715 H   0  0  0  0  0  0  0  0  0  0  0  0
  137.2341   73.0601  222.8291 H   0  0  0  0  0  0  0  0  0  0  0  0
  137.7274   72.8225  221.1083 H   0  0  0  0  0  0  0  0  0  0  0  0
  135.9185   71.2096  221.8649 H   0  0  0  0  0  0  0  0  0  0  0  0
  137.3696   70.3824  221.2950 H   0  0  0  0  0  0  0  0  0  0  0  0
  136.9593   71.2269  224.2226 H   0  0  0  0  0  0  0  0  0  0  0  0
  135.3967   69.3876  221.9622 H   0  0  0  0  0  0  0  0  0  0  0  0
  136.4836   67.9782  222.4895 H   0  0  0  0  0  0  0  0  0  0  0  0
  133.9506   67.6811  222.1464 H   0  0  0  0  0  0  0  0  0  0  0  0
  134.8916   66.9149  223.5109 H   0  0  0  0  0  0  0  0  0  0  0  0
  133.1925   69.4518  223.7484 H   0  0  0  0  0  0  0  0  0  0  0  0
  132.6844   67.8715  224.3093 H   0  0  0  0  0  0  0  0  0  0  0  0
  133.8689   69.0089  226.1828 H   0  0  0  0  0  0  0  0  0  0  0  0
  134.9473   67.7139  225.6004 H   0  0  0  0  0  0  0  0  0  0  0  0
  134.9748   70.6459  224.8809 H   0  0  0  0  0  0  0  0  0  0  0  0
  136.2206   69.6391  225.8086 H   0  0  0  0  0  0  0  0  0  0  0  0
  138.7930   69.4719  224.4695 H   0  0  0  0  0  0  0  0  0  0  0  0
  138.7787   69.2719  222.6782 H   0  0  0  0  0  0  0  0  0  0  0  0
  139.7260   71.5337  224.3724 H   0  0  0  0  0  0  0  0  0  0  0  0
  140.4427   70.7148  222.8788 H   0  0  0  0  0  0  0  0  0  0  0  0
  138.4092   76.5268  221.9992 H   0  0  0  0  0  0  0  0  0  0  0  0
  139.2770   76.9917  223.4879 H   0  0  0  0  0  0  0  0  0  0  0  0
  138.9607   78.7099  220.9641 H   0  0  0  0  0  0  0  0  0  0  0  0
  138.0950   78.9578  222.5015 H   0  0  0  0  0  0  0  0  0  0  0  0
  139.1037   80.7893  223.7464 H   0  0  0  0  0  0  0  0  0  0  0  0
  141.1954   81.9229  224.5146 H   0  0  0  0  0  0  0  0  0  0  0  0
  143.4005   81.1035  223.7793 H   0  0  0  0  0  0  0  0  0  0  0  0
  143.6043   79.1299  222.2549 H   0  0  0  0  0  0  0  0  0  0  0  0
  141.1221   78.0095  220.2579 H   0  0  0  0  0  0  0  0  0  0  0  0
  142.4424   77.2614  221.2129 H   0  0  0  0  0  0  0  0  0  0  0  0
  142.6376   71.2062  220.1014 H   0  0  0  0  0  0  0  0  0  0  0  0
  1  2  1  0
  2  3  2  0
  3  4  1  0
  4  5  2  0
  5  6  1  0
  6  7  1  0
  7  8  2  0
  8  9  1  0
  9 10  1  0
 10 11  1  0
 11 12  1  0
 12 13  1  0
 13 14  1  0
 14 15  1  0
 15 16  1  0
 16 17  1  0
 17 18  1  0
 18 19  1  0
 13 20  1  0
 20 21  1  0
  9 22  2  0
 22 23  1  0
 23 24  1  0
 24 25  1  0
 25 26  1  0
 26 27  1  0
 27 28  2  0
 28 29  1  0
 29 30  2  0
 30 31  1  0
 31 32  2  0
 32 33  1  0
 23 34  2  0
  6 35  2  0
 35  2  1  0
 34  7  1  0
 21 10  1  0
 33 24  1  0
 19 14  1  0
 32 27  1  0
  1 36  1  0
  3 37  1  0
  4 38  1  0
  5 39  1  0
 11 40  1  0
 11 41  1  0
 12 42  1  0
 12 43  1  0
 13 44  1  0
 15 45  1  0
 15 46  1  0
 16 47  1  0
 16 48  1  0
 17 49  1  0
 17 50  1  0
 18 51  1  0
 18 52  1  0
 19 53  1  0
 19 54  1  0
 20 55  1  0
 20 56  1  0
 21 57  1  0
 21 58  1  0
 25 59  1  0
 25 60  1  0
 26 61  1  0
 26 62  1  0
 28 63  1  0
 29 64  1  0
 30 65  1  0
 31 66  1  0
 33 67  1  0
 33 68  1  0
 35 69  1  0
M  END
>  <smiles>  (1) 
Oc1cccc(-c2nc(N3CCC(N4CCCCC4)CC3)nc(N3CCc4ccccc4C3)n2)c1

>  <score_type>  (1) 
oracle

>  <origin>  (1) 
autodockgpu

>  <m_score__min__energy>  (1) 
-9.9499999999999993

>  <m_primary>  (1) 
energy

>  <rmsd>  (1) 
10.921100642202443

>  <m_score__min__rmsd>  (1) 
10.921100642202443

>  <meeko>  (1) 
{"free_energy": -8.34, "intermolecular_energy": -9.83, "internal_energy": -1.12, "cluster_size": 2, "cluster_id": 2, "rank_in_cluster": 2}

>  <energy>  (1) 
-9.95

>  <cluster_rmsd>  (1) 
0.0

>  <cluster>  (1) 
1

$$$$

     RDKit          3D

 69 74  0  0  0  0  0  0  0  0999 V2000
  146.3050   73.0130  217.8370 O   0  0  0  0  0  0  0  0  0  0  0  0
  145.5050   72.1550  218.5530 C   0  0  0  0  0  0  0  0  0  0  0  0
  145.6950   70.7910  218.5260 C   0  0  0  0  0  0  0  0  0  0  0  0
  144.8940   69.9210  219.2460 C   0  0  0  0  0  0  0  0  0  0  0  0
  143.8810   70.4380  220.0080 C   0  0  0  0  0  0  0  0  0  0  0  0
  143.6730   71.7940  220.0510 C   0  0  0  0  0  0  0  0  0  0  0  0
  142.6060   72.3730  220.8520 C   0  0  0  0  0  0  0  0  0  0  0  0
  142.3110   73.6740  220.7840 N   0  0  0  0  0  0  0  0  0  0  0  0
  141.3360   74.2600  221.5030 C   0  0  0  0  0  0  0  0  0  0  0  0
  141.0550   75.6720  221.3940 N   0  0  0  0  0  0  0  0  0  0  0  0
  140.0970   76.2660  222.3010 C   0  0  0  0  0  0  0  0  0  0  0  0
  140.4050   77.7520  222.5200 C   0  0  0  0  0  0  0  0  0  0  0  0
  140.4360   78.3540  221.1330 C   0  0  0  0  0  0  0  0  0  0  0  0
  140.2810   79.7580  221.0850 N   0  0  0  0  0  0  0  0  0  0  0  0
  141.0580   80.4570  220.1440 C   0  0  0  0  0  0  0  0  0  0  0  0
  141.1270   81.9270  220.2840 C   0  0  0  0  0  0  0  0  0  0  0  0
  141.1100   82.4010  221.7400 C   0  0  0  0  0  0  0  0  0  0  0  0
  139.7870   81.8550  222.2680 C   0  0  0  0  0  0  0  0  0  0  0  0
  139.8890   80.3820  222.2910 C   0  0  0  0  0  0  0  0  0  0  0  0
  141.7490   77.8790  220.5170 C   0  0  0  0  0  0  0  0  0  0  0  0
  141.7500   76.3970  220.3800 C   0  0  0  0  0  0  0  0  0  0  0  0
  140.6070   73.4990  222.3440 N   0  0  0  0  0  0  0  0  0  0  0  0
  140.8740   72.1870  222.4390 C   0  0  0  0  0  0  0  0  0  0  0  0
  140.0830   71.4180  223.3350 N   0  0  0  0  0  0  0  0  0  0  0  0
  139.0850   70.5110  222.8020 C   0  0  0  0  0  0  0  0  0  0  0  0
  138.1910   70.0830  223.9450 C   0  0  0  0  0  0  0  0  0  0  0  0
  139.0540   69.4390  224.9680 C   0  0  0  0  0  0  0  0  0  0  0  0
  138.8280   68.1770  225.4730 C   0  0  0  0  0  0  0  0  0  0  0  0
  139.7060   67.6800  226.4310 C   0  0  0  0  0  0  0  0  0  0  0  0
  140.7790   68.4400  226.8610 C   0  0  0  0  0  0  0  0  0  0  0  0
  141.0230   69.7130  226.3640 C   0  0  0  0  0  0  0  0  0  0  0  0
  140.1380   70.1780  225.4180 C   0  0  0  0  0  0  0  0  0  0  0  0
  140.2810   71.5400  224.7880 C   0  0  0  0  0  0  0  0  0  0  0  0
  141.8550   71.6280  221.7100 N   0  0  0  0  0  0  0  0  0  0  0  0
  144.4740   72.6340  219.3350 C   0  0  0  0  0  0  0  0  0  0  0  0
  146.2050   74.0140  217.9730 H   0  0  0  0  0  0  0  0  0  0  0  0
  146.5099   70.3794  217.9123 H   0  0  0  0  0  0  0  0  0  0  0  0
  145.0682   68.8356  219.2065 H   0  0  0  0  0  0  0  0  0  0  0  0
  143.2320   69.7649  220.5874 H   0  0  0  0  0  0  0  0  0  0  0  0
  139.0874   76.1656  221.8760 H   0  0  0  0  0  0  0  0  0  0  0  0
  140.1579   75.7465  223.2687 H   0  0  0  0  0  0  0  0  0  0  0  0
  139.6197   78.2239  223.1288 H   0  0  0  0  0  0  0  0  0  0  0  0
  141.3531   77.9026  223.0570 H   0  0  0  0  0  0  0  0  0  0  0  0
  139.5616   78.0138  220.5588 H   0  0  0  0  0  0  0  0  0  0  0  0
  142.0854   80.0696  220.2099 H   0  0  0  0  0  0  0  0  0  0  0  0
  140.5567   80.2870  219.1797 H   0  0  0  0  0  0  0  0  0  0  0  0
  142.0571   82.2787  219.8137 H   0  0  0  0  0  0  0  0  0  0  0  0
  140.2321   82.3418  219.7971 H   0  0  0  0  0  0  0  0  0  0  0  0
  141.9603   81.9850  222.3003 H   0  0  0  0  0  0  0  0  0  0  0  0
  141.1968   83.4930  221.8396 H   0  0  0  0  0  0  0  0  0  0  0  0
  139.6036   82.2342  223.2842 H   0  0  0  0  0  0  0  0  0  0  0  0
  138.9533   82.1744  221.6254 H   0  0  0  0  0  0  0  0  0  0  0  0
  140.6245   80.1100  223.0624 H   0  0  0  0  0  0  0  0  0  0  0  0
  138.8679   80.0226  222.4862 H   0  0  0  0  0  0  0  0  0  0  0  0
  141.8694   78.3352  219.5233 H   0  0  0  0  0  0  0  0  0  0  0  0
  142.5802   78.1779  221.1726 H   0  0  0  0  0  0  0  0  0  0  0  0
  141.2883   76.1486  219.4130 H   0  0  0  0  0  0  0  0  0  0  0  0
  142.8034   76.0929  220.4689 H   0  0  0  0  0  0  0  0  0  0  0  0
  138.4887   71.0218  222.0316 H   0  0  0  0  0  0  0  0  0  0  0  0
  139.5677   69.6354  222.3433 H   0  0  0  0  0  0  0  0  0  0  0  0
  137.6870   70.9603  224.3768 H   0  0  0  0  0  0  0  0  0  0  0  0
  137.4188   69.3833  223.5926 H   0  0  0  0  0  0  0  0  0  0  0  0
  137.9737   67.5767  225.1269 H   0  0  0  0  0  0  0  0  0  0  0  0
  139.5458   66.6754  226.8496 H   0  0  0  0  0  0  0  0  0  0  0  0
  141.4587   68.0234  227.6189 H   0  0  0  0  0  0  0  0  0  0  0  0
  141.8762   70.3165  226.7072 H   0  0  0  0  0  0  0  0  0  0  0  0
  139.5262   72.2215  225.2073 H   0  0  0  0  0  0  0  0  0  0  0  0
  141.2840   71.9418  224.9943 H   0  0  0  0  0  0  0  0  0  0  0  0
  144.2941   73.7182  219.3820 H   0  0  0  0  0  0  0  0  0  0  0  0
  1  2  1  0
  2  3  2  0
  3  4  1  0
  4  5  2  0
  5  6  1  0
  6  7  1  0
  7  8  2  0
  8  9  1  0
  9 10  1  0
 10 11  1  0
 11 12  1  0
 12 13  1  0
 13 14  1  0
 14 15  1  0
 15 16  1  0
 16 17  1  0
 17 18  1  0
 18 19  1  0
 13 20  1  0
 20 21  1  0
  9 22  2  0
 22 23  1  0
 23 24  1  0
 24 25  1  0
 25 26  1  0
 26 27  1  0
 27 28  2  0
 28 29  1  0
 29 30  2  0
 30 31  1  0
 31 32  2  0
 32 33  1  0
 23 34  2  0
  6 35  2  0
 35  2  1  0
 34  7  1  0
 21 10  1  0
 33 24  1  0
 19 14  1  0
 32 27  1  0
  1 36  1  0
  3 37  1  0
  4 38  1  0
  5 39  1  0
 11 40  1  0
 11 41  1  0
 12 42  1  0
 12 43  1  0
 13 44  1  0
 15 45  1  0
 15 46  1  0
 16 47  1  0
 16 48  1  0
 17 49  1  0
 17 50  1  0
 18 51  1  0
 18 52  1  0
 19 53  1  0
 19 54  1  0
 20 55  1  0
 20 56  1  0
 21 57  1  0
 21 58  1  0
 25 59  1  0
 25 60  1  0
 26 61  1  0
 26 62  1  0
 28 63  1  0
 29 64  1  0
 30 65  1  0
 31 66  1  0
 33 67  1  0
 33 68  1  0
 35 69  1  0
M  END
>  <smiles>  (2) 
Oc1cccc(-c2nc(N3CCC(N4CCCCC4)CC3)nc(N3CCc4ccccc4C3)n2)c1

>  <score_type>  (2) 
oracle

>  <origin>  (2) 
autodockgpu

>  <m_score__min__energy>  (2) 
-9.9499999999999993

>  <m_primary>  (2) 
energy

>  <rmsd>  (2) 
5.522255744262169

>  <m_score__min__rmsd>  (2) 
5.522255744262169

>  <meeko>  (2) 
{"free_energy": -9.87, "intermolecular_energy": -11.36, "internal_energy": -1.12, "cluster_size": 46, "cluster_id": 1, "rank_in_cluster": 22}

>  <energy>  (2) 
-9.95

>  <cluster_rmsd>  (2) 
0.19

>  <cluster>  (2) 
1

$$$$

     RDKit          3D

 69 74  0  0  0  0  0  0  0  0999 V2000
  146.3200   73.0340  217.9110 O   0  0  0  0  0  0  0  0  0  0  0  0
  145.4800   72.1740  218.5770 C   0  0  0  0  0  0  0  0  0  0  0  0
  145.6220   70.8060  218.4890 C   0  0  0  0  0  0  0  0  0  0  0  0
  144.7800   69.9340  219.1580 C   0  0  0  0  0  0  0  0  0  0  0  0
  143.7760   70.4520  219.9320 C   0  0  0  0  0  0  0  0  0  0  0  0
  143.6170   71.8110  220.0360 C   0  0  0  0  0  0  0  0  0  0  0  0
  142.5610   72.3910  220.8510 C   0  0  0  0  0  0  0  0  0  0  0  0
  142.2650   73.6910  220.7850 N   0  0  0  0  0  0  0  0  0  0  0  0
  141.2990   74.2780  221.5170 C   0  0  0  0  0  0  0  0  0  0  0  0
  141.0160   75.6900  221.4090 N   0  0  0  0  0  0  0  0  0  0  0  0
  140.0140   76.2700  222.2780 C   0  0  0  0  0  0  0  0  0  0  0  0
  140.3040   77.7550  222.5260 C   0  0  0  0  0  0  0  0  0  0  0  0
  140.3950   78.3710  221.1480 C   0  0  0  0  0  0  0  0  0  0  0  0
  140.2350   79.7740  221.1080 N   0  0  0  0  0  0  0  0  0  0  0  0
  140.9890   80.4790  220.1510 C   0  0  0  0  0  0  0  0  0  0  0  0
  141.0560   81.9490  220.2930 C   0  0  0  0  0  0  0  0  0  0  0  0
  141.0710   82.4180  221.7510 C   0  0  0  0  0  0  0  0  0  0  0  0
  139.7610   81.8670  222.3070 C   0  0  0  0  0  0  0  0  0  0  0  0
  139.8680   80.3950  222.3240 C   0  0  0  0  0  0  0  0  0  0  0  0
  141.7370   77.9090  220.5880 C   0  0  0  0  0  0  0  0  0  0  0  0
  141.7520   76.4290  220.4360 C   0  0  0  0  0  0  0  0  0  0  0  0
  140.5830   73.5180  222.3690 N   0  0  0  0  0  0  0  0  0  0  0  0
  140.8520   72.2060  222.4630 C   0  0  0  0  0  0  0  0  0  0  0  0
  140.0740   71.4380  223.3710 N   0  0  0  0  0  0  0  0  0  0  0  0
  139.0650   70.5360  222.8550 C   0  0  0  0  0  0  0  0  0  0  0  0
  138.1890   70.1080  224.0120 C   0  0  0  0  0  0  0  0  0  0  0  0
  139.0680   69.4600  225.0190 C   0  0  0  0  0  0  0  0  0  0  0  0
  138.8470   68.1980  225.5260 C   0  0  0  0  0  0  0  0  0  0  0  0
  139.7400   67.6970  226.4680 C   0  0  0  0  0  0  0  0  0  0  0  0
  140.8230   68.4530  226.8810 C   0  0  0  0  0  0  0  0  0  0  0  0
  141.0620   69.7260  226.3820 C   0  0  0  0  0  0  0  0  0  0  0  0
  140.1620   70.1950  225.4510 C   0  0  0  0  0  0  0  0  0  0  0  0
  140.2980   71.5570  224.8210 C   0  0  0  0  0  0  0  0  0  0  0  0
  141.8220   71.6470  221.7210 N   0  0  0  0  0  0  0  0  0  0  0  0
  144.4570   72.6540  219.3690 C   0  0  0  0  0  0  0  0  0  0  0  0
  146.2140   74.0350  218.0490 H   0  0  0  0  0  0  0  0  0  0  0  0
  146.4303   70.3936  217.8672 H   0  0  0  0  0  0  0  0  0  0  0  0
  144.9149   68.8459  219.0695 H   0  0  0  0  0  0  0  0  0  0  0  0
  143.0954   69.7771  220.4716 H   0  0  0  0  0  0  0  0  0  0  0  0
  139.0253   76.1692  221.8064 H   0  0  0  0  0  0  0  0  0  0  0  0
  140.0334   75.7406  223.2420 H   0  0  0  0  0  0  0  0  0  0  0  0
  139.4894   78.2170  223.1031 H   0  0  0  0  0  0  0  0  0  0  0  0
  141.2257   77.9047  223.1074 H   0  0  0  0  0  0  0  0  0  0  0  0
  139.5500   78.0323  220.5305 H   0  0  0  0  0  0  0  0  0  0  0  0
  142.0190   80.0952  220.1930 H   0  0  0  0  0  0  0  0  0  0  0  0
  140.4668   80.3097  219.1978 H   0  0  0  0  0  0  0  0  0  0  0  0
  141.9737   82.3055  219.8024 H   0  0  0  0  0  0  0  0  0  0  0  0
  140.1490   82.3624  219.8277 H   0  0  0  0  0  0  0  0  0  0  0  0
  141.9346   82.0020  222.2905 H   0  0  0  0  0  0  0  0  0  0  0  0
  141.1578   83.5099  221.8525 H   0  0  0  0  0  0  0  0  0  0  0  0
  139.5990   82.2432  223.3279 H   0  0  0  0  0  0  0  0  0  0  0  0
  138.9123   82.1857  221.6840 H   0  0  0  0  0  0  0  0  0  0  0  0
  140.6213   80.1236  223.0783 H   0  0  0  0  0  0  0  0  0  0  0  0
  138.8523   80.0323  222.5405 H   0  0  0  0  0  0  0  0  0  0  0  0
  141.9003   78.3762  219.6056 H   0  0  0  0  0  0  0  0  0  0  0  0
  142.5358   78.2050  221.2840 H   0  0  0  0  0  0  0  0  0  0  0  0
  141.3360   76.1887  219.4464 H   0  0  0  0  0  0  0  0  0  0  0  0
  142.8019   76.1292  220.5699 H   0  0  0  0  0  0  0  0  0  0  0  0
  138.4570   71.0500  222.0960 H   0  0  0  0  0  0  0  0  0  0  0  0
  139.5374   69.6597  222.3871 H   0  0  0  0  0  0  0  0  0  0  0  0
  137.6945   70.9856  224.4538 H   0  0  0  0  0  0  0  0  0  0  0  0
  137.4091   69.4110  223.6715 H   0  0  0  0  0  0  0  0  0  0  0  0
  137.9850   67.6008  225.1939 H   0  0  0  0  0  0  0  0  0  0  0  0
  139.5840   66.6923  226.8877 H   0  0  0  0  0  0  0  0  0  0  0  0
  141.5145   68.0330  227.6263 H   0  0  0  0  0  0  0  0  0  0  0  0
  141.9224   70.3268  226.7118 H   0  0  0  0  0  0  0  0  0  0  0  0
  139.5528   72.2401  225.2546 H   0  0  0  0  0  0  0  0  0  0  0  0
  141.3057   71.9554  225.0102 H   0  0  0  0  0  0  0  0  0  0  0  0
  144.3157   73.7407  219.4647 H   0  0  0  0  0  0  0  0  0  0  0  0
  1  2  1  0
  2  3  2  0
  3  4  1  0
  4  5  2  0
  5  6  1  0
  6  7  1  0
  7  8  2  0
  8  9  1  0
  9 10  1  0
 10 11  1  0
 11 12  1  0
 12 13  1  0
 13 14  1  0
 14 15  1  0
 15 16  1  0
 16 17  1  0
 17 18  1  0
 18 19  1  0
 13 20  1  0
 20 21  1  0
  9 22  2  0
 22 23  1  0
 23 24  1  0
 24 25  1  0
 25 26  1  0
 26 27  1  0
 27 28  2  0
 28 29  1  0
 29 30  2  0
 30 31  1  0
 31 32  2  0
 32 33  1  0
 23 34  2  0
  6 35  2  0
 35  2  1  0
 34  7  1  0
 21 10  1  0
 33 24  1  0
 19 14  1  0
 32 27  1  0
  1 36  1  0
  3 37  1  0
  4 38  1  0
  5 39  1  0
 11 40  1  0
 11 41  1  0
 12 42  1  0
 12 43  1  0
 13 44  1  0
 15 45  1  0
 15 46  1  0
 16 47  1  0
 16 48  1  0
 17 49  1  0
 17 50  1  0
 18 51  1  0
 18 52  1  0
 19 53  1  0
 19 54  1  0
 20 55  1  0
 20 56  1  0
 21 57  1  0
 21 58  1  0
 25 59  1  0
 25 60  1  0
 26 61  1  0
 26 62  1  0
 28 63  1  0
 29 64  1  0
 30 65  1  0
 31 66  1  0
 33 67  1  0
 33 68  1  0
 35 69  1  0
M  END
>  <smiles>  (3) 
Oc1cccc(-c2nc(N3CCC(N4CCCCC4)CC3)nc(N3CCc4ccccc4C3)n2)c1

>  <score_type>  (3) 
oracle

>  <origin>  (3) 
autodockgpu

>  <m_score__min__energy>  (3) 
-9.9499999999999993

>  <m_primary>  (3) 
energy

>  <rmsd>  (3) 
5.531377519509214

>  <m_score__min__rmsd>  (3) 
5.531377519509214

>  <meeko>  (3) 
{"free_energy": -9.9, "intermolecular_energy": -11.4, "internal_energy": -1.12, "cluster_size": 46, "cluster_id": 1, "rank_in_cluster": 19}

>  <energy>  (3) 
-9.94

>  <cluster_rmsd>  (3) 
0.19

>  <cluster>  (3) 
1

$$$$

     RDKit          3D

 69 74  0  0  0  0  0  0  0  0999 V2000
  146.2910   73.1270  218.6110 O   0  0  0  0  0  0  0  0  0  0  0  0
  145.3040   72.2490  218.9920 C   0  0  0  0  0  0  0  0  0  0  0  0
  145.3080   70.9320  218.5890 C   0  0  0  0  0  0  0  0  0  0  0  0
  144.3180   70.0420  218.9690 C   0  0  0  0  0  0  0  0  0  0  0  0
  143.3040   70.4910  219.7730 C   0  0  0  0  0  0  0  0  0  0  0  0
  143.2790   71.7990  220.1860 C   0  0  0  0  0  0  0  0  0  0  0  0
  142.2160   72.3040  221.0410 C   0  0  0  0  0  0  0  0  0  0  0  0
  141.8080   73.5740  220.9680 N   0  0  0  0  0  0  0  0  0  0  0  0
  140.8300   74.0930  221.7340 C   0  0  0  0  0  0  0  0  0  0  0  0
  140.4250   75.4730  221.6180 N   0  0  0  0  0  0  0  0  0  0  0  0
  139.0830   75.8440  222.0160 C   0  0  0  0  0  0  0  0  0  0  0  0
  139.0360   77.3080  222.4700 C   0  0  0  0  0  0  0  0  0  0  0  0
  139.6040   78.0950  221.3110 C   0  0  0  0  0  0  0  0  0  0  0  0
  139.2830   79.4710  221.3070 N   0  0  0  0  0  0  0  0  0  0  0  0
  140.2890   80.3660  221.7140 C   0  0  0  0  0  0  0  0  0  0  0  0
  139.8810   81.7590  221.9960 C   0  0  0  0  0  0  0  0  0  0  0  0
  138.4850   81.8700  222.6160 C   0  0  0  0  0  0  0  0  0  0  0  0
  137.5850   81.2300  221.5640 C   0  0  0  0  0  0  0  0  0  0  0  0
  137.9210   79.7940  221.5030 C   0  0  0  0  0  0  0  0  0  0  0  0
  141.1070   77.8360  221.3440 C   0  0  0  0  0  0  0  0  0  0  0  0
  141.3880   76.3940  221.1070 C   0  0  0  0  0  0  0  0  0  0  0  0
  140.2190   73.2920  222.6300 N   0  0  0  0  0  0  0  0  0  0  0  0
  140.6010   72.0090  222.7320 C   0  0  0  0  0  0  0  0  0  0  0  0
  139.9320   71.1960  223.6860 N   0  0  0  0  0  0  0  0  0  0  0  0
  139.1330   70.0770  223.2300 C   0  0  0  0  0  0  0  0  0  0  0  0
  138.2920   69.6020  224.3950 C   0  0  0  0  0  0  0  0  0  0  0  0
  139.2210   69.2270  225.4910 C   0  0  0  0  0  0  0  0  0  0  0  0
  139.2100   67.9980  226.1150 C   0  0  0  0  0  0  0  0  0  0  0  0
  140.1300   67.7630  227.1320 C   0  0  0  0  0  0  0  0  0  0  0  0
  141.0330   68.7440  227.5020 C   0  0  0  0  0  0  0  0  0  0  0  0
  141.0600   69.9870  226.8850 C   0  0  0  0  0  0  0  0  0  0  0  0
  140.1380   70.1910  225.8830 C   0  0  0  0  0  0  0  0  0  0  0  0
  140.0540   71.4900  225.1230 C   0  0  0  0  0  0  0  0  0  0  0  0
  141.5810   71.5180  221.9540 N   0  0  0  0  0  0  0  0  0  0  0  0
  144.2640   72.6600  219.8010 C   0  0  0  0  0  0  0  0  0  0  0  0
  146.0490   74.0970  218.4320 H   0  0  0  0  0  0  0  0  0  0  0  0
  146.1247   70.5756  217.9440 H   0  0  0  0  0  0  0  0  0  0  0  0
  144.3451   68.9952  218.6320 H   0  0  0  0  0  0  0  0  0  0  0  0
  142.5076   69.8009  220.0884 H   0  0  0  0  0  0  0  0  0  0  0  0
  138.4030   75.7091  221.1619 H   0  0  0  0  0  0  0  0  0  0  0  0
  138.7740   75.2039  222.8555 H   0  0  0  0  0  0  0  0  0  0  0  0
  138.0002   77.6160  222.6759 H   0  0  0  0  0  0  0  0  0  0  0  0
  139.6033   77.4714  223.3981 H   0  0  0  0  0  0  0  0  0  0  0  0
  139.1461   77.7555  220.3702 H   0  0  0  0  0  0  0  0  0  0  0  0
  140.7404   79.9612  222.6318 H   0  0  0  0  0  0  0  0  0  0  0  0
  140.9690   80.4388  220.8525 H   0  0  0  0  0  0  0  0  0  0  0  0
  140.6082   82.2011  222.6929 H   0  0  0  0  0  0  0  0  0  0  0  0
  139.8520   82.2902  221.0332 H   0  0  0  0  0  0  0  0  0  0  0  0
  138.4313   81.3212  223.5678 H   0  0  0  0  0  0  0  0  0  0  0  0
  138.2003   82.9052  222.8555 H   0  0  0  0  0  0  0  0  0  0  0  0
  136.5294   81.3566  221.8463 H   0  0  0  0  0  0  0  0  0  0  0  0
  137.7387   81.7047  220.5837 H   0  0  0  0  0  0  0  0  0  0  0  0
  137.6024   79.3360  222.4510 H   0  0  0  0  0  0  0  0  0  0  0  0
  137.4010   79.4118  220.6122 H   0  0  0  0  0  0  0  0  0  0  0  0
  141.5956   78.4344  220.5609 H   0  0  0  0  0  0  0  0  0  0  0  0
  141.4971   78.1187  222.3329 H   0  0  0  0  0  0  0  0  0  0  0  0
  141.4566   76.2395  220.0201 H   0  0  0  0  0  0  0  0  0  0  0  0
  142.3185   76.1812  221.6537 H   0  0  0  0  0  0  0  0  0  0  0  0
  138.4809   70.3954  222.4033 H   0  0  0  0  0  0  0  0  0  0  0  0
  139.7810   69.2650  222.8684 H   0  0  0  0  0  0  0  0  0  0  0  0
  137.6229   70.4087  224.7290 H   0  0  0  0  0  0  0  0  0  0  0  0
  137.6720   68.7423  224.1008 H   0  0  0  0  0  0  0  0  0  0  0  0
  138.4908   67.2213  225.8160 H   0  0  0  0  0  0  0  0  0  0  0  0
  140.1396   66.7903  227.6456 H   0  0  0  0  0  0  0  0  0  0  0  0
  141.7504   68.5326  228.3086 H   0  0  0  0  0  0  0  0  0  0  0  0
  141.7783   70.7660  227.1802 H   0  0  0  0  0  0  0  0  0  0  0  0
  139.1742   72.0581  225.4594 H   0  0  0  0  0  0  0  0  0  0  0  0
  140.9598   72.0870  225.3051 H   0  0  0  0  0  0  0  0  0  0  0  0
  144.2289   73.7050  220.1427 H   0  0  0  0  0  0  0  0  0  0  0  0
  1  2  1  0
  2  3  2  0
  3  4  1  0
  4  5  2  0
  5  6  1  0
  6  7  1  0
  7  8  2  0
  8  9  1  0
  9 10  1  0
 10 11  1  0
 11 12  1  0
 12 13  1  0
 13 14  1  0
 14 15  1  0
 15 16  1  0
 16 17  1  0
 17 18  1  0
 18 19  1  0
 13 20  1  0
 20 21  1  0
  9 22  2  0
 22 23  1  0
 23 24  1  0
 24 25  1  0
 25 26  1  0
 26 27  1  0
 27 28  2  0
 28 29  1  0
 29 30  2  0
 30 31  1  0
 31 32  2  0
 32 33  1  0
 23 34  2  0
  6 35  2  0
 35  2  1  0
 34  7  1  0
 21 10  1  0
 33 24  1  0
 19 14  1  0
 32 27  1  0
  1 36  1  0
  3 37  1  0
  4 38  1  0
  5 39  1  0
 11 40  1  0
 11 41  1  0
 12 42  1  0
 12 43  1  0
 13 44  1  0
 15 45  1  0
 15 46  1  0
 16 47  1  0
 16 48  1  0
 17 49  1  0
 17 50  1  0
 18 51  1  0
 18 52  1  0
 19 53  1  0
 19 54  1  0
 20 55  1  0
 20 56  1  0
 21 57  1  0
 21 58  1  0
 25 59  1  0
 25 60  1  0
 26 61  1  0
 26 62  1  0
 28 63  1  0
 29 64  1  0
 30 65  1  0
 31 66  1  0
 33 67  1  0
 33 68  1  0
 35 69  1  0
M  END
>  <smiles>  (4) 
Oc1cccc(-c2nc(N3CCC(N4CCCCC4)CC3)nc(N3CCc4ccccc4C3)n2)c1

>  <score_type>  (4) 
oracle

>  <origin>  (4) 
autodockgpu

>  <m_score__min__energy>  (4) 
-9.9499999999999993

>  <m_primary>  (4) 
energy

>  <rmsd>  (4) 
5.472844679066372

>  <m_score__min__rmsd>  (4) 
5.472844679066372

>  <meeko>  (4) 
{"free_energy": -9.68, "intermolecular_energy": -11.17, "internal_energy": -1.12, "cluster_size": 46, "cluster_id": 1, "rank_in_cluster": 30}

>  <energy>  (4) 
-9.94

>  <cluster_rmsd>  (4) 
0.06

>  <cluster>  (4) 
1

$$$$

     RDKit          3D

 69 74  0  0  0  0  0  0  0  0999 V2000
  146.3030   73.0330  217.9450 O   0  0  0  0  0  0  0  0  0  0  0  0
  145.4560   72.2100  218.6480 C   0  0  0  0  0  0  0  0  0  0  0  0
  145.5910   70.8400  218.6280 C   0  0  0  0  0  0  0  0  0  0  0  0
  144.7420   70.0050  219.3340 C   0  0  0  0  0  0  0  0  0  0  0  0
  143.7360   70.5650  220.0760 C   0  0  0  0  0  0  0  0  0  0  0  0
  143.5820   71.9290  220.1110 C   0  0  0  0  0  0  0  0  0  0  0  0
  142.5240   72.5530  220.8900 C   0  0  0  0  0  0  0  0  0  0  0  0
  142.2590   73.8570  220.7850 N   0  0  0  0  0  0  0  0  0  0  0  0
  141.2930   74.4850  221.4820 C   0  0  0  0  0  0  0  0  0  0  0  0
  141.0440   75.8980  221.3330 N   0  0  0  0  0  0  0  0  0  0  0  0
  140.1300   76.5480  222.2480 C   0  0  0  0  0  0  0  0  0  0  0  0
  140.4810   78.0320  222.4060 C   0  0  0  0  0  0  0  0  0  0  0  0
  140.4840   78.5850  221.0000 C   0  0  0  0  0  0  0  0  0  0  0  0
  140.3630   79.9900  220.9080 N   0  0  0  0  0  0  0  0  0  0  0  0
  141.2520   80.6560  220.0440 C   0  0  0  0  0  0  0  0  0  0  0  0
  141.3340   82.1270  220.1620 C   0  0  0  0  0  0  0  0  0  0  0  0
  141.1670   82.6320  221.5990 C   0  0  0  0  0  0  0  0  0  0  0  0
  139.7840   82.1200  221.9890 C   0  0  0  0  0  0  0  0  0  0  0  0
  139.8540   80.6470  222.0510 C   0  0  0  0  0  0  0  0  0  0  0  0
  141.7650   78.0560  220.3600 C   0  0  0  0  0  0  0  0  0  0  0  0
  141.7250   76.5710  220.2750 C   0  0  0  0  0  0  0  0  0  0  0  0
  140.5440   73.7620  222.3390 N   0  0  0  0  0  0  0  0  0  0  0  0
  140.7800   72.4480  222.4720 C   0  0  0  0  0  0  0  0  0  0  0  0
  139.9680   71.7210  223.3830 N   0  0  0  0  0  0  0  0  0  0  0  0
  138.7950   71.0260  222.8920 C   0  0  0  0  0  0  0  0  0  0  0  0
  137.9570   70.6260  224.0870 C   0  0  0  0  0  0  0  0  0  0  0  0
  138.8030   69.7680  224.9550 C   0  0  0  0  0  0  0  0  0  0  0  0
  138.4330   68.5110  225.3790 C   0  0  0  0  0  0  0  0  0  0  0  0
  139.3090   67.8010  226.1930 C   0  0  0  0  0  0  0  0  0  0  0  0
  140.5240   68.3510  226.5640 C   0  0  0  0  0  0  0  0  0  0  0  0
  140.9150   69.6150  226.1470 C   0  0  0  0  0  0  0  0  0  0  0  0
  140.0270   70.2940  225.3430 C   0  0  0  0  0  0  0  0  0  0  0  0
  140.3200   71.6730  224.8120 C   0  0  0  0  0  0  0  0  0  0  0  0
  141.7520   71.8480  221.7640 N   0  0  0  0  0  0  0  0  0  0  0  0
  144.4300   72.7330  219.4090 C   0  0  0  0  0  0  0  0  0  0  0  0
  146.2250   74.0390  218.0600 H   0  0  0  0  0  0  0  0  0  0  0  0
  146.4004   70.3941  218.0312 H   0  0  0  0  0  0  0  0  0  0  0  0
  144.8727   68.9133  219.2998 H   0  0  0  0  0  0  0  0  0  0  0  0
  143.0499   69.9205  220.6452 H   0  0  0  0  0  0  0  0  0  0  0  0
  139.1053   76.4594  221.8578 H   0  0  0  0  0  0  0  0  0  0  0  0
  140.2091   76.0605  223.2309 H   0  0  0  0  0  0  0  0  0  0  0  0
  139.7267   78.5443  223.0213 H   0  0  0  0  0  0  0  0  0  0  0  0
  141.4486   78.1764  222.9088 H   0  0  0  0  0  0  0  0  0  0  0  0
  139.5838   78.2476  220.4654 H   0  0  0  0  0  0  0  0  0  0  0  0
  142.2584   80.2525  220.2295 H   0  0  0  0  0  0  0  0  0  0  0  0
  140.8555   80.4743  219.0342 H   0  0  0  0  0  0  0  0  0  0  0  0
  142.3167   82.4525  219.7899 H   0  0  0  0  0  0  0  0  0  0  0  0
  140.5062   82.5470  219.5717 H   0  0  0  0  0  0  0  0  0  0  0  0
  141.9428   82.2134  222.2570 H   0  0  0  0  0  0  0  0  0  0  0  0
  141.2635   83.7242  221.6867 H   0  0  0  0  0  0  0  0  0  0  0  0
  139.4981   82.5235  222.9716 H   0  0  0  0  0  0  0  0  0  0  0  0
  139.0320   82.4402  221.2528 H   0  0  0  0  0  0  0  0  0  0  0  0
  140.4952   80.3788  222.9036 H   0  0  0  0  0  0  0  0  0  0  0  0
  138.8106   80.3101  222.1392 H   0  0  0  0  0  0  0  0  0  0  0  0
  141.8646   78.4748  219.3477 H   0  0  0  0  0  0  0  0  0  0  0  0
  142.6240   78.3559  220.9782 H   0  0  0  0  0  0  0  0  0  0  0  0
  141.2280   76.3020  219.3312 H   0  0  0  0  0  0  0  0  0  0  0  0
  142.7729   76.2436  220.3439 H   0  0  0  0  0  0  0  0  0  0  0  0
  138.2150   71.6902  222.2343 H   0  0  0  0  0  0  0  0  0  0  0  0
  139.0898   70.1366  222.3158 H   0  0  0  0  0  0  0  0  0  0  0  0
  137.6385   71.5221  224.6398 H   0  0  0  0  0  0  0  0  0  0  0  0
  137.0554   70.0841  223.7654 H   0  0  0  0  0  0  0  0  0  0  0  0
  137.4666   68.0785  225.0806 H   0  0  0  0  0  0  0  0  0  0  0  0
  139.0345   66.7954  226.5445 H   0  0  0  0  0  0  0  0  0  0  0  0
  141.1992   67.7687  227.2083 H   0  0  0  0  0  0  0  0  0  0  0  0
  141.8809   70.0507  226.4423 H   0  0  0  0  0  0  0  0  0  0  0  0
  139.7242   72.4150  225.3638 H   0  0  0  0  0  0  0  0  0  0  0  0
  141.3885   71.9012  224.9395 H   0  0  0  0  0  0  0  0  0  0  0  0
  144.2935   73.8237  219.4499 H   0  0  0  0  0  0  0  0  0  0  0  0
  1  2  1  0
  2  3  2  0
  3  4  1  0
  4  5  2  0
  5  6  1  0
  6  7  1  0
  7  8  2  0
  8  9  1  0
  9 10  1  0
 10 11  1  0
 11 12  1  0
 12 13  1  0
 13 14  1  0
 14 15  1  0
 15 16  1  0
 16 17  1  0
 17 18  1  0
 18 19  1  0
 13 20  1  0
 20 21  1  0
  9 22  2  0
 22 23  1  0
 23 24  1  0
 24 25  1  0
 25 26  1  0
 26 27  1  0
 27 28  2  0
 28 29  1  0
 29 30  2  0
 30 31  1  0
 31 32  2  0
 32 33  1  0
 23 34  2  0
  6 35  2  0
 35  2  1  0
 34  7  1  0
 21 10  1  0
 33 24  1  0
 19 14  1  0
 32 27  1  0
  1 36  1  0
  3 37  1  0
  4 38  1  0
  5 39  1  0
 11 40  1  0
 11 41  1  0
 12 42  1  0
 12 43  1  0
 13 44  1  0
 15 45  1  0
 15 46  1  0
 16 47  1  0
 16 48  1  0
 17 49  1  0
 17 50  1  0
 18 51  1  0
 18 52  1  0
 19 53  1  0
 19 54  1  0
 20 55  1  0
 20 56  1  0
 21 57  1  0
 21 58  1  0
 25 59  1  0
 25 60  1  0
 26 61  1  0
 26 62  1  0
 28 63  1  0
 29 64  1  0
 30 65  1  0
 31 66  1  0
 33 67  1  0
 33 68  1  0
 35 69  1  0
M  END
>  <smiles>  (5) 
Oc1cccc(-c2nc(N3CCC(N4CCCCC4)CC3)nc(N3CCc4ccccc4C3)n2)c1

>  <score_type>  (5) 
oracle

>  <origin>  (5) 
autodockgpu

>  <m_score__min__energy>  (5) 
-9.9499999999999993

>  <m_primary>  (5) 
energy

>  <rmsd>  (5) 
5.563011560470459

>  <m_score__min__rmsd>  (5) 
5.563011560470459

>  <meeko>  (5) 
{"free_energy": -9.83, "intermolecular_energy": -11.33, "internal_energy": -1.13, "cluster_size": 46, "cluster_id": 1, "rank_in_cluster": 23}

>  <energy>  (5) 
-9.94

>  <cluster_rmsd>  (5) 
0.14

>  <cluster>  (5) 
1

$$$$

     RDKit          3D

 69 74  0  0  0  0  0  0  0  0999 V2000
  146.6010   73.3890  219.0200 O   0  0  0  0  0  0  0  0  0  0  0  0
  145.5640   72.5150  219.2420 C   0  0  0  0  0  0  0  0  0  0  0  0
  145.5580   71.2440  218.7110 C   0  0  0  0  0  0  0  0  0  0  0  0
  144.5170   70.3590  218.9320 C   0  0  0  0  0  0  0  0  0  0  0  0
  143.4600   70.7630  219.7040 C   0  0  0  0  0  0  0  0  0  0  0  0
  143.4450   72.0250  220.2430 C   0  0  0  0  0  0  0  0  0  0  0  0
  142.3380   72.4830  221.0680 C   0  0  0  0  0  0  0  0  0  0  0  0
  141.9060   73.7460  221.0150 N   0  0  0  0  0  0  0  0  0  0  0  0
  140.8880   74.2220  221.7560 C   0  0  0  0  0  0  0  0  0  0  0  0
  140.4570   75.5970  221.6630 N   0  0  0  0  0  0  0  0  0  0  0  0
  139.1650   75.9630  222.2030 C   0  0  0  0  0  0  0  0  0  0  0  0
  139.1540   77.4340  222.6340 C   0  0  0  0  0  0  0  0  0  0  0  0
  139.5790   78.2060  221.4060 C   0  0  0  0  0  0  0  0  0  0  0  0
  139.2460   79.5790  221.4150 N   0  0  0  0  0  0  0  0  0  0  0  0
  139.7430   80.3670  220.3610 C   0  0  0  0  0  0  0  0  0  0  0  0
  139.6540   81.8350  220.5160 C   0  0  0  0  0  0  0  0  0  0  0  0
  139.8470   82.3070  221.9600 C   0  0  0  0  0  0  0  0  0  0  0  0
  138.7220   81.6010  222.7100 C   0  0  0  0  0  0  0  0  0  0  0  0
  139.0080   80.1530  222.6840 C   0  0  0  0  0  0  0  0  0  0  0  0
  141.0800   77.9600  221.2740 C   0  0  0  0  0  0  0  0  0  0  0  0
  141.3470   76.5160  221.0320 C   0  0  0  0  0  0  0  0  0  0  0  0
  140.2600   73.3830  222.6040 N   0  0  0  0  0  0  0  0  0  0  0  0
  140.6650   72.1060  222.6840 C   0  0  0  0  0  0  0  0  0  0  0  0
  139.9760   71.2520  223.5880 N   0  0  0  0  0  0  0  0  0  0  0  0
  139.1890   70.1530  223.0660 C   0  0  0  0  0  0  0  0  0  0  0  0
  138.3230   69.6270  224.1910 C   0  0  0  0  0  0  0  0  0  0  0  0
  139.2300   69.2050  225.2890 C   0  0  0  0  0  0  0  0  0  0  0  0
  139.2060   67.9510  225.8590 C   0  0  0  0  0  0  0  0  0  0  0  0
  140.1040   67.6720  226.8840 C   0  0  0  0  0  0  0  0  0  0  0  0
  140.9980   68.6370  227.3160 C   0  0  0  0  0  0  0  0  0  0  0  0
  141.0370   69.9050  226.7550 C   0  0  0  0  0  0  0  0  0  0  0  0
  140.1360   70.1520  225.7430 C   0  0  0  0  0  0  0  0  0  0  0  0
  140.0670   71.4830  225.0380 C   0  0  0  0  0  0  0  0  0  0  0  0
  141.6850   71.6580  221.9330 N   0  0  0  0  0  0  0  0  0  0  0  0
  144.4800   72.8830  220.0150 C   0  0  0  0  0  0  0  0  0  0  0  0
  146.5160   74.3500  219.3380 H   0  0  0  0  0  0  0  0  0  0  0  0
  146.4079   70.9220  218.0914 H   0  0  0  0  0  0  0  0  0  0  0  0
  144.5381   69.3495  218.4956 H   0  0  0  0  0  0  0  0  0  0  0  0
  142.6224   70.0752  219.8921 H   0  0  0  0  0  0  0  0  0  0  0  0
  138.3947   75.8066  221.4335 H   0  0  0  0  0  0  0  0  0  0  0  0
  138.9591   75.3355  223.0827 H   0  0  0  0  0  0  0  0  0  0  0  0
  138.1448   77.7364  222.9504 H   0  0  0  0  0  0  0  0  0  0  0  0
  139.8213   77.6185  223.4888 H   0  0  0  0  0  0  0  0  0  0  0  0
  139.0206   77.8468  220.5290 H   0  0  0  0  0  0  0  0  0  0  0  0
  140.8048   80.1117  220.2289 H   0  0  0  0  0  0  0  0  0  0  0  0
  139.0972   80.1324  219.5020 H   0  0  0  0  0  0  0  0  0  0  0  0
  140.4307   82.2994  219.8907 H   0  0  0  0  0  0  0  0  0  0  0  0
  138.6404   82.1330  220.2097 H   0  0  0  0  0  0  0  0  0  0  0  0
  140.8308   82.0024  222.3465 H   0  0  0  0  0  0  0  0  0  0  0  0
  139.8149   83.4016  222.0643 H   0  0  0  0  0  0  0  0  0  0  0  0
  138.6834   81.9571  223.7501 H   0  0  0  0  0  0  0  0  0  0  0  0
  137.7512   81.8115  222.2375 H   0  0  0  0  0  0  0  0  0  0  0  0
  139.9006   79.9777  223.3026 H   0  0  0  0  0  0  0  0  0  0  0  0
  138.0923   79.6692  223.0546 H   0  0  0  0  0  0  0  0  0  0  0  0
  141.4713   78.5478  220.4306 H   0  0  0  0  0  0  0  0  0  0  0  0
  141.5761   78.2643  222.2074 H   0  0  0  0  0  0  0  0  0  0  0  0
  141.2952   76.3423  219.9470 H   0  0  0  0  0  0  0  0  0  0  0  0
  142.3348   76.3208  221.4750 H   0  0  0  0  0  0  0  0  0  0  0  0
  138.5547   70.5066  222.2398 H   0  0  0  0  0  0  0  0  0  0  0  0
  139.8462   69.3580  222.6838 H   0  0  0  0  0  0  0  0  0  0  0  0
  137.6458   70.4180  224.5456 H   0  0  0  0  0  0  0  0  0  0  0  0
  137.7100   68.7811  223.8466 H   0  0  0  0  0  0  0  0  0  0  0  0
  138.4935   67.1883  225.5117 H   0  0  0  0  0  0  0  0  0  0  0  0
  140.1039   66.6778  227.3547 H   0  0  0  0  0  0  0  0  0  0  0  0
  141.6980   68.3908  228.1280 H   0  0  0  0  0  0  0  0  0  0  0  0
  141.7479   70.6706  227.0992 H   0  0  0  0  0  0  0  0  0  0  0  0
  139.1797   72.0360  225.3799 H   0  0  0  0  0  0  0  0  0  0  0  0
  140.9683   72.0713  225.2651 H   0  0  0  0  0  0  0  0  0  0  0  0
  144.4510   73.8902  220.4563 H   0  0  0  0  0  0  0  0  0  0  0  0
  1  2  1  0
  2  3  2  0
  3  4  1  0
  4  5  2  0
  5  6  1  0
  6  7  1  0
  7  8  2  0
  8  9  1  0
  9 10  1  0
 10 11  1  0
 11 12  1  0
 12 13  1  0
 13 14  1  0
 14 15  1  0
 15 16  1  0
 16 17  1  0
 17 18  1  0
 18 19  1  0
 13 20  1  0
 20 21  1  0
  9 22  2  0
 22 23  1  0
 23 24  1  0
 24 25  1  0
 25 26  1  0
 26 27  1  0
 27 28  2  0
 28 29  1  0
 29 30  2  0
 30 31  1  0
 31 32  2  0
 32 33  1  0
 23 34  2  0
  6 35  2  0
 35  2  1  0
 34  7  1  0
 21 10  1  0
 33 24  1  0
 19 14  1  0
 32 27  1  0
  1 36  1  0
  3 37  1  0
  4 38  1  0
  5 39  1  0
 11 40  1  0
 11 41  1  0
 12 42  1  0
 12 43  1  0
 13 44  1  0
 15 45  1  0
 15 46  1  0
 16 47  1  0
 16 48  1  0
 17 49  1  0
 17 50  1  0
 18 51  1  0
 18 52  1  0
 19 53  1  0
 19 54  1  0
 20 55  1  0
 20 56  1  0
 21 57  1  0
 21 58  1  0
 25 59  1  0
 25 60  1  0
 26 61  1  0
 26 62  1  0
 28 63  1  0
 29 64  1  0
 30 65  1  0
 31 66  1  0
 33 67  1  0
 33 68  1  0
 35 69  1  0
M  END
>  <smiles>  (6) 
Oc1cccc(-c2nc(N3CCC(N4CCCCC4)CC3)nc(N3CCc4ccccc4C3)n2)c1

>  <score_type>  (6) 
oracle

>  <origin>  (6) 
autodockgpu

>  <m_score__min__energy>  (6) 
-9.9499999999999993

>  <m_primary>  (6) 
energy

>  <rmsd>  (6) 
5.632400928165048

>  <m_score__min__rmsd>  (6) 
5.632400928165048

>  <meeko>  (6) 
{"free_energy": -9.71, "intermolecular_energy": -11.21, "internal_energy": -1.12, "cluster_size": 46, "cluster_id": 1, "rank_in_cluster": 28}

>  <energy>  (6) 
-9.94

>  <cluster_rmsd>  (6) 
0.18

>  <cluster>  (6) 
1

$$$$

     RDKit          3D

 69 74  0  0  0  0  0  0  0  0999 V2000
  146.3220   73.0150  218.1350 O   0  0  0  0  0  0  0  0  0  0  0  0
  145.4360   72.1440  218.7220 C   0  0  0  0  0  0  0  0  0  0  0  0
  145.5370   70.7800  218.5540 C   0  0  0  0  0  0  0  0  0  0  0  0
  144.6480   69.8970  219.1440 C   0  0  0  0  0  0  0  0  0  0  0  0
  143.6380   70.4000  219.9190 C   0  0  0  0  0  0  0  0  0  0  0  0
  143.5170   71.7560  220.1000 C   0  0  0  0  0  0  0  0  0  0  0  0
  142.4550   72.3190  220.9190 C   0  0  0  0  0  0  0  0  0  0  0  0
  142.1320   73.6130  220.8450 N   0  0  0  0  0  0  0  0  0  0  0  0
  141.1590   74.1860  221.5790 C   0  0  0  0  0  0  0  0  0  0  0  0
  140.8470   75.5900  221.4640 N   0  0  0  0  0  0  0  0  0  0  0  0
  139.8180   76.1500  222.3150 C   0  0  0  0  0  0  0  0  0  0  0  0
  140.0710   77.6420  222.5640 C   0  0  0  0  0  0  0  0  0  0  0  0
  140.1710   78.2570  221.1860 C   0  0  0  0  0  0  0  0  0  0  0  0
  139.9810   79.6560  221.1390 N   0  0  0  0  0  0  0  0  0  0  0  0
  140.8140   80.3880  220.2740 C   0  0  0  0  0  0  0  0  0  0  0  0
  140.8290   81.8580  220.4340 C   0  0  0  0  0  0  0  0  0  0  0  0
  140.6760   82.3130  221.8890 C   0  0  0  0  0  0  0  0  0  0  0  0
  139.3290   81.7240  222.2980 C   0  0  0  0  0  0  0  0  0  0  0  0
  139.4710   80.2550  222.3140 C   0  0  0  0  0  0  0  0  0  0  0  0
  141.5320   77.8240  220.6480 C   0  0  0  0  0  0  0  0  0  0  0  0
  141.5820   76.3430  220.5010 C   0  0  0  0  0  0  0  0  0  0  0  0
  140.4640   73.4170  222.4420 N   0  0  0  0  0  0  0  0  0  0  0  0
  140.7600   72.1120  222.5430 C   0  0  0  0  0  0  0  0  0  0  0  0
  140.0040   71.3340  223.4610 N   0  0  0  0  0  0  0  0  0  0  0  0
  139.0460   70.3710  222.9560 C   0  0  0  0  0  0  0  0  0  0  0  0
  138.1720   69.9360  224.1120 C   0  0  0  0  0  0  0  0  0  0  0  0
  139.0630   69.3590  225.1510 C   0  0  0  0  0  0  0  0  0  0  0  0
  138.8930   68.1040  225.6920 C   0  0  0  0  0  0  0  0  0  0  0  0
  139.7920   67.6730  226.6620 C   0  0  0  0  0  0  0  0  0  0  0  0
  140.8320   68.4910  227.0690 C   0  0  0  0  0  0  0  0  0  0  0  0
  141.0200   69.7580  226.5360 C   0  0  0  0  0  0  0  0  0  0  0  0
  140.1140   70.1580  225.5780 C   0  0  0  0  0  0  0  0  0  0  0  0
  140.1970   71.5060  224.9100 C   0  0  0  0  0  0  0  0  0  0  0  0
  141.7370   71.5660  221.7980 N   0  0  0  0  0  0  0  0  0  0  0  0
  144.4030   72.6090  219.5110 C   0  0  0  0  0  0  0  0  0  0  0  0
  146.2200   74.0120  218.3000 H   0  0  0  0  0  0  0  0  0  0  0  0
  146.3503   70.3794  217.9310 H   0  0  0  0  0  0  0  0  0  0  0  0
  144.7515   68.8124  218.9927 H   0  0  0  0  0  0  0  0  0  0  0  0
  142.9215   69.7164  220.3980 H   0  0  0  0  0  0  0  0  0  0  0  0
  138.8397   76.0264  221.8274 H   0  0  0  0  0  0  0  0  0  0  0  0
  139.8332   75.6234  223.2806 H   0  0  0  0  0  0  0  0  0  0  0  0
  139.2370   78.0870  223.1265 H   0  0  0  0  0  0  0  0  0  0  0  0
  140.9795   77.8133  223.1600 H   0  0  0  0  0  0  0  0  0  0  0  0
  139.3433   77.8978  220.5568 H   0  0  0  0  0  0  0  0  0  0  0  0
  141.8429   80.0284  220.4224 H   0  0  0  0  0  0  0  0  0  0  0  0
  140.4005   80.2163  219.2693 H   0  0  0  0  0  0  0  0  0  0  0  0
  141.7849   82.2411  220.0475 H   0  0  0  0  0  0  0  0  0  0  0  0
  139.9669   82.2542  219.8774 H   0  0  0  0  0  0  0  0  0  0  0  0
  141.4877   81.9135  222.5148 H   0  0  0  0  0  0  0  0  0  0  0  0
  140.7230   83.4057  222.0068 H   0  0  0  0  0  0  0  0  0  0  0  0
  139.0502   82.0849  223.2990 H   0  0  0  0  0  0  0  0  0  0  0  0
  138.5433   82.0286  221.5910 H   0  0  0  0  0  0  0  0  0  0  0  0
  140.1464   79.9939  223.1420 H   0  0  0  0  0  0  0  0  0  0  0  0
  138.4475   79.8655  222.4177 H   0  0  0  0  0  0  0  0  0  0  0  0
  141.7000   78.2920  219.6668 H   0  0  0  0  0  0  0  0  0  0  0  0
  142.3133   78.1401  221.3548 H   0  0  0  0  0  0  0  0  0  0  0  0
  141.1876   76.0909  219.5056 H   0  0  0  0  0  0  0  0  0  0  0  0
  142.6359   76.0672  220.6533 H   0  0  0  0  0  0  0  0  0  0  0  0
  138.4274   70.8342  222.1732 H   0  0  0  0  0  0  0  0  0  0  0  0
  139.5659   69.5047  222.5209 H   0  0  0  0  0  0  0  0  0  0  0  0
  137.6302   70.8020  224.5202 H   0  0  0  0  0  0  0  0  0  0  0  0
  137.4311   69.1937  223.7804 H   0  0  0  0  0  0  0  0  0  0  0  0
  138.0655   67.4574  225.3646 H   0  0  0  0  0  0  0  0  0  0  0  0
  139.6757   66.6747  227.1090 H   0  0  0  0  0  0  0  0  0  0  0  0
  141.5295   68.1259  227.8372 H   0  0  0  0  0  0  0  0  0  0  0  0
  141.8466   70.4073  226.8602 H   0  0  0  0  0  0  0  0  0  0  0  0
  139.4132   72.1655  225.3110 H   0  0  0  0  0  0  0  0  0  0  0  0
  141.1814   71.9572  225.1034 H   0  0  0  0  0  0  0  0  0  0  0  0
  144.2921   73.6921  219.6681 H   0  0  0  0  0  0  0  0  0  0  0  0
  1  2  1  0
  2  3  2  0
  3  4  1  0
  4  5  2  0
  5  6  1  0
  6  7  1  0
  7  8  2  0
  8  9  1  0
  9 10  1  0
 10 11  1  0
 11 12  1  0
 12 13  1  0
 13 14  1  0
 14 15  1  0
 15 16  1  0
 16 17  1  0
 17 18  1  0
 18 19  1  0
 13 20  1  0
 20 21  1  0
  9 22  2  0
 22 23  1  0
 23 24  1  0
 24 25  1  0
 25 26  1  0
 26 27  1  0
 27 28  2  0
 28 29  1  0
 29 30  2  0
 30 31  1  0
 31 32  2  0
 32 33  1  0
 23 34  2  0
  6 35  2  0
 35  2  1  0
 34  7  1  0
 21 10  1  0
 33 24  1  0
 19 14  1  0
 32 27  1  0
  1 36  1  0
  3 37  1  0
  4 38  1  0
  5 39  1  0
 11 40  1  0
 11 41  1  0
 12 42  1  0
 12 43  1  0
 13 44  1  0
 15 45  1  0
 15 46  1  0
 16 47  1  0
 16 48  1  0
 17 49  1  0
 17 50  1  0
 18 51  1  0
 18 52  1  0
 19 53  1  0
 19 54  1  0
 20 55  1  0
 20 56  1  0
 21 57  1  0
 21 58  1  0
 25 59  1  0
 25 60  1  0
 26 61  1  0
 26 62  1  0
 28 63  1  0
 29 64  1  0
 30 65  1  0
 31 66  1  0
 33 67  1  0
 33 68  1  0
 35 69  1  0
M  END
>  <smiles>  (7) 
Oc1cccc(-c2nc(N3CCC(N4CCCCC4)CC3)nc(N3CCc4ccccc4C3)n2)c1

>  <score_type>  (7) 
oracle

>  <origin>  (7) 
autodockgpu

>  <m_score__min__energy>  (7) 
-9.9499999999999993

>  <m_primary>  (7) 
energy

>  <rmsd>  (7) 
5.5091694860456135

>  <m_score__min__rmsd>  (7) 
5.5091694860456135

>  <meeko>  (7) 
{"free_energy": -9.94, "intermolecular_energy": -11.43, "internal_energy": -1.12, "cluster_size": 46, "cluster_id": 1, "rank_in_cluster": 6}

>  <energy>  (7) 
-9.94

>  <cluster_rmsd>  (7) 
0.16

>  <cluster>  (7) 
1

$$$$

     RDKit          3D

 69 74  0  0  0  0  0  0  0  0999 V2000
  146.6160   73.3880  219.3250 O   0  0  0  0  0  0  0  0  0  0  0  0
  145.5020   72.5850  219.3740 C   0  0  0  0  0  0  0  0  0  0  0  0
  145.4100   71.4240  218.6400 C   0  0  0  0  0  0  0  0  0  0  0  0
  144.2900   70.6110  218.6850 C   0  0  0  0  0  0  0  0  0  0  0  0
  143.2420   70.9770  219.4870 C   0  0  0  0  0  0  0  0  0  0  0  0
  143.3120   72.1300  220.2280 C   0  0  0  0  0  0  0  0  0  0  0  0
  142.2160   72.5450  221.0910 C   0  0  0  0  0  0  0  0  0  0  0  0
  141.7650   73.8010  221.0870 N   0  0  0  0  0  0  0  0  0  0  0  0
  140.7560   74.2380  221.8640 C   0  0  0  0  0  0  0  0  0  0  0  0
  140.3030   75.6080  221.8240 N   0  0  0  0  0  0  0  0  0  0  0  0
  141.1700   76.6140  221.2480 C   0  0  0  0  0  0  0  0  0  0  0  0
  140.3490   77.7770  220.6780 C   0  0  0  0  0  0  0  0  0  0  0  0
  139.4890   78.2500  221.8270 C   0  0  0  0  0  0  0  0  0  0  0  0
  138.9630   79.5540  221.6860 N   0  0  0  0  0  0  0  0  0  0  0  0
  139.8690   80.6260  221.7900 C   0  0  0  0  0  0  0  0  0  0  0  0
  139.2970   81.9810  221.9400 C   0  0  0  0  0  0  0  0  0  0  0  0
  138.0060   82.0080  222.7640 C   0  0  0  0  0  0  0  0  0  0  0  0
  137.0710   81.0960  221.9770 C   0  0  0  0  0  0  0  0  0  0  0  0
  137.6110   79.7240  222.0600 C   0  0  0  0  0  0  0  0  0  0  0  0
  138.4050   77.1870  221.9840 C   0  0  0  0  0  0  0  0  0  0  0  0
  139.0110   75.8820  222.3650 C   0  0  0  0  0  0  0  0  0  0  0  0
  140.1590   73.3620  222.6980 N   0  0  0  0  0  0  0  0  0  0  0  0
  140.5850   72.0900  222.7290 C   0  0  0  0  0  0  0  0  0  0  0  0
  139.9290   71.1980  223.6190 N   0  0  0  0  0  0  0  0  0  0  0  0
  139.1750   70.0830  223.0810 C   0  0  0  0  0  0  0  0  0  0  0  0
  138.3330   69.5090  224.1990 C   0  0  0  0  0  0  0  0  0  0  0  0
  139.2580   69.0960  225.2850 C   0  0  0  0  0  0  0  0  0  0  0  0
  139.2780   67.8320  225.8310 C   0  0  0  0  0  0  0  0  0  0  0  0
  140.1900   67.5630  226.8470 C   0  0  0  0  0  0  0  0  0  0  0  0
  141.0540   68.5480  227.2940 C   0  0  0  0  0  0  0  0  0  0  0  0
  141.0490   69.8280  226.7560 C   0  0  0  0  0  0  0  0  0  0  0  0
  140.1360   70.0630  225.7520 C   0  0  0  0  0  0  0  0  0  0  0  0
  140.0200   71.4040  225.0730 C   0  0  0  0  0  0  0  0  0  0  0  0
  141.5950   71.6820  221.9430 N   0  0  0  0  0  0  0  0  0  0  0  0
  144.4240   72.9170  220.1700 C   0  0  0  0  0  0  0  0  0  0  0  0
  146.5020   74.3970  219.3360 H   0  0  0  0  0  0  0  0  0  0  0  0
  146.2536   71.1327  217.9969 H   0  0  0  0  0  0  0  0  0  0  0  0
  144.2429   69.6885  218.0877 H   0  0  0  0  0  0  0  0  0  0  0  0
  142.3426   70.3457  219.5373 H   0  0  0  0  0  0  0  0  0  0  0  0
  141.8457   76.9970  222.0270 H   0  0  0  0  0  0  0  0  0  0  0  0
  141.7481   76.1564  220.4317 H   0  0  0  0  0  0  0  0  0  0  0  0
  141.0111   78.5848  220.3328 H   0  0  0  0  0  0  0  0  0  0  0  0
  139.7464   77.4706  219.8102 H   0  0  0  0  0  0  0  0  0  0  0  0
  140.1034   78.3538  222.7335 H   0  0  0  0  0  0  0  0  0  0  0  0
  140.5065   80.4369  222.6663 H   0  0  0  0  0  0  0  0  0  0  0  0
  140.3971   80.6460  220.8252 H   0  0  0  0  0  0  0  0  0  0  0  0
  140.0413   82.6207  222.4368 H   0  0  0  0  0  0  0  0  0  0  0  0
  139.0463   82.3414  220.9314 H   0  0  0  0  0  0  0  0  0  0  0  0
  138.1770   81.6172  223.7779 H   0  0  0  0  0  0  0  0  0  0  0  0
  137.6037   83.0224  222.9022 H   0  0  0  0  0  0  0  0  0  0  0  0
  136.0612   81.1286  222.4121 H   0  0  0  0  0  0  0  0  0  0  0  0
  137.0051   81.4224  220.9286 H   0  0  0  0  0  0  0  0  0  0  0  0
  137.5077   79.3869  223.1020 H   0  0  0  0  0  0  0  0  0  0  0  0
  137.0318   79.1390  221.3304 H   0  0  0  0  0  0  0  0  0  0  0  0
  137.6993   77.5015  222.7670 H   0  0  0  0  0  0  0  0  0  0  0  0
  137.8778   77.0700  221.0257 H   0  0  0  0  0  0  0  0  0  0  0  0
  139.0936   75.8572  223.4616 H   0  0  0  0  0  0  0  0  0  0  0  0
  138.3456   75.1133  221.9450 H   0  0  0  0  0  0  0  0  0  0  0  0
  138.5252   70.4305  222.2643 H   0  0  0  0  0  0  0  0  0  0  0  0
  139.8559   69.3168  222.6817 H   0  0  0  0  0  0  0  0  0  0  0  0
  137.6325   70.2711  224.5714 H   0  0  0  0  0  0  0  0  0  0  0  0
  137.7461   68.6502  223.8414 H   0  0  0  0  0  0  0  0  0  0  0  0
  138.5891   67.0531  225.4723 H   0  0  0  0  0  0  0  0  0  0  0  0
  140.2247   66.5604  227.2982 H   0  0  0  0  0  0  0  0  0  0  0  0
  141.7651   68.3097  228.0987 H   0  0  0  0  0  0  0  0  0  0  0  0
  141.7356   70.6104  227.1117 H   0  0  0  0  0  0  0  0  0  0  0  0
  139.1170   71.9211  225.4295 H   0  0  0  0  0  0  0  0  0  0  0  0
  140.9029   72.0169  225.3071 H   0  0  0  0  0  0  0  0  0  0  0  0
  144.4630   73.8374  220.7711 H   0  0  0  0  0  0  0  0  0  0  0  0
  1  2  1  0
  2  3  2  0
  3  4  1  0
  4  5  2  0
  5  6  1  0
  6  7  1  0
  7  8  2  0
  8  9  1  0
  9 10  1  0
 10 11  1  0
 11 12  1  0
 12 13  1  0
 13 14  1  0
 14 15  1  0
 15 16  1  0
 16 17  1  0
 17 18  1  0
 18 19  1  0
 13 20  1  0
 20 21  1  0
  9 22  2  0
 22 23  1  0
 23 24  1  0
 24 25  1  0
 25 26  1  0
 26 27  1  0
 27 28  2  0
 28 29  1  0
 29 30  2  0
 30 31  1  0
 31 32  2  0
 32 33  1  0
 23 34  2  0
  6 35  2  0
 35  2  1  0
 34  7  1  0
 21 10  1  0
 33 24  1  0
 19 14  1  0
 32 27  1  0
  1 36  1  0
  3 37  1  0
  4 38  1  0
  5 39  1  0
 11 40  1  0
 11 41  1  0
 12 42  1  0
 12 43  1  0
 13 44  1  0
 15 45  1  0
 15 46  1  0
 16 47  1  0
 16 48  1  0
 17 49  1  0
 17 50  1  0
 18 51  1  0
 18 52  1  0
 19 53  1  0
 19 54  1  0
 20 55  1  0
 20 56  1  0
 21 57  1  0
 21 58  1  0
 25 59  1  0
 25 60  1  0
 26 61  1  0
 26 62  1  0
 28 63  1  0
 29 64  1  0
 30 65  1  0
 31 66  1  0
 33 67  1  0
 33 68  1  0
 35 69  1  0
M  END
>  <smiles>  (8) 
Oc1cccc(-c2nc(N3CCC(N4CCCCC4)CC3)nc(N3CCc4ccccc4C3)n2)c1

>  <score_type>  (8) 
oracle

>  <origin>  (8) 
autodockgpu

>  <m_score__min__energy>  (8) 
-9.9499999999999993

>  <m_primary>  (8) 
energy

>  <rmsd>  (8) 
5.790470512455026

>  <m_score__min__rmsd>  (8) 
5.790470512455026

>  <meeko>  (8) 
{"free_energy": -9.41, "intermolecular_energy": -10.9, "internal_energy": -1.09, "cluster_size": 46, "cluster_id": 1, "rank_in_cluster": 38}

>  <energy>  (8) 
-9.94

>  <cluster_rmsd>  (8) 
0.14

>  <cluster>  (8) 
1

$$$$

     RDKit          3D

 69 74  0  0  0  0  0  0  0  0999 V2000
  146.3150   73.0910  218.6330 O   0  0  0  0  0  0  0  0  0  0  0  0
  145.2730   72.2510  218.9460 C   0  0  0  0  0  0  0  0  0  0  0  0
  145.2010   70.9670  218.4520 C   0  0  0  0  0  0  0  0  0  0  0  0
  144.1550   70.1150  218.7640 C   0  0  0  0  0  0  0  0  0  0  0  0
  143.1630   70.5680  219.5920 C   0  0  0  0  0  0  0  0  0  0  0  0
  143.2130   71.8430  220.0960 C   0  0  0  0  0  0  0  0  0  0  0  0
  142.1750   72.3510  220.9790 C   0  0  0  0  0  0  0  0  0  0  0  0
  141.7830   73.6270  220.9300 N   0  0  0  0  0  0  0  0  0  0  0  0
  140.8280   74.1490  221.7230 C   0  0  0  0  0  0  0  0  0  0  0  0
  140.4390   75.5360  221.6320 N   0  0  0  0  0  0  0  0  0  0  0  0
  139.1010   75.9140  222.0350 C   0  0  0  0  0  0  0  0  0  0  0  0
  139.0690   77.3700  222.5150 C   0  0  0  0  0  0  0  0  0  0  0  0
  139.6480   78.1730  221.3730 C   0  0  0  0  0  0  0  0  0  0  0  0
  139.3430   79.5520  221.3940 N   0  0  0  0  0  0  0  0  0  0  0  0
  139.8480   80.3380  220.3420 C   0  0  0  0  0  0  0  0  0  0  0  0
  139.7910   81.8060  220.5080 C   0  0  0  0  0  0  0  0  0  0  0  0
  140.0040   82.2630  221.9540 C   0  0  0  0  0  0  0  0  0  0  0  0
  138.8710   81.5750  222.7080 C   0  0  0  0  0  0  0  0  0  0  0  0
  139.1270   80.1220  222.6690 C   0  0  0  0  0  0  0  0  0  0  0  0
  141.1480   77.8950  221.4040 C   0  0  0  0  0  0  0  0  0  0  0  0
  141.4130   76.4550  221.1410 C   0  0  0  0  0  0  0  0  0  0  0  0
  140.2260   73.3450  222.6220 N   0  0  0  0  0  0  0  0  0  0  0  0
  140.5920   72.0560  222.7000 C   0  0  0  0  0  0  0  0  0  0  0  0
  139.9320   71.2410  223.6580 N   0  0  0  0  0  0  0  0  0  0  0  0
  139.1190   70.1300  223.2060 C   0  0  0  0  0  0  0  0  0  0  0  0
  138.2930   69.6510  224.3800 C   0  0  0  0  0  0  0  0  0  0  0  0
  139.2370   69.2620  225.4580 C   0  0  0  0  0  0  0  0  0  0  0  0
  139.2270   68.0290  226.0730 C   0  0  0  0  0  0  0  0  0  0  0  0
  140.1600   67.7800  227.0740 C   0  0  0  0  0  0  0  0  0  0  0  0
  141.0760   68.7520  227.4380 C   0  0  0  0  0  0  0  0  0  0  0  0
  141.1020   70.0000  226.8300 C   0  0  0  0  0  0  0  0  0  0  0  0
  140.1660   70.2170  225.8440 C   0  0  0  0  0  0  0  0  0  0  0  0
  140.0790   71.5220  225.0950 C   0  0  0  0  0  0  0  0  0  0  0  0
  141.5500   71.5620  221.8960 N   0  0  0  0  0  0  0  0  0  0  0  0
  144.2530   72.6670  219.7770 C   0  0  0  0  0  0  0  0  0  0  0  0
  146.1510   74.0930  218.6000 H   0  0  0  0  0  0  0  0  0  0  0  0
  146.0006   70.6068  217.7880 H   0  0  0  0  0  0  0  0  0  0  0  0
  144.1217   69.0945  218.3548 H   0  0  0  0  0  0  0  0  0  0  0  0
  142.3233   69.9075  219.8539 H   0  0  0  0  0  0  0  0  0  0  0  0
  138.4207   75.8016  221.1779 H   0  0  0  0  0  0  0  0  0  0  0  0
  138.7842   75.2624  222.8627 H   0  0  0  0  0  0  0  0  0  0  0  0
  138.0361   77.6852  222.7242 H   0  0  0  0  0  0  0  0  0  0  0  0
  139.6366   77.5097  223.4469 H   0  0  0  0  0  0  0  0  0  0  0  0
  139.1876   77.8579  220.4250 H   0  0  0  0  0  0  0  0  0  0  0  0
  140.9032   80.0618  220.1995 H   0  0  0  0  0  0  0  0  0  0  0  0
  139.1903   80.1235  219.4868 H   0  0  0  0  0  0  0  0  0  0  0  0
  140.5729   82.2585  219.8805 H   0  0  0  0  0  0  0  0  0  0  0  0
  138.7818   82.1276  220.2110 H   0  0  0  0  0  0  0  0  0  0  0  0
  140.9843   81.9356  222.3307 H   0  0  0  0  0  0  0  0  0  0  0  0
  139.9945   83.3572  222.0662 H   0  0  0  0  0  0  0  0  0  0  0  0
  138.8482   81.9240  223.7509 H   0  0  0  0  0  0  0  0  0  0  0  0
  137.9009   81.8090  222.2452 H   0  0  0  0  0  0  0  0  0  0  0  0
  140.0207   79.9240  223.2789 H   0  0  0  0  0  0  0  0  0  0  0  0
  138.2043   79.6546  223.0434 H   0  0  0  0  0  0  0  0  0  0  0  0
  141.6453   78.5019  220.6331 H   0  0  0  0  0  0  0  0  0  0  0  0
  141.5389   78.1543  222.3990 H   0  0  0  0  0  0  0  0  0  0  0  0
  141.4827   76.3200  220.0516 H   0  0  0  0  0  0  0  0  0  0  0  0
  142.3394   76.2216  221.6862 H   0  0  0  0  0  0  0  0  0  0  0  0
  138.4563   70.4586  222.3919 H   0  0  0  0  0  0  0  0  0  0  0  0
  139.7565   69.3169  222.8286 H   0  0  0  0  0  0  0  0  0  0  0  0
  137.6342   70.4590  224.7307 H   0  0  0  0  0  0  0  0  0  0  0  0
  137.6629   68.7976  224.0890 H   0  0  0  0  0  0  0  0  0  0  0  0
  138.4980   67.2594  225.7791 H   0  0  0  0  0  0  0  0  0  0  0  0
  140.1701   66.8034  227.5802 H   0  0  0  0  0  0  0  0  0  0  0  0
  141.8042   68.5292  228.2318 H   0  0  0  0  0  0  0  0  0  0  0  0
  141.8298   70.7722  227.1199 H   0  0  0  0  0  0  0  0  0  0  0  0
  139.2087   72.0936  225.4499 H   0  0  0  0  0  0  0  0  0  0  0  0
  140.9922   72.1107  225.2670 H   0  0  0  0  0  0  0  0  0  0  0  0
  144.2788   73.6856  220.1916 H   0  0  0  0  0  0  0  0  0  0  0  0
  1  2  1  0
  2  3  2  0
  3  4  1  0
  4  5  2  0
  5  6  1  0
  6  7  1  0
  7  8  2  0
  8  9  1  0
  9 10  1  0
 10 11  1  0
 11 12  1  0
 12 13  1  0
 13 14  1  0
 14 15  1  0
 15 16  1  0
 16 17  1  0
 17 18  1  0
 18 19  1  0
 13 20  1  0
 20 21  1  0
  9 22  2  0
 22 23  1  0
 23 24  1  0
 24 25  1  0
 25 26  1  0
 26 27  1  0
 27 28  2  0
 28 29  1  0
 29 30  2  0
 30 31  1  0
 31 32  2  0
 32 33  1  0
 23 34  2  0
  6 35  2  0
 35  2  1  0
 34  7  1  0
 21 10  1  0
 33 24  1  0
 19 14  1  0
 32 27  1  0
  1 36  1  0
  3 37  1  0
  4 38  1  0
  5 39  1  0
 11 40  1  0
 11 41  1  0
 12 42  1  0
 12 43  1  0
 13 44  1  0
 15 45  1  0
 15 46  1  0
 16 47  1  0
 16 48  1  0
 17 49  1  0
 17 50  1  0
 18 51  1  0
 18 52  1  0
 19 53  1  0
 19 54  1  0
 20 55  1  0
 20 56  1  0
 21 57  1  0
 21 58  1  0
 25 59  1  0
 25 60  1  0
 26 61  1  0
 26 62  1  0
 28 63  1  0
 29 64  1  0
 30 65  1  0
 31 66  1  0
 33 67  1  0
 33 68  1  0
 35 69  1  0
M  END
>  <smiles>  (9) 
Oc1cccc(-c2nc(N3CCC(N4CCCCC4)CC3)nc(N3CCc4ccccc4C3)n2)c1

>  <score_type>  (9) 
oracle

>  <origin>  (9) 
autodockgpu

>  <m_score__min__energy>  (9) 
-9.9499999999999993

>  <m_primary>  (9) 
energy

>  <rmsd>  (9) 
5.589914172205484

>  <m_score__min__rmsd>  (9) 
5.589914172205484

>  <meeko>  (9) 
{"free_energy": -9.8, "intermolecular_energy": -11.29, "internal_energy": -1.12, "cluster_size": 46, "cluster_id": 1, "rank_in_cluster": 26}

>  <energy>  (9) 
-9.94

>  <cluster_rmsd>  (9) 
0.12

>  <cluster>  (9) 
1

$$$$

     RDKit          3D

 69 74  0  0  0  0  0  0  0  0999 V2000
  146.3190   73.0340  218.3120 O   0  0  0  0  0  0  0  0  0  0  0  0
  145.3560   72.1690  218.7750 C   0  0  0  0  0  0  0  0  0  0  0  0
  145.3650   70.8300  218.4530 C   0  0  0  0  0  0  0  0  0  0  0  0
  144.3980   69.9540  218.9170 C   0  0  0  0  0  0  0  0  0  0  0  0
  143.4030   70.4390  219.7220 C   0  0  0  0  0  0  0  0  0  0  0  0
  143.3730   71.7700  220.0560 C   0  0  0  0  0  0  0  0  0  0  0  0
  142.3280   72.3140  220.9100 C   0  0  0  0  0  0  0  0  0  0  0  0
  141.9830   73.6030  220.8520 N   0  0  0  0  0  0  0  0  0  0  0  0
  141.0250   74.1580  221.6180 C   0  0  0  0  0  0  0  0  0  0  0  0
  140.6880   75.5580  221.5180 N   0  0  0  0  0  0  0  0  0  0  0  0
  139.5660   76.0620  222.2820 C   0  0  0  0  0  0  0  0  0  0  0  0
  139.7520   77.5500  222.6030 C   0  0  0  0  0  0  0  0  0  0  0  0
  139.9700   78.2150  221.2630 C   0  0  0  0  0  0  0  0  0  0  0  0
  139.7480   79.6110  221.2430 N   0  0  0  0  0  0  0  0  0  0  0  0
  140.4730   80.3630  220.3010 C   0  0  0  0  0  0  0  0  0  0  0  0
  140.4740   81.8320  220.4670 C   0  0  0  0  0  0  0  0  0  0  0  0
  140.4610   82.2790  221.9320 C   0  0  0  0  0  0  0  0  0  0  0  0
  139.1750   81.6610  222.4730 C   0  0  0  0  0  0  0  0  0  0  0  0
  139.3480   80.1950  222.4670 C   0  0  0  0  0  0  0  0  0  0  0  0
  141.3880   77.8340  220.8490 C   0  0  0  0  0  0  0  0  0  0  0  0
  141.4930   76.3620  220.6580 C   0  0  0  0  0  0  0  0  0  0  0  0
  140.3700   73.3750  222.4990 N   0  0  0  0  0  0  0  0  0  0  0  0
  140.6890   72.0750  222.5860 C   0  0  0  0  0  0  0  0  0  0  0  0
  139.9750   71.2820  223.5240 N   0  0  0  0  0  0  0  0  0  0  0  0
  139.0760   70.2510  223.0460 C   0  0  0  0  0  0  0  0  0  0  0  0
  138.2230   69.8010  224.2110 C   0  0  0  0  0  0  0  0  0  0  0  0
  139.1410   69.3070  225.2690 C   0  0  0  0  0  0  0  0  0  0  0  0
  139.0400   68.0600  225.8460 C   0  0  0  0  0  0  0  0  0  0  0  0
  139.9580   67.7090  226.8300 C   0  0  0  0  0  0  0  0  0  0  0  0
  140.9480   68.5960  227.2160 C   0  0  0  0  0  0  0  0  0  0  0  0
  141.0660   69.8560  226.6460 C   0  0  0  0  0  0  0  0  0  0  0  0
  140.1430   70.1760  225.6750 C   0  0  0  0  0  0  0  0  0  0  0  0
  140.1520   71.5060  224.9680 C   0  0  0  0  0  0  0  0  0  0  0  0
  141.6510   71.5470  221.8080 N   0  0  0  0  0  0  0  0  0  0  0  0
  144.3350   72.6170  219.5890 C   0  0  0  0  0  0  0  0  0  0  0  0
  146.1080   74.0250  218.2540 H   0  0  0  0  0  0  0  0  0  0  0  0
  146.1665   70.4437  217.8061 H   0  0  0  0  0  0  0  0  0  0  0  0
  144.4290   68.8889  218.6439 H   0  0  0  0  0  0  0  0  0  0  0  0
  142.6253   69.7603  220.1023 H   0  0  0  0  0  0  0  0  0  0  0  0
  138.6435   75.9315  221.6972 H   0  0  0  0  0  0  0  0  0  0  0  0
  139.5020   75.5022  223.2267 H   0  0  0  0  0  0  0  0  0  0  0  0
  138.8547   77.9547  223.0940 H   0  0  0  0  0  0  0  0  0  0  0  0
  140.5925   77.7223  223.2914 H   0  0  0  0  0  0  0  0  0  0  0  0
  139.2180   77.8585  220.5438 H   0  0  0  0  0  0  0  0  0  0  0  0
  141.5189   80.0245  220.3413 H   0  0  0  0  0  0  0  0  0  0  0  0
  139.9627   80.1859  219.3428 H   0  0  0  0  0  0  0  0  0  0  0  0
  141.3774   82.2365  219.9871 H   0  0  0  0  0  0  0  0  0  0  0  0
  139.5514   82.2116  220.0036 H   0  0  0  0  0  0  0  0  0  0  0  0
  141.3402   81.8944  222.4697 H   0  0  0  0  0  0  0  0  0  0  0  0
  140.4976   83.3720  222.0501 H   0  0  0  0  0  0  0  0  0  0  0  0
  138.9923   82.0130  223.4990 H   0  0  0  0  0  0  0  0  0  0  0  0
  138.3153   81.9513  221.8513 H   0  0  0  0  0  0  0  0  0  0  0  0
  140.1094   79.9454  223.2207 H   0  0  0  0  0  0  0  0  0  0  0  0
  138.3488   79.7836  222.6725 H   0  0  0  0  0  0  0  0  0  0  0  0
  141.6391   78.3410  219.9057 H   0  0  0  0  0  0  0  0  0  0  0  0
  142.0867   78.1426  221.6406 H   0  0  0  0  0  0  0  0  0  0  0  0
  141.2051   76.1365  219.6206 H   0  0  0  0  0  0  0  0  0  0  0  0
  142.5342   76.1060  220.9039 H   0  0  0  0  0  0  0  0  0  0  0  0
  138.4356   70.6543  222.2477 H   0  0  0  0  0  0  0  0  0  0  0  0
  139.6470   69.4033  222.6393 H   0  0  0  0  0  0  0  0  0  0  0  0
  137.6306   70.6460  224.5918 H   0  0  0  0  0  0  0  0  0  0  0  0
  137.5271   69.0082  223.8994 H   0  0  0  0  0  0  0  0  0  0  0  0
  138.2517   67.3584  225.5356 H   0  0  0  0  0  0  0  0  0  0  0  0
  139.8968   66.7188  227.3052 H   0  0  0  0  0  0  0  0  0  0  0  0
  141.6615   68.2937  227.9967 H   0  0  0  0  0  0  0  0  0  0  0  0
  141.8533   70.5603  226.9528 H   0  0  0  0  0  0  0  0  0  0  0  0
  139.3304   72.1311  225.3477 H   0  0  0  0  0  0  0  0  0  0  0  0
  141.1086   72.0175  225.1504 H   0  0  0  0  0  0  0  0  0  0  0  0
  144.2963   73.6805  219.8672 H   0  0  0  0  0  0  0  0  0  0  0  0
  1  2  1  0
  2  3  2  0
  3  4  1  0
  4  5  2  0
  5  6  1  0
  6  7  1  0
  7  8  2  0
  8  9  1  0
  9 10  1  0
 10 11  1  0
 11 12  1  0
 12 13  1  0
 13 14  1  0
 14 15  1  0
 15 16  1  0
 16 17  1  0
 17 18  1  0
 18 19  1  0
 13 20  1  0
 20 21  1  0
  9 22  2  0
 22 23  1  0
 23 24  1  0
 24 25  1  0
 25 26  1  0
 26 27  1  0
 27 28  2  0
 28 29  1  0
 29 30  2  0
 30 31  1  0
 31 32  2  0
 32 33  1  0
 23 34  2  0
  6 35  2  0
 35  2  1  0
 34  7  1  0
 21 10  1  0
 33 24  1  0
 19 14  1  0
 32 27  1  0
  1 36  1  0
  3 37  1  0
  4 38  1  0
  5 39  1  0
 11 40  1  0
 11 41  1  0
 12 42  1  0
 12 43  1  0
 13 44  1  0
 15 45  1  0
 15 46  1  0
 16 47  1  0
 16 48  1  0
 17 49  1  0
 17 50  1  0
 18 51  1  0
 18 52  1  0
 19 53  1  0
 19 54  1  0
 20 55  1  0
 20 56  1  0
 21 57  1  0
 21 58  1  0
 25 59  1  0
 25 60  1  0
 26 61  1  0
 26 62  1  0
 28 63  1  0
 29 64  1  0
 30 65  1  0
 31 66  1  0
 33 67  1  0
 33 68  1  0
 35 69  1  0
M  END
>  <smiles>  (10) 
Oc1cccc(-c2nc(N3CCC(N4CCCCC4)CC3)nc(N3CCc4ccccc4C3)n2)c1

>  <score_type>  (10) 
oracle

>  <origin>  (10) 
autodockgpu

>  <m_score__min__energy>  (10) 
-9.9499999999999993

>  <m_primary>  (10) 
energy

>  <rmsd>  (10) 
5.538287734282479

>  <m_score__min__rmsd>  (10) 
5.538287734282479

>  <meeko>  (10) 
{"free_energy": -9.93, "intermolecular_energy": -11.42, "internal_energy": -1.12, "cluster_size": 46, "cluster_id": 1, "rank_in_cluster": 16}

>  <energy>  (10) 
-9.94

>  <cluster_rmsd>  (10) 
0.12

>  <cluster>  (10) 
1

$$$$

     RDKit          3D

 69 74  0  0  0  0  0  0  0  0999 V2000
  145.2440   69.3410  219.2830 O   0  0  0  0  0  0  0  0  0  0  0  0
  144.8590   70.6530  219.4200 C   0  0  0  0  0  0  0  0  0  0  0  0
  145.5350   71.6780  218.7970 C   0  0  0  0  0  0  0  0  0  0  0  0
  145.1520   73.0020  218.9310 C   0  0  0  0  0  0  0  0  0  0  0  0
  144.0650   73.2970  219.7100 C   0  0  0  0  0  0  0  0  0  0  0  0
  143.3760   72.2920  220.3410 C   0  0  0  0  0  0  0  0  0  0  0  0
  142.2170   72.5740  221.1730 C   0  0  0  0  0  0  0  0  0  0  0  0
  141.6640   73.7890  221.2070 N   0  0  0  0  0  0  0  0  0  0  0  0
  140.5920   74.1040  221.9590 C   0  0  0  0  0  0  0  0  0  0  0  0
  140.0300   75.4340  221.9620 N   0  0  0  0  0  0  0  0  0  0  0  0
  138.5900   75.5840  221.9830 C   0  0  0  0  0  0  0  0  0  0  0  0
  138.1920   76.9090  222.6440 C   0  0  0  0  0  0  0  0  0  0  0  0
  138.9380   77.9720  221.8700 C   0  0  0  0  0  0  0  0  0  0  0  0
  138.4240   79.2820  222.0030 N   0  0  0  0  0  0  0  0  0  0  0  0
  139.3560   80.3330  222.0640 C   0  0  0  0  0  0  0  0  0  0  0  0
  138.8550   81.6560  222.4960 C   0  0  0  0  0  0  0  0  0  0  0  0
  137.7520   81.5710  223.5540 C   0  0  0  0  0  0  0  0  0  0  0  0
  136.6610   80.7660  222.8560 C   0  0  0  0  0  0  0  0  0  0  0  0
  137.1750   79.3970  222.6550 C   0  0  0  0  0  0  0  0  0  0  0  0
  140.3910   77.8550  222.3220 C   0  0  0  0  0  0  0  0  0  0  0  0
  140.9450   76.5280  221.9400 C   0  0  0  0  0  0  0  0  0  0  0  0
  140.0380   73.1440  222.7260 N   0  0  0  0  0  0  0  0  0  0  0  0
  140.5650   71.9110  222.7170 C   0  0  0  0  0  0  0  0  0  0  0  0
  139.9510   70.9250  223.5370 N   0  0  0  0  0  0  0  0  0  0  0  0
  139.4580   69.7050  222.9320 C   0  0  0  0  0  0  0  0  0  0  0  0
  138.5820   69.0040  223.9480 C   0  0  0  0  0  0  0  0  0  0  0  0
  139.4140   68.7460  225.1500 C   0  0  0  0  0  0  0  0  0  0  0  0
  139.5650   67.5010  225.7210 C   0  0  0  0  0  0  0  0  0  0  0  0
  140.3710   67.3820  226.8490 C   0  0  0  0  0  0  0  0  0  0  0  0
  141.0040   68.4930  227.3790 C   0  0  0  0  0  0  0  0  0  0  0  0
  140.8650   69.7550  226.8180 C   0  0  0  0  0  0  0  0  0  0  0  0
  140.0610   69.8410  225.7030 C   0  0  0  0  0  0  0  0  0  0  0  0
  139.8220   71.1450  224.9860 C   0  0  0  0  0  0  0  0  0  0  0  0
  141.6360   71.6240  221.9570 N   0  0  0  0  0  0  0  0  0  0  0  0
  143.7690   70.9940  220.1950 C   0  0  0  0  0  0  0  0  0  0  0  0
  144.7930   68.7640  218.5800 H   0  0  0  0  0  0  0  0  0  0  0  0
  146.4079   71.4373  218.1724 H   0  0  0  0  0  0  0  0  0  0  0  0
  145.7101   73.8014  218.4215 H   0  0  0  0  0  0  0  0  0  0  0  0
  143.7435   74.3421  219.8302 H   0  0  0  0  0  0  0  0  0  0  0  0
  138.2102   75.5672  220.9508 H   0  0  0  0  0  0  0  0  0  0  0  0
  138.1569   74.7557  222.5629 H   0  0  0  0  0  0  0  0  0  0  0  0
  137.1060   77.0672  222.5697 H   0  0  0  0  0  0  0  0  0  0  0  0
  138.4404   76.9272  223.7154 H   0  0  0  0  0  0  0  0  0  0  0  0
  138.8243   77.7961  220.7901 H   0  0  0  0  0  0  0  0  0  0  0  0
  140.1475   80.0332  222.7666 H   0  0  0  0  0  0  0  0  0  0  0  0
  139.6862   80.4801  221.0251 H   0  0  0  0  0  0  0  0  0  0  0  0
  139.6963   82.2282  222.9142 H   0  0  0  0  0  0  0  0  0  0  0  0
  138.4202   82.1440  221.6112 H   0  0  0  0  0  0  0  0  0  0  0  0
  138.1094   81.0520  224.4556 H   0  0  0  0  0  0  0  0  0  0  0  0
  137.4072   82.5573  223.8979 H   0  0  0  0  0  0  0  0  0  0  0  0
  135.7566   80.7389  223.4816 H   0  0  0  0  0  0  0  0  0  0  0  0
  136.3993   81.2256  221.8915 H   0  0  0  0  0  0  0  0  0  0  0  0
  137.2702   78.9270  223.6450 H   0  0  0  0  0  0  0  0  0  0  0  0
  136.4510   78.9094  221.9856 H   0  0  0  0  0  0  0  0  0  0  0  0
  140.9849   78.6476  221.8435 H   0  0  0  0  0  0  0  0  0  0  0  0
  140.4351   77.9598  223.4161 H   0  0  0  0  0  0  0  0  0  0  0  0
  141.3432   76.6121  220.9181 H   0  0  0  0  0  0  0  0  0  0  0  0
  141.7021   76.2942  222.7030 H   0  0  0  0  0  0  0  0  0  0  0  0
  138.8704   69.9442  222.0334 H   0  0  0  0  0  0  0  0  0  0  0  0
  140.2966   69.0573  222.6367 H   0  0  0  0  0  0  0  0  0  0  0  0
  137.7275   69.6441  224.2127 H   0  0  0  0  0  0  0  0  0  0  0  0
  138.1900   68.0616  223.5379 H   0  0  0  0  0  0  0  0  0  0  0  0
  139.0600   66.6215  225.2949 H   0  0  0  0  0  0  0  0  0  0  0  0
  140.5060   66.3984  227.3227 H   0  0  0  0  0  0  0  0  0  0  0  0
  141.6359   68.3722  228.2712 H   0  0  0  0  0  0  0  0  0  0  0  0
  141.3688   70.6370  227.2402 H   0  0  0  0  0  0  0  0  0  0  0  0
  138.8105   71.5118  225.2148 H   0  0  0  0  0  0  0  0  0  0  0  0
  140.5596   71.8914  225.3159 H   0  0  0  0  0  0  0  0  0  0  0  0
  143.2042   70.2008  220.7067 H   0  0  0  0  0  0  0  0  0  0  0  0
  1  2  1  0
  2  3  2  0
  3  4  1  0
  4  5  2  0
  5  6  1  0
  6  7  1  0
  7  8  2  0
  8  9  1  0
  9 10  1  0
 10 11  1  0
 11 12  1  0
 12 13  1  0
 13 14  1  0
 14 15  1  0
 15 16  1  0
 16 17  1  0
 17 18  1  0
 18 19  1  0
 13 20  1  0
 20 21  1  0
  9 22  2  0
 22 23  1  0
 23 24  1  0
 24 25  1  0
 25 26  1  0
 26 27  1  0
 27 28  2  0
 28 29  1  0
 29 30  2  0
 30 31  1  0
 31 32  2  0
 32 33  1  0
 23 34  2  0
  6 35  2  0
 35  2  1  0
 34  7  1  0
 21 10  1  0
 33 24  1  0
 19 14  1  0
 32 27  1  0
  1 36  1  0
  3 37  1  0
  4 38  1  0
  5 39  1  0
 11 40  1  0
 11 41  1  0
 12 42  1  0
 12 43  1  0
 13 44  1  0
 15 45  1  0
 15 46  1  0
 16 47  1  0
 16 48  1  0
 17 49  1  0
 17 50  1  0
 18 51  1  0
 18 52  1  0
 19 53  1  0
 19 54  1  0
 20 55  1  0
 20 56  1  0
 21 57  1  0
 21 58  1  0
 25 59  1  0
 25 60  1  0
 26 61  1  0
 26 62  1  0
 28 63  1  0
 29 64  1  0
 30 65  1  0
 31 66  1  0
 33 67  1  0
 33 68  1  0
 35 69  1  0
M  END
>  <smiles>  (11) 
Oc1cccc(-c2nc(N3CCC(N4CCCCC4)CC3)nc(N3CCc4ccccc4C3)n2)c1

>  <score_type>  (11) 
oracle

>  <origin>  (11) 
autodockgpu

>  <m_score__min__energy>  (11) 
-9.9499999999999993

>  <m_primary>  (11) 
energy

>  <rmsd>  (11) 
5.96910019005439

>  <m_score__min__rmsd>  (11) 
5.96910019005439

>  <meeko>  (11) 
{"free_energy": -8.62, "intermolecular_energy": -10.11, "internal_energy": -1.12, "cluster_size": 46, "cluster_id": 1, "rank_in_cluster": 45}

>  <energy>  (11) 
-9.93

>  <cluster_rmsd>  (11) 
0.34

>  <cluster>  (11) 
1

$$$$

     RDKit          3D

 69 74  0  0  0  0  0  0  0  0999 V2000
  146.3200   73.0190  218.2170 O   0  0  0  0  0  0  0  0  0  0  0  0
  145.4030   72.1520  218.7610 C   0  0  0  0  0  0  0  0  0  0  0  0
  145.4700   70.7940  218.5460 C   0  0  0  0  0  0  0  0  0  0  0  0
  144.5500   69.9150  219.0920 C   0  0  0  0  0  0  0  0  0  0  0  0
  143.5410   70.4170  219.8700 C   0  0  0  0  0  0  0  0  0  0  0  0
  143.4540   71.7680  220.0980 C   0  0  0  0  0  0  0  0  0  0  0  0
  142.3950   72.3320  220.9200 C   0  0  0  0  0  0  0  0  0  0  0  0
  142.0630   73.6230  220.8400 N   0  0  0  0  0  0  0  0  0  0  0  0
  141.0930   74.1950  221.5780 C   0  0  0  0  0  0  0  0  0  0  0  0
  140.7710   75.5960  221.4540 N   0  0  0  0  0  0  0  0  0  0  0  0
  139.6730   76.1320  222.2310 C   0  0  0  0  0  0  0  0  0  0  0  0
  139.8860   77.6240  222.5150 C   0  0  0  0  0  0  0  0  0  0  0  0
  140.0810   78.2570  221.1560 C   0  0  0  0  0  0  0  0  0  0  0  0
  139.8760   79.6540  221.1100 N   0  0  0  0  0  0  0  0  0  0  0  0
  140.6150   80.3810  220.1590 C   0  0  0  0  0  0  0  0  0  0  0  0
  140.6330   81.8530  220.2980 C   0  0  0  0  0  0  0  0  0  0  0  0
  140.6190   82.3250  221.7550 C   0  0  0  0  0  0  0  0  0  0  0  0
  139.3240   81.7330  222.3010 C   0  0  0  0  0  0  0  0  0  0  0  0
  139.4790   80.2650  222.3220 C   0  0  0  0  0  0  0  0  0  0  0  0
  141.4850   77.8480  220.7190 C   0  0  0  0  0  0  0  0  0  0  0  0
  141.5670   76.3710  220.5590 C   0  0  0  0  0  0  0  0  0  0  0  0
  140.4100   73.4280  222.4510 N   0  0  0  0  0  0  0  0  0  0  0  0
  140.7150   72.1260  222.5600 C   0  0  0  0  0  0  0  0  0  0  0  0
  139.9710   71.3500  223.4900 N   0  0  0  0  0  0  0  0  0  0  0  0
  138.9680   70.4250  223.0020 C   0  0  0  0  0  0  0  0  0  0  0  0
  138.1250   69.9910  224.1810 C   0  0  0  0  0  0  0  0  0  0  0  0
  139.0370   69.3670  225.1740 C   0  0  0  0  0  0  0  0  0  0  0  0
  138.8500   68.1060  225.6960 C   0  0  0  0  0  0  0  0  0  0  0  0
  139.7720   67.6290  226.6220 C   0  0  0  0  0  0  0  0  0  0  0  0
  140.8490   68.4090  227.0060 C   0  0  0  0  0  0  0  0  0  0  0  0
  141.0540   69.6820  226.4920 C   0  0  0  0  0  0  0  0  0  0  0  0
  140.1250   70.1270  225.5770 C   0  0  0  0  0  0  0  0  0  0  0  0
  140.2220   71.4860  224.9330 C   0  0  0  0  0  0  0  0  0  0  0  0
  141.6890   71.5810  221.8110 N   0  0  0  0  0  0  0  0  0  0  0  0
  144.3710   72.6170  219.5510 C   0  0  0  0  0  0  0  0  0  0  0  0
  146.1670   74.0200  218.3010 H   0  0  0  0  0  0  0  0  0  0  0  0
  146.2811   70.3940  217.9198 H   0  0  0  0  0  0  0  0  0  0  0  0
  144.6281   68.8339  218.9044 H   0  0  0  0  0  0  0  0  0  0  0  0
  142.7989   69.7365  220.3130 H   0  0  0  0  0  0  0  0  0  0  0  0
  138.7361   76.0017  221.6695 H   0  0  0  0  0  0  0  0  0  0  0  0
  139.6225   75.5938  223.1890 H   0  0  0  0  0  0  0  0  0  0  0  0
  139.0059   78.0513  223.0179 H   0  0  0  0  0  0  0  0  0  0  0  0
  140.7447   77.7996  223.1797 H   0  0  0  0  0  0  0  0  0  0  0  0
  139.3081   77.8953  220.4619 H   0  0  0  0  0  0  0  0  0  0  0  0
  141.6565   80.0310  220.2114 H   0  0  0  0  0  0  0  0  0  0  0  0
  140.1072   80.1930  219.2015 H   0  0  0  0  0  0  0  0  0  0  0  0
  141.5433   82.2380  219.8152 H   0  0  0  0  0  0  0  0  0  0  0  0
  139.7177   82.2359  219.8231 H   0  0  0  0  0  0  0  0  0  0  0  0
  141.4911   81.9388  222.3031 H   0  0  0  0  0  0  0  0  0  0  0  0
  140.6684   83.4194  221.8543 H   0  0  0  0  0  0  0  0  0  0  0  0
  139.1413   82.1056  223.3197 H   0  0  0  0  0  0  0  0  0  0  0  0
  138.4705   82.0226  221.6704 H   0  0  0  0  0  0  0  0  0  0  0  0
  140.2347   80.0198  223.0828 H   0  0  0  0  0  0  0  0  0  0  0  0
  138.4741   79.8696  222.5312 H   0  0  0  0  0  0  0  0  0  0  0  0
  141.7211   78.3305  219.7591 H   0  0  0  0  0  0  0  0  0  0  0  0
  142.2052   78.1649  221.4877 H   0  0  0  0  0  0  0  0  0  0  0  0
  141.2536   76.1265  219.5333 H   0  0  0  0  0  0  0  0  0  0  0  0
  142.6100   76.1072  220.7884 H   0  0  0  0  0  0  0  0  0  0  0  0
  138.3347   70.9214  222.2520 H   0  0  0  0  0  0  0  0  0  0  0  0
  139.4463   69.5537  222.5307 H   0  0  0  0  0  0  0  0  0  0  0  0
  137.6244   70.8633  224.6265 H   0  0  0  0  0  0  0  0  0  0  0  0
  137.3507   69.2774  223.8629 H   0  0  0  0  0  0  0  0  0  0  0  0
  137.9918   67.4907  225.3879 H   0  0  0  0  0  0  0  0  0  0  0  0
  139.6442   66.6247  227.0521 H   0  0  0  0  0  0  0  0  0  0  0  0
  141.5635   68.0083  227.7401 H   0  0  0  0  0  0  0  0  0  0  0  0
  141.9103   70.3009  226.7981 H   0  0  0  0  0  0  0  0  0  0  0  0
  139.4728   72.1586  225.3761 H   0  0  0  0  0  0  0  0  0  0  0  0
  141.2254   71.9053  225.0982 H   0  0  0  0  0  0  0  0  0  0  0  0
  144.2861   73.6966  219.7438 H   0  0  0  0  0  0  0  0  0  0  0  0
  1  2  1  0
  2  3  2  0
  3  4  1  0
  4  5  2  0
  5  6  1  0
  6  7  1  0
  7  8  2  0
  8  9  1  0
  9 10  1  0
 10 11  1  0
 11 12  1  0
 12 13  1  0
 13 14  1  0
 14 15  1  0
 15 16  1  0
 16 17  1  0
 17 18  1  0
 18 19  1  0
 13 20  1  0
 20 21  1  0
  9 22  2  0
 22 23  1  0
 23 24  1  0
 24 25  1  0
 25 26  1  0
 26 27  1  0
 27 28  2  0
 28 29  1  0
 29 30  2  0
 30 31  1  0
 31 32  2  0
 32 33  1  0
 23 34  2  0
  6 35  2  0
 35  2  1  0
 34  7  1  0
 21 10  1  0
 33 24  1  0
 19 14  1  0
 32 27  1  0
  1 36  1  0
  3 37  1  0
  4 38  1  0
  5 39  1  0
 11 40  1  0
 11 41  1  0
 12 42  1  0
 12 43  1  0
 13 44  1  0
 15 45  1  0
 15 46  1  0
 16 47  1  0
 16 48  1  0
 17 49  1  0
 17 50  1  0
 18 51  1  0
 18 52  1  0
 19 53  1  0
 19 54  1  0
 20 55  1  0
 20 56  1  0
 21 57  1  0
 21 58  1  0
 25 59  1  0
 25 60  1  0
 26 61  1  0
 26 62  1  0
 28 63  1  0
 29 64  1  0
 30 65  1  0
 31 66  1  0
 33 67  1  0
 33 68  1  0
 35 69  1  0
M  END
>  <smiles>  (12) 
Oc1cccc(-c2nc(N3CCC(N4CCCCC4)CC3)nc(N3CCc4ccccc4C3)n2)c1

>  <score_type>  (12) 
oracle

>  <origin>  (12) 
autodockgpu

>  <m_score__min__energy>  (12) 
-9.9499999999999993

>  <m_primary>  (12) 
energy

>  <rmsd>  (12) 
5.502509117373387

>  <m_score__min__rmsd>  (12) 
5.502509117373387

>  <meeko>  (12) 
{"free_energy": -9.93, "intermolecular_energy": -11.42, "internal_energy": -1.12, "cluster_size": 46, "cluster_id": 1, "rank_in_cluster": 15}

>  <energy>  (12) 
-9.93

>  <cluster_rmsd>  (12) 
0.14

>  <cluster>  (12) 
1

$$$$

     RDKit          3D

 69 74  0  0  0  0  0  0  0  0999 V2000
  146.3150   73.0170  218.2090 O   0  0  0  0  0  0  0  0  0  0  0  0
  145.3920   72.1510  218.7440 C   0  0  0  0  0  0  0  0  0  0  0  0
  145.4490   70.7940  218.5140 C   0  0  0  0  0  0  0  0  0  0  0  0
  144.5220   69.9160  219.0510 C   0  0  0  0  0  0  0  0  0  0  0  0
  143.5180   70.4170  219.8350 C   0  0  0  0  0  0  0  0  0  0  0  0
  143.4410   71.7660  220.0770 C   0  0  0  0  0  0  0  0  0  0  0  0
  142.3870   72.3280  220.9070 C   0  0  0  0  0  0  0  0  0  0  0  0
  142.0560   73.6200  220.8330 N   0  0  0  0  0  0  0  0  0  0  0  0
  141.0900   74.1910  221.5760 C   0  0  0  0  0  0  0  0  0  0  0  0
  140.7690   75.5930  221.4590 N   0  0  0  0  0  0  0  0  0  0  0  0
  139.6670   76.1250  222.2320 C   0  0  0  0  0  0  0  0  0  0  0  0
  139.8780   77.6150  222.5260 C   0  0  0  0  0  0  0  0  0  0  0  0
  140.0820   78.2560  221.1720 C   0  0  0  0  0  0  0  0  0  0  0  0
  139.8780   79.6530  221.1330 N   0  0  0  0  0  0  0  0  0  0  0  0
  140.6340   80.3870  220.2000 C   0  0  0  0  0  0  0  0  0  0  0  0
  140.6490   81.8580  220.3510 C   0  0  0  0  0  0  0  0  0  0  0  0
  140.6090   82.3200  221.8100 C   0  0  0  0  0  0  0  0  0  0  0  0
  139.3040   81.7230  222.3280 C   0  0  0  0  0  0  0  0  0  0  0  0
  139.4590   80.2550  222.3410 C   0  0  0  0  0  0  0  0  0  0  0  0
  141.4880   77.8490  220.7400 C   0  0  0  0  0  0  0  0  0  0  0  0
  141.5710   76.3720  220.5730 C   0  0  0  0  0  0  0  0  0  0  0  0
  140.4100   73.4220  222.4510 N   0  0  0  0  0  0  0  0  0  0  0  0
  140.7140   72.1190  222.5530 C   0  0  0  0  0  0  0  0  0  0  0  0
  139.9730   71.3420  223.4840 N   0  0  0  0  0  0  0  0  0  0  0  0
  138.9980   70.3870  222.9970 C   0  0  0  0  0  0  0  0  0  0  0  0
  138.1470   69.9520  224.1700 C   0  0  0  0  0  0  0  0  0  0  0  0
  139.0570   69.3640  225.1860 C   0  0  0  0  0  0  0  0  0  0  0  0
  138.8910   68.1070  225.7230 C   0  0  0  0  0  0  0  0  0  0  0  0
  139.8090   67.6640  226.6700 C   0  0  0  0  0  0  0  0  0  0  0  0
  140.8630   68.4730  227.0580 C   0  0  0  0  0  0  0  0  0  0  0  0
  141.0480   69.7420  226.5270 C   0  0  0  0  0  0  0  0  0  0  0  0
  140.1230   70.1530  225.5930 C   0  0  0  0  0  0  0  0  0  0  0  0
  140.2000   71.5040  224.9290 C   0  0  0  0  0  0  0  0  0  0  0  0
  141.6840   71.5750  221.7990 N   0  0  0  0  0  0  0  0  0  0  0  0
  144.3640   72.6140  219.5400 C   0  0  0  0  0  0  0  0  0  0  0  0
  146.1660   74.0170  218.2970 H   0  0  0  0  0  0  0  0  0  0  0  0
  146.2570   70.3947  217.8834 H   0  0  0  0  0  0  0  0  0  0  0  0
  144.5913   68.8365  218.8512 H   0  0  0  0  0  0  0  0  0  0  0  0
  142.7715   69.7374  220.2719 H   0  0  0  0  0  0  0  0  0  0  0  0
  138.7336   75.9981  221.6640 H   0  0  0  0  0  0  0  0  0  0  0  0
  139.6110   75.5815  223.1867 H   0  0  0  0  0  0  0  0  0  0  0  0
  138.9946   78.0394  223.0255 H   0  0  0  0  0  0  0  0  0  0  0  0
  140.7323   77.7867  223.1973 H   0  0  0  0  0  0  0  0  0  0  0  0
  139.3131   77.8985  220.4714 H   0  0  0  0  0  0  0  0  0  0  0  0
  141.6745   80.0366  220.2680 H   0  0  0  0  0  0  0  0  0  0  0  0
  140.1437   80.2060  219.2321 H   0  0  0  0  0  0  0  0  0  0  0  0
  141.5676   82.2467  219.8873 H   0  0  0  0  0  0  0  0  0  0  0  0
  139.7416   82.2437  219.8633 H   0  0  0  0  0  0  0  0  0  0  0  0
  141.4712   81.9305  222.3711 H   0  0  0  0  0  0  0  0  0  0  0  0
  140.6563   83.4137  221.9180 H   0  0  0  0  0  0  0  0  0  0  0  0
  139.1026   82.0880  223.3460 H   0  0  0  0  0  0  0  0  0  0  0  0
  138.4622   82.0169  221.6839 H   0  0  0  0  0  0  0  0  0  0  0  0
  140.2007   80.0044  223.1138 H   0  0  0  0  0  0  0  0  0  0  0  0
  138.4504   79.8581  222.5287 H   0  0  0  0  0  0  0  0  0  0  0  0
  141.7289   78.3362  219.7837 H   0  0  0  0  0  0  0  0  0  0  0  0
  142.2043   78.1620  221.5139 H   0  0  0  0  0  0  0  0  0  0  0  0
  141.2642   76.1326  219.5441 H   0  0  0  0  0  0  0  0  0  0  0  0
  142.6124   76.1068  220.8077 H   0  0  0  0  0  0  0  0  0  0  0  0
  138.3650   70.8572  222.2301 H   0  0  0  0  0  0  0  0  0  0  0  0
  139.5030   69.5194  222.5473 H   0  0  0  0  0  0  0  0  0  0  0  0
  137.6203   70.8195  224.5944 H   0  0  0  0  0  0  0  0  0  0  0  0
  137.3939   69.2163  223.8514 H   0  0  0  0  0  0  0  0  0  0  0  0
  138.0520   67.4679  225.4105 H   0  0  0  0  0  0  0  0  0  0  0  0
  139.6964   66.6637  227.1135 H   0  0  0  0  0  0  0  0  0  0  0  0
  141.5747   68.0994  227.8090 H   0  0  0  0  0  0  0  0  0  0  0  0
  141.8867   70.3837  226.8350 H   0  0  0  0  0  0  0  0  0  0  0  0
  139.4302   72.1667  225.3511 H   0  0  0  0  0  0  0  0  0  0  0  0
  141.1921   71.9467  225.1017 H   0  0  0  0  0  0  0  0  0  0  0  0
  144.2875   73.6918  219.7460 H   0  0  0  0  0  0  0  0  0  0  0  0
  1  2  1  0
  2  3  2  0
  3  4  1  0
  4  5  2  0
  5  6  1  0
  6  7  1  0
  7  8  2  0
  8  9  1  0
  9 10  1  0
 10 11  1  0
 11 12  1  0
 12 13  1  0
 13 14  1  0
 14 15  1  0
 15 16  1  0
 16 17  1  0
 17 18  1  0
 18 19  1  0
 13 20  1  0
 20 21  1  0
  9 22  2  0
 22 23  1  0
 23 24  1  0
 24 25  1  0
 25 26  1  0
 26 27  1  0
 27 28  2  0
 28 29  1  0
 29 30  2  0
 30 31  1  0
 31 32  2  0
 32 33  1  0
 23 34  2  0
  6 35  2  0
 35  2  1  0
 34  7  1  0
 21 10  1  0
 33 24  1  0
 19 14  1  0
 32 27  1  0
  1 36  1  0
  3 37  1  0
  4 38  1  0
  5 39  1  0
 11 40  1  0
 11 41  1  0
 12 42  1  0
 12 43  1  0
 13 44  1  0
 15 45  1  0
 15 46  1  0
 16 47  1  0
 16 48  1  0
 17 49  1  0
 17 50  1  0
 18 51  1  0
 18 52  1  0
 19 53  1  0
 19 54  1  0
 20 55  1  0
 20 56  1  0
 21 57  1  0
 21 58  1  0
 25 59  1  0
 25 60  1  0
 26 61  1  0
 26 62  1  0
 28 63  1  0
 29 64  1  0
 30 65  1  0
 31 66  1  0
 33 67  1  0
 33 68  1  0
 35 69  1  0
M  END
>  <smiles>  (13) 
Oc1cccc(-c2nc(N3CCC(N4CCCCC4)CC3)nc(N3CCc4ccccc4C3)n2)c1

>  <score_type>  (13) 
oracle

>  <origin>  (13) 
autodockgpu

>  <m_score__min__energy>  (13) 
-9.9499999999999993

>  <m_primary>  (13) 
energy

>  <rmsd>  (13) 
5.508400625672503

>  <m_score__min__rmsd>  (13) 
5.508400625672503

>  <meeko>  (13) 
{"free_energy": -9.94, "intermolecular_energy": -11.43, "internal_energy": -1.12, "cluster_size": 46, "cluster_id": 1, "rank_in_cluster": 10}

>  <energy>  (13) 
-9.93

>  <cluster_rmsd>  (13) 
0.25

>  <cluster>  (13) 
1

$$$$

     RDKit          3D

 69 74  0  0  0  0  0  0  0  0999 V2000
  146.3040   73.2890  218.5440 O   0  0  0  0  0  0  0  0  0  0  0  0
  145.3580   72.3810  218.9540 C   0  0  0  0  0  0  0  0  0  0  0  0
  145.4160   71.0540  218.5890 C   0  0  0  0  0  0  0  0  0  0  0  0
  144.4660   70.1340  219.0000 C   0  0  0  0  0  0  0  0  0  0  0  0
  143.4370   70.5610  219.7960 C   0  0  0  0  0  0  0  0  0  0  0  0
  143.3580   71.8790  220.1730 C   0  0  0  0  0  0  0  0  0  0  0  0
  142.2780   72.3620  221.0180 C   0  0  0  0  0  0  0  0  0  0  0  0
  141.8520   73.6260  220.9490 N   0  0  0  0  0  0  0  0  0  0  0  0
  140.8580   74.1250  221.7070 C   0  0  0  0  0  0  0  0  0  0  0  0
  140.4320   75.4990  221.5950 N   0  0  0  0  0  0  0  0  0  0  0  0
  139.0530   75.8300  221.8850 C   0  0  0  0  0  0  0  0  0  0  0  0
  138.9330   77.2780  222.3740 C   0  0  0  0  0  0  0  0  0  0  0  0
  139.5800   78.1120  221.2910 C   0  0  0  0  0  0  0  0  0  0  0  0
  139.2290   79.4800  221.2980 N   0  0  0  0  0  0  0  0  0  0  0  0
  140.2710   80.4090  221.4700 C   0  0  0  0  0  0  0  0  0  0  0  0
  139.8880   81.8050  221.7740 C   0  0  0  0  0  0  0  0  0  0  0  0
  138.6340   81.9150  222.6460 C   0  0  0  0  0  0  0  0  0  0  0  0
  137.5660   81.2170  221.8110 C   0  0  0  0  0  0  0  0  0  0  0  0
  137.9210   79.7860  221.7390 C   0  0  0  0  0  0  0  0  0  0  0  0
  141.0800   77.8820  221.4480 C   0  0  0  0  0  0  0  0  0  0  0  0
  141.4140   76.4540  221.1960 C   0  0  0  0  0  0  0  0  0  0  0  0
  140.2500   73.3080  222.5920 N   0  0  0  0  0  0  0  0  0  0  0  0
  140.6510   72.0320  222.6900 C   0  0  0  0  0  0  0  0  0  0  0  0
  139.9840   71.2030  223.6320 N   0  0  0  0  0  0  0  0  0  0  0  0
  139.2460   70.0470  223.1650 C   0  0  0  0  0  0  0  0  0  0  0  0
  138.3870   69.5510  224.3080 C   0  0  0  0  0  0  0  0  0  0  0  0
  139.2960   69.2250  225.4370 C   0  0  0  0  0  0  0  0  0  0  0  0
  139.3130   68.0040  226.0750 C   0  0  0  0  0  0  0  0  0  0  0  0
  140.2080   67.8170  227.1230 C   0  0  0  0  0  0  0  0  0  0  0  0
  141.0600   68.8380  227.5100 C   0  0  0  0  0  0  0  0  0  0  0  0
  141.0570   70.0740  226.8800 C   0  0  0  0  0  0  0  0  0  0  0  0
  140.1600   70.2300  225.8460 C   0  0  0  0  0  0  0  0  0  0  0  0
  140.0490   71.5160  225.0690 C   0  0  0  0  0  0  0  0  0  0  0  0
  141.6470   71.5610  221.9200 N   0  0  0  0  0  0  0  0  0  0  0  0
  144.3040   72.7690  219.7580 C   0  0  0  0  0  0  0  0  0  0  0  0
  146.0090   74.2200  218.2670 H   0  0  0  0  0  0  0  0  0  0  0  0
  146.2442   70.7139  217.9500 H   0  0  0  0  0  0  0  0  0  0  0  0
  144.5367   69.0801  218.6928 H   0  0  0  0  0  0  0  0  0  0  0  0
  142.6719   69.8466  220.1342 H   0  0  0  0  0  0  0  0  0  0  0  0
  138.4526   75.7067  220.9716 H   0  0  0  0  0  0  0  0  0  0  0  0
  138.6877   75.1588  222.6762 H   0  0  0  0  0  0  0  0  0  0  0  0
  137.8764   77.5578  222.4981 H   0  0  0  0  0  0  0  0  0  0  0  0
  139.4148   77.4250  223.3519 H   0  0  0  0  0  0  0  0  0  0  0  0
  139.2126   77.7931  220.3044 H   0  0  0  0  0  0  0  0  0  0  0  0
  140.9006   80.0507  222.2978 H   0  0  0  0  0  0  0  0  0  0  0  0
  140.7713   80.4586  220.4916 H   0  0  0  0  0  0  0  0  0  0  0  0
  140.7232   82.2888  222.3016 H   0  0  0  0  0  0  0  0  0  0  0  0
  139.6616   82.2958  220.8159 H   0  0  0  0  0  0  0  0  0  0  0  0
  138.7776   81.4041  223.6095 H   0  0  0  0  0  0  0  0  0  0  0  0
  138.3738   82.9537  222.8979 H   0  0  0  0  0  0  0  0  0  0  0  0
  136.5811   81.3358  222.2863 H   0  0  0  0  0  0  0  0  0  0  0  0
  137.5166   81.6542  220.8028 H   0  0  0  0  0  0  0  0  0  0  0  0
  137.8004   79.3611  222.7464 H   0  0  0  0  0  0  0  0  0  0  0  0
  137.2510   79.3587  220.9784 H   0  0  0  0  0  0  0  0  0  0  0  0
  141.6210   78.5135  220.7279 H   0  0  0  0  0  0  0  0  0  0  0  0
  141.3758   78.1422  222.4750 H   0  0  0  0  0  0  0  0  0  0  0  0
  141.5801   76.3335  220.1153 H   0  0  0  0  0  0  0  0  0  0  0  0
  142.2985   76.2441  221.8154 H   0  0  0  0  0  0  0  0  0  0  0  0
  138.6090   70.3291  222.3137 H   0  0  0  0  0  0  0  0  0  0  0  0
  139.9380   69.2581  222.8352 H   0  0  0  0  0  0  0  0  0  0  0  0
  137.6762   70.3337  224.6114 H   0  0  0  0  0  0  0  0  0  0  0  0
  137.8105   68.6646  224.0047 H   0  0  0  0  0  0  0  0  0  0  0  0
  138.6348   67.1962  225.7629 H   0  0  0  0  0  0  0  0  0  0  0  0
  140.2394   66.8511  227.6484 H   0  0  0  0  0  0  0  0  0  0  0  0
  141.7594   68.6638  228.3410 H   0  0  0  0  0  0  0  0  0  0  0  0
  141.7334   70.8846  227.1889 H   0  0  0  0  0  0  0  0  0  0  0  0
  139.1374   72.0522  225.3714 H   0  0  0  0  0  0  0  0  0  0  0  0
  140.9246   72.1501  225.2723 H   0  0  0  0  0  0  0  0  0  0  0  0
  144.2259   73.8207  220.0708 H   0  0  0  0  0  0  0  0  0  0  0  0
  1  2  1  0
  2  3  2  0
  3  4  1  0
  4  5  2  0
  5  6  1  0
  6  7  1  0
  7  8  2  0
  8  9  1  0
  9 10  1  0
 10 11  1  0
 11 12  1  0
 12 13  1  0
 13 14  1  0
 14 15  1  0
 15 16  1  0
 16 17  1  0
 17 18  1  0
 18 19  1  0
 13 20  1  0
 20 21  1  0
  9 22  2  0
 22 23  1  0
 23 24  1  0
 24 25  1  0
 25 26  1  0
 26 27  1  0
 27 28  2  0
 28 29  1  0
 29 30  2  0
 30 31  1  0
 31 32  2  0
 32 33  1  0
 23 34  2  0
  6 35  2  0
 35  2  1  0
 34  7  1  0
 21 10  1  0
 33 24  1  0
 19 14  1  0
 32 27  1  0
  1 36  1  0
  3 37  1  0
  4 38  1  0
  5 39  1  0
 11 40  1  0
 11 41  1  0
 12 42  1  0
 12 43  1  0
 13 44  1  0
 15 45  1  0
 15 46  1  0
 16 47  1  0
 16 48  1  0
 17 49  1  0
 17 50  1  0
 18 51  1  0
 18 52  1  0
 19 53  1  0
 19 54  1  0
 20 55  1  0
 20 56  1  0
 21 57  1  0
 21 58  1  0
 25 59  1  0
 25 60  1  0
 26 61  1  0
 26 62  1  0
 28 63  1  0
 29 64  1  0
 30 65  1  0
 31 66  1  0
 33 67  1  0
 33 68  1  0
 35 69  1  0
M  END
>  <smiles>  (14) 
Oc1cccc(-c2nc(N3CCC(N4CCCCC4)CC3)nc(N3CCc4ccccc4C3)n2)c1

>  <score_type>  (14) 
oracle

>  <origin>  (14) 
autodockgpu

>  <m_score__min__energy>  (14) 
-9.9499999999999993

>  <m_primary>  (14) 
energy

>  <rmsd>  (14) 
5.506949630612646

>  <m_score__min__rmsd>  (14) 
5.506949630612646

>  <meeko>  (14) 
{"free_energy": -9.58, "intermolecular_energy": -11.07, "internal_energy": -1.12, "cluster_size": 46, "cluster_id": 1, "rank_in_cluster": 34}

>  <energy>  (14) 
-9.93

>  <cluster_rmsd>  (14) 
0.03

>  <cluster>  (14) 
1

$$$$

     RDKit          3D

 69 74  0  0  0  0  0  0  0  0999 V2000
  145.4070   68.5070  219.6180 O   0  0  0  0  0  0  0  0  0  0  0  0
  145.0030   69.7900  219.3390 C   0  0  0  0  0  0  0  0  0  0  0  0
  145.5340   70.5080  218.2900 C   0  0  0  0  0  0  0  0  0  0  0  0
  145.1320   71.8010  218.0040 C   0  0  0  0  0  0  0  0  0  0  0  0
  144.1740   72.3820  218.7910 C   0  0  0  0  0  0  0  0  0  0  0  0
  143.6310   71.6860  219.8430 C   0  0  0  0  0  0  0  0  0  0  0  0
  142.6110   72.2760  220.6960 C   0  0  0  0  0  0  0  0  0  0  0  0
  142.3420   73.5830  220.6570 N   0  0  0  0  0  0  0  0  0  0  0  0
  141.4100   74.1800  221.4240 C   0  0  0  0  0  0  0  0  0  0  0  0
  141.1550   75.5990  221.3440 N   0  0  0  0  0  0  0  0  0  0  0  0
  140.2730   76.2060  222.3190 C   0  0  0  0  0  0  0  0  0  0  0  0
  140.6290   77.6830  222.5280 C   0  0  0  0  0  0  0  0  0  0  0  0
  140.5810   78.2960  221.1470 C   0  0  0  0  0  0  0  0  0  0  0  0
  140.4550   79.7030  221.1200 N   0  0  0  0  0  0  0  0  0  0  0  0
  141.1830   80.3940  220.1330 C   0  0  0  0  0  0  0  0  0  0  0  0
  141.2950   81.8610  220.2790 C   0  0  0  0  0  0  0  0  0  0  0  0
  141.3860   82.3210  221.7370 C   0  0  0  0  0  0  0  0  0  0  0  0
  140.0900   81.8000  222.3490 C   0  0  0  0  0  0  0  0  0  0  0  0
  140.1590   80.3260  222.3540 C   0  0  0  0  0  0  0  0  0  0  0  0
  141.8380   77.7980  220.4400 C   0  0  0  0  0  0  0  0  0  0  0  0
  141.7960   76.3180  220.2920 C   0  0  0  0  0  0  0  0  0  0  0  0
  140.7020   73.4220  222.2860 N   0  0  0  0  0  0  0  0  0  0  0  0
  140.9450   72.1050  222.3530 C   0  0  0  0  0  0  0  0  0  0  0  0
  140.1760   71.3400  223.2720 N   0  0  0  0  0  0  0  0  0  0  0  0
  139.2220   70.3720  222.7680 C   0  0  0  0  0  0  0  0  0  0  0  0
  138.3340   69.9530  223.9190 C   0  0  0  0  0  0  0  0  0  0  0  0
  139.2120   69.3870  224.9750 C   0  0  0  0  0  0  0  0  0  0  0  0
  139.0320   68.1390  225.5280 C   0  0  0  0  0  0  0  0  0  0  0  0
  139.9200   67.7170  226.5140 C   0  0  0  0  0  0  0  0  0  0  0  0
  140.9560   68.5380  226.9230 C   0  0  0  0  0  0  0  0  0  0  0  0
  141.1530   69.7980  226.3770 C   0  0  0  0  0  0  0  0  0  0  0  0
  140.2600   70.1880  225.4040 C   0  0  0  0  0  0  0  0  0  0  0  0
  140.3530   71.5280  224.7210 C   0  0  0  0  0  0  0  0  0  0  0  0
  141.8820   71.5350  221.5760 N   0  0  0  0  0  0  0  0  0  0  0  0
  144.0410   70.4130  220.1080 C   0  0  0  0  0  0  0  0  0  0  0  0
  145.2010   67.7670  218.9530 H   0  0  0  0  0  0  0  0  0  0  0  0
  146.3028   70.0381  217.6590 H   0  0  0  0  0  0  0  0  0  0  0  0
  145.5738   72.3516  217.1604 H   0  0  0  0  0  0  0  0  0  0  0  0
  143.8386   73.4082  218.5802 H   0  0  0  0  0  0  0  0  0  0  0  0
  139.2351   76.1319  221.9623 H   0  0  0  0  0  0  0  0  0  0  0  0
  140.3868   75.6763  223.2763 H   0  0  0  0  0  0  0  0  0  0  0  0
  139.8972   78.1670  223.1915 H   0  0  0  0  0  0  0  0  0  0  0  0
  141.6140   77.8077  223.0015 H   0  0  0  0  0  0  0  0  0  0  0  0
  139.6627   77.9798  220.6306 H   0  0  0  0  0  0  0  0  0  0  0  0
  142.2034   79.9833  220.1261 H   0  0  0  0  0  0  0  0  0  0  0  0
  140.6137   80.2442  219.2038 H   0  0  0  0  0  0  0  0  0  0  0  0
  142.1995   82.1961  219.7504 H   0  0  0  0  0  0  0  0  0  0  0  0
  140.3798   82.3007  219.8559 H   0  0  0  0  0  0  0  0  0  0  0  0
  142.2623   81.8809  222.2354 H   0  0  0  0  0  0  0  0  0  0  0  0
  141.5037   83.4099  221.8390 H   0  0  0  0  0  0  0  0  0  0  0  0
  139.9844   82.1739  223.3781 H   0  0  0  0  0  0  0  0  0  0  0  0
  139.2225   82.1438  221.7665 H   0  0  0  0  0  0  0  0  0  0  0  0
  140.9378   80.0306  223.0725 H   0  0  0  0  0  0  0  0  0  0  0  0
  139.1448   79.9886  222.6139 H   0  0  0  0  0  0  0  0  0  0  0  0
  141.9013   78.2605  219.4440 H   0  0  0  0  0  0  0  0  0  0  0  0
  142.7182   78.0725  221.0400 H   0  0  0  0  0  0  0  0  0  0  0  0
  141.2648   76.0890  219.3564 H   0  0  0  0  0  0  0  0  0  0  0  0
  142.8459   75.9901  220.3077 H   0  0  0  0  0  0  0  0  0  0  0  0
  138.6133   70.8263  221.9723 H   0  0  0  0  0  0  0  0  0  0  0  0
  139.7454   69.4995  222.3500 H   0  0  0  0  0  0  0  0  0  0  0  0
  137.7895   70.8250  224.3104 H   0  0  0  0  0  0  0  0  0  0  0  0
  137.5952   69.2082  223.5881 H   0  0  0  0  0  0  0  0  0  0  0  0
  138.2065   67.4909  225.1988 H   0  0  0  0  0  0  0  0  0  0  0  0
  139.7971   66.7240  226.9710 H   0  0  0  0  0  0  0  0  0  0  0  0
  141.6435   68.1811  227.7040 H   0  0  0  0  0  0  0  0  0  0  0  0
  141.9770   70.4495  226.7033 H   0  0  0  0  0  0  0  0  0  0  0  0
  139.5660   72.1934  225.1055 H   0  0  0  0  0  0  0  0  0  0  0  0
  141.3362   71.9794  224.9200 H   0  0  0  0  0  0  0  0  0  0  0  0
  143.5948   69.8700  220.9542 H   0  0  0  0  0  0  0  0  0  0  0  0
  1  2  1  0
  2  3  2  0
  3  4  1  0
  4  5  2  0
  5  6  1  0
  6  7  1  0
  7  8  2  0
  8  9  1  0
  9 10  1  0
 10 11  1  0
 11 12  1  0
 12 13  1  0
 13 14  1  0
 14 15  1  0
 15 16  1  0
 16 17  1  0
 17 18  1  0
 18 19  1  0
 13 20  1  0
 20 21  1  0
  9 22  2  0
 22 23  1  0
 23 24  1  0
 24 25  1  0
 25 26  1  0
 26 27  1  0
 27 28  2  0
 28 29  1  0
 29 30  2  0
 30 31  1  0
 31 32  2  0
 32 33  1  0
 23 34  2  0
  6 35  2  0
 35  2  1  0
 34  7  1  0
 21 10  1  0
 33 24  1  0
 19 14  1  0
 32 27  1  0
  1 36  1  0
  3 37  1  0
  4 38  1  0
  5 39  1  0
 11 40  1  0
 11 41  1  0
 12 42  1  0
 12 43  1  0
 13 44  1  0
 15 45  1  0
 15 46  1  0
 16 47  1  0
 16 48  1  0
 17 49  1  0
 17 50  1  0
 18 51  1  0
 18 52  1  0
 19 53  1  0
 19 54  1  0
 20 55  1  0
 20 56  1  0
 21 57  1  0
 21 58  1  0
 25 59  1  0
 25 60  1  0
 26 61  1  0
 26 62  1  0
 28 63  1  0
 29 64  1  0
 30 65  1  0
 31 66  1  0
 33 67  1  0
 33 68  1  0
 35 69  1  0
M  END
>  <smiles>  (15) 
Oc1cccc(-c2nc(N3CCC(N4CCCCC4)CC3)nc(N3CCc4ccccc4C3)n2)c1

>  <score_type>  (15) 
oracle

>  <origin>  (15) 
autodockgpu

>  <m_score__min__energy>  (15) 
-9.9499999999999993

>  <m_primary>  (15) 
energy

>  <rmsd>  (15) 
5.522060986789945

>  <m_score__min__rmsd>  (15) 
5.522060986789945

>  <meeko>  (15) 
{"free_energy": -9.1, "intermolecular_energy": -10.59, "internal_energy": -1.13, "cluster_size": 46, "cluster_id": 1, "rank_in_cluster": 39}

>  <energy>  (15) 
-9.93

>  <cluster_rmsd>  (15) 
0.15

>  <cluster>  (15) 
1

$$$$

     RDKit          3D

 69 74  0  0  0  0  0  0  0  0999 V2000
  142.6150   78.2010  218.9610 O   0  0  0  0  0  0  0  0  0  0  0  0
  141.9180   77.6210  219.9940 C   0  0  0  0  0  0  0  0  0  0  0  0
  141.1340   78.3640  220.8490 C   0  0  0  0  0  0  0  0  0  0  0  0
  140.4300   77.7860  221.8920 C   0  0  0  0  0  0  0  0  0  0  0  0
  140.5170   76.4310  222.0740 C   0  0  0  0  0  0  0  0  0  0  0  0
  141.2910   75.6710  221.2330 C   0  0  0  0  0  0  0  0  0  0  0  0
  141.4020   74.2300  221.4010 C   0  0  0  0  0  0  0  0  0  0  0  0
  142.2250   73.5030  220.6410 N   0  0  0  0  0  0  0  0  0  0  0  0
  142.3660   72.1690  220.7530 C   0  0  0  0  0  0  0  0  0  0  0  0
  143.2700   71.4260  219.9080 N   0  0  0  0  0  0  0  0  0  0  0  0
  144.5020   72.0540  219.4790 C   0  0  0  0  0  0  0  0  0  0  0  0
  145.5840   71.0010  219.2100 C   0  0  0  0  0  0  0  0  0  0  0  0
  144.9650   70.0500  218.2110 C   0  0  0  0  0  0  0  0  0  0  0  0
  145.8840   69.2520  217.4940 N   0  0  0  0  0  0  0  0  0  0  0  0
  146.3930   69.7800  216.2940 C   0  0  0  0  0  0  0  0  0  0  0  0
  147.1120   68.8490  215.3980 C   0  0  0  0  0  0  0  0  0  0  0  0
  146.5370   67.4290  215.4080 C   0  0  0  0  0  0  0  0  0  0  0  0
  146.6710   67.0090  216.8680 C   0  0  0  0  0  0  0  0  0  0  0  0
  145.7570   67.8540  217.6610 C   0  0  0  0  0  0  0  0  0  0  0  0
  143.9580   69.2260  219.0090 C   0  0  0  0  0  0  0  0  0  0  0  0
  142.8810   70.1020  219.5440 C   0  0  0  0  0  0  0  0  0  0  0  0
  141.6390   71.5190  221.6850 N   0  0  0  0  0  0  0  0  0  0  0  0
  140.8010   72.2170  222.4670 C   0  0  0  0  0  0  0  0  0  0  0  0
  140.0540   71.4970  223.4390 N   0  0  0  0  0  0  0  0  0  0  0  0
  138.9650   70.6440  223.0080 C   0  0  0  0  0  0  0  0  0  0  0  0
  138.1560   70.2710  224.2310 C   0  0  0  0  0  0  0  0  0  0  0  0
  139.0720   69.5870  225.1800 C   0  0  0  0  0  0  0  0  0  0  0  0
  138.8250   68.3430  225.7160 C   0  0  0  0  0  0  0  0  0  0  0  0
  139.7580   67.8040  226.5970 C   0  0  0  0  0  0  0  0  0  0  0  0
  140.9050   68.5070  226.9210 C   0  0  0  0  0  0  0  0  0  0  0  0
  141.1720   69.7620  226.3900 C   0  0  0  0  0  0  0  0  0  0  0  0
  140.2300   70.2690  225.5220 C   0  0  0  0  0  0  0  0  0  0  0  0
  140.3890   71.6170  224.8670 C   0  0  0  0  0  0  0  0  0  0  0  0
  140.6800   73.5490  222.3330 N   0  0  0  0  0  0  0  0  0  0  0  0
  141.9770   76.2590  220.2120 C   0  0  0  0  0  0  0  0  0  0  0  0
  143.6150   78.3460  219.0570 H   0  0  0  0  0  0  0  0  0  0  0  0
  141.0650   79.4514  220.6983 H   0  0  0  0  0  0  0  0  0  0  0  0
  139.8127   78.4030  222.5615 H   0  0  0  0  0  0  0  0  0  0  0  0
  139.9654   75.9511  222.8958 H   0  0  0  0  0  0  0  0  0  0  0  0
  144.3148   72.6228  218.5563 H   0  0  0  0  0  0  0  0  0  0  0  0
  144.8529   72.7247  220.2772 H   0  0  0  0  0  0  0  0  0  0  0  0
  146.4849   71.4713  218.7891 H   0  0  0  0  0  0  0  0  0  0  0  0
  145.8978   70.4867  220.1303 H   0  0  0  0  0  0  0  0  0  0  0  0
  144.4856   70.6197  217.4013 H   0  0  0  0  0  0  0  0  0  0  0  0
  145.5453   70.1948  215.7290 H   0  0  0  0  0  0  0  0  0  0  0  0
  147.1497   70.5150  216.6058 H   0  0  0  0  0  0  0  0  0  0  0  0
  147.0566   69.2404  214.3715 H   0  0  0  0  0  0  0  0  0  0  0  0
  148.1478   68.7825  215.7623 H   0  0  0  0  0  0  0  0  0  0  0  0
  145.4833   67.4279  215.0924 H   0  0  0  0  0  0  0  0  0  0  0  0
  147.0539   66.7494  214.7145 H   0  0  0  0  0  0  0  0  0  0  0  0
  146.3953   65.9501  216.9805 H   0  0  0  0  0  0  0  0  0  0  0  0
  147.7084   67.1333  217.2121 H   0  0  0  0  0  0  0  0  0  0  0  0
  144.7273   67.5775  217.3903 H   0  0  0  0  0  0  0  0  0  0  0  0
  146.0214   67.6617  218.7113 H   0  0  0  0  0  0  0  0  0  0  0  0
  143.5128   68.4632  218.3533 H   0  0  0  0  0  0  0  0  0  0  0  0
  144.4774   68.7439  219.8503 H   0  0  0  0  0  0  0  0  0  0  0  0
  142.0992   70.1813  218.7743 H   0  0  0  0  0  0  0  0  0  0  0  0
  142.5493   69.6248  220.4779 H   0  0  0  0  0  0  0  0  0  0  0  0
  138.3298   71.1828  222.2895 H   0  0  0  0  0  0  0  0  0  0  0  0
  139.3563   69.7409  222.5167 H   0  0  0  0  0  0  0  0  0  0  0  0
  137.7402   71.1766  224.6969 H   0  0  0  0  0  0  0  0  0  0  0  0
  137.3195   69.6117  223.9562 H   0  0  0  0  0  0  0  0  0  0  0  0
  137.9119   67.7883  225.4541 H   0  0  0  0  0  0  0  0  0  0  0  0
  139.5823   66.8121  227.0389 H   0  0  0  0  0  0  0  0  0  0  0  0
  141.6265   68.0585  227.6198 H   0  0  0  0  0  0  0  0  0  0  0  0
  142.0843   70.3199  226.6479 H   0  0  0  0  0  0  0  0  0  0  0  0
  139.7133   72.3415  225.3450 H   0  0  0  0  0  0  0  0  0  0  0  0
  141.4268   71.9645  224.9779 H   0  0  0  0  0  0  0  0  0  0  0  0
  142.5913   75.6342  219.5470 H   0  0  0  0  0  0  0  0  0  0  0  0
  1  2  1  0
  2  3  2  0
  3  4  1  0
  4  5  2  0
  5  6  1  0
  6  7  1  0
  7  8  2  0
  8  9  1  0
  9 10  1  0
 10 11  1  0
 11 12  1  0
 12 13  1  0
 13 14  1  0
 14 15  1  0
 15 16  1  0
 16 17  1  0
 17 18  1  0
 18 19  1  0
 13 20  1  0
 20 21  1  0
  9 22  2  0
 22 23  1  0
 23 24  1  0
 24 25  1  0
 25 26  1  0
 26 27  1  0
 27 28  2  0
 28 29  1  0
 29 30  2  0
 30 31  1  0
 31 32  2  0
 32 33  1  0
 23 34  2  0
  6 35  2  0
 35  2  1  0
 34  7  1  0
 21 10  1  0
 33 24  1  0
 19 14  1  0
 32 27  1  0
  1 36  1  0
  3 37  1  0
  4 38  1  0
  5 39  1  0
 11 40  1  0
 11 41  1  0
 12 42  1  0
 12 43  1  0
 13 44  1  0
 15 45  1  0
 15 46  1  0
 16 47  1  0
 16 48  1  0
 17 49  1  0
 17 50  1  0
 18 51  1  0
 18 52  1  0
 19 53  1  0
 19 54  1  0
 20 55  1  0
 20 56  1  0
 21 57  1  0
 21 58  1  0
 25 59  1  0
 25 60  1  0
 26 61  1  0
 26 62  1  0
 28 63  1  0
 29 64  1  0
 30 65  1  0
 31 66  1  0
 33 67  1  0
 33 68  1  0
 35 69  1  0
M  END
>  <smiles>  (16) 
Oc1cccc(-c2nc(N3CCC(N4CCCCC4)CC3)nc(N3CCc4ccccc4C3)n2)c1

>  <score_type>  (16) 
oracle

>  <origin>  (16) 
autodockgpu

>  <m_score__min__energy>  (16) 
-9.9499999999999993

>  <m_primary>  (16) 
energy

>  <rmsd>  (16) 
10.984423736449324

>  <m_score__min__rmsd>  (16) 
10.984423736449324

>  <meeko>  (16) 
{"free_energy": -8.6, "intermolecular_energy": -10.09, "internal_energy": -1.11, "cluster_size": 2, "cluster_id": 3, "rank_in_cluster": 1}

>  <energy>  (16) 
-9.93

>  <cluster_rmsd>  (16) 
0.04

>  <cluster>  (16) 
1

$$$$

     RDKit          3D

 69 74  0  0  0  0  0  0  0  0999 V2000
  146.3200   73.0440  218.1560 O   0  0  0  0  0  0  0  0  0  0  0  0
  145.4340   72.1660  218.7340 C   0  0  0  0  0  0  0  0  0  0  0  0
  145.5360   70.8050  218.5530 C   0  0  0  0  0  0  0  0  0  0  0  0
  144.6470   69.9160  219.1330 C   0  0  0  0  0  0  0  0  0  0  0  0
  143.6350   70.4110  219.9110 C   0  0  0  0  0  0  0  0  0  0  0  0
  143.5130   71.7640  220.1060 C   0  0  0  0  0  0  0  0  0  0  0  0
  142.4500   72.3190  220.9280 C   0  0  0  0  0  0  0  0  0  0  0  0
  142.1200   73.6110  220.8600 N   0  0  0  0  0  0  0  0  0  0  0  0
  141.1460   74.1770  221.5980 C   0  0  0  0  0  0  0  0  0  0  0  0
  140.8270   75.5800  221.4890 N   0  0  0  0  0  0  0  0  0  0  0  0
  139.7890   76.1290  222.3360 C   0  0  0  0  0  0  0  0  0  0  0  0
  140.0320   77.6200  222.5960 C   0  0  0  0  0  0  0  0  0  0  0  0
  140.1390   78.2450  221.2230 C   0  0  0  0  0  0  0  0  0  0  0  0
  139.9420   79.6430  221.1840 N   0  0  0  0  0  0  0  0  0  0  0  0
  140.7580   80.3820  220.3090 C   0  0  0  0  0  0  0  0  0  0  0  0
  140.7690   81.8510  220.4730 C   0  0  0  0  0  0  0  0  0  0  0  0
  140.6360   82.3010  221.9310 C   0  0  0  0  0  0  0  0  0  0  0  0
  139.2980   81.7040  222.3590 C   0  0  0  0  0  0  0  0  0  0  0  0
  139.4470   80.2360  222.3680 C   0  0  0  0  0  0  0  0  0  0  0  0
  141.5060   77.8220  220.6930 C   0  0  0  0  0  0  0  0  0  0  0  0
  141.5660   76.3430  220.5370 C   0  0  0  0  0  0  0  0  0  0  0  0
  140.4560   73.4000  222.4580 N   0  0  0  0  0  0  0  0  0  0  0  0
  140.7580   72.0970  222.5530 C   0  0  0  0  0  0  0  0  0  0  0  0
  140.0060   71.3120  223.4690 N   0  0  0  0  0  0  0  0  0  0  0  0
  139.1090   70.2920  222.9620 C   0  0  0  0  0  0  0  0  0  0  0  0
  138.2170   69.8510  224.1010 C   0  0  0  0  0  0  0  0  0  0  0  0
  139.0970   69.3440  225.1850 C   0  0  0  0  0  0  0  0  0  0  0  0
  138.9650   68.0980  225.7560 C   0  0  0  0  0  0  0  0  0  0  0  0
  139.8490   67.7340  226.7670 C   0  0  0  0  0  0  0  0  0  0  0  0
  140.8370   68.6100  227.1830 C   0  0  0  0  0  0  0  0  0  0  0  0
  140.9870   69.8690  226.6200 C   0  0  0  0  0  0  0  0  0  0  0  0
  140.0970   70.2010  225.6220 C   0  0  0  0  0  0  0  0  0  0  0  0
  140.1430   71.5320  224.9170 C   0  0  0  0  0  0  0  0  0  0  0  0
  141.7360   71.5590  221.8040 N   0  0  0  0  0  0  0  0  0  0  0  0
  144.4000   72.6230  219.5260 C   0  0  0  0  0  0  0  0  0  0  0  0
  146.1950   74.0410  218.2990 H   0  0  0  0  0  0  0  0  0  0  0  0
  146.3503   70.4110  217.9272 H   0  0  0  0  0  0  0  0  0  0  0  0
  144.7518   68.8329  218.9718 H   0  0  0  0  0  0  0  0  0  0  0  0
  142.9176   69.7223  220.3811 H   0  0  0  0  0  0  0  0  0  0  0  0
  138.8149   76.0032  221.8406 H   0  0  0  0  0  0  0  0  0  0  0  0
  139.8002   75.5964  223.2984 H   0  0  0  0  0  0  0  0  0  0  0  0
  139.1914   78.0569  223.1551 H   0  0  0  0  0  0  0  0  0  0  0  0
  140.9354   77.7921  223.1996 H   0  0  0  0  0  0  0  0  0  0  0  0
  139.3179   77.8865  220.5848 H   0  0  0  0  0  0  0  0  0  0  0  0
  141.7907   80.0268  220.4405 H   0  0  0  0  0  0  0  0  0  0  0  0
  140.3293   80.2118  219.3104 H   0  0  0  0  0  0  0  0  0  0  0  0
  141.7173   82.2394  220.0733 H   0  0  0  0  0  0  0  0  0  0  0  0
  139.8969   82.2450  219.9306 H   0  0  0  0  0  0  0  0  0  0  0  0
  141.4591   81.9038  222.5431 H   0  0  0  0  0  0  0  0  0  0  0  0
  140.6793   83.3936  222.0511 H   0  0  0  0  0  0  0  0  0  0  0  0
  139.0330   82.0603  223.3654 H   0  0  0  0  0  0  0  0  0  0  0  0
  138.5001   82.0071  221.6651 H   0  0  0  0  0  0  0  0  0  0  0  0
  140.1359   79.9754  223.1850 H   0  0  0  0  0  0  0  0  0  0  0  0
  138.4269   79.8415  222.4855 H   0  0  0  0  0  0  0  0  0  0  0  0
  141.6790   78.2970  219.7160 H   0  0  0  0  0  0  0  0  0  0  0  0
  142.2797   78.1374  221.4084 H   0  0  0  0  0  0  0  0  0  0  0  0
  141.1816   76.0949  219.5366 H   0  0  0  0  0  0  0  0  0  0  0  0
  142.6202   76.0722  220.6963 H   0  0  0  0  0  0  0  0  0  0  0  0
  138.4972   70.7041  222.1460 H   0  0  0  0  0  0  0  0  0  0  0  0
  139.6813   69.4382  222.5702 H   0  0  0  0  0  0  0  0  0  0  0  0
  137.6243   70.7029  224.4656 H   0  0  0  0  0  0  0  0  0  0  0  0
  137.5211   69.0671  223.7676 H   0  0  0  0  0  0  0  0  0  0  0  0
  138.1785   67.4060  225.4205 H   0  0  0  0  0  0  0  0  0  0  0  0
  139.7623   66.7440  227.2386 H   0  0  0  0  0  0  0  0  0  0  0  0
  141.5236   68.2984  227.9839 H   0  0  0  0  0  0  0  0  0  0  0  0
  141.7728   70.5636  226.9519 H   0  0  0  0  0  0  0  0  0  0  0  0
  139.3183   72.1667  225.2733 H   0  0  0  0  0  0  0  0  0  0  0  0
  141.1001   72.0315  225.1281 H   0  0  0  0  0  0  0  0  0  0  0  0
  144.2887   73.7045  219.6933 H   0  0  0  0  0  0  0  0  0  0  0  0
  1  2  1  0
  2  3  2  0
  3  4  1  0
  4  5  2  0
  5  6  1  0
  6  7  1  0
  7  8  2  0
  8  9  1  0
  9 10  1  0
 10 11  1  0
 11 12  1  0
 12 13  1  0
 13 14  1  0
 14 15  1  0
 15 16  1  0
 16 17  1  0
 17 18  1  0
 18 19  1  0
 13 20  1  0
 20 21  1  0
  9 22  2  0
 22 23  1  0
 23 24  1  0
 24 25  1  0
 25 26  1  0
 26 27  1  0
 27 28  2  0
 28 29  1  0
 29 30  2  0
 30 31  1  0
 31 32  2  0
 32 33  1  0
 23 34  2  0
  6 35  2  0
 35  2  1  0
 34  7  1  0
 21 10  1  0
 33 24  1  0
 19 14  1  0
 32 27  1  0
  1 36  1  0
  3 37  1  0
  4 38  1  0
  5 39  1  0
 11 40  1  0
 11 41  1  0
 12 42  1  0
 12 43  1  0
 13 44  1  0
 15 45  1  0
 15 46  1  0
 16 47  1  0
 16 48  1  0
 17 49  1  0
 17 50  1  0
 18 51  1  0
 18 52  1  0
 19 53  1  0
 19 54  1  0
 20 55  1  0
 20 56  1  0
 21 57  1  0
 21 58  1  0
 25 59  1  0
 25 60  1  0
 26 61  1  0
 26 62  1  0
 28 63  1  0
 29 64  1  0
 30 65  1  0
 31 66  1  0
 33 67  1  0
 33 68  1  0
 35 69  1  0
M  END
>  <smiles>  (17) 
Oc1cccc(-c2nc(N3CCC(N4CCCCC4)CC3)nc(N3CCc4ccccc4C3)n2)c1

>  <score_type>  (17) 
oracle

>  <origin>  (17) 
autodockgpu

>  <m_score__min__energy>  (17) 
-9.9499999999999993

>  <m_primary>  (17) 
energy

>  <rmsd>  (17) 
5.520034798088171

>  <m_score__min__rmsd>  (17) 
5.520034798088171

>  <meeko>  (17) 
{"free_energy": -9.94, "intermolecular_energy": -11.43, "internal_energy": -1.12, "cluster_size": 46, "cluster_id": 1, "rank_in_cluster": 8}

>  <energy>  (17) 
-9.92

>  <cluster_rmsd>  (17) 
0.34

>  <cluster>  (17) 
1

$$$$

     RDKit          3D

 69 74  0  0  0  0  0  0  0  0999 V2000
  146.3230   73.0850  218.6130 O   0  0  0  0  0  0  0  0  0  0  0  0
  145.2800   72.2450  218.9250 C   0  0  0  0  0  0  0  0  0  0  0  0
  145.2080   70.9620  218.4310 C   0  0  0  0  0  0  0  0  0  0  0  0
  144.1610   70.1110  218.7420 C   0  0  0  0  0  0  0  0  0  0  0  0
  143.1680   70.5630  219.5690 C   0  0  0  0  0  0  0  0  0  0  0  0
  143.2190   71.8390  220.0740 C   0  0  0  0  0  0  0  0  0  0  0  0
  142.1800   72.3480  220.9550 C   0  0  0  0  0  0  0  0  0  0  0  0
  141.7930   73.6250  220.9100 N   0  0  0  0  0  0  0  0  0  0  0  0
  140.8380   74.1480  221.7020 C   0  0  0  0  0  0  0  0  0  0  0  0
  140.4540   75.5370  221.6150 N   0  0  0  0  0  0  0  0  0  0  0  0
  139.1550   75.9360  222.1140 C   0  0  0  0  0  0  0  0  0  0  0  0
  139.1740   77.4000  222.5680 C   0  0  0  0  0  0  0  0  0  0  0  0
  139.6680   78.1760  221.3680 C   0  0  0  0  0  0  0  0  0  0  0  0
  139.3770   79.5580  221.3870 N   0  0  0  0  0  0  0  0  0  0  0  0
  139.8820   80.3350  220.3290 C   0  0  0  0  0  0  0  0  0  0  0  0
  139.8410   81.8040  220.4890 C   0  0  0  0  0  0  0  0  0  0  0  0
  140.0690   82.2650  221.9320 C   0  0  0  0  0  0  0  0  0  0  0  0
  138.9350   81.5910  222.6970 C   0  0  0  0  0  0  0  0  0  0  0  0
  139.1760   80.1350  222.6620 C   0  0  0  0  0  0  0  0  0  0  0  0
  141.1630   77.8850  221.2870 C   0  0  0  0  0  0  0  0  0  0  0  0
  141.3950   76.4370  221.0320 C   0  0  0  0  0  0  0  0  0  0  0  0
  140.2300   73.3430  222.5960 N   0  0  0  0  0  0  0  0  0  0  0  0
  140.5920   72.0530  222.6700 C   0  0  0  0  0  0  0  0  0  0  0  0
  139.9260   71.2360  223.6240 N   0  0  0  0  0  0  0  0  0  0  0  0
  139.1190   70.1230  223.1660 C   0  0  0  0  0  0  0  0  0  0  0  0
  138.2840   69.6430  224.3330 C   0  0  0  0  0  0  0  0  0  0  0  0
  139.2210   69.2560  225.4200 C   0  0  0  0  0  0  0  0  0  0  0  0
  139.2080   68.0230  226.0350 C   0  0  0  0  0  0  0  0  0  0  0  0
  140.1350   67.7770  227.0430 C   0  0  0  0  0  0  0  0  0  0  0  0
  141.0450   68.7510  227.4140 C   0  0  0  0  0  0  0  0  0  0  0  0
  141.0730   69.9990  226.8060 C   0  0  0  0  0  0  0  0  0  0  0  0
  140.1440   70.2130  225.8120 C   0  0  0  0  0  0  0  0  0  0  0  0
  140.0610   71.5180  225.0620 C   0  0  0  0  0  0  0  0  0  0  0  0
  141.5490   71.5580  221.8670 N   0  0  0  0  0  0  0  0  0  0  0  0
  144.2590   72.6620  219.7550 C   0  0  0  0  0  0  0  0  0  0  0  0
  146.1610   74.0870  218.5900 H   0  0  0  0  0  0  0  0  0  0  0  0
  146.0081   70.6013  217.7678 H   0  0  0  0  0  0  0  0  0  0  0  0
  144.1277   69.0907  218.3322 H   0  0  0  0  0  0  0  0  0  0  0  0
  142.3276   69.9028  219.8295 H   0  0  0  0  0  0  0  0  0  0  0  0
  138.4088   75.8157  221.3148 H   0  0  0  0  0  0  0  0  0  0  0  0
  138.8978   75.3024  222.9756 H   0  0  0  0  0  0  0  0  0  0  0  0
  138.1638   77.7297  222.8523 H   0  0  0  0  0  0  0  0  0  0  0  0
  139.8145   77.5507  223.4495 H   0  0  0  0  0  0  0  0  0  0  0  0
  139.1323   77.8474  220.4652 H   0  0  0  0  0  0  0  0  0  0  0  0
  140.9334   80.0477  220.1802 H   0  0  0  0  0  0  0  0  0  0  0  0
  139.2156   80.1240  219.4796 H   0  0  0  0  0  0  0  0  0  0  0  0
  140.6230   82.2459  219.8540 H   0  0  0  0  0  0  0  0  0  0  0  0
  138.8331   82.1346  220.1977 H   0  0  0  0  0  0  0  0  0  0  0  0
  141.0488   81.9297  222.3030 H   0  0  0  0  0  0  0  0  0  0  0  0
  140.0708   83.3597  222.0397 H   0  0  0  0  0  0  0  0  0  0  0  0
  138.9234   81.9443  223.7387 H   0  0  0  0  0  0  0  0  0  0  0  0
  137.9639   81.8328  222.2403 H   0  0  0  0  0  0  0  0  0  0  0  0
  140.0721   79.9302  223.2662 H   0  0  0  0  0  0  0  0  0  0  0  0
  138.2515   79.6783  223.0451 H   0  0  0  0  0  0  0  0  0  0  0  0
  141.6031   78.4727  220.4679 H   0  0  0  0  0  0  0  0  0  0  0  0
  141.6330   78.1595  222.2429 H   0  0  0  0  0  0  0  0  0  0  0  0
  141.3788   76.2810  219.9432 H   0  0  0  0  0  0  0  0  0  0  0  0
  142.3591   76.2046  221.5079 H   0  0  0  0  0  0  0  0  0  0  0  0
  138.4626   70.4497  222.3460 H   0  0  0  0  0  0  0  0  0  0  0  0
  139.7615   69.3110  222.7948 H   0  0  0  0  0  0  0  0  0  0  0  0
  137.6207   70.4499  224.6778 H   0  0  0  0  0  0  0  0  0  0  0  0
  137.6578   68.7884  224.0372 H   0  0  0  0  0  0  0  0  0  0  0  0
  138.4825   67.2520  225.7363 H   0  0  0  0  0  0  0  0  0  0  0  0
  140.1445   66.8003  227.5490 H   0  0  0  0  0  0  0  0  0  0  0  0
  141.7672   68.5303  228.2138 H   0  0  0  0  0  0  0  0  0  0  0  0
  141.7964   70.7732  227.1016 H   0  0  0  0  0  0  0  0  0  0  0  0
  139.1870   72.0883  225.4097 H   0  0  0  0  0  0  0  0  0  0  0  0
  140.9717   72.1084  225.2412 H   0  0  0  0  0  0  0  0  0  0  0  0
  144.2846   73.6810  220.1685 H   0  0  0  0  0  0  0  0  0  0  0  0
  1  2  1  0
  2  3  2  0
  3  4  1  0
  4  5  2  0
  5  6  1  0
  6  7  1  0
  7  8  2  0
  8  9  1  0
  9 10  1  0
 10 11  1  0
 11 12  1  0
 12 13  1  0
 13 14  1  0
 14 15  1  0
 15 16  1  0
 16 17  1  0
 17 18  1  0
 18 19  1  0
 13 20  1  0
 20 21  1  0
  9 22  2  0
 22 23  1  0
 23 24  1  0
 24 25  1  0
 25 26  1  0
 26 27  1  0
 27 28  2  0
 28 29  1  0
 29 30  2  0
 30 31  1  0
 31 32  2  0
 32 33  1  0
 23 34  2  0
  6 35  2  0
 35  2  1  0
 34  7  1  0
 21 10  1  0
 33 24  1  0
 19 14  1  0
 32 27  1  0
  1 36  1  0
  3 37  1  0
  4 38  1  0
  5 39  1  0
 11 40  1  0
 11 41  1  0
 12 42  1  0
 12 43  1  0
 13 44  1  0
 15 45  1  0
 15 46  1  0
 16 47  1  0
 16 48  1  0
 17 49  1  0
 17 50  1  0
 18 51  1  0
 18 52  1  0
 19 53  1  0
 19 54  1  0
 20 55  1  0
 20 56  1  0
 21 57  1  0
 21 58  1  0
 25 59  1  0
 25 60  1  0
 26 61  1  0
 26 62  1  0
 28 63  1  0
 29 64  1  0
 30 65  1  0
 31 66  1  0
 33 67  1  0
 33 68  1  0
 35 69  1  0
M  END
>  <smiles>  (18) 
Oc1cccc(-c2nc(N3CCC(N4CCCCC4)CC3)nc(N3CCc4ccccc4C3)n2)c1

>  <score_type>  (18) 
oracle

>  <origin>  (18) 
autodockgpu

>  <m_score__min__energy>  (18) 
-9.9499999999999993

>  <m_primary>  (18) 
energy

>  <rmsd>  (18) 
5.589659117906272

>  <m_score__min__rmsd>  (18) 
5.589659117906272

>  <meeko>  (18) 
{"free_energy": -9.83, "intermolecular_energy": -11.32, "internal_energy": -1.12, "cluster_size": 46, "cluster_id": 1, "rank_in_cluster": 24}

>  <energy>  (18) 
-9.92

>  <cluster_rmsd>  (18) 
0.17

>  <cluster>  (18) 
1

$$$$

     RDKit          3D

 69 74  0  0  0  0  0  0  0  0999 V2000
  146.3260   73.0960  218.6360 O   0  0  0  0  0  0  0  0  0  0  0  0
  145.2770   72.2600  218.9350 C   0  0  0  0  0  0  0  0  0  0  0  0
  145.1840   70.9920  218.4060 C   0  0  0  0  0  0  0  0  0  0  0  0
  144.1300   70.1450  218.7040 C   0  0  0  0  0  0  0  0  0  0  0  0
  143.1510   70.5860  219.5530 C   0  0  0  0  0  0  0  0  0  0  0  0
  143.2230   71.8460  220.0930 C   0  0  0  0  0  0  0  0  0  0  0  0
  142.1990   72.3420  220.9990 C   0  0  0  0  0  0  0  0  0  0  0  0
  141.8240   73.6230  220.9910 N   0  0  0  0  0  0  0  0  0  0  0  0
  140.8830   74.1350  221.8070 C   0  0  0  0  0  0  0  0  0  0  0  0
  140.5110   75.5280  221.7590 N   0  0  0  0  0  0  0  0  0  0  0  0
  141.4120   76.4720  221.1320 C   0  0  0  0  0  0  0  0  0  0  0  0
  140.6390   77.6720  220.5730 C   0  0  0  0  0  0  0  0  0  0  0  0
  139.8560   78.2150  221.7470 C   0  0  0  0  0  0  0  0  0  0  0  0
  139.4040   79.5450  221.6020 N   0  0  0  0  0  0  0  0  0  0  0  0
  140.3400   80.5700  221.8360 C   0  0  0  0  0  0  0  0  0  0  0  0
  139.8140   81.9450  221.9780 C   0  0  0  0  0  0  0  0  0  0  0  0
  138.4490   82.0050  222.6700 C   0  0  0  0  0  0  0  0  0  0  0  0
  137.5600   81.1630  221.7610 C   0  0  0  0  0  0  0  0  0  0  0  0
  138.0300   79.7660  221.8470 C   0  0  0  0  0  0  0  0  0  0  0  0
  138.7180   77.2220  221.9660 C   0  0  0  0  0  0  0  0  0  0  0  0
  139.2610   75.8890  222.3460 C   0  0  0  0  0  0  0  0  0  0  0  0
  140.2770   73.3120  222.6880 N   0  0  0  0  0  0  0  0  0  0  0  0
  140.6280   72.0180  222.7250 C   0  0  0  0  0  0  0  0  0  0  0  0
  139.9650   71.1830  223.6660 N   0  0  0  0  0  0  0  0  0  0  0  0
  139.2160   70.0370  223.1940 C   0  0  0  0  0  0  0  0  0  0  0  0
  138.3660   69.5340  224.3400 C   0  0  0  0  0  0  0  0  0  0  0  0
  139.2830   69.1920  225.4580 C   0  0  0  0  0  0  0  0  0  0  0  0
  139.2990   67.9650  226.0830 C   0  0  0  0  0  0  0  0  0  0  0  0
  140.2040   67.7610  227.1200 C   0  0  0  0  0  0  0  0  0  0  0  0
  141.0650   68.7730  227.5090 C   0  0  0  0  0  0  0  0  0  0  0  0
  141.0630   70.0160  226.8910 C   0  0  0  0  0  0  0  0  0  0  0  0
  140.1570   70.1870  225.8680 C   0  0  0  0  0  0  0  0  0  0  0  0
  140.0460   71.4820  225.1050 C   0  0  0  0  0  0  0  0  0  0  0  0
  141.5710   71.5350  221.8990 N   0  0  0  0  0  0  0  0  0  0  0  0
  144.2690   72.6650  219.7870 C   0  0  0  0  0  0  0  0  0  0  0  0
  146.1710   74.0990  218.6180 H   0  0  0  0  0  0  0  0  0  0  0  0
  145.9727   70.6406  217.7245 H   0  0  0  0  0  0  0  0  0  0  0  0
  144.0803   69.1368  218.2668 H   0  0  0  0  0  0  0  0  0  0  0  0
  142.3047   69.9293  219.8031 H   0  0  0  0  0  0  0  0  0  0  0  0
  142.1390   76.8267  221.8775 H   0  0  0  0  0  0  0  0  0  0  0  0
  141.9298   75.9682  220.3025 H   0  0  0  0  0  0  0  0  0  0  0  0
  141.3331   78.4327  220.1862 H   0  0  0  0  0  0  0  0  0  0  0  0
  139.9844   77.3879  219.7359 H   0  0  0  0  0  0  0  0  0  0  0  0
  140.5113   78.2963  222.6268 H   0  0  0  0  0  0  0  0  0  0  0  0
  140.8762   80.3231  222.7642 H   0  0  0  0  0  0  0  0  0  0  0  0
  140.9640   80.5968  220.9305 H   0  0  0  0  0  0  0  0  0  0  0  0
  140.5310   82.5334  222.5694 H   0  0  0  0  0  0  0  0  0  0  0  0
  139.6820   82.3489  220.9634 H   0  0  0  0  0  0  0  0  0  0  0  0
  138.5000   81.5742  223.6809 H   0  0  0  0  0  0  0  0  0  0  0  0
  138.0785   83.0319  222.8047 H   0  0  0  0  0  0  0  0  0  0  0  0
  136.5138   81.2280  222.0946 H   0  0  0  0  0  0  0  0  0  0  0  0
  137.6139   81.5257  220.7239 H   0  0  0  0  0  0  0  0  0  0  0  0
  137.8088   79.4012  222.8609 H   0  0  0  0  0  0  0  0  0  0  0  0
  137.5023   79.2322  221.0429 H   0  0  0  0  0  0  0  0  0  0  0  0
  138.0648   77.5905  222.7707 H   0  0  0  0  0  0  0  0  0  0  0  0
  138.1458   77.1221  221.0319 H   0  0  0  0  0  0  0  0  0  0  0  0
  139.3872   75.8769  223.4387 H   0  0  0  0  0  0  0  0  0  0  0  0
  138.5343   75.1556  221.9664 H   0  0  0  0  0  0  0  0  0  0  0  0
  138.5721   70.3320  222.3523 H   0  0  0  0  0  0  0  0  0  0  0  0
  139.8999   69.2477  222.8485 H   0  0  0  0  0  0  0  0  0  0  0  0
  137.6619   70.3172  224.6576 H   0  0  0  0  0  0  0  0  0  0  0  0
  137.7830   68.6531  224.0331 H   0  0  0  0  0  0  0  0  0  0  0  0
  138.6123   67.1648  225.7697 H   0  0  0  0  0  0  0  0  0  0  0  0
  140.2356   66.7891  227.6342 H   0  0  0  0  0  0  0  0  0  0  0  0
  141.7711   68.5867  228.3316 H   0  0  0  0  0  0  0  0  0  0  0  0
  141.7470   70.8197  227.2012 H   0  0  0  0  0  0  0  0  0  0  0  0
  139.1406   72.0205  225.4216 H   0  0  0  0  0  0  0  0  0  0  0  0
  140.9270   72.1093  225.3060 H   0  0  0  0  0  0  0  0  0  0  0  0
  144.3108   73.6714  220.2290 H   0  0  0  0  0  0  0  0  0  0  0  0
  1  2  1  0
  2  3  2  0
  3  4  1  0
  4  5  2  0
  5  6  1  0
  6  7  1  0
  7  8  2  0
  8  9  1  0
  9 10  1  0
 10 11  1  0
 11 12  1  0
 12 13  1  0
 13 14  1  0
 14 15  1  0
 15 16  1  0
 16 17  1  0
 17 18  1  0
 18 19  1  0
 13 20  1  0
 20 21  1  0
  9 22  2  0
 22 23  1  0
 23 24  1  0
 24 25  1  0
 25 26  1  0
 26 27  1  0
 27 28  2  0
 28 29  1  0
 29 30  2  0
 30 31  1  0
 31 32  2  0
 32 33  1  0
 23 34  2  0
  6 35  2  0
 35  2  1  0
 34  7  1  0
 21 10  1  0
 33 24  1  0
 19 14  1  0
 32 27  1  0
  1 36  1  0
  3 37  1  0
  4 38  1  0
  5 39  1  0
 11 40  1  0
 11 41  1  0
 12 42  1  0
 12 43  1  0
 13 44  1  0
 15 45  1  0
 15 46  1  0
 16 47  1  0
 16 48  1  0
 17 49  1  0
 17 50  1  0
 18 51  1  0
 18 52  1  0
 19 53  1  0
 19 54  1  0
 20 55  1  0
 20 56  1  0
 21 57  1  0
 21 58  1  0
 25 59  1  0
 25 60  1  0
 26 61  1  0
 26 62  1  0
 28 63  1  0
 29 64  1  0
 30 65  1  0
 31 66  1  0
 33 67  1  0
 33 68  1  0
 35 69  1  0
M  END
>  <smiles>  (19) 
Oc1cccc(-c2nc(N3CCC(N4CCCCC4)CC3)nc(N3CCc4ccccc4C3)n2)c1

>  <score_type>  (19) 
oracle

>  <origin>  (19) 
autodockgpu

>  <m_score__min__energy>  (19) 
-9.9499999999999993

>  <m_primary>  (19) 
energy

>  <rmsd>  (19) 
5.613804248708383

>  <m_score__min__rmsd>  (19) 
5.613804248708383

>  <meeko>  (19) 
{"free_energy": -9.55, "intermolecular_energy": -11.04, "internal_energy": -1.1, "cluster_size": 46, "cluster_id": 1, "rank_in_cluster": 37}

>  <energy>  (19) 
-9.9

>  <cluster_rmsd>  (19) 
0.38

>  <cluster>  (19) 
1

$$$$

     RDKit          3D

 69 74  0  0  0  0  0  0  0  0999 V2000
  146.3160   73.0350  218.2920 O   0  0  0  0  0  0  0  0  0  0  0  0
  145.3700   72.1660  218.7790 C   0  0  0  0  0  0  0  0  0  0  0  0
  145.4000   70.8200  218.4860 C   0  0  0  0  0  0  0  0  0  0  0  0
  144.4500   69.9390  218.9750 C   0  0  0  0  0  0  0  0  0  0  0  0
  143.4510   70.4250  219.7760 C   0  0  0  0  0  0  0  0  0  0  0  0
  143.4020   71.7630  220.0810 C   0  0  0  0  0  0  0  0  0  0  0  0
  142.3540   72.3080  220.9300 C   0  0  0  0  0  0  0  0  0  0  0  0
  142.0070   73.5960  220.8660 N   0  0  0  0  0  0  0  0  0  0  0  0
  141.0460   74.1530  221.6270 C   0  0  0  0  0  0  0  0  0  0  0  0
  140.7060   75.5510  221.5210 N   0  0  0  0  0  0  0  0  0  0  0  0
  139.6040   76.0650  222.3070 C   0  0  0  0  0  0  0  0  0  0  0  0
  139.8000   77.5560  222.6070 C   0  0  0  0  0  0  0  0  0  0  0  0
  139.9830   78.2070  221.2560 C   0  0  0  0  0  0  0  0  0  0  0  0
  139.7610   79.6020  221.2270 N   0  0  0  0  0  0  0  0  0  0  0  0
  140.5100   80.3520  220.3020 C   0  0  0  0  0  0  0  0  0  0  0  0
  140.5060   81.8220  220.4640 C   0  0  0  0  0  0  0  0  0  0  0  0
  140.4560   82.2720  221.9270 C   0  0  0  0  0  0  0  0  0  0  0  0
  139.1580   81.6550  222.4360 C   0  0  0  0  0  0  0  0  0  0  0  0
  139.3310   80.1890  222.4380 C   0  0  0  0  0  0  0  0  0  0  0  0
  141.3910   77.8200  220.8090 C   0  0  0  0  0  0  0  0  0  0  0  0
  141.4900   76.3460  220.6320 C   0  0  0  0  0  0  0  0  0  0  0  0
  140.3890   73.3720  222.5090 N   0  0  0  0  0  0  0  0  0  0  0  0
  140.7100   72.0720  222.6010 C   0  0  0  0  0  0  0  0  0  0  0  0
  139.9940   71.2820  223.5410 N   0  0  0  0  0  0  0  0  0  0  0  0
  139.0850   70.2600  223.0630 C   0  0  0  0  0  0  0  0  0  0  0  0
  138.2340   69.8120  224.2310 C   0  0  0  0  0  0  0  0  0  0  0  0
  139.1530   69.3080  225.2830 C   0  0  0  0  0  0  0  0  0  0  0  0
  139.0450   68.0600  225.8560 C   0  0  0  0  0  0  0  0  0  0  0  0
  139.9650   67.6990  226.8360 C   0  0  0  0  0  0  0  0  0  0  0  0
  140.9640   68.5780  227.2190 C   0  0  0  0  0  0  0  0  0  0  0  0
  141.0880   69.8390  226.6540 C   0  0  0  0  0  0  0  0  0  0  0  0
  140.1630   70.1680  225.6870 C   0  0  0  0  0  0  0  0  0  0  0  0
  140.1790   71.5010  224.9840 C   0  0  0  0  0  0  0  0  0  0  0  0
  141.6750   71.5440  221.8290 N   0  0  0  0  0  0  0  0  0  0  0  0
  144.3470   72.6140  219.5900 C   0  0  0  0  0  0  0  0  0  0  0  0
  146.1460   74.0350  218.3470 H   0  0  0  0  0  0  0  0  0  0  0  0
  146.2042   70.4328  217.8431 H   0  0  0  0  0  0  0  0  0  0  0  0
  144.4969   68.8689  218.7248 H   0  0  0  0  0  0  0  0  0  0  0  0
  142.6866   69.7424  220.1757 H   0  0  0  0  0  0  0  0  0  0  0  0
  138.6671   75.9297  221.7468 H   0  0  0  0  0  0  0  0  0  0  0  0
  139.5627   75.5156  223.2591 H   0  0  0  0  0  0  0  0  0  0  0  0
  138.9165   77.9669  223.1174 H   0  0  0  0  0  0  0  0  0  0  0  0
  140.6589   77.7341  223.2707 H   0  0  0  0  0  0  0  0  0  0  0  0
  139.2121   77.8441  220.5603 H   0  0  0  0  0  0  0  0  0  0  0  0
  141.5546   80.0142  220.3704 H   0  0  0  0  0  0  0  0  0  0  0  0
  140.0248   80.1720  219.3314 H   0  0  0  0  0  0  0  0  0  0  0  0
  141.4209   82.2259  220.0060 H   0  0  0  0  0  0  0  0  0  0  0  0
  139.5954   82.2002  219.9764 H   0  0  0  0  0  0  0  0  0  0  0  0
  141.3215   81.8889  222.4875 H   0  0  0  0  0  0  0  0  0  0  0  0
  140.4893   83.3653  222.0439 H   0  0  0  0  0  0  0  0  0  0  0  0
  138.9491   82.0094  223.4562 H   0  0  0  0  0  0  0  0  0  0  0  0
  138.3145   81.9434  221.7915 H   0  0  0  0  0  0  0  0  0  0  0  0
  140.0733   79.9414  223.2111 H   0  0  0  0  0  0  0  0  0  0  0  0
  138.3268   79.7783  222.6194 H   0  0  0  0  0  0  0  0  0  0  0  0
  141.6177   78.3162  219.8538 H   0  0  0  0  0  0  0  0  0  0  0  0
  142.1104   78.1370  221.5784 H   0  0  0  0  0  0  0  0  0  0  0  0
  141.1761   76.1094  219.6046 H   0  0  0  0  0  0  0  0  0  0  0  0
  142.5368   76.0921  220.8552 H   0  0  0  0  0  0  0  0  0  0  0  0
  138.4439   70.6714  222.2695 H   0  0  0  0  0  0  0  0  0  0  0  0
  139.6473   69.4096  222.6499 H   0  0  0  0  0  0  0  0  0  0  0  0
  137.6494   70.6600  224.6173 H   0  0  0  0  0  0  0  0  0  0  0  0
  137.5311   69.0251  223.9200 H   0  0  0  0  0  0  0  0  0  0  0  0
  138.2504   67.3652  225.5464 H   0  0  0  0  0  0  0  0  0  0  0  0
  139.8980   66.7084  227.3096 H   0  0  0  0  0  0  0  0  0  0  0  0
  141.6803   68.2674  227.9939 H   0  0  0  0  0  0  0  0  0  0  0  0
  141.8806   70.5373  226.9609 H   0  0  0  0  0  0  0  0  0  0  0  0
  139.3638   72.1312  225.3692 H   0  0  0  0  0  0  0  0  0  0  0  0
  141.1399   72.0052  225.1638 H   0  0  0  0  0  0  0  0  0  0  0  0
  144.2930   73.6824  219.8461 H   0  0  0  0  0  0  0  0  0  0  0  0
  1  2  1  0
  2  3  2  0
  3  4  1  0
  4  5  2  0
  5  6  1  0
  6  7  1  0
  7  8  2  0
  8  9  1  0
  9 10  1  0
 10 11  1  0
 11 12  1  0
 12 13  1  0
 13 14  1  0
 14 15  1  0
 15 16  1  0
 16 17  1  0
 17 18  1  0
 18 19  1  0
 13 20  1  0
 20 21  1  0
  9 22  2  0
 22 23  1  0
 23 24  1  0
 24 25  1  0
 25 26  1  0
 26 27  1  0
 27 28  2  0
 28 29  1  0
 29 30  2  0
 30 31  1  0
 31 32  2  0
 32 33  1  0
 23 34  2  0
  6 35  2  0
 35  2  1  0
 34  7  1  0
 21 10  1  0
 33 24  1  0
 19 14  1  0
 32 27  1  0
  1 36  1  0
  3 37  1  0
  4 38  1  0
  5 39  1  0
 11 40  1  0
 11 41  1  0
 12 42  1  0
 12 43  1  0
 13 44  1  0
 15 45  1  0
 15 46  1  0
 16 47  1  0
 16 48  1  0
 17 49  1  0
 17 50  1  0
 18 51  1  0
 18 52  1  0
 19 53  1  0
 19 54  1  0
 20 55  1  0
 20 56  1  0
 21 57  1  0
 21 58  1  0
 25 59  1  0
 25 60  1  0
 26 61  1  0
 26 62  1  0
 28 63  1  0
 29 64  1  0
 30 65  1  0
 31 66  1  0
 33 67  1  0
 33 68  1  0
 35 69  1  0
M  END
>  <smiles>  (20) 
Oc1cccc(-c2nc(N3CCC(N4CCCCC4)CC3)nc(N3CCc4ccccc4C3)n2)c1

>  <score_type>  (20) 
oracle

>  <origin>  (20) 
autodockgpu

>  <m_score__min__energy>  (20) 
-9.9499999999999993

>  <m_primary>  (20) 
energy

>  <rmsd>  (20) 
5.530783744021864

>  <m_score__min__rmsd>  (20) 
5.530783744021864

>  <meeko>  (20) 
{"free_energy": -9.93, "intermolecular_energy": -11.42, "internal_energy": -1.12, "cluster_size": 46, "cluster_id": 1, "rank_in_cluster": 14}

>  <energy>  (20) 
-9.88

>  <cluster_rmsd>  (20) 
0.43

>  <cluster>  (20) 
1

$$$$

     RDKit          3D

 69 74  0  0  0  0  0  0  0  0999 V2000
  146.6190   73.3910  219.5340 O   0  0  0  0  0  0  0  0  0  0  0  0
  145.4820   72.6210  219.4910 C   0  0  0  0  0  0  0  0  0  0  0  0
  145.3820   71.5160  218.6740 C   0  0  0  0  0  0  0  0  0  0  0  0
  144.2390   70.7360  218.6270 C   0  0  0  0  0  0  0  0  0  0  0  0
  143.1760   71.0770  219.4190 C   0  0  0  0  0  0  0  0  0  0  0  0
  143.2520   72.1740  220.2410 C   0  0  0  0  0  0  0  0  0  0  0  0
  142.1400   72.5610  221.0950 C   0  0  0  0  0  0  0  0  0  0  0  0
  141.6490   73.8020  221.0780 N   0  0  0  0  0  0  0  0  0  0  0  0
  140.6220   74.2130  221.8460 C   0  0  0  0  0  0  0  0  0  0  0  0
  140.1260   75.5680  221.7910 N   0  0  0  0  0  0  0  0  0  0  0  0
  138.7100   75.8020  221.9830 C   0  0  0  0  0  0  0  0  0  0  0  0
  138.4640   77.2020  222.5570 C   0  0  0  0  0  0  0  0  0  0  0  0
  139.1470   78.1460  221.5940 C   0  0  0  0  0  0  0  0  0  0  0  0
  138.7150   79.4890  221.6630 N   0  0  0  0  0  0  0  0  0  0  0  0
  138.8440   80.2660  220.4980 C   0  0  0  0  0  0  0  0  0  0  0  0
  138.6780   81.7290  220.6390 C   0  0  0  0  0  0  0  0  0  0  0  0
  139.2120   82.2760  221.9660 C   0  0  0  0  0  0  0  0  0  0  0  0
  138.3920   81.5210  223.0080 C   0  0  0  0  0  0  0  0  0  0  0  0
  138.7800   80.0990  222.9370 C   0  0  0  0  0  0  0  0  0  0  0  0
  140.6400   77.9870  221.8630 C   0  0  0  0  0  0  0  0  0  0  0  0
  141.0790   76.6000  221.5450 C   0  0  0  0  0  0  0  0  0  0  0  0
  140.0500   73.3270  222.6860 N   0  0  0  0  0  0  0  0  0  0  0  0
  140.5170   72.0700  222.7300 C   0  0  0  0  0  0  0  0  0  0  0  0
  139.8850   71.1640  223.6260 N   0  0  0  0  0  0  0  0  0  0  0  0
  139.1460   70.0380  223.0940 C   0  0  0  0  0  0  0  0  0  0  0  0
  138.3260   69.4470  224.2200 C   0  0  0  0  0  0  0  0  0  0  0  0
  139.2690   69.0490  225.2960 C   0  0  0  0  0  0  0  0  0  0  0  0
  139.3170   67.7850  225.8400 C   0  0  0  0  0  0  0  0  0  0  0  0
  140.2440   67.5300  226.8460 C   0  0  0  0  0  0  0  0  0  0  0  0
  141.0960   68.5300  227.2840 C   0  0  0  0  0  0  0  0  0  0  0  0
  141.0620   69.8100  226.7490 C   0  0  0  0  0  0  0  0  0  0  0  0
  140.1350   70.0310  225.7550 C   0  0  0  0  0  0  0  0  0  0  0  0
  139.9880   71.3700  225.0790 C   0  0  0  0  0  0  0  0  0  0  0  0
  141.5430   71.6870  221.9520 N   0  0  0  0  0  0  0  0  0  0  0  0
  144.3870   72.9300  220.2730 C   0  0  0  0  0  0  0  0  0  0  0  0
  146.5580   74.3790  219.3060 H   0  0  0  0  0  0  0  0  0  0  0  0
  146.2379   71.2447  218.0385 H   0  0  0  0  0  0  0  0  0  0  0  0
  144.1862   69.8587  217.9655 H   0  0  0  0  0  0  0  0  0  0  0  0
  142.2585   70.4706  219.3968 H   0  0  0  0  0  0  0  0  0  0  0  0
  138.1950   75.7132  221.0151 H   0  0  0  0  0  0  0  0  0  0  0  0
  138.3218   75.0562  222.6923 H   0  0  0  0  0  0  0  0  0  0  0  0
  137.3860   77.4149  222.6079 H   0  0  0  0  0  0  0  0  0  0  0  0
  138.8539   77.3029  223.5806 H   0  0  0  0  0  0  0  0  0  0  0  0
  138.8819   77.8797  220.5602 H   0  0  0  0  0  0  0  0  0  0  0  0
  139.8490   80.0849  220.0892 H   0  0  0  0  0  0  0  0  0  0  0  0
  138.0130   79.9475  219.8515 H   0  0  0  0  0  0  0  0  0  0  0  0
  139.2168   82.2220  219.8164 H   0  0  0  0  0  0  0  0  0  0  0  0
  137.5983   81.9376  220.6125 H   0  0  0  0  0  0  0  0  0  0  0  0
  140.2852   82.0622  222.0777 H   0  0  0  0  0  0  0  0  0  0  0  0
  139.1185   83.3687  222.0517 H   0  0  0  0  0  0  0  0  0  0  0  0
  138.6041   81.9179  224.0117 H   0  0  0  0  0  0  0  0  0  0  0  0
  137.3160   81.6379  222.8114 H   0  0  0  0  0  0  0  0  0  0  0  0
  139.8174   80.0177  223.2937 H   0  0  0  0  0  0  0  0  0  0  0  0
  138.0412   79.5651  223.5528 H   0  0  0  0  0  0  0  0  0  0  0  0
  141.1991   78.6971  221.2359 H   0  0  0  0  0  0  0  0  0  0  0  0
  140.8347   78.1883  222.9268 H   0  0  0  0  0  0  0  0  0  0  0  0
  141.3417   76.5672  220.4773 H   0  0  0  0  0  0  0  0  0  0  0  0
  141.9197   76.3935  222.2236 H   0  0  0  0  0  0  0  0  0  0  0  0
  138.4816   70.3755  222.2849 H   0  0  0  0  0  0  0  0  0  0  0  0
  139.8360   69.2848  222.6858 H   0  0  0  0  0  0  0  0  0  0  0  0
  137.6158   70.1957  224.6007 H   0  0  0  0  0  0  0  0  0  0  0  0
  137.7514   68.5781  223.8668 H   0  0  0  0  0  0  0  0  0  0  0  0
  138.6380   66.9947  225.4873 H   0  0  0  0  0  0  0  0  0  0  0  0
  140.3004   66.5279  227.2961 H   0  0  0  0  0  0  0  0  0  0  0  0
  141.8211   68.3030  228.0794 H   0  0  0  0  0  0  0  0  0  0  0  0
  141.7380   70.6039  227.0994 H   0  0  0  0  0  0  0  0  0  0  0  0
  139.0798   71.8707  225.4458 H   0  0  0  0  0  0  0  0  0  0  0  0
  140.8625   71.9982  225.3043 H   0  0  0  0  0  0  0  0  0  0  0  0
  144.4308   73.8059  220.9370 H   0  0  0  0  0  0  0  0  0  0  0  0
  1  2  1  0
  2  3  2  0
  3  4  1  0
  4  5  2  0
  5  6  1  0
  6  7  1  0
  7  8  2  0
  8  9  1  0
  9 10  1  0
 10 11  1  0
 11 12  1  0
 12 13  1  0
 13 14  1  0
 14 15  1  0
 15 16  1  0
 16 17  1  0
 17 18  1  0
 18 19  1  0
 13 20  1  0
 20 21  1  0
  9 22  2  0
 22 23  1  0
 23 24  1  0
 24 25  1  0
 25 26  1  0
 26 27  1  0
 27 28  2  0
 28 29  1  0
 29 30  2  0
 30 31  1  0
 31 32  2  0
 32 33  1  0
 23 34  2  0
  6 35  2  0
 35  2  1  0
 34  7  1  0
 21 10  1  0
 33 24  1  0
 19 14  1  0
 32 27  1  0
  1 36  1  0
  3 37  1  0
  4 38  1  0
  5 39  1  0
 11 40  1  0
 11 41  1  0
 12 42  1  0
 12 43  1  0
 13 44  1  0
 15 45  1  0
 15 46  1  0
 16 47  1  0
 16 48  1  0
 17 49  1  0
 17 50  1  0
 18 51  1  0
 18 52  1  0
 19 53  1  0
 19 54  1  0
 20 55  1  0
 20 56  1  0
 21 57  1  0
 21 58  1  0
 25 59  1  0
 25 60  1  0
 26 61  1  0
 26 62  1  0
 28 63  1  0
 29 64  1  0
 30 65  1  0
 31 66  1  0
 33 67  1  0
 33 68  1  0
 35 69  1  0
M  END
>  <smiles>  (21) 
Oc1cccc(-c2nc(N3CCC(N4CCCCC4)CC3)nc(N3CCc4ccccc4C3)n2)c1

>  <score_type>  (21) 
oracle

>  <origin>  (21) 
autodockgpu

>  <m_score__min__energy>  (21) 
-9.9499999999999993

>  <m_primary>  (21) 
energy

>  <rmsd>  (21) 
5.767944830803241

>  <m_score__min__rmsd>  (21) 
5.767944830803241

>  <meeko>  (21) 
{"free_energy": -9.58, "intermolecular_energy": -11.07, "internal_energy": -1.12, "cluster_size": 46, "cluster_id": 1, "rank_in_cluster": 35}

>  <energy>  (21) 
-9.87

>  <cluster_rmsd>  (21) 
0.41

>  <cluster>  (21) 
1

$$$$

     RDKit          3D

 69 74  0  0  0  0  0  0  0  0999 V2000
  146.3210   73.0350  218.2730 O   0  0  0  0  0  0  0  0  0  0  0  0
  145.3720   72.1670  218.7580 C   0  0  0  0  0  0  0  0  0  0  0  0
  145.3990   70.8220  218.4630 C   0  0  0  0  0  0  0  0  0  0  0  0
  144.4470   69.9420  218.9490 C   0  0  0  0  0  0  0  0  0  0  0  0
  143.4470   70.4290  219.7480 C   0  0  0  0  0  0  0  0  0  0  0  0
  143.4000   71.7660  220.0550 C   0  0  0  0  0  0  0  0  0  0  0  0
  142.3520   72.3130  220.9030 C   0  0  0  0  0  0  0  0  0  0  0  0
  142.0080   73.6020  220.8400 N   0  0  0  0  0  0  0  0  0  0  0  0
  141.0470   74.1590  221.6000 C   0  0  0  0  0  0  0  0  0  0  0  0
  140.7100   75.5590  221.4950 N   0  0  0  0  0  0  0  0  0  0  0  0
  139.6030   76.0720  222.2740 C   0  0  0  0  0  0  0  0  0  0  0  0
  139.7980   77.5620  222.5800 C   0  0  0  0  0  0  0  0  0  0  0  0
  139.9930   78.2160  221.2310 C   0  0  0  0  0  0  0  0  0  0  0  0
  139.7730   79.6110  221.2030 N   0  0  0  0  0  0  0  0  0  0  0  0
  140.5450   80.3650  220.3020 C   0  0  0  0  0  0  0  0  0  0  0  0
  140.5390   81.8340  220.4710 C   0  0  0  0  0  0  0  0  0  0  0  0
  140.4520   82.2770  221.9350 C   0  0  0  0  0  0  0  0  0  0  0  0
  139.1400   81.6580  222.4080 C   0  0  0  0  0  0  0  0  0  0  0  0
  139.3120   80.1920  222.4070 C   0  0  0  0  0  0  0  0  0  0  0  0
  141.4030   77.8280  220.7940 C   0  0  0  0  0  0  0  0  0  0  0  0
  141.5010   76.3540  220.6140 C   0  0  0  0  0  0  0  0  0  0  0  0
  140.3870   73.3790  222.4800 N   0  0  0  0  0  0  0  0  0  0  0  0
  140.7050   72.0790  222.5720 C   0  0  0  0  0  0  0  0  0  0  0  0
  139.9860   71.2890  223.5090 N   0  0  0  0  0  0  0  0  0  0  0  0
  139.0820   70.2630  223.0290 C   0  0  0  0  0  0  0  0  0  0  0  0
  138.2270   69.8160  224.1940 C   0  0  0  0  0  0  0  0  0  0  0  0
  139.1410   69.3160  225.2520 C   0  0  0  0  0  0  0  0  0  0  0  0
  139.0340   68.0690  225.8280 C   0  0  0  0  0  0  0  0  0  0  0  0
  139.9500   67.7130  226.8130 C   0  0  0  0  0  0  0  0  0  0  0  0
  140.9440   68.5950  227.1990 C   0  0  0  0  0  0  0  0  0  0  0  0
  141.0680   69.8550  226.6310 C   0  0  0  0  0  0  0  0  0  0  0  0
  140.1470   70.1800  225.6600 C   0  0  0  0  0  0  0  0  0  0  0  0
  140.1630   71.5110  224.9530 C   0  0  0  0  0  0  0  0  0  0  0  0
  141.6700   71.5490  221.8000 N   0  0  0  0  0  0  0  0  0  0  0  0
  144.3480   72.6160  219.5670 C   0  0  0  0  0  0  0  0  0  0  0  0
  146.1620   74.0350  218.3470 H   0  0  0  0  0  0  0  0  0  0  0  0
  146.2031   70.4343  217.8203 H   0  0  0  0  0  0  0  0  0  0  0  0
  144.4930   68.8720  218.6981 H   0  0  0  0  0  0  0  0  0  0  0  0
  142.6800   69.7474  220.1445 H   0  0  0  0  0  0  0  0  0  0  0  0
  138.6702   75.9393  221.7063 H   0  0  0  0  0  0  0  0  0  0  0  0
  139.5542   75.5199  223.2242 H   0  0  0  0  0  0  0  0  0  0  0  0
  138.9107   77.9726  223.0841 H   0  0  0  0  0  0  0  0  0  0  0  0
  140.6512   77.7377  223.2517 H   0  0  0  0  0  0  0  0  0  0  0  0
  139.2271   77.8555  220.5285 H   0  0  0  0  0  0  0  0  0  0  0  0
  141.5872   80.0256  220.3948 H   0  0  0  0  0  0  0  0  0  0  0  0
  140.0833   80.1911  219.3188 H   0  0  0  0  0  0  0  0  0  0  0  0
  141.4660   82.2386  220.0386 H   0  0  0  0  0  0  0  0  0  0  0  0
  139.6418   82.2161  219.9619 H   0  0  0  0  0  0  0  0  0  0  0  0
  141.3026   81.8904  222.5155 H   0  0  0  0  0  0  0  0  0  0  0  0
  140.4831   83.3696  222.0581 H   0  0  0  0  0  0  0  0  0  0  0  0
  138.9054   82.0074  223.4243 H   0  0  0  0  0  0  0  0  0  0  0  0
  138.3134   81.9503  221.7437 H   0  0  0  0  0  0  0  0  0  0  0  0
  140.0341   79.9398  223.1975 H   0  0  0  0  0  0  0  0  0  0  0  0
  138.3034   79.7808  222.5608 H   0  0  0  0  0  0  0  0  0  0  0  0
  141.6377   78.3262  219.8418 H   0  0  0  0  0  0  0  0  0  0  0  0
  142.1170   78.1419  221.5697 H   0  0  0  0  0  0  0  0  0  0  0  0
  141.1939   76.1204  219.5839 H   0  0  0  0  0  0  0  0  0  0  0  0
  142.5458   76.0978  220.8437 H   0  0  0  0  0  0  0  0  0  0  0  0
  138.4436   70.6705  222.2313 H   0  0  0  0  0  0  0  0  0  0  0  0
  139.6485   69.4131  222.6206 H   0  0  0  0  0  0  0  0  0  0  0  0
  137.6390   70.6638  224.5755 H   0  0  0  0  0  0  0  0  0  0  0  0
  137.5277   69.0266  223.8811 H   0  0  0  0  0  0  0  0  0  0  0  0
  138.2429   67.3711  225.5164 H   0  0  0  0  0  0  0  0  0  0  0  0
  139.8835   66.7232  227.2883 H   0  0  0  0  0  0  0  0  0  0  0  0
  141.6566   68.2884  227.9788 H   0  0  0  0  0  0  0  0  0  0  0  0
  141.8582   70.5555  226.9392 H   0  0  0  0  0  0  0  0  0  0  0  0
  139.3442   72.1400  225.3325 H   0  0  0  0  0  0  0  0  0  0  0  0
  141.1221   72.0175  225.1362 H   0  0  0  0  0  0  0  0  0  0  0  0
  144.2954   73.6842  219.8241 H   0  0  0  0  0  0  0  0  0  0  0  0
  1  2  1  0
  2  3  2  0
  3  4  1  0
  4  5  2  0
  5  6  1  0
  6  7  1  0
  7  8  2  0
  8  9  1  0
  9 10  1  0
 10 11  1  0
 11 12  1  0
 12 13  1  0
 13 14  1  0
 14 15  1  0
 15 16  1  0
 16 17  1  0
 17 18  1  0
 18 19  1  0
 13 20  1  0
 20 21  1  0
  9 22  2  0
 22 23  1  0
 23 24  1  0
 24 25  1  0
 25 26  1  0
 26 27  1  0
 27 28  2  0
 28 29  1  0
 29 30  2  0
 30 31  1  0
 31 32  2  0
 32 33  1  0
 23 34  2  0
  6 35  2  0
 35  2  1  0
 34  7  1  0
 21 10  1  0
 33 24  1  0
 19 14  1  0
 32 27  1  0
  1 36  1  0
  3 37  1  0
  4 38  1  0
  5 39  1  0
 11 40  1  0
 11 41  1  0
 12 42  1  0
 12 43  1  0
 13 44  1  0
 15 45  1  0
 15 46  1  0
 16 47  1  0
 16 48  1  0
 17 49  1  0
 17 50  1  0
 18 51  1  0
 18 52  1  0
 19 53  1  0
 19 54  1  0
 20 55  1  0
 20 56  1  0
 21 57  1  0
 21 58  1  0
 25 59  1  0
 25 60  1  0
 26 61  1  0
 26 62  1  0
 28 63  1  0
 29 64  1  0
 30 65  1  0
 31 66  1  0
 33 67  1  0
 33 68  1  0
 35 69  1  0
M  END
>  <smiles>  (22) 
Oc1cccc(-c2nc(N3CCC(N4CCCCC4)CC3)nc(N3CCc4ccccc4C3)n2)c1

>  <score_type>  (22) 
oracle

>  <origin>  (22) 
autodockgpu

>  <m_score__min__energy>  (22) 
-9.9499999999999993

>  <m_primary>  (22) 
energy

>  <rmsd>  (22) 
5.526211274560881

>  <m_score__min__rmsd>  (22) 
5.526211274560881

>  <meeko>  (22) 
{"free_energy": -9.95, "intermolecular_energy": -11.44, "internal_energy": -1.12, "cluster_size": 46, "cluster_id": 1, "rank_in_cluster": 1}

>  <energy>  (22) 
-9.87

>  <cluster_rmsd>  (22) 
0.42

>  <cluster>  (22) 
1

$$$$

     RDKit          3D

 69 74  0  0  0  0  0  0  0  0999 V2000
  146.5160   73.1850  219.3750 O   0  0  0  0  0  0  0  0  0  0  0  0
  145.3670   72.4300  219.3770 C   0  0  0  0  0  0  0  0  0  0  0  0
  145.2320   71.3100  218.5870 C   0  0  0  0  0  0  0  0  0  0  0  0
  144.0780   70.5450  218.5850 C   0  0  0  0  0  0  0  0  0  0  0  0
  143.0400   70.9180  219.3960 C   0  0  0  0  0  0  0  0  0  0  0  0
  143.1520   72.0310  220.1920 C   0  0  0  0  0  0  0  0  0  0  0  0
  142.0670   72.4510  221.0650 C   0  0  0  0  0  0  0  0  0  0  0  0
  141.6080   73.7040  221.0510 N   0  0  0  0  0  0  0  0  0  0  0  0
  140.6080   74.1460  221.8370 C   0  0  0  0  0  0  0  0  0  0  0  0
  140.1460   75.5120  221.7840 N   0  0  0  0  0  0  0  0  0  0  0  0
  138.7770   75.8030  222.1570 C   0  0  0  0  0  0  0  0  0  0  0  0
  138.6510   77.2350  222.6890 C   0  0  0  0  0  0  0  0  0  0  0  0
  139.2190   78.1110  221.5960 C   0  0  0  0  0  0  0  0  0  0  0  0
  138.8390   79.4700  221.6580 N   0  0  0  0  0  0  0  0  0  0  0  0
  139.8350   80.4000  222.0030 C   0  0  0  0  0  0  0  0  0  0  0  0
  139.3910   81.7650  222.3580 C   0  0  0  0  0  0  0  0  0  0  0  0
  138.0500   81.7950  223.0970 C   0  0  0  0  0  0  0  0  0  0  0  0
  137.0920   81.1400  222.1070 C   0  0  0  0  0  0  0  0  0  0  0  0
  137.4850   79.7230  221.9770 C   0  0  0  0  0  0  0  0  0  0  0  0
  140.7310   77.9130  221.6660 C   0  0  0  0  0  0  0  0  0  0  0  0
  141.0830   76.5000  221.3590 C   0  0  0  0  0  0  0  0  0  0  0  0
  140.0290   73.2790  222.6920 N   0  0  0  0  0  0  0  0  0  0  0  0
  140.4630   72.0100  222.7350 C   0  0  0  0  0  0  0  0  0  0  0  0
  139.8270   71.1260  223.6480 N   0  0  0  0  0  0  0  0  0  0  0  0
  139.0330   70.0270  223.1360 C   0  0  0  0  0  0  0  0  0  0  0  0
  138.2250   69.4640  224.2850 C   0  0  0  0  0  0  0  0  0  0  0  0
  139.1840   69.0320  225.3330 C   0  0  0  0  0  0  0  0  0  0  0  0
  139.2030   67.7650  225.8750 C   0  0  0  0  0  0  0  0  0  0  0  0
  140.1490   67.4780  226.8550 C   0  0  0  0  0  0  0  0  0  0  0  0
  141.0470   68.4460  227.2700 C   0  0  0  0  0  0  0  0  0  0  0  0
  141.0430   69.7270  226.7350 C   0  0  0  0  0  0  0  0  0  0  0  0
  140.0960   69.9820  225.7680 C   0  0  0  0  0  0  0  0  0  0  0  0
  139.9770   71.3260  225.0980 C   0  0  0  0  0  0  0  0  0  0  0  0
  141.4650   71.5970  221.9390 N   0  0  0  0  0  0  0  0  0  0  0  0
  144.2970   72.7700  220.1800 C   0  0  0  0  0  0  0  0  0  0  0  0
  146.4470   74.1920  219.2690 H   0  0  0  0  0  0  0  0  0  0  0  0
  146.0681   71.0136  217.9365 H   0  0  0  0  0  0  0  0  0  0  0  0
  143.9967   69.6547  217.9441 H   0  0  0  0  0  0  0  0  0  0  0  0
  142.1140   70.3245  219.4099 H   0  0  0  0  0  0  0  0  0  0  0  0
  138.1304   75.6878  221.2746 H   0  0  0  0  0  0  0  0  0  0  0  0
  138.4710   75.1041  222.9494 H   0  0  0  0  0  0  0  0  0  0  0  0
  137.5966   77.4861  222.8767 H   0  0  0  0  0  0  0  0  0  0  0  0
  139.1819   77.3690  223.6430 H   0  0  0  0  0  0  0  0  0  0  0  0
  138.8051   77.8083  220.6228 H   0  0  0  0  0  0  0  0  0  0  0  0
  140.3814   79.9944  222.8673 H   0  0  0  0  0  0  0  0  0  0  0  0
  140.4346   80.5254  221.0894 H   0  0  0  0  0  0  0  0  0  0  0  0
  140.1550   82.2236  223.0030 H   0  0  0  0  0  0  0  0  0  0  0  0
  139.2557   82.3178  221.4166 H   0  0  0  0  0  0  0  0  0  0  0  0
  138.1028   81.2207  224.0337 H   0  0  0  0  0  0  0  0  0  0  0  0
  137.7412   82.8094  223.3895 H   0  0  0  0  0  0  0  0  0  0  0  0
  136.0600   81.2103  222.4811 H   0  0  0  0  0  0  0  0  0  0  0  0
  137.1396   81.6453  221.1311 H   0  0  0  0  0  0  0  0  0  0  0  0
  137.2692   79.2272  222.9349 H   0  0  0  0  0  0  0  0  0  0  0  0
  136.9082   79.3384  221.1230 H   0  0  0  0  0  0  0  0  0  0  0  0
  141.2177   78.5751  220.9347 H   0  0  0  0  0  0  0  0  0  0  0  0
  141.0762   78.1545  222.6821 H   0  0  0  0  0  0  0  0  0  0  0  0
  141.1935   76.4108  220.2682 H   0  0  0  0  0  0  0  0  0  0  0  0
  142.0038   76.2959  221.9250 H   0  0  0  0  0  0  0  0  0  0  0  0
  138.3582   70.3892  222.3464 H   0  0  0  0  0  0  0  0  0  0  0  0
  139.6837   69.2504  222.7076 H   0  0  0  0  0  0  0  0  0  0  0  0
  137.5528   70.2368  224.6861 H   0  0  0  0  0  0  0  0  0  0  0  0
  137.6099   68.6164  223.9485 H   0  0  0  0  0  0  0  0  0  0  0  0
  138.4877   66.9989  225.5412 H   0  0  0  0  0  0  0  0  0  0  0  0
  140.1831   66.4740  227.3031 H   0  0  0  0  0  0  0  0  0  0  0  0
  141.7848   68.1931  228.0457 H   0  0  0  0  0  0  0  0  0  0  0  0
  141.7569   70.4960  227.0652 H   0  0  0  0  0  0  0  0  0  0  0  0
  139.0972   71.8571  225.4902 H   0  0  0  0  0  0  0  0  0  0  0  0
  140.8784   71.9233  225.2998 H   0  0  0  0  0  0  0  0  0  0  0  0
  144.3702   73.6579  220.8251 H   0  0  0  0  0  0  0  0  0  0  0  0
  1  2  1  0
  2  3  2  0
  3  4  1  0
  4  5  2  0
  5  6  1  0
  6  7  1  0
  7  8  2  0
  8  9  1  0
  9 10  1  0
 10 11  1  0
 11 12  1  0
 12 13  1  0
 13 14  1  0
 14 15  1  0
 15 16  1  0
 16 17  1  0
 17 18  1  0
 18 19  1  0
 13 20  1  0
 20 21  1  0
  9 22  2  0
 22 23  1  0
 23 24  1  0
 24 25  1  0
 25 26  1  0
 26 27  1  0
 27 28  2  0
 28 29  1  0
 29 30  2  0
 30 31  1  0
 31 32  2  0
 32 33  1  0
 23 34  2  0
  6 35  2  0
 35  2  1  0
 34  7  1  0
 21 10  1  0
 33 24  1  0
 19 14  1  0
 32 27  1  0
  1 36  1  0
  3 37  1  0
  4 38  1  0
  5 39  1  0
 11 40  1  0
 11 41  1  0
 12 42  1  0
 12 43  1  0
 13 44  1  0
 15 45  1  0
 15 46  1  0
 16 47  1  0
 16 48  1  0
 17 49  1  0
 17 50  1  0
 18 51  1  0
 18 52  1  0
 19 53  1  0
 19 54  1  0
 20 55  1  0
 20 56  1  0
 21 57  1  0
 21 58  1  0
 25 59  1  0
 25 60  1  0
 26 61  1  0
 26 62  1  0
 28 63  1  0
 29 64  1  0
 30 65  1  0
 31 66  1  0
 33 67  1  0
 33 68  1  0
 35 69  1  0
M  END
>  <smiles>  (23) 
Oc1cccc(-c2nc(N3CCC(N4CCCCC4)CC3)nc(N3CCc4ccccc4C3)n2)c1

>  <score_type>  (23) 
oracle

>  <origin>  (23) 
autodockgpu

>  <m_score__min__energy>  (23) 
-9.9499999999999993

>  <m_primary>  (23) 
energy

>  <rmsd>  (23) 
5.742446440366244

>  <m_score__min__rmsd>  (23) 
5.742446440366244

>  <meeko>  (23) 
{"free_energy": -9.56, "intermolecular_energy": -11.05, "internal_energy": -1.11, "cluster_size": 46, "cluster_id": 1, "rank_in_cluster": 36}

>  <energy>  (23) 
-9.83

>  <cluster_rmsd>  (23) 
0.58

>  <cluster>  (23) 
1

$$$$

     RDKit          3D

 69 74  0  0  0  0  0  0  0  0999 V2000
  146.5930   73.7490  219.7760 O   0  0  0  0  0  0  0  0  0  0  0  0
  145.4390   73.0150  219.9110 C   0  0  0  0  0  0  0  0  0  0  0  0
  145.3820   71.6810  219.5740 C   0  0  0  0  0  0  0  0  0  0  0  0
  144.2220   70.9370  219.7080 C   0  0  0  0  0  0  0  0  0  0  0  0
  143.0990   71.5500  220.1940 C   0  0  0  0  0  0  0  0  0  0  0  0
  143.1320   72.8790  220.5370 C   0  0  0  0  0  0  0  0  0  0  0  0
  141.9560   73.5580  221.0570 C   0  0  0  0  0  0  0  0  0  0  0  0
  140.9080   72.8750  221.5260 N   0  0  0  0  0  0  0  0  0  0  0  0
  139.7960   73.4520  222.0170 C   0  0  0  0  0  0  0  0  0  0  0  0
  138.6890   72.6700  222.5130 N   0  0  0  0  0  0  0  0  0  0  0  0
  138.9630   71.4180  223.1870 C   0  0  0  0  0  0  0  0  0  0  0  0
  137.8520   71.0860  224.1900 C   0  0  0  0  0  0  0  0  0  0  0  0
  136.5750   71.1150  223.3830 C   0  0  0  0  0  0  0  0  0  0  0  0
  135.4800   70.4400  223.9690 N   0  0  0  0  0  0  0  0  0  0  0  0
  134.3720   71.2200  224.3450 C   0  0  0  0  0  0  0  0  0  0  0  0
  133.3610   70.5830  225.2150 C   0  0  0  0  0  0  0  0  0  0  0  0
  133.9620   69.6000  226.2250 C   0  0  0  0  0  0  0  0  0  0  0  0
  134.6570   68.5720  225.3380 C   0  0  0  0  0  0  0  0  0  0  0  0
  135.7850   69.2500  224.6690 C   0  0  0  0  0  0  0  0  0  0  0  0
  136.2930   72.5930  223.1260 C   0  0  0  0  0  0  0  0  0  0  0  0
  137.3770   73.1900  222.3000 C   0  0  0  0  0  0  0  0  0  0  0  0
  139.7250   74.7980  222.0420 N   0  0  0  0  0  0  0  0  0  0  0  0
  140.7580   75.5190  221.5800 C   0  0  0  0  0  0  0  0  0  0  0  0
  140.6470   76.9350  221.6260 N   0  0  0  0  0  0  0  0  0  0  0  0
  139.3960   77.5360  222.0440 C   0  0  0  0  0  0  0  0  0  0  0  0
  139.4480   79.0070  221.6920 C   0  0  0  0  0  0  0  0  0  0  0  0
  140.6210   79.5910  222.3920 C   0  0  0  0  0  0  0  0  0  0  0  0
  140.5460   80.6890  223.2200 C   0  0  0  0  0  0  0  0  0  0  0  0
  141.7150   81.1480  223.8190 C   0  0  0  0  0  0  0  0  0  0  0  0
  142.9210   80.5100  223.5860 C   0  0  0  0  0  0  0  0  0  0  0  0
  143.0160   79.4020  222.7550 C   0  0  0  0  0  0  0  0  0  0  0  0
  141.8420   78.9710  222.1760 C   0  0  0  0  0  0  0  0  0  0  0  0
  141.7940   77.7790  221.2550 C   0  0  0  0  0  0  0  0  0  0  0  0
  141.8570   74.9160  221.0940 N   0  0  0  0  0  0  0  0  0  0  0  0
  144.2850   73.5950  220.3980 C   0  0  0  0  0  0  0  0  0  0  0  0
  146.5650   74.7520  219.9330 H   0  0  0  0  0  0  0  0  0  0  0  0
  146.2870   71.1908  219.1859 H   0  0  0  0  0  0  0  0  0  0  0  0
  144.2034   69.8731  219.4290 H   0  0  0  0  0  0  0  0  0  0  0  0
  142.1676   70.9764  220.3101 H   0  0  0  0  0  0  0  0  0  0  0  0
  139.0273   70.6128  222.4403 H   0  0  0  0  0  0  0  0  0  0  0  0
  139.9140   71.5113  223.7319 H   0  0  0  0  0  0  0  0  0  0  0  0
  138.0108   70.0890  224.6268 H   0  0  0  0  0  0  0  0  0  0  0  0
  137.8268   71.7970  225.0289 H   0  0  0  0  0  0  0  0  0  0  0  0
  136.7117   70.5505  222.4488 H   0  0  0  0  0  0  0  0  0  0  0  0
  134.7547   72.1045  224.8753 H   0  0  0  0  0  0  0  0  0  0  0  0
  133.8428   71.4326  223.4044 H   0  0  0  0  0  0  0  0  0  0  0  0
  132.8305   71.3716  225.7688 H   0  0  0  0  0  0  0  0  0  0  0  0
  132.6866   70.0082  224.5632 H   0  0  0  0  0  0  0  0  0  0  0  0
  134.6835   70.1040  226.8848 H   0  0  0  0  0  0  0  0  0  0  0  0
  133.2108   69.1553  226.8943 H   0  0  0  0  0  0  0  0  0  0  0  0
  135.0306   67.7387  225.9513 H   0  0  0  0  0  0  0  0  0  0  0  0
  133.9552   68.1651  224.5951 H   0  0  0  0  0  0  0  0  0  0  0  0
  136.5307   69.4970  225.4390 H   0  0  0  0  0  0  0  0  0  0  0  0
  136.1365   68.5433  223.9028 H   0  0  0  0  0  0  0  0  0  0  0  0
  135.3352   72.6925  222.5944 H   0  0  0  0  0  0  0  0  0  0  0  0
  136.2459   73.1209  224.0899 H   0  0  0  0  0  0  0  0  0  0  0  0
  137.1200   73.0303  221.2424 H   0  0  0  0  0  0  0  0  0  0  0  0
  137.4268   74.2476  222.5985 H   0  0  0  0  0  0  0  0  0  0  0  0
  138.5567   77.0555  221.5200 H   0  0  0  0  0  0  0  0  0  0  0  0
  139.2501   77.4053  223.1264 H   0  0  0  0  0  0  0  0  0  0  0  0
  139.5600   79.1295  220.6046 H   0  0  0  0  0  0  0  0  0  0  0  0
  138.5210   79.5127  222.0000 H   0  0  0  0  0  0  0  0  0  0  0  0
  139.5847   81.1912  223.4034 H   0  0  0  0  0  0  0  0  0  0  0  0
  141.6805   82.0245  224.4827 H   0  0  0  0  0  0  0  0  0  0  0  0
  143.8303   80.8919  224.0733 H   0  0  0  0  0  0  0  0  0  0  0  0
  143.9750   78.8962  222.5691 H   0  0  0  0  0  0  0  0  0  0  0  0
  141.6803   78.1201  220.2154 H   0  0  0  0  0  0  0  0  0  0  0  0
  142.7258   77.2014  221.3447 H   0  0  0  0  0  0  0  0  0  0  0  0
  144.2952   74.6581  220.6803 H   0  0  0  0  0  0  0  0  0  0  0  0
  1  2  1  0
  2  3  2  0
  3  4  1  0
  4  5  2  0
  5  6  1  0
  6  7  1  0
  7  8  2  0
  8  9  1  0
  9 10  1  0
 10 11  1  0
 11 12  1  0
 12 13  1  0
 13 14  1  0
 14 15  1  0
 15 16  1  0
 16 17  1  0
 17 18  1  0
 18 19  1  0
 13 20  1  0
 20 21  1  0
  9 22  2  0
 22 23  1  0
 23 24  1  0
 24 25  1  0
 25 26  1  0
 26 27  1  0
 27 28  2  0
 28 29  1  0
 29 30  2  0
 30 31  1  0
 31 32  2  0
 32 33  1  0
 23 34  2  0
  6 35  2  0
 35  2  1  0
 34  7  1  0
 21 10  1  0
 33 24  1  0
 19 14  1  0
 32 27  1  0
  1 36  1  0
  3 37  1  0
  4 38  1  0
  5 39  1  0
 11 40  1  0
 11 41  1  0
 12 42  1  0
 12 43  1  0
 13 44  1  0
 15 45  1  0
 15 46  1  0
 16 47  1  0
 16 48  1  0
 17 49  1  0
 17 50  1  0
 18 51  1  0
 18 52  1  0
 19 53  1  0
 19 54  1  0
 20 55  1  0
 20 56  1  0
 21 57  1  0
 21 58  1  0
 25 59  1  0
 25 60  1  0
 26 61  1  0
 26 62  1  0
 28 63  1  0
 29 64  1  0
 30 65  1  0
 31 66  1  0
 33 67  1  0
 33 68  1  0
 35 69  1  0
M  END
>  <smiles>  (24) 
Oc1cccc(-c2nc(N3CCC(N4CCCCC4)CC3)nc(N3CCc4ccccc4C3)n2)c1

>  <score_type>  (24) 
oracle

>  <origin>  (24) 
autodockgpu

>  <m_score__min__energy>  (24) 
-9.9499999999999993

>  <m_primary>  (24) 
energy

>  <rmsd>  (24) 
10.837192710943025

>  <m_score__min__rmsd>  (24) 
10.837192710943025

>  <meeko>  (24) 
{"free_energy": -8.74, "intermolecular_energy": -10.23, "internal_energy": -1.13, "cluster_size": 2, "cluster_id": 2, "rank_in_cluster": 1}

>  <energy>  (24) 
-9.83

>  <cluster_rmsd>  (24) 
0.34

>  <cluster>  (24) 
1

$$$$

     RDKit          3D

 69 74  0  0  0  0  0  0  0  0999 V2000
  146.5650   73.3890  218.9600 O   0  0  0  0  0  0  0  0  0  0  0  0
  145.5480   72.5010  219.2170 C   0  0  0  0  0  0  0  0  0  0  0  0
  145.5690   71.2120  218.7330 C   0  0  0  0  0  0  0  0  0  0  0  0
  144.5480   70.3120  218.9900 C   0  0  0  0  0  0  0  0  0  0  0  0
  143.4860   70.7210  219.7500 C   0  0  0  0  0  0  0  0  0  0  0  0
  143.4440   72.0020  220.2440 C   0  0  0  0  0  0  0  0  0  0  0  0
  142.3300   72.4650  221.0560 C   0  0  0  0  0  0  0  0  0  0  0  0
  141.8960   73.7260  220.9870 N   0  0  0  0  0  0  0  0  0  0  0  0
  140.8700   74.2070  221.7160 C   0  0  0  0  0  0  0  0  0  0  0  0
  140.4380   75.5790  221.6060 N   0  0  0  0  0  0  0  0  0  0  0  0
  139.2230   75.9860  222.2800 C   0  0  0  0  0  0  0  0  0  0  0  0
  139.2700   77.4770  222.6340 C   0  0  0  0  0  0  0  0  0  0  0  0
  139.5460   78.1810  221.3260 C   0  0  0  0  0  0  0  0  0  0  0  0
  139.2220   79.5560  221.3060 N   0  0  0  0  0  0  0  0  0  0  0  0
  139.8560   80.3510  220.3340 C   0  0  0  0  0  0  0  0  0  0  0  0
  139.7560   81.8180  220.4910 C   0  0  0  0  0  0  0  0  0  0  0  0
  139.7620   82.2750  221.9530 C   0  0  0  0  0  0  0  0  0  0  0  0
  138.5450   81.5700  222.5430 C   0  0  0  0  0  0  0  0  0  0  0  0
  138.8240   80.1200  222.5390 C   0  0  0  0  0  0  0  0  0  0  0  0
  141.0180   77.9140  221.0250 C   0  0  0  0  0  0  0  0  0  0  0  0
  141.2480   76.4570  220.8260 C   0  0  0  0  0  0  0  0  0  0  0  0
  140.2380   73.3740  222.5670 N   0  0  0  0  0  0  0  0  0  0  0  0
  140.6450   72.0990  222.6620 C   0  0  0  0  0  0  0  0  0  0  0  0
  139.9510   71.2520  223.5690 N   0  0  0  0  0  0  0  0  0  0  0  0
  139.1330   70.1750  223.0500 C   0  0  0  0  0  0  0  0  0  0  0  0
  138.2730   69.6580  224.1820 C   0  0  0  0  0  0  0  0  0  0  0  0
  139.1860   69.2070  225.2640 C   0  0  0  0  0  0  0  0  0  0  0  0
  139.1440   67.9490  225.8230 C   0  0  0  0  0  0  0  0  0  0  0  0
  140.0510   67.6420  226.8330 C   0  0  0  0  0  0  0  0  0  0  0  0
  140.9710   68.5840  227.2600 C   0  0  0  0  0  0  0  0  0  0  0  0
  141.0290   69.8560  226.7090 C   0  0  0  0  0  0  0  0  0  0  0  0
  140.1190   70.1310  225.7120 C   0  0  0  0  0  0  0  0  0  0  0  0
  140.0690   71.4680  225.0200 C   0  0  0  0  0  0  0  0  0  0  0  0
  141.6720   71.6460  221.9230 N   0  0  0  0  0  0  0  0  0  0  0  0
  144.4600   72.8730  219.9800 C   0  0  0  0  0  0  0  0  0  0  0  0
  146.4830   74.3460  219.2890 H   0  0  0  0  0  0  0  0  0  0  0  0
  146.4242   70.8866  218.1226 H   0  0  0  0  0  0  0  0  0  0  0  0
  144.5900   69.2879  218.5908 H   0  0  0  0  0  0  0  0  0  0  0  0
  142.6642   70.0224  219.9658 H   0  0  0  0  0  0  0  0  0  0  0  0
  138.3640   75.7992  221.6188 H   0  0  0  0  0  0  0  0  0  0  0  0
  139.1241   75.4059  223.2094 H   0  0  0  0  0  0  0  0  0  0  0  0
  138.3078   77.8051  223.0541 H   0  0  0  0  0  0  0  0  0  0  0  0
  140.0362   77.6978  223.3917 H   0  0  0  0  0  0  0  0  0  0  0  0
  138.8843   77.7831  220.5425 H   0  0  0  0  0  0  0  0  0  0  0  0
  140.9245   80.0898  220.3383 H   0  0  0  0  0  0  0  0  0  0  0  0
  139.3256   80.1293  219.3962 H   0  0  0  0  0  0  0  0  0  0  0  0
  140.6102   82.2828  219.9769 H   0  0  0  0  0  0  0  0  0  0  0  0
  138.7927   82.1260  220.0584 H   0  0  0  0  0  0  0  0  0  0  0  0
  140.6853   81.9598  222.4611 H   0  0  0  0  0  0  0  0  0  0  0  0
  139.7228   83.3687  222.0634 H   0  0  0  0  0  0  0  0  0  0  0  0
  138.3736   81.9162  223.5729 H   0  0  0  0  0  0  0  0  0  0  0  0
  137.6450   81.7920  221.9509 H   0  0  0  0  0  0  0  0  0  0  0  0
  139.6275   79.9327  223.2666 H   0  0  0  0  0  0  0  0  0  0  0  0
  137.8649   79.6393  222.7819 H   0  0  0  0  0  0  0  0  0  0  0  0
  141.3056   78.4550  220.1114 H   0  0  0  0  0  0  0  0  0  0  0  0
  141.6256   78.2597  221.8743 H   0  0  0  0  0  0  0  0  0  0  0  0
  141.0640   76.2300  219.7655 H   0  0  0  0  0  0  0  0  0  0  0  0
  142.2815   76.2745  221.1555 H   0  0  0  0  0  0  0  0  0  0  0  0
  138.4944   70.5493  222.2363 H   0  0  0  0  0  0  0  0  0  0  0  0
  139.7674   69.3694  222.6517 H   0  0  0  0  0  0  0  0  0  0  0  0
  137.6179   70.4600  224.5529 H   0  0  0  0  0  0  0  0  0  0  0  0
  137.6377   68.8281  223.8391 H   0  0  0  0  0  0  0  0  0  0  0  0
  138.4109   67.2044  225.4793 H   0  0  0  0  0  0  0  0  0  0  0  0
  140.0367   66.6439  227.2951 H   0  0  0  0  0  0  0  0  0  0  0  0
  141.6770   68.3162  228.0599 H   0  0  0  0  0  0  0  0  0  0  0  0
  141.7609   70.6033  227.0493 H   0  0  0  0  0  0  0  0  0  0  0  0
  139.1995   72.0374  225.3801 H   0  0  0  0  0  0  0  0  0  0  0  0
  140.9865   72.0341  225.2382 H   0  0  0  0  0  0  0  0  0  0  0  0
  144.4110   73.8948  220.3844 H   0  0  0  0  0  0  0  0  0  0  0  0
  1  2  1  0
  2  3  2  0
  3  4  1  0
  4  5  2  0
  5  6  1  0
  6  7  1  0
  7  8  2  0
  8  9  1  0
  9 10  1  0
 10 11  1  0
 11 12  1  0
 12 13  1  0
 13 14  1  0
 14 15  1  0
 15 16  1  0
 16 17  1  0
 17 18  1  0
 18 19  1  0
 13 20  1  0
 20 21  1  0
  9 22  2  0
 22 23  1  0
 23 24  1  0
 24 25  1  0
 25 26  1  0
 26 27  1  0
 27 28  2  0
 28 29  1  0
 29 30  2  0
 30 31  1  0
 31 32  2  0
 32 33  1  0
 23 34  2  0
  6 35  2  0
 35  2  1  0
 34  7  1  0
 21 10  1  0
 33 24  1  0
 19 14  1  0
 32 27  1  0
  1 36  1  0
  3 37  1  0
  4 38  1  0
  5 39  1  0
 11 40  1  0
 11 41  1  0
 12 42  1  0
 12 43  1  0
 13 44  1  0
 15 45  1  0
 15 46  1  0
 16 47  1  0
 16 48  1  0
 17 49  1  0
 17 50  1  0
 18 51  1  0
 18 52  1  0
 19 53  1  0
 19 54  1  0
 20 55  1  0
 20 56  1  0
 21 57  1  0
 21 58  1  0
 25 59  1  0
 25 60  1  0
 26 61  1  0
 26 62  1  0
 28 63  1  0
 29 64  1  0
 30 65  1  0
 31 66  1  0
 33 67  1  0
 33 68  1  0
 35 69  1  0
M  END
>  <smiles>  (25) 
Oc1cccc(-c2nc(N3CCC(N4CCCCC4)CC3)nc(N3CCc4ccccc4C3)n2)c1

>  <score_type>  (25) 
oracle

>  <origin>  (25) 
autodockgpu

>  <m_score__min__energy>  (25) 
-9.9499999999999993

>  <m_primary>  (25) 
energy

>  <rmsd>  (25) 
5.61521135315348

>  <m_score__min__rmsd>  (25) 
5.61521135315348

>  <meeko>  (25) 
{"free_energy": -9.69, "intermolecular_energy": -11.18, "internal_energy": -1.12, "cluster_size": 46, "cluster_id": 1, "rank_in_cluster": 29}

>  <energy>  (25) 
-9.8

>  <cluster_rmsd>  (25) 
0.32

>  <cluster>  (25) 
1

$$$$

     RDKit          3D

 69 74  0  0  0  0  0  0  0  0999 V2000
  146.3130   73.0390  218.2110 O   0  0  0  0  0  0  0  0  0  0  0  0
  145.4310   72.1600  218.7920 C   0  0  0  0  0  0  0  0  0  0  0  0
  145.5500   70.7970  218.6290 C   0  0  0  0  0  0  0  0  0  0  0  0
  144.6650   69.9060  219.2130 C   0  0  0  0  0  0  0  0  0  0  0  0
  143.6410   70.3990  219.9760 C   0  0  0  0  0  0  0  0  0  0  0  0
  143.5030   71.7540  220.1520 C   0  0  0  0  0  0  0  0  0  0  0  0
  142.4260   72.3080  220.9580 C   0  0  0  0  0  0  0  0  0  0  0  0
  142.0900   73.5980  220.8780 N   0  0  0  0  0  0  0  0  0  0  0  0
  141.1040   74.1620  221.6000 C   0  0  0  0  0  0  0  0  0  0  0  0
  140.7780   75.5620  221.4790 N   0  0  0  0  0  0  0  0  0  0  0  0
  139.6720   76.0920  222.2490 C   0  0  0  0  0  0  0  0  0  0  0  0
  139.8780   77.5840  222.5380 C   0  0  0  0  0  0  0  0  0  0  0  0
  140.0810   78.2210  221.1830 C   0  0  0  0  0  0  0  0  0  0  0  0
  139.8710   79.6180  221.1390 N   0  0  0  0  0  0  0  0  0  0  0  0
  140.5850   80.3450  220.1690 C   0  0  0  0  0  0  0  0  0  0  0  0
  140.6030   81.8170  220.3050 C   0  0  0  0  0  0  0  0  0  0  0  0
  140.6230   82.2920  221.7610 C   0  0  0  0  0  0  0  0  0  0  0  0
  139.3430   81.6980  222.3390 C   0  0  0  0  0  0  0  0  0  0  0  0
  139.5020   80.2300  222.3590 C   0  0  0  0  0  0  0  0  0  0  0  0
  141.4890   77.8190  220.7540 C   0  0  0  0  0  0  0  0  0  0  0  0
  141.5770   76.3420  220.5910 C   0  0  0  0  0  0  0  0  0  0  0  0
  140.4080   73.3870  222.4570 N   0  0  0  0  0  0  0  0  0  0  0  0
  140.7170   72.0850  222.5640 C   0  0  0  0  0  0  0  0  0  0  0  0
  139.9590   71.3020  223.4760 N   0  0  0  0  0  0  0  0  0  0  0  0
  139.0590   70.2880  222.9640 C   0  0  0  0  0  0  0  0  0  0  0  0
  138.1610   69.8480  224.1000 C   0  0  0  0  0  0  0  0  0  0  0  0
  139.0360   69.3340  225.1850 C   0  0  0  0  0  0  0  0  0  0  0  0
  138.8960   68.0870  225.7530 C   0  0  0  0  0  0  0  0  0  0  0  0
  139.7760   67.7180  226.7650 C   0  0  0  0  0  0  0  0  0  0  0  0
  140.7670   68.5870  227.1860 C   0  0  0  0  0  0  0  0  0  0  0  0
  140.9240   69.8470  226.6260 C   0  0  0  0  0  0  0  0  0  0  0  0
  140.0390   70.1850  225.6270 C   0  0  0  0  0  0  0  0  0  0  0  0
  140.0930   71.5180  224.9250 C   0  0  0  0  0  0  0  0  0  0  0  0
  141.7070   71.5490  221.8310 N   0  0  0  0  0  0  0  0  0  0  0  0
  144.3850   72.6150  219.5690 C   0  0  0  0  0  0  0  0  0  0  0  0
  146.1430   74.0370  218.2900 H   0  0  0  0  0  0  0  0  0  0  0  0
  146.3741   70.4040  218.0155 H   0  0  0  0  0  0  0  0  0  0  0  0
  144.7828   68.8222  219.0664 H   0  0  0  0  0  0  0  0  0  0  0  0
  142.9273   69.7085  220.4491 H   0  0  0  0  0  0  0  0  0  0  0  0
  138.7399   75.9598  221.6801 H   0  0  0  0  0  0  0  0  0  0  0  0
  139.6157   75.5512  223.2052 H   0  0  0  0  0  0  0  0  0  0  0  0
  138.9928   78.0072  223.0353 H   0  0  0  0  0  0  0  0  0  0  0  0
  140.7313   77.7606  223.2093 H   0  0  0  0  0  0  0  0  0  0  0  0
  139.3144   77.8576  220.4828 H   0  0  0  0  0  0  0  0  0  0  0  0
  141.6283   79.9974  220.1966 H   0  0  0  0  0  0  0  0  0  0  0  0
  140.0544   80.1542  219.2245 H   0  0  0  0  0  0  0  0  0  0  0  0
  141.5005   82.2031  219.7997 H   0  0  0  0  0  0  0  0  0  0  0  0
  139.6755   82.1969  219.8517 H   0  0  0  0  0  0  0  0  0  0  0  0
  141.5089   81.9090  222.2887 H   0  0  0  0  0  0  0  0  0  0  0  0
  140.6722   83.3867  221.8569 H   0  0  0  0  0  0  0  0  0  0  0  0
  139.1840   82.0721  223.3611 H   0  0  0  0  0  0  0  0  0  0  0  0
  138.4739   81.9844  221.7285 H   0  0  0  0  0  0  0  0  0  0  0  0
  140.2764   79.9880  223.1018 H   0  0  0  0  0  0  0  0  0  0  0  0
  138.5034   79.8326  222.5933 H   0  0  0  0  0  0  0  0  0  0  0  0
  141.7294   78.3048  219.7968 H   0  0  0  0  0  0  0  0  0  0  0  0
  142.2035   78.1370  221.5276 H   0  0  0  0  0  0  0  0  0  0  0  0
  141.2709   76.0989  219.5628 H   0  0  0  0  0  0  0  0  0  0  0  0
  142.6194   76.0812  220.8266 H   0  0  0  0  0  0  0  0  0  0  0  0
  138.4516   70.7051  222.1473 H   0  0  0  0  0  0  0  0  0  0  0  0
  139.6284   69.4325  222.5717 H   0  0  0  0  0  0  0  0  0  0  0  0
  137.5713   70.7017  224.4653 H   0  0  0  0  0  0  0  0  0  0  0  0
  137.4621   69.0684  223.7628 H   0  0  0  0  0  0  0  0  0  0  0  0
  138.1070   67.3993  225.4144 H   0  0  0  0  0  0  0  0  0  0  0  0
  139.6834   66.7275  227.2343 H   0  0  0  0  0  0  0  0  0  0  0  0
  141.4501   68.2699  227.9878 H   0  0  0  0  0  0  0  0  0  0  0  0
  141.7118   70.5374  226.9617 H   0  0  0  0  0  0  0  0  0  0  0  0
  139.2702   72.1556  225.2805 H   0  0  0  0  0  0  0  0  0  0  0  0
  141.0517   72.0126  225.1399 H   0  0  0  0  0  0  0  0  0  0  0  0
  144.2600   73.6972  219.7214 H   0  0  0  0  0  0  0  0  0  0  0  0
  1  2  1  0
  2  3  2  0
  3  4  1  0
  4  5  2  0
  5  6  1  0
  6  7  1  0
  7  8  2  0
  8  9  1  0
  9 10  1  0
 10 11  1  0
 11 12  1  0
 12 13  1  0
 13 14  1  0
 14 15  1  0
 15 16  1  0
 16 17  1  0
 17 18  1  0
 18 19  1  0
 13 20  1  0
 20 21  1  0
  9 22  2  0
 22 23  1  0
 23 24  1  0
 24 25  1  0
 25 26  1  0
 26 27  1  0
 27 28  2  0
 28 29  1  0
 29 30  2  0
 30 31  1  0
 31 32  2  0
 32 33  1  0
 23 34  2  0
  6 35  2  0
 35  2  1  0
 34  7  1  0
 21 10  1  0
 33 24  1  0
 19 14  1  0
 32 27  1  0
  1 36  1  0
  3 37  1  0
  4 38  1  0
  5 39  1  0
 11 40  1  0
 11 41  1  0
 12 42  1  0
 12 43  1  0
 13 44  1  0
 15 45  1  0
 15 46  1  0
 16 47  1  0
 16 48  1  0
 17 49  1  0
 17 50  1  0
 18 51  1  0
 18 52  1  0
 19 53  1  0
 19 54  1  0
 20 55  1  0
 20 56  1  0
 21 57  1  0
 21 58  1  0
 25 59  1  0
 25 60  1  0
 26 61  1  0
 26 62  1  0
 28 63  1  0
 29 64  1  0
 30 65  1  0
 31 66  1  0
 33 67  1  0
 33 68  1  0
 35 69  1  0
M  END
>  <smiles>  (26) 
Oc1cccc(-c2nc(N3CCC(N4CCCCC4)CC3)nc(N3CCc4ccccc4C3)n2)c1

>  <score_type>  (26) 
oracle

>  <origin>  (26) 
autodockgpu

>  <m_score__min__energy>  (26) 
-9.9499999999999993

>  <m_primary>  (26) 
energy

>  <rmsd>  (26) 
5.496734063628498

>  <m_score__min__rmsd>  (26) 
5.496734063628498

>  <meeko>  (26) 
{"free_energy": -9.93, "intermolecular_energy": -11.42, "internal_energy": -1.12, "cluster_size": 46, "cluster_id": 1, "rank_in_cluster": 12}

>  <energy>  (26) 
-9.8

>  <cluster_rmsd>  (26) 
0.38

>  <cluster>  (26) 
1

$$$$

     RDKit          3D

 69 74  0  0  0  0  0  0  0  0999 V2000
  146.3150   73.1040  218.5850 O   0  0  0  0  0  0  0  0  0  0  0  0
  145.3160   72.2370  218.9580 C   0  0  0  0  0  0  0  0  0  0  0  0
  145.2990   70.9240  218.5400 C   0  0  0  0  0  0  0  0  0  0  0  0
  144.2970   70.0450  218.9120 C   0  0  0  0  0  0  0  0  0  0  0  0
  143.2910   70.4990  219.7240 C   0  0  0  0  0  0  0  0  0  0  0  0
  143.2880   71.8030  220.1530 C   0  0  0  0  0  0  0  0  0  0  0  0
  142.2340   72.3140  221.0160 C   0  0  0  0  0  0  0  0  0  0  0  0
  141.8450   73.5900  220.9580 N   0  0  0  0  0  0  0  0  0  0  0  0
  140.8760   74.1150  221.7330 C   0  0  0  0  0  0  0  0  0  0  0  0
  140.4900   75.5020  221.6320 N   0  0  0  0  0  0  0  0  0  0  0  0
  139.1830   75.9000  222.1110 C   0  0  0  0  0  0  0  0  0  0  0  0
  139.1910   77.3670  222.5560 C   0  0  0  0  0  0  0  0  0  0  0  0
  139.6990   78.1370  221.3580 C   0  0  0  0  0  0  0  0  0  0  0  0
  139.4040   79.5180  221.3640 N   0  0  0  0  0  0  0  0  0  0  0  0
  139.9260   80.2910  220.3120 C   0  0  0  0  0  0  0  0  0  0  0  0
  139.8780   81.7610  220.4640 C   0  0  0  0  0  0  0  0  0  0  0  0
  140.0790   82.2300  221.9080 C   0  0  0  0  0  0  0  0  0  0  0  0
  138.9320   81.5570  222.6550 C   0  0  0  0  0  0  0  0  0  0  0  0
  139.1780   80.1010  222.6320 C   0  0  0  0  0  0  0  0  0  0  0  0
  141.1960   77.8490  221.2990 C   0  0  0  0  0  0  0  0  0  0  0  0
  141.4360   76.4010  221.0560 C   0  0  0  0  0  0  0  0  0  0  0  0
  140.2580   73.3130  222.6230 N   0  0  0  0  0  0  0  0  0  0  0  0
  140.6220   72.0240  222.7100 C   0  0  0  0  0  0  0  0  0  0  0  0
  139.9440   71.2110  223.6580 N   0  0  0  0  0  0  0  0  0  0  0  0
  139.1120   70.1200  223.1930 C   0  0  0  0  0  0  0  0  0  0  0  0
  138.2740   69.6450  224.3600 C   0  0  0  0  0  0  0  0  0  0  0  0
  139.2080   69.2270  225.4370 C   0  0  0  0  0  0  0  0  0  0  0  0
  139.1740   67.9880  226.0380 C   0  0  0  0  0  0  0  0  0  0  0  0
  140.1010   67.7110  227.0380 C   0  0  0  0  0  0  0  0  0  0  0  0
  141.0330   68.6630  227.4140 C   0  0  0  0  0  0  0  0  0  0  0  0
  141.0840   69.9160  226.8200 C   0  0  0  0  0  0  0  0  0  0  0  0
  140.1540   70.1610  225.8330 C   0  0  0  0  0  0  0  0  0  0  0  0
  140.0930   71.4750  225.0980 C   0  0  0  0  0  0  0  0  0  0  0  0
  141.5930   71.5280  221.9240 N   0  0  0  0  0  0  0  0  0  0  0  0
  144.2850   72.6530  219.7750 C   0  0  0  0  0  0  0  0  0  0  0  0
  146.0860   74.0780  218.4100 H   0  0  0  0  0  0  0  0  0  0  0  0
  146.1087   70.5626  217.8890 H   0  0  0  0  0  0  0  0  0  0  0  0
  144.3079   69.0020  218.5626 H   0  0  0  0  0  0  0  0  0  0  0  0
  142.4846   69.8175  220.0326 H   0  0  0  0  0  0  0  0  0  0  0  0
  138.4481   75.7722  221.3025 H   0  0  0  0  0  0  0  0  0  0  0  0
  138.9163   75.2710  222.9731 H   0  0  0  0  0  0  0  0  0  0  0  0
  138.1759   77.6951  222.8243 H   0  0  0  0  0  0  0  0  0  0  0  0
  139.8187   77.5254  223.4453 H   0  0  0  0  0  0  0  0  0  0  0  0
  139.1762   77.8017  220.4501 H   0  0  0  0  0  0  0  0  0  0  0  0
  140.9807   80.0060  220.1839 H   0  0  0  0  0  0  0  0  0  0  0  0
  139.2759   80.0740  219.4516 H   0  0  0  0  0  0  0  0  0  0  0  0
  140.6699   82.2020  219.8407 H   0  0  0  0  0  0  0  0  0  0  0  0
  138.8744   82.0870  220.1534 H   0  0  0  0  0  0  0  0  0  0  0  0
  141.0525   81.8987  222.2986 H   0  0  0  0  0  0  0  0  0  0  0  0
  140.0771   83.3252  222.0104 H   0  0  0  0  0  0  0  0  0  0  0  0
  138.8996   81.9156  223.6944 H   0  0  0  0  0  0  0  0  0  0  0  0
  137.9691   81.7938  222.1789 H   0  0  0  0  0  0  0  0  0  0  0  0
  140.0635   79.9021  223.2536 H   0  0  0  0  0  0  0  0  0  0  0  0
  138.2480   79.6435  223.0004 H   0  0  0  0  0  0  0  0  0  0  0  0
  141.6456   78.4330  220.4824 H   0  0  0  0  0  0  0  0  0  0  0  0
  141.6517   78.1301  222.2599 H   0  0  0  0  0  0  0  0  0  0  0  0
  141.4348   76.2382  219.9681 H   0  0  0  0  0  0  0  0  0  0  0  0
  142.3945   76.1745  221.5458 H   0  0  0  0  0  0  0  0  0  0  0  0
  138.4578   70.4688  222.3804 H   0  0  0  0  0  0  0  0  0  0  0  0
  139.7354   69.2990  222.8092 H   0  0  0  0  0  0  0  0  0  0  0  0
  137.6297   70.4618  224.7173 H   0  0  0  0  0  0  0  0  0  0  0  0
  137.6286   68.8067  224.0588 H   0  0  0  0  0  0  0  0  0  0  0  0
  138.4315   67.2353  225.7345 H   0  0  0  0  0  0  0  0  0  0  0  0
  140.0932   66.7288  227.5332 H   0  0  0  0  0  0  0  0  0  0  0  0
  141.7548   68.4189  228.2074 H   0  0  0  0  0  0  0  0  0  0  0  0
  141.8252   70.6714  227.1201 H   0  0  0  0  0  0  0  0  0  0  0  0
  139.2327   72.0590  225.4570 H   0  0  0  0  0  0  0  0  0  0  0  0
  141.0163   72.0452  225.2781 H   0  0  0  0  0  0  0  0  0  0  0  0
  144.2669   73.6941  220.1295 H   0  0  0  0  0  0  0  0  0  0  0  0
  1  2  1  0
  2  3  2  0
  3  4  1  0
  4  5  2  0
  5  6  1  0
  6  7  1  0
  7  8  2  0
  8  9  1  0
  9 10  1  0
 10 11  1  0
 11 12  1  0
 12 13  1  0
 13 14  1  0
 14 15  1  0
 15 16  1  0
 16 17  1  0
 17 18  1  0
 18 19  1  0
 13 20  1  0
 20 21  1  0
  9 22  2  0
 22 23  1  0
 23 24  1  0
 24 25  1  0
 25 26  1  0
 26 27  1  0
 27 28  2  0
 28 29  1  0
 29 30  2  0
 30 31  1  0
 31 32  2  0
 32 33  1  0
 23 34  2  0
  6 35  2  0
 35  2  1  0
 34  7  1  0
 21 10  1  0
 33 24  1  0
 19 14  1  0
 32 27  1  0
  1 36  1  0
  3 37  1  0
  4 38  1  0
  5 39  1  0
 11 40  1  0
 11 41  1  0
 12 42  1  0
 12 43  1  0
 13 44  1  0
 15 45  1  0
 15 46  1  0
 16 47  1  0
 16 48  1  0
 17 49  1  0
 17 50  1  0
 18 51  1  0
 18 52  1  0
 19 53  1  0
 19 54  1  0
 20 55  1  0
 20 56  1  0
 21 57  1  0
 21 58  1  0
 25 59  1  0
 25 60  1  0
 26 61  1  0
 26 62  1  0
 28 63  1  0
 29 64  1  0
 30 65  1  0
 31 66  1  0
 33 67  1  0
 33 68  1  0
 35 69  1  0
M  END
>  <smiles>  (27) 
Oc1cccc(-c2nc(N3CCC(N4CCCCC4)CC3)nc(N3CCc4ccccc4C3)n2)c1

>  <score_type>  (27) 
oracle

>  <origin>  (27) 
autodockgpu

>  <m_score__min__energy>  (27) 
-9.9499999999999993

>  <m_primary>  (27) 
energy

>  <rmsd>  (27) 
5.562940617108651

>  <m_score__min__rmsd>  (27) 
5.562940617108651

>  <meeko>  (27) 
{"free_energy": -9.8, "intermolecular_energy": -11.3, "internal_energy": -1.12, "cluster_size": 46, "cluster_id": 1, "rank_in_cluster": 25}

>  <energy>  (27) 
-9.75

>  <cluster_rmsd>  (27) 
0.48

>  <cluster>  (27) 
1

$$$$

     RDKit          3D

 69 74  0  0  0  0  0  0  0  0999 V2000
  144.6580   74.3960  217.1390 O   0  0  0  0  0  0  0  0  0  0  0  0
  144.5940   73.7430  218.3470 C   0  0  0  0  0  0  0  0  0  0  0  0
  145.6410   72.9810  218.8180 C   0  0  0  0  0  0  0  0  0  0  0  0
  145.5830   72.3210  220.0340 C   0  0  0  0  0  0  0  0  0  0  0  0
  144.4460   72.4320  220.7890 C   0  0  0  0  0  0  0  0  0  0  0  0
  143.3900   73.1860  220.3400 C   0  0  0  0  0  0  0  0  0  0  0  0
  142.1710   73.3240  221.1210 C   0  0  0  0  0  0  0  0  0  0  0  0
  141.5490   74.4990  221.2390 N   0  0  0  0  0  0  0  0  0  0  0  0
  140.4190   74.6830  221.9480 C   0  0  0  0  0  0  0  0  0  0  0  0
  139.7840   75.9750  222.0460 N   0  0  0  0  0  0  0  0  0  0  0  0
  138.3430   76.0550  221.9360 C   0  0  0  0  0  0  0  0  0  0  0  0
  137.8070   77.2720  222.7000 C   0  0  0  0  0  0  0  0  0  0  0  0
  138.5610   78.4530  222.1340 C   0  0  0  0  0  0  0  0  0  0  0  0
  137.9630   79.7120  222.3630 N   0  0  0  0  0  0  0  0  0  0  0  0
  138.4520   80.4690  223.4430 C   0  0  0  0  0  0  0  0  0  0  0  0
  137.6490   81.6350  223.8700 C   0  0  0  0  0  0  0  0  0  0  0  0
  136.1400   81.4170  223.7320 C   0  0  0  0  0  0  0  0  0  0  0  0
  135.9630   81.1370  222.2430 C   0  0  0  0  0  0  0  0  0  0  0  0
  136.6180   79.8470  221.9500 C   0  0  0  0  0  0  0  0  0  0  0  0
  139.9680   78.3490  222.7160 C   0  0  0  0  0  0  0  0  0  0  0  0
  140.6330   77.1040  222.2440 C   0  0  0  0  0  0  0  0  0  0  0  0
  139.8760   73.6230  222.5800 N   0  0  0  0  0  0  0  0  0  0  0  0
  140.4720   72.4250  222.4840 C   0  0  0  0  0  0  0  0  0  0  0  0
  139.8670   71.3320  223.1630 N   0  0  0  0  0  0  0  0  0  0  0  0
  139.5910   70.1090  222.4360 C   0  0  0  0  0  0  0  0  0  0  0  0
  138.6730   69.2600  223.2870 C   0  0  0  0  0  0  0  0  0  0  0  0
  139.3670   69.0100  224.5760 C   0  0  0  0  0  0  0  0  0  0  0  0
  139.5760   67.7520  225.0980 C   0  0  0  0  0  0  0  0  0  0  0  0
  140.2380   67.6430  226.3170 C   0  0  0  0  0  0  0  0  0  0  0  0
  140.6740   68.7750  226.9840 C   0  0  0  0  0  0  0  0  0  0  0  0
  140.4730   70.0500  226.4730 C   0  0  0  0  0  0  0  0  0  0  0  0
  139.8150   70.1260  225.2660 C   0  0  0  0  0  0  0  0  0  0  0  0
  139.5300   71.4430  224.5910 C   0  0  0  0  0  0  0  0  0  0  0  0
  141.6000   72.2710  221.7700 N   0  0  0  0  0  0  0  0  0  0  0  0
  143.4670   73.8290  219.1400 C   0  0  0  0  0  0  0  0  0  0  0  0
  145.1970   75.2530  217.0680 H   0  0  0  0  0  0  0  0  0  0  0  0
  146.5525   72.8942  218.2083 H   0  0  0  0  0  0  0  0  0  0  0  0
  146.4337   71.7193  220.3866 H   0  0  0  0  0  0  0  0  0  0  0  0
  144.3785   71.9157  221.7579 H   0  0  0  0  0  0  0  0  0  0  0  0
  138.0664   76.1443  220.8751 H   0  0  0  0  0  0  0  0  0  0  0  0
  137.9044   75.1442  222.3698 H   0  0  0  0  0  0  0  0  0  0  0  0
  136.7259   77.3877  222.5331 H   0  0  0  0  0  0  0  0  0  0  0  0
  137.9495   77.1732  223.7862 H   0  0  0  0  0  0  0  0  0  0  0  0
  138.5615   78.4031  221.0351 H   0  0  0  0  0  0  0  0  0  0  0  0
  138.5405   79.7940  224.3070 H   0  0  0  0  0  0  0  0  0  0  0  0
  139.4008   80.8945  223.0842 H   0  0  0  0  0  0  0  0  0  0  0  0
  137.8757   81.8469  224.9253 H   0  0  0  0  0  0  0  0  0  0  0  0
  137.9177   82.4735  223.2107 H   0  0  0  0  0  0  0  0  0  0  0  0
  135.8083   80.5600  224.3367 H   0  0  0  0  0  0  0  0  0  0  0  0
  135.5464   82.2739  224.0833 H   0  0  0  0  0  0  0  0  0  0  0  0
  134.8924   81.0784  221.9971 H   0  0  0  0  0  0  0  0  0  0  0  0
  136.4109   81.9426  221.6427 H   0  0  0  0  0  0  0  0  0  0  0  0
  136.0356   79.0567  222.4462 H   0  0  0  0  0  0  0  0  0  0  0  0
  136.6432   79.7772  220.8525 H   0  0  0  0  0  0  0  0  0  0  0  0
  140.5586   79.2197  222.3948 H   0  0  0  0  0  0  0  0  0  0  0  0
  139.8996   78.3234  223.8136 H   0  0  0  0  0  0  0  0  0  0  0  0
  141.1235   77.3278  221.2852 H   0  0  0  0  0  0  0  0  0  0  0  0
  141.3250   76.8155  223.0489 H   0  0  0  0  0  0  0  0  0  0  0  0
  139.1019   70.3450  221.4794 H   0  0  0  0  0  0  0  0  0  0  0  0
  140.5259   69.5693  222.2247 H   0  0  0  0  0  0  0  0  0  0  0  0
  137.7273   69.7925  223.4663 H   0  0  0  0  0  0  0  0  0  0  0  0
  138.4410   68.3115  222.7806 H   0  0  0  0  0  0  0  0  0  0  0  0
  139.2279   66.8556  224.5639 H   0  0  0  0  0  0  0  0  0  0  0  0
  140.4163   66.6495  226.7541 H   0  0  0  0  0  0  0  0  0  0  0  0
  141.1945   68.6610  227.9463 H   0  0  0  0  0  0  0  0  0  0  0  0
  140.8201   70.9493  227.0028 H   0  0  0  0  0  0  0  0  0  0  0  0
  138.4637   71.6903  224.7002 H   0  0  0  0  0  0  0  0  0  0  0  0
  140.1339   72.2368  225.0548 H   0  0  0  0  0  0  0  0  0  0  0  0
  142.6121   74.4297  218.7960 H   0  0  0  0  0  0  0  0  0  0  0  0
  1  2  1  0
  2  3  2  0
  3  4  1  0
  4  5  2  0
  5  6  1  0
  6  7  1  0
  7  8  2  0
  8  9  1  0
  9 10  1  0
 10 11  1  0
 11 12  1  0
 12 13  1  0
 13 14  1  0
 14 15  1  0
 15 16  1  0
 16 17  1  0
 17 18  1  0
 18 19  1  0
 13 20  1  0
 20 21  1  0
  9 22  2  0
 22 23  1  0
 23 24  1  0
 24 25  1  0
 25 26  1  0
 26 27  1  0
 27 28  2  0
 28 29  1  0
 29 30  2  0
 30 31  1  0
 31 32  2  0
 32 33  1  0
 23 34  2  0
  6 35  2  0
 35  2  1  0
 34  7  1  0
 21 10  1  0
 33 24  1  0
 19 14  1  0
 32 27  1  0
  1 36  1  0
  3 37  1  0
  4 38  1  0
  5 39  1  0
 11 40  1  0
 11 41  1  0
 12 42  1  0
 12 43  1  0
 13 44  1  0
 15 45  1  0
 15 46  1  0
 16 47  1  0
 16 48  1  0
 17 49  1  0
 17 50  1  0
 18 51  1  0
 18 52  1  0
 19 53  1  0
 19 54  1  0
 20 55  1  0
 20 56  1  0
 21 57  1  0
 21 58  1  0
 25 59  1  0
 25 60  1  0
 26 61  1  0
 26 62  1  0
 28 63  1  0
 29 64  1  0
 30 65  1  0
 31 66  1  0
 33 67  1  0
 33 68  1  0
 35 69  1  0
M  END
>  <smiles>  (28) 
Oc1cccc(-c2nc(N3CCC(N4CCCCC4)CC3)nc(N3CCc4ccccc4C3)n2)c1

>  <score_type>  (28) 
oracle

>  <origin>  (28) 
autodockgpu

>  <m_score__min__energy>  (28) 
-9.9499999999999993

>  <m_primary>  (28) 
energy

>  <rmsd>  (28) 
6.282542308947906

>  <m_score__min__rmsd>  (28) 
6.282542308947906

>  <meeko>  (28) 
{"free_energy": -8.77, "intermolecular_energy": -10.26, "internal_energy": -1.12, "cluster_size": 46, "cluster_id": 1, "rank_in_cluster": 43}

>  <energy>  (28) 
-9.71

>  <cluster_rmsd>  (28) 
0.47

>  <cluster>  (28) 
1

$$$$

     RDKit          3D

 69 74  0  0  0  0  0  0  0  0999 V2000
  146.3150   73.0260  217.9040 O   0  0  0  0  0  0  0  0  0  0  0  0
  145.4630   72.1620  218.5500 C   0  0  0  0  0  0  0  0  0  0  0  0
  145.5900   70.7950  218.4350 C   0  0  0  0  0  0  0  0  0  0  0  0
  144.7350   69.9200  219.0830 C   0  0  0  0  0  0  0  0  0  0  0  0
  143.7340   70.4330  219.8630 C   0  0  0  0  0  0  0  0  0  0  0  0
  143.5890   71.7920  219.9920 C   0  0  0  0  0  0  0  0  0  0  0  0
  142.5360   72.3670  220.8150 C   0  0  0  0  0  0  0  0  0  0  0  0
  142.2360   73.6670  220.7530 N   0  0  0  0  0  0  0  0  0  0  0  0
  141.2730   74.2510  221.4900 C   0  0  0  0  0  0  0  0  0  0  0  0
  140.9860   75.6610  221.3870 N   0  0  0  0  0  0  0  0  0  0  0  0
  139.9960   76.2400  222.2710 C   0  0  0  0  0  0  0  0  0  0  0  0
  140.2870   77.7250  222.5150 C   0  0  0  0  0  0  0  0  0  0  0  0
  140.3560   78.3420  221.1360 C   0  0  0  0  0  0  0  0  0  0  0  0
  140.1940   79.7450  221.0980 N   0  0  0  0  0  0  0  0  0  0  0  0
  141.0500   80.4670  220.2480 C   0  0  0  0  0  0  0  0  0  0  0  0
  141.0920   81.9350  220.4190 C   0  0  0  0  0  0  0  0  0  0  0  0
  140.9310   82.3820  221.8760 C   0  0  0  0  0  0  0  0  0  0  0  0
  139.5690   81.8160  222.2650 C   0  0  0  0  0  0  0  0  0  0  0  0
  139.6820   80.3440  222.2720 C   0  0  0  0  0  0  0  0  0  0  0  0
  141.6910   77.8820  220.5560 C   0  0  0  0  0  0  0  0  0  0  0  0
  141.7060   76.4020  220.4040 C   0  0  0  0  0  0  0  0  0  0  0  0
  140.5630   73.4860  222.3450 N   0  0  0  0  0  0  0  0  0  0  0  0
  140.8350   72.1750  222.4350 C   0  0  0  0  0  0  0  0  0  0  0  0
  140.0640   71.4030  223.3450 N   0  0  0  0  0  0  0  0  0  0  0  0
  139.0680   70.4840  222.8310 C   0  0  0  0  0  0  0  0  0  0  0  0
  138.1930   70.0530  223.9870 C   0  0  0  0  0  0  0  0  0  0  0  0
  139.0760   69.4230  225.0020 C   0  0  0  0  0  0  0  0  0  0  0  0
  138.8690   68.1620  225.5170 C   0  0  0  0  0  0  0  0  0  0  0  0
  139.7650   67.6790  226.4650 C   0  0  0  0  0  0  0  0  0  0  0  0
  140.8370   68.4520  226.8770 C   0  0  0  0  0  0  0  0  0  0  0  0
  141.0620   69.7240  226.3700 C   0  0  0  0  0  0  0  0  0  0  0  0
  140.1590   70.1750  225.4330 C   0  0  0  0  0  0  0  0  0  0  0  0
  140.2800   71.5350  224.7940 C   0  0  0  0  0  0  0  0  0  0  0  0
  141.8030   71.6190  221.6860 N   0  0  0  0  0  0  0  0  0  0  0  0
  144.4410   72.6380  219.3460 C   0  0  0  0  0  0  0  0  0  0  0  0
  146.2270   74.0240  218.0690 H   0  0  0  0  0  0  0  0  0  0  0  0
  146.3963   70.3858  217.8085 H   0  0  0  0  0  0  0  0  0  0  0  0
  144.8578   68.8324  218.9730 H   0  0  0  0  0  0  0  0  0  0  0  0
  143.0445   69.7551  220.3874 H   0  0  0  0  0  0  0  0  0  0  0  0
  139.0006   76.1378  221.8141 H   0  0  0  0  0  0  0  0  0  0  0  0
  140.0309   75.7107  223.2346 H   0  0  0  0  0  0  0  0  0  0  0  0
  139.4804   78.1853  223.1046 H   0  0  0  0  0  0  0  0  0  0  0  0
  141.2173   77.8760  223.0823 H   0  0  0  0  0  0  0  0  0  0  0  0
  139.5016   78.0026  220.5319 H   0  0  0  0  0  0  0  0  0  0  0  0
  142.0701   80.0864  220.4047 H   0  0  0  0  0  0  0  0  0  0  0  0
  140.6438   80.3109  219.2377 H   0  0  0  0  0  0  0  0  0  0  0  0
  142.0597   82.3021  220.0464 H   0  0  0  0  0  0  0  0  0  0  0  0
  140.2446   82.3523  219.8554 H   0  0  0  0  0  0  0  0  0  0  0  0
  141.7277   81.9624  222.5078 H   0  0  0  0  0  0  0  0  0  0  0  0
  140.9974   83.4727  222.0028 H   0  0  0  0  0  0  0  0  0  0  0  0
  139.2856   82.1751  223.2654 H   0  0  0  0  0  0  0  0  0  0  0  0
  138.7979   82.1406  221.5509 H   0  0  0  0  0  0  0  0  0  0  0  0
  140.3425   80.0635  223.1057 H   0  0  0  0  0  0  0  0  0  0  0  0
  138.6503   79.9732  222.3618 H   0  0  0  0  0  0  0  0  0  0  0  0
  141.8390   78.3493  219.5713 H   0  0  0  0  0  0  0  0  0  0  0  0
  142.4995   78.1795  221.2399 H   0  0  0  0  0  0  0  0  0  0  0  0
  141.2760   76.1612  219.4206 H   0  0  0  0  0  0  0  0  0  0  0  0
  142.7582   76.1044  220.5232 H   0  0  0  0  0  0  0  0  0  0  0  0
  138.4566   70.9849  222.0659 H   0  0  0  0  0  0  0  0  0  0  0  0
  139.5534   69.6105  222.3713 H   0  0  0  0  0  0  0  0  0  0  0  0
  137.6856   70.9273  224.4208 H   0  0  0  0  0  0  0  0  0  0  0  0
  137.4233   69.3439  223.6481 H   0  0  0  0  0  0  0  0  0  0  0  0
  138.0156   67.5518  225.1864 H   0  0  0  0  0  0  0  0  0  0  0  0
  139.6206   66.6750  226.8906 H   0  0  0  0  0  0  0  0  0  0  0  0
  141.5306   68.0461  227.6281 H   0  0  0  0  0  0  0  0  0  0  0  0
  141.9139   70.3377  226.6981 H   0  0  0  0  0  0  0  0  0  0  0  0
  139.5241   72.2113  225.2197 H   0  0  0  0  0  0  0  0  0  0  0  0
  141.2815   71.9480  224.9848 H   0  0  0  0  0  0  0  0  0  0  0  0
  144.3109   73.7241  219.4618 H   0  0  0  0  0  0  0  0  0  0  0  0
  1  2  1  0
  2  3  2  0
  3  4  1  0
  4  5  2  0
  5  6  1  0
  6  7  1  0
  7  8  2  0
  8  9  1  0
  9 10  1  0
 10 11  1  0
 11 12  1  0
 12 13  1  0
 13 14  1  0
 14 15  1  0
 15 16  1  0
 16 17  1  0
 17 18  1  0
 18 19  1  0
 13 20  1  0
 20 21  1  0
  9 22  2  0
 22 23  1  0
 23 24  1  0
 24 25  1  0
 25 26  1  0
 26 27  1  0
 27 28  2  0
 28 29  1  0
 29 30  2  0
 30 31  1  0
 31 32  2  0
 32 33  1  0
 23 34  2  0
  6 35  2  0
 35  2  1  0
 34  7  1  0
 21 10  1  0
 33 24  1  0
 19 14  1  0
 32 27  1  0
  1 36  1  0
  3 37  1  0
  4 38  1  0
  5 39  1  0
 11 40  1  0
 11 41  1  0
 12 42  1  0
 12 43  1  0
 13 44  1  0
 15 45  1  0
 15 46  1  0
 16 47  1  0
 16 48  1  0
 17 49  1  0
 17 50  1  0
 18 51  1  0
 18 52  1  0
 19 53  1  0
 19 54  1  0
 20 55  1  0
 20 56  1  0
 21 57  1  0
 21 58  1  0
 25 59  1  0
 25 60  1  0
 26 61  1  0
 26 62  1  0
 28 63  1  0
 29 64  1  0
 30 65  1  0
 31 66  1  0
 33 67  1  0
 33 68  1  0
 35 69  1  0
M  END
>  <smiles>  (29) 
Oc1cccc(-c2nc(N3CCC(N4CCCCC4)CC3)nc(N3CCc4ccccc4C3)n2)c1

>  <score_type>  (29) 
oracle

>  <origin>  (29) 
autodockgpu

>  <m_score__min__energy>  (29) 
-9.9499999999999993

>  <m_primary>  (29) 
energy

>  <rmsd>  (29) 
5.5206931657543326

>  <m_score__min__rmsd>  (29) 
5.5206931657543326

>  <meeko>  (29) 
{"free_energy": -9.93, "intermolecular_energy": -11.43, "internal_energy": -1.12, "cluster_size": 46, "cluster_id": 1, "rank_in_cluster": 11}

>  <energy>  (29) 
-9.69

>  <cluster_rmsd>  (29) 
0.44

>  <cluster>  (29) 
1

$$$$

     RDKit          3D

 69 74  0  0  0  0  0  0  0  0999 V2000
  146.3150   73.0360  218.2330 O   0  0  0  0  0  0  0  0  0  0  0  0
  145.3870   72.1660  218.7530 C   0  0  0  0  0  0  0  0  0  0  0  0
  145.4390   70.8130  218.5010 C   0  0  0  0  0  0  0  0  0  0  0  0
  144.5080   69.9300  219.0220 C   0  0  0  0  0  0  0  0  0  0  0  0
  143.5050   70.4230  219.8130 C   0  0  0  0  0  0  0  0  0  0  0  0
  143.4330   71.7680  220.0780 C   0  0  0  0  0  0  0  0  0  0  0  0
  142.3810   72.3210  220.9160 C   0  0  0  0  0  0  0  0  0  0  0  0
  142.0410   73.6100  220.8460 N   0  0  0  0  0  0  0  0  0  0  0  0
  141.0760   74.1730  221.5970 C   0  0  0  0  0  0  0  0  0  0  0  0
  140.7440   75.5740  221.4850 N   0  0  0  0  0  0  0  0  0  0  0  0
  139.6620   76.1030  222.2880 C   0  0  0  0  0  0  0  0  0  0  0  0
  139.8740   77.5940  222.5700 C   0  0  0  0  0  0  0  0  0  0  0  0
  140.0360   78.2320  221.2090 C   0  0  0  0  0  0  0  0  0  0  0  0
  139.8230   79.6280  221.1720 N   0  0  0  0  0  0  0  0  0  0  0  0
  140.6090   80.3730  220.2740 C   0  0  0  0  0  0  0  0  0  0  0  0
  140.6080   81.8430  220.4350 C   0  0  0  0  0  0  0  0  0  0  0  0
  140.5090   82.2950  221.8950 C   0  0  0  0  0  0  0  0  0  0  0  0
  139.1900   81.6860  222.3590 C   0  0  0  0  0  0  0  0  0  0  0  0
  139.3540   80.2190  222.3680 C   0  0  0  0  0  0  0  0  0  0  0  0
  141.4310   77.8310  220.7400 C   0  0  0  0  0  0  0  0  0  0  0  0
  141.5170   76.3540  220.5740 C   0  0  0  0  0  0  0  0  0  0  0  0
  140.4070   73.3980  222.4750 N   0  0  0  0  0  0  0  0  0  0  0  0
  140.7200   72.0970  222.5730 C   0  0  0  0  0  0  0  0  0  0  0  0
  139.9910   71.3130  223.5070 N   0  0  0  0  0  0  0  0  0  0  0  0
  139.0500   70.3230  223.0230 C   0  0  0  0  0  0  0  0  0  0  0  0
  138.1980   69.8810  224.1920 C   0  0  0  0  0  0  0  0  0  0  0  0
  139.1130   69.3360  225.2280 C   0  0  0  0  0  0  0  0  0  0  0  0
  138.9760   68.0820  225.7830 C   0  0  0  0  0  0  0  0  0  0  0  0
  139.8950   67.6820  226.7480 C   0  0  0  0  0  0  0  0  0  0  0  0
  140.9200   68.5270  227.1350 C   0  0  0  0  0  0  0  0  0  0  0  0
  141.0740   69.7930  226.5870 C   0  0  0  0  0  0  0  0  0  0  0  0
  140.1500   70.1620  225.6350 C   0  0  0  0  0  0  0  0  0  0  0  0
  140.1950   71.5040  224.9510 C   0  0  0  0  0  0  0  0  0  0  0  0
  141.6890   71.5620  221.8100 N   0  0  0  0  0  0  0  0  0  0  0  0
  144.3610   72.6210  219.5550 C   0  0  0  0  0  0  0  0  0  0  0  0
  146.1600   74.0360  218.3200 H   0  0  0  0  0  0  0  0  0  0  0  0
  146.2464   70.4209  217.8651 H   0  0  0  0  0  0  0  0  0  0  0  0
  144.5730   68.8537  218.8046 H   0  0  0  0  0  0  0  0  0  0  0  0
  142.7549   69.7394  220.2373 H   0  0  0  0  0  0  0  0  0  0  0  0
  138.7131   75.9692  221.7480 H   0  0  0  0  0  0  0  0  0  0  0  0
  139.6362   75.5627  223.2458 H   0  0  0  0  0  0  0  0  0  0  0  0
  139.0032   78.0159  223.0933 H   0  0  0  0  0  0  0  0  0  0  0  0
  140.7467   77.7718  223.2155 H   0  0  0  0  0  0  0  0  0  0  0  0
  139.2499   77.8688  220.5307 H   0  0  0  0  0  0  0  0  0  0  0  0
  141.6485   80.0291  220.3799 H   0  0  0  0  0  0  0  0  0  0  0  0
  140.1576   80.1953  219.2868 H   0  0  0  0  0  0  0  0  0  0  0  0
  141.5409   82.2410  220.0093 H   0  0  0  0  0  0  0  0  0  0  0  0
  139.7173   82.2259  219.9154 H   0  0  0  0  0  0  0  0  0  0  0  0
  141.3520   81.9076  222.4860 H   0  0  0  0  0  0  0  0  0  0  0  0
  140.5444   83.3882  222.0117 H   0  0  0  0  0  0  0  0  0  0  0  0
  138.9478   82.0425  223.3710 H   0  0  0  0  0  0  0  0  0  0  0  0
  138.3713   81.9789  221.6853 H   0  0  0  0  0  0  0  0  0  0  0  0
  140.0673   79.9676  223.1668 H   0  0  0  0  0  0  0  0  0  0  0  0
  138.3417   79.8144  222.5145 H   0  0  0  0  0  0  0  0  0  0  0  0
  141.6433   78.3172  219.7764 H   0  0  0  0  0  0  0  0  0  0  0  0
  142.1665   78.1492  221.4935 H   0  0  0  0  0  0  0  0  0  0  0  0
  141.1823   76.1103  219.5549 H   0  0  0  0  0  0  0  0  0  0  0  0
  142.5661   76.0942  220.7788 H   0  0  0  0  0  0  0  0  0  0  0  0
  138.4131   70.7633  222.2417 H   0  0  0  0  0  0  0  0  0  0  0  0
  139.5852   69.4639  222.5924 H   0  0  0  0  0  0  0  0  0  0  0  0
  137.6405   70.7387  224.5964 H   0  0  0  0  0  0  0  0  0  0  0  0
  137.4709   69.1184  223.8761 H   0  0  0  0  0  0  0  0  0  0  0  0
  138.1600   67.4137  225.4707 H   0  0  0  0  0  0  0  0  0  0  0  0
  139.8060   66.6862  227.2068 H   0  0  0  0  0  0  0  0  0  0  0  0
  141.6337   68.1856  227.8992 H   0  0  0  0  0  0  0  0  0  0  0  0
  141.8889   70.4642  226.8960 H   0  0  0  0  0  0  0  0  0  0  0  0
  139.4006   72.1498  225.3534 H   0  0  0  0  0  0  0  0  0  0  0  0
  141.1712   71.9789  225.1286 H   0  0  0  0  0  0  0  0  0  0  0  0
  144.2892   73.6958  219.7780 H   0  0  0  0  0  0  0  0  0  0  0  0
  1  2  1  0
  2  3  2  0
  3  4  1  0
  4  5  2  0
  5  6  1  0
  6  7  1  0
  7  8  2  0
  8  9  1  0
  9 10  1  0
 10 11  1  0
 11 12  1  0
 12 13  1  0
 13 14  1  0
 14 15  1  0
 15 16  1  0
 16 17  1  0
 17 18  1  0
 18 19  1  0
 13 20  1  0
 20 21  1  0
  9 22  2  0
 22 23  1  0
 23 24  1  0
 24 25  1  0
 25 26  1  0
 26 27  1  0
 27 28  2  0
 28 29  1  0
 29 30  2  0
 30 31  1  0
 31 32  2  0
 32 33  1  0
 23 34  2  0
  6 35  2  0
 35  2  1  0
 34  7  1  0
 21 10  1  0
 33 24  1  0
 19 14  1  0
 32 27  1  0
  1 36  1  0
  3 37  1  0
  4 38  1  0
  5 39  1  0
 11 40  1  0
 11 41  1  0
 12 42  1  0
 12 43  1  0
 13 44  1  0
 15 45  1  0
 15 46  1  0
 16 47  1  0
 16 48  1  0
 17 49  1  0
 17 50  1  0
 18 51  1  0
 18 52  1  0
 19 53  1  0
 19 54  1  0
 20 55  1  0
 20 56  1  0
 21 57  1  0
 21 58  1  0
 25 59  1  0
 25 60  1  0
 26 61  1  0
 26 62  1  0
 28 63  1  0
 29 64  1  0
 30 65  1  0
 31 66  1  0
 33 67  1  0
 33 68  1  0
 35 69  1  0
M  END
>  <smiles>  (30) 
Oc1cccc(-c2nc(N3CCC(N4CCCCC4)CC3)nc(N3CCc4ccccc4C3)n2)c1

>  <score_type>  (30) 
oracle

>  <origin>  (30) 
autodockgpu

>  <m_score__min__energy>  (30) 
-9.9499999999999993

>  <m_primary>  (30) 
energy

>  <rmsd>  (30) 
5.519499999196803

>  <m_score__min__rmsd>  (30) 
5.519499999196803

>  <meeko>  (30) 
{"free_energy": -9.94, "intermolecular_energy": -11.44, "internal_energy": -1.12, "cluster_size": 46, "cluster_id": 1, "rank_in_cluster": 4}

>  <energy>  (30) 
-9.68

>  <cluster_rmsd>  (30) 
0.59

>  <cluster>  (30) 
1

$$$$

     RDKit          3D

 69 74  0  0  0  0  0  0  0  0999 V2000
  146.3150   73.0240  217.8530 O   0  0  0  0  0  0  0  0  0  0  0  0
  145.5080   72.1680  218.5640 C   0  0  0  0  0  0  0  0  0  0  0  0
  145.6900   70.8030  218.5330 C   0  0  0  0  0  0  0  0  0  0  0  0
  144.8820   69.9350  219.2470 C   0  0  0  0  0  0  0  0  0  0  0  0
  143.8690   70.4550  220.0080 C   0  0  0  0  0  0  0  0  0  0  0  0
  143.6690   71.8130  220.0550 C   0  0  0  0  0  0  0  0  0  0  0  0
  142.6030   72.3940  220.8560 C   0  0  0  0  0  0  0  0  0  0  0  0
  142.3070   73.6940  220.7810 N   0  0  0  0  0  0  0  0  0  0  0  0
  141.3320   74.2840  221.4990 C   0  0  0  0  0  0  0  0  0  0  0  0
  141.0500   75.6950  221.3830 N   0  0  0  0  0  0  0  0  0  0  0  0
  140.1020   76.2960  222.2970 C   0  0  0  0  0  0  0  0  0  0  0  0
  140.4120   77.7830  222.5020 C   0  0  0  0  0  0  0  0  0  0  0  0
  140.4280   78.3750  221.1110 C   0  0  0  0  0  0  0  0  0  0  0  0
  140.2730   79.7780  221.0550 N   0  0  0  0  0  0  0  0  0  0  0  0
  141.0300   80.4700  220.0930 C   0  0  0  0  0  0  0  0  0  0  0  0
  141.1030   81.9410  220.2190 C   0  0  0  0  0  0  0  0  0  0  0  0
  141.1150   82.4260  221.6720 C   0  0  0  0  0  0  0  0  0  0  0  0
  139.8030   81.8850  222.2310 C   0  0  0  0  0  0  0  0  0  0  0  0
  139.9050   80.4130  222.2630 C   0  0  0  0  0  0  0  0  0  0  0  0
  141.7340   77.8960  220.4830 C   0  0  0  0  0  0  0  0  0  0  0  0
  141.7330   76.4130  220.3570 C   0  0  0  0  0  0  0  0  0  0  0  0
  140.6060   73.5260  222.3450 N   0  0  0  0  0  0  0  0  0  0  0  0
  140.8740   72.2150  222.4470 C   0  0  0  0  0  0  0  0  0  0  0  0
  140.0850   71.4490  223.3470 N   0  0  0  0  0  0  0  0  0  0  0  0
  139.0790   70.5490  222.8220 C   0  0  0  0  0  0  0  0  0  0  0  0
  138.1900   70.1240  223.9710 C   0  0  0  0  0  0  0  0  0  0  0  0
  139.0580   69.4760  224.9870 C   0  0  0  0  0  0  0  0  0  0  0  0
  138.8280   68.2150  225.4930 C   0  0  0  0  0  0  0  0  0  0  0  0
  139.7100   67.7120  226.4450 C   0  0  0  0  0  0  0  0  0  0  0  0
  140.7910   68.4670  226.8680 C   0  0  0  0  0  0  0  0  0  0  0  0
  141.0380   69.7380  226.3700 C   0  0  0  0  0  0  0  0  0  0  0  0
  140.1490   70.2090  225.4300 C   0  0  0  0  0  0  0  0  0  0  0  0
  140.2940   71.5700  224.7990 C   0  0  0  0  0  0  0  0  0  0  0  0
  141.8540   71.6530  221.7180 N   0  0  0  0  0  0  0  0  0  0  0  0
  144.4770   72.6500  219.3440 C   0  0  0  0  0  0  0  0  0  0  0  0
  146.2190   74.0250  217.9930 H   0  0  0  0  0  0  0  0  0  0  0  0
  146.5045   70.3889  217.9205 H   0  0  0  0  0  0  0  0  0  0  0  0
  145.0502   68.8488  219.2040 H   0  0  0  0  0  0  0  0  0  0  0  0
  143.2142   69.7836  220.5828 H   0  0  0  0  0  0  0  0  0  0  0  0
  139.0877   76.1926  221.8842 H   0  0  0  0  0  0  0  0  0  0  0  0
  140.1742   75.7835  223.2676 H   0  0  0  0  0  0  0  0  0  0  0  0
  139.6333   78.2592  223.1159 H   0  0  0  0  0  0  0  0  0  0  0  0
  141.3658   77.9375  223.0277 H   0  0  0  0  0  0  0  0  0  0  0  0
  139.5472   78.0304  220.5493 H   0  0  0  0  0  0  0  0  0  0  0  0
  142.0585   80.0827  220.1404 H   0  0  0  0  0  0  0  0  0  0  0  0
  140.5075   80.2932  219.1413 H   0  0  0  0  0  0  0  0  0  0  0  0
  142.0240   82.2880  219.7277 H   0  0  0  0  0  0  0  0  0  0  0  0
  140.1995   82.3532  219.7459 H   0  0  0  0  0  0  0  0  0  0  0  0
  141.9762   82.0139  222.2183 H   0  0  0  0  0  0  0  0  0  0  0  0
  141.2039   83.5188  221.7612 H   0  0  0  0  0  0  0  0  0  0  0  0
  139.6406   82.2720  223.2478 H   0  0  0  0  0  0  0  0  0  0  0  0
  138.9564   82.2001  221.6033 H   0  0  0  0  0  0  0  0  0  0  0  0
  140.6553   80.1468  223.0221 H   0  0  0  0  0  0  0  0  0  0  0  0
  138.8873   80.0563  222.4800 H   0  0  0  0  0  0  0  0  0  0  0  0
  141.8427   78.3450  219.4847 H   0  0  0  0  0  0  0  0  0  0  0  0
  142.5730   78.1999  221.1262 H   0  0  0  0  0  0  0  0  0  0  0  0
  141.2603   76.1579  219.3970 H   0  0  0  0  0  0  0  0  0  0  0  0
  142.7873   76.1097  220.4368 H   0  0  0  0  0  0  0  0  0  0  0  0
  138.4799   71.0638  222.0565 H   0  0  0  0  0  0  0  0  0  0  0  0
  139.5539   69.6710  222.3599 H   0  0  0  0  0  0  0  0  0  0  0  0
  137.6926   71.0030  224.4068 H   0  0  0  0  0  0  0  0  0  0  0  0
  137.4120   69.4282  223.6237 H   0  0  0  0  0  0  0  0  0  0  0  0
  137.9677   67.6200  225.1526 H   0  0  0  0  0  0  0  0  0  0  0  0
  139.5473   66.7081  226.8641 H   0  0  0  0  0  0  0  0  0  0  0  0
  141.4739   68.0466  227.6210 H   0  0  0  0  0  0  0  0  0  0  0  0
  141.8969   70.3366  226.7075 H   0  0  0  0  0  0  0  0  0  0  0  0
  139.5455   72.2552  225.2236 H   0  0  0  0  0  0  0  0  0  0  0  0
  141.3004   71.9670  224.9981 H   0  0  0  0  0  0  0  0  0  0  0  0
  144.3028   73.7350  219.3934 H   0  0  0  0  0  0  0  0  0  0  0  0
  1  2  1  0
  2  3  2  0
  3  4  1  0
  4  5  2  0
  5  6  1  0
  6  7  1  0
  7  8  2  0
  8  9  1  0
  9 10  1  0
 10 11  1  0
 11 12  1  0
 12 13  1  0
 13 14  1  0
 14 15  1  0
 15 16  1  0
 16 17  1  0
 17 18  1  0
 18 19  1  0
 13 20  1  0
 20 21  1  0
  9 22  2  0
 22 23  1  0
 23 24  1  0
 24 25  1  0
 25 26  1  0
 26 27  1  0
 27 28  2  0
 28 29  1  0
 29 30  2  0
 30 31  1  0
 31 32  2  0
 32 33  1  0
 23 34  2  0
  6 35  2  0
 35  2  1  0
 34  7  1  0
 21 10  1  0
 33 24  1  0
 19 14  1  0
 32 27  1  0
  1 36  1  0
  3 37  1  0
  4 38  1  0
  5 39  1  0
 11 40  1  0
 11 41  1  0
 12 42  1  0
 12 43  1  0
 13 44  1  0
 15 45  1  0
 15 46  1  0
 16 47  1  0
 16 48  1  0
 17 49  1  0
 17 50  1  0
 18 51  1  0
 18 52  1  0
 19 53  1  0
 19 54  1  0
 20 55  1  0
 20 56  1  0
 21 57  1  0
 21 58  1  0
 25 59  1  0
 25 60  1  0
 26 61  1  0
 26 62  1  0
 28 63  1  0
 29 64  1  0
 30 65  1  0
 31 66  1  0
 33 67  1  0
 33 68  1  0
 35 69  1  0
M  END
>  <smiles>  (31) 
Oc1cccc(-c2nc(N3CCC(N4CCCCC4)CC3)nc(N3CCc4ccccc4C3)n2)c1

>  <score_type>  (31) 
oracle

>  <origin>  (31) 
autodockgpu

>  <m_score__min__energy>  (31) 
-9.9499999999999993

>  <m_primary>  (31) 
energy

>  <rmsd>  (31) 
5.522856178079448

>  <m_score__min__rmsd>  (31) 
5.522856178079448

>  <meeko>  (31) 
{"free_energy": -9.88, "intermolecular_energy": -11.37, "internal_energy": -1.13, "cluster_size": 46, "cluster_id": 1, "rank_in_cluster": 20}

>  <energy>  (31) 
-9.66

>  <cluster_rmsd>  (31) 
0.26

>  <cluster>  (31) 
1

$$$$

     RDKit          3D

 69 74  0  0  0  0  0  0  0  0999 V2000
  146.2990   73.0250  218.1830 O   0  0  0  0  0  0  0  0  0  0  0  0
  145.3880   72.1620  218.7430 C   0  0  0  0  0  0  0  0  0  0  0  0
  145.4560   70.8010  218.5400 C   0  0  0  0  0  0  0  0  0  0  0  0
  144.5410   69.9260  219.1020 C   0  0  0  0  0  0  0  0  0  0  0  0
  143.5380   70.4350  219.8830 C   0  0  0  0  0  0  0  0  0  0  0  0
  143.4510   71.7870  220.0990 C   0  0  0  0  0  0  0  0  0  0  0  0
  142.3980   72.3570  220.9250 C   0  0  0  0  0  0  0  0  0  0  0  0
  142.0730   73.6500  220.8460 N   0  0  0  0  0  0  0  0  0  0  0  0
  141.1090   74.2280  221.5860 C   0  0  0  0  0  0  0  0  0  0  0  0
  140.7940   75.6310  221.4640 N   0  0  0  0  0  0  0  0  0  0  0  0
  139.7930   76.2020  222.3400 C   0  0  0  0  0  0  0  0  0  0  0  0
  140.0550   77.6970  222.5620 C   0  0  0  0  0  0  0  0  0  0  0  0
  140.1120   78.2950  221.1750 C   0  0  0  0  0  0  0  0  0  0  0  0
  139.9220   79.6940  221.1170 N   0  0  0  0  0  0  0  0  0  0  0  0
  140.8450   80.4360  220.3580 C   0  0  0  0  0  0  0  0  0  0  0  0
  140.8350   81.9050  220.5300 C   0  0  0  0  0  0  0  0  0  0  0  0
  140.5140   82.3470  221.9600 C   0  0  0  0  0  0  0  0  0  0  0  0
  139.1330   81.7500  222.2080 C   0  0  0  0  0  0  0  0  0  0  0  0
  139.2790   80.2810  222.2300 C   0  0  0  0  0  0  0  0  0  0  0  0
  141.4550   77.8540  220.6000 C   0  0  0  0  0  0  0  0  0  0  0  0
  141.5000   76.3720  220.4690 C   0  0  0  0  0  0  0  0  0  0  0  0
  140.4250   73.4650  222.4630 N   0  0  0  0  0  0  0  0  0  0  0  0
  140.7220   72.1610  222.5710 C   0  0  0  0  0  0  0  0  0  0  0  0
  139.9770   71.3900  223.5030 N   0  0  0  0  0  0  0  0  0  0  0  0
  138.9720   70.4660  223.0190 C   0  0  0  0  0  0  0  0  0  0  0  0
  138.1280   70.0370  224.2000 C   0  0  0  0  0  0  0  0  0  0  0  0
  139.0400   69.4140  225.1940 C   0  0  0  0  0  0  0  0  0  0  0  0
  138.8500   68.1550  225.7190 C   0  0  0  0  0  0  0  0  0  0  0  0
  139.7720   67.6780  226.6470 C   0  0  0  0  0  0  0  0  0  0  0  0
  140.8510   68.4570  227.0270 C   0  0  0  0  0  0  0  0  0  0  0  0
  141.0590   69.7270  226.5100 C   0  0  0  0  0  0  0  0  0  0  0  0
  140.1310   70.1720  225.5940 C   0  0  0  0  0  0  0  0  0  0  0  0
  140.2300   71.5290  224.9460 C   0  0  0  0  0  0  0  0  0  0  0  0
  141.6910   71.6110  221.8190 N   0  0  0  0  0  0  0  0  0  0  0  0
  144.3620   72.6320  219.5370 C   0  0  0  0  0  0  0  0  0  0  0  0
  146.1610   74.0260  218.2840 H   0  0  0  0  0  0  0  0  0  0  0  0
  146.2628   70.3962  217.9114 H   0  0  0  0  0  0  0  0  0  0  0  0
  144.6186   68.8432  218.9244 H   0  0  0  0  0  0  0  0  0  0  0  0
  142.8001   69.7581  220.3384 H   0  0  0  0  0  0  0  0  0  0  0  0
  138.7997   76.0732  221.8853 H   0  0  0  0  0  0  0  0  0  0  0  0
  139.8382   75.6873  223.3111 H   0  0  0  0  0  0  0  0  0  0  0  0
  139.2395   78.1499  223.1450 H   0  0  0  0  0  0  0  0  0  0  0  0
  140.9823   77.8743  223.1266 H   0  0  0  0  0  0  0  0  0  0  0  0
  139.2645   77.9293  220.5766 H   0  0  0  0  0  0  0  0  0  0  0  0
  141.8519   80.0789  220.6200 H   0  0  0  0  0  0  0  0  0  0  0  0
  140.5495   80.2709  219.3114 H   0  0  0  0  0  0  0  0  0  0  0  0
  141.8273   82.2946  220.2590 H   0  0  0  0  0  0  0  0  0  0  0  0
  140.0409   82.3028  219.8810 H   0  0  0  0  0  0  0  0  0  0  0  0
  141.2507   81.9457  222.6716 H   0  0  0  0  0  0  0  0  0  0  0  0
  140.5415   83.4389  222.0903 H   0  0  0  0  0  0  0  0  0  0  0  0
  138.7398   82.1023  223.1730 H   0  0  0  0  0  0  0  0  0  0  0  0
  138.4320   82.0567  221.4177 H   0  0  0  0  0  0  0  0  0  0  0  0
  139.8569   80.0161  223.1277 H   0  0  0  0  0  0  0  0  0  0  0  0
  138.2523   79.8864  222.2142 H   0  0  0  0  0  0  0  0  0  0  0  0
  141.5925   78.3102  219.6085 H   0  0  0  0  0  0  0  0  0  0  0  0
  142.2580   78.1775  221.2786 H   0  0  0  0  0  0  0  0  0  0  0  0
  141.0750   76.1084  219.4893 H   0  0  0  0  0  0  0  0  0  0  0  0
  142.5580   76.0970  220.5916 H   0  0  0  0  0  0  0  0  0  0  0  0
  138.3394   70.9615  222.2678 H   0  0  0  0  0  0  0  0  0  0  0  0
  139.4484   69.5921  222.5506 H   0  0  0  0  0  0  0  0  0  0  0  0
  137.6294   70.9115  224.6434 H   0  0  0  0  0  0  0  0  0  0  0  0
  137.3517   69.3244  223.8845 H   0  0  0  0  0  0  0  0  0  0  0  0
  137.9904   67.5409  225.4125 H   0  0  0  0  0  0  0  0  0  0  0  0
  139.6420   66.6756  227.0809 H   0  0  0  0  0  0  0  0  0  0  0  0
  141.5654   68.0567  227.7614 H   0  0  0  0  0  0  0  0  0  0  0  0
  141.9170   70.3445  226.8143 H   0  0  0  0  0  0  0  0  0  0  0  0
  139.4827   72.2043  225.3882 H   0  0  0  0  0  0  0  0  0  0  0  0
  141.2346   71.9464  225.1088 H   0  0  0  0  0  0  0  0  0  0  0  0
  144.2769   73.7132  219.7209 H   0  0  0  0  0  0  0  0  0  0  0  0
  1  2  1  0
  2  3  2  0
  3  4  1  0
  4  5  2  0
  5  6  1  0
  6  7  1  0
  7  8  2  0
  8  9  1  0
  9 10  1  0
 10 11  1  0
 11 12  1  0
 12 13  1  0
 13 14  1  0
 14 15  1  0
 15 16  1  0
 16 17  1  0
 17 18  1  0
 18 19  1  0
 13 20  1  0
 20 21  1  0
  9 22  2  0
 22 23  1  0
 23 24  1  0
 24 25  1  0
 25 26  1  0
 26 27  1  0
 27 28  2  0
 28 29  1  0
 29 30  2  0
 30 31  1  0
 31 32  2  0
 32 33  1  0
 23 34  2  0
  6 35  2  0
 35  2  1  0
 34  7  1  0
 21 10  1  0
 33 24  1  0
 19 14  1  0
 32 27  1  0
  1 36  1  0
  3 37  1  0
  4 38  1  0
  5 39  1  0
 11 40  1  0
 11 41  1  0
 12 42  1  0
 12 43  1  0
 13 44  1  0
 15 45  1  0
 15 46  1  0
 16 47  1  0
 16 48  1  0
 17 49  1  0
 17 50  1  0
 18 51  1  0
 18 52  1  0
 19 53  1  0
 19 54  1  0
 20 55  1  0
 20 56  1  0
 21 57  1  0
 21 58  1  0
 25 59  1  0
 25 60  1  0
 26 61  1  0
 26 62  1  0
 28 63  1  0
 29 64  1  0
 30 65  1  0
 31 66  1  0
 33 67  1  0
 33 68  1  0
 35 69  1  0
M  END
>  <smiles>  (32) 
Oc1cccc(-c2nc(N3CCC(N4CCCCC4)CC3)nc(N3CCc4ccccc4C3)n2)c1

>  <score_type>  (32) 
oracle

>  <origin>  (32) 
autodockgpu

>  <m_score__min__energy>  (32) 
-9.9499999999999993

>  <m_primary>  (32) 
energy

>  <rmsd>  (32) 
5.521660729148954

>  <m_score__min__rmsd>  (32) 
5.521660729148954

>  <meeko>  (32) 
{"free_energy": -9.92, "intermolecular_energy": -11.41, "internal_energy": -1.12, "cluster_size": 46, "cluster_id": 1, "rank_in_cluster": 18}

>  <energy>  (32) 
-9.65

>  <cluster_rmsd>  (32) 
0.3

>  <cluster>  (32) 
1

$$$$

     RDKit          3D

 69 74  0  0  0  0  0  0  0  0999 V2000
  145.0430   73.9640  217.4950 O   0  0  0  0  0  0  0  0  0  0  0  0
  144.6450   72.9820  218.3690 C   0  0  0  0  0  0  0  0  0  0  0  0
  145.2510   71.7450  218.3980 C   0  0  0  0  0  0  0  0  0  0  0  0
  144.8550   70.7510  219.2770 C   0  0  0  0  0  0  0  0  0  0  0  0
  143.8280   71.0100  220.1440 C   0  0  0  0  0  0  0  0  0  0  0  0
  143.2090   72.2350  220.1340 C   0  0  0  0  0  0  0  0  0  0  0  0
  142.1160   72.5400  221.0440 C   0  0  0  0  0  0  0  0  0  0  0  0
  141.6120   73.7730  221.1370 N   0  0  0  0  0  0  0  0  0  0  0  0
  140.6020   74.1100  221.9610 C   0  0  0  0  0  0  0  0  0  0  0  0
  140.0900   75.4580  222.0260 N   0  0  0  0  0  0  0  0  0  0  0  0
  140.9920   76.5610  221.7730 C   0  0  0  0  0  0  0  0  0  0  0  0
  140.2300   77.7720  221.2230 C   0  0  0  0  0  0  0  0  0  0  0  0
  139.1460   78.0480  222.2400 C   0  0  0  0  0  0  0  0  0  0  0  0
  138.5860   79.3430  222.1830 N   0  0  0  0  0  0  0  0  0  0  0  0
  139.4800   80.4290  222.1640 C   0  0  0  0  0  0  0  0  0  0  0  0
  138.9140   81.7740  222.4030 C   0  0  0  0  0  0  0  0  0  0  0  0
  137.7540   81.7770  223.4020 C   0  0  0  0  0  0  0  0  0  0  0  0
  136.7310   80.8530  222.7500 C   0  0  0  0  0  0  0  0  0  0  0  0
  137.2980   79.4900  222.7480 C   0  0  0  0  0  0  0  0  0  0  0  0
  138.1120   76.9440  222.0370 C   0  0  0  0  0  0  0  0  0  0  0  0
  138.7080   75.6150  222.3420 C   0  0  0  0  0  0  0  0  0  0  0  0
  140.0620   73.1530  222.7440 N   0  0  0  0  0  0  0  0  0  0  0  0
  140.5420   71.9020  222.6770 C   0  0  0  0  0  0  0  0  0  0  0  0
  139.9450   70.9220  223.5150 N   0  0  0  0  0  0  0  0  0  0  0  0
  139.4380   69.6980  222.9280 C   0  0  0  0  0  0  0  0  0  0  0  0
  138.5840   69.0040  223.9660 C   0  0  0  0  0  0  0  0  0  0  0  0
  139.4420   68.7510  225.1520 C   0  0  0  0  0  0  0  0  0  0  0  0
  139.6040   67.5100  225.7260 C   0  0  0  0  0  0  0  0  0  0  0  0
  140.4340   67.3970  226.8370 C   0  0  0  0  0  0  0  0  0  0  0  0
  141.0790   68.5100  227.3470 C   0  0  0  0  0  0  0  0  0  0  0  0
  140.9290   69.7690  226.7820 C   0  0  0  0  0  0  0  0  0  0  0  0
  140.1010   69.8490  225.6840 C   0  0  0  0  0  0  0  0  0  0  0  0
  139.8480   71.1500  224.9660 C   0  0  0  0  0  0  0  0  0  0  0  0
  141.5520   71.5940  221.8450 N   0  0  0  0  0  0  0  0  0  0  0  0
  143.6140   73.2010  219.2610 C   0  0  0  0  0  0  0  0  0  0  0  0
  145.1900   74.9070  217.8430 H   0  0  0  0  0  0  0  0  0  0  0  0
  146.0763   71.5403  217.7002 H   0  0  0  0  0  0  0  0  0  0  0  0
  145.3562   69.7718  219.2784 H   0  0  0  0  0  0  0  0  0  0  0  0
  143.4979   70.2343  220.8507 H   0  0  0  0  0  0  0  0  0  0  0  0
  141.4885   76.8438  222.7130 H   0  0  0  0  0  0  0  0  0  0  0  0
  141.7360   76.2442  221.0273 H   0  0  0  0  0  0  0  0  0  0  0  0
  140.8999   78.6392  221.1272 H   0  0  0  0  0  0  0  0  0  0  0  0
  139.8174   77.5802  220.2215 H   0  0  0  0  0  0  0  0  0  0  0  0
  139.5737   78.0346  223.2534 H   0  0  0  0  0  0  0  0  0  0  0  0
  140.2388   80.2467  222.9392 H   0  0  0  0  0  0  0  0  0  0  0  0
  139.8645   80.4619  221.1339 H   0  0  0  0  0  0  0  0  0  0  0  0
  139.7115   82.4236  222.7928 H   0  0  0  0  0  0  0  0  0  0  0  0
  138.5164   82.1342  221.4427 H   0  0  0  0  0  0  0  0  0  0  0  0
  138.0736   81.3850  224.3788 H   0  0  0  0  0  0  0  0  0  0  0  0
  137.3598   82.7842  223.6026 H   0  0  0  0  0  0  0  0  0  0  0  0
  135.7926   80.8680  223.3238 H   0  0  0  0  0  0  0  0  0  0  0  0
  136.5124   81.1819  221.7234 H   0  0  0  0  0  0  0  0  0  0  0  0
  137.3502   79.1483  223.7923 H   0  0  0  0  0  0  0  0  0  0  0  0
  136.6293   78.8976  222.1062 H   0  0  0  0  0  0  0  0  0  0  0  0
  137.2569   77.1203  222.7062 H   0  0  0  0  0  0  0  0  0  0  0  0
  137.7789   76.9544  220.9887 H   0  0  0  0  0  0  0  0  0  0  0  0
  138.5872   75.4322  223.4200 H   0  0  0  0  0  0  0  0  0  0  0  0
  138.1754   74.8986  221.6992 H   0  0  0  0  0  0  0  0  0  0  0  0
  138.8314   69.9322  222.0407 H   0  0  0  0  0  0  0  0  0  0  0  0
  140.2697   69.0479  222.6189 H   0  0  0  0  0  0  0  0  0  0  0  0
  137.7362   69.6466  224.2458 H   0  0  0  0  0  0  0  0  0  0  0  0
  138.1822   68.0599  223.5695 H   0  0  0  0  0  0  0  0  0  0  0  0
  139.0893   66.6286  225.3159 H   0  0  0  0  0  0  0  0  0  0  0  0
  140.5785   66.4160  227.3133 H   0  0  0  0  0  0  0  0  0  0  0  0
  141.7298   68.3936  228.2261 H   0  0  0  0  0  0  0  0  0  0  0  0
  141.4424   70.6530  227.1882 H   0  0  0  0  0  0  0  0  0  0  0  0
  138.8423   71.5194  225.2151 H   0  0  0  0  0  0  0  0  0  0  0  0
  140.5934   71.8972  225.2759 H   0  0  0  0  0  0  0  0  0  0  0  0
  143.1076   74.1775  219.2675 H   0  0  0  0  0  0  0  0  0  0  0  0
  1  2  1  0
  2  3  2  0
  3  4  1  0
  4  5  2  0
  5  6  1  0
  6  7  1  0
  7  8  2  0
  8  9  1  0
  9 10  1  0
 10 11  1  0
 11 12  1  0
 12 13  1  0
 13 14  1  0
 14 15  1  0
 15 16  1  0
 16 17  1  0
 17 18  1  0
 18 19  1  0
 13 20  1  0
 20 21  1  0
  9 22  2  0
 22 23  1  0
 23 24  1  0
 24 25  1  0
 25 26  1  0
 26 27  1  0
 27 28  2  0
 28 29  1  0
 29 30  2  0
 30 31  1  0
 31 32  2  0
 32 33  1  0
 23 34  2  0
  6 35  2  0
 35  2  1  0
 34  7  1  0
 21 10  1  0
 33 24  1  0
 19 14  1  0
 32 27  1  0
  1 36  1  0
  3 37  1  0
  4 38  1  0
  5 39  1  0
 11 40  1  0
 11 41  1  0
 12 42  1  0
 12 43  1  0
 13 44  1  0
 15 45  1  0
 15 46  1  0
 16 47  1  0
 16 48  1  0
 17 49  1  0
 17 50  1  0
 18 51  1  0
 18 52  1  0
 19 53  1  0
 19 54  1  0
 20 55  1  0
 20 56  1  0
 21 57  1  0
 21 58  1  0
 25 59  1  0
 25 60  1  0
 26 61  1  0
 26 62  1  0
 28 63  1  0
 29 64  1  0
 30 65  1  0
 31 66  1  0
 33 67  1  0
 33 68  1  0
 35 69  1  0
M  END
>  <smiles>  (33) 
Oc1cccc(-c2nc(N3CCC(N4CCCCC4)CC3)nc(N3CCc4ccccc4C3)n2)c1

>  <score_type>  (33) 
oracle

>  <origin>  (33) 
autodockgpu

>  <m_score__min__energy>  (33) 
-9.9499999999999993

>  <m_primary>  (33) 
energy

>  <rmsd>  (33) 
6.099210576064904

>  <m_score__min__rmsd>  (33) 
6.099210576064904

>  <meeko>  (33) 
{"free_energy": -8.61, "intermolecular_energy": -10.1, "internal_energy": -1.1, "cluster_size": 46, "cluster_id": 1, "rank_in_cluster": 46}

>  <energy>  (33) 
-9.63

>  <cluster_rmsd>  (33) 
1.06

>  <cluster>  (33) 
1

$$$$

     RDKit          3D

 69 74  0  0  0  0  0  0  0  0999 V2000
  146.3210   73.0510  218.3210 O   0  0  0  0  0  0  0  0  0  0  0  0
  145.3490   72.1890  218.7710 C   0  0  0  0  0  0  0  0  0  0  0  0
  145.3390   70.8580  218.4190 C   0  0  0  0  0  0  0  0  0  0  0  0
  144.3630   69.9850  218.8680 C   0  0  0  0  0  0  0  0  0  0  0  0
  143.3780   70.4650  219.6900 C   0  0  0  0  0  0  0  0  0  0  0  0
  143.3680   71.7880  220.0540 C   0  0  0  0  0  0  0  0  0  0  0  0
  142.3360   72.3270  220.9260 C   0  0  0  0  0  0  0  0  0  0  0  0
  142.0030   73.6190  220.8940 N   0  0  0  0  0  0  0  0  0  0  0  0
  141.0570   74.1700  221.6780 C   0  0  0  0  0  0  0  0  0  0  0  0
  140.7310   75.5740  221.6050 N   0  0  0  0  0  0  0  0  0  0  0  0
  141.5540   76.4410  220.7890 C   0  0  0  0  0  0  0  0  0  0  0  0
  140.7460   77.6430  220.2860 C   0  0  0  0  0  0  0  0  0  0  0  0
  140.1770   78.2820  221.5330 C   0  0  0  0  0  0  0  0  0  0  0  0
  139.7550   79.6220  221.3810 N   0  0  0  0  0  0  0  0  0  0  0  0
  140.3650   80.3750  220.3610 C   0  0  0  0  0  0  0  0  0  0  0  0
  140.1520   81.8380  220.3840 C   0  0  0  0  0  0  0  0  0  0  0  0
  140.0730   82.4190  221.7980 C   0  0  0  0  0  0  0  0  0  0  0  0
  138.8900   81.6780  222.4130 C   0  0  0  0  0  0  0  0  0  0  0  0
  139.2740   80.2590  222.5470 C   0  0  0  0  0  0  0  0  0  0  0  0
  139.0540   77.3530  221.9870 C   0  0  0  0  0  0  0  0  0  0  0  0
  139.6040   76.0200  222.3570 C   0  0  0  0  0  0  0  0  0  0  0  0
  140.4020   73.3780  222.5510 N   0  0  0  0  0  0  0  0  0  0  0  0
  140.7100   72.0730  222.6120 C   0  0  0  0  0  0  0  0  0  0  0  0
  139.9950   71.2710  223.5420 N   0  0  0  0  0  0  0  0  0  0  0  0
  139.1370   70.2100  223.0550 C   0  0  0  0  0  0  0  0  0  0  0  0
  138.2700   69.7490  224.2060 C   0  0  0  0  0  0  0  0  0  0  0  0
  139.1760   69.2920  225.2900 C   0  0  0  0  0  0  0  0  0  0  0  0
  139.0970   68.0490  225.8780 C   0  0  0  0  0  0  0  0  0  0  0  0
  140.0010   67.7340  226.8870 C   0  0  0  0  0  0  0  0  0  0  0  0
  140.9570   68.6530  227.2860 C   0  0  0  0  0  0  0  0  0  0  0  0
  141.0530   69.9100  226.7050 C   0  0  0  0  0  0  0  0  0  0  0  0
  140.1440   70.1930  225.7090 C   0  0  0  0  0  0  0  0  0  0  0  0
  140.1330   71.5150  224.9870 C   0  0  0  0  0  0  0  0  0  0  0  0
  141.6590   71.5510  221.8170 N   0  0  0  0  0  0  0  0  0  0  0  0
  144.3390   72.6320  219.6010 C   0  0  0  0  0  0  0  0  0  0  0  0
  146.1780   74.0520  218.4150 H   0  0  0  0  0  0  0  0  0  0  0  0
  146.1323   70.4759  217.7596 H   0  0  0  0  0  0  0  0  0  0  0  0
  144.3782   68.9261  218.5704 H   0  0  0  0  0  0  0  0  0  0  0  0
  142.5932   69.7883  220.0592 H   0  0  0  0  0  0  0  0  0  0  0  0
  142.4024   76.8022  221.3888 H   0  0  0  0  0  0  0  0  0  0  0  0
  141.9147   75.8702  219.9206 H   0  0  0  0  0  0  0  0  0  0  0  0
  141.3974   78.3504  219.7519 H   0  0  0  0  0  0  0  0  0  0  0  0
  139.9583   77.3443  219.5787 H   0  0  0  0  0  0  0  0  0  0  0  0
  140.9655   78.3812  222.2936 H   0  0  0  0  0  0  0  0  0  0  0  0
  141.4489   80.1971  220.4209 H   0  0  0  0  0  0  0  0  0  0  0  0
  139.8879   80.0328  219.4308 H   0  0  0  0  0  0  0  0  0  0  0  0
  140.9873   82.3203  219.8551 H   0  0  0  0  0  0  0  0  0  0  0  0
  139.1843   82.0328  219.8985 H   0  0  0  0  0  0  0  0  0  0  0  0
  140.9981   82.2196  222.3587 H   0  0  0  0  0  0  0  0  0  0  0  0
  139.9507   83.5121  221.8093 H   0  0  0  0  0  0  0  0  0  0  0  0
  138.6569   82.0987  223.4023 H   0  0  0  0  0  0  0  0  0  0  0  0
  137.9979   81.7788  221.7774 H   0  0  0  0  0  0  0  0  0  0  0  0
  140.0631   80.1973  223.3109 H   0  0  0  0  0  0  0  0  0  0  0  0
  138.3449   79.7297  222.8050 H   0  0  0  0  0  0  0  0  0  0  0  0
  138.5500   77.7927  222.8603 H   0  0  0  0  0  0  0  0  0  0  0  0
  138.3375   77.2279  221.1618 H   0  0  0  0  0  0  0  0  0  0  0  0
  139.9015   76.0614  223.4152 H   0  0  0  0  0  0  0  0  0  0  0  0
  138.8014   75.2995  222.1407 H   0  0  0  0  0  0  0  0  0  0  0  0
  138.5043   70.5863  222.2376 H   0  0  0  0  0  0  0  0  0  0  0  0
  139.7406   69.3745  222.6709 H   0  0  0  0  0  0  0  0  0  0  0  0
  137.6461   70.5815  224.5635 H   0  0  0  0  0  0  0  0  0  0  0  0
  137.6036   68.9338  223.8877 H   0  0  0  0  0  0  0  0  0  0  0  0
  138.3364   67.3221  225.5570 H   0  0  0  0  0  0  0  0  0  0  0  0
  139.9562   66.7475  227.3716 H   0  0  0  0  0  0  0  0  0  0  0  0
  141.6604   68.3791  228.0862 H   0  0  0  0  0  0  0  0  0  0  0  0
  141.8126   70.6397  227.0222 H   0  0  0  0  0  0  0  0  0  0  0  0
  139.2864   72.1215  225.3411 H   0  0  0  0  0  0  0  0  0  0  0  0
  141.0712   72.0542  225.1848 H   0  0  0  0  0  0  0  0  0  0  0  0
  144.3167   73.6893  219.9039 H   0  0  0  0  0  0  0  0  0  0  0  0
  1  2  1  0
  2  3  2  0
  3  4  1  0
  4  5  2  0
  5  6  1  0
  6  7  1  0
  7  8  2  0
  8  9  1  0
  9 10  1  0
 10 11  1  0
 11 12  1  0
 12 13  1  0
 13 14  1  0
 14 15  1  0
 15 16  1  0
 16 17  1  0
 17 18  1  0
 18 19  1  0
 13 20  1  0
 20 21  1  0
  9 22  2  0
 22 23  1  0
 23 24  1  0
 24 25  1  0
 25 26  1  0
 26 27  1  0
 27 28  2  0
 28 29  1  0
 29 30  2  0
 30 31  1  0
 31 32  2  0
 32 33  1  0
 23 34  2  0
  6 35  2  0
 35  2  1  0
 34  7  1  0
 21 10  1  0
 33 24  1  0
 19 14  1  0
 32 27  1  0
  1 36  1  0
  3 37  1  0
  4 38  1  0
  5 39  1  0
 11 40  1  0
 11 41  1  0
 12 42  1  0
 12 43  1  0
 13 44  1  0
 15 45  1  0
 15 46  1  0
 16 47  1  0
 16 48  1  0
 17 49  1  0
 17 50  1  0
 18 51  1  0
 18 52  1  0
 19 53  1  0
 19 54  1  0
 20 55  1  0
 20 56  1  0
 21 57  1  0
 21 58  1  0
 25 59  1  0
 25 60  1  0
 26 61  1  0
 26 62  1  0
 28 63  1  0
 29 64  1  0
 30 65  1  0
 31 66  1  0
 33 67  1  0
 33 68  1  0
 35 69  1  0
M  END
>  <smiles>  (34) 
Oc1cccc(-c2nc(N3CCC(N4CCCCC4)CC3)nc(N3CCc4ccccc4C3)n2)c1

>  <score_type>  (34) 
oracle

>  <origin>  (34) 
autodockgpu

>  <m_score__min__energy>  (34) 
-9.9499999999999993

>  <m_primary>  (34) 
energy

>  <rmsd>  (34) 
5.606065882250339

>  <m_score__min__rmsd>  (34) 
5.606065882250339

>  <meeko>  (34) 
{"free_energy": -9.66, "intermolecular_energy": -11.15, "internal_energy": -1.1, "cluster_size": 46, "cluster_id": 1, "rank_in_cluster": 31}

>  <energy>  (34) 
-9.58

>  <cluster_rmsd>  (34) 
0.59

>  <cluster>  (34) 
1

$$$$

     RDKit          3D

 69 74  0  0  0  0  0  0  0  0999 V2000
  146.3110   73.0130  218.0470 O   0  0  0  0  0  0  0  0  0  0  0  0
  145.4000   72.1540  218.6140 C   0  0  0  0  0  0  0  0  0  0  0  0
  145.4580   70.7930  218.4070 C   0  0  0  0  0  0  0  0  0  0  0  0
  144.5440   69.9220  218.9750 C   0  0  0  0  0  0  0  0  0  0  0  0
  143.5520   70.4340  219.7680 C   0  0  0  0  0  0  0  0  0  0  0  0
  143.4750   71.7870  219.9880 C   0  0  0  0  0  0  0  0  0  0  0  0
  142.4340   72.3590  220.8270 C   0  0  0  0  0  0  0  0  0  0  0  0
  142.1280   73.6580  220.7670 N   0  0  0  0  0  0  0  0  0  0  0  0
  141.1750   74.2390  221.5200 C   0  0  0  0  0  0  0  0  0  0  0  0
  140.8810   75.6490  221.4190 N   0  0  0  0  0  0  0  0  0  0  0  0
  139.9230   76.2310  222.3350 C   0  0  0  0  0  0  0  0  0  0  0  0
  140.2190   77.7180  222.5590 C   0  0  0  0  0  0  0  0  0  0  0  0
  140.2360   78.3260  221.1750 C   0  0  0  0  0  0  0  0  0  0  0  0
  140.0690   79.7290  221.1340 N   0  0  0  0  0  0  0  0  0  0  0  0
  140.9570   80.4580  220.3230 C   0  0  0  0  0  0  0  0  0  0  0  0
  140.9840   81.9250  220.5000 C   0  0  0  0  0  0  0  0  0  0  0  0
  140.7600   82.3670  221.9490 C   0  0  0  0  0  0  0  0  0  0  0  0
  139.3860   81.7940  222.2790 C   0  0  0  0  0  0  0  0  0  0  0  0
  139.5050   80.3220  222.2870 C   0  0  0  0  0  0  0  0  0  0  0  0
  141.5490   77.8660  220.5480 C   0  0  0  0  0  0  0  0  0  0  0  0
  141.5620   76.3850  220.4050 C   0  0  0  0  0  0  0  0  0  0  0  0
  140.4820   73.4740  222.3880 N   0  0  0  0  0  0  0  0  0  0  0  0
  140.7610   72.1640  222.4760 C   0  0  0  0  0  0  0  0  0  0  0  0
  140.0080   71.3910  223.4000 N   0  0  0  0  0  0  0  0  0  0  0  0
  138.9960   70.4790  222.9060 C   0  0  0  0  0  0  0  0  0  0  0  0
  138.1470   70.0460  224.0810 C   0  0  0  0  0  0  0  0  0  0  0  0
  139.0510   69.4080  225.0710 C   0  0  0  0  0  0  0  0  0  0  0  0
  138.8510   68.1460  225.5850 C   0  0  0  0  0  0  0  0  0  0  0  0
  139.7670   67.6540  226.5100 C   0  0  0  0  0  0  0  0  0  0  0  0
  140.8510   68.4200  226.9000 C   0  0  0  0  0  0  0  0  0  0  0  0
  141.0700   69.6940  226.3940 C   0  0  0  0  0  0  0  0  0  0  0  0
  140.1470   70.1540  225.4800 C   0  0  0  0  0  0  0  0  0  0  0  0
  140.2590   71.5150  224.8450 C   0  0  0  0  0  0  0  0  0  0  0  0
  141.7190   71.6110  221.7120 N   0  0  0  0  0  0  0  0  0  0  0  0
  144.3850   72.6280  219.4200 C   0  0  0  0  0  0  0  0  0  0  0  0
  146.2230   74.0110  218.2170 H   0  0  0  0  0  0  0  0  0  0  0  0
  146.2565   70.3853  217.7697 H   0  0  0  0  0  0  0  0  0  0  0  0
  144.6134   68.8394  218.7928 H   0  0  0  0  0  0  0  0  0  0  0  0
  142.8154   69.7600  220.2296 H   0  0  0  0  0  0  0  0  0  0  0  0
  138.9117   76.1237  221.9157 H   0  0  0  0  0  0  0  0  0  0  0  0
  139.9946   75.7078  223.2999 H   0  0  0  0  0  0  0  0  0  0  0  0
  139.4333   78.1802  223.1748 H   0  0  0  0  0  0  0  0  0  0  0  0
  141.1689   77.8748  223.0910 H   0  0  0  0  0  0  0  0  0  0  0  0
  139.3607   77.9800  220.6056 H   0  0  0  0  0  0  0  0  0  0  0  0
  141.9714   80.0820  220.5219 H   0  0  0  0  0  0  0  0  0  0  0  0
  140.5952   80.3030  219.2958 H   0  0  0  0  0  0  0  0  0  0  0  0
  141.9645   82.2981  220.1693 H   0  0  0  0  0  0  0  0  0  0  0  0
  140.1584   82.3394  219.9028 H   0  0  0  0  0  0  0  0  0  0  0  0
  141.5314   81.9493  222.6126 H   0  0  0  0  0  0  0  0  0  0  0  0
  140.8159   83.4576  222.0811 H   0  0  0  0  0  0  0  0  0  0  0  0
  139.0593   82.1491  223.2675 H   0  0  0  0  0  0  0  0  0  0  0  0
  138.6441   82.1171  221.5339 H   0  0  0  0  0  0  0  0  0  0  0  0
  140.1308   80.0418  223.1472 H   0  0  0  0  0  0  0  0  0  0  0  0
  138.4721   79.9464  222.3323 H   0  0  0  0  0  0  0  0  0  0  0  0
  141.6584   78.3274  219.5555 H   0  0  0  0  0  0  0  0  0  0  0  0
  142.3821   78.1700  221.1988 H   0  0  0  0  0  0  0  0  0  0  0  0
  141.0962   76.1368  219.4399 H   0  0  0  0  0  0  0  0  0  0  0  0
  142.6187   76.0904  220.4865 H   0  0  0  0  0  0  0  0  0  0  0  0
  138.3686   70.9863  222.1583 H   0  0  0  0  0  0  0  0  0  0  0  0
  139.4664   69.6056  222.4306 H   0  0  0  0  0  0  0  0  0  0  0  0
  137.6539   70.9203  224.5309 H   0  0  0  0  0  0  0  0  0  0  0  0
  137.3665   69.3416  223.7574 H   0  0  0  0  0  0  0  0  0  0  0  0
  137.9874   67.5410  225.2717 H   0  0  0  0  0  0  0  0  0  0  0  0
  139.6281   66.6486  226.9342 H   0  0  0  0  0  0  0  0  0  0  0  0
  141.5602   68.0074  227.6326 H   0  0  0  0  0  0  0  0  0  0  0  0
  141.9321   70.3023  226.7052 H   0  0  0  0  0  0  0  0  0  0  0  0
  139.5165   72.1927  225.2916 H   0  0  0  0  0  0  0  0  0  0  0  0
  141.2667   71.9224  225.0138 H   0  0  0  0  0  0  0  0  0  0  0  0
  144.3086   73.7091  219.6083 H   0  0  0  0  0  0  0  0  0  0  0  0
  1  2  1  0
  2  3  2  0
  3  4  1  0
  4  5  2  0
  5  6  1  0
  6  7  1  0
  7  8  2  0
  8  9  1  0
  9 10  1  0
 10 11  1  0
 11 12  1  0
 12 13  1  0
 13 14  1  0
 14 15  1  0
 15 16  1  0
 16 17  1  0
 17 18  1  0
 18 19  1  0
 13 20  1  0
 20 21  1  0
  9 22  2  0
 22 23  1  0
 23 24  1  0
 24 25  1  0
 25 26  1  0
 26 27  1  0
 27 28  2  0
 28 29  1  0
 29 30  2  0
 30 31  1  0
 31 32  2  0
 32 33  1  0
 23 34  2  0
  6 35  2  0
 35  2  1  0
 34  7  1  0
 21 10  1  0
 33 24  1  0
 19 14  1  0
 32 27  1  0
  1 36  1  0
  3 37  1  0
  4 38  1  0
  5 39  1  0
 11 40  1  0
 11 41  1  0
 12 42  1  0
 12 43  1  0
 13 44  1  0
 15 45  1  0
 15 46  1  0
 16 47  1  0
 16 48  1  0
 17 49  1  0
 17 50  1  0
 18 51  1  0
 18 52  1  0
 19 53  1  0
 19 54  1  0
 20 55  1  0
 20 56  1  0
 21 57  1  0
 21 58  1  0
 25 59  1  0
 25 60  1  0
 26 61  1  0
 26 62  1  0
 28 63  1  0
 29 64  1  0
 30 65  1  0
 31 66  1  0
 33 67  1  0
 33 68  1  0
 35 69  1  0
M  END
>  <smiles>  (35) 
Oc1cccc(-c2nc(N3CCC(N4CCCCC4)CC3)nc(N3CCc4ccccc4C3)n2)c1

>  <score_type>  (35) 
oracle

>  <origin>  (35) 
autodockgpu

>  <m_score__min__energy>  (35) 
-9.9499999999999993

>  <m_primary>  (35) 
energy

>  <rmsd>  (35) 
5.5348687512112

>  <m_score__min__rmsd>  (35) 
5.5348687512112

>  <meeko>  (35) 
{"free_energy": -9.93, "intermolecular_energy": -11.42, "internal_energy": -1.12, "cluster_size": 46, "cluster_id": 1, "rank_in_cluster": 13}

>  <energy>  (35) 
-9.58

>  <cluster_rmsd>  (35) 
0.81

>  <cluster>  (35) 
1

$$$$

     RDKit          3D

 69 74  0  0  0  0  0  0  0  0999 V2000
  146.3090   73.0180  218.1710 O   0  0  0  0  0  0  0  0  0  0  0  0
  145.4240   72.1430  218.7550 C   0  0  0  0  0  0  0  0  0  0  0  0
  145.5320   70.7800  218.5870 C   0  0  0  0  0  0  0  0  0  0  0  0
  144.6450   69.8930  219.1730 C   0  0  0  0  0  0  0  0  0  0  0  0
  143.6300   70.3910  219.9440 C   0  0  0  0  0  0  0  0  0  0  0  0
  143.5020   71.7450  220.1260 C   0  0  0  0  0  0  0  0  0  0  0  0
  142.4350   72.3040  220.9410 C   0  0  0  0  0  0  0  0  0  0  0  0
  142.1110   73.5980  220.8730 N   0  0  0  0  0  0  0  0  0  0  0  0
  141.1340   74.1660  221.6030 C   0  0  0  0  0  0  0  0  0  0  0  0
  140.8210   75.5710  221.4930 N   0  0  0  0  0  0  0  0  0  0  0  0
  139.7840   76.1240  222.3380 C   0  0  0  0  0  0  0  0  0  0  0  0
  140.0330   77.6150  222.5980 C   0  0  0  0  0  0  0  0  0  0  0  0
  140.1450   78.2380  221.2260 C   0  0  0  0  0  0  0  0  0  0  0  0
  139.9550   79.6380  221.1860 N   0  0  0  0  0  0  0  0  0  0  0  0
  140.7620   80.3710  220.2970 C   0  0  0  0  0  0  0  0  0  0  0  0
  140.7820   81.8400  220.4580 C   0  0  0  0  0  0  0  0  0  0  0  0
  140.6720   82.2940  221.9170 C   0  0  0  0  0  0  0  0  0  0  0  0
  139.3380   81.7050  222.3650 C   0  0  0  0  0  0  0  0  0  0  0  0
  139.4800   80.2360  222.3760 C   0  0  0  0  0  0  0  0  0  0  0  0
  141.5120   77.8100  220.6990 C   0  0  0  0  0  0  0  0  0  0  0  0
  141.5650   76.3310  220.5420 C   0  0  0  0  0  0  0  0  0  0  0  0
  140.4340   73.3920  222.4570 N   0  0  0  0  0  0  0  0  0  0  0  0
  140.7300   72.0870  222.5530 C   0  0  0  0  0  0  0  0  0  0  0  0
  139.9680   71.3030  223.4620 N   0  0  0  0  0  0  0  0  0  0  0  0
  139.0470   70.3110  222.9460 C   0  0  0  0  0  0  0  0  0  0  0  0
  138.1530   69.8710  224.0850 C   0  0  0  0  0  0  0  0  0  0  0  0
  139.0300   69.3300  225.1550 C   0  0  0  0  0  0  0  0  0  0  0  0
  138.8750   68.0780  225.7090 C   0  0  0  0  0  0  0  0  0  0  0  0
  139.7590   67.6810  226.7080 C   0  0  0  0  0  0  0  0  0  0  0  0
  140.7680   68.5290  227.1300 C   0  0  0  0  0  0  0  0  0  0  0  0
  140.9400   69.7930  226.5840 C   0  0  0  0  0  0  0  0  0  0  0  0
  140.0510   70.1580  225.5980 C   0  0  0  0  0  0  0  0  0  0  0  0
  140.1190   71.4990  224.9130 C   0  0  0  0  0  0  0  0  0  0  0  0
  141.7120   71.5460  221.8110 N   0  0  0  0  0  0  0  0  0  0  0  0
  144.3870   72.6020  219.5410 C   0  0  0  0  0  0  0  0  0  0  0  0
  146.1660   74.0170  218.2860 H   0  0  0  0  0  0  0  0  0  0  0  0
  146.3496   70.3834  217.9671 H   0  0  0  0  0  0  0  0  0  0  0  0
  144.7541   68.8089  219.0218 H   0  0  0  0  0  0  0  0  0  0  0  0
  142.9146   69.7038  220.4193 H   0  0  0  0  0  0  0  0  0  0  0  0
  138.8102   76.0020  221.8411 H   0  0  0  0  0  0  0  0  0  0  0  0
  139.7912   75.5915  223.3005 H   0  0  0  0  0  0  0  0  0  0  0  0
  139.1933   78.0557  223.1553 H   0  0  0  0  0  0  0  0  0  0  0  0
  140.9359   77.7837  223.2033 H   0  0  0  0  0  0  0  0  0  0  0  0
  139.3235   77.8819  220.5870 H   0  0  0  0  0  0  0  0  0  0  0  0
  141.7948   80.0111  220.4141 H   0  0  0  0  0  0  0  0  0  0  0  0
  140.3185   80.2004  219.3049 H   0  0  0  0  0  0  0  0  0  0  0  0
  141.7262   82.2233  220.0439 H   0  0  0  0  0  0  0  0  0  0  0  0
  139.9038   82.2367  219.9275 H   0  0  0  0  0  0  0  0  0  0  0  0
  141.5017   81.8940  222.5183 H   0  0  0  0  0  0  0  0  0  0  0  0
  140.7225   83.3866  222.0341 H   0  0  0  0  0  0  0  0  0  0  0  0
  139.0888   82.0653  223.3740 H   0  0  0  0  0  0  0  0  0  0  0  0
  138.5320   82.0101  221.6815 H   0  0  0  0  0  0  0  0  0  0  0  0
  140.1794   79.9741  223.1836 H   0  0  0  0  0  0  0  0  0  0  0  0
  138.4600   79.8465  222.5098 H   0  0  0  0  0  0  0  0  0  0  0  0
  141.6897   78.2851  219.7230 H   0  0  0  0  0  0  0  0  0  0  0  0
  142.2856   78.1217  221.4162 H   0  0  0  0  0  0  0  0  0  0  0  0
  141.1805   76.0855  219.5411 H   0  0  0  0  0  0  0  0  0  0  0  0
  142.6177   76.0548  220.7021 H   0  0  0  0  0  0  0  0  0  0  0  0
  138.4387   70.7486  222.1407 H   0  0  0  0  0  0  0  0  0  0  0  0
  139.5984   69.4515  222.5370 H   0  0  0  0  0  0  0  0  0  0  0  0
  137.5803   70.7292  224.4664 H   0  0  0  0  0  0  0  0  0  0  0  0
  137.4387   69.1067  223.7450 H   0  0  0  0  0  0  0  0  0  0  0  0
  138.0714   67.4079  225.3697 H   0  0  0  0  0  0  0  0  0  0  0  0
  139.6549   66.6860  227.1654 H   0  0  0  0  0  0  0  0  0  0  0  0
  141.4535   68.1912  227.9212 H   0  0  0  0  0  0  0  0  0  0  0  0
  141.7423   70.4662  226.9203 H   0  0  0  0  0  0  0  0  0  0  0  0
  139.3094   72.1445  225.2844 H   0  0  0  0  0  0  0  0  0  0  0  0
  141.0870   71.9765  225.1252 H   0  0  0  0  0  0  0  0  0  0  0  0
  144.2714   73.6844  219.6994 H   0  0  0  0  0  0  0  0  0  0  0  0
  1  2  1  0
  2  3  2  0
  3  4  1  0
  4  5  2  0
  5  6  1  0
  6  7  1  0
  7  8  2  0
  8  9  1  0
  9 10  1  0
 10 11  1  0
 11 12  1  0
 12 13  1  0
 13 14  1  0
 14 15  1  0
 15 16  1  0
 16 17  1  0
 17 18  1  0
 18 19  1  0
 13 20  1  0
 20 21  1  0
  9 22  2  0
 22 23  1  0
 23 24  1  0
 24 25  1  0
 25 26  1  0
 26 27  1  0
 27 28  2  0
 28 29  1  0
 29 30  2  0
 30 31  1  0
 31 32  2  0
 32 33  1  0
 23 34  2  0
  6 35  2  0
 35  2  1  0
 34  7  1  0
 21 10  1  0
 33 24  1  0
 19 14  1  0
 32 27  1  0
  1 36  1  0
  3 37  1  0
  4 38  1  0
  5 39  1  0
 11 40  1  0
 11 41  1  0
 12 42  1  0
 12 43  1  0
 13 44  1  0
 15 45  1  0
 15 46  1  0
 16 47  1  0
 16 48  1  0
 17 49  1  0
 17 50  1  0
 18 51  1  0
 18 52  1  0
 19 53  1  0
 19 54  1  0
 20 55  1  0
 20 56  1  0
 21 57  1  0
 21 58  1  0
 25 59  1  0
 25 60  1  0
 26 61  1  0
 26 62  1  0
 28 63  1  0
 29 64  1  0
 30 65  1  0
 31 66  1  0
 33 67  1  0
 33 68  1  0
 35 69  1  0
M  END
>  <smiles>  (36) 
Oc1cccc(-c2nc(N3CCC(N4CCCCC4)CC3)nc(N3CCc4ccccc4C3)n2)c1

>  <score_type>  (36) 
oracle

>  <origin>  (36) 
autodockgpu

>  <m_score__min__energy>  (36) 
-9.9499999999999993

>  <m_primary>  (36) 
energy

>  <rmsd>  (36) 
5.517594566925994

>  <m_score__min__rmsd>  (36) 
5.517594566925994

>  <meeko>  (36) 
{"free_energy": -9.94, "intermolecular_energy": -11.43, "internal_energy": -1.12, "cluster_size": 46, "cluster_id": 1, "rank_in_cluster": 7}

>  <energy>  (36) 
-9.56

>  <cluster_rmsd>  (36) 
0.8

>  <cluster>  (36) 
1

$$$$

     RDKit          3D

 69 74  0  0  0  0  0  0  0  0999 V2000
  146.3150   73.0330  218.2320 O   0  0  0  0  0  0  0  0  0  0  0  0
  145.3930   72.1670  218.7690 C   0  0  0  0  0  0  0  0  0  0  0  0
  145.4520   70.8100  218.5420 C   0  0  0  0  0  0  0  0  0  0  0  0
  144.5270   69.9320  219.0810 C   0  0  0  0  0  0  0  0  0  0  0  0
  143.5220   70.4330  219.8640 C   0  0  0  0  0  0  0  0  0  0  0  0
  143.4430   71.7830  220.1040 C   0  0  0  0  0  0  0  0  0  0  0  0
  142.3880   72.3450  220.9320 C   0  0  0  0  0  0  0  0  0  0  0  0
  142.0550   73.6360  220.8540 N   0  0  0  0  0  0  0  0  0  0  0  0
  141.0880   74.2070  221.5960 C   0  0  0  0  0  0  0  0  0  0  0  0
  140.7640   75.6080  221.4750 N   0  0  0  0  0  0  0  0  0  0  0  0
  139.6990   76.1530  222.2910 C   0  0  0  0  0  0  0  0  0  0  0  0
  139.9260   77.6460  222.5540 C   0  0  0  0  0  0  0  0  0  0  0  0
  140.0680   78.2680  221.1830 C   0  0  0  0  0  0  0  0  0  0  0  0
  139.8650   79.6650  221.1350 N   0  0  0  0  0  0  0  0  0  0  0  0
  140.7160   80.4100  220.2980 C   0  0  0  0  0  0  0  0  0  0  0  0
  140.7090   81.8790  220.4630 C   0  0  0  0  0  0  0  0  0  0  0  0
  140.5060   82.3270  221.9130 C   0  0  0  0  0  0  0  0  0  0  0  0
  139.1540   81.7220  222.2780 C   0  0  0  0  0  0  0  0  0  0  0  0
  139.3120   80.2550  222.2950 C   0  0  0  0  0  0  0  0  0  0  0  0
  141.4530   77.8530  220.6930 C   0  0  0  0  0  0  0  0  0  0  0  0
  141.5250   76.3740  220.5420 C   0  0  0  0  0  0  0  0  0  0  0  0
  140.4110   73.4390  222.4740 N   0  0  0  0  0  0  0  0  0  0  0  0
  140.7170   72.1380  222.5810 C   0  0  0  0  0  0  0  0  0  0  0  0
  139.9790   71.3610  223.5150 N   0  0  0  0  0  0  0  0  0  0  0  0
  138.9920   70.4160  223.0310 C   0  0  0  0  0  0  0  0  0  0  0  0
  138.1490   69.9820  224.2100 C   0  0  0  0  0  0  0  0  0  0  0  0
  139.0630   69.3830  225.2150 C   0  0  0  0  0  0  0  0  0  0  0  0
  138.8920   68.1250  225.7490 C   0  0  0  0  0  0  0  0  0  0  0  0
  139.8150   67.6720  226.6870 C   0  0  0  0  0  0  0  0  0  0  0  0
  140.8780   68.4720  227.0680 C   0  0  0  0  0  0  0  0  0  0  0  0
  141.0680   69.7420  226.5420 C   0  0  0  0  0  0  0  0  0  0  0  0
  140.1380   70.1630  225.6160 C   0  0  0  0  0  0  0  0  0  0  0  0
  140.2190   71.5160  224.9580 C   0  0  0  0  0  0  0  0  0  0  0  0
  141.6880   71.5940  221.8270 N   0  0  0  0  0  0  0  0  0  0  0  0
  144.3650   72.6310  219.5640 C   0  0  0  0  0  0  0  0  0  0  0  0
  146.1570   74.0330  218.3060 H   0  0  0  0  0  0  0  0  0  0  0  0
  146.2604   70.4106  217.9119 H   0  0  0  0  0  0  0  0  0  0  0  0
  144.5983   68.8522  218.8838 H   0  0  0  0  0  0  0  0  0  0  0  0
  142.7763   69.7530  220.3018 H   0  0  0  0  0  0  0  0  0  0  0  0
  138.7401   76.0203  221.7685 H   0  0  0  0  0  0  0  0  0  0  0  0
  139.6859   75.6227  223.2547 H   0  0  0  0  0  0  0  0  0  0  0  0
  139.0675   78.0793  223.0881 H   0  0  0  0  0  0  0  0  0  0  0  0
  140.8109   77.8249  223.1824 H   0  0  0  0  0  0  0  0  0  0  0  0
  139.2673   77.9023  220.5233 H   0  0  0  0  0  0  0  0  0  0  0  0
  141.7440   80.0618  220.4769 H   0  0  0  0  0  0  0  0  0  0  0  0
  140.3355   80.2371  219.2805 H   0  0  0  0  0  0  0  0  0  0  0  0
  141.6719   82.2744  220.1074 H   0  0  0  0  0  0  0  0  0  0  0  0
  139.8599   82.2671  219.8813 H   0  0  0  0  0  0  0  0  0  0  0  0
  141.3022   81.9343  222.5624 H   0  0  0  0  0  0  0  0  0  0  0  0
  140.5371   83.4197  222.0355 H   0  0  0  0  0  0  0  0  0  0  0  0
  138.8398   82.0770  223.2706 H   0  0  0  0  0  0  0  0  0  0  0  0
  138.3875   82.0197  221.5473 H   0  0  0  0  0  0  0  0  0  0  0  0
  139.9642   79.9992  223.1430 H   0  0  0  0  0  0  0  0  0  0  0  0
  138.2903   79.8537  222.3660 H   0  0  0  0  0  0  0  0  0  0  0  0
  141.6512   78.3273  219.7205 H   0  0  0  0  0  0  0  0  0  0  0  0
  142.2046   78.1749  221.4289 H   0  0  0  0  0  0  0  0  0  0  0  0
  141.1697   76.1220  219.5319 H   0  0  0  0  0  0  0  0  0  0  0  0
  142.5758   76.1094  220.7313 H   0  0  0  0  0  0  0  0  0  0  0  0
  138.3557   70.8953  222.2725 H   0  0  0  0  0  0  0  0  0  0  0  0
  139.4856   69.5470  222.5714 H   0  0  0  0  0  0  0  0  0  0  0  0
  137.6326   70.8514  224.6429 H   0  0  0  0  0  0  0  0  0  0  0  0
  137.3879   69.2529  223.8949 H   0  0  0  0  0  0  0  0  0  0  0  0
  138.0458   67.4931  225.4413 H   0  0  0  0  0  0  0  0  0  0  0  0
  139.6988   66.6712  227.1285 H   0  0  0  0  0  0  0  0  0  0  0  0
  141.5941   68.0896  227.8103 H   0  0  0  0  0  0  0  0  0  0  0  0
  141.9130   70.3768  226.8469 H   0  0  0  0  0  0  0  0  0  0  0  0
  139.4573   72.1822  225.3892 H   0  0  0  0  0  0  0  0  0  0  0  0
  141.2152   71.9517  225.1247 H   0  0  0  0  0  0  0  0  0  0  0  0
  144.2872   73.7093  219.7669 H   0  0  0  0  0  0  0  0  0  0  0  0
  1  2  1  0
  2  3  2  0
  3  4  1  0
  4  5  2  0
  5  6  1  0
  6  7  1  0
  7  8  2  0
  8  9  1  0
  9 10  1  0
 10 11  1  0
 11 12  1  0
 12 13  1  0
 13 14  1  0
 14 15  1  0
 15 16  1  0
 16 17  1  0
 17 18  1  0
 18 19  1  0
 13 20  1  0
 20 21  1  0
  9 22  2  0
 22 23  1  0
 23 24  1  0
 24 25  1  0
 25 26  1  0
 26 27  1  0
 27 28  2  0
 28 29  1  0
 29 30  2  0
 30 31  1  0
 31 32  2  0
 32 33  1  0
 23 34  2  0
  6 35  2  0
 35  2  1  0
 34  7  1  0
 21 10  1  0
 33 24  1  0
 19 14  1  0
 32 27  1  0
  1 36  1  0
  3 37  1  0
  4 38  1  0
  5 39  1  0
 11 40  1  0
 11 41  1  0
 12 42  1  0
 12 43  1  0
 13 44  1  0
 15 45  1  0
 15 46  1  0
 16 47  1  0
 16 48  1  0
 17 49  1  0
 17 50  1  0
 18 51  1  0
 18 52  1  0
 19 53  1  0
 19 54  1  0
 20 55  1  0
 20 56  1  0
 21 57  1  0
 21 58  1  0
 25 59  1  0
 25 60  1  0
 26 61  1  0
 26 62  1  0
 28 63  1  0
 29 64  1  0
 30 65  1  0
 31 66  1  0
 33 67  1  0
 33 68  1  0
 35 69  1  0
M  END
>  <smiles>  (37) 
Oc1cccc(-c2nc(N3CCC(N4CCCCC4)CC3)nc(N3CCc4ccccc4C3)n2)c1

>  <score_type>  (37) 
oracle

>  <origin>  (37) 
autodockgpu

>  <m_score__min__energy>  (37) 
-9.9499999999999993

>  <m_primary>  (37) 
energy

>  <rmsd>  (37) 
5.51790615015978

>  <m_score__min__rmsd>  (37) 
5.51790615015978

>  <meeko>  (37) 
{"free_energy": -9.94, "intermolecular_energy": -11.43, "internal_energy": -1.12, "cluster_size": 46, "cluster_id": 1, "rank_in_cluster": 9}

>  <energy>  (37) 
-9.55

>  <cluster_rmsd>  (37) 
0.61

>  <cluster>  (37) 
1

$$$$

     RDKit          3D

 69 74  0  0  0  0  0  0  0  0999 V2000
  146.4370   71.9060  220.1040 O   0  0  0  0  0  0  0  0  0  0  0  0
  145.1940   72.2180  219.6060 C   0  0  0  0  0  0  0  0  0  0  0  0
  144.9610   72.3330  218.2540 C   0  0  0  0  0  0  0  0  0  0  0  0
  143.7110   72.6470  217.7460 C   0  0  0  0  0  0  0  0  0  0  0  0
  142.6770   72.8470  218.6210 C   0  0  0  0  0  0  0  0  0  0  0  0
  142.8860   72.7380  219.9730 C   0  0  0  0  0  0  0  0  0  0  0  0
  141.8070   72.9430  220.9260 C   0  0  0  0  0  0  0  0  0  0  0  0
  141.2180   74.1340  221.0650 N   0  0  0  0  0  0  0  0  0  0  0  0
  140.2170   74.3790  221.9300 C   0  0  0  0  0  0  0  0  0  0  0  0
  139.6120   75.6850  222.0430 N   0  0  0  0  0  0  0  0  0  0  0  0
  138.1710   75.7970  221.9600 C   0  0  0  0  0  0  0  0  0  0  0  0
  137.6760   77.0230  222.7370 C   0  0  0  0  0  0  0  0  0  0  0  0
  138.4460   78.1890  222.1610 C   0  0  0  0  0  0  0  0  0  0  0  0
  137.8790   79.4600  222.4040 N   0  0  0  0  0  0  0  0  0  0  0  0
  138.7350   80.5730  222.3100 C   0  0  0  0  0  0  0  0  0  0  0  0
  138.2340   81.8570  222.8460 C   0  0  0  0  0  0  0  0  0  0  0  0
  137.3490   81.6950  224.0850 C   0  0  0  0  0  0  0  0  0  0  0  0
  136.2060   80.8190  223.5840 C   0  0  0  0  0  0  0  0  0  0  0  0
  136.7650   79.4890  223.2730 C   0  0  0  0  0  0  0  0  0  0  0  0
  139.8600   78.0530  222.7170 C   0  0  0  0  0  0  0  0  0  0  0  0
  140.4890   76.7950  222.2290 C   0  0  0  0  0  0  0  0  0  0  0  0
  139.7750   73.3700  222.7080 N   0  0  0  0  0  0  0  0  0  0  0  0
  140.3420   72.1590  222.5970 C   0  0  0  0  0  0  0  0  0  0  0  0
  139.8470   71.1210  223.4330 N   0  0  0  0  0  0  0  0  0  0  0  0
  139.5660   69.8210  222.8590 C   0  0  0  0  0  0  0  0  0  0  0  0
  138.7620   69.0320  223.8690 C   0  0  0  0  0  0  0  0  0  0  0  0
  139.5740   68.9410  225.1100 C   0  0  0  0  0  0  0  0  0  0  0  0
  139.8840   67.7530  225.7340 C   0  0  0  0  0  0  0  0  0  0  0  0
  140.6520   67.7930  226.8930 C   0  0  0  0  0  0  0  0  0  0  0  0
  141.0920   69.0030  227.4020 C   0  0  0  0  0  0  0  0  0  0  0  0
  140.7900   70.2110  226.7870 C   0  0  0  0  0  0  0  0  0  0  0  0
  140.0290   70.1380  225.6420 C   0  0  0  0  0  0  0  0  0  0  0  0
  139.6290   71.3670  224.8670 C   0  0  0  0  0  0  0  0  0  0  0  0
  141.3410   71.9430  221.7240 N   0  0  0  0  0  0  0  0  0  0  0  0
  144.1250   72.4280  220.4530 C   0  0  0  0  0  0  0  0  0  0  0  0
  146.5130   71.5160  221.0380 H   0  0  0  0  0  0  0  0  0  0  0  0
  145.7943   72.1703  217.5546 H   0  0  0  0  0  0  0  0  0  0  0  0
  143.5523   72.7340  216.6610 H   0  0  0  0  0  0  0  0  0  0  0  0
  141.6758   73.0958  218.2392 H   0  0  0  0  0  0  0  0  0  0  0  0
  137.8769   75.8956  220.9047 H   0  0  0  0  0  0  0  0  0  0  0  0
  137.7207   74.8948  222.3995 H   0  0  0  0  0  0  0  0  0  0  0  0
  136.5949   77.1632  222.5899 H   0  0  0  0  0  0  0  0  0  0  0  0
  137.8356   76.9175  223.8202 H   0  0  0  0  0  0  0  0  0  0  0  0
  138.4267   78.1423  221.0622 H   0  0  0  0  0  0  0  0  0  0  0  0
  139.6598   80.3262  222.8521 H   0  0  0  0  0  0  0  0  0  0  0  0
  138.8595   80.7451  221.2307 H   0  0  0  0  0  0  0  0  0  0  0  0
  139.0974   82.4837  223.1138 H   0  0  0  0  0  0  0  0  0  0  0  0
  137.6140   82.3163  222.0620 H   0  0  0  0  0  0  0  0  0  0  0  0
  137.8977   81.1998  224.8997 H   0  0  0  0  0  0  0  0  0  0  0  0
  137.0073   82.6548  224.4998 H   0  0  0  0  0  0  0  0  0  0  0  0
  135.4340   80.7285  224.3624 H   0  0  0  0  0  0  0  0  0  0  0  0
  135.7437   81.2621  222.6896 H   0  0  0  0  0  0  0  0  0  0  0  0
  137.0697   79.0244  224.2224 H   0  0  0  0  0  0  0  0  0  0  0  0
  135.9653   78.9552  222.7386 H   0  0  0  0  0  0  0  0  0  0  0  0
  140.4634   78.9117  222.3877 H   0  0  0  0  0  0  0  0  0  0  0  0
  139.8111   78.0255  223.8156 H   0  0  0  0  0  0  0  0  0  0  0  0
  140.9667   77.0114  221.2621 H   0  0  0  0  0  0  0  0  0  0  0  0
  141.1889   76.4887  223.0204 H   0  0  0  0  0  0  0  0  0  0  0  0
  138.9877   69.9392  221.9308 H   0  0  0  0  0  0  0  0  0  0  0  0
  140.5029   69.2964  222.6202 H   0  0  0  0  0  0  0  0  0  0  0  0
  137.8123   69.5463  224.0780 H   0  0  0  0  0  0  0  0  0  0  0  0
  138.5300   68.0287  223.4823 H   0  0  0  0  0  0  0  0  0  0  0  0
  139.5322   66.7943  225.3251 H   0  0  0  0  0  0  0  0  0  0  0  0
  140.9116   66.8567  227.4088 H   0  0  0  0  0  0  0  0  0  0  0  0
  141.6982   69.0077  228.3199 H   0  0  0  0  0  0  0  0  0  0  0  0
  141.1392   71.1723  227.1920 H   0  0  0  0  0  0  0  0  0  0  0  0
  138.5661   71.5862  225.0462 H   0  0  0  0  0  0  0  0  0  0  0  0
  140.2346   72.2254  225.1931 H   0  0  0  0  0  0  0  0  0  0  0  0
  144.2751   72.3436  221.5394 H   0  0  0  0  0  0  0  0  0  0  0  0
  1  2  1  0
  2  3  2  0
  3  4  1  0
  4  5  2  0
  5  6  1  0
  6  7  1  0
  7  8  2  0
  8  9  1  0
  9 10  1  0
 10 11  1  0
 11 12  1  0
 12 13  1  0
 13 14  1  0
 14 15  1  0
 15 16  1  0
 16 17  1  0
 17 18  1  0
 18 19  1  0
 13 20  1  0
 20 21  1  0
  9 22  2  0
 22 23  1  0
 23 24  1  0
 24 25  1  0
 25 26  1  0
 26 27  1  0
 27 28  2  0
 28 29  1  0
 29 30  2  0
 30 31  1  0
 31 32  2  0
 32 33  1  0
 23 34  2  0
  6 35  2  0
 35  2  1  0
 34  7  1  0
 21 10  1  0
 33 24  1  0
 19 14  1  0
 32 27  1  0
  1 36  1  0
  3 37  1  0
  4 38  1  0
  5 39  1  0
 11 40  1  0
 11 41  1  0
 12 42  1  0
 12 43  1  0
 13 44  1  0
 15 45  1  0
 15 46  1  0
 16 47  1  0
 16 48  1  0
 17 49  1  0
 17 50  1  0
 18 51  1  0
 18 52  1  0
 19 53  1  0
 19 54  1  0
 20 55  1  0
 20 56  1  0
 21 57  1  0
 21 58  1  0
 25 59  1  0
 25 60  1  0
 26 61  1  0
 26 62  1  0
 28 63  1  0
 29 64  1  0
 30 65  1  0
 31 66  1  0
 33 67  1  0
 33 68  1  0
 35 69  1  0
M  END
>  <smiles>  (38) 
Oc1cccc(-c2nc(N3CCC(N4CCCCC4)CC3)nc(N3CCc4ccccc4C3)n2)c1

>  <score_type>  (38) 
oracle

>  <origin>  (38) 
autodockgpu

>  <m_score__min__energy>  (38) 
-9.9499999999999993

>  <m_primary>  (38) 
energy

>  <rmsd>  (38) 
6.411705929733841

>  <m_score__min__rmsd>  (38) 
6.411705929733841

>  <meeko>  (38) 
{"free_energy": -9.06, "intermolecular_energy": -10.55, "internal_energy": -1.1, "cluster_size": 46, "cluster_id": 1, "rank_in_cluster": 40}

>  <energy>  (38) 
-9.41

>  <cluster_rmsd>  (38) 
0.8

>  <cluster>  (38) 
1

$$$$

     RDKit          3D

 69 74  0  0  0  0  0  0  0  0999 V2000
  146.2750   73.0690  217.7910 O   0  0  0  0  0  0  0  0  0  0  0  0
  145.5030   72.2100  218.5360 C   0  0  0  0  0  0  0  0  0  0  0  0
  145.7260   70.8510  218.5420 C   0  0  0  0  0  0  0  0  0  0  0  0
  144.9530   69.9800  219.2910 C   0  0  0  0  0  0  0  0  0  0  0  0
  143.9350   70.4920  220.0500 C   0  0  0  0  0  0  0  0  0  0  0  0
  143.6940   71.8430  220.0610 C   0  0  0  0  0  0  0  0  0  0  0  0
  142.6210   72.4160  220.8590 C   0  0  0  0  0  0  0  0  0  0  0  0
  142.3280   73.7170  220.7990 N   0  0  0  0  0  0  0  0  0  0  0  0
  141.3460   74.2980  221.5140 C   0  0  0  0  0  0  0  0  0  0  0  0
  141.0670   75.7110  221.4150 N   0  0  0  0  0  0  0  0  0  0  0  0
  140.0830   76.2940  222.3020 C   0  0  0  0  0  0  0  0  0  0  0  0
  140.3830   77.7770  222.5470 C   0  0  0  0  0  0  0  0  0  0  0  0
  140.4530   78.3960  221.1700 C   0  0  0  0  0  0  0  0  0  0  0  0
  140.2980   79.7990  221.1350 N   0  0  0  0  0  0  0  0  0  0  0  0
  140.5800   80.4460  219.9170 C   0  0  0  0  0  0  0  0  0  0  0  0
  140.7090   81.9190  219.9490 C   0  0  0  0  0  0  0  0  0  0  0  0
  141.3410   82.4460  221.2400 C   0  0  0  0  0  0  0  0  0  0  0  0
  140.3870   81.9500  222.3220 C   0  0  0  0  0  0  0  0  0  0  0  0
  140.4830   80.4770  222.3610 C   0  0  0  0  0  0  0  0  0  0  0  0
  141.7830   77.9290  220.5850 C   0  0  0  0  0  0  0  0  0  0  0  0
  141.7890   76.4490  220.4300 C   0  0  0  0  0  0  0  0  0  0  0  0
  140.6110   73.5300  222.3430 N   0  0  0  0  0  0  0  0  0  0  0  0
  140.8760   72.2180  222.4300 C   0  0  0  0  0  0  0  0  0  0  0  0
  140.0770   71.4410  223.3130 N   0  0  0  0  0  0  0  0  0  0  0  0
  139.1230   70.4990  222.7640 C   0  0  0  0  0  0  0  0  0  0  0  0
  138.2040   70.0640  223.8850 C   0  0  0  0  0  0  0  0  0  0  0  0
  139.0500   69.4620  224.9460 C   0  0  0  0  0  0  0  0  0  0  0  0
  138.8420   68.2030  225.4660 C   0  0  0  0  0  0  0  0  0  0  0  0
  139.7020   67.7460  226.4600 C   0  0  0  0  0  0  0  0  0  0  0  0
  140.7390   68.5440  226.9120 C   0  0  0  0  0  0  0  0  0  0  0  0
  140.9640   69.8140  226.4010 C   0  0  0  0  0  0  0  0  0  0  0  0
  140.0980   70.2390  225.4180 C   0  0  0  0  0  0  0  0  0  0  0  0
  140.2240   71.5930  224.7690 C   0  0  0  0  0  0  0  0  0  0  0  0
  141.8620   71.6640  221.7040 N   0  0  0  0  0  0  0  0  0  0  0  0
  144.4670   72.6840  219.3160 C   0  0  0  0  0  0  0  0  0  0  0  0
  146.1610   74.0700  217.9140 H   0  0  0  0  0  0  0  0  0  0  0  0
  146.5455   70.4439  217.9315 H   0  0  0  0  0  0  0  0  0  0  0  0
  145.1528   68.8984  219.2765 H   0  0  0  0  0  0  0  0  0  0  0  0
  143.3083   69.8184  220.6529 H   0  0  0  0  0  0  0  0  0  0  0  0
  139.0858   76.1979  221.8476 H   0  0  0  0  0  0  0  0  0  0  0  0
  140.1174   75.7632  223.2649 H   0  0  0  0  0  0  0  0  0  0  0  0
  139.5802   78.2410  223.1388 H   0  0  0  0  0  0  0  0  0  0  0  0
  141.3155   77.9214  223.1122 H   0  0  0  0  0  0  0  0  0  0  0  0
  139.5955   78.0627  220.5670 H   0  0  0  0  0  0  0  0  0  0  0  0
  141.5288   80.0387  219.5377 H   0  0  0  0  0  0  0  0  0  0  0  0
  139.7027   80.2516  219.2825 H   0  0  0  0  0  0  0  0  0  0  0  0
  141.3353   82.2327  219.1009 H   0  0  0  0  0  0  0  0  0  0  0  0
  139.6925   82.3354  219.8916 H   0  0  0  0  0  0  0  0  0  0  0  0
  142.3498   82.0315  221.3832 H   0  0  0  0  0  0  0  0  0  0  0  0
  141.4675   83.5387  221.2439 H   0  0  0  0  0  0  0  0  0  0  0  0
  140.6744   82.3705  223.2970 H   0  0  0  0  0  0  0  0  0  0  0  0
  139.3561   82.2642  222.1017 H   0  0  0  0  0  0  0  0  0  0  0  0
  141.4831   80.2175  222.7385 H   0  0  0  0  0  0  0  0  0  0  0  0
  139.6521   80.1487  223.0027 H   0  0  0  0  0  0  0  0  0  0  0  0
  141.9307   78.3974  219.6007 H   0  0  0  0  0  0  0  0  0  0  0  0
  142.5953   78.2202  221.2672 H   0  0  0  0  0  0  0  0  0  0  0  0
  141.3545   76.2124  219.4475 H   0  0  0  0  0  0  0  0  0  0  0  0
  142.8398   76.1445  220.5446 H   0  0  0  0  0  0  0  0  0  0  0  0
  138.5382   70.9807  221.9665 H   0  0  0  0  0  0  0  0  0  0  0  0
  139.6443   69.6301  222.3358 H   0  0  0  0  0  0  0  0  0  0  0  0
  137.6616   70.9334  224.2850 H   0  0  0  0  0  0  0  0  0  0  0  0
  137.4640   69.3367  223.5197 H   0  0  0  0  0  0  0  0  0  0  0  0
  138.0155   67.5739  225.1039 H   0  0  0  0  0  0  0  0  0  0  0  0
  139.5568   66.7438  226.8895 H   0  0  0  0  0  0  0  0  0  0  0  0
  141.4041   68.1598  227.6994 H   0  0  0  0  0  0  0  0  0  0  0  0
  141.7886   70.4467  226.7611 H   0  0  0  0  0  0  0  0  0  0  0  0
  139.4375   72.2601  225.1516 H   0  0  0  0  0  0  0  0  0  0  0  0
  141.2083   72.0262  225.0003 H   0  0  0  0  0  0  0  0  0  0  0  0
  144.2605   73.7642  219.3370 H   0  0  0  0  0  0  0  0  0  0  0  0
  1  2  1  0
  2  3  2  0
  3  4  1  0
  4  5  2  0
  5  6  1  0
  6  7  1  0
  7  8  2  0
  8  9  1  0
  9 10  1  0
 10 11  1  0
 11 12  1  0
 12 13  1  0
 13 14  1  0
 14 15  1  0
 15 16  1  0
 16 17  1  0
 17 18  1  0
 18 19  1  0
 13 20  1  0
 20 21  1  0
  9 22  2  0
 22 23  1  0
 23 24  1  0
 24 25  1  0
 25 26  1  0
 26 27  1  0
 27 28  2  0
 28 29  1  0
 29 30  2  0
 30 31  1  0
 31 32  2  0
 32 33  1  0
 23 34  2  0
  6 35  2  0
 35  2  1  0
 34  7  1  0
 21 10  1  0
 33 24  1  0
 19 14  1  0
 32 27  1  0
  1 36  1  0
  3 37  1  0
  4 38  1  0
  5 39  1  0
 11 40  1  0
 11 41  1  0
 12 42  1  0
 12 43  1  0
 13 44  1  0
 15 45  1  0
 15 46  1  0
 16 47  1  0
 16 48  1  0
 17 49  1  0
 17 50  1  0
 18 51  1  0
 18 52  1  0
 19 53  1  0
 19 54  1  0
 20 55  1  0
 20 56  1  0
 21 57  1  0
 21 58  1  0
 25 59  1  0
 25 60  1  0
 26 61  1  0
 26 62  1  0
 28 63  1  0
 29 64  1  0
 30 65  1  0
 31 66  1  0
 33 67  1  0
 33 68  1  0
 35 69  1  0
M  END
>  <smiles>  (39) 
Oc1cccc(-c2nc(N3CCC(N4CCCCC4)CC3)nc(N3CCc4ccccc4C3)n2)c1

>  <score_type>  (39) 
oracle

>  <origin>  (39) 
autodockgpu

>  <m_score__min__energy>  (39) 
-9.9499999999999993

>  <m_primary>  (39) 
energy

>  <rmsd>  (39) 
5.527189609628574

>  <m_score__min__rmsd>  (39) 
5.527189609628574

>  <meeko>  (39) 
{"free_energy": -9.75, "intermolecular_energy": -11.25, "internal_energy": -1.13, "cluster_size": 46, "cluster_id": 1, "rank_in_cluster": 27}

>  <energy>  (39) 
-9.1

>  <cluster_rmsd>  (39) 
1.43

>  <cluster>  (39) 
1

$$$$

     RDKit          3D

 69 74  0  0  0  0  0  0  0  0999 V2000
  146.3130   73.0160  218.1050 O   0  0  0  0  0  0  0  0  0  0  0  0
  145.4420   72.1410  218.7100 C   0  0  0  0  0  0  0  0  0  0  0  0
  145.5620   70.7770  218.5620 C   0  0  0  0  0  0  0  0  0  0  0  0
  144.6880   69.8910  219.1690 C   0  0  0  0  0  0  0  0  0  0  0  0
  143.6730   70.3910  219.9400 C   0  0  0  0  0  0  0  0  0  0  0  0
  143.5350   71.7480  220.1020 C   0  0  0  0  0  0  0  0  0  0  0  0
  142.4680   72.3090  220.9160 C   0  0  0  0  0  0  0  0  0  0  0  0
  142.1460   73.6030  220.8460 N   0  0  0  0  0  0  0  0  0  0  0  0
  141.1690   74.1730  221.5760 C   0  0  0  0  0  0  0  0  0  0  0  0
  140.8580   75.5780  221.4640 N   0  0  0  0  0  0  0  0  0  0  0  0
  139.8410   76.1400  222.3270 C   0  0  0  0  0  0  0  0  0  0  0  0
  140.0990   77.6310  222.5730 C   0  0  0  0  0  0  0  0  0  0  0  0
  140.1840   78.2460  221.1940 C   0  0  0  0  0  0  0  0  0  0  0  0
  139.9970   79.6460  221.1500 N   0  0  0  0  0  0  0  0  0  0  0  0
  140.8350   80.3790  220.2890 C   0  0  0  0  0  0  0  0  0  0  0  0
  140.8510   81.8480  220.4530 C   0  0  0  0  0  0  0  0  0  0  0  0
  140.6930   82.3000  221.9070 C   0  0  0  0  0  0  0  0  0  0  0  0
  139.3440   81.7120  222.3090 C   0  0  0  0  0  0  0  0  0  0  0  0
  139.4830   80.2430  222.3240 C   0  0  0  0  0  0  0  0  0  0  0  0
  141.5380   77.8100  220.6410 C   0  0  0  0  0  0  0  0  0  0  0  0
  141.5840   76.3300  220.4930 C   0  0  0  0  0  0  0  0  0  0  0  0
  140.4690   73.4010  222.4310 N   0  0  0  0  0  0  0  0  0  0  0  0
  140.7630   72.0960  222.5290 C   0  0  0  0  0  0  0  0  0  0  0  0
  140.0010   71.3150  223.4400 N   0  0  0  0  0  0  0  0  0  0  0  0
  139.0880   70.3140  222.9270 C   0  0  0  0  0  0  0  0  0  0  0  0
  138.1900   69.8780  224.0640 C   0  0  0  0  0  0  0  0  0  0  0  0
  139.0650   69.3480  225.1420 C   0  0  0  0  0  0  0  0  0  0  0  0
  138.9130   68.1000  225.7030 C   0  0  0  0  0  0  0  0  0  0  0  0
  139.7940   67.7140  226.7090 C   0  0  0  0  0  0  0  0  0  0  0  0
  140.7960   68.5700  227.1310 C   0  0  0  0  0  0  0  0  0  0  0  0
  140.9650   69.8320  226.5770 C   0  0  0  0  0  0  0  0  0  0  0  0
  140.0790   70.1850  225.5840 C   0  0  0  0  0  0  0  0  0  0  0  0
  140.1440   71.5210  224.8900 C   0  0  0  0  0  0  0  0  0  0  0  0
  141.7440   71.5530  221.7880 N   0  0  0  0  0  0  0  0  0  0  0  0
  144.4060   72.6040  219.4960 C   0  0  0  0  0  0  0  0  0  0  0  0
  146.1910   74.0140  218.2470 H   0  0  0  0  0  0  0  0  0  0  0  0
  146.3784   70.3786  217.9416 H   0  0  0  0  0  0  0  0  0  0  0  0
  144.8069   68.8058  219.0343 H   0  0  0  0  0  0  0  0  0  0  0  0
  142.9669   69.7048  220.4305 H   0  0  0  0  0  0  0  0  0  0  0  0
  138.8567   76.0180  221.8513 H   0  0  0  0  0  0  0  0  0  0  0  0
  139.8676   75.6136  223.2925 H   0  0  0  0  0  0  0  0  0  0  0  0
  139.2722   78.0772  223.1451 H   0  0  0  0  0  0  0  0  0  0  0  0
  141.0146   77.8009  223.1584 H   0  0  0  0  0  0  0  0  0  0  0  0
  139.3484   77.8891  220.5740 H   0  0  0  0  0  0  0  0  0  0  0  0
  141.8629   80.0176  220.4404 H   0  0  0  0  0  0  0  0  0  0  0  0
  140.4256   80.2099  219.2821 H   0  0  0  0  0  0  0  0  0  0  0  0
  141.8089   82.2309  220.0711 H   0  0  0  0  0  0  0  0  0  0  0  0
  139.9911   82.2461  219.8943 H   0  0  0  0  0  0  0  0  0  0  0  0
  141.5016   81.8982  222.5353 H   0  0  0  0  0  0  0  0  0  0  0  0
  140.7410   83.3924  222.0273 H   0  0  0  0  0  0  0  0  0  0  0  0
  139.0612   82.0720  223.3092 H   0  0  0  0  0  0  0  0  0  0  0  0
  138.5623   82.0184  221.5983 H   0  0  0  0  0  0  0  0  0  0  0  0
  140.1544   79.9793  223.1545 H   0  0  0  0  0  0  0  0  0  0  0  0
  138.4587   79.8546  222.4236 H   0  0  0  0  0  0  0  0  0  0  0  0
  141.6961   78.2779  219.6581 H   0  0  0  0  0  0  0  0  0  0  0  0
  142.3274   78.1241  221.3397 H   0  0  0  0  0  0  0  0  0  0  0  0
  141.1784   76.0789  219.5018 H   0  0  0  0  0  0  0  0  0  0  0  0
  142.6390   76.0523  220.6335 H   0  0  0  0  0  0  0  0  0  0  0  0
  138.4819   70.7420  222.1149 H   0  0  0  0  0  0  0  0  0  0  0  0
  139.6464   69.4543  222.5282 H   0  0  0  0  0  0  0  0  0  0  0  0
  137.6116   70.7362  224.4368 H   0  0  0  0  0  0  0  0  0  0  0  0
  137.4803   69.1086  223.7258 H   0  0  0  0  0  0  0  0  0  0  0  0
  138.1142   67.4239  225.3642 H   0  0  0  0  0  0  0  0  0  0  0  0
  139.6930   66.7213  227.1720 H   0  0  0  0  0  0  0  0  0  0  0  0
  141.4785   68.2412  227.9285 H   0  0  0  0  0  0  0  0  0  0  0  0
  141.7621   70.5117  226.9127 H   0  0  0  0  0  0  0  0  0  0  0  0
  139.3296   72.1652  225.2531 H   0  0  0  0  0  0  0  0  0  0  0  0
  141.1089   72.0041  225.1034 H   0  0  0  0  0  0  0  0  0  0  0  0
  144.2804   73.6877  219.6365 H   0  0  0  0  0  0  0  0  0  0  0  0
  1  2  1  0
  2  3  2  0
  3  4  1  0
  4  5  2  0
  5  6  1  0
  6  7  1  0
  7  8  2  0
  8  9  1  0
  9 10  1  0
 10 11  1  0
 11 12  1  0
 12 13  1  0
 13 14  1  0
 14 15  1  0
 15 16  1  0
 16 17  1  0
 17 18  1  0
 18 19  1  0
 13 20  1  0
 20 21  1  0
  9 22  2  0
 22 23  1  0
 23 24  1  0
 24 25  1  0
 25 26  1  0
 26 27  1  0
 27 28  2  0
 28 29  1  0
 29 30  2  0
 30 31  1  0
 31 32  2  0
 32 33  1  0
 23 34  2  0
  6 35  2  0
 35  2  1  0
 34  7  1  0
 21 10  1  0
 33 24  1  0
 19 14  1  0
 32 27  1  0
  1 36  1  0
  3 37  1  0
  4 38  1  0
  5 39  1  0
 11 40  1  0
 11 41  1  0
 12 42  1  0
 12 43  1  0
 13 44  1  0
 15 45  1  0
 15 46  1  0
 16 47  1  0
 16 48  1  0
 17 49  1  0
 17 50  1  0
 18 51  1  0
 18 52  1  0
 19 53  1  0
 19 54  1  0
 20 55  1  0
 20 56  1  0
 21 57  1  0
 21 58  1  0
 25 59  1  0
 25 60  1  0
 26 61  1  0
 26 62  1  0
 28 63  1  0
 29 64  1  0
 30 65  1  0
 31 66  1  0
 33 67  1  0
 33 68  1  0
 35 69  1  0
M  END
>  <smiles>  (40) 
Oc1cccc(-c2nc(N3CCC(N4CCCCC4)CC3)nc(N3CCc4ccccc4C3)n2)c1

>  <score_type>  (40) 
oracle

>  <origin>  (40) 
autodockgpu

>  <m_score__min__energy>  (40) 
-9.9499999999999993

>  <m_primary>  (40) 
energy

>  <rmsd>  (40) 
5.508588413942206

>  <m_score__min__rmsd>  (40) 
5.508588413942206

>  <meeko>  (40) 
{"free_energy": -9.94, "intermolecular_energy": -11.44, "internal_energy": -1.12, "cluster_size": 46, "cluster_id": 1, "rank_in_cluster": 3}

>  <energy>  (40) 
-9.06

>  <cluster_rmsd>  (40) 
1.49

>  <cluster>  (40) 
1

$$$$

     RDKit          3D

 69 74  0  0  0  0  0  0  0  0999 V2000
  146.3240   73.0180  218.2120 O   0  0  0  0  0  0  0  0  0  0  0  0
  145.4370   72.1410  218.7890 C   0  0  0  0  0  0  0  0  0  0  0  0
  145.5480   70.7780  218.6190 C   0  0  0  0  0  0  0  0  0  0  0  0
  144.6580   69.8890  219.1980 C   0  0  0  0  0  0  0  0  0  0  0  0
  143.6370   70.3850  219.9640 C   0  0  0  0  0  0  0  0  0  0  0  0
  143.5070   71.7390  220.1480 C   0  0  0  0  0  0  0  0  0  0  0  0
  142.4340   72.2950  220.9570 C   0  0  0  0  0  0  0  0  0  0  0  0
  142.1040   73.5870  220.8810 N   0  0  0  0  0  0  0  0  0  0  0  0
  141.1210   74.1530  221.6070 C   0  0  0  0  0  0  0  0  0  0  0  0
  140.8000   75.5550  221.4900 N   0  0  0  0  0  0  0  0  0  0  0  0
  139.7440   76.1030  222.3150 C   0  0  0  0  0  0  0  0  0  0  0  0
  139.9780   77.5950  222.5780 C   0  0  0  0  0  0  0  0  0  0  0  0
  140.1110   78.2180  221.2070 C   0  0  0  0  0  0  0  0  0  0  0  0
  139.9110   79.6160  221.1610 N   0  0  0  0  0  0  0  0  0  0  0  0
  140.7500   80.3570  220.3090 C   0  0  0  0  0  0  0  0  0  0  0  0
  140.7510   81.8260  220.4740 C   0  0  0  0  0  0  0  0  0  0  0  0
  140.5760   82.2750  221.9270 C   0  0  0  0  0  0  0  0  0  0  0  0
  139.2290   81.6750  222.3170 C   0  0  0  0  0  0  0  0  0  0  0  0
  139.3820   80.2070  222.3310 C   0  0  0  0  0  0  0  0  0  0  0  0
  141.4900   77.7980  220.7050 C   0  0  0  0  0  0  0  0  0  0  0  0
  141.5560   76.3190  220.5510 C   0  0  0  0  0  0  0  0  0  0  0  0
  140.4230   73.3780  222.4620 N   0  0  0  0  0  0  0  0  0  0  0  0
  140.7260   72.0760  222.5650 C   0  0  0  0  0  0  0  0  0  0  0  0
  139.9660   71.2920  223.4760 N   0  0  0  0  0  0  0  0  0  0  0  0
  139.0570   70.2880  222.9630 C   0  0  0  0  0  0  0  0  0  0  0  0
  138.1610   69.8480  224.1000 C   0  0  0  0  0  0  0  0  0  0  0  0
  139.0370   69.3230  225.1780 C   0  0  0  0  0  0  0  0  0  0  0  0
  138.8900   68.0730  225.7400 C   0  0  0  0  0  0  0  0  0  0  0  0
  139.7710   67.6910  226.7460 C   0  0  0  0  0  0  0  0  0  0  0  0
  140.7710   68.5510  227.1670 C   0  0  0  0  0  0  0  0  0  0  0  0
  140.9350   69.8130  226.6140 C   0  0  0  0  0  0  0  0  0  0  0  0
  140.0480   70.1630  225.6200 C   0  0  0  0  0  0  0  0  0  0  0  0
  140.1080   71.4990  224.9260 C   0  0  0  0  0  0  0  0  0  0  0  0
  141.7130   71.5370  221.8290 N   0  0  0  0  0  0  0  0  0  0  0  0
  144.3950   72.5980  219.5690 C   0  0  0  0  0  0  0  0  0  0  0  0
  146.1920   74.0160  218.3450 H   0  0  0  0  0  0  0  0  0  0  0  0
  146.3700   70.3835  218.0036 H   0  0  0  0  0  0  0  0  0  0  0  0
  144.7691   68.8053  219.0455 H   0  0  0  0  0  0  0  0  0  0  0  0
  142.9189   69.6964  220.4332 H   0  0  0  0  0  0  0  0  0  0  0  0
  138.7805   75.9742  221.8002 H   0  0  0  0  0  0  0  0  0  0  0  0
  139.7372   75.5718  223.2782 H   0  0  0  0  0  0  0  0  0  0  0  0
  139.1253   78.0305  223.1195 H   0  0  0  0  0  0  0  0  0  0  0  0
  140.8685   77.7702  223.1995 H   0  0  0  0  0  0  0  0  0  0  0  0
  139.3036   77.8560  220.5535 H   0  0  0  0  0  0  0  0  0  0  0  0
  141.7796   80.0050  220.4700 H   0  0  0  0  0  0  0  0  0  0  0  0
  140.3517   80.1850  219.2982 H   0  0  0  0  0  0  0  0  0  0  0  0
  141.7086   82.2181  220.1009 H   0  0  0  0  0  0  0  0  0  0  0  0
  139.8927   82.2168  219.9079 H   0  0  0  0  0  0  0  0  0  0  0  0
  141.3826   81.8797  222.5619 H   0  0  0  0  0  0  0  0  0  0  0  0
  140.6131   83.3676  222.0484 H   0  0  0  0  0  0  0  0  0  0  0  0
  138.9346   82.0310  223.3153 H   0  0  0  0  0  0  0  0  0  0  0  0
  138.4501   81.9756  221.6008 H   0  0  0  0  0  0  0  0  0  0  0  0
  140.0491   79.9487  223.1666 H   0  0  0  0  0  0  0  0  0  0  0  0
  138.3605   79.8091  222.4213 H   0  0  0  0  0  0  0  0  0  0  0  0
  141.6819   78.2730  219.7316 H   0  0  0  0  0  0  0  0  0  0  0  0
  142.2485   78.1156  221.4357 H   0  0  0  0  0  0  0  0  0  0  0  0
  141.1912   76.0695  219.5437 H   0  0  0  0  0  0  0  0  0  0  0  0
  142.6075   76.0502  220.7302 H   0  0  0  0  0  0  0  0  0  0  0  0
  138.4490   70.7140  222.1513 H   0  0  0  0  0  0  0  0  0  0  0  0
  139.6186   69.4306  222.5637 H   0  0  0  0  0  0  0  0  0  0  0  0
  137.5783   70.7035  224.4722 H   0  0  0  0  0  0  0  0  0  0  0  0
  137.4555   69.0748  223.7617 H   0  0  0  0  0  0  0  0  0  0  0  0
  138.0944   67.3934  225.4007 H   0  0  0  0  0  0  0  0  0  0  0  0
  139.6726   66.6987  227.2104 H   0  0  0  0  0  0  0  0  0  0  0  0
  141.4557   68.2242  227.9634 H   0  0  0  0  0  0  0  0  0  0  0  0
  141.7290   70.4958  226.9506 H   0  0  0  0  0  0  0  0  0  0  0  0
  139.2911   72.1402  225.2888 H   0  0  0  0  0  0  0  0  0  0  0  0
  141.0709   71.9860  225.1395 H   0  0  0  0  0  0  0  0  0  0  0  0
  144.2773   73.6801  219.7279 H   0  0  0  0  0  0  0  0  0  0  0  0
  1  2  1  0
  2  3  2  0
  3  4  1  0
  4  5  2  0
  5  6  1  0
  6  7  1  0
  7  8  2  0
  8  9  1  0
  9 10  1  0
 10 11  1  0
 11 12  1  0
 12 13  1  0
 13 14  1  0
 14 15  1  0
 15 16  1  0
 16 17  1  0
 17 18  1  0
 18 19  1  0
 13 20  1  0
 20 21  1  0
  9 22  2  0
 22 23  1  0
 23 24  1  0
 24 25  1  0
 25 26  1  0
 26 27  1  0
 27 28  2  0
 28 29  1  0
 29 30  2  0
 30 31  1  0
 31 32  2  0
 32 33  1  0
 23 34  2  0
  6 35  2  0
 35  2  1  0
 34  7  1  0
 21 10  1  0
 33 24  1  0
 19 14  1  0
 32 27  1  0
  1 36  1  0
  3 37  1  0
  4 38  1  0
  5 39  1  0
 11 40  1  0
 11 41  1  0
 12 42  1  0
 12 43  1  0
 13 44  1  0
 15 45  1  0
 15 46  1  0
 16 47  1  0
 16 48  1  0
 17 49  1  0
 17 50  1  0
 18 51  1  0
 18 52  1  0
 19 53  1  0
 19 54  1  0
 20 55  1  0
 20 56  1  0
 21 57  1  0
 21 58  1  0
 25 59  1  0
 25 60  1  0
 26 61  1  0
 26 62  1  0
 28 63  1  0
 29 64  1  0
 30 65  1  0
 31 66  1  0
 33 67  1  0
 33 68  1  0
 35 69  1  0
M  END
>  <smiles>  (41) 
Oc1cccc(-c2nc(N3CCC(N4CCCCC4)CC3)nc(N3CCc4ccccc4C3)n2)c1

>  <score_type>  (41) 
oracle

>  <origin>  (41) 
autodockgpu

>  <m_score__min__energy>  (41) 
-9.9499999999999993

>  <m_primary>  (41) 
energy

>  <rmsd>  (41) 
5.504047407808098

>  <m_score__min__rmsd>  (41) 
5.504047407808098

>  <meeko>  (41) 
{"free_energy": -9.94, "intermolecular_energy": -11.43, "internal_energy": -1.12, "cluster_size": 46, "cluster_id": 1, "rank_in_cluster": 5}

>  <energy>  (41) 
-8.92

>  <cluster_rmsd>  (41) 
1.32

>  <cluster>  (41) 
1

$$$$

     RDKit          3D

 69 74  0  0  0  0  0  0  0  0999 V2000
  146.4940   73.3560  219.3450 O   0  0  0  0  0  0  0  0  0  0  0  0
  145.3340   72.6210  219.2740 C   0  0  0  0  0  0  0  0  0  0  0  0
  145.1750   71.6020  218.3610 C   0  0  0  0  0  0  0  0  0  0  0  0
  144.0100   70.8570  218.2840 C   0  0  0  0  0  0  0  0  0  0  0  0
  142.9860   71.1460  219.1460 C   0  0  0  0  0  0  0  0  0  0  0  0
  143.1230   72.1570  220.0650 C   0  0  0  0  0  0  0  0  0  0  0  0
  142.0540   72.4870  220.9940 C   0  0  0  0  0  0  0  0  0  0  0  0
  141.5680   73.7270  221.0850 N   0  0  0  0  0  0  0  0  0  0  0  0
  140.5800   74.0870  221.9270 C   0  0  0  0  0  0  0  0  0  0  0  0
  140.0880   75.4420  221.9880 N   0  0  0  0  0  0  0  0  0  0  0  0
  138.6580   75.6660  222.0180 C   0  0  0  0  0  0  0  0  0  0  0  0
  138.3290   76.9810  222.7350 C   0  0  0  0  0  0  0  0  0  0  0  0
  139.1300   78.0360  222.0070 C   0  0  0  0  0  0  0  0  0  0  0  0
  138.6860   79.3630  222.1970 N   0  0  0  0  0  0  0  0  0  0  0  0
  139.0050   79.9780  223.4220 C   0  0  0  0  0  0  0  0  0  0  0  0
  138.3030   81.2370  223.7480 C   0  0  0  0  0  0  0  0  0  0  0  0
  136.8570   81.2750  223.2450 C   0  0  0  0  0  0  0  0  0  0  0  0
  137.0070   81.0990  221.7380 C   0  0  0  0  0  0  0  0  0  0  0  0
  137.5160   79.7340  221.4960 C   0  0  0  0  0  0  0  0  0  0  0  0
  140.5750   77.8230  222.4510 C   0  0  0  0  0  0  0  0  0  0  0  0
  141.0600   76.4870  222.0120 C   0  0  0  0  0  0  0  0  0  0  0  0
  140.0440   73.1460  222.7300 N   0  0  0  0  0  0  0  0  0  0  0  0
  140.5060   71.8880  222.6680 C   0  0  0  0  0  0  0  0  0  0  0  0
  139.9130   70.9240  223.5280 N   0  0  0  0  0  0  0  0  0  0  0  0
  139.3740   69.7030  222.9640 C   0  0  0  0  0  0  0  0  0  0  0  0
  138.5340   69.0320  224.0280 C   0  0  0  0  0  0  0  0  0  0  0  0
  139.4160   68.7770  225.1960 C   0  0  0  0  0  0  0  0  0  0  0  0
  139.5720   67.5380  225.7780 C   0  0  0  0  0  0  0  0  0  0  0  0
  140.4250   67.4220  226.8710 C   0  0  0  0  0  0  0  0  0  0  0  0
  141.1000   68.5300  227.3550 C   0  0  0  0  0  0  0  0  0  0  0  0
  140.9550   69.7860  226.7820 C   0  0  0  0  0  0  0  0  0  0  0  0
  140.1040   69.8690  225.7030 C   0  0  0  0  0  0  0  0  0  0  0  0
  139.8540   71.1670  224.9790 C   0  0  0  0  0  0  0  0  0  0  0  0
  141.4940   71.5570  221.8170 N   0  0  0  0  0  0  0  0  0  0  0  0
  144.2790   72.8790  220.1250 C   0  0  0  0  0  0  0  0  0  0  0  0
  146.4380   74.3690  219.3530 H   0  0  0  0  0  0  0  0  0  0  0  0
  146.0001   71.3725  217.6706 H   0  0  0  0  0  0  0  0  0  0  0  0
  143.9092   70.0488  217.5447 H   0  0  0  0  0  0  0  0  0  0  0  0
  142.0517   70.5670  219.1021 H   0  0  0  0  0  0  0  0  0  0  0  0
  138.2783   75.7125  220.9867 H   0  0  0  0  0  0  0  0  0  0  0  0
  138.1822   74.8377  222.5635 H   0  0  0  0  0  0  0  0  0  0  0  0
  137.2528   77.1986  222.6685 H   0  0  0  0  0  0  0  0  0  0  0  0
  138.5770   76.9404  223.8059 H   0  0  0  0  0  0  0  0  0  0  0  0
  139.0076   77.9136  220.9207 H   0  0  0  0  0  0  0  0  0  0  0  0
  138.7812   79.2574  224.2224 H   0  0  0  0  0  0  0  0  0  0  0  0
  140.0645   80.2592  223.3310 H   0  0  0  0  0  0  0  0  0  0  0  0
  138.2952   81.3589  224.8412 H   0  0  0  0  0  0  0  0  0  0  0  0
  138.8440   82.0506  223.2428 H   0  0  0  0  0  0  0  0  0  0  0  0
  136.2662   80.4558  223.6808 H   0  0  0  0  0  0  0  0  0  0  0  0
  136.3288   82.1997  223.5206 H   0  0  0  0  0  0  0  0  0  0  0  0
  136.0315   81.2281  221.2464 H   0  0  0  0  0  0  0  0  0  0  0  0
  137.7009   81.8481  221.3289 H   0  0  0  0  0  0  0  0  0  0  0  0
  136.7211   79.0267  221.7749 H   0  0  0  0  0  0  0  0  0  0  0  0
  137.7951   79.7121  220.4322 H   0  0  0  0  0  0  0  0  0  0  0  0
  141.2098   78.6034  222.0060 H   0  0  0  0  0  0  0  0  0  0  0  0
  140.6231   77.8774  223.5486 H   0  0  0  0  0  0  0  0  0  0  0  0
  141.4635   76.5939  220.9943 H   0  0  0  0  0  0  0  0  0  0  0  0
  141.8033   76.1815  222.7631 H   0  0  0  0  0  0  0  0  0  0  0  0
  138.7506   69.9387  222.0889 H   0  0  0  0  0  0  0  0  0  0  0  0
  140.1881   69.0373  222.6415 H   0  0  0  0  0  0  0  0  0  0  0  0
  137.7028   69.6902  224.3212 H   0  0  0  0  0  0  0  0  0  0  0  0
  138.1085   68.0906  223.6501 H   0  0  0  0  0  0  0  0  0  0  0  0
  139.0348   66.6611  225.3877 H   0  0  0  0  0  0  0  0  0  0  0  0
  140.5641   66.4435  227.3539 H   0  0  0  0  0  0  0  0  0  0  0  0
  141.7707   68.4114  228.2188 H   0  0  0  0  0  0  0  0  0  0  0  0
  141.4902   70.6659  227.1685 H   0  0  0  0  0  0  0  0  0  0  0  0
  138.8603   71.5543  225.2482 H   0  0  0  0  0  0  0  0  0  0  0  0
  140.6179   71.9054  225.2641 H   0  0  0  0  0  0  0  0  0  0  0  0
  144.3721   73.6846  220.8682 H   0  0  0  0  0  0  0  0  0  0  0  0
  1  2  1  0
  2  3  2  0
  3  4  1  0
  4  5  2  0
  5  6  1  0
  6  7  1  0
  7  8  2  0
  8  9  1  0
  9 10  1  0
 10 11  1  0
 11 12  1  0
 12 13  1  0
 13 14  1  0
 14 15  1  0
 15 16  1  0
 16 17  1  0
 17 18  1  0
 18 19  1  0
 13 20  1  0
 20 21  1  0
  9 22  2  0
 22 23  1  0
 23 24  1  0
 24 25  1  0
 25 26  1  0
 26 27  1  0
 27 28  2  0
 28 29  1  0
 29 30  2  0
 30 31  1  0
 31 32  2  0
 32 33  1  0
 23 34  2  0
  6 35  2  0
 35  2  1  0
 34  7  1  0
 21 10  1  0
 33 24  1  0
 19 14  1  0
 32 27  1  0
  1 36  1  0
  3 37  1  0
  4 38  1  0
  5 39  1  0
 11 40  1  0
 11 41  1  0
 12 42  1  0
 12 43  1  0
 13 44  1  0
 15 45  1  0
 15 46  1  0
 16 47  1  0
 16 48  1  0
 17 49  1  0
 17 50  1  0
 18 51  1  0
 18 52  1  0
 19 53  1  0
 19 54  1  0
 20 55  1  0
 20 56  1  0
 21 57  1  0
 21 58  1  0
 25 59  1  0
 25 60  1  0
 26 61  1  0
 26 62  1  0
 28 63  1  0
 29 64  1  0
 30 65  1  0
 31 66  1  0
 33 67  1  0
 33 68  1  0
 35 69  1  0
M  END
>  <smiles>  (42) 
Oc1cccc(-c2nc(N3CCC(N4CCCCC4)CC3)nc(N3CCc4ccccc4C3)n2)c1

>  <score_type>  (42) 
oracle

>  <origin>  (42) 
autodockgpu

>  <m_score__min__energy>  (42) 
-9.9499999999999993

>  <m_primary>  (42) 
energy

>  <rmsd>  (42) 
5.793853034137134

>  <m_score__min__rmsd>  (42) 
5.793853034137134

>  <meeko>  (42) 
{"free_energy": -9.63, "intermolecular_energy": -11.13, "internal_energy": -1.11, "cluster_size": 46, "cluster_id": 1, "rank_in_cluster": 33}

>  <energy>  (42) 
-8.81

>  <cluster_rmsd>  (42) 
1.43

>  <cluster>  (42) 
1

$$$$

     RDKit          3D

 69 74  0  0  0  0  0  0  0  0999 V2000
  144.6110   74.3770  217.1780 O   0  0  0  0  0  0  0  0  0  0  0  0
  144.5480   73.7230  218.3850 C   0  0  0  0  0  0  0  0  0  0  0  0
  145.5970   72.9680  218.8580 C   0  0  0  0  0  0  0  0  0  0  0  0
  145.5400   72.3070  220.0740 C   0  0  0  0  0  0  0  0  0  0  0  0
  144.4010   72.4110  220.8270 C   0  0  0  0  0  0  0  0  0  0  0  0
  143.3430   73.1590  220.3750 C   0  0  0  0  0  0  0  0  0  0  0  0
  142.1210   73.2900  221.1530 C   0  0  0  0  0  0  0  0  0  0  0  0
  141.4860   74.4600  221.2600 N   0  0  0  0  0  0  0  0  0  0  0  0
  140.3530   74.6370  221.9670 C   0  0  0  0  0  0  0  0  0  0  0  0
  139.7030   75.9230  222.0520 N   0  0  0  0  0  0  0  0  0  0  0  0
  138.2580   75.9820  221.9840 C   0  0  0  0  0  0  0  0  0  0  0  0
  137.7290   77.2100  222.7340 C   0  0  0  0  0  0  0  0  0  0  0  0
  138.4500   78.3870  222.1180 C   0  0  0  0  0  0  0  0  0  0  0  0
  137.8420   79.6430  222.3350 N   0  0  0  0  0  0  0  0  0  0  0  0
  138.6570   80.7820  222.2030 C   0  0  0  0  0  0  0  0  0  0  0  0
  138.1160   82.0620  222.7110 C   0  0  0  0  0  0  0  0  0  0  0  0
  137.2500   81.9010  223.9640 C   0  0  0  0  0  0  0  0  0  0  0  0
  136.1330   80.9730  223.4980 C   0  0  0  0  0  0  0  0  0  0  0  0
  136.7360   79.6560  223.2150 C   0  0  0  0  0  0  0  0  0  0  0  0
  139.8750   78.3150  222.6600 C   0  0  0  0  0  0  0  0  0  0  0  0
  140.5420   77.0680  222.1980 C   0  0  0  0  0  0  0  0  0  0  0  0
  139.8210   73.5770  222.6070 N   0  0  0  0  0  0  0  0  0  0  0  0
  140.4300   72.3840  222.5220 C   0  0  0  0  0  0  0  0  0  0  0  0
  139.8360   71.2910  223.2090 N   0  0  0  0  0  0  0  0  0  0  0  0
  139.5800   70.0570  222.4940 C   0  0  0  0  0  0  0  0  0  0  0  0
  138.6690   69.2050  223.3490 C   0  0  0  0  0  0  0  0  0  0  0  0
  139.3590   68.9770  224.6440 C   0  0  0  0  0  0  0  0  0  0  0  0
  139.5830   67.7280  225.1810 C   0  0  0  0  0  0  0  0  0  0  0  0
  140.2400   67.6400  226.4040 C   0  0  0  0  0  0  0  0  0  0  0  0
  140.6570   68.7850  227.0610 C   0  0  0  0  0  0  0  0  0  0  0  0
  140.4420   70.0520  226.5360 C   0  0  0  0  0  0  0  0  0  0  0  0
  139.7890   70.1070  225.3240 C   0  0  0  0  0  0  0  0  0  0  0  0
  139.4900   71.4130  224.6340 C   0  0  0  0  0  0  0  0  0  0  0  0
  141.5600   72.2370  221.8100 N   0  0  0  0  0  0  0  0  0  0  0  0
  143.4190   73.8030  219.1750 C   0  0  0  0  0  0  0  0  0  0  0  0
  145.1860   75.2100  217.0950 H   0  0  0  0  0  0  0  0  0  0  0  0
  146.5105   72.8868  218.2506 H   0  0  0  0  0  0  0  0  0  0  0  0
  146.3934   71.7100  220.4280 H   0  0  0  0  0  0  0  0  0  0  0  0
  144.3340   71.8942  221.7957 H   0  0  0  0  0  0  0  0  0  0  0  0
  137.9484   76.0417  220.9301 H   0  0  0  0  0  0  0  0  0  0  0  0
  137.8450   75.0767  222.4529 H   0  0  0  0  0  0  0  0  0  0  0  0
  136.6420   77.3079  222.5968 H   0  0  0  0  0  0  0  0  0  0  0  0
  137.9052   77.1393  223.8175 H   0  0  0  0  0  0  0  0  0  0  0  0
  138.4188   78.3110  221.0211 H   0  0  0  0  0  0  0  0  0  0  0  0
  139.5951   80.5821  222.7415 H   0  0  0  0  0  0  0  0  0  0  0  0
  138.7649   80.9298  221.1183 H   0  0  0  0  0  0  0  0  0  0  0  0
  138.9593   82.7257  222.9527 H   0  0  0  0  0  0  0  0  0  0  0  0
  137.4723   82.4786  221.9223 H   0  0  0  0  0  0  0  0  0  0  0  0
  137.8242   81.4462  224.7847 H   0  0  0  0  0  0  0  0  0  0  0  0
  136.8792   82.8586  224.3584 H   0  0  0  0  0  0  0  0  0  0  0  0
  135.3726   80.8757  224.2869 H   0  0  0  0  0  0  0  0  0  0  0  0
  135.6459   81.3763  222.5980 H   0  0  0  0  0  0  0  0  0  0  0  0
  137.0663   79.2273  224.1727 H   0  0  0  0  0  0  0  0  0  0  0  0
  135.9505   79.0811  222.7026 H   0  0  0  0  0  0  0  0  0  0  0  0
  140.4440   79.1851  222.3008 H   0  0  0  0  0  0  0  0  0  0  0  0
  139.8395   78.3150  223.7594 H   0  0  0  0  0  0  0  0  0  0  0  0
  141.0008   77.2751  221.2199 H   0  0  0  0  0  0  0  0  0  0  0  0
  141.2611   76.8078  222.9887 H   0  0  0  0  0  0  0  0  0  0  0  0
  139.0929   70.2763  221.5324 H   0  0  0  0  0  0  0  0  0  0  0  0
  140.5231   69.5275  222.2935 H   0  0  0  0  0  0  0  0  0  0  0  0
  137.7156   69.7270  223.5179 H   0  0  0  0  0  0  0  0  0  0  0  0
  138.4523   68.2484  222.8511 H   0  0  0  0  0  0  0  0  0  0  0  0
  139.2499   66.8213  224.6547 H   0  0  0  0  0  0  0  0  0  0  0  0
  140.4296   66.6535  226.8523 H   0  0  0  0  0  0  0  0  0  0  0  0
  141.1738   68.6880  228.0272 H   0  0  0  0  0  0  0  0  0  0  0  0
  140.7744   70.9612  227.0584 H   0  0  0  0  0  0  0  0  0  0  0  0
  138.4200   71.6473  224.7352 H   0  0  0  0  0  0  0  0  0  0  0  0
  140.0806   72.2198  225.0925 H   0  0  0  0  0  0  0  0  0  0  0  0
  142.5617   74.3992  218.8293 H   0  0  0  0  0  0  0  0  0  0  0  0
  1  2  1  0
  2  3  2  0
  3  4  1  0
  4  5  2  0
  5  6  1  0
  6  7  1  0
  7  8  2  0
  8  9  1  0
  9 10  1  0
 10 11  1  0
 11 12  1  0
 12 13  1  0
 13 14  1  0
 14 15  1  0
 15 16  1  0
 16 17  1  0
 17 18  1  0
 18 19  1  0
 13 20  1  0
 20 21  1  0
  9 22  2  0
 22 23  1  0
 23 24  1  0
 24 25  1  0
 25 26  1  0
 26 27  1  0
 27 28  2  0
 28 29  1  0
 29 30  2  0
 30 31  1  0
 31 32  2  0
 32 33  1  0
 23 34  2  0
  6 35  2  0
 35  2  1  0
 34  7  1  0
 21 10  1  0
 33 24  1  0
 19 14  1  0
 32 27  1  0
  1 36  1  0
  3 37  1  0
  4 38  1  0
  5 39  1  0
 11 40  1  0
 11 41  1  0
 12 42  1  0
 12 43  1  0
 13 44  1  0
 15 45  1  0
 15 46  1  0
 16 47  1  0
 16 48  1  0
 17 49  1  0
 17 50  1  0
 18 51  1  0
 18 52  1  0
 19 53  1  0
 19 54  1  0
 20 55  1  0
 20 56  1  0
 21 57  1  0
 21 58  1  0
 25 59  1  0
 25 60  1  0
 26 61  1  0
 26 62  1  0
 28 63  1  0
 29 64  1  0
 30 65  1  0
 31 66  1  0
 33 67  1  0
 33 68  1  0
 35 69  1  0
M  END
>  <smiles>  (43) 
Oc1cccc(-c2nc(N3CCC(N4CCCCC4)CC3)nc(N3CCc4ccccc4C3)n2)c1

>  <score_type>  (43) 
oracle

>  <origin>  (43) 
autodockgpu

>  <m_score__min__energy>  (43) 
-9.9499999999999993

>  <m_primary>  (43) 
energy

>  <rmsd>  (43) 
6.438356033091524

>  <m_score__min__rmsd>  (43) 
6.438356033091524

>  <meeko>  (43) 
{"free_energy": -8.81, "intermolecular_energy": -10.3, "internal_energy": -1.12, "cluster_size": 46, "cluster_id": 1, "rank_in_cluster": 42}

>  <energy>  (43) 
-8.77

>  <cluster_rmsd>  (43) 
1.5

>  <cluster>  (43) 
1

$$$$

     RDKit          3D

 69 74  0  0  0  0  0  0  0  0999 V2000
  142.5960   78.1460  218.9750 O   0  0  0  0  0  0  0  0  0  0  0  0
  141.9550   77.5660  220.0430 C   0  0  0  0  0  0  0  0  0  0  0  0
  141.2460   78.3120  220.9580 C   0  0  0  0  0  0  0  0  0  0  0  0
  140.5970   77.7340  222.0360 C   0  0  0  0  0  0  0  0  0  0  0  0
  140.6650   76.3750  222.1930 C   0  0  0  0  0  0  0  0  0  0  0  0
  141.3660   75.6110  221.2940 C   0  0  0  0  0  0  0  0  0  0  0  0
  141.4550   74.1660  221.4340 C   0  0  0  0  0  0  0  0  0  0  0  0
  142.2750   73.4420  220.6680 N   0  0  0  0  0  0  0  0  0  0  0  0
  142.3960   72.1040  220.7560 C   0  0  0  0  0  0  0  0  0  0  0  0
  143.2980   71.3650  219.9050 N   0  0  0  0  0  0  0  0  0  0  0  0
  144.4420   72.0470  219.3390 C   0  0  0  0  0  0  0  0  0  0  0  0
  145.5850   71.0610  219.0710 C   0  0  0  0  0  0  0  0  0  0  0  0
  144.9790   69.9870  218.1960 C   0  0  0  0  0  0  0  0  0  0  0  0
  145.9090   69.2040  217.4760 N   0  0  0  0  0  0  0  0  0  0  0  0
  146.4540   69.7680  216.3080 C   0  0  0  0  0  0  0  0  0  0  0  0
  147.1870   68.8610  215.3990 C   0  0  0  0  0  0  0  0  0  0  0  0
  146.5990   67.4480  215.3450 C   0  0  0  0  0  0  0  0  0  0  0  0
  146.6920   66.9760  216.7930 C   0  0  0  0  0  0  0  0  0  0  0  0
  145.7650   67.8030  217.5920 C   0  0  0  0  0  0  0  0  0  0  0  0
  144.0990   69.1570  219.1270 C   0  0  0  0  0  0  0  0  0  0  0  0
  142.9940   69.9900  219.6730 C   0  0  0  0  0  0  0  0  0  0  0  0
  141.6500   71.4470  221.6670 N   0  0  0  0  0  0  0  0  0  0  0  0
  140.8150   72.1410  222.4550 C   0  0  0  0  0  0  0  0  0  0  0  0
  140.0480   71.4130  223.4050 N   0  0  0  0  0  0  0  0  0  0  0  0
  139.0270   70.4960  222.9410 C   0  0  0  0  0  0  0  0  0  0  0  0
  138.1680   70.1190  224.1280 C   0  0  0  0  0  0  0  0  0  0  0  0
  139.0600   69.5080  225.1470 C   0  0  0  0  0  0  0  0  0  0  0  0
  138.8410   68.2690  225.7070 C   0  0  0  0  0  0  0  0  0  0  0  0
  139.7460   67.8010  226.6540 C   0  0  0  0  0  0  0  0  0  0  0  0
  140.8390   68.5680  227.0200 C   0  0  0  0  0  0  0  0  0  0  0  0
  141.0760   69.8190  226.4670 C   0  0  0  0  0  0  0  0  0  0  0  0
  140.1630   70.2550  225.5320 C   0  0  0  0  0  0  0  0  0  0  0  0
  140.2950   71.5900  224.8450 C   0  0  0  0  0  0  0  0  0  0  0  0
  140.7140   73.4770  222.3460 N   0  0  0  0  0  0  0  0  0  0  0  0
  141.9980   76.2000  220.2380 C   0  0  0  0  0  0  0  0  0  0  0  0
  143.6050   78.2610  219.0050 H   0  0  0  0  0  0  0  0  0  0  0  0
  141.1935   79.4031  220.8282 H   0  0  0  0  0  0  0  0  0  0  0  0
  140.0378   78.3540  222.7522 H   0  0  0  0  0  0  0  0  0  0  0  0
  140.1564   75.8947  223.0419 H   0  0  0  0  0  0  0  0  0  0  0  0
  144.1464   72.5226  218.3922 H   0  0  0  0  0  0  0  0  0  0  0  0
  144.7908   72.8053  220.0555 H   0  0  0  0  0  0  0  0  0  0  0  0
  146.4137   71.5624  218.5496 H   0  0  0  0  0  0  0  0  0  0  0  0
  146.0017   70.6489  220.0019 H   0  0  0  0  0  0  0  0  0  0  0  0
  144.4013   70.4511  217.3830 H   0  0  0  0  0  0  0  0  0  0  0  0
  145.6251   70.2108  215.7363 H   0  0  0  0  0  0  0  0  0  0  0  0
  147.2092   70.4841  216.6642 H   0  0  0  0  0  0  0  0  0  0  0  0
  147.1619   69.2880  214.3856 H   0  0  0  0  0  0  0  0  0  0  0  0
  148.2123   68.7713  215.7873 H   0  0  0  0  0  0  0  0  0  0  0  0
  145.5536   67.4686  215.0032 H   0  0  0  0  0  0  0  0  0  0  0  0
  147.1270   66.7877  214.6413 H   0  0  0  0  0  0  0  0  0  0  0  0
  146.4039   65.9166  216.8616 H   0  0  0  0  0  0  0  0  0  0  0  0
  147.7213   67.0776  217.1674 H   0  0  0  0  0  0  0  0  0  0  0  0
  144.7401   67.5461  217.2862 H   0  0  0  0  0  0  0  0  0  0  0  0
  146.0006   67.5724  218.6414 H   0  0  0  0  0  0  0  0  0  0  0  0
  143.6732   68.3121  218.5659 H   0  0  0  0  0  0  0  0  0  0  0  0
  144.7121   68.7852  219.9612 H   0  0  0  0  0  0  0  0  0  0  0  0
  142.1572   69.9467  218.9604 H   0  0  0  0  0  0  0  0  0  0  0  0
  142.7675   69.5671  220.6629 H   0  0  0  0  0  0  0  0  0  0  0  0
  138.4092   70.9824  222.1717 H   0  0  0  0  0  0  0  0  0  0  0  0
  139.4879   69.5995  222.5008 H   0  0  0  0  0  0  0  0  0  0  0  0
  137.6840   71.0160  224.5416 H   0  0  0  0  0  0  0  0  0  0  0  0
  137.3803   69.4122  223.8280 H   0  0  0  0  0  0  0  0  0  0  0  0
  137.9710   67.6638  225.4124 H   0  0  0  0  0  0  0  0  0  0  0  0
  139.5922   66.8144  227.1155 H   0  0  0  0  0  0  0  0  0  0  0  0
  141.5400   68.1746  227.7709 H   0  0  0  0  0  0  0  0  0  0  0  0
  141.9442   70.4281  226.7590 H   0  0  0  0  0  0  0  0  0  0  0  0
  139.5595   72.2938  225.2618 H   0  0  0  0  0  0  0  0  0  0  0  0
  141.3071   71.9911  225.0024 H   0  0  0  0  0  0  0  0  0  0  0  0
  142.5542   75.5724  219.5261 H   0  0  0  0  0  0  0  0  0  0  0  0
  1  2  1  0
  2  3  2  0
  3  4  1  0
  4  5  2  0
  5  6  1  0
  6  7  1  0
  7  8  2  0
  8  9  1  0
  9 10  1  0
 10 11  1  0
 11 12  1  0
 12 13  1  0
 13 14  1  0
 14 15  1  0
 15 16  1  0
 16 17  1  0
 17 18  1  0
 18 19  1  0
 13 20  1  0
 20 21  1  0
  9 22  2  0
 22 23  1  0
 23 24  1  0
 24 25  1  0
 25 26  1  0
 26 27  1  0
 27 28  2  0
 28 29  1  0
 29 30  2  0
 30 31  1  0
 31 32  2  0
 32 33  1  0
 23 34  2  0
  6 35  2  0
 35  2  1  0
 34  7  1  0
 21 10  1  0
 33 24  1  0
 19 14  1  0
 32 27  1  0
  1 36  1  0
  3 37  1  0
  4 38  1  0
  5 39  1  0
 11 40  1  0
 11 41  1  0
 12 42  1  0
 12 43  1  0
 13 44  1  0
 15 45  1  0
 15 46  1  0
 16 47  1  0
 16 48  1  0
 17 49  1  0
 17 50  1  0
 18 51  1  0
 18 52  1  0
 19 53  1  0
 19 54  1  0
 20 55  1  0
 20 56  1  0
 21 57  1  0
 21 58  1  0
 25 59  1  0
 25 60  1  0
 26 61  1  0
 26 62  1  0
 28 63  1  0
 29 64  1  0
 30 65  1  0
 31 66  1  0
 33 67  1  0
 33 68  1  0
 35 69  1  0
M  END
>  <smiles>  (44) 
Oc1cccc(-c2nc(N3CCC(N4CCCCC4)CC3)nc(N3CCc4ccccc4C3)n2)c1

>  <score_type>  (44) 
oracle

>  <origin>  (44) 
autodockgpu

>  <m_score__min__energy>  (44) 
-9.9499999999999993

>  <m_primary>  (44) 
energy

>  <rmsd>  (44) 
11.020892438062521

>  <m_score__min__rmsd>  (44) 
11.020892438062521

>  <meeko>  (44) 
{"free_energy": -8.57, "intermolecular_energy": -10.06, "internal_energy": -1.11, "cluster_size": 2, "cluster_id": 3, "rank_in_cluster": 2}

>  <energy>  (44) 
-8.71

>  <cluster_rmsd>  (44) 
1.49

>  <cluster>  (44) 
1

$$$$

     RDKit          3D

 69 74  0  0  0  0  0  0  0  0999 V2000
  146.3220   73.0140  217.8700 O   0  0  0  0  0  0  0  0  0  0  0  0
  145.5160   72.1530  218.5760 C   0  0  0  0  0  0  0  0  0  0  0  0
  145.7010   70.7890  218.5390 C   0  0  0  0  0  0  0  0  0  0  0  0
  144.8930   69.9160  219.2490 C   0  0  0  0  0  0  0  0  0  0  0  0
  143.8790   70.4310  220.0120 C   0  0  0  0  0  0  0  0  0  0  0  0
  143.6760   71.7880  220.0640 C   0  0  0  0  0  0  0  0  0  0  0  0
  142.6090   72.3640  220.8660 C   0  0  0  0  0  0  0  0  0  0  0  0
  142.3130   73.6650  220.8000 N   0  0  0  0  0  0  0  0  0  0  0  0
  141.3370   74.2500  221.5200 C   0  0  0  0  0  0  0  0  0  0  0  0
  141.0550   75.6610  221.4130 N   0  0  0  0  0  0  0  0  0  0  0  0
  140.0710   76.2470  222.2990 C   0  0  0  0  0  0  0  0  0  0  0  0
  140.3690   77.7320  222.5360 C   0  0  0  0  0  0  0  0  0  0  0  0
  140.4360   78.3440  221.1550 C   0  0  0  0  0  0  0  0  0  0  0  0
  140.2790   79.7470  221.1130 N   0  0  0  0  0  0  0  0  0  0  0  0
  141.0430   80.4500  220.1640 C   0  0  0  0  0  0  0  0  0  0  0  0
  141.1110   81.9200  220.3070 C   0  0  0  0  0  0  0  0  0  0  0  0
  141.1120   82.3900  221.7650 C   0  0  0  0  0  0  0  0  0  0  0  0
  139.7970   81.8410  222.3080 C   0  0  0  0  0  0  0  0  0  0  0  0
  139.9010   80.3680  222.3250 C   0  0  0  0  0  0  0  0  0  0  0  0
  141.7660   77.8770  220.5710 C   0  0  0  0  0  0  0  0  0  0  0  0
  141.7750   76.3960  220.4240 C   0  0  0  0  0  0  0  0  0  0  0  0
  140.6090   73.4860  222.3590 N   0  0  0  0  0  0  0  0  0  0  0  0
  140.8760   72.1740  222.4520 C   0  0  0  0  0  0  0  0  0  0  0  0
  140.0850   71.4030  223.3460 N   0  0  0  0  0  0  0  0  0  0  0  0
  139.1070   70.4770  222.8120 C   0  0  0  0  0  0  0  0  0  0  0  0
  138.2050   70.0470  223.9480 C   0  0  0  0  0  0  0  0  0  0  0  0
  139.0650   69.4260  224.9870 C   0  0  0  0  0  0  0  0  0  0  0  0
  138.8510   68.1670  225.5020 C   0  0  0  0  0  0  0  0  0  0  0  0
  139.7240   67.6910  226.4760 C   0  0  0  0  0  0  0  0  0  0  0  0
  140.7820   68.4710  226.9110 C   0  0  0  0  0  0  0  0  0  0  0  0
  141.0140   69.7420  226.4040 C   0  0  0  0  0  0  0  0  0  0  0  0
  140.1330   70.1850  225.4420 C   0  0  0  0  0  0  0  0  0  0  0  0
  140.2640   71.5420  224.8000 C   0  0  0  0  0  0  0  0  0  0  0  0
  141.8580   71.6170  221.7220 N   0  0  0  0  0  0  0  0  0  0  0  0
  144.4830   72.6300  219.3580 C   0  0  0  0  0  0  0  0  0  0  0  0
  146.2280   74.0140  218.0170 H   0  0  0  0  0  0  0  0  0  0  0  0
  146.5170   70.3792  217.9257 H   0  0  0  0  0  0  0  0  0  0  0  0
  145.0626   68.8302  219.2009 H   0  0  0  0  0  0  0  0  0  0  0  0
  143.2257   69.7560  220.5844 H   0  0  0  0  0  0  0  0  0  0  0  0
  139.0733   76.1469  221.8467 H   0  0  0  0  0  0  0  0  0  0  0  0
  140.1078   75.7212  223.2645 H   0  0  0  0  0  0  0  0  0  0  0  0
  139.5663   78.1978  223.1266 H   0  0  0  0  0  0  0  0  0  0  0  0
  141.3021   77.8810  223.0992 H   0  0  0  0  0  0  0  0  0  0  0  0
  139.5783   78.0056  220.5552 H   0  0  0  0  0  0  0  0  0  0  0  0
  142.0719   80.0644  220.2160 H   0  0  0  0  0  0  0  0  0  0  0  0
  140.5300   80.2815  219.2056 H   0  0  0  0  0  0  0  0  0  0  0  0
  142.0342   82.2748  219.8256 H   0  0  0  0  0  0  0  0  0  0  0  0
  140.2091   82.3345  219.8328 H   0  0  0  0  0  0  0  0  0  0  0  0
  141.9699   81.9735  222.3133 H   0  0  0  0  0  0  0  0  0  0  0  0
  141.1988   83.4819  221.8666 H   0  0  0  0  0  0  0  0  0  0  0  0
  139.6262   82.2167  223.3276 H   0  0  0  0  0  0  0  0  0  0  0  0
  138.9548   82.1615  221.6772 H   0  0  0  0  0  0  0  0  0  0  0  0
  140.6460   80.0947  223.0867 H   0  0  0  0  0  0  0  0  0  0  0  0
  138.8824   80.0073  222.5307 H   0  0  0  0  0  0  0  0  0  0  0  0
  141.9114   78.3404  219.5840 H   0  0  0  0  0  0  0  0  0  0  0  0
  142.5786   78.1737  221.2505 H   0  0  0  0  0  0  0  0  0  0  0  0
  141.3407   76.1533  219.4429 H   0  0  0  0  0  0  0  0  0  0  0  0
  142.8265   76.0947  220.5403 H   0  0  0  0  0  0  0  0  0  0  0  0
  138.5126   70.9713  222.0294 H   0  0  0  0  0  0  0  0  0  0  0  0
  139.6081   69.6037  222.3690 H   0  0  0  0  0  0  0  0  0  0  0  0
  137.6830   70.9208  224.3650 H   0  0  0  0  0  0  0  0  0  0  0  0
  137.4472   69.3329  223.5933 H   0  0  0  0  0  0  0  0  0  0  0  0
  138.0093   67.5515  225.1517 H   0  0  0  0  0  0  0  0  0  0  0  0
  139.5724   66.6886  226.9029 H   0  0  0  0  0  0  0  0  0  0  0  0
  141.4585   68.0717  227.6810 H   0  0  0  0  0  0  0  0  0  0  0  0
  141.8545   70.3611  226.7510 H   0  0  0  0  0  0  0  0  0  0  0  0
  139.4947   72.2168  225.2035 H   0  0  0  0  0  0  0  0  0  0  0  0
  141.2588   71.9600  225.0139 H   0  0  0  0  0  0  0  0  0  0  0  0
  144.3070   73.7145  219.4127 H   0  0  0  0  0  0  0  0  0  0  0  0
  1  2  1  0
  2  3  2  0
  3  4  1  0
  4  5  2  0
  5  6  1  0
  6  7  1  0
  7  8  2  0
  8  9  1  0
  9 10  1  0
 10 11  1  0
 11 12  1  0
 12 13  1  0
 13 14  1  0
 14 15  1  0
 15 16  1  0
 16 17  1  0
 17 18  1  0
 18 19  1  0
 13 20  1  0
 20 21  1  0
  9 22  2  0
 22 23  1  0
 23 24  1  0
 24 25  1  0
 25 26  1  0
 26 27  1  0
 27 28  2  0
 28 29  1  0
 29 30  2  0
 30 31  1  0
 31 32  2  0
 32 33  1  0
 23 34  2  0
  6 35  2  0
 35  2  1  0
 34  7  1  0
 21 10  1  0
 33 24  1  0
 19 14  1  0
 32 27  1  0
  1 36  1  0
  3 37  1  0
  4 38  1  0
  5 39  1  0
 11 40  1  0
 11 41  1  0
 12 42  1  0
 12 43  1  0
 13 44  1  0
 15 45  1  0
 15 46  1  0
 16 47  1  0
 16 48  1  0
 17 49  1  0
 17 50  1  0
 18 51  1  0
 18 52  1  0
 19 53  1  0
 19 54  1  0
 20 55  1  0
 20 56  1  0
 21 57  1  0
 21 58  1  0
 25 59  1  0
 25 60  1  0
 26 61  1  0
 26 62  1  0
 28 63  1  0
 29 64  1  0
 30 65  1  0
 31 66  1  0
 33 67  1  0
 33 68  1  0
 35 69  1  0
M  END
>  <smiles>  (45) 
Oc1cccc(-c2nc(N3CCC(N4CCCCC4)CC3)nc(N3CCc4ccccc4C3)n2)c1

>  <score_type>  (45) 
oracle

>  <origin>  (45) 
autodockgpu

>  <m_score__min__energy>  (45) 
-9.9499999999999993

>  <m_primary>  (45) 
energy

>  <rmsd>  (45) 
5.523170218427191

>  <m_score__min__rmsd>  (45) 
5.523170218427191

>  <meeko>  (45) 
{"free_energy": -9.87, "intermolecular_energy": -11.36, "internal_energy": -1.13, "cluster_size": 46, "cluster_id": 1, "rank_in_cluster": 21}

>  <energy>  (45) 
-8.62

>  <cluster_rmsd>  (45) 
1.5

>  <cluster>  (45) 
1

$$$$

     RDKit          3D

 69 74  0  0  0  0  0  0  0  0999 V2000
  146.3000   73.0210  217.9080 O   0  0  0  0  0  0  0  0  0  0  0  0
  145.4540   72.1570  218.5620 C   0  0  0  0  0  0  0  0  0  0  0  0
  145.5840   70.7900  218.4530 C   0  0  0  0  0  0  0  0  0  0  0  0
  144.7360   69.9150  219.1090 C   0  0  0  0  0  0  0  0  0  0  0  0
  143.7370   70.4290  219.8930 C   0  0  0  0  0  0  0  0  0  0  0  0
  143.5890   71.7880  220.0170 C   0  0  0  0  0  0  0  0  0  0  0  0
  142.5390   72.3640  220.8420 C   0  0  0  0  0  0  0  0  0  0  0  0
  142.2410   73.6640  220.7830 N   0  0  0  0  0  0  0  0  0  0  0  0
  141.2810   74.2480  221.5240 C   0  0  0  0  0  0  0  0  0  0  0  0
  140.9960   75.6600  221.4230 N   0  0  0  0  0  0  0  0  0  0  0  0
  140.0190   76.2410  222.3200 C   0  0  0  0  0  0  0  0  0  0  0  0
  140.3170   77.7260  222.5580 C   0  0  0  0  0  0  0  0  0  0  0  0
  140.3700   78.3420  221.1790 C   0  0  0  0  0  0  0  0  0  0  0  0
  140.2100   79.7450  221.1420 N   0  0  0  0  0  0  0  0  0  0  0  0
  140.9930   80.4560  220.2130 C   0  0  0  0  0  0  0  0  0  0  0  0
  141.0550   81.9250  220.3670 C   0  0  0  0  0  0  0  0  0  0  0  0
  141.0230   82.3850  221.8270 C   0  0  0  0  0  0  0  0  0  0  0  0
  139.6980   81.8300  222.3390 C   0  0  0  0  0  0  0  0  0  0  0  0
  139.8050   80.3580  222.3490 C   0  0  0  0  0  0  0  0  0  0  0  0
  141.6950   77.8790  220.5810 C   0  0  0  0  0  0  0  0  0  0  0  0
  141.7050   76.3980  220.4300 C   0  0  0  0  0  0  0  0  0  0  0  0
  140.5720   73.4840  222.3790 N   0  0  0  0  0  0  0  0  0  0  0  0
  140.8420   72.1730  222.4660 C   0  0  0  0  0  0  0  0  0  0  0  0
  140.0710   71.4000  223.3760 N   0  0  0  0  0  0  0  0  0  0  0  0
  139.0790   70.4770  222.8630 C   0  0  0  0  0  0  0  0  0  0  0  0
  138.2040   70.0460  224.0190 C   0  0  0  0  0  0  0  0  0  0  0  0
  139.0870   69.4220  225.0380 C   0  0  0  0  0  0  0  0  0  0  0  0
  138.8830   68.1620  225.5550 C   0  0  0  0  0  0  0  0  0  0  0  0
  139.7790   67.6840  226.5070 C   0  0  0  0  0  0  0  0  0  0  0  0
  140.8470   68.4620  226.9190 C   0  0  0  0  0  0  0  0  0  0  0  0
  141.0680   69.7330  226.4090 C   0  0  0  0  0  0  0  0  0  0  0  0
  140.1660   70.1790  225.4690 C   0  0  0  0  0  0  0  0  0  0  0  0
  140.2840   71.5370  224.8260 C   0  0  0  0  0  0  0  0  0  0  0  0
  141.8070   71.6160  221.7140 N   0  0  0  0  0  0  0  0  0  0  0  0
  144.4350   72.6340  219.3620 C   0  0  0  0  0  0  0  0  0  0  0  0
  146.2390   74.0160  218.1010 H   0  0  0  0  0  0  0  0  0  0  0  0
  146.3881   70.3805  217.8240 H   0  0  0  0  0  0  0  0  0  0  0  0
  144.8617   68.8274  219.0029 H   0  0  0  0  0  0  0  0  0  0  0  0
  143.0523   69.7514  220.4241 H   0  0  0  0  0  0  0  0  0  0  0  0
  139.0172   76.1403  221.8769 H   0  0  0  0  0  0  0  0  0  0  0  0
  140.0652   75.7123  223.2835 H   0  0  0  0  0  0  0  0  0  0  0  0
  139.5193   78.1889  223.1575 H   0  0  0  0  0  0  0  0  0  0  0  0
  141.2553   77.8747  223.1125 H   0  0  0  0  0  0  0  0  0  0  0  0
  139.5070   78.0039  220.5866 H   0  0  0  0  0  0  0  0  0  0  0  0
  142.0213   80.0720  220.2841 H   0  0  0  0  0  0  0  0  0  0  0  0
  140.5007   80.2928  219.2429 H   0  0  0  0  0  0  0  0  0  0  0  0
  141.9879   82.2846  219.9084 H   0  0  0  0  0  0  0  0  0  0  0  0
  140.1630   82.3410  219.8757 H   0  0  0  0  0  0  0  0  0  0  0  0
  141.8699   81.9668  222.3908 H   0  0  0  0  0  0  0  0  0  0  0  0
  141.1045   83.4764  221.9370 H   0  0  0  0  0  0  0  0  0  0  0  0
  139.5051   82.1990  223.3572 H   0  0  0  0  0  0  0  0  0  0  0  0
  138.8684   82.1527  221.6928 H   0  0  0  0  0  0  0  0  0  0  0  0
  140.5342   80.0816  223.1248 H   0  0  0  0  0  0  0  0  0  0  0  0
  138.7829   79.9941  222.5305 H   0  0  0  0  0  0  0  0  0  0  0  0
  141.8301   78.3452  219.5939 H   0  0  0  0  0  0  0  0  0  0  0  0
  142.5137   78.1754  221.2533 H   0  0  0  0  0  0  0  0  0  0  0  0
  141.2619   76.1571  219.4524 H   0  0  0  0  0  0  0  0  0  0  0  0
  142.7580   76.0980  220.5356 H   0  0  0  0  0  0  0  0  0  0  0  0
  138.4670   70.9742  222.0960 H   0  0  0  0  0  0  0  0  0  0  0  0
  139.5677   69.6040  222.4058 H   0  0  0  0  0  0  0  0  0  0  0  0
  137.6927   70.9197  224.4493 H   0  0  0  0  0  0  0  0  0  0  0  0
  137.4380   69.3327  223.6806 H   0  0  0  0  0  0  0  0  0  0  0  0
  138.0325   67.5481  225.2236 H   0  0  0  0  0  0  0  0  0  0  0  0
  139.6372   66.6806  226.9350 H   0  0  0  0  0  0  0  0  0  0  0  0
  141.5406   68.0609  227.6727 H   0  0  0  0  0  0  0  0  0  0  0  0
  141.9170   70.3505  226.7374 H   0  0  0  0  0  0  0  0  0  0  0  0
  139.5252   72.2123  225.2482 H   0  0  0  0  0  0  0  0  0  0  0  0
  141.2839   71.9535  225.0173 H   0  0  0  0  0  0  0  0  0  0  0  0
  144.3024   73.7203  219.4737 H   0  0  0  0  0  0  0  0  0  0  0  0
  1  2  1  0
  2  3  2  0
  3  4  1  0
  4  5  2  0
  5  6  1  0
  6  7  1  0
  7  8  2  0
  8  9  1  0
  9 10  1  0
 10 11  1  0
 11 12  1  0
 12 13  1  0
 13 14  1  0
 14 15  1  0
 15 16  1  0
 16 17  1  0
 17 18  1  0
 18 19  1  0
 13 20  1  0
 20 21  1  0
  9 22  2  0
 22 23  1  0
 23 24  1  0
 24 25  1  0
 25 26  1  0
 26 27  1  0
 27 28  2  0
 28 29  1  0
 29 30  2  0
 30 31  1  0
 31 32  2  0
 32 33  1  0
 23 34  2  0
  6 35  2  0
 35  2  1  0
 34  7  1  0
 21 10  1  0
 33 24  1  0
 19 14  1  0
 32 27  1  0
  1 36  1  0
  3 37  1  0
  4 38  1  0
  5 39  1  0
 11 40  1  0
 11 41  1  0
 12 42  1  0
 12 43  1  0
 13 44  1  0
 15 45  1  0
 15 46  1  0
 16 47  1  0
 16 48  1  0
 17 49  1  0
 17 50  1  0
 18 51  1  0
 18 52  1  0
 19 53  1  0
 19 54  1  0
 20 55  1  0
 20 56  1  0
 21 57  1  0
 21 58  1  0
 25 59  1  0
 25 60  1  0
 26 61  1  0
 26 62  1  0
 28 63  1  0
 29 64  1  0
 30 65  1  0
 31 66  1  0
 33 67  1  0
 33 68  1  0
 35 69  1  0
M  END
>  <smiles>  (46) 
Oc1cccc(-c2nc(N3CCC(N4CCCCC4)CC3)nc(N3CCc4ccccc4C3)n2)c1

>  <score_type>  (46) 
oracle

>  <origin>  (46) 
autodockgpu

>  <m_score__min__energy>  (46) 
-9.9499999999999993

>  <m_primary>  (46) 
energy

>  <rmsd>  (46) 
5.53388251203329

>  <m_score__min__rmsd>  (46) 
5.53388251203329

>  <meeko>  (46) 
{"free_energy": -9.92, "intermolecular_energy": -11.41, "internal_energy": -1.12, "cluster_size": 46, "cluster_id": 1, "rank_in_cluster": 17}

>  <energy>  (46) 
-8.61

>  <cluster_rmsd>  (46) 
1.03

>  <cluster>  (46) 
1

$$$$

     RDKit          3D

 69 74  0  0  0  0  0  0  0  0999 V2000
  146.3210   73.1210  218.3200 O   0  0  0  0  0  0  0  0  0  0  0  0
  145.3430   72.2530  218.7440 C   0  0  0  0  0  0  0  0  0  0  0  0
  145.3260   70.9320  218.3570 C   0  0  0  0  0  0  0  0  0  0  0  0
  144.3440   70.0520  218.7800 C   0  0  0  0  0  0  0  0  0  0  0  0
  143.3600   70.5160  219.6120 C   0  0  0  0  0  0  0  0  0  0  0  0
  143.3570   71.8290  220.0110 C   0  0  0  0  0  0  0  0  0  0  0  0
  142.3260   72.3500  220.8950 C   0  0  0  0  0  0  0  0  0  0  0  0
  141.9790   73.6400  220.8750 N   0  0  0  0  0  0  0  0  0  0  0  0
  141.0330   74.1740  221.6700 C   0  0  0  0  0  0  0  0  0  0  0  0
  140.6920   75.5750  221.6110 N   0  0  0  0  0  0  0  0  0  0  0  0
  141.5130   76.4610  220.8130 C   0  0  0  0  0  0  0  0  0  0  0  0
  140.6950   77.6600  220.3170 C   0  0  0  0  0  0  0  0  0  0  0  0
  140.1090   78.2770  221.5660 C   0  0  0  0  0  0  0  0  0  0  0  0
  139.6730   79.6140  221.4260 N   0  0  0  0  0  0  0  0  0  0  0  0
  140.2900   80.3890  220.4280 C   0  0  0  0  0  0  0  0  0  0  0  0
  140.0600   81.8490  220.4670 C   0  0  0  0  0  0  0  0  0  0  0  0
  139.9500   82.4090  221.8880 C   0  0  0  0  0  0  0  0  0  0  0  0
  138.7670   81.6450  222.4730 C   0  0  0  0  0  0  0  0  0  0  0  0
  139.1650   80.2290  222.5930 C   0  0  0  0  0  0  0  0  0  0  0  0
  138.9920   77.3310  221.9990 C   0  0  0  0  0  0  0  0  0  0  0  0
  139.5530   76.0000  222.3580 C   0  0  0  0  0  0  0  0  0  0  0  0
  140.3920   73.3680  222.5420 N   0  0  0  0  0  0  0  0  0  0  0  0
  140.7140   72.0660  222.5900 C   0  0  0  0  0  0  0  0  0  0  0  0
  140.0140   71.2490  223.5190 N   0  0  0  0  0  0  0  0  0  0  0  0
  139.1970   70.1570  223.0310 C   0  0  0  0  0  0  0  0  0  0  0  0
  138.3310   69.6770  224.1750 C   0  0  0  0  0  0  0  0  0  0  0  0
  139.2390   69.2600  225.2750 C   0  0  0  0  0  0  0  0  0  0  0  0
  139.1920   68.0200  225.8740 C   0  0  0  0  0  0  0  0  0  0  0  0
  140.0940   67.7440  226.8970 C   0  0  0  0  0  0  0  0  0  0  0  0
  141.0140   68.6980  227.2980 C   0  0  0  0  0  0  0  0  0  0  0  0
  141.0760   69.9520  226.7070 C   0  0  0  0  0  0  0  0  0  0  0  0
  140.1710   70.1960  225.6980 C   0  0  0  0  0  0  0  0  0  0  0  0
  140.1250   71.5110  224.9630 C   0  0  0  0  0  0  0  0  0  0  0  0
  141.6630   71.5600  221.7840 N   0  0  0  0  0  0  0  0  0  0  0  0
  144.3330   72.6790  219.5830 C   0  0  0  0  0  0  0  0  0  0  0  0
  146.1430   74.1200  218.3480 H   0  0  0  0  0  0  0  0  0  0  0  0
  146.1188   70.5632  217.6896 H   0  0  0  0  0  0  0  0  0  0  0  0
  144.3541   69.0014  218.4543 H   0  0  0  0  0  0  0  0  0  0  0  0
  142.5702   69.8346  219.9612 H   0  0  0  0  0  0  0  0  0  0  0  0
  142.3517   76.8246  221.4249 H   0  0  0  0  0  0  0  0  0  0  0  0
  141.8887   75.9049  219.9414 H   0  0  0  0  0  0  0  0  0  0  0  0
  141.3425   78.3811  219.7967 H   0  0  0  0  0  0  0  0  0  0  0  0
  139.9167   77.3609  219.5995 H   0  0  0  0  0  0  0  0  0  0  0  0
  140.8901   78.3751  222.3343 H   0  0  0  0  0  0  0  0  0  0  0  0
  141.3748   80.2228  220.5034 H   0  0  0  0  0  0  0  0  0  0  0  0
  139.8312   80.0550  219.4857 H   0  0  0  0  0  0  0  0  0  0  0  0
  140.8987   82.3479  219.9594 H   0  0  0  0  0  0  0  0  0  0  0  0
  139.0990   82.0401  219.9671 H   0  0  0  0  0  0  0  0  0  0  0  0
  140.8682   82.2134  222.4612 H   0  0  0  0  0  0  0  0  0  0  0  0
  139.8133   83.5002  221.9123 H   0  0  0  0  0  0  0  0  0  0  0  0
  138.5133   82.0485  223.4644 H   0  0  0  0  0  0  0  0  0  0  0  0
  137.8843   81.7443  221.8242 H   0  0  0  0  0  0  0  0  0  0  0  0
  139.9418   80.1651  223.3692 H   0  0  0  0  0  0  0  0  0  0  0  0
  138.2378   79.6856  222.8274 H   0  0  0  0  0  0  0  0  0  0  0  0
  138.4757   77.7550  222.8729 H   0  0  0  0  0  0  0  0  0  0  0  0
  138.2840   77.2082  221.1662 H   0  0  0  0  0  0  0  0  0  0  0  0
  139.8403   76.0319  223.4193 H   0  0  0  0  0  0  0  0  0  0  0  0
  138.7603   75.2736  222.1256 H   0  0  0  0  0  0  0  0  0  0  0  0
  138.5626   70.5059  222.2029 H   0  0  0  0  0  0  0  0  0  0  0  0
  139.8323   69.3385  222.6616 H   0  0  0  0  0  0  0  0  0  0  0  0
  137.6749   70.4910  224.5172 H   0  0  0  0  0  0  0  0  0  0  0  0
  137.6962   68.8372  223.8559 H   0  0  0  0  0  0  0  0  0  0  0  0
  138.4589   67.2662  225.5512 H   0  0  0  0  0  0  0  0  0  0  0  0
  140.0760   66.7611  227.3906 H   0  0  0  0  0  0  0  0  0  0  0  0
  141.7164   68.4547  228.1089 H   0  0  0  0  0  0  0  0  0  0  0  0
  141.8073   70.7090  227.0266 H   0  0  0  0  0  0  0  0  0  0  0  0
  139.2540   72.0919  225.3005 H   0  0  0  0  0  0  0  0  0  0  0  0
  141.0418   72.0834  225.1675 H   0  0  0  0  0  0  0  0  0  0  0  0
  144.3153   73.7280  219.9136 H   0  0  0  0  0  0  0  0  0  0  0  0
  1  2  1  0
  2  3  2  0
  3  4  1  0
  4  5  2  0
  5  6  1  0
  6  7  1  0
  7  8  2  0
  8  9  1  0
  9 10  1  0
 10 11  1  0
 11 12  1  0
 12 13  1  0
 13 14  1  0
 14 15  1  0
 15 16  1  0
 16 17  1  0
 17 18  1  0
 18 19  1  0
 13 20  1  0
 20 21  1  0
  9 22  2  0
 22 23  1  0
 23 24  1  0
 24 25  1  0
 25 26  1  0
 26 27  1  0
 27 28  2  0
 28 29  1  0
 29 30  2  0
 30 31  1  0
 31 32  2  0
 32 33  1  0
 23 34  2  0
  6 35  2  0
 35  2  1  0
 34  7  1  0
 21 10  1  0
 33 24  1  0
 19 14  1  0
 32 27  1  0
  1 36  1  0
  3 37  1  0
  4 38  1  0
  5 39  1  0
 11 40  1  0
 11 41  1  0
 12 42  1  0
 12 43  1  0
 13 44  1  0
 15 45  1  0
 15 46  1  0
 16 47  1  0
 16 48  1  0
 17 49  1  0
 17 50  1  0
 18 51  1  0
 18 52  1  0
 19 53  1  0
 19 54  1  0
 20 55  1  0
 20 56  1  0
 21 57  1  0
 21 58  1  0
 25 59  1  0
 25 60  1  0
 26 61  1  0
 26 62  1  0
 28 63  1  0
 29 64  1  0
 30 65  1  0
 31 66  1  0
 33 67  1  0
 33 68  1  0
 35 69  1  0
M  END
>  <smiles>  (47) 
Oc1cccc(-c2nc(N3CCC(N4CCCCC4)CC3)nc(N3CCc4ccccc4C3)n2)c1

>  <score_type>  (47) 
oracle

>  <origin>  (47) 
autodockgpu

>  <m_score__min__energy>  (47) 
-9.9499999999999993

>  <m_primary>  (47) 
energy

>  <rmsd>  (47) 
5.631794508555057

>  <m_score__min__rmsd>  (47) 
5.631794508555057

>  <meeko>  (47) 
{"free_energy": -9.65, "intermolecular_energy": -11.14, "internal_energy": -1.1, "cluster_size": 46, "cluster_id": 1, "rank_in_cluster": 32}

>  <energy>  (47) 
-8.74

>  <cluster_rmsd>  (47) 
0.0

>  <cluster>  (47) 
2

$$$$

     RDKit          3D

 69 74  0  0  0  0  0  0  0  0999 V2000
  146.3200   73.0280  218.0770 O   0  0  0  0  0  0  0  0  0  0  0  0
  145.4530   72.1510  218.6850 C   0  0  0  0  0  0  0  0  0  0  0  0
  145.5740   70.7870  218.5330 C   0  0  0  0  0  0  0  0  0  0  0  0
  144.7050   69.8980  219.1430 C   0  0  0  0  0  0  0  0  0  0  0  0
  143.6940   70.3960  219.9220 C   0  0  0  0  0  0  0  0  0  0  0  0
  143.5550   71.7510  220.0880 C   0  0  0  0  0  0  0  0  0  0  0  0
  142.4930   72.3090  220.9100 C   0  0  0  0  0  0  0  0  0  0  0  0
  142.1700   73.6030  220.8460 N   0  0  0  0  0  0  0  0  0  0  0  0
  141.1970   74.1710  221.5830 C   0  0  0  0  0  0  0  0  0  0  0  0
  140.8840   75.5760  221.4770 N   0  0  0  0  0  0  0  0  0  0  0  0
  139.8690   76.1330  222.3470 C   0  0  0  0  0  0  0  0  0  0  0  0
  140.1270   77.6240  222.5960 C   0  0  0  0  0  0  0  0  0  0  0  0
  140.2060   78.2440  221.2190 C   0  0  0  0  0  0  0  0  0  0  0  0
  140.0170   79.6430  221.1800 N   0  0  0  0  0  0  0  0  0  0  0  0
  140.8580   80.3810  220.3280 C   0  0  0  0  0  0  0  0  0  0  0  0
  140.8720   81.8500  220.4980 C   0  0  0  0  0  0  0  0  0  0  0  0
  140.7050   82.2950  221.9540 C   0  0  0  0  0  0  0  0  0  0  0  0
  139.3540   81.7040  222.3460 C   0  0  0  0  0  0  0  0  0  0  0  0
  139.4960   80.2340  222.3540 C   0  0  0  0  0  0  0  0  0  0  0  0
  141.5580   77.8110  220.6590 C   0  0  0  0  0  0  0  0  0  0  0  0
  141.6050   76.3310  220.5060 C   0  0  0  0  0  0  0  0  0  0  0  0
  140.5020   73.3950  222.4410 N   0  0  0  0  0  0  0  0  0  0  0  0
  140.7990   72.0900  222.5330 C   0  0  0  0  0  0  0  0  0  0  0  0
  140.0430   71.3060  223.4460 N   0  0  0  0  0  0  0  0  0  0  0  0
  139.1300   70.3030  222.9360 C   0  0  0  0  0  0  0  0  0  0  0  0
  138.2390   69.8630  224.0770 C   0  0  0  0  0  0  0  0  0  0  0  0
  139.1200   69.3350  225.1500 C   0  0  0  0  0  0  0  0  0  0  0  0
  138.9740   68.0850  225.7110 C   0  0  0  0  0  0  0  0  0  0  0  0
  139.8600   67.7000  226.7120 C   0  0  0  0  0  0  0  0  0  0  0  0
  140.8630   68.5590  227.1300 C   0  0  0  0  0  0  0  0  0  0  0  0
  141.0250   69.8210  226.5770 C   0  0  0  0  0  0  0  0  0  0  0  0
  140.1330   70.1740  225.5890 C   0  0  0  0  0  0  0  0  0  0  0  0
  140.1920   71.5110  224.8960 C   0  0  0  0  0  0  0  0  0  0  0  0
  141.7760   71.5500  221.7850 N   0  0  0  0  0  0  0  0  0  0  0  0
  144.4220   72.6100  219.4790 C   0  0  0  0  0  0  0  0  0  0  0  0
  146.2180   74.0230  218.2490 H   0  0  0  0  0  0  0  0  0  0  0  0
  146.3872   70.3914  217.9068 H   0  0  0  0  0  0  0  0  0  0  0  0
  144.8241   68.8132  219.0048 H   0  0  0  0  0  0  0  0  0  0  0  0
  142.9919   69.7079  220.4156 H   0  0  0  0  0  0  0  0  0  0  0  0
  138.8827   76.0111  221.8754 H   0  0  0  0  0  0  0  0  0  0  0  0
  139.8996   75.6032  223.3105 H   0  0  0  0  0  0  0  0  0  0  0  0
  139.3022   78.0678  223.1729 H   0  0  0  0  0  0  0  0  0  0  0  0
  141.0452   77.7924  223.1778 H   0  0  0  0  0  0  0  0  0  0  0  0
  139.3681   77.8886  220.6012 H   0  0  0  0  0  0  0  0  0  0  0  0
  141.8854   80.0202  220.4835 H   0  0  0  0  0  0  0  0  0  0  0  0
  140.4534   80.2164  219.3184 H   0  0  0  0  0  0  0  0  0  0  0  0
  141.8318   82.2353  220.1234 H   0  0  0  0  0  0  0  0  0  0  0  0
  140.0156   82.2503  219.9356 H   0  0  0  0  0  0  0  0  0  0  0  0
  141.5104   81.8909  222.5849 H   0  0  0  0  0  0  0  0  0  0  0  0
  140.7512   83.3868  222.0795 H   0  0  0  0  0  0  0  0  0  0  0  0
  139.0654   82.0586  223.3465 H   0  0  0  0  0  0  0  0  0  0  0  0
  138.5752   82.0134  221.6334 H   0  0  0  0  0  0  0  0  0  0  0  0
  140.1636   79.9675  223.1866 H   0  0  0  0  0  0  0  0  0  0  0  0
  138.4717   79.8436  222.4459 H   0  0  0  0  0  0  0  0  0  0  0  0
  141.7115   78.2822  219.6770 H   0  0  0  0  0  0  0  0  0  0  0  0
  142.3500   78.1236  221.3555 H   0  0  0  0  0  0  0  0  0  0  0  0
  141.1957   76.0825  219.5157 H   0  0  0  0  0  0  0  0  0  0  0  0
  142.6609   76.0538  220.6412 H   0  0  0  0  0  0  0  0  0  0  0  0
  138.5186   70.7305  222.1276 H   0  0  0  0  0  0  0  0  0  0  0  0
  139.6887   69.4454  222.5331 H   0  0  0  0  0  0  0  0  0  0  0  0
  137.6597   70.7190  224.4533 H   0  0  0  0  0  0  0  0  0  0  0  0
  137.5304   69.0915  223.7413 H   0  0  0  0  0  0  0  0  0  0  0  0
  138.1754   67.4072  225.3751 H   0  0  0  0  0  0  0  0  0  0  0  0
  139.7634   66.7067  227.1747 H   0  0  0  0  0  0  0  0  0  0  0  0
  141.5509   68.2311  227.9233 H   0  0  0  0  0  0  0  0  0  0  0  0
  141.8221   70.5022  226.9094 H   0  0  0  0  0  0  0  0  0  0  0  0
  139.3779   72.1531  225.2633 H   0  0  0  0  0  0  0  0  0  0  0  0
  141.1568   71.9961  225.1056 H   0  0  0  0  0  0  0  0  0  0  0  0
  144.2965   73.6931  219.6241 H   0  0  0  0  0  0  0  0  0  0  0  0
  1  2  1  0
  2  3  2  0
  3  4  1  0
  4  5  2  0
  5  6  1  0
  6  7  1  0
  7  8  2  0
  8  9  1  0
  9 10  1  0
 10 11  1  0
 11 12  1  0
 12 13  1  0
 13 14  1  0
 14 15  1  0
 15 16  1  0
 16 17  1  0
 17 18  1  0
 18 19  1  0
 13 20  1  0
 20 21  1  0
  9 22  2  0
 22 23  1  0
 23 24  1  0
 24 25  1  0
 25 26  1  0
 26 27  1  0
 27 28  2  0
 28 29  1  0
 29 30  2  0
 30 31  1  0
 31 32  2  0
 32 33  1  0
 23 34  2  0
  6 35  2  0
 35  2  1  0
 34  7  1  0
 21 10  1  0
 33 24  1  0
 19 14  1  0
 32 27  1  0
  1 36  1  0
  3 37  1  0
  4 38  1  0
  5 39  1  0
 11 40  1  0
 11 41  1  0
 12 42  1  0
 12 43  1  0
 13 44  1  0
 15 45  1  0
 15 46  1  0
 16 47  1  0
 16 48  1  0
 17 49  1  0
 17 50  1  0
 18 51  1  0
 18 52  1  0
 19 53  1  0
 19 54  1  0
 20 55  1  0
 20 56  1  0
 21 57  1  0
 21 58  1  0
 25 59  1  0
 25 60  1  0
 26 61  1  0
 26 62  1  0
 28 63  1  0
 29 64  1  0
 30 65  1  0
 31 66  1  0
 33 67  1  0
 33 68  1  0
 35 69  1  0
M  END
>  <smiles>  (48) 
Oc1cccc(-c2nc(N3CCC(N4CCCCC4)CC3)nc(N3CCc4ccccc4C3)n2)c1

>  <score_type>  (48) 
oracle

>  <origin>  (48) 
autodockgpu

>  <m_score__min__energy>  (48) 
-9.9499999999999993

>  <m_primary>  (48) 
energy

>  <rmsd>  (48) 
5.51517261633841

>  <m_score__min__rmsd>  (48) 
5.51517261633841

>  <meeko>  (48) 
{"free_energy": -9.95, "intermolecular_energy": -11.44, "internal_energy": -1.12, "cluster_size": 46, "cluster_id": 1, "rank_in_cluster": 2}

>  <energy>  (48) 
-8.34

>  <cluster_rmsd>  (48) 
1.48

>  <cluster>  (48) 
2

$$$$

     RDKit          3D

 69 74  0  0  0  0  0  0  0  0999 V2000
  144.6860   74.3070  217.1000 O   0  0  0  0  0  0  0  0  0  0  0  0
  144.6410   73.7210  218.3420 C   0  0  0  0  0  0  0  0  0  0  0  0
  145.7110   73.0230  218.8560 C   0  0  0  0  0  0  0  0  0  0  0  0
  145.6720   72.4310  220.1080 C   0  0  0  0  0  0  0  0  0  0  0  0
  144.5300   72.5470  220.8550 C   0  0  0  0  0  0  0  0  0  0  0  0
  143.4510   73.2370  220.3620 C   0  0  0  0  0  0  0  0  0  0  0  0
  142.2250   73.3780  221.1330 C   0  0  0  0  0  0  0  0  0  0  0  0
  141.6080   74.5570  221.2510 N   0  0  0  0  0  0  0  0  0  0  0  0
  140.4730   74.7420  221.9510 C   0  0  0  0  0  0  0  0  0  0  0  0
  139.8440   76.0380  222.0490 N   0  0  0  0  0  0  0  0  0  0  0  0
  138.4010   76.1220  221.9590 C   0  0  0  0  0  0  0  0  0  0  0  0
  137.8800   77.3460  222.7220 C   0  0  0  0  0  0  0  0  0  0  0  0
  138.6310   78.5210  222.1380 C   0  0  0  0  0  0  0  0  0  0  0  0
  138.0410   79.7840  222.3670 N   0  0  0  0  0  0  0  0  0  0  0  0
  138.4790   80.5020  223.4950 C   0  0  0  0  0  0  0  0  0  0  0  0
  137.6710   81.6700  223.9070 C   0  0  0  0  0  0  0  0  0  0  0  0
  136.1690   81.4820  223.6760 C   0  0  0  0  0  0  0  0  0  0  0  0
  136.0740   81.2460  222.1730 C   0  0  0  0  0  0  0  0  0  0  0  0
  136.7240   79.9520  221.8820 C   0  0  0  0  0  0  0  0  0  0  0  0
  140.0460   78.4160  222.7010 C   0  0  0  0  0  0  0  0  0  0  0  0
  140.6990   77.1650  222.2280 C   0  0  0  0  0  0  0  0  0  0  0  0
  139.9190   73.6820  222.5730 N   0  0  0  0  0  0  0  0  0  0  0  0
  140.5090   72.4820  222.4770 C   0  0  0  0  0  0  0  0  0  0  0  0
  139.8930   71.3890  223.1440 N   0  0  0  0  0  0  0  0  0  0  0  0
  139.5880   70.1820  222.4010 C   0  0  0  0  0  0  0  0  0  0  0  0
  138.6640   69.3360  223.2490 C   0  0  0  0  0  0  0  0  0  0  0  0
  139.3660   69.0540  224.5270 C   0  0  0  0  0  0  0  0  0  0  0  0
  139.5590   67.7850  225.0280 C   0  0  0  0  0  0  0  0  0  0  0  0
  140.2310   67.6450  226.2380 C   0  0  0  0  0  0  0  0  0  0  0  0
  140.6930   68.7600  226.9170 C   0  0  0  0  0  0  0  0  0  0  0  0
  140.5090   70.0460  226.4290 C   0  0  0  0  0  0  0  0  0  0  0  0
  139.8400   70.1520  225.2290 C   0  0  0  0  0  0  0  0  0  0  0  0
  139.5720   71.4840  224.5770 C   0  0  0  0  0  0  0  0  0  0  0  0
  141.6430   72.3250  221.7710 N   0  0  0  0  0  0  0  0  0  0  0  0
  143.5100   73.8140  219.1280 C   0  0  0  0  0  0  0  0  0  0  0  0
  145.1850   75.1830  216.9830 H   0  0  0  0  0  0  0  0  0  0  0  0
  146.6265   72.9325  218.2529 H   0  0  0  0  0  0  0  0  0  0  0  0
  146.5412   71.8786  220.4945 H   0  0  0  0  0  0  0  0  0  0  0  0
  144.4775   72.0861  221.8524 H   0  0  0  0  0  0  0  0  0  0  0  0
  138.1095   76.2048  220.9016 H   0  0  0  0  0  0  0  0  0  0  0  0
  137.9657   75.2157  222.4054 H   0  0  0  0  0  0  0  0  0  0  0  0
  136.7972   77.4647  222.5689 H   0  0  0  0  0  0  0  0  0  0  0  0
  138.0369   77.2538  223.8068 H   0  0  0  0  0  0  0  0  0  0  0  0
  138.6159   78.4635  221.0396 H   0  0  0  0  0  0  0  0  0  0  0  0
  138.5058   79.8021  224.3432 H   0  0  0  0  0  0  0  0  0  0  0  0
  139.4544   80.9196  223.2047 H   0  0  0  0  0  0  0  0  0  0  0  0
  137.8392   81.8497  224.9791 H   0  0  0  0  0  0  0  0  0  0  0  0
  137.9909   82.5210  223.2878 H   0  0  0  0  0  0  0  0  0  0  0  0
  135.7894   80.6147  224.2361 H   0  0  0  0  0  0  0  0  0  0  0  0
  135.5698   82.3393  224.0165 H   0  0  0  0  0  0  0  0  0  0  0  0
  135.0187   81.2134  221.8644 H   0  0  0  0  0  0  0  0  0  0  0  0
  136.5690   82.0594  221.6223 H   0  0  0  0  0  0  0  0  0  0  0  0
  136.1020   79.1591  222.3228 H   0  0  0  0  0  0  0  0  0  0  0  0
  136.8100   79.9096  220.7862 H   0  0  0  0  0  0  0  0  0  0  0  0
  140.6352   79.2821  222.3653 H   0  0  0  0  0  0  0  0  0  0  0  0
  139.9934   78.3987  223.7996 H   0  0  0  0  0  0  0  0  0  0  0  0
  141.1770   77.3807  221.2610 H   0  0  0  0  0  0  0  0  0  0  0  0
  141.4004   76.8790  223.0257 H   0  0  0  0  0  0  0  0  0  0  0  0
  139.0931   70.4412  221.4534 H   0  0  0  0  0  0  0  0  0  0  0  0
  140.5110   69.6295  222.1713 H   0  0  0  0  0  0  0  0  0  0  0  0
  137.7297   69.8821  223.4460 H   0  0  0  0  0  0  0  0  0  0  0  0
  138.4108   68.3994  222.7307 H   0  0  0  0  0  0  0  0  0  0  0  0
  139.1903   66.9030  224.4838 H   0  0  0  0  0  0  0  0  0  0  0  0
  140.3965   66.6420  226.6582 H   0  0  0  0  0  0  0  0  0  0  0  0
  141.2216   68.6222  227.8718 H   0  0  0  0  0  0  0  0  0  0  0  0
  140.8764   70.9307  226.9696 H   0  0  0  0  0  0  0  0  0  0  0  0
  138.5115   71.7485  224.7007 H   0  0  0  0  0  0  0  0  0  0  0  0
  140.1946   72.2597  225.0467 H   0  0  0  0  0  0  0  0  0  0  0  0
  142.6367   74.3660  218.7503 H   0  0  0  0  0  0  0  0  0  0  0  0
  1  2  1  0
  2  3  2  0
  3  4  1  0
  4  5  2  0
  5  6  1  0
  6  7  1  0
  7  8  2  0
  8  9  1  0
  9 10  1  0
 10 11  1  0
 11 12  1  0
 12 13  1  0
 13 14  1  0
 14 15  1  0
 15 16  1  0
 16 17  1  0
 17 18  1  0
 18 19  1  0
 13 20  1  0
 20 21  1  0
  9 22  2  0
 22 23  1  0
 23 24  1  0
 24 25  1  0
 25 26  1  0
 26 27  1  0
 27 28  2  0
 28 29  1  0
 29 30  2  0
 30 31  1  0
 31 32  2  0
 32 33  1  0
 23 34  2  0
  6 35  2  0
 35  2  1  0
 34  7  1  0
 21 10  1  0
 33 24  1  0
 19 14  1  0
 32 27  1  0
  1 36  1  0
  3 37  1  0
  4 38  1  0
  5 39  1  0
 11 40  1  0
 11 41  1  0
 12 42  1  0
 12 43  1  0
 13 44  1  0
 15 45  1  0
 15 46  1  0
 16 47  1  0
 16 48  1  0
 17 49  1  0
 17 50  1  0
 18 51  1  0
 18 52  1  0
 19 53  1  0
 19 54  1  0
 20 55  1  0
 20 56  1  0
 21 57  1  0
 21 58  1  0
 25 59  1  0
 25 60  1  0
 26 61  1  0
 26 62  1  0
 28 63  1  0
 29 64  1  0
 30 65  1  0
 31 66  1  0
 33 67  1  0
 33 68  1  0
 35 69  1  0
M  END
>  <smiles>  (49) 
Oc1cccc(-c2nc(N3CCC(N4CCCCC4)CC3)nc(N3CCc4ccccc4C3)n2)c1

>  <score_type>  (49) 
oracle

>  <origin>  (49) 
autodockgpu

>  <m_score__min__energy>  (49) 
-9.9499999999999993

>  <m_primary>  (49) 
energy

>  <rmsd>  (49) 
6.255579508079595

>  <m_score__min__rmsd>  (49) 
6.255579508079595

>  <meeko>  (49) 
{"free_energy": -8.71, "intermolecular_energy": -10.2, "internal_energy": -1.12, "cluster_size": 46, "cluster_id": 1, "rank_in_cluster": 44}

>  <energy>  (49) 
-8.6

>  <cluster_rmsd>  (49) 
0.0

>  <cluster>  (49) 
3

$$$$

     RDKit          3D

 69 74  0  0  0  0  0  0  0  0999 V2000
  146.5090   71.9020  220.0430 O   0  0  0  0  0  0  0  0  0  0  0  0
  145.2280   72.0360  219.5630 C   0  0  0  0  0  0  0  0  0  0  0  0
  144.9380   71.9190  218.2210 C   0  0  0  0  0  0  0  0  0  0  0  0
  143.6500   72.0530  217.7320 C   0  0  0  0  0  0  0  0  0  0  0  0
  142.6340   72.3100  218.6130 C   0  0  0  0  0  0  0  0  0  0  0  0
  142.8990   72.4310  219.9540 C   0  0  0  0  0  0  0  0  0  0  0  0
  141.8410   72.7020  220.9150 C   0  0  0  0  0  0  0  0  0  0  0  0
  141.2880   73.9130  221.0170 N   0  0  0  0  0  0  0  0  0  0  0  0
  140.3070   74.2190  221.8870 C   0  0  0  0  0  0  0  0  0  0  0  0
  139.7400   75.5440  221.9590 N   0  0  0  0  0  0  0  0  0  0  0  0
  138.3000   75.6880  221.9820 C   0  0  0  0  0  0  0  0  0  0  0  0
  137.8940   76.9740  222.7110 C   0  0  0  0  0  0  0  0  0  0  0  0
  138.6400   78.0800  222.0010 C   0  0  0  0  0  0  0  0  0  0  0  0
  138.1210   79.3790  222.2020 N   0  0  0  0  0  0  0  0  0  0  0  0
  137.8270   80.1380  221.0550 C   0  0  0  0  0  0  0  0  0  0  0  0
  137.5710   81.5820  221.2480 C   0  0  0  0  0  0  0  0  0  0  0  0
  138.4160   82.2050  222.3630 C   0  0  0  0  0  0  0  0  0  0  0  0
  138.0140   81.4010  223.5950 C   0  0  0  0  0  0  0  0  0  0  0  0
  138.4990   80.0200  223.4040 C   0  0  0  0  0  0  0  0  0  0  0  0
  140.0910   77.9430  222.4530 C   0  0  0  0  0  0  0  0  0  0  0  0
  140.6520   76.6410  222.0020 C   0  0  0  0  0  0  0  0  0  0  0  0
  139.8500   73.2520  222.7090 N   0  0  0  0  0  0  0  0  0  0  0  0
  140.3810   72.0220  222.6350 C   0  0  0  0  0  0  0  0  0  0  0  0
  139.8710   71.0300  223.5150 N   0  0  0  0  0  0  0  0  0  0  0  0
  139.5640   69.7120  222.9990 C   0  0  0  0  0  0  0  0  0  0  0  0
  138.7500   68.9810  224.0440 C   0  0  0  0  0  0  0  0  0  0  0  0
  139.5640   68.9290  225.2860 C   0  0  0  0  0  0  0  0  0  0  0  0
  139.8540   67.7640  225.9600 C   0  0  0  0  0  0  0  0  0  0  0  0
  140.6260   67.8410  227.1150 C   0  0  0  0  0  0  0  0  0  0  0  0
  141.0890   69.0640  227.5690 C   0  0  0  0  0  0  0  0  0  0  0  0
  140.8070   70.2490  226.9040 C   0  0  0  0  0  0  0  0  0  0  0  0
  140.0410   70.1410  225.7640 C   0  0  0  0  0  0  0  0  0  0  0  0
  139.6610   71.3420  224.9380 C   0  0  0  0  0  0  0  0  0  0  0  0
  141.3600   71.7460  221.7560 N   0  0  0  0  0  0  0  0  0  0  0  0
  144.1750   72.2950  220.4170 C   0  0  0  0  0  0  0  0  0  0  0  0
  146.6860   71.2590  220.8090 H   0  0  0  0  0  0  0  0  0  0  0  0
  145.7564   71.7125  217.5156 H   0  0  0  0  0  0  0  0  0  0  0  0
  143.4465   71.9548  216.6555 H   0  0  0  0  0  0  0  0  0  0  0  0
  141.6032   72.4197  218.2452 H   0  0  0  0  0  0  0  0  0  0  0  0
  137.9246   75.7251  220.9487 H   0  0  0  0  0  0  0  0  0  0  0  0
  137.8678   74.8285  222.5153 H   0  0  0  0  0  0  0  0  0  0  0  0
  136.8079   77.1325  222.6390 H   0  0  0  0  0  0  0  0  0  0  0  0
  138.1368   76.9347  223.7831 H   0  0  0  0  0  0  0  0  0  0  0  0
  138.5321   77.9631  220.9126 H   0  0  0  0  0  0  0  0  0  0  0  0
  138.6799   80.0421  220.3670 H   0  0  0  0  0  0  0  0  0  0  0  0
  136.8773   79.7290  220.6798 H   0  0  0  0  0  0  0  0  0  0  0  0
  137.7954   82.1049  220.3066 H   0  0  0  0  0  0  0  0  0  0  0  0
  136.5162   81.6888  221.5412 H   0  0  0  0  0  0  0  0  0  0  0  0
  139.4900   82.0942  222.1528 H   0  0  0  0  0  0  0  0  0  0  0  0
  138.2478   83.2858  222.4793 H   0  0  0  0  0  0  0  0  0  0  0  0
  138.4720   81.8385  224.4943 H   0  0  0  0  0  0  0  0  0  0  0  0
  136.9217   81.4126  223.7246 H   0  0  0  0  0  0  0  0  0  0  0  0
  139.5982   80.0441  223.4385 H   0  0  0  0  0  0  0  0  0  0  0  0
  138.0293   79.4330  224.2070 H   0  0  0  0  0  0  0  0  0  0  0  0
  140.6843   78.7626  222.0215 H   0  0  0  0  0  0  0  0  0  0  0  0
  140.1291   77.9876  223.5514 H   0  0  0  0  0  0  0  0  0  0  0  0
  141.0554   76.7822  220.9884 H   0  0  0  0  0  0  0  0  0  0  0  0
  141.4060   76.3682  222.7550 H   0  0  0  0  0  0  0  0  0  0  0  0
  138.9842   69.8008  222.0684 H   0  0  0  0  0  0  0  0  0  0  0  0
  140.4905   69.1608  222.7807 H   0  0  0  0  0  0  0  0  0  0  0  0
  137.8100   69.5201  224.2330 H   0  0  0  0  0  0  0  0  0  0  0  0
  138.4999   67.9662  223.7012 H   0  0  0  0  0  0  0  0  0  0  0  0
  139.4840   66.7949  225.5939 H   0  0  0  0  0  0  0  0  0  0  0  0
  140.8701   66.9238  227.6711 H   0  0  0  0  0  0  0  0  0  0  0  0
  141.6986   69.0976  228.4841 H   0  0  0  0  0  0  0  0  0  0  0  0
  141.1746   71.2202  227.2669 H   0  0  0  0  0  0  0  0  0  0  0  0
  138.6026   71.5878  225.1095 H   0  0  0  0  0  0  0  0  0  0  0  0
  140.2824   72.2029  225.2256 H   0  0  0  0  0  0  0  0  0  0  0  0
  144.3691   72.3940  221.4952 H   0  0  0  0  0  0  0  0  0  0  0  0
  1  2  1  0
  2  3  2  0
  3  4  1  0
  4  5  2  0
  5  6  1  0
  6  7  1  0
  7  8  2  0
  8  9  1  0
  9 10  1  0
 10 11  1  0
 11 12  1  0
 12 13  1  0
 13 14  1  0
 14 15  1  0
 15 16  1  0
 16 17  1  0
 17 18  1  0
 18 19  1  0
 13 20  1  0
 20 21  1  0
  9 22  2  0
 22 23  1  0
 23 24  1  0
 24 25  1  0
 25 26  1  0
 26 27  1  0
 27 28  2  0
 28 29  1  0
 29 30  2  0
 30 31  1  0
 31 32  2  0
 32 33  1  0
 23 34  2  0
  6 35  2  0
 35  2  1  0
 34  7  1  0
 21 10  1  0
 33 24  1  0
 19 14  1  0
 32 27  1  0
  1 36  1  0
  3 37  1  0
  4 38  1  0
  5 39  1  0
 11 40  1  0
 11 41  1  0
 12 42  1  0
 12 43  1  0
 13 44  1  0
 15 45  1  0
 15 46  1  0
 16 47  1  0
 16 48  1  0
 17 49  1  0
 17 50  1  0
 18 51  1  0
 18 52  1  0
 19 53  1  0
 19 54  1  0
 20 55  1  0
 20 56  1  0
 21 57  1  0
 21 58  1  0
 25 59  1  0
 25 60  1  0
 26 61  1  0
 26 62  1  0
 28 63  1  0
 29 64  1  0
 30 65  1  0
 31 66  1  0
 33 67  1  0
 33 68  1  0
 35 69  1  0
M  END
>  <smiles>  (50) 
Oc1cccc(-c2nc(N3CCC(N4CCCCC4)CC3)nc(N3CCc4ccccc4C3)n2)c1

>  <score_type>  (50) 
oracle

>  <origin>  (50) 
autodockgpu

>  <m_score__min__energy>  (50) 
-9.9499999999999993

>  <m_primary>  (50) 
energy

>  <rmsd>  (50) 
6.08384530932311

>  <m_score__min__rmsd>  (50) 
6.08384530932311

>  <meeko>  (50) 
{"free_energy": -8.92, "intermolecular_energy": -10.41, "internal_energy": -1.1, "cluster_size": 46, "cluster_id": 1, "rank_in_cluster": 41}

>  <energy>  (50) 
-8.57

>  <cluster_rmsd>  (50) 
0.12

>  <cluster>  (50) 
3

$$$$
