
     RDKit          3D

 57 60  0  0  0  0  0  0  0  0999 V2000
  138.7150   73.2260  221.4060 O   0  0  0  0  0  0  0  0  0  0  0  0
  139.8130   72.9160  221.9750 C   0  0  0  0  0  0  0  0  0  0  0  0
  140.9760   73.5980  221.5340 N   0  0  0  0  0  0  0  0  0  0  0  0
  140.9410   74.6040  220.4860 C   0  0  0  0  0  0  0  0  0  0  0  0
  142.2490   75.3000  220.4000 C   0  0  0  0  0  0  0  0  0  0  0  0
  143.2640   74.7060  220.8420 O   0  0  0  0  0  0  0  0  0  0  0  0
  142.2780   76.5980  219.8250 N   0  0  0  0  0  0  0  0  0  0  0  0
  142.7290   76.9620  218.4870 C   0  0  0  0  0  0  0  0  0  0  0  0
  142.0370   78.2510  218.1210 C   0  0  2  0  0  0  0  0  0  0  0  0
  142.9760   79.2760  218.1780 O   0  0  0  0  0  0  0  0  0  0  0  0
  141.0740   78.4420  219.2710 C   0  0  0  0  0  0  0  0  0  0  0  0
  141.8690   77.8740  220.4180 C   0  0  1  0  0  0  0  0  0  0  0  0
  141.1120   77.6770  221.6780 C   0  0  0  0  0  0  0  0  0  0  0  0
  141.1840   78.8050  222.5830 N   0  0  0  0  0  0  0  0  0  0  0  0
  140.2380   79.8500  222.2410 C   0  0  0  0  0  0  0  0  0  0  0  0
  140.1980   80.8370  223.3870 C   0  0  0  0  0  0  0  0  0  0  0  0
  141.5820   81.2110  223.8540 C   0  0  0  0  0  0  0  0  0  0  0  0
  142.5420   80.8470  222.7240 C   0  0  0  0  0  0  0  0  0  0  0  0
  142.5180   79.3610  222.4690 C   0  0  0  0  0  0  0  0  0  0  0  0
  139.8470   71.9130  223.0200 C   0  0  0  0  0  0  0  0  0  0  0  0
  139.3760   70.6520  222.8080 C   0  0  0  0  0  0  0  0  0  0  0  0
  139.4570   69.7620  223.8780 C   0  0  0  0  0  0  0  0  0  0  0  0
  139.9870   70.1360  225.0910 C   0  0  0  0  0  0  0  0  0  0  0  0
  140.0500   69.2260  226.1280 C   0  0  0  0  0  0  0  0  0  0  0  0
  140.5840   69.5860  227.3680 C   0  0  0  0  0  0  0  0  0  0  0  0
  140.6730   68.4440  228.6960 Cl  0  0  0  0  0  0  0  0  0  0  0  0
  141.0510   70.8920  227.5290 C   0  0  0  0  0  0  0  0  0  0  0  0
  140.9720   71.7640  226.4800 C   0  0  0  0  0  0  0  0  0  0  0  0
  140.4490   71.4180  225.2610 C   0  0  0  0  0  0  0  0  0  0  0  0
  140.3610   72.2550  224.2170 N   0  0  0  0  0  0  0  0  0  0  0  0
  141.8750   73.3270  222.0160 H   0  0  0  0  0  0  0  0  0  0  0  0
  140.7238   74.1183  219.5232 H   0  0  0  0  0  0  0  0  0  0  0  0
  140.1576   75.3397  220.7206 H   0  0  0  0  0  0  0  0  0  0  0  0
  143.8197   77.1048  218.4823 H   0  0  0  0  0  0  0  0  0  0  0  0
  142.4880   76.1692  217.7635 H   0  0  0  0  0  0  0  0  0  0  0  0
  141.5643   78.2431  217.1278 H   0  0  0  0  0  0  0  0  0  0  0  0
  143.5620   79.2730  217.3540 H   0  0  0  0  0  0  0  0  0  0  0  0
  140.8417   79.5054  219.4295 H   0  0  0  0  0  0  0  0  0  0  0  0
  140.0938   77.9655  219.1221 H   0  0  0  0  0  0  0  0  0  0  0  0
  142.6765   78.5408  220.7546 H   0  0  0  0  0  0  0  0  0  0  0  0
  140.0560   77.5018  221.4248 H   0  0  0  0  0  0  0  0  0  0  0  0
  141.5674   76.8200  222.1958 H   0  0  0  0  0  0  0  0  0  0  0  0
  140.5606   80.3591  221.3208 H   0  0  0  0  0  0  0  0  0  0  0  0
  139.2395   79.4211  222.0707 H   0  0  0  0  0  0  0  0  0  0  0  0
  139.6765   81.7468  223.0550 H   0  0  0  0  0  0  0  0  0  0  0  0
  139.6705   80.3628  224.2277 H   0  0  0  0  0  0  0  0  0  0  0  0
  141.6330   82.2901  224.0614 H   0  0  0  0  0  0  0  0  0  0  0  0
  141.8432   80.6790  224.7807 H   0  0  0  0  0  0  0  0  0  0  0  0
  142.2405   81.3764  221.8081 H   0  0  0  0  0  0  0  0  0  0  0  0
  143.5613   81.1418  223.0142 H   0  0  0  0  0  0  0  0  0  0  0  0
  142.8953   79.1702  221.4535 H   0  0  0  0  0  0  0  0  0  0  0  0
  143.1499   78.8787  223.2293 H   0  0  0  0  0  0  0  0  0  0  0  0
  138.9521   70.3507  221.8387 H   0  0  0  0  0  0  0  0  0  0  0  0
  139.0875   68.7340  223.7489 H   0  0  0  0  0  0  0  0  0  0  0  0
  139.6745   68.2034  225.9756 H   0  0  0  0  0  0  0  0  0  0  0  0
  141.4778   71.2153  228.4899 H   0  0  0  0  0  0  0  0  0  0  0  0
  141.3447   72.7894  226.6199 H   0  0  0  0  0  0  0  0  0  0  0  0
  1  2  2  0
  2  3  1  0
  3  4  1  0
  4  5  1  0
  5  6  2  0
  5  7  1  0
  7  8  1  0
  8  9  1  0
  9 10  1  0
  9 11  1  0
 11 12  1  0
 12 13  1  0
 13 14  1  0
 14 15  1  0
 15 16  1  0
 16 17  1  0
 17 18  1  0
 18 19  1  0
  2 20  1  0
 20 21  2  0
 21 22  1  0
 22 23  2  0
 23 24  1  0
 24 25  2  0
 25 26  1  0
 25 27  1  0
 27 28  2  0
 28 29  1  0
 29 30  2  0
 12  7  1  0
 19 14  1  0
 30 20  1  0
 29 23  1  0
  3 31  1  0
  4 32  1  0
  4 33  1  0
  8 34  1  0
  8 35  1  0
  9 36  1  6
 10 37  1  0
 11 38  1  0
 11 39  1  0
 12 40  1  1
 13 41  1  0
 13 42  1  0
 15 43  1  0
 15 44  1  0
 16 45  1  0
 16 46  1  0
 17 47  1  0
 17 48  1  0
 18 49  1  0
 18 50  1  0
 19 51  1  0
 19 52  1  0
 21 53  1  0
 22 54  1  0
 24 55  1  0
 27 56  1  0
 28 57  1  0
M  END
>  <smiles>  (1) 
O=C(NCC(=O)N1C[C@H](O)C[C@H]1CN1CCCCC1)c1ccc2cc(Cl)ccc2n1

>  <score_type>  (1) 
oracle

>  <origin>  (1) 
autodockgpu

>  <m_score__min__energy>  (1) 
-9.2599999999999998

>  <m_primary>  (1) 
energy

>  <rmsd>  (1) 
2.5461206745788427

>  <m_score__min__rmsd>  (1) 
2.5461206745788427

>  <meeko>  (1) 
{"free_energy": -8.46, "intermolecular_energy": -10.55, "internal_energy": -1.86, "cluster_size": 30, "cluster_id": 1, "rank_in_cluster": 14}

>  <energy>  (1) 
-9.26

>  <cluster_rmsd>  (1) 
0.0

>  <cluster>  (1) 
1

$$$$

     RDKit          3D

 57 60  0  0  0  0  0  0  0  0999 V2000
  139.7030   74.0990  221.9890 O   0  0  0  0  0  0  0  0  0  0  0  0
  140.3530   73.0030  221.9500 C   0  0  0  0  0  0  0  0  0  0  0  0
  141.2310   72.8180  220.8520 N   0  0  0  0  0  0  0  0  0  0  0  0
  141.3970   73.8160  219.8090 C   0  0  0  0  0  0  0  0  0  0  0  0
  142.5080   74.7370  220.1540 C   0  0  0  0  0  0  0  0  0  0  0  0
  143.4420   74.2950  220.8680 O   0  0  0  0  0  0  0  0  0  0  0  0
  142.4510   76.0670  219.6590 N   0  0  0  0  0  0  0  0  0  0  0  0
  142.9420   76.5540  218.3750 C   0  0  0  0  0  0  0  0  0  0  0  0
  142.1570   77.7980  218.0430 C   0  0  2  0  0  0  0  0  0  0  0  0
  142.9940   78.8960  218.2190 O   0  0  0  0  0  0  0  0  0  0  0  0
  141.1170   77.8290  219.1390 C   0  0  0  0  0  0  0  0  0  0  0  0
  141.8940   77.2610  220.2990 C   0  0  1  0  0  0  0  0  0  0  0  0
  141.0860   76.9180  221.4950 C   0  0  0  0  0  0  0  0  0  0  0  0
  140.9670   78.0020  222.4470 N   0  0  0  0  0  0  0  0  0  0  0  0
  139.7060   78.7100  222.3260 C   0  0  0  0  0  0  0  0  0  0  0  0
  139.5660   79.6220  223.5250 C   0  0  0  0  0  0  0  0  0  0  0  0
  140.8310   80.3980  223.7910 C   0  0  0  0  0  0  0  0  0  0  0  0
  141.6500   80.3610  222.5030 C   0  0  0  0  0  0  0  0  0  0  0  0
  142.0320   78.9430  222.1610 C   0  0  0  0  0  0  0  0  0  0  0  0
  140.1860   72.0080  222.9910 C   0  0  0  0  0  0  0  0  0  0  0  0
  139.5370   70.8340  222.7520 C   0  0  0  0  0  0  0  0  0  0  0  0
  139.4320   69.9440  223.8190 C   0  0  0  0  0  0  0  0  0  0  0  0
  139.9590   70.2340  225.0570 C   0  0  0  0  0  0  0  0  0  0  0  0
  139.8360   69.3270  226.0900 C   0  0  0  0  0  0  0  0  0  0  0  0
  140.3630   69.6020  227.3540 C   0  0  0  0  0  0  0  0  0  0  0  0
  140.2160   68.4630  228.6780 Cl  0  0  0  0  0  0  0  0  0  0  0  0
  141.0180   70.8220  227.5420 C   0  0  0  0  0  0  0  0  0  0  0  0
  141.1200   71.6930  226.4960 C   0  0  0  0  0  0  0  0  0  0  0  0
  140.6050   71.4300  225.2540 C   0  0  0  0  0  0  0  0  0  0  0  0
  140.6930   72.2690  224.2110 N   0  0  0  0  0  0  0  0  0  0  0  0
  141.7580   71.9040  220.8370 H   0  0  0  0  0  0  0  0  0  0  0  0
  141.6241   73.3130  218.8575 H   0  0  0  0  0  0  0  0  0  0  0  0
  140.4666   74.3951  219.7146 H   0  0  0  0  0  0  0  0  0  0  0  0
  144.0136   76.7919  218.4464 H   0  0  0  0  0  0  0  0  0  0  0  0
  142.8159   75.7910  217.5927 H   0  0  0  0  0  0  0  0  0  0  0  0
  141.7444   77.8128  217.0234 H   0  0  0  0  0  0  0  0  0  0  0  0
  143.6090   79.0100  217.4250 H   0  0  0  0  0  0  0  0  0  0  0  0
  140.7791   78.8554  219.3446 H   0  0  0  0  0  0  0  0  0  0  0  0
  140.1951   77.2781  218.9012 H   0  0  0  0  0  0  0  0  0  0  0  0
  142.6167   77.9727  220.7246 H   0  0  0  0  0  0  0  0  0  0  0  0
  140.0763   76.6353  221.1626 H   0  0  0  0  0  0  0  0  0  0  0  0
  141.6046   76.0948  222.0082 H   0  0  0  0  0  0  0  0  0  0  0  0
  139.6992   79.3054  221.4011 H   0  0  0  0  0  0  0  0  0  0  0  0
  138.8692   77.9971  222.2879 H   0  0  0  0  0  0  0  0  0  0  0  0
  138.7461   80.3313  223.3387 H   0  0  0  0  0  0  0  0  0  0  0  0
  139.3571   78.9975  224.4061 H   0  0  0  0  0  0  0  0  0  0  0  0
  140.5888   81.4378  224.0561 H   0  0  0  0  0  0  0  0  0  0  0  0
  141.3934   79.9609  224.6292 H   0  0  0  0  0  0  0  0  0  0  0  0
  141.0523   80.7831  221.6817 H   0  0  0  0  0  0  0  0  0  0  0  0
  142.5667   80.9516  222.6471 H   0  0  0  0  0  0  0  0  0  0  0  0
  142.2722   78.8902  221.0888 H   0  0  0  0  0  0  0  0  0  0  0  0
  142.8985   78.6691  222.7809 H   0  0  0  0  0  0  0  0  0  0  0  0
  139.1157   70.5998  221.7632 H   0  0  0  0  0  0  0  0  0  0  0  0
  138.9147   68.9850  223.6680 H   0  0  0  0  0  0  0  0  0  0  0  0
  139.3154   68.3738  225.9154 H   0  0  0  0  0  0  0  0  0  0  0  0
  141.4467   71.0776  228.5222 H   0  0  0  0  0  0  0  0  0  0  0  0
  141.6391   72.6492  226.6576 H   0  0  0  0  0  0  0  0  0  0  0  0
  1  2  2  0
  2  3  1  0
  3  4  1  0
  4  5  1  0
  5  6  2  0
  5  7  1  0
  7  8  1  0
  8  9  1  0
  9 10  1  0
  9 11  1  0
 11 12  1  0
 12 13  1  0
 13 14  1  0
 14 15  1  0
 15 16  1  0
 16 17  1  0
 17 18  1  0
 18 19  1  0
  2 20  1  0
 20 21  2  0
 21 22  1  0
 22 23  2  0
 23 24  1  0
 24 25  2  0
 25 26  1  0
 25 27  1  0
 27 28  2  0
 28 29  1  0
 29 30  2  0
 12  7  1  0
 19 14  1  0
 30 20  1  0
 29 23  1  0
  3 31  1  0
  4 32  1  0
  4 33  1  0
  8 34  1  0
  8 35  1  0
  9 36  1  6
 10 37  1  0
 11 38  1  0
 11 39  1  0
 12 40  1  1
 13 41  1  0
 13 42  1  0
 15 43  1  0
 15 44  1  0
 16 45  1  0
 16 46  1  0
 17 47  1  0
 17 48  1  0
 18 49  1  0
 18 50  1  0
 19 51  1  0
 19 52  1  0
 21 53  1  0
 22 54  1  0
 24 55  1  0
 27 56  1  0
 28 57  1  0
M  END
>  <smiles>  (2) 
O=C(NCC(=O)N1C[C@H](O)C[C@H]1CN1CCCCC1)c1ccc2cc(Cl)ccc2n1

>  <score_type>  (2) 
oracle

>  <origin>  (2) 
autodockgpu

>  <m_score__min__energy>  (2) 
-9.2599999999999998

>  <m_primary>  (2) 
energy

>  <rmsd>  (2) 
2.6342368501520745

>  <m_score__min__rmsd>  (2) 
2.6342368501520745

>  <meeko>  (2) 
{"free_energy": -8.54, "intermolecular_energy": -10.63, "internal_energy": -1.56, "cluster_size": 30, "cluster_id": 1, "rank_in_cluster": 8}

>  <energy>  (2) 
-9.09

>  <cluster_rmsd>  (2) 
0.49

>  <cluster>  (2) 
1

$$$$

     RDKit          3D

 57 60  0  0  0  0  0  0  0  0999 V2000
  140.8840   73.7690  221.9310 O   0  0  0  0  0  0  0  0  0  0  0  0
  139.9050   72.9560  222.0020 C   0  0  0  0  0  0  0  0  0  0  0  0
  138.8990   73.0770  221.0090 N   0  0  0  0  0  0  0  0  0  0  0  0
  138.9610   74.0710  219.9520 C   0  0  0  0  0  0  0  0  0  0  0  0
  139.2980   75.4010  220.5190 C   0  0  0  0  0  0  0  0  0  0  0  0
  138.4220   75.9920  221.1970 O   0  0  0  0  0  0  0  0  0  0  0  0
  140.5900   75.9300  220.2590 N   0  0  0  0  0  0  0  0  0  0  0  0
  141.3800   75.7760  219.0430 C   0  0  0  0  0  0  0  0  0  0  0  0
  142.3330   76.9430  218.9820 C   0  0  2  0  0  0  0  0  0  0  0  0
  143.6080   76.4750  219.2790 O   0  0  0  0  0  0  0  0  0  0  0  0
  141.8730   77.8000  220.1400 C   0  0  0  0  0  0  0  0  0  0  0  0
  141.4390   76.7490  221.1290 C   0  0  1  0  0  0  0  0  0  0  0  0
  140.6910   77.2560  222.3060 C   0  0  0  0  0  0  0  0  0  0  0  0
  140.9060   78.6640  222.5680 N   0  0  0  0  0  0  0  0  0  0  0  0
  141.7790   78.8880  223.7050 C   0  0  0  0  0  0  0  0  0  0  0  0
  142.1580   80.3530  223.7210 C   0  0  0  0  0  0  0  0  0  0  0  0
  140.9590   81.2440  223.5160 C   0  0  0  0  0  0  0  0  0  0  0  0
  139.7250   80.4040  223.8360 C   0  0  0  0  0  0  0  0  0  0  0  0
  139.6150   79.2430  222.8800 C   0  0  0  0  0  0  0  0  0  0  0  0
  139.8430   71.9630  223.0570 C   0  0  0  0  0  0  0  0  0  0  0  0
  139.1900   70.7810  222.8800 C   0  0  0  0  0  0  0  0  0  0  0  0
  139.1910   69.8940  223.9560 C   0  0  0  0  0  0  0  0  0  0  0  0
  139.8210   70.1970  225.1410 C   0  0  0  0  0  0  0  0  0  0  0  0
  139.8010   69.2930  226.1850 C   0  0  0  0  0  0  0  0  0  0  0  0
  140.4340   69.5810  227.3970 C   0  0  0  0  0  0  0  0  0  0  0  0
  140.4190   68.4460  228.7330 Cl  0  0  0  0  0  0  0  0  0  0  0  0
  141.0880   70.8090  227.5220 C   0  0  0  0  0  0  0  0  0  0  0  0
  141.0860   71.6770  226.4680 C   0  0  0  0  0  0  0  0  0  0  0  0
  140.4670   71.4020  225.2760 C   0  0  0  0  0  0  0  0  0  0  0  0
  140.4520   72.2370  224.2260 N   0  0  0  0  0  0  0  0  0  0  0  0
  138.0960   72.3960  221.0860 H   0  0  0  0  0  0  0  0  0  0  0  0
  139.7328   73.7800  219.2242 H   0  0  0  0  0  0  0  0  0  0  0  0
  137.9808   74.1298  219.4562 H   0  0  0  0  0  0  0  0  0  0  0  0
  141.9423   74.8311  219.0756 H   0  0  0  0  0  0  0  0  0  0  0  0
  140.7312   75.7538  218.1550 H   0  0  0  0  0  0  0  0  0  0  0  0
  142.3511   77.4605  218.0115 H   0  0  0  0  0  0  0  0  0  0  0  0
  144.1350   77.1670  219.7950 H   0  0  0  0  0  0  0  0  0  0  0  0
  142.6945   78.4135  220.5385 H   0  0  0  0  0  0  0  0  0  0  0  0
  141.0887   78.5261  219.8801 H   0  0  0  0  0  0  0  0  0  0  0  0
  142.2841   76.2386  221.6142 H   0  0  0  0  0  0  0  0  0  0  0  0
  139.6170   77.0950  222.1310 H   0  0  0  0  0  0  0  0  0  0  0  0
  141.0595   76.7049  223.1838 H   0  0  0  0  0  0  0  0  0  0  0  0
  141.2539   78.6279  224.6359 H   0  0  0  0  0  0  0  0  0  0  0  0
  142.6792   78.2609  223.6255 H   0  0  0  0  0  0  0  0  0  0  0  0
  142.6169   80.5914  224.6918 H   0  0  0  0  0  0  0  0  0  0  0  0
  142.8626   80.5328  222.8957 H   0  0  0  0  0  0  0  0  0  0  0  0
  141.0120   82.1113  224.1906 H   0  0  0  0  0  0  0  0  0  0  0  0
  140.9212   81.6236  222.4843 H   0  0  0  0  0  0  0  0  0  0  0  0
  139.8046   80.0204  224.8639 H   0  0  0  0  0  0  0  0  0  0  0  0
  138.8292   81.0344  223.7352 H   0  0  0  0  0  0  0  0  0  0  0  0
  138.9806   78.4684  223.3356 H   0  0  0  0  0  0  0  0  0  0  0  0
  139.1791   79.6188  221.9426 H   0  0  0  0  0  0  0  0  0  0  0  0
  138.6857   70.5376  221.9332 H   0  0  0  0  0  0  0  0  0  0  0  0
  138.6751   68.9278  223.8548 H   0  0  0  0  0  0  0  0  0  0  0  0
  139.2793   68.3326  226.0606 H   0  0  0  0  0  0  0  0  0  0  0  0
  141.5991   71.0738  228.4594 H   0  0  0  0  0  0  0  0  0  0  0  0
  141.6045   72.6406  226.5804 H   0  0  0  0  0  0  0  0  0  0  0  0
  1  2  2  0
  2  3  1  0
  3  4  1  0
  4  5  1  0
  5  6  2  0
  5  7  1  0
  7  8  1  0
  8  9  1  0
  9 10  1  0
  9 11  1  0
 11 12  1  0
 12 13  1  0
 13 14  1  0
 14 15  1  0
 15 16  1  0
 16 17  1  0
 17 18  1  0
 18 19  1  0
  2 20  1  0
 20 21  2  0
 21 22  1  0
 22 23  2  0
 23 24  1  0
 24 25  2  0
 25 26  1  0
 25 27  1  0
 27 28  2  0
 28 29  1  0
 29 30  2  0
 12  7  1  0
 19 14  1  0
 30 20  1  0
 29 23  1  0
  3 31  1  0
  4 32  1  0
  4 33  1  0
  8 34  1  0
  8 35  1  0
  9 36  1  6
 10 37  1  0
 11 38  1  0
 11 39  1  0
 12 40  1  1
 13 41  1  0
 13 42  1  0
 15 43  1  0
 15 44  1  0
 16 45  1  0
 16 46  1  0
 17 47  1  0
 17 48  1  0
 18 49  1  0
 18 50  1  0
 19 51  1  0
 19 52  1  0
 21 53  1  0
 22 54  1  0
 24 55  1  0
 27 56  1  0
 28 57  1  0
M  END
>  <smiles>  (3) 
O=C(NCC(=O)N1C[C@H](O)C[C@H]1CN1CCCCC1)c1ccc2cc(Cl)ccc2n1

>  <score_type>  (3) 
oracle

>  <origin>  (3) 
autodockgpu

>  <m_score__min__energy>  (3) 
-9.2599999999999998

>  <m_primary>  (3) 
energy

>  <rmsd>  (3) 
2.3244789514571176

>  <m_score__min__rmsd>  (3) 
2.3244789514571176

>  <meeko>  (3) 
{"free_energy": -8.52, "intermolecular_energy": -10.61, "internal_energy": -1.28, "cluster_size": 30, "cluster_id": 1, "rank_in_cluster": 9}

>  <energy>  (3) 
-9.08

>  <cluster_rmsd>  (3) 
0.57

>  <cluster>  (3) 
1

$$$$

     RDKit          3D

 57 60  0  0  0  0  0  0  0  0999 V2000
  139.2880   73.9650  221.8760 O   0  0  0  0  0  0  0  0  0  0  0  0
  140.0970   72.9820  221.9390 C   0  0  0  0  0  0  0  0  0  0  0  0
  141.0950   72.9090  220.9340 N   0  0  0  0  0  0  0  0  0  0  0  0
  141.2090   73.8950  219.8740 C   0  0  0  0  0  0  0  0  0  0  0  0
  141.6770   75.1900  220.4260 C   0  0  0  0  0  0  0  0  0  0  0  0
  141.7570   75.3050  221.6740 O   0  0  0  0  0  0  0  0  0  0  0  0
  142.0060   76.2270  219.5120 N   0  0  0  0  0  0  0  0  0  0  0  0
  142.6130   76.0830  218.1940 C   0  0  0  0  0  0  0  0  0  0  0  0
  142.2210   77.2970  217.3910 C   0  0  2  0  0  0  0  0  0  0  0  0
  143.3400   78.1140  217.2710 O   0  0  0  0  0  0  0  0  0  0  0  0
  141.2380   77.9900  218.3060 C   0  0  0  0  0  0  0  0  0  0  0  0
  141.8210   77.6720  219.6590 C   0  0  1  0  0  0  0  0  0  0  0  0
  140.9540   78.0010  220.8170 C   0  0  0  0  0  0  0  0  0  0  0  0
  141.6430   78.7030  221.8790 N   0  0  0  0  0  0  0  0  0  0  0  0
  140.8880   78.7120  223.1180 C   0  0  0  0  0  0  0  0  0  0  0  0
  141.7990   79.2130  224.2170 C   0  0  0  0  0  0  0  0  0  0  0  0
  142.5560   80.4480  223.7980 C   0  0  0  0  0  0  0  0  0  0  0  0
  141.8070   81.0430  222.6080 C   0  0  0  0  0  0  0  0  0  0  0  0
  141.8060   80.0780  221.4490 C   0  0  0  0  0  0  0  0  0  0  0  0
  139.9830   71.9970  222.9970 C   0  0  0  0  0  0  0  0  0  0  0  0
  139.3130   70.8260  222.8070 C   0  0  0  0  0  0  0  0  0  0  0  0
  139.2630   69.9470  223.8880 C   0  0  0  0  0  0  0  0  0  0  0  0
  139.8620   70.2450  225.0900 C   0  0  0  0  0  0  0  0  0  0  0  0
  139.7920   69.3480  226.1380 C   0  0  0  0  0  0  0  0  0  0  0  0
  140.3920   69.6320  227.3670 C   0  0  0  0  0  0  0  0  0  0  0  0
  140.3130   68.5060  228.7090 Cl  0  0  0  0  0  0  0  0  0  0  0  0
  141.0650   70.8480  227.5050 C   0  0  0  0  0  0  0  0  0  0  0  0
  141.1130   71.7090  226.4470 C   0  0  0  0  0  0  0  0  0  0  0  0
  140.5260   71.4380  225.2380 C   0  0  0  0  0  0  0  0  0  0  0  0
  140.5600   72.2660  224.1840 N   0  0  0  0  0  0  0  0  0  0  0  0
  141.7540   72.0870  221.0030 H   0  0  0  0  0  0  0  0  0  0  0  0
  141.9292   73.5389  219.1226 H   0  0  0  0  0  0  0  0  0  0  0  0
  140.2220   74.0386  219.4102 H   0  0  0  0  0  0  0  0  0  0  0  0
  143.7078   76.0291  218.2865 H   0  0  0  0  0  0  0  0  0  0  0  0
  142.2690   75.1607  217.7030 H   0  0  0  0  0  0  0  0  0  0  0  0
  141.8268   77.0679  216.3899 H   0  0  0  0  0  0  0  0  0  0  0  0
  143.1820   78.8440  216.5890 H   0  0  0  0  0  0  0  0  0  0  0  0
  141.2127   79.0744  218.1230 H   0  0  0  0  0  0  0  0  0  0  0  0
  140.1951   77.6649  218.1766 H   0  0  0  0  0  0  0  0  0  0  0  0
  142.7202   78.2618  219.8905 H   0  0  0  0  0  0  0  0  0  0  0  0
  140.1265   78.6332  220.4627 H   0  0  0  0  0  0  0  0  0  0  0  0
  140.6032   77.0469  221.2372 H   0  0  0  0  0  0  0  0  0  0  0  0
  140.0188   79.3790  223.0206 H   0  0  0  0  0  0  0  0  0  0  0  0
  140.5269   77.6998  223.3528 H   0  0  0  0  0  0  0  0  0  0  0  0
  141.1911   79.4513  225.1023 H   0  0  0  0  0  0  0  0  0  0  0  0
  142.5310   78.4230  224.4407 H   0  0  0  0  0  0  0  0  0  0  0  0
  142.5874   81.1718  224.6258 H   0  0  0  0  0  0  0  0  0  0  0  0
  143.5935   80.2019  223.5279 H   0  0  0  0  0  0  0  0  0  0  0  0
  140.7689   81.2555  222.9031 H   0  0  0  0  0  0  0  0  0  0  0  0
  142.3104   81.9707  222.2983 H   0  0  0  0  0  0  0  0  0  0  0  0
  140.9782   80.3379  220.7729 H   0  0  0  0  0  0  0  0  0  0  0  0
  142.7788   80.1594  220.9421 H   0  0  0  0  0  0  0  0  0  0  0  0
  138.8342   70.5855  221.8463 H   0  0  0  0  0  0  0  0  0  0  0  0
  138.7309   68.9907  223.7769 H   0  0  0  0  0  0  0  0  0  0  0  0
  139.2563   68.3968  226.0029 H   0  0  0  0  0  0  0  0  0  0  0  0
  141.5513   71.1091  228.4565 H   0  0  0  0  0  0  0  0  0  0  0  0
  141.6466   72.6631  226.5699 H   0  0  0  0  0  0  0  0  0  0  0  0
  1  2  2  0
  2  3  1  0
  3  4  1  0
  4  5  1  0
  5  6  2  0
  5  7  1  0
  7  8  1  0
  8  9  1  0
  9 10  1  0
  9 11  1  0
 11 12  1  0
 12 13  1  0
 13 14  1  0
 14 15  1  0
 15 16  1  0
 16 17  1  0
 17 18  1  0
 18 19  1  0
  2 20  1  0
 20 21  2  0
 21 22  1  0
 22 23  2  0
 23 24  1  0
 24 25  2  0
 25 26  1  0
 25 27  1  0
 27 28  2  0
 28 29  1  0
 29 30  2  0
 12  7  1  0
 19 14  1  0
 30 20  1  0
 29 23  1  0
  3 31  1  0
  4 32  1  0
  4 33  1  0
  8 34  1  0
  8 35  1  0
  9 36  1  6
 10 37  1  0
 11 38  1  0
 11 39  1  0
 12 40  1  1
 13 41  1  0
 13 42  1  0
 15 43  1  0
 15 44  1  0
 16 45  1  0
 16 46  1  0
 17 47  1  0
 17 48  1  0
 18 49  1  0
 18 50  1  0
 19 51  1  0
 19 52  1  0
 21 53  1  0
 22 54  1  0
 24 55  1  0
 27 56  1  0
 28 57  1  0
M  END
>  <smiles>  (4) 
O=C(NCC(=O)N1C[C@H](O)C[C@H]1CN1CCCCC1)c1ccc2cc(Cl)ccc2n1

>  <score_type>  (4) 
oracle

>  <origin>  (4) 
autodockgpu

>  <m_score__min__energy>  (4) 
-9.2599999999999998

>  <m_primary>  (4) 
energy

>  <rmsd>  (4) 
2.4658200356333277

>  <m_score__min__rmsd>  (4) 
2.4658200356333277

>  <meeko>  (4) 
{"free_energy": -8.29, "intermolecular_energy": -10.38, "internal_energy": -1.26, "cluster_size": 30, "cluster_id": 1, "rank_in_cluster": 18}

>  <energy>  (4) 
-9.06

>  <cluster_rmsd>  (4) 
0.53

>  <cluster>  (4) 
1

$$$$

     RDKit          3D

 57 60  0  0  0  0  0  0  0  0999 V2000
  139.4240   72.2660  220.5930 O   0  0  0  0  0  0  0  0  0  0  0  0
  140.0040   72.5330  221.6960 C   0  0  0  0  0  0  0  0  0  0  0  0
  140.7040   73.7640  221.7700 N   0  0  0  0  0  0  0  0  0  0  0  0
  140.7700   74.6920  220.6540 C   0  0  0  0  0  0  0  0  0  0  0  0
  141.2830   76.0080  221.1100 C   0  0  0  0  0  0  0  0  0  0  0  0
  141.3270   76.2280  222.3460 O   0  0  0  0  0  0  0  0  0  0  0  0
  141.6920   76.9440  220.1240 N   0  0  0  0  0  0  0  0  0  0  0  0
  142.5530   76.6960  218.9740 C   0  0  0  0  0  0  0  0  0  0  0  0
  142.2210   77.7410  217.9380 C   0  0  2  0  0  0  0  0  0  0  0  0
  143.2680   78.6560  217.8980 O   0  0  0  0  0  0  0  0  0  0  0  0
  141.0240   78.4340  218.5470 C   0  0  0  0  0  0  0  0  0  0  0  0
  141.3590   78.3660  220.0140 C   0  0  1  0  0  0  0  0  0  0  0  0
  140.2590   78.7460  220.9340 C   0  0  0  0  0  0  0  0  0  0  0  0
  140.6440   79.7260  221.9290 N   0  0  0  0  0  0  0  0  0  0  0  0
  141.6820   80.6200  221.4520 C   0  0  0  0  0  0  0  0  0  0  0  0
  141.8100   81.7570  222.4420 C   0  0  0  0  0  0  0  0  0  0  0  0
  141.8520   81.2600  223.8650 C   0  0  0  0  0  0  0  0  0  0  0  0
  142.2280   79.7810  223.8050 C   0  0  0  0  0  0  0  0  0  0  0  0
  141.1730   78.9980  223.0650 C   0  0  0  0  0  0  0  0  0  0  0  0
  139.9370   71.6070  222.8100 C   0  0  0  0  0  0  0  0  0  0  0  0
  139.3380   70.3900  222.6850 C   0  0  0  0  0  0  0  0  0  0  0  0
  139.3300   69.5740  223.8150 C   0  0  0  0  0  0  0  0  0  0  0  0
  139.8980   69.9750  225.0010 C   0  0  0  0  0  0  0  0  0  0  0  0
  139.8710   69.1390  226.1000 C   0  0  0  0  0  0  0  0  0  0  0  0
  140.4420   69.5280  227.3130 C   0  0  0  0  0  0  0  0  0  0  0  0
  140.4170   68.4800  228.7180 Cl  0  0  0  0  0  0  0  0  0  0  0  0
  141.0430   70.7880  227.3840 C   0  0  0  0  0  0  0  0  0  0  0  0
  141.0500   71.5870  226.2770 C   0  0  0  0  0  0  0  0  0  0  0  0
  140.4920   71.2120  225.0830 C   0  0  0  0  0  0  0  0  0  0  0  0
  140.4870   71.9780  223.9820 N   0  0  0  0  0  0  0  0  0  0  0  0
  141.1780   73.9670  222.6910 H   0  0  0  0  0  0  0  0  0  0  0  0
  141.4431   74.2868  219.8841 H   0  0  0  0  0  0  0  0  0  0  0  0
  139.7603   74.8253  220.2384 H   0  0  0  0  0  0  0  0  0  0  0  0
  143.6095   76.7791  219.2687 H   0  0  0  0  0  0  0  0  0  0  0  0
  142.3914   75.6838  218.5749 H   0  0  0  0  0  0  0  0  0  0  0  0
  142.0491   77.3382  216.9290 H   0  0  0  0  0  0  0  0  0  0  0  0
  143.3960   79.0160  216.9620 H   0  0  0  0  0  0  0  0  0  0  0  0
  140.9417   79.4747  218.2005 H   0  0  0  0  0  0  0  0  0  0  0  0
  140.0577   77.9790  218.2838 H   0  0  0  0  0  0  0  0  0  0  0  0
  142.1428   79.0786  220.3106 H   0  0  0  0  0  0  0  0  0  0  0  0
  139.4350   79.1631  220.3364 H   0  0  0  0  0  0  0  0  0  0  0  0
  139.9650   77.8355  221.4767 H   0  0  0  0  0  0  0  0  0  0  0  0
  142.6368   80.0787  221.3796 H   0  0  0  0  0  0  0  0  0  0  0  0
  141.4245   81.0078  220.4554 H   0  0  0  0  0  0  0  0  0  0  0  0
  142.7371   82.3101  222.2308 H   0  0  0  0  0  0  0  0  0  0  0  0
  140.9283   82.4056  222.3328 H   0  0  0  0  0  0  0  0  0  0  0  0
  142.6053   81.8192  224.4393 H   0  0  0  0  0  0  0  0  0  0  0  0
  140.8802   81.4004  224.3609 H   0  0  0  0  0  0  0  0  0  0  0  0
  143.1909   79.6730  223.2843 H   0  0  0  0  0  0  0  0  0  0  0  0
  142.3062   79.3917  224.8308 H   0  0  0  0  0  0  0  0  0  0  0  0
  141.6166   78.0573  222.7069 H   0  0  0  0  0  0  0  0  0  0  0  0
  140.3423   78.8107  223.7614 H   0  0  0  0  0  0  0  0  0  0  0  0
  138.8823   70.0666  221.7375 H   0  0  0  0  0  0  0  0  0  0  0  0
  138.8566   68.5828  223.7563 H   0  0  0  0  0  0  0  0  0  0  0  0
  139.3924   68.1519  226.0183 H   0  0  0  0  0  0  0  0  0  0  0  0
  141.5051   71.1319  228.3211 H   0  0  0  0  0  0  0  0  0  0  0  0
  141.5251   72.5766  226.3467 H   0  0  0  0  0  0  0  0  0  0  0  0
  1  2  2  0
  2  3  1  0
  3  4  1  0
  4  5  1  0
  5  6  2  0
  5  7  1  0
  7  8  1  0
  8  9  1  0
  9 10  1  0
  9 11  1  0
 11 12  1  0
 12 13  1  0
 13 14  1  0
 14 15  1  0
 15 16  1  0
 16 17  1  0
 17 18  1  0
 18 19  1  0
  2 20  1  0
 20 21  2  0
 21 22  1  0
 22 23  2  0
 23 24  1  0
 24 25  2  0
 25 26  1  0
 25 27  1  0
 27 28  2  0
 28 29  1  0
 29 30  2  0
 12  7  1  0
 19 14  1  0
 30 20  1  0
 29 23  1  0
  3 31  1  0
  4 32  1  0
  4 33  1  0
  8 34  1  0
  8 35  1  0
  9 36  1  6
 10 37  1  0
 11 38  1  0
 11 39  1  0
 12 40  1  6
 13 41  1  0
 13 42  1  0
 15 43  1  0
 15 44  1  0
 16 45  1  0
 16 46  1  0
 17 47  1  0
 17 48  1  0
 18 49  1  0
 18 50  1  0
 19 51  1  0
 19 52  1  0
 21 53  1  0
 22 54  1  0
 24 55  1  0
 27 56  1  0
 28 57  1  0
M  END
>  <smiles>  (5) 
O=C(NCC(=O)N1C[C@H](O)C[C@H]1CN1CCCCC1)c1ccc2cc(Cl)ccc2n1

>  <score_type>  (5) 
oracle

>  <origin>  (5) 
autodockgpu

>  <m_score__min__energy>  (5) 
-9.2599999999999998

>  <m_primary>  (5) 
energy

>  <rmsd>  (5) 
2.567815011307517

>  <m_score__min__rmsd>  (5) 
2.567815011307517

>  <meeko>  (5) 
{"free_energy": -8.13, "intermolecular_energy": -10.22, "internal_energy": -2.13, "cluster_size": 30, "cluster_id": 1, "rank_in_cluster": 23}

>  <energy>  (5) 
-8.98

>  <cluster_rmsd>  (5) 
0.52

>  <cluster>  (5) 
1

$$$$

     RDKit          3D

 57 60  0  0  0  0  0  0  0  0999 V2000
  141.0750   72.7370  220.9240 O   0  0  0  0  0  0  0  0  0  0  0  0
  140.3210   72.9510  221.9290 C   0  0  0  0  0  0  0  0  0  0  0  0
  139.6280   74.1890  221.9570 N   0  0  0  0  0  0  0  0  0  0  0  0
  139.7570   75.1800  220.9030 C   0  0  0  0  0  0  0  0  0  0  0  0
  140.9530   76.0260  221.1380 C   0  0  0  0  0  0  0  0  0  0  0  0
  141.4090   76.0920  222.3070 O   0  0  0  0  0  0  0  0  0  0  0  0
  141.5130   76.7150  220.0290 N   0  0  0  0  0  0  0  0  0  0  0  0
  142.2800   76.1420  218.9300 C   0  0  0  0  0  0  0  0  0  0  0  0
  142.1340   77.0750  217.7540 C   0  0  2  0  0  0  0  0  0  0  0  0
  143.3370   77.7510  217.5870 O   0  0  0  0  0  0  0  0  0  0  0  0
  141.1090   78.0680  218.2520 C   0  0  0  0  0  0  0  0  0  0  0  0
  141.4610   78.1440  219.7150 C   0  0  1  0  0  0  0  0  0  0  0  0
  140.4780   78.8590  220.5670 C   0  0  0  0  0  0  0  0  0  0  0  0
  141.0850   79.7600  221.5240 N   0  0  0  0  0  0  0  0  0  0  0  0
  142.1710   79.1380  222.2580 C   0  0  0  0  0  0  0  0  0  0  0  0
  142.9050   80.2240  223.0140 C   0  0  0  0  0  0  0  0  0  0  0  0
  141.9550   81.1480  223.7330 C   0  0  0  0  0  0  0  0  0  0  0  0
  140.6240   80.4090  223.8480 C   0  0  0  0  0  0  0  0  0  0  0  0
  140.0570   80.1260  222.4790 C   0  0  0  0  0  0  0  0  0  0  0  0
  140.1920   71.9620  222.9810 C   0  0  0  0  0  0  0  0  0  0  0  0
  139.5840   70.7630  222.7570 C   0  0  0  0  0  0  0  0  0  0  0  0
  139.5140   69.8820  223.8340 C   0  0  0  0  0  0  0  0  0  0  0  0
  140.0320   70.2040  225.0670 C   0  0  0  0  0  0  0  0  0  0  0  0
  139.9450   69.3050  226.1110 C   0  0  0  0  0  0  0  0  0  0  0  0
  140.4640   69.6130  227.3700 C   0  0  0  0  0  0  0  0  0  0  0  0
  140.3610   68.4850  228.7080 Cl  0  0  0  0  0  0  0  0  0  0  0  0
  141.0760   70.8580  227.5430 C   0  0  0  0  0  0  0  0  0  0  0  0
  141.1440   71.7200  226.4870 C   0  0  0  0  0  0  0  0  0  0  0  0
  140.6360   71.4250  225.2490 C   0  0  0  0  0  0  0  0  0  0  0  0
  140.6920   72.2550  224.1960 N   0  0  0  0  0  0  0  0  0  0  0  0
  139.0100   74.3480  222.7980 H   0  0  0  0  0  0  0  0  0  0  0  0
  139.8583   74.6689  219.9342 H   0  0  0  0  0  0  0  0  0  0  0  0
  138.8612   75.8184  220.8993 H   0  0  0  0  0  0  0  0  0  0  0  0
  143.3392   76.0555  219.2138 H   0  0  0  0  0  0  0  0  0  0  0  0
  141.9134   75.1356  218.6794 H   0  0  0  0  0  0  0  0  0  0  0  0
  141.8634   76.5753  216.8121 H   0  0  0  0  0  0  0  0  0  0  0  0
  143.2390   78.5020  216.9170 H   0  0  0  0  0  0  0  0  0  0  0  0
  141.2216   79.0449  217.7591 H   0  0  0  0  0  0  0  0  0  0  0  0
  140.0666   77.7786  218.0531 H   0  0  0  0  0  0  0  0  0  0  0  0
  142.3757   78.7233  219.9091 H   0  0  0  0  0  0  0  0  0  0  0  0
  139.8122   79.4426  219.9143 H   0  0  0  0  0  0  0  0  0  0  0  0
  139.9359   78.0949  221.1434 H   0  0  0  0  0  0  0  0  0  0  0  0
  141.7682   78.3977  222.9649 H   0  0  0  0  0  0  0  0  0  0  0  0
  142.8549   78.6238  221.5667 H   0  0  0  0  0  0  0  0  0  0  0  0
  143.5721   79.7549  223.7522 H   0  0  0  0  0  0  0  0  0  0  0  0
  143.4757   80.8200  222.2866 H   0  0  0  0  0  0  0  0  0  0  0  0
  142.3435   81.3865  224.7341 H   0  0  0  0  0  0  0  0  0  0  0  0
  141.8351   82.0947  223.1859 H   0  0  0  0  0  0  0  0  0  0  0  0
  140.7825   79.4581  224.3779 H   0  0  0  0  0  0  0  0  0  0  0  0
  139.9140   81.0390  224.4039 H   0  0  0  0  0  0  0  0  0  0  0  0
  139.3367   79.2984  222.5583 H   0  0  0  0  0  0  0  0  0  0  0  0
  139.5732   81.0455  222.1178 H   0  0  0  0  0  0  0  0  0  0  0  0
  139.1682   70.5031  221.7723 H   0  0  0  0  0  0  0  0  0  0  0  0
  139.0318   68.9032  223.6947 H   0  0  0  0  0  0  0  0  0  0  0  0
  139.4595   68.3314  225.9485 H   0  0  0  0  0  0  0  0  0  0  0  0
  141.4979   71.1396  228.5190 H   0  0  0  0  0  0  0  0  0  0  0  0
  141.6287   72.6961  226.6365 H   0  0  0  0  0  0  0  0  0  0  0  0
  1  2  2  0
  2  3  1  0
  3  4  1  0
  4  5  1  0
  5  6  2  0
  5  7  1  0
  7  8  1  0
  8  9  1  0
  9 10  1  0
  9 11  1  0
 11 12  1  0
 12 13  1  0
 13 14  1  0
 14 15  1  0
 15 16  1  0
 16 17  1  0
 17 18  1  0
 18 19  1  0
  2 20  1  0
 20 21  2  0
 21 22  1  0
 22 23  2  0
 23 24  1  0
 24 25  2  0
 25 26  1  0
 25 27  1  0
 27 28  2  0
 28 29  1  0
 29 30  2  0
 12  7  1  0
 19 14  1  0
 30 20  1  0
 29 23  1  0
  3 31  1  0
  4 32  1  0
  4 33  1  0
  8 34  1  0
  8 35  1  0
  9 36  1  6
 10 37  1  0
 11 38  1  0
 11 39  1  0
 12 40  1  6
 13 41  1  0
 13 42  1  0
 15 43  1  0
 15 44  1  0
 16 45  1  0
 16 46  1  0
 17 47  1  0
 17 48  1  0
 18 49  1  0
 18 50  1  0
 19 51  1  0
 19 52  1  0
 21 53  1  0
 22 54  1  0
 24 55  1  0
 27 56  1  0
 28 57  1  0
M  END
>  <smiles>  (6) 
O=C(NCC(=O)N1C[C@H](O)C[C@H]1CN1CCCCC1)c1ccc2cc(Cl)ccc2n1

>  <score_type>  (6) 
oracle

>  <origin>  (6) 
autodockgpu

>  <m_score__min__energy>  (6) 
-9.2599999999999998

>  <m_primary>  (6) 
energy

>  <rmsd>  (6) 
2.363946428546303

>  <m_score__min__rmsd>  (6) 
2.363946428546303

>  <meeko>  (6) 
{"free_energy": -8.47, "intermolecular_energy": -10.55, "internal_energy": -1.52, "cluster_size": 30, "cluster_id": 1, "rank_in_cluster": 13}

>  <energy>  (6) 
-8.94

>  <cluster_rmsd>  (6) 
0.73

>  <cluster>  (6) 
1

$$$$

     RDKit          3D

 57 60  0  0  0  0  0  0  0  0999 V2000
  133.8260   70.0670  226.8810 O   0  0  0  0  0  0  0  0  0  0  0  0
  133.9030   71.1530  226.2200 C   0  0  0  0  0  0  0  0  0  0  0  0
  134.6890   71.1290  225.0390 N   0  0  0  0  0  0  0  0  0  0  0  0
  135.3810   69.9350  224.5860 C   0  0  0  0  0  0  0  0  0  0  0  0
  136.6720   70.3000  223.9520 C   0  0  0  0  0  0  0  0  0  0  0  0
  136.9880   71.5150  223.9130 O   0  0  0  0  0  0  0  0  0  0  0  0
  137.4760   69.2540  223.4250 N   0  0  0  0  0  0  0  0  0  0  0  0
  137.0420   68.1420  222.5890 C   0  0  0  0  0  0  0  0  0  0  0  0
  138.2460   67.6790  221.8070 C   0  0  2  0  0  0  0  0  0  0  0  0
  138.6670   66.4660  222.3420 O   0  0  0  0  0  0  0  0  0  0  0  0
  139.2820   68.7220  222.1560 C   0  0  0  0  0  0  0  0  0  0  0  0
  138.9160   69.0350  223.5840 C   0  0  1  0  0  0  0  0  0  0  0  0
  139.5920   70.2200  224.1670 C   0  0  0  0  0  0  0  0  0  0  0  0
  139.6300   70.2140  225.6140 N   0  0  0  0  0  0  0  0  0  0  0  0
  140.8150   70.8670  226.1390 C   0  0  0  0  0  0  0  0  0  0  0  0
  140.6240   71.0530  227.6280 C   0  0  0  0  0  0  0  0  0  0  0  0
  140.1120   69.7980  228.2890 C   0  0  0  0  0  0  0  0  0  0  0  0
  140.4090   68.6440  227.3350 C   0  0  0  0  0  0  0  0  0  0  0  0
  139.6650   68.8280  226.0360 C   0  0  0  0  0  0  0  0  0  0  0  0
  133.2120   72.3450  226.6710 C   0  0  0  0  0  0  0  0  0  0  0  0
  131.9960   72.2710  227.2810 C   0  0  0  0  0  0  0  0  0  0  0  0
  131.4170   73.4760  227.6790 C   0  0  0  0  0  0  0  0  0  0  0  0
  132.0420   74.6830  227.4670 C   0  0  0  0  0  0  0  0  0  0  0  0
  131.4380   75.8550  227.8760 C   0  0  0  0  0  0  0  0  0  0  0  0
  132.0560   77.0910  227.6700 C   0  0  0  0  0  0  0  0  0  0  0  0
  131.3040   78.5900  228.1820 Cl  0  0  0  0  0  0  0  0  0  0  0  0
  133.3030   77.1060  227.0400 C   0  0  0  0  0  0  0  0  0  0  0  0
  133.8680   75.9270  226.6500 C   0  0  0  0  0  0  0  0  0  0  0  0
  133.2680   74.7100  226.8480 C   0  0  0  0  0  0  0  0  0  0  0  0
  133.8040   73.5380  226.4750 N   0  0  0  0  0  0  0  0  0  0  0  0
  134.7410   72.0390  224.5050 H   0  0  0  0  0  0  0  0  0  0  0  0
  135.5721   69.2773  225.4467 H   0  0  0  0  0  0  0  0  0  0  0  0
  134.7531   69.4147  223.8477 H   0  0  0  0  0  0  0  0  0  0  0  0
  136.6625   67.3230  223.2176 H   0  0  0  0  0  0  0  0  0  0  0  0
  136.2320   68.4532  221.9130 H   0  0  0  0  0  0  0  0  0  0  0  0
  138.0651   67.5599  220.7285 H   0  0  0  0  0  0  0  0  0  0  0  0
  138.0570   66.1720  223.0930 H   0  0  0  0  0  0  0  0  0  0  0  0
  140.3021   68.3172  222.0812 H   0  0  0  0  0  0  0  0  0  0  0  0
  139.2832   69.5967  221.4890 H   0  0  0  0  0  0  0  0  0  0  0  0
  139.2185   68.2471  224.2895 H   0  0  0  0  0  0  0  0  0  0  0  0
  140.6258   70.2495  223.7924 H   0  0  0  0  0  0  0  0  0  0  0  0
  139.0109   71.1035  223.8640 H   0  0  0  0  0  0  0  0  0  0  0  0
  141.7002   70.2416  225.9513 H   0  0  0  0  0  0  0  0  0  0  0  0
  140.9650   71.8399  225.6481 H   0  0  0  0  0  0  0  0  0  0  0  0
  141.5896   71.3245  228.0795 H   0  0  0  0  0  0  0  0  0  0  0  0
  139.8786   71.8475  227.7801 H   0  0  0  0  0  0  0  0  0  0  0  0
  140.6264   69.6383  229.2481 H   0  0  0  0  0  0  0  0  0  0  0  0
  139.0340   69.8722  228.4950 H   0  0  0  0  0  0  0  0  0  0  0  0
  141.4896   68.6112  227.1318 H   0  0  0  0  0  0  0  0  0  0  0  0
  140.0823   67.7031  227.8020 H   0  0  0  0  0  0  0  0  0  0  0  0
  140.1626   68.2331  225.2559 H   0  0  0  0  0  0  0  0  0  0  0  0
  138.6276   68.4975  226.1925 H   0  0  0  0  0  0  0  0  0  0  0  0
  131.4947   71.3069  227.4515 H   0  0  0  0  0  0  0  0  0  0  0  0
  130.4354   73.4607  228.1752 H   0  0  0  0  0  0  0  0  0  0  0  0
  130.4565   75.8152  228.3710 H   0  0  0  0  0  0  0  0  0  0  0  0
  133.8236   78.0582  226.8604 H   0  0  0  0  0  0  0  0  0  0  0  0
  134.8495   75.9539  226.1541 H   0  0  0  0  0  0  0  0  0  0  0  0
  1  2  2  0
  2  3  1  0
  3  4  1  0
  4  5  1  0
  5  6  2  0
  5  7  1  0
  7  8  1  0
  8  9  1  0
  9 10  1  0
  9 11  1  0
 11 12  1  0
 12 13  1  0
 13 14  1  0
 14 15  1  0
 15 16  1  0
 16 17  1  0
 17 18  1  0
 18 19  1  0
  2 20  1  0
 20 21  2  0
 21 22  1  0
 22 23  2  0
 23 24  1  0
 24 25  2  0
 25 26  1  0
 25 27  1  0
 27 28  2  0
 28 29  1  0
 29 30  2  0
 12  7  1  0
 19 14  1  0
 30 20  1  0
 29 23  1  0
  3 31  1  0
  4 32  1  0
  4 33  1  0
  8 34  1  0
  8 35  1  0
  9 36  1  6
 10 37  1  0
 11 38  1  0
 11 39  1  0
 12 40  1  1
 13 41  1  0
 13 42  1  0
 15 43  1  0
 15 44  1  0
 16 45  1  0
 16 46  1  0
 17 47  1  0
 17 48  1  0
 18 49  1  0
 18 50  1  0
 19 51  1  0
 19 52  1  0
 21 53  1  0
 22 54  1  0
 24 55  1  0
 27 56  1  0
 28 57  1  0
M  END
>  <smiles>  (7) 
O=C(NCC(=O)N1C[C@H](O)C[C@H]1CN1CCCCC1)c1ccc2cc(Cl)ccc2n1

>  <score_type>  (7) 
oracle

>  <origin>  (7) 
autodockgpu

>  <m_score__min__energy>  (7) 
-9.2599999999999998

>  <m_primary>  (7) 
energy

>  <rmsd>  (7) 
9.636553369404256

>  <m_score__min__rmsd>  (7) 
9.636553369404256

>  <meeko>  (7) 
{"free_energy": -7.7, "intermolecular_energy": -9.79, "internal_energy": -1.91, "cluster_size": 2, "cluster_id": 3, "rank_in_cluster": 2}

>  <energy>  (7) 
-8.76

>  <cluster_rmsd>  (7) 
0.61

>  <cluster>  (7) 
1

$$$$

     RDKit          3D

 57 60  0  0  0  0  0  0  0  0999 V2000
  135.2710   68.6940  224.9800 O   0  0  0  0  0  0  0  0  0  0  0  0
  135.8110   69.8480  224.9650 C   0  0  0  0  0  0  0  0  0  0  0  0
  137.1700   69.9130  224.5640 N   0  0  0  0  0  0  0  0  0  0  0  0
  137.9300   68.7330  224.1860 C   0  0  0  0  0  0  0  0  0  0  0  0
  139.0590   68.5270  225.1260 C   0  0  0  0  0  0  0  0  0  0  0  0
  139.5690   67.3820  225.1940 O   0  0  0  0  0  0  0  0  0  0  0  0
  139.4970   69.6370  225.8970 N   0  0  0  0  0  0  0  0  0  0  0  0
  139.6430   69.7040  227.3460 C   0  0  0  0  0  0  0  0  0  0  0  0
  140.6600   70.7780  227.6410 C   0  0  2  0  0  0  0  0  0  0  0  0
  139.9860   71.8800  228.1540 O   0  0  0  0  0  0  0  0  0  0  0  0
  141.1580   71.1410  226.2610 C   0  0  0  0  0  0  0  0  0  0  0  0
  139.9060   70.9670  225.4400 C   0  0  1  0  0  0  0  0  0  0  0  0
  140.1010   71.0080  223.9700 C   0  0  0  0  0  0  0  0  0  0  0  0
  139.1550   71.8610  223.2810 N   0  0  0  0  0  0  0  0  0  0  0  0
  138.4410   71.1600  222.2310 C   0  0  0  0  0  0  0  0  0  0  0  0
  137.3020   72.0440  221.7720 C   0  0  0  0  0  0  0  0  0  0  0  0
  137.7500   73.4650  221.5460 C   0  0  0  0  0  0  0  0  0  0  0  0
  139.2690   73.4300  221.3960 C   0  0  0  0  0  0  0  0  0  0  0  0
  139.9140   72.9310  222.6650 C   0  0  0  0  0  0  0  0  0  0  0  0
  135.0530   71.0250  225.3420 C   0  0  0  0  0  0  0  0  0  0  0  0
  133.9730   70.9380  226.1680 C   0  0  0  0  0  0  0  0  0  0  0  0
  133.3140   72.1280  226.4700 C   0  0  0  0  0  0  0  0  0  0  0  0
  133.7330   73.3360  225.9610 C   0  0  0  0  0  0  0  0  0  0  0  0
  133.0560   74.4950  226.2840 C   0  0  0  0  0  0  0  0  0  0  0  0
  133.4650   75.7310  225.7780 C   0  0  0  0  0  0  0  0  0  0  0  0
  132.6170   77.2120  226.1760 Cl  0  0  0  0  0  0  0  0  0  0  0  0
  134.5790   75.7600  224.9350 C   0  0  0  0  0  0  0  0  0  0  0  0
  135.2230   74.5940  224.6390 C   0  0  0  0  0  0  0  0  0  0  0  0
  134.8280   73.3770  225.1310 C   0  0  0  0  0  0  0  0  0  0  0  0
  135.4440   72.2180  224.8560 N   0  0  0  0  0  0  0  0  0  0  0  0
  137.6000   70.8770  224.5590 H   0  0  0  0  0  0  0  0  0  0  0  0
  137.2708   67.8528  224.2117 H   0  0  0  0  0  0  0  0  0  0  0  0
  138.3297   68.8739  223.1709 H   0  0  0  0  0  0  0  0  0  0  0  0
  138.6793   69.9593  227.8108 H   0  0  0  0  0  0  0  0  0  0  0  0
  139.9689   68.7348  227.7515 H   0  0  0  0  0  0  0  0  0  0  0  0
  141.4489   70.4728  228.3442 H   0  0  0  0  0  0  0  0  0  0  0  0
  140.6220   72.4980  228.6400 H   0  0  0  0  0  0  0  0  0  0  0  0
  141.5227   72.1782  226.2244 H   0  0  0  0  0  0  0  0  0  0  0  0
  142.0103   70.5370  225.9163 H   0  0  0  0  0  0  0  0  0  0  0  0
  139.1797   71.7807  225.5828 H   0  0  0  0  0  0  0  0  0  0  0  0
  141.1162   71.3783  223.7645 H   0  0  0  0  0  0  0  0  0  0  0  0
  139.9436   69.9855  223.5961 H   0  0  0  0  0  0  0  0  0  0  0  0
  139.1192   70.9572  221.3891 H   0  0  0  0  0  0  0  0  0  0  0  0
  138.0542   70.2008  222.6055 H   0  0  0  0  0  0  0  0  0  0  0  0
  136.8987   71.6441  220.8300 H   0  0  0  0  0  0  0  0  0  0  0  0
  136.5353   72.0494  222.5607 H   0  0  0  0  0  0  0  0  0  0  0  0
  137.2884   73.8668  220.6320 H   0  0  0  0  0  0  0  0  0  0  0  0
  137.4509   74.1112  222.3844 H   0  0  0  0  0  0  0  0  0  0  0  0
  139.5354   72.7587  220.5663 H   0  0  0  0  0  0  0  0  0  0  0  0
  139.6297   74.4487  221.1904 H   0  0  0  0  0  0  0  0  0  0  0  0
  140.9217   72.5593  222.4277 H   0  0  0  0  0  0  0  0  0  0  0  0
  139.9536   73.7695  223.3759 H   0  0  0  0  0  0  0  0  0  0  0  0
  133.6371   69.9738  226.5772 H   0  0  0  0  0  0  0  0  0  0  0  0
  132.4362   72.1012  227.1324 H   0  0  0  0  0  0  0  0  0  0  0  0
  132.1817   74.4444  226.9496 H   0  0  0  0  0  0  0  0  0  0  0  0
  134.9331   76.7128  224.5144 H   0  0  0  0  0  0  0  0  0  0  0  0
  136.0993   74.6324  223.9752 H   0  0  0  0  0  0  0  0  0  0  0  0
  1  2  2  0
  2  3  1  0
  3  4  1  0
  4  5  1  0
  5  6  2  0
  5  7  1  0
  7  8  1  0
  8  9  1  0
  9 10  1  0
  9 11  1  0
 11 12  1  0
 12 13  1  0
 13 14  1  0
 14 15  1  0
 15 16  1  0
 16 17  1  0
 17 18  1  0
 18 19  1  0
  2 20  1  0
 20 21  2  0
 21 22  1  0
 22 23  2  0
 23 24  1  0
 24 25  2  0
 25 26  1  0
 25 27  1  0
 27 28  2  0
 28 29  1  0
 29 30  2  0
 12  7  1  0
 19 14  1  0
 30 20  1  0
 29 23  1  0
  3 31  1  0
  4 32  1  0
  4 33  1  0
  8 34  1  0
  8 35  1  0
  9 36  1  1
 10 37  1  0
 11 38  1  0
 11 39  1  0
 12 40  1  1
 13 41  1  0
 13 42  1  0
 15 43  1  0
 15 44  1  0
 16 45  1  0
 16 46  1  0
 17 47  1  0
 17 48  1  0
 18 49  1  0
 18 50  1  0
 19 51  1  0
 19 52  1  0
 21 53  1  0
 22 54  1  0
 24 55  1  0
 27 56  1  0
 28 57  1  0
M  END
>  <smiles>  (8) 
O=C(NCC(=O)N1C[C@H](O)C[C@H]1CN1CCCCC1)c1ccc2cc(Cl)ccc2n1

>  <score_type>  (8) 
oracle

>  <origin>  (8) 
autodockgpu

>  <m_score__min__energy>  (8) 
-9.2599999999999998

>  <m_primary>  (8) 
energy

>  <rmsd>  (8) 
8.256416166589041

>  <m_score__min__rmsd>  (8) 
8.256416166589041

>  <meeko>  (8) 
{"free_energy": -6.63, "intermolecular_energy": -8.72, "internal_energy": -2.8, "cluster_size": 1, "cluster_id": 9, "rank_in_cluster": 1}

>  <energy>  (8) 
-8.54

>  <cluster_rmsd>  (8) 
1.71

>  <cluster>  (8) 
1

$$$$

     RDKit          3D

 57 60  0  0  0  0  0  0  0  0999 V2000
  138.6410   72.8450  220.9290 O   0  0  0  0  0  0  0  0  0  0  0  0
  139.5910   72.8030  221.7780 C   0  0  0  0  0  0  0  0  0  0  0  0
  140.6600   73.7160  221.5870 N   0  0  0  0  0  0  0  0  0  0  0  0
  140.6920   74.6610  220.4840 C   0  0  0  0  0  0  0  0  0  0  0  0
  142.0590   75.2160  220.3230 C   0  0  0  0  0  0  0  0  0  0  0  0
  142.9790   74.7320  221.0290 O   0  0  0  0  0  0  0  0  0  0  0  0
  142.2490   76.2630  219.3830 N   0  0  0  0  0  0  0  0  0  0  0  0
  142.8410   76.1610  218.0550 C   0  0  0  0  0  0  0  0  0  0  0  0
  142.2960   77.3060  217.2380 C   0  0  2  0  0  0  0  0  0  0  0  0
  143.3120   78.2420  217.0770 O   0  0  0  0  0  0  0  0  0  0  0  0
  141.2600   77.9020  218.1630 C   0  0  0  0  0  0  0  0  0  0  0  0
  141.9040   77.6810  219.5070 C   0  0  1  0  0  0  0  0  0  0  0  0
  141.0280   77.9330  220.6780 C   0  0  0  0  0  0  0  0  0  0  0  0
  141.6980   78.6070  221.7710 N   0  0  0  0  0  0  0  0  0  0  0  0
  140.9320   78.5640  223.0020 C   0  0  0  0  0  0  0  0  0  0  0  0
  141.8260   79.0380  224.1260 C   0  0  0  0  0  0  0  0  0  0  0  0
  142.5700   80.2970  223.7570 C   0  0  0  0  0  0  0  0  0  0  0  0
  141.8230   80.9230  222.5810 C   0  0  0  0  0  0  0  0  0  0  0  0
  141.8460   79.9980  221.3900 C   0  0  0  0  0  0  0  0  0  0  0  0
  139.5590   71.8600  222.8780 C   0  0  0  0  0  0  0  0  0  0  0  0
  138.8150   70.7200  222.8140 C   0  0  0  0  0  0  0  0  0  0  0  0
  138.8540   69.8790  223.9250 C   0  0  0  0  0  0  0  0  0  0  0  0
  139.6070   70.1830  225.0350 C   0  0  0  0  0  0  0  0  0  0  0  0
  139.6220   69.3250  226.1170 C   0  0  0  0  0  0  0  0  0  0  0  0
  140.3790   69.6160  227.2540 C   0  0  0  0  0  0  0  0  0  0  0  0
  140.4090   68.5390  228.6370 Cl  0  0  0  0  0  0  0  0  0  0  0  0
  141.1210   70.7990  227.2650 C   0  0  0  0  0  0  0  0  0  0  0  0
  141.0820   71.6230  226.1770 C   0  0  0  0  0  0  0  0  0  0  0  0
  140.3410   71.3450  225.0580 C   0  0  0  0  0  0  0  0  0  0  0  0
  140.2870   72.1360  223.9760 N   0  0  0  0  0  0  0  0  0  0  0  0
  141.4380   73.6650  222.2990 H   0  0  0  0  0  0  0  0  0  0  0  0
  140.3970   74.1474  219.5570 H   0  0  0  0  0  0  0  0  0  0  0  0
  139.9936   75.4839  220.6965 H   0  0  0  0  0  0  0  0  0  0  0  0
  143.9364   76.2340  218.1235 H   0  0  0  0  0  0  0  0  0  0  0  0
  142.5947   75.1953  217.5893 H   0  0  0  0  0  0  0  0  0  0  0  0
  141.9095   77.0127  216.2508 H   0  0  0  0  0  0  0  0  0  0  0  0
  142.9640   79.0780  216.6270 H   0  0  0  0  0  0  0  0  0  0  0  0
  141.1073   78.9724  217.9605 H   0  0  0  0  0  0  0  0  0  0  0  0
  140.2585   77.4578  218.0643 H   0  0  0  0  0  0  0  0  0  0  0  0
  142.7352   78.3734  219.7064 H   0  0  0  0  0  0  0  0  0  0  0  0
  140.1824   78.5563  220.3516 H   0  0  0  0  0  0  0  0  0  0  0  0
  140.7045   76.9516  221.0550 H   0  0  0  0  0  0  0  0  0  0  0  0
  140.0552   79.2231  222.9192 H   0  0  0  0  0  0  0  0  0  0  0  0
  140.5819   77.5399  223.1984 H   0  0  0  0  0  0  0  0  0  0  0  0
  141.2071   79.2373  225.0133 H   0  0  0  0  0  0  0  0  0  0  0  0
  142.5665   78.2504  224.3292 H   0  0  0  0  0  0  0  0  0  0  0  0
  142.5843   80.9920  224.6095 H   0  0  0  0  0  0  0  0  0  0  0  0
  143.6132   80.0744  223.4882 H   0  0  0  0  0  0  0  0  0  0  0  0
  140.7794   81.1111  222.8735 H   0  0  0  0  0  0  0  0  0  0  0  0
  142.3157   81.8678  222.3080 H   0  0  0  0  0  0  0  0  0  0  0  0
  141.0210   80.2697  220.7151 H   0  0  0  0  0  0  0  0  0  0  0  0
  142.8224   80.1096  220.8959 H   0  0  0  0  0  0  0  0  0  0  0  0
  138.2120   70.4750  221.9272 H   0  0  0  0  0  0  0  0  0  0  0  0
  138.2675   68.9484  223.9136 H   0  0  0  0  0  0  0  0  0  0  0  0
  139.0292   68.3990  226.0828 H   0  0  0  0  0  0  0  0  0  0  0  0
  141.7307   71.0643  228.1413 H   0  0  0  0  0  0  0  0  0  0  0  0
  141.6716   72.5514  226.1996 H   0  0  0  0  0  0  0  0  0  0  0  0
  1  2  2  0
  2  3  1  0
  3  4  1  0
  4  5  1  0
  5  6  2  0
  5  7  1  0
  7  8  1  0
  8  9  1  0
  9 10  1  0
  9 11  1  0
 11 12  1  0
 12 13  1  0
 13 14  1  0
 14 15  1  0
 15 16  1  0
 16 17  1  0
 17 18  1  0
 18 19  1  0
  2 20  1  0
 20 21  2  0
 21 22  1  0
 22 23  2  0
 23 24  1  0
 24 25  2  0
 25 26  1  0
 25 27  1  0
 27 28  2  0
 28 29  1  0
 29 30  2  0
 12  7  1  0
 19 14  1  0
 30 20  1  0
 29 23  1  0
  3 31  1  0
  4 32  1  0
  4 33  1  0
  8 34  1  0
  8 35  1  0
  9 36  1  6
 10 37  1  0
 11 38  1  0
 11 39  1  0
 12 40  1  1
 13 41  1  0
 13 42  1  0
 15 43  1  0
 15 44  1  0
 16 45  1  0
 16 46  1  0
 17 47  1  0
 17 48  1  0
 18 49  1  0
 18 50  1  0
 19 51  1  0
 19 52  1  0
 21 53  1  0
 22 54  1  0
 24 55  1  0
 27 56  1  0
 28 57  1  0
M  END
>  <smiles>  (9) 
O=C(NCC(=O)N1C[C@H](O)C[C@H]1CN1CCCCC1)c1ccc2cc(Cl)ccc2n1

>  <score_type>  (9) 
oracle

>  <origin>  (9) 
autodockgpu

>  <m_score__min__energy>  (9) 
-9.2599999999999998

>  <m_primary>  (9) 
energy

>  <rmsd>  (9) 
2.406492373558713

>  <m_score__min__rmsd>  (9) 
2.406492373558713

>  <meeko>  (9) 
{"free_energy": -7.9, "intermolecular_energy": -9.99, "internal_energy": -2.01, "cluster_size": 30, "cluster_id": 1, "rank_in_cluster": 27}

>  <energy>  (9) 
-8.52

>  <cluster_rmsd>  (9) 
1.19

>  <cluster>  (9) 
1

$$$$

     RDKit          3D

 57 60  0  0  0  0  0  0  0  0999 V2000
  137.5610   71.1600  221.4660 O   0  0  0  0  0  0  0  0  0  0  0  0
  138.2870   71.6210  222.4060 C   0  0  0  0  0  0  0  0  0  0  0  0
  138.6140   73.0000  222.3440 N   0  0  0  0  0  0  0  0  0  0  0  0
  138.1560   73.8630  221.2680 C   0  0  0  0  0  0  0  0  0  0  0  0
  138.7370   75.2210  221.4180 C   0  0  0  0  0  0  0  0  0  0  0  0
  137.9710   76.1550  221.7650 O   0  0  0  0  0  0  0  0  0  0  0  0
  140.1230   75.3870  221.1590 N   0  0  0  0  0  0  0  0  0  0  0  0
  140.9350   74.6580  220.1930 C   0  0  0  0  0  0  0  0  0  0  0  0
  142.1090   75.5380  219.8460 C   0  0  2  0  0  0  0  0  0  0  0  0
  143.2410   75.0060  220.4540 O   0  0  0  0  0  0  0  0  0  0  0  0
  141.7680   76.8290  220.5530 C   0  0  0  0  0  0  0  0  0  0  0  0
  141.0690   76.3150  221.7840 C   0  0  1  0  0  0  0  0  0  0  0  0
  140.3740   77.3450  222.5960 C   0  0  0  0  0  0  0  0  0  0  0  0
  140.9910   78.6530  222.5270 N   0  0  0  0  0  0  0  0  0  0  0  0
  142.0170   78.8340  223.5370 C   0  0  0  0  0  0  0  0  0  0  0  0
  142.7780   80.0990  223.2060 C   0  0  0  0  0  0  0  0  0  0  0  0
  141.8510   81.2410  222.8760 C   0  0  0  0  0  0  0  0  0  0  0  0
  140.4810   80.8750  223.4410 C   0  0  0  0  0  0  0  0  0  0  0  0
  139.9500   79.6310  222.7730 C   0  0  0  0  0  0  0  0  0  0  0  0
  138.7440   70.7600  223.4790 C   0  0  0  0  0  0  0  0  0  0  0  0
  138.5350   69.4140  223.4450 C   0  0  0  0  0  0  0  0  0  0  0  0
  139.0160   68.6750  224.5250 C   0  0  0  0  0  0  0  0  0  0  0  0
  139.6700   69.2740  225.5770 C   0  0  0  0  0  0  0  0  0  0  0  0
  140.1320   68.5090  226.6290 C   0  0  0  0  0  0  0  0  0  0  0  0
  140.7980   69.0980  227.7070 C   0  0  0  0  0  0  0  0  0  0  0  0
  141.3920   68.1430  229.0520 Cl  0  0  0  0  0  0  0  0  0  0  0  0
  140.9830   70.4830  227.6890 C   0  0  0  0  0  0  0  0  0  0  0  0
  140.5120   71.2060  226.6310 C   0  0  0  0  0  0  0  0  0  0  0  0
  139.8570   70.6360  225.5700 C   0  0  0  0  0  0  0  0  0  0  0  0
  139.3860   71.3230  224.5190 N   0  0  0  0  0  0  0  0  0  0  0  0
  139.2170   73.3640  223.1310 H   0  0  0  0  0  0  0  0  0  0  0  0
  138.4694   73.4382  220.3030 H   0  0  0  0  0  0  0  0  0  0  0  0
  137.0591   73.9353  221.3078 H   0  0  0  0  0  0  0  0  0  0  0  0
  141.2884   73.7140  220.6334 H   0  0  0  0  0  0  0  0  0  0  0  0
  140.3494   74.4145  219.2942 H   0  0  0  0  0  0  0  0  0  0  0  0
  142.2901   75.6443  218.7662 H   0  0  0  0  0  0  0  0  0  0  0  0
  143.2230   75.1660  221.4520 H   0  0  0  0  0  0  0  0  0  0  0  0
  142.6733   77.3978  220.8118 H   0  0  0  0  0  0  0  0  0  0  0  0
  141.1669   77.5269  219.9517 H   0  0  0  0  0  0  0  0  0  0  0  0
  141.7602   75.8876  222.5253 H   0  0  0  0  0  0  0  0  0  0  0  0
  139.3379   77.4301  222.2364 H   0  0  0  0  0  0  0  0  0  0  0  0
  140.4281   77.0185  223.6450 H   0  0  0  0  0  0  0  0  0  0  0  0
  141.5520   78.9266  224.5296 H   0  0  0  0  0  0  0  0  0  0  0  0
  142.6977   77.9700  223.5506 H   0  0  0  0  0  0  0  0  0  0  0  0
  143.3948   80.3802  224.0723 H   0  0  0  0  0  0  0  0  0  0  0  0
  143.4030   79.9004  222.3228 H   0  0  0  0  0  0  0  0  0  0  0  0
  142.2153   82.1701  223.3385 H   0  0  0  0  0  0  0  0  0  0  0  0
  141.7986   81.4053  221.7896 H   0  0  0  0  0  0  0  0  0  0  0  0
  140.5716   80.6948  224.5223 H   0  0  0  0  0  0  0  0  0  0  0  0
  139.7846   81.7053  223.2523 H   0  0  0  0  0  0  0  0  0  0  0  0
  139.1861   79.1790  223.4227 H   0  0  0  0  0  0  0  0  0  0  0  0
  139.5271   79.9248  221.8010 H   0  0  0  0  0  0  0  0  0  0  0  0
  138.0116   68.9333  222.6054 H   0  0  0  0  0  0  0  0  0  0  0  0
  138.8689   67.5849  224.5363 H   0  0  0  0  0  0  0  0  0  0  0  0
  139.9737   67.4205  226.6186 H   0  0  0  0  0  0  0  0  0  0  0  0
  141.5025   70.9853  228.5183 H   0  0  0  0  0  0  0  0  0  0  0  0
  140.6650   72.2953  226.6298 H   0  0  0  0  0  0  0  0  0  0  0  0
  1  2  2  0
  2  3  1  0
  3  4  1  0
  4  5  1  0
  5  6  2  0
  5  7  1  0
  7  8  1  0
  8  9  1  0
  9 10  1  0
  9 11  1  0
 11 12  1  0
 12 13  1  0
 13 14  1  0
 14 15  1  0
 15 16  1  0
 16 17  1  0
 17 18  1  0
 18 19  1  0
  2 20  1  0
 20 21  2  0
 21 22  1  0
 22 23  2  0
 23 24  1  0
 24 25  2  0
 25 26  1  0
 25 27  1  0
 27 28  2  0
 28 29  1  0
 29 30  2  0
 12  7  1  0
 19 14  1  0
 30 20  1  0
 29 23  1  0
  3 31  1  0
  4 32  1  0
  4 33  1  0
  8 34  1  0
  8 35  1  0
  9 36  1  6
 10 37  1  0
 11 38  1  0
 11 39  1  0
 12 40  1  1
 13 41  1  0
 13 42  1  0
 15 43  1  0
 15 44  1  0
 16 45  1  0
 16 46  1  0
 17 47  1  0
 17 48  1  0
 18 49  1  0
 18 50  1  0
 19 51  1  0
 19 52  1  0
 21 53  1  0
 22 54  1  0
 24 55  1  0
 27 56  1  0
 28 57  1  0
M  END
>  <smiles>  (10) 
O=C(NCC(=O)N1C[C@H](O)C[C@H]1CN1CCCCC1)c1ccc2cc(Cl)ccc2n1

>  <score_type>  (10) 
oracle

>  <origin>  (10) 
autodockgpu

>  <m_score__min__energy>  (10) 
-9.2599999999999998

>  <m_primary>  (10) 
energy

>  <rmsd>  (10) 
2.0443844542918344

>  <m_score__min__rmsd>  (10) 
2.0443844542918344

>  <meeko>  (10) 
{"free_energy": -8.4, "intermolecular_energy": -10.49, "internal_energy": -1.52, "cluster_size": 30, "cluster_id": 1, "rank_in_cluster": 16}

>  <energy>  (10) 
-8.52

>  <cluster_rmsd>  (10) 
1.09

>  <cluster>  (10) 
1

$$$$

     RDKit          3D

 57 60  0  0  0  0  0  0  0  0999 V2000
  139.3970   72.0270  220.6930 O   0  0  0  0  0  0  0  0  0  0  0  0
  139.5130   72.4150  221.9010 C   0  0  0  0  0  0  0  0  0  0  0  0
  139.4820   73.8150  222.1290 N   0  0  0  0  0  0  0  0  0  0  0  0
  139.3280   74.7780  221.0520 C   0  0  0  0  0  0  0  0  0  0  0  0
  140.4640   75.7330  221.0520 C   0  0  0  0  0  0  0  0  0  0  0  0
  140.9960   76.0170  222.1540 O   0  0  0  0  0  0  0  0  0  0  0  0
  140.8830   76.2730  219.8070 N   0  0  0  0  0  0  0  0  0  0  0  0
  140.0860   77.0580  218.8720 C   0  0  0  0  0  0  0  0  0  0  0  0
  141.0470   77.8860  218.0570 C   0  0  2  0  0  0  0  0  0  0  0  0
  141.1090   77.3420  216.7790 O   0  0  0  0  0  0  0  0  0  0  0  0
  142.3690   77.6170  218.7390 C   0  0  0  0  0  0  0  0  0  0  0  0
  142.1940   76.1800  219.1610 C   0  0  1  0  0  0  0  0  0  0  0  0
  143.2290   75.6620  220.0900 C   0  0  0  0  0  0  0  0  0  0  0  0
  143.5140   74.2530  219.9150 N   0  0  0  0  0  0  0  0  0  0  0  0
  142.7140   73.4140  220.7880 C   0  0  0  0  0  0  0  0  0  0  0  0
  142.8810   71.9800  220.3370 C   0  0  0  0  0  0  0  0  0  0  0  0
  144.3280   71.6330  220.0930 C   0  0  0  0  0  0  0  0  0  0  0  0
  145.1620   72.6780  220.8300 C   0  0  0  0  0  0  0  0  0  0  0  0
  144.9070   74.0520  220.2620 C   0  0  0  0  0  0  0  0  0  0  0  0
  139.6660   71.4540  222.9750 C   0  0  0  0  0  0  0  0  0  0  0  0
  139.3070   70.1490  222.8160 C   0  0  0  0  0  0  0  0  0  0  0  0
  139.4970   69.3060  223.9100 C   0  0  0  0  0  0  0  0  0  0  0  0
  140.0210   69.7670  225.0950 C   0  0  0  0  0  0  0  0  0  0  0  0
  140.1960   68.9020  226.1580 C   0  0  0  0  0  0  0  0  0  0  0  0
  140.7260   69.3500  227.3700 C   0  0  0  0  0  0  0  0  0  0  0  0
  140.9530   68.2660  228.7290 Cl  0  0  0  0  0  0  0  0  0  0  0  0
  141.0760   70.6990  227.4760 C   0  0  0  0  0  0  0  0  0  0  0  0
  140.8890   71.5230  226.4050 C   0  0  0  0  0  0  0  0  0  0  0  0
  140.3690   71.0920  225.2120 C   0  0  0  0  0  0  0  0  0  0  0  0
  140.1770   71.8810  224.1450 N   0  0  0  0  0  0  0  0  0  0  0  0
  139.5800   74.1170  223.1360 H   0  0  0  0  0  0  0  0  0  0  0  0
  139.3008   74.2457  220.0898 H   0  0  0  0  0  0  0  0  0  0  0  0
  138.3910   75.3349  221.1997 H   0  0  0  0  0  0  0  0  0  0  0  0
  139.5107   76.3905  218.2136 H   0  0  0  0  0  0  0  0  0  0  0  0
  139.3730   77.7009  219.4089 H   0  0  0  0  0  0  0  0  0  0  0  0
  140.7788   78.9506  217.9880 H   0  0  0  0  0  0  0  0  0  0  0  0
  140.9940   76.3380  216.8080 H   0  0  0  0  0  0  0  0  0  0  0  0
  143.2127   77.7327  218.0427 H   0  0  0  0  0  0  0  0  0  0  0  0
  142.5988   78.3054  219.5656 H   0  0  0  0  0  0  0  0  0  0  0  0
  142.2809   75.4708  218.3246 H   0  0  0  0  0  0  0  0  0  0  0  0
  144.1580   76.2275  219.9254 H   0  0  0  0  0  0  0  0  0  0  0  0
  142.8375   75.7870  221.1103 H   0  0  0  0  0  0  0  0  0  0  0  0
  143.0580   73.5212  221.8273 H   0  0  0  0  0  0  0  0  0  0  0  0
  141.6557   73.7100  220.7390 H   0  0  0  0  0  0  0  0  0  0  0  0
  142.4817   71.3134  221.1156 H   0  0  0  0  0  0  0  0  0  0  0  0
  142.3356   71.8544  219.3900 H   0  0  0  0  0  0  0  0  0  0  0  0
  144.5478   70.6286  220.4839 H   0  0  0  0  0  0  0  0  0  0  0  0
  144.5577   71.6314  219.0173 H   0  0  0  0  0  0  0  0  0  0  0  0
  144.8917   72.6709  221.8963 H   0  0  0  0  0  0  0  0  0  0  0  0
  146.2277   72.4341  220.7080 H   0  0  0  0  0  0  0  0  0  0  0  0
  145.1973   74.8039  221.0106 H   0  0  0  0  0  0  0  0  0  0  0  0
  145.5013   74.1518  219.3417 H   0  0  0  0  0  0  0  0  0  0  0  0
  138.8872   69.7783  221.8692 H   0  0  0  0  0  0  0  0  0  0  0  0
  139.2207   68.2448  223.8231 H   0  0  0  0  0  0  0  0  0  0  0  0
  139.9136   67.8446  226.0481 H   0  0  0  0  0  0  0  0  0  0  0  0
  141.4977   71.0920  228.4129 H   0  0  0  0  0  0  0  0  0  0  0  0
  141.1684   72.5824  226.5032 H   0  0  0  0  0  0  0  0  0  0  0  0
  1  2  2  0
  2  3  1  0
  3  4  1  0
  4  5  1  0
  5  6  2  0
  5  7  1  0
  7  8  1  0
  8  9  1  0
  9 10  1  0
  9 11  1  0
 11 12  1  0
 12 13  1  0
 13 14  1  0
 14 15  1  0
 15 16  1  0
 16 17  1  0
 17 18  1  0
 18 19  1  0
  2 20  1  0
 20 21  2  0
 21 22  1  0
 22 23  2  0
 23 24  1  0
 24 25  2  0
 25 26  1  0
 25 27  1  0
 27 28  2  0
 28 29  1  0
 29 30  2  0
 12  7  1  0
 19 14  1  0
 30 20  1  0
 29 23  1  0
  3 31  1  0
  4 32  1  0
  4 33  1  0
  8 34  1  0
  8 35  1  0
  9 36  1  6
 10 37  1  0
 11 38  1  0
 11 39  1  0
 12 40  1  6
 13 41  1  0
 13 42  1  0
 15 43  1  0
 15 44  1  0
 16 45  1  0
 16 46  1  0
 17 47  1  0
 17 48  1  0
 18 49  1  0
 18 50  1  0
 19 51  1  0
 19 52  1  0
 21 53  1  0
 22 54  1  0
 24 55  1  0
 27 56  1  0
 28 57  1  0
M  END
>  <smiles>  (11) 
O=C(NCC(=O)N1C[C@H](O)C[C@H]1CN1CCCCC1)c1ccc2cc(Cl)ccc2n1

>  <score_type>  (11) 
oracle

>  <origin>  (11) 
autodockgpu

>  <m_score__min__energy>  (11) 
-9.2599999999999998

>  <m_primary>  (11) 
energy

>  <rmsd>  (11) 
4.372758996886239

>  <m_score__min__rmsd>  (11) 
4.372758996886239

>  <meeko>  (11) 
{"free_energy": -7.19, "intermolecular_energy": -9.28, "internal_energy": -2.28, "cluster_size": 3, "cluster_id": 5, "rank_in_cluster": 3}

>  <energy>  (11) 
-8.51

>  <cluster_rmsd>  (11) 
1.26

>  <cluster>  (11) 
1

$$$$

     RDKit          3D

 57 60  0  0  0  0  0  0  0  0999 V2000
  142.4920   79.8610  218.4580 O   0  0  0  0  0  0  0  0  0  0  0  0
  141.8840   78.7750  218.7340 C   0  0  0  0  0  0  0  0  0  0  0  0
  140.5880   78.8930  219.2990 N   0  0  0  0  0  0  0  0  0  0  0  0
  139.9650   80.1790  219.5600 C   0  0  0  0  0  0  0  0  0  0  0  0
  139.8750   80.4180  221.0220 C   0  0  0  0  0  0  0  0  0  0  0  0
  138.7780   80.8120  221.4900 O   0  0  0  0  0  0  0  0  0  0  0  0
  141.0360   80.1900  221.8080 N   0  0  0  0  0  0  0  0  0  0  0  0
  142.1140   81.1310  222.0860 C   0  0  0  0  0  0  0  0  0  0  0  0
  142.7600   80.6970  223.3780 C   0  0  2  0  0  0  0  0  0  0  0  0
  143.9960   80.1360  223.0750 O   0  0  0  0  0  0  0  0  0  0  0  0
  141.8470   79.5850  223.8400 C   0  0  0  0  0  0  0  0  0  0  0  0
  141.4350   78.9760  222.5250 C   0  0  1  0  0  0  0  0  0  0  0  0
  140.3260   77.9940  222.6010 C   0  0  0  0  0  0  0  0  0  0  0  0
  140.2960   77.0630  221.4920 N   0  0  0  0  0  0  0  0  0  0  0  0
  138.9480   76.6480  221.1540 C   0  0  0  0  0  0  0  0  0  0  0  0
  139.0030   75.9140  219.8320 C   0  0  0  0  0  0  0  0  0  0  0  0
  140.1230   74.9050  219.7970 C   0  0  0  0  0  0  0  0  0  0  0  0
  140.5130   74.6290  221.2470 C   0  0  0  0  0  0  0  0  0  0  0  0
  141.0330   75.8850  221.9020 C   0  0  0  0  0  0  0  0  0  0  0  0
  142.5060   77.4920  218.4730 C   0  0  0  0  0  0  0  0  0  0  0  0
  142.6650   77.0260  217.2020 C   0  0  0  0  0  0  0  0  0  0  0  0
  143.2770   75.7820  217.0600 C   0  0  0  0  0  0  0  0  0  0  0  0
  143.7010   75.0560  218.1490 C   0  0  0  0  0  0  0  0  0  0  0  0
  144.3040   73.8270  217.9690 C   0  0  0  0  0  0  0  0  0  0  0  0
  144.7410   73.0740  219.0610 C   0  0  0  0  0  0  0  0  0  0  0  0
  145.5080   71.5120  218.8520 Cl  0  0  0  0  0  0  0  0  0  0  0  0
  144.5520   73.6010  220.3410 C   0  0  0  0  0  0  0  0  0  0  0  0
  143.9520   74.8200  220.4800 C   0  0  0  0  0  0  0  0  0  0  0  0
  143.5200   75.5640  219.4130 C   0  0  0  0  0  0  0  0  0  0  0  0
  142.9300   76.7630  219.5230 N   0  0  0  0  0  0  0  0  0  0  0  0
  140.1010   77.9830  219.5210 H   0  0  0  0  0  0  0  0  0  0  0  0
  140.5676   80.9750  219.0982 H   0  0  0  0  0  0  0  0  0  0  0  0
  138.9511   80.1797  219.1333 H   0  0  0  0  0  0  0  0  0  0  0  0
  142.8516   81.1114  221.2702 H   0  0  0  0  0  0  0  0  0  0  0  0
  141.7263   82.1572  222.1677 H   0  0  0  0  0  0  0  0  0  0  0  0
  142.8968   81.5071  224.1094 H   0  0  0  0  0  0  0  0  0  0  0  0
  143.9400   79.5710  222.2370 H   0  0  0  0  0  0  0  0  0  0  0  0
  142.3828   78.8594  224.4696 H   0  0  0  0  0  0  0  0  0  0  0  0
  141.0059   79.9224  224.4635 H   0  0  0  0  0  0  0  0  0  0  0  0
  142.2281   78.3697  222.0631 H   0  0  0  0  0  0  0  0  0  0  0  0
  140.4334   77.4202  223.5333 H   0  0  0  0  0  0  0  0  0  0  0  0
  139.3871   78.5660  222.5661 H   0  0  0  0  0  0  0  0  0  0  0  0
  138.5557   75.9807  221.9356 H   0  0  0  0  0  0  0  0  0  0  0  0
  138.2861   77.5233  221.0781 H   0  0  0  0  0  0  0  0  0  0  0  0
  138.0480   75.3912  219.6752 H   0  0  0  0  0  0  0  0  0  0  0  0
  139.1845   76.6534  219.0381 H   0  0  0  0  0  0  0  0  0  0  0  0
  139.7823   73.9776  219.3133 H   0  0  0  0  0  0  0  0  0  0  0  0
  140.9805   75.2866  219.2233 H   0  0  0  0  0  0  0  0  0  0  0  0
  139.6302   74.2722  221.7978 H   0  0  0  0  0  0  0  0  0  0  0  0
  141.3042   73.8650  221.2636 H   0  0  0  0  0  0  0  0  0  0  0  0
  140.9481   75.7763  222.9933 H   0  0  0  0  0  0  0  0  0  0  0  0
  142.0802   76.0179  221.5925 H   0  0  0  0  0  0  0  0  0  0  0  0
  142.3263   77.6044  216.3298 H   0  0  0  0  0  0  0  0  0  0  0  0
  143.4249   75.3698  216.0509 H   0  0  0  0  0  0  0  0  0  0  0  0
  144.4422   73.4352  216.9505 H   0  0  0  0  0  0  0  0  0  0  0  0
  144.8829   73.0401  221.2275 H   0  0  0  0  0  0  0  0  0  0  0  0
  143.8090   75.2227  221.4936 H   0  0  0  0  0  0  0  0  0  0  0  0
  1  2  2  0
  2  3  1  0
  3  4  1  0
  4  5  1  0
  5  6  2  0
  5  7  1  0
  7  8  1  0
  8  9  1  0
  9 10  1  0
  9 11  1  0
 11 12  1  0
 12 13  1  0
 13 14  1  0
 14 15  1  0
 15 16  1  0
 16 17  1  0
 17 18  1  0
 18 19  1  0
  2 20  1  0
 20 21  2  0
 21 22  1  0
 22 23  2  0
 23 24  1  0
 24 25  2  0
 25 26  1  0
 25 27  1  0
 27 28  2  0
 28 29  1  0
 29 30  2  0
 12  7  1  0
 19 14  1  0
 30 20  1  0
 29 23  1  0
  3 31  1  0
  4 32  1  0
  4 33  1  0
  8 34  1  0
  8 35  1  0
  9 36  1  1
 10 37  1  0
 11 38  1  0
 11 39  1  0
 12 40  1  6
 13 41  1  0
 13 42  1  0
 15 43  1  0
 15 44  1  0
 16 45  1  0
 16 46  1  0
 17 47  1  0
 17 48  1  0
 18 49  1  0
 18 50  1  0
 19 51  1  0
 19 52  1  0
 21 53  1  0
 22 54  1  0
 24 55  1  0
 27 56  1  0
 28 57  1  0
M  END
>  <smiles>  (12) 
O=C(NCC(=O)N1C[C@H](O)C[C@H]1CN1CCCCC1)c1ccc2cc(Cl)ccc2n1

>  <score_type>  (12) 
oracle

>  <origin>  (12) 
autodockgpu

>  <m_score__min__energy>  (12) 
-9.2599999999999998

>  <m_primary>  (12) 
energy

>  <rmsd>  (12) 
7.961420860846446

>  <m_score__min__rmsd>  (12) 
7.961420860846446

>  <meeko>  (12) 
{"free_energy": -5.79, "intermolecular_energy": -7.88, "internal_energy": -3.67, "cluster_size": 2, "cluster_id": 11, "rank_in_cluster": 1}

>  <energy>  (12) 
-8.51

>  <cluster_rmsd>  (12) 
1.12

>  <cluster>  (12) 
1

$$$$

     RDKit          3D

 57 60  0  0  0  0  0  0  0  0999 V2000
  140.8080   72.8620  221.1840 O   0  0  0  0  0  0  0  0  0  0  0  0
  140.0040   72.8950  222.1720 C   0  0  0  0  0  0  0  0  0  0  0  0
  139.1080   73.9930  222.2310 N   0  0  0  0  0  0  0  0  0  0  0  0
  139.0890   75.0410  221.2250 C   0  0  0  0  0  0  0  0  0  0  0  0
  139.9560   76.1700  221.6440 C   0  0  0  0  0  0  0  0  0  0  0  0
  139.5780   76.8770  222.6100 O   0  0  0  0  0  0  0  0  0  0  0  0
  141.1620   76.3880  220.9260 N   0  0  0  0  0  0  0  0  0  0  0  0
  142.1110   75.3810  220.4660 C   0  0  0  0  0  0  0  0  0  0  0  0
  142.8520   75.9720  219.2940 C   0  0  2  0  0  0  0  0  0  0  0  0
  144.1420   76.2820  219.7110 O   0  0  0  0  0  0  0  0  0  0  0  0
  142.1150   77.2720  219.0650 C   0  0  0  0  0  0  0  0  0  0  0  0
  141.7460   77.6530  220.4750 C   0  0  1  0  0  0  0  0  0  0  0  0
  140.7840   78.7770  220.5970 C   0  0  0  0  0  0  0  0  0  0  0  0
  141.1610   79.7590  221.5930 N   0  0  0  0  0  0  0  0  0  0  0  0
  142.2430   79.2990  222.4430 C   0  0  0  0  0  0  0  0  0  0  0  0
  142.7400   80.4810  223.2460 C   0  0  0  0  0  0  0  0  0  0  0  0
  141.6030   81.2660  223.8500 C   0  0  0  0  0  0  0  0  0  0  0  0
  140.3820   80.3490  223.8460 C   0  0  0  0  0  0  0  0  0  0  0  0
  140.0020   79.9820  222.4340 C   0  0  0  0  0  0  0  0  0  0  0  0
  140.0230   71.8500  223.1760 C   0  0  0  0  0  0  0  0  0  0  0  0
  139.5510   70.6000  222.9080 C   0  0  0  0  0  0  0  0  0  0  0  0
  139.6160   69.6670  223.9420 C   0  0  0  0  0  0  0  0  0  0  0  0
  140.1320   69.9910  225.1760 C   0  0  0  0  0  0  0  0  0  0  0  0
  140.1800   69.0390  226.1750 C   0  0  0  0  0  0  0  0  0  0  0  0
  140.6990   69.3470  227.4350 C   0  0  0  0  0  0  0  0  0  0  0  0
  140.7680   68.1530  228.7170 Cl  0  0  0  0  0  0  0  0  0  0  0  0
  141.1680   70.6450  227.6540 C   0  0  0  0  0  0  0  0  0  0  0  0
  141.1040   71.5580  226.6410 C   0  0  0  0  0  0  0  0  0  0  0  0
  140.5960   71.2640  225.4030 C   0  0  0  0  0  0  0  0  0  0  0  0
  140.5220   72.1420  224.3920 N   0  0  0  0  0  0  0  0  0  0  0  0
  138.4510   74.0040  223.0580 H   0  0  0  0  0  0  0  0  0  0  0  0
  139.4566   74.6354  220.2709 H   0  0  0  0  0  0  0  0  0  0  0  0
  138.0580   75.4054  221.1061 H   0  0  0  0  0  0  0  0  0  0  0  0
  142.8170   75.1320  221.2719 H   0  0  0  0  0  0  0  0  0  0  0  0
  141.5903   74.4571  220.1741 H   0  0  0  0  0  0  0  0  0  0  0  0
  142.9010   75.3149  218.4132 H   0  0  0  0  0  0  0  0  0  0  0  0
  144.1290   77.0170  220.4050 H   0  0  0  0  0  0  0  0  0  0  0  0
  142.7657   78.0276  218.6007 H   0  0  0  0  0  0  0  0  0  0  0  0
  141.2575   77.1898  218.3810 H   0  0  0  0  0  0  0  0  0  0  0  0
  142.5986   78.0353  221.0554 H   0  0  0  0  0  0  0  0  0  0  0  0
  140.7127   79.2808  219.6218 H   0  0  0  0  0  0  0  0  0  0  0  0
  139.8239   78.3459  220.9171 H   0  0  0  0  0  0  0  0  0  0  0  0
  141.8773   78.5140  223.1212 H   0  0  0  0  0  0  0  0  0  0  0  0
  143.0575   78.8811  221.8331 H   0  0  0  0  0  0  0  0  0  0  0  0
  143.3887   80.1142  224.0551 H   0  0  0  0  0  0  0  0  0  0  0  0
  143.2926   81.1472  222.5672 H   0  0  0  0  0  0  0  0  0  0  0  0
  141.8517   81.5608  224.8802 H   0  0  0  0  0  0  0  0  0  0  0  0
  141.4088   82.1841  223.2761 H   0  0  0  0  0  0  0  0  0  0  0  0
  140.6157   79.4326  224.4078 H   0  0  0  0  0  0  0  0  0  0  0  0
  139.5389   80.8770  224.3155 H   0  0  0  0  0  0  0  0  0  0  0  0
  139.3997   79.0619  222.4575 H   0  0  0  0  0  0  0  0  0  0  0  0
  139.4344   80.8229  222.0088 H   0  0  0  0  0  0  0  0  0  0  0  0
  139.1381   70.3394  221.9223 H   0  0  0  0  0  0  0  0  0  0  0  0
  139.2455   68.6462  223.7671 H   0  0  0  0  0  0  0  0  0  0  0  0
  139.8045   68.0244  225.9761 H   0  0  0  0  0  0  0  0  0  0  0  0
  141.5843   70.9281  228.6321 H   0  0  0  0  0  0  0  0  0  0  0  0
  141.4772   72.5759  226.8272 H   0  0  0  0  0  0  0  0  0  0  0  0
  1  2  2  0
  2  3  1  0
  3  4  1  0
  4  5  1  0
  5  6  2  0
  5  7  1  0
  7  8  1  0
  8  9  1  0
  9 10  1  0
  9 11  1  0
 11 12  1  0
 12 13  1  0
 13 14  1  0
 14 15  1  0
 15 16  1  0
 16 17  1  0
 17 18  1  0
 18 19  1  0
  2 20  1  0
 20 21  2  0
 21 22  1  0
 22 23  2  0
 23 24  1  0
 24 25  2  0
 25 26  1  0
 25 27  1  0
 27 28  2  0
 28 29  1  0
 29 30  2  0
 12  7  1  0
 19 14  1  0
 30 20  1  0
 29 23  1  0
  3 31  1  0
  4 32  1  0
  4 33  1  0
  8 34  1  0
  8 35  1  0
  9 36  1  6
 10 37  1  0
 11 38  1  0
 11 39  1  0
 12 40  1  1
 13 41  1  0
 13 42  1  0
 15 43  1  0
 15 44  1  0
 16 45  1  0
 16 46  1  0
 17 47  1  0
 17 48  1  0
 18 49  1  0
 18 50  1  0
 19 51  1  0
 19 52  1  0
 21 53  1  0
 22 54  1  0
 24 55  1  0
 27 56  1  0
 28 57  1  0
M  END
>  <smiles>  (13) 
O=C(NCC(=O)N1C[C@H](O)C[C@H]1CN1CCCCC1)c1ccc2cc(Cl)ccc2n1

>  <score_type>  (13) 
oracle

>  <origin>  (13) 
autodockgpu

>  <m_score__min__energy>  (13) 
-9.2599999999999998

>  <m_primary>  (13) 
energy

>  <rmsd>  (13) 
2.383709409664618

>  <m_score__min__rmsd>  (13) 
2.383709409664618

>  <meeko>  (13) 
{"free_energy": -9.06, "intermolecular_energy": -11.15, "internal_energy": -1.58, "cluster_size": 30, "cluster_id": 1, "rank_in_cluster": 4}

>  <energy>  (13) 
-8.47

>  <cluster_rmsd>  (13) 
1.14

>  <cluster>  (13) 
1

$$$$

     RDKit          3D

 57 60  0  0  0  0  0  0  0  0999 V2000
  139.8500   72.0690  220.4590 O   0  0  0  0  0  0  0  0  0  0  0  0
  140.2740   72.4080  221.6120 C   0  0  0  0  0  0  0  0  0  0  0  0
  140.8620   73.6940  221.7250 N   0  0  0  0  0  0  0  0  0  0  0  0
  140.9840   74.5980  220.5940 C   0  0  0  0  0  0  0  0  0  0  0  0
  141.2520   75.9790  221.0680 C   0  0  0  0  0  0  0  0  0  0  0  0
  141.0920   76.2250  222.2890 O   0  0  0  0  0  0  0  0  0  0  0  0
  141.6710   76.9430  220.1130 N   0  0  0  0  0  0  0  0  0  0  0  0
  142.5250   76.7230  218.9510 C   0  0  0  0  0  0  0  0  0  0  0  0
  142.2050   77.8080  217.9540 C   0  0  2  0  0  0  0  0  0  0  0  0
  143.2640   78.7080  217.9420 O   0  0  0  0  0  0  0  0  0  0  0  0
  141.0190   78.4960  218.5910 C   0  0  0  0  0  0  0  0  0  0  0  0
  141.3580   78.3730  220.0540 C   0  0  1  0  0  0  0  0  0  0  0  0
  140.2660   78.7350  220.9910 C   0  0  0  0  0  0  0  0  0  0  0  0
  140.6490   79.7270  221.9740 N   0  0  0  0  0  0  0  0  0  0  0  0
  141.6770   80.6260  221.4830 C   0  0  0  0  0  0  0  0  0  0  0  0
  141.8010   81.7730  222.4620 C   0  0  0  0  0  0  0  0  0  0  0  0
  141.8560   81.2890  223.8880 C   0  0  0  0  0  0  0  0  0  0  0  0
  142.2450   79.8130  223.8390 C   0  0  0  0  0  0  0  0  0  0  0  0
  141.1910   79.0140  223.1130 C   0  0  0  0  0  0  0  0  0  0  0  0
  140.1520   71.5060  222.7400 C   0  0  0  0  0  0  0  0  0  0  0  0
  139.5530   70.2890  222.6130 C   0  0  0  0  0  0  0  0  0  0  0  0
  139.4880   69.4960  223.7590 C   0  0  0  0  0  0  0  0  0  0  0  0
  140.0030   69.9210  224.9610 C   0  0  0  0  0  0  0  0  0  0  0  0
  139.9210   69.1080  226.0740 C   0  0  0  0  0  0  0  0  0  0  0  0
  140.4370   69.5200  227.3050 C   0  0  0  0  0  0  0  0  0  0  0  0
  140.3410   68.5020  228.7290 Cl  0  0  0  0  0  0  0  0  0  0  0  0
  141.0400   70.7790  227.3770 C   0  0  0  0  0  0  0  0  0  0  0  0
  141.1030   71.5540  226.2550 C   0  0  0  0  0  0  0  0  0  0  0  0
  140.5980   71.1570  225.0440 C   0  0  0  0  0  0  0  0  0  0  0  0
  140.6490   71.8990  223.9280 N   0  0  0  0  0  0  0  0  0  0  0  0
  141.2080   73.9560  222.6870 H   0  0  0  0  0  0  0  0  0  0  0  0
  141.8135   74.2668  219.9520 H   0  0  0  0  0  0  0  0  0  0  0  0
  140.0425   74.5902  220.0251 H   0  0  0  0  0  0  0  0  0  0  0  0
  143.5836   76.7804  219.2444 H   0  0  0  0  0  0  0  0  0  0  0  0
  142.3473   75.7279  218.5173 H   0  0  0  0  0  0  0  0  0  0  0  0
  142.0245   77.4434  216.9320 H   0  0  0  0  0  0  0  0  0  0  0  0
  143.5720   78.8900  216.9960 H   0  0  0  0  0  0  0  0  0  0  0  0
  140.9497   79.5491  218.2807 H   0  0  0  0  0  0  0  0  0  0  0  0
  140.0457   78.0635  218.3159 H   0  0  0  0  0  0  0  0  0  0  0  0
  142.1523   79.0644  220.3720 H   0  0  0  0  0  0  0  0  0  0  0  0
  139.4236   79.1327  220.4059 H   0  0  0  0  0  0  0  0  0  0  0  0
  139.9989   77.8215  221.5425 H   0  0  0  0  0  0  0  0  0  0  0  0
  142.6360   80.0922  221.4099 H   0  0  0  0  0  0  0  0  0  0  0  0
  141.4103   81.0027  220.4845 H   0  0  0  0  0  0  0  0  0  0  0  0
  142.7218   82.3323  222.2402 H   0  0  0  0  0  0  0  0  0  0  0  0
  140.9131   82.4131  222.3525 H   0  0  0  0  0  0  0  0  0  0  0  0
  142.6076   81.8600  224.4529 H   0  0  0  0  0  0  0  0  0  0  0  0
  140.8858   81.4248  224.3883 H   0  0  0  0  0  0  0  0  0  0  0  0
  143.2052   79.7087  223.3126 H   0  0  0  0  0  0  0  0  0  0  0  0
  142.3341   79.4336  224.8677 H   0  0  0  0  0  0  0  0  0  0  0  0
  141.6399   78.0735  222.7609 H   0  0  0  0  0  0  0  0  0  0  0  0
  140.3664   78.8264  223.8165 H   0  0  0  0  0  0  0  0  0  0  0  0
  139.1401   69.9477  221.6523 H   0  0  0  0  0  0  0  0  0  0  0  0
  139.0128   68.5057  223.6995 H   0  0  0  0  0  0  0  0  0  0  0  0
  139.4422   68.1212  225.9901 H   0  0  0  0  0  0  0  0  0  0  0  0
  141.4591   71.1413  228.3273 H   0  0  0  0  0  0  0  0  0  0  0  0
  141.5808   72.5423  226.3259 H   0  0  0  0  0  0  0  0  0  0  0  0
  1  2  2  0
  2  3  1  0
  3  4  1  0
  4  5  1  0
  5  6  2  0
  5  7  1  0
  7  8  1  0
  8  9  1  0
  9 10  1  0
  9 11  1  0
 11 12  1  0
 12 13  1  0
 13 14  1  0
 14 15  1  0
 15 16  1  0
 16 17  1  0
 17 18  1  0
 18 19  1  0
  2 20  1  0
 20 21  2  0
 21 22  1  0
 22 23  2  0
 23 24  1  0
 24 25  2  0
 25 26  1  0
 25 27  1  0
 27 28  2  0
 28 29  1  0
 29 30  2  0
 12  7  1  0
 19 14  1  0
 30 20  1  0
 29 23  1  0
  3 31  1  0
  4 32  1  0
  4 33  1  0
  8 34  1  0
  8 35  1  0
  9 36  1  6
 10 37  1  0
 11 38  1  0
 11 39  1  0
 12 40  1  1
 13 41  1  0
 13 42  1  0
 15 43  1  0
 15 44  1  0
 16 45  1  0
 16 46  1  0
 17 47  1  0
 17 48  1  0
 18 49  1  0
 18 50  1  0
 19 51  1  0
 19 52  1  0
 21 53  1  0
 22 54  1  0
 24 55  1  0
 27 56  1  0
 28 57  1  0
M  END
>  <smiles>  (14) 
O=C(NCC(=O)N1C[C@H](O)C[C@H]1CN1CCCCC1)c1ccc2cc(Cl)ccc2n1

>  <score_type>  (14) 
oracle

>  <origin>  (14) 
autodockgpu

>  <m_score__min__energy>  (14) 
-9.2599999999999998

>  <m_primary>  (14) 
energy

>  <rmsd>  (14) 
2.5975772606829617

>  <m_score__min__rmsd>  (14) 
2.5975772606829617

>  <meeko>  (14) 
{"free_energy": -8.17, "intermolecular_energy": -10.26, "internal_energy": -2.09, "cluster_size": 30, "cluster_id": 1, "rank_in_cluster": 21}

>  <energy>  (14) 
-8.46

>  <cluster_rmsd>  (14) 
1.53

>  <cluster>  (14) 
1

$$$$

     RDKit          3D

 57 60  0  0  0  0  0  0  0  0999 V2000
  139.6950   72.0550  220.6470 O   0  0  0  0  0  0  0  0  0  0  0  0
  139.7300   72.4450  221.8600 C   0  0  0  0  0  0  0  0  0  0  0  0
  139.7150   73.8460  222.0810 N   0  0  0  0  0  0  0  0  0  0  0  0
  139.6620   74.8080  220.9940 C   0  0  0  0  0  0  0  0  0  0  0  0
  140.6800   75.8680  221.1970 C   0  0  0  0  0  0  0  0  0  0  0  0
  141.0350   76.1280  222.3730 O   0  0  0  0  0  0  0  0  0  0  0  0
  141.1930   76.5290  220.0490 N   0  0  0  0  0  0  0  0  0  0  0  0
  141.3080   77.9670  219.8350 C   0  0  0  0  0  0  0  0  0  0  0  0
  142.4070   78.1790  218.8240 C   0  0  2  0  0  0  0  0  0  0  0  0
  141.8180   78.5470  217.6190 O   0  0  0  0  0  0  0  0  0  0  0  0
  142.9690   76.7860  218.6580 C   0  0  0  0  0  0  0  0  0  0  0  0
  141.7280   75.9460  218.8160 C   0  0  1  0  0  0  0  0  0  0  0  0
  141.9620   74.4880  218.9540 C   0  0  0  0  0  0  0  0  0  0  0  0
  143.1030   74.1580  219.7830 N   0  0  0  0  0  0  0  0  0  0  0  0
  144.2780   73.8250  219.0000 C   0  0  0  0  0  0  0  0  0  0  0  0
  145.4640   73.7730  219.9380 C   0  0  0  0  0  0  0  0  0  0  0  0
  145.1570   72.9890  221.1880 C   0  0  0  0  0  0  0  0  0  0  0  0
  143.9370   72.1240  220.8780 C   0  0  0  0  0  0  0  0  0  0  0  0
  142.7430   72.9900  220.5620 C   0  0  0  0  0  0  0  0  0  0  0  0
  139.7830   71.4850  222.9440 C   0  0  0  0  0  0  0  0  0  0  0  0
  139.3190   70.2140  222.7900 C   0  0  0  0  0  0  0  0  0  0  0  0
  139.4170   69.3690  223.8940 C   0  0  0  0  0  0  0  0  0  0  0  0
  139.9580   69.7960  225.0850 C   0  0  0  0  0  0  0  0  0  0  0  0
  140.0390   68.9290  226.1570 C   0  0  0  0  0  0  0  0  0  0  0  0
  140.5840   69.3430  227.3750 C   0  0  0  0  0  0  0  0  0  0  0  0
  140.6960   68.2580  228.7470 Cl  0  0  0  0  0  0  0  0  0  0  0  0
  141.0450   70.6580  227.4770 C   0  0  0  0  0  0  0  0  0  0  0  0
  140.9470   71.4850  226.3950 C   0  0  0  0  0  0  0  0  0  0  0  0
  140.4140   71.0870  225.1970 C   0  0  0  0  0  0  0  0  0  0  0  0
  140.3080   71.8800  224.1200 N   0  0  0  0  0  0  0  0  0  0  0  0
  139.7450   74.1500  223.0920 H   0  0  0  0  0  0  0  0  0  0  0  0
  139.8593   74.2923  220.0426 H   0  0  0  0  0  0  0  0  0  0  0  0
  138.6636   75.2692  220.9716 H   0  0  0  0  0  0  0  0  0  0  0  0
  140.3588   78.3682  219.4501 H   0  0  0  0  0  0  0  0  0  0  0  0
  141.5379   78.4857  220.7774 H   0  0  0  0  0  0  0  0  0  0  0  0
  143.1488   78.9374  219.1149 H   0  0  0  0  0  0  0  0  0  0  0  0
  140.8630   78.8460  217.7610 H   0  0  0  0  0  0  0  0  0  0  0  0
  143.4231   76.6507  217.6653 H   0  0  0  0  0  0  0  0  0  0  0  0
  143.7740   76.5378  219.3654 H   0  0  0  0  0  0  0  0  0  0  0  0
  141.0725   75.9755  217.9332 H   0  0  0  0  0  0  0  0  0  0  0  0
  141.0653   74.0329  219.3999 H   0  0  0  0  0  0  0  0  0  0  0  0
  142.1728   74.0992  217.9468 H   0  0  0  0  0  0  0  0  0  0  0  0
  144.1402   72.8461  218.5175 H   0  0  0  0  0  0  0  0  0  0  0  0
  144.4424   74.5796  218.2168 H   0  0  0  0  0  0  0  0  0  0  0  0
  146.3083   73.2970  219.4179 H   0  0  0  0  0  0  0  0  0  0  0  0
  145.7108   74.8034  220.2335 H   0  0  0  0  0  0  0  0  0  0  0  0
  146.0137   72.3532  221.4562 H   0  0  0  0  0  0  0  0  0  0  0  0
  144.9593   73.6606  222.0365 H   0  0  0  0  0  0  0  0  0  0  0  0
  144.1584   71.4825  220.0123 H   0  0  0  0  0  0  0  0  0  0  0  0
  143.7057   71.5060  221.7581 H   0  0  0  0  0  0  0  0  0  0  0  0
  142.0150   72.3946  219.9915 H   0  0  0  0  0  0  0  0  0  0  0  0
  142.3175   73.3383  221.5147 H   0  0  0  0  0  0  0  0  0  0  0  0
  138.8870   69.8703  221.8386 H   0  0  0  0  0  0  0  0  0  0  0  0
  139.0526   68.3344  223.8111 H   0  0  0  0  0  0  0  0  0  0  0  0
  139.6694   67.8985  226.0504 H   0  0  0  0  0  0  0  0  0  0  0  0
  141.4819   71.0229  228.4183 H   0  0  0  0  0  0  0  0  0  0  0  0
  141.3127   72.5181  226.4893 H   0  0  0  0  0  0  0  0  0  0  0  0
  1  2  2  0
  2  3  1  0
  3  4  1  0
  4  5  1  0
  5  6  2  0
  5  7  1  0
  7  8  1  0
  8  9  1  0
  9 10  1  0
  9 11  1  0
 11 12  1  0
 12 13  1  0
 13 14  1  0
 14 15  1  0
 15 16  1  0
 16 17  1  0
 17 18  1  0
 18 19  1  0
  2 20  1  0
 20 21  2  0
 21 22  1  0
 22 23  2  0
 23 24  1  0
 24 25  2  0
 25 26  1  0
 25 27  1  0
 27 28  2  0
 28 29  1  0
 29 30  2  0
 12  7  1  0
 19 14  1  0
 30 20  1  0
 29 23  1  0
  3 31  1  0
  4 32  1  0
  4 33  1  0
  8 34  1  0
  8 35  1  0
  9 36  1  1
 10 37  1  0
 11 38  1  0
 11 39  1  0
 12 40  1  6
 13 41  1  0
 13 42  1  0
 15 43  1  0
 15 44  1  0
 16 45  1  0
 16 46  1  0
 17 47  1  0
 17 48  1  0
 18 49  1  0
 18 50  1  0
 19 51  1  0
 19 52  1  0
 21 53  1  0
 22 54  1  0
 24 55  1  0
 27 56  1  0
 28 57  1  0
M  END
>  <smiles>  (15) 
O=C(NCC(=O)N1C[C@H](O)C[C@H]1CN1CCCCC1)c1ccc2cc(Cl)ccc2n1

>  <score_type>  (15) 
oracle

>  <origin>  (15) 
autodockgpu

>  <m_score__min__energy>  (15) 
-9.2599999999999998

>  <m_primary>  (15) 
energy

>  <rmsd>  (15) 
4.6116431123432156

>  <m_score__min__rmsd>  (15) 
4.6116431123432156

>  <meeko>  (15) 
{"free_energy": -7.22, "intermolecular_energy": -9.31, "internal_energy": -2.35, "cluster_size": 3, "cluster_id": 5, "rank_in_cluster": 2}

>  <energy>  (15) 
-8.43

>  <cluster_rmsd>  (15) 
1.52

>  <cluster>  (15) 
1

$$$$

     RDKit          3D

 57 60  0  0  0  0  0  0  0  0999 V2000
  140.3560   72.4130  220.5940 O   0  0  0  0  0  0  0  0  0  0  0  0
  140.0600   72.7870  221.7760 C   0  0  0  0  0  0  0  0  0  0  0  0
  139.8090   74.1700  221.9650 N   0  0  0  0  0  0  0  0  0  0  0  0
  139.8820   75.1330  220.8790 C   0  0  0  0  0  0  0  0  0  0  0  0
  140.8910   76.1770  221.1850 C   0  0  0  0  0  0  0  0  0  0  0  0
  141.1610   76.4000  222.3910 O   0  0  0  0  0  0  0  0  0  0  0  0
  141.4910   76.8640  220.0980 N   0  0  0  0  0  0  0  0  0  0  0  0
  142.2020   76.2800  218.9660 C   0  0  0  0  0  0  0  0  0  0  0  0
  142.1160   77.2680  217.8300 C   0  0  2  0  0  0  0  0  0  0  0  0
  143.3670   77.8560  217.6750 O   0  0  0  0  0  0  0  0  0  0  0  0
  141.1770   78.3160  218.3800 C   0  0  0  0  0  0  0  0  0  0  0  0
  141.5470   78.3060  219.8410 C   0  0  1  0  0  0  0  0  0  0  0  0
  140.6310   79.0580  220.7330 C   0  0  0  0  0  0  0  0  0  0  0  0
  141.3130   79.9340  221.6630 N   0  0  0  0  0  0  0  0  0  0  0  0
  142.1730   79.2070  222.5780 C   0  0  0  0  0  0  0  0  0  0  0  0
  143.0370   80.2140  223.3060 C   0  0  0  0  0  0  0  0  0  0  0  0
  142.2300   81.3830  223.8120 C   0  0  0  0  0  0  0  0  0  0  0  0
  140.7710   80.9340  223.8390 C   0  0  0  0  0  0  0  0  0  0  0  0
  140.2950   80.6030  222.4470 C   0  0  0  0  0  0  0  0  0  0  0  0
  139.9880   71.8270  222.8590 C   0  0  0  0  0  0  0  0  0  0  0  0
  139.3960   70.6110  222.6910 C   0  0  0  0  0  0  0  0  0  0  0  0
  139.3810   69.7600  223.7950 C   0  0  0  0  0  0  0  0  0  0  0  0
  139.9370   70.1270  224.9990 C   0  0  0  0  0  0  0  0  0  0  0  0
  139.9040   69.2570  226.0700 C   0  0  0  0  0  0  0  0  0  0  0  0
  140.4620   69.6110  227.3010 C   0  0  0  0  0  0  0  0  0  0  0  0
  140.4290   68.5200  228.6720 Cl  0  0  0  0  0  0  0  0  0  0  0  0
  141.0560   70.8710  227.4160 C   0  0  0  0  0  0  0  0  0  0  0  0
  141.0690   71.7040  226.3340 C   0  0  0  0  0  0  0  0  0  0  0  0
  140.5240   71.3640  225.1240 C   0  0  0  0  0  0  0  0  0  0  0  0
  140.5250   72.1640  224.0470 N   0  0  0  0  0  0  0  0  0  0  0  0
  139.5670   74.4600  222.9510 H   0  0  0  0  0  0  0  0  0  0  0  0
  140.1664   74.6138  219.9519 H   0  0  0  0  0  0  0  0  0  0  0  0
  138.8985   75.6102  220.7565 H   0  0  0  0  0  0  0  0  0  0  0  0
  143.2543   76.1023  219.2325 H   0  0  0  0  0  0  0  0  0  0  0  0
  141.7572   75.3154  218.6801 H   0  0  0  0  0  0  0  0  0  0  0  0
  141.7974   76.8292  216.8730 H   0  0  0  0  0  0  0  0  0  0  0  0
  143.3280   78.6120  217.0060 H   0  0  0  0  0  0  0  0  0  0  0  0
  141.3609   79.3003  217.9247 H   0  0  0  0  0  0  0  0  0  0  0  0
  140.1134   78.1160  218.1831 H   0  0  0  0  0  0  0  0  0  0  0  0
  142.5052   78.8059  220.0459 H   0  0  0  0  0  0  0  0  0  0  0  0
  139.9614   79.6679  220.1087 H   0  0  0  0  0  0  0  0  0  0  0  0
  140.0847   78.3152  221.3328 H   0  0  0  0  0  0  0  0  0  0  0  0
  141.5611   78.6479  223.3012 H   0  0  0  0  0  0  0  0  0  0  0  0
  142.8010   78.4920  222.0263 H   0  0  0  0  0  0  0  0  0  0  0  0
  143.5189   79.7174  224.1611 H   0  0  0  0  0  0  0  0  0  0  0  0
  143.7861   80.5971  222.5974 H   0  0  0  0  0  0  0  0  0  0  0  0
  142.5594   81.6607  224.8241 H   0  0  0  0  0  0  0  0  0  0  0  0
  142.3602   82.2622  223.1638 H   0  0  0  0  0  0  0  0  0  0  0  0
  140.6786   80.0413  224.4751 H   0  0  0  0  0  0  0  0  0  0  0  0
  140.1544   81.7514  224.2411 H   0  0  0  0  0  0  0  0  0  0  0  0
  139.4161   79.9456  222.5206 H   0  0  0  0  0  0  0  0  0  0  0  0
  140.0480   81.5484  221.9418 H   0  0  0  0  0  0  0  0  0  0  0  0
  138.9510   70.3150  221.7296 H   0  0  0  0  0  0  0  0  0  0  0  0
  138.9124   68.7692  223.7012 H   0  0  0  0  0  0  0  0  0  0  0  0
  139.4315   68.2706  225.9527 H   0  0  0  0  0  0  0  0  0  0  0  0
  141.5079   71.1881  228.3674 H   0  0  0  0  0  0  0  0  0  0  0  0
  141.5385   72.6932  226.4388 H   0  0  0  0  0  0  0  0  0  0  0  0
  1  2  2  0
  2  3  1  0
  3  4  1  0
  4  5  1  0
  5  6  2  0
  5  7  1  0
  7  8  1  0
  8  9  1  0
  9 10  1  0
  9 11  1  0
 11 12  1  0
 12 13  1  0
 13 14  1  0
 14 15  1  0
 15 16  1  0
 16 17  1  0
 17 18  1  0
 18 19  1  0
  2 20  1  0
 20 21  2  0
 21 22  1  0
 22 23  2  0
 23 24  1  0
 24 25  2  0
 25 26  1  0
 25 27  1  0
 27 28  2  0
 28 29  1  0
 29 30  2  0
 12  7  1  0
 19 14  1  0
 30 20  1  0
 29 23  1  0
  3 31  1  0
  4 32  1  0
  4 33  1  0
  8 34  1  0
  8 35  1  0
  9 36  1  6
 10 37  1  0
 11 38  1  0
 11 39  1  0
 12 40  1  6
 13 41  1  0
 13 42  1  0
 15 43  1  0
 15 44  1  0
 16 45  1  0
 16 46  1  0
 17 47  1  0
 17 48  1  0
 18 49  1  0
 18 50  1  0
 19 51  1  0
 19 52  1  0
 21 53  1  0
 22 54  1  0
 24 55  1  0
 27 56  1  0
 28 57  1  0
M  END
>  <smiles>  (16) 
O=C(NCC(=O)N1C[C@H](O)C[C@H]1CN1CCCCC1)c1ccc2cc(Cl)ccc2n1

>  <score_type>  (16) 
oracle

>  <origin>  (16) 
autodockgpu

>  <m_score__min__energy>  (16) 
-9.2599999999999998

>  <m_primary>  (16) 
energy

>  <rmsd>  (16) 
2.3417883779317954

>  <m_score__min__rmsd>  (16) 
2.3417883779317954

>  <meeko>  (16) 
{"free_energy": -8.51, "intermolecular_energy": -10.6, "internal_energy": -1.66, "cluster_size": 30, "cluster_id": 1, "rank_in_cluster": 12}

>  <energy>  (16) 
-8.4

>  <cluster_rmsd>  (16) 
1.44

>  <cluster>  (16) 
1

$$$$

     RDKit          3D

 57 60  0  0  0  0  0  0  0  0999 V2000
  141.0110   72.9760  220.3790 O   0  0  0  0  0  0  0  0  0  0  0  0
  140.5660   73.7390  221.2980 C   0  0  0  0  0  0  0  0  0  0  0  0
  139.9560   73.1080  222.4120 N   0  0  0  0  0  0  0  0  0  0  0  0
  139.8340   71.6650  222.5230 C   0  0  0  0  0  0  0  0  0  0  0  0
  139.4520   71.2870  223.9060 C   0  0  0  0  0  0  0  0  0  0  0  0
  140.3170   71.4020  224.8100 O   0  0  0  0  0  0  0  0  0  0  0  0
  138.1320   70.8140  224.1290 N   0  0  0  0  0  0  0  0  0  0  0  0
  136.8830   71.4970  223.8130 C   0  0  0  0  0  0  0  0  0  0  0  0
  135.8250   70.4350  223.6510 C   0  0  2  0  0  0  0  0  0  0  0  0
  134.9930   70.4830  224.7640 O   0  0  0  0  0  0  0  0  0  0  0  0
  136.6300   69.1580  223.7290 C   0  0  0  0  0  0  0  0  0  0  0  0
  137.6990   69.5450  224.7190 C   0  0  1  0  0  0  0  0  0  0  0  0
  138.8230   68.5850  224.8450 C   0  0  0  0  0  0  0  0  0  0  0  0
  139.2710   68.3890  226.2080 N   0  0  0  0  0  0  0  0  0  0  0  0
  139.5770   69.6400  226.8760 C   0  0  0  0  0  0  0  0  0  0  0  0
  139.7600   69.3500  228.3490 C   0  0  0  0  0  0  0  0  0  0  0  0
  140.6410   68.1490  228.5790 C   0  0  0  0  0  0  0  0  0  0  0  0
  141.4260   67.9240  227.2890 C   0  0  0  0  0  0  0  0  0  0  0  0
  140.4900   67.6070  226.1500 C   0  0  0  0  0  0  0  0  0  0  0  0
  140.6880   75.1790  221.1870 C   0  0  0  0  0  0  0  0  0  0  0  0
  140.5470   75.8120  219.9890 C   0  0  0  0  0  0  0  0  0  0  0  0
  140.6810   77.2000  219.9920 C   0  0  0  0  0  0  0  0  0  0  0  0
  140.9420   77.8990  221.1470 C   0  0  0  0  0  0  0  0  0  0  0  0
  141.0680   79.2740  221.1100 C   0  0  0  0  0  0  0  0  0  0  0  0
  141.3340   80.0020  222.2720 C   0  0  0  0  0  0  0  0  0  0  0  0
  141.4970   81.7470  222.2450 Cl  0  0  0  0  0  0  0  0  0  0  0  0
  141.4680   79.2990  223.4730 C   0  0  0  0  0  0  0  0  0  0  0  0
  141.3380   77.9410  223.4690 C   0  0  0  0  0  0  0  0  0  0  0  0
  141.0770   77.2190  222.3340 C   0  0  0  0  0  0  0  0  0  0  0  0
  140.9430   75.8850  222.3050 N   0  0  0  0  0  0  0  0  0  0  0  0
  139.5920   73.7560  223.1620 H   0  0  0  0  0  0  0  0  0  0  0  0
  139.0625   71.3109  221.8235 H   0  0  0  0  0  0  0  0  0  0  0  0
  140.8025   71.2036  222.2797 H   0  0  0  0  0  0  0  0  0  0  0  0
  136.6095   72.1804  224.6304 H   0  0  0  0  0  0  0  0  0  0  0  0
  136.9842   72.0920  222.8934 H   0  0  0  0  0  0  0  0  0  0  0  0
  135.2199   70.5358  222.7379 H   0  0  0  0  0  0  0  0  0  0  0  0
  135.0220   71.3960  225.1970 H   0  0  0  0  0  0  0  0  0  0  0  0
  136.0215   68.3200  224.0999 H   0  0  0  0  0  0  0  0  0  0  0  0
  137.0171   68.8088  222.7604 H   0  0  0  0  0  0  0  0  0  0  0  0
  137.3330   69.5849  225.7555 H   0  0  0  0  0  0  0  0  0  0  0  0
  138.4971   67.6141  224.4435 H   0  0  0  0  0  0  0  0  0  0  0  0
  139.6707   69.0073  224.2855 H   0  0  0  0  0  0  0  0  0  0  0  0
  140.5019   70.0679  226.4620 H   0  0  0  0  0  0  0  0  0  0  0  0
  138.7611   70.3626  226.7270 H   0  0  0  0  0  0  0  0  0  0  0  0
  140.2200   70.2260  228.8297 H   0  0  0  0  0  0  0  0  0  0  0  0
  138.7710   69.1355  228.7801 H   0  0  0  0  0  0  0  0  0  0  0  0
  141.3313   68.3401  229.4139 H   0  0  0  0  0  0  0  0  0  0  0  0
  140.0415   67.2632  228.8357 H   0  0  0  0  0  0  0  0  0  0  0  0
  141.9946   68.8342  227.0477 H   0  0  0  0  0  0  0  0  0  0  0  0
  142.1115   67.0758  227.4329 H   0  0  0  0  0  0  0  0  0  0  0  0
  141.0027   67.8204  225.2005 H   0  0  0  0  0  0  0  0  0  0  0  0
  140.2134   66.5451  226.2263 H   0  0  0  0  0  0  0  0  0  0  0  0
  140.3375   75.2550  219.0638 H   0  0  0  0  0  0  0  0  0  0  0  0
  140.5751   77.7502  219.0454 H   0  0  0  0  0  0  0  0  0  0  0  0
  140.9573   79.8031  220.1520 H   0  0  0  0  0  0  0  0  0  0  0  0
  141.6760   79.8349  224.4108 H   0  0  0  0  0  0  0  0  0  0  0  0
  141.4478   77.4007  224.4208 H   0  0  0  0  0  0  0  0  0  0  0  0
  1  2  2  0
  2  3  1  0
  3  4  1  0
  4  5  1  0
  5  6  2  0
  5  7  1  0
  7  8  1  0
  8  9  1  0
  9 10  1  0
  9 11  1  0
 11 12  1  0
 12 13  1  0
 13 14  1  0
 14 15  1  0
 15 16  1  0
 16 17  1  0
 17 18  1  0
 18 19  1  0
  2 20  1  0
 20 21  2  0
 21 22  1  0
 22 23  2  0
 23 24  1  0
 24 25  2  0
 25 26  1  0
 25 27  1  0
 27 28  2  0
 28 29  1  0
 29 30  2  0
 12  7  1  0
 19 14  1  0
 30 20  1  0
 29 23  1  0
  3 31  1  0
  4 32  1  0
  4 33  1  0
  8 34  1  0
  8 35  1  0
  9 36  1  6
 10 37  1  0
 11 38  1  0
 11 39  1  0
 12 40  1  1
 13 41  1  0
 13 42  1  0
 15 43  1  0
 15 44  1  0
 16 45  1  0
 16 46  1  0
 17 47  1  0
 17 48  1  0
 18 49  1  0
 18 50  1  0
 19 51  1  0
 19 52  1  0
 21 53  1  0
 22 54  1  0
 24 55  1  0
 27 56  1  0
 28 57  1  0
M  END
>  <smiles>  (17) 
O=C(NCC(=O)N1C[C@H](O)C[C@H]1CN1CCCCC1)c1ccc2cc(Cl)ccc2n1

>  <score_type>  (17) 
oracle

>  <origin>  (17) 
autodockgpu

>  <m_score__min__energy>  (17) 
-9.2599999999999998

>  <m_primary>  (17) 
energy

>  <rmsd>  (17) 
9.641840632133677

>  <m_score__min__rmsd>  (17) 
9.641840632133677

>  <meeko>  (17) 
{"free_energy": -7.55, "intermolecular_energy": -9.64, "internal_energy": -1.49, "cluster_size": 5, "cluster_id": 4, "rank_in_cluster": 3}

>  <energy>  (17) 
-8.35

>  <cluster_rmsd>  (17) 
1.5

>  <cluster>  (17) 
1

$$$$

     RDKit          3D

 57 60  0  0  0  0  0  0  0  0999 V2000
  139.1330   72.5260  220.7170 O   0  0  0  0  0  0  0  0  0  0  0  0
  139.9030   72.6560  221.7250 C   0  0  0  0  0  0  0  0  0  0  0  0
  140.8050   73.7500  221.7030 N   0  0  0  0  0  0  0  0  0  0  0  0
  140.8670   74.6900  220.5970 C   0  0  0  0  0  0  0  0  0  0  0  0
  141.1490   76.0580  221.1000 C   0  0  0  0  0  0  0  0  0  0  0  0
  140.9590   76.2880  222.3200 O   0  0  0  0  0  0  0  0  0  0  0  0
  141.6160   77.0270  220.1740 N   0  0  0  0  0  0  0  0  0  0  0  0
  142.3810   76.7890  218.9560 C   0  0  0  0  0  0  0  0  0  0  0  0
  142.1230   77.9550  218.0350 C   0  0  2  0  0  0  0  0  0  0  0  0
  143.2680   78.7450  218.0090 O   0  0  0  0  0  0  0  0  0  0  0  0
  141.0490   78.7210  218.7720 C   0  0  0  0  0  0  0  0  0  0  0  0
  141.4490   78.4820  220.2060 C   0  0  1  0  0  0  0  0  0  0  0  0
  140.4500   78.8990  221.2200 C   0  0  0  0  0  0  0  0  0  0  0  0
  141.0300   79.5620  222.3700 N   0  0  0  0  0  0  0  0  0  0  0  0
  141.0590   81.0040  222.2200 C   0  0  0  0  0  0  0  0  0  0  0  0
  141.4150   81.6060  223.5620 C   0  0  0  0  0  0  0  0  0  0  0  0
  142.5850   80.9000  224.2000 C   0  0  0  0  0  0  0  0  0  0  0  0
  143.3050   80.1440  223.0870 C   0  0  0  0  0  0  0  0  0  0  0  0
  142.3980   79.0990  222.4850 C   0  0  0  0  0  0  0  0  0  0  0  0
  139.8420   71.7180  222.8280 C   0  0  0  0  0  0  0  0  0  0  0  0
  139.2180   70.5140  222.7020 C   0  0  0  0  0  0  0  0  0  0  0  0
  139.2170   69.6840  223.8220 C   0  0  0  0  0  0  0  0  0  0  0  0
  139.8170   70.0620  225.0010 C   0  0  0  0  0  0  0  0  0  0  0  0
  139.7960   69.2130  226.0900 C   0  0  0  0  0  0  0  0  0  0  0  0
  140.3990   69.5770  227.2970 C   0  0  0  0  0  0  0  0  0  0  0  0
  140.3820   68.5130  228.6900 Cl  0  0  0  0  0  0  0  0  0  0  0  0
  141.0230   70.8250  227.3700 C   0  0  0  0  0  0  0  0  0  0  0  0
  141.0230   71.6370  226.2720 C   0  0  0  0  0  0  0  0  0  0  0  0
  140.4340   71.2870  225.0850 C   0  0  0  0  0  0  0  0  0  0  0  0
  140.4220   72.0650  223.9930 N   0  0  0  0  0  0  0  0  0  0  0  0
  141.4350   73.8410  222.5460 H   0  0  0  0  0  0  0  0  0  0  0  0
  141.6667   74.3853  219.9059 H   0  0  0  0  0  0  0  0  0  0  0  0
  139.8990   74.6929  220.0746 H   0  0  0  0  0  0  0  0  0  0  0  0
  143.4537   76.7239  219.1909 H   0  0  0  0  0  0  0  0  0  0  0  0
  142.0796   75.8426  218.4832 H   0  0  0  0  0  0  0  0  0  0  0  0
  141.8535   77.6681  217.0078 H   0  0  0  0  0  0  0  0  0  0  0  0
  143.3970   79.1610  217.0960 H   0  0  0  0  0  0  0  0  0  0  0  0
  141.0727   79.7915  218.5201 H   0  0  0  0  0  0  0  0  0  0  0  0
  140.0234   78.4046  218.5311 H   0  0  0  0  0  0  0  0  0  0  0  0
  142.3259   79.0706  220.5135 H   0  0  0  0  0  0  0  0  0  0  0  0
  139.7385   79.5893  220.7433 H   0  0  0  0  0  0  0  0  0  0  0  0
  139.9637   77.9835  221.5879 H   0  0  0  0  0  0  0  0  0  0  0  0
  141.8143   81.2865  221.4718 H   0  0  0  0  0  0  0  0  0  0  0  0
  140.0791   81.3732  221.8831 H   0  0  0  0  0  0  0  0  0  0  0  0
  141.6732   82.6657  223.4196 H   0  0  0  0  0  0  0  0  0  0  0  0
  140.5457   81.4967  224.2271 H   0  0  0  0  0  0  0  0  0  0  0  0
  143.2640   81.6327  224.6605 H   0  0  0  0  0  0  0  0  0  0  0  0
  142.2479   80.2124  224.9897 H   0  0  0  0  0  0  0  0  0  0  0  0
  143.6080   80.8547  222.3040 H   0  0  0  0  0  0  0  0  0  0  0  0
  144.1897   79.6458  223.5102 H   0  0  0  0  0  0  0  0  0  0  0  0
  142.7704   78.8419  221.4824 H   0  0  0  0  0  0  0  0  0  0  0  0
  142.4032   78.2234  223.1508 H   0  0  0  0  0  0  0  0  0  0  0  0
  138.7372   70.2106  221.7603 H   0  0  0  0  0  0  0  0  0  0  0  0
  138.7242   68.7024  223.7617 H   0  0  0  0  0  0  0  0  0  0  0  0
  139.2974   68.2361  226.0061 H   0  0  0  0  0  0  0  0  0  0  0  0
  141.5090   71.1499  228.3018 H   0  0  0  0  0  0  0  0  0  0  0  0
  141.5183   72.6166  226.3435 H   0  0  0  0  0  0  0  0  0  0  0  0
  1  2  2  0
  2  3  1  0
  3  4  1  0
  4  5  1  0
  5  6  2  0
  5  7  1  0
  7  8  1  0
  8  9  1  0
  9 10  1  0
  9 11  1  0
 11 12  1  0
 12 13  1  0
 13 14  1  0
 14 15  1  0
 15 16  1  0
 16 17  1  0
 17 18  1  0
 18 19  1  0
  2 20  1  0
 20 21  2  0
 21 22  1  0
 22 23  2  0
 23 24  1  0
 24 25  2  0
 25 26  1  0
 25 27  1  0
 27 28  2  0
 28 29  1  0
 29 30  2  0
 12  7  1  0
 19 14  1  0
 30 20  1  0
 29 23  1  0
  3 31  1  0
  4 32  1  0
  4 33  1  0
  8 34  1  0
  8 35  1  0
  9 36  1  6
 10 37  1  0
 11 38  1  0
 11 39  1  0
 12 40  1  1
 13 41  1  0
 13 42  1  0
 15 43  1  0
 15 44  1  0
 16 45  1  0
 16 46  1  0
 17 47  1  0
 17 48  1  0
 18 49  1  0
 18 50  1  0
 19 51  1  0
 19 52  1  0
 21 53  1  0
 22 54  1  0
 24 55  1  0
 27 56  1  0
 28 57  1  0
M  END
>  <smiles>  (18) 
O=C(NCC(=O)N1C[C@H](O)C[C@H]1CN1CCCCC1)c1ccc2cc(Cl)ccc2n1

>  <score_type>  (18) 
oracle

>  <origin>  (18) 
autodockgpu

>  <m_score__min__energy>  (18) 
-9.2599999999999998

>  <m_primary>  (18) 
energy

>  <rmsd>  (18) 
2.60486079596611

>  <m_score__min__rmsd>  (18) 
2.60486079596611

>  <meeko>  (18) 
{"free_energy": -8.24, "intermolecular_energy": -10.33, "internal_energy": -1.83, "cluster_size": 30, "cluster_id": 1, "rank_in_cluster": 19}

>  <energy>  (18) 
-8.29

>  <cluster_rmsd>  (18) 
1.64

>  <cluster>  (18) 
1

$$$$

     RDKit          3D

 57 60  0  0  0  0  0  0  0  0999 V2000
  139.4220   72.0390  220.4790 O   0  0  0  0  0  0  0  0  0  0  0  0
  139.9240   72.3820  221.5990 C   0  0  0  0  0  0  0  0  0  0  0  0
  140.5140   73.6700  221.6680 N   0  0  0  0  0  0  0  0  0  0  0  0
  140.5570   74.5710  220.5300 C   0  0  0  0  0  0  0  0  0  0  0  0
  141.1550   75.8710  220.9260 C   0  0  0  0  0  0  0  0  0  0  0  0
  141.2150   76.1430  222.1510 O   0  0  0  0  0  0  0  0  0  0  0  0
  141.6230   76.7320  219.8980 N   0  0  0  0  0  0  0  0  0  0  0  0
  142.4750   76.3780  218.7690 C   0  0  0  0  0  0  0  0  0  0  0  0
  142.2100   77.3870  217.6800 C   0  0  2  0  0  0  0  0  0  0  0  0
  143.3070   78.2380  217.6040 O   0  0  0  0  0  0  0  0  0  0  0  0
  141.0510   78.1770  218.2440 C   0  0  0  0  0  0  0  0  0  0  0  0
  141.3730   78.1630  219.7160 C   0  0  1  0  0  0  0  0  0  0  0  0
  140.2910   78.6500  220.6060 C   0  0  0  0  0  0  0  0  0  0  0  0
  140.7550   79.5330  221.6570 N   0  0  0  0  0  0  0  0  0  0  0  0
  142.1780   79.7990  221.5680 C   0  0  0  0  0  0  0  0  0  0  0  0
  142.5020   80.9300  222.5190 C   0  0  0  0  0  0  0  0  0  0  0  0
  141.8670   80.7240  223.8710 C   0  0  0  0  0  0  0  0  0  0  0  0
  141.5170   79.2410  223.9730 C   0  0  0  0  0  0  0  0  0  0  0  0
  140.5070   78.8640  222.9180 C   0  0  0  0  0  0  0  0  0  0  0  0
  139.8810   71.4830  222.7350 C   0  0  0  0  0  0  0  0  0  0  0  0
  139.2870   70.2590  222.6490 C   0  0  0  0  0  0  0  0  0  0  0  0
  139.3020   69.4700  223.7980 C   0  0  0  0  0  0  0  0  0  0  0  0
  139.8870   69.9040  224.9650 C   0  0  0  0  0  0  0  0  0  0  0  0
  139.8820   69.0940  226.0830 C   0  0  0  0  0  0  0  0  0  0  0  0
  140.4700   69.5150  227.2780 C   0  0  0  0  0  0  0  0  0  0  0  0
  140.4730   68.5010  228.7080 Cl  0  0  0  0  0  0  0  0  0  0  0  0
  141.0640   70.7800  227.3090 C   0  0  0  0  0  0  0  0  0  0  0  0
  141.0490   71.5520  226.1830 C   0  0  0  0  0  0  0  0  0  0  0  0
  140.4730   71.1460  225.0080 C   0  0  0  0  0  0  0  0  0  0  0  0
  140.4470   71.8850  223.8890 N   0  0  0  0  0  0  0  0  0  0  0  0
  140.9250   73.9350  222.6040 H   0  0  0  0  0  0  0  0  0  0  0  0
  141.1651   74.1196  219.7322 H   0  0  0  0  0  0  0  0  0  0  0  0
  139.5319   74.7429  220.1700 H   0  0  0  0  0  0  0  0  0  0  0  0
  143.5328   76.4150  219.0684 H   0  0  0  0  0  0  0  0  0  0  0  0
  142.2576   75.3581  218.4191 H   0  0  0  0  0  0  0  0  0  0  0  0
  142.0217   76.9444  216.6907 H   0  0  0  0  0  0  0  0  0  0  0  0
  143.3640   78.6730  216.6930 H   0  0  0  0  0  0  0  0  0  0  0  0
  141.0308   79.2022  217.8459 H   0  0  0  0  0  0  0  0  0  0  0  0
  140.0617   77.7654  217.9952 H   0  0  0  0  0  0  0  0  0  0  0  0
  142.1945   78.8435  219.9846 H   0  0  0  0  0  0  0  0  0  0  0  0
  139.5565   79.1942  219.9942 H   0  0  0  0  0  0  0  0  0  0  0  0
  139.8561   77.7667  221.0966 H   0  0  0  0  0  0  0  0  0  0  0  0
  142.7444   78.8995  221.8508 H   0  0  0  0  0  0  0  0  0  0  0  0
  142.4518   80.0745  220.5389 H   0  0  0  0  0  0  0  0  0  0  0  0
  143.5933   80.9890  222.6434 H   0  0  0  0  0  0  0  0  0  0  0  0
  142.1019   81.8613  222.0917 H   0  0  0  0  0  0  0  0  0  0  0  0
  142.5731   81.0020  224.6673 H   0  0  0  0  0  0  0  0  0  0  0  0
  140.9697   81.3500  223.9850 H   0  0  0  0  0  0  0  0  0  0  0  0
  142.4293   78.6429  223.8312 H   0  0  0  0  0  0  0  0  0  0  0  0
  141.0857   79.0442  224.9656 H   0  0  0  0  0  0  0  0  0  0  0  0
  140.5525   77.7768  222.7569 H   0  0  0  0  0  0  0  0  0  0  0  0
  139.5143   79.1754  223.2752 H   0  0  0  0  0  0  0  0  0  0  0  0
  138.8181   69.9105  221.7170 H   0  0  0  0  0  0  0  0  0  0  0  0
  138.8341   68.4749  223.7709 H   0  0  0  0  0  0  0  0  0  0  0  0
  139.4081   68.1027  226.0319 H   0  0  0  0  0  0  0  0  0  0  0  0
  141.5382   71.1493  228.2303 H   0  0  0  0  0  0  0  0  0  0  0  0
  141.5207   72.5450  226.2209 H   0  0  0  0  0  0  0  0  0  0  0  0
  1  2  2  0
  2  3  1  0
  3  4  1  0
  4  5  1  0
  5  6  2  0
  5  7  1  0
  7  8  1  0
  8  9  1  0
  9 10  1  0
  9 11  1  0
 11 12  1  0
 12 13  1  0
 13 14  1  0
 14 15  1  0
 15 16  1  0
 16 17  1  0
 17 18  1  0
 18 19  1  0
  2 20  1  0
 20 21  2  0
 21 22  1  0
 22 23  2  0
 23 24  1  0
 24 25  2  0
 25 26  1  0
 25 27  1  0
 27 28  2  0
 28 29  1  0
 29 30  2  0
 12  7  1  0
 19 14  1  0
 30 20  1  0
 29 23  1  0
  3 31  1  0
  4 32  1  0
  4 33  1  0
  8 34  1  0
  8 35  1  0
  9 36  1  6
 10 37  1  0
 11 38  1  0
 11 39  1  0
 12 40  1  6
 13 41  1  0
 13 42  1  0
 15 43  1  0
 15 44  1  0
 16 45  1  0
 16 46  1  0
 17 47  1  0
 17 48  1  0
 18 49  1  0
 18 50  1  0
 19 51  1  0
 19 52  1  0
 21 53  1  0
 22 54  1  0
 24 55  1  0
 27 56  1  0
 28 57  1  0
M  END
>  <smiles>  (19) 
O=C(NCC(=O)N1C[C@H](O)C[C@H]1CN1CCCCC1)c1ccc2cc(Cl)ccc2n1

>  <score_type>  (19) 
oracle

>  <origin>  (19) 
autodockgpu

>  <m_score__min__energy>  (19) 
-9.2599999999999998

>  <m_primary>  (19) 
energy

>  <rmsd>  (19) 
2.505842655867433

>  <m_score__min__rmsd>  (19) 
2.505842655867433

>  <meeko>  (19) 
{"free_energy": -7.89, "intermolecular_energy": -9.98, "internal_energy": -2.2, "cluster_size": 30, "cluster_id": 1, "rank_in_cluster": 28}

>  <energy>  (19) 
-8.24

>  <cluster_rmsd>  (19) 
1.35

>  <cluster>  (19) 
1

$$$$

     RDKit          3D

 57 60  0  0  0  0  0  0  0  0999 V2000
  138.2310   71.4810  220.8390 O   0  0  0  0  0  0  0  0  0  0  0  0
  138.6680   71.9300  221.9490 C   0  0  0  0  0  0  0  0  0  0  0  0
  138.8210   73.3370  222.0530 N   0  0  0  0  0  0  0  0  0  0  0  0
  138.5020   74.2400  220.9610 C   0  0  0  0  0  0  0  0  0  0  0  0
  139.0630   75.5880  221.2300 C   0  0  0  0  0  0  0  0  0  0  0  0
  138.3340   76.4230  221.8190 O   0  0  0  0  0  0  0  0  0  0  0  0
  140.3900   75.8560  220.8030 N   0  0  0  0  0  0  0  0  0  0  0  0
  141.0210   75.4330  219.5580 C   0  0  0  0  0  0  0  0  0  0  0  0
  142.1360   76.4060  219.2730 C   0  0  2  0  0  0  0  0  0  0  0  0
  143.3440   75.7650  219.5240 O   0  0  0  0  0  0  0  0  0  0  0  0
  141.9360   77.4540  220.3440 C   0  0  0  0  0  0  0  0  0  0  0  0
  141.4400   76.6110  221.4910 C   0  0  1  0  0  0  0  0  0  0  0  0
  140.9050   77.3680  222.6490 C   0  0  0  0  0  0  0  0  0  0  0  0
  141.2810   78.7660  222.6540 N   0  0  0  0  0  0  0  0  0  0  0  0
  142.1030   79.1140  223.7980 C   0  0  0  0  0  0  0  0  0  0  0  0
  142.6650   80.4990  223.5650 C   0  0  0  0  0  0  0  0  0  0  0  0
  141.6050   81.4620  223.0900 C   0  0  0  0  0  0  0  0  0  0  0  0
  140.2560   80.8490  223.4570 C   0  0  0  0  0  0  0  0  0  0  0  0
  140.0580   79.5390  222.7350 C   0  0  0  0  0  0  0  0  0  0  0  0
  138.9850   71.0290  223.0390 C   0  0  0  0  0  0  0  0  0  0  0  0
  138.6520   69.7090  222.9870 C   0  0  0  0  0  0  0  0  0  0  0  0
  139.0050   68.9270  224.0870 C   0  0  0  0  0  0  0  0  0  0  0  0
  139.6580   69.4610  225.1730 C   0  0  0  0  0  0  0  0  0  0  0  0
  139.9910   68.6550  226.2440 C   0  0  0  0  0  0  0  0  0  0  0  0
  140.6540   69.1770  227.3570 C   0  0  0  0  0  0  0  0  0  0  0  0
  141.0850   68.1700  228.7250 Cl  0  0  0  0  0  0  0  0  0  0  0  0
  140.9700   70.5380  227.3560 C   0  0  0  0  0  0  0  0  0  0  0  0
  140.6240   71.3030  226.2790 C   0  0  0  0  0  0  0  0  0  0  0  0
  139.9740   70.7980  225.1830 C   0  0  0  0  0  0  0  0  0  0  0  0
  139.6250   71.5280  224.1140 N   0  0  0  0  0  0  0  0  0  0  0  0
  139.1840   73.6900  222.9800 H   0  0  0  0  0  0  0  0  0  0  0  0
  138.9315   73.8473  220.0275 H   0  0  0  0  0  0  0  0  0  0  0  0
  137.4088   74.3182  220.8676 H   0  0  0  0  0  0  0  0  0  0  0  0
  141.4262   74.4162  219.6669 H   0  0  0  0  0  0  0  0  0  0  0  0
  140.2921   75.4208  218.7342 H   0  0  0  0  0  0  0  0  0  0  0  0
  142.1392   76.7998  218.2459 H   0  0  0  0  0  0  0  0  0  0  0  0
  144.0480   76.0460  218.8550 H   0  0  0  0  0  0  0  0  0  0  0  0
  142.8803   77.9596  220.5944 H   0  0  0  0  0  0  0  0  0  0  0  0
  141.2558   78.2691  220.0561 H   0  0  0  0  0  0  0  0  0  0  0  0
  142.2360   76.0216  221.9695 H   0  0  0  0  0  0  0  0  0  0  0  0
  139.8071   77.3037  222.6287 H   0  0  0  0  0  0  0  0  0  0  0  0
  141.3351   76.9161  223.5550 H   0  0  0  0  0  0  0  0  0  0  0  0
  141.4918   79.1080  224.7126 H   0  0  0  0  0  0  0  0  0  0  0  0
  142.9185   78.3857  223.9186 H   0  0  0  0  0  0  0  0  0  0  0  0
  143.0898   80.8740  224.5078 H   0  0  0  0  0  0  0  0  0  0  0  0
  143.4364   80.4277  222.7841 H   0  0  0  0  0  0  0  0  0  0  0  0
  141.7268   82.4352  223.5881 H   0  0  0  0  0  0  0  0  0  0  0  0
  141.6808   81.6289  222.0054 H   0  0  0  0  0  0  0  0  0  0  0  0
  140.2213   80.6732  224.5423 H   0  0  0  0  0  0  0  0  0  0  0  0
  139.4565   81.5437  223.1601 H   0  0  0  0  0  0  0  0  0  0  0  0
  139.3015   78.9491  223.2733 H   0  0  0  0  0  0  0  0  0  0  0  0
  139.7344   79.7658  221.7084 H   0  0  0  0  0  0  0  0  0  0  0  0
  138.1297   69.2802  222.1190 H   0  0  0  0  0  0  0  0  0  0  0  0
  138.7546   67.8559  224.0856 H   0  0  0  0  0  0  0  0  0  0  0  0
  139.7303   67.5866  226.2201 H   0  0  0  0  0  0  0  0  0  0  0  0
  141.4917   70.9883  228.2133 H   0  0  0  0  0  0  0  0  0  0  0  0
  140.8785   72.3731  226.2916 H   0  0  0  0  0  0  0  0  0  0  0  0
  1  2  2  0
  2  3  1  0
  3  4  1  0
  4  5  1  0
  5  6  2  0
  5  7  1  0
  7  8  1  0
  8  9  1  0
  9 10  1  0
  9 11  1  0
 11 12  1  0
 12 13  1  0
 13 14  1  0
 14 15  1  0
 15 16  1  0
 16 17  1  0
 17 18  1  0
 18 19  1  0
  2 20  1  0
 20 21  2  0
 21 22  1  0
 22 23  2  0
 23 24  1  0
 24 25  2  0
 25 26  1  0
 25 27  1  0
 27 28  2  0
 28 29  1  0
 29 30  2  0
 12  7  1  0
 19 14  1  0
 30 20  1  0
 29 23  1  0
  3 31  1  0
  4 32  1  0
  4 33  1  0
  8 34  1  0
  8 35  1  0
  9 36  1  6
 10 37  1  0
 11 38  1  0
 11 39  1  0
 12 40  1  1
 13 41  1  0
 13 42  1  0
 15 43  1  0
 15 44  1  0
 16 45  1  0
 16 46  1  0
 17 47  1  0
 17 48  1  0
 18 49  1  0
 18 50  1  0
 19 51  1  0
 19 52  1  0
 21 53  1  0
 22 54  1  0
 24 55  1  0
 27 56  1  0
 28 57  1  0
M  END
>  <smiles>  (20) 
O=C(NCC(=O)N1C[C@H](O)C[C@H]1CN1CCCCC1)c1ccc2cc(Cl)ccc2n1

>  <score_type>  (20) 
oracle

>  <origin>  (20) 
autodockgpu

>  <m_score__min__energy>  (20) 
-9.2599999999999998

>  <m_primary>  (20) 
energy

>  <rmsd>  (20) 
2.0102734694203837

>  <m_score__min__rmsd>  (20) 
2.0102734694203837

>  <meeko>  (20) 
{"free_energy": -8.1, "intermolecular_energy": -10.18, "internal_energy": -1.58, "cluster_size": 30, "cluster_id": 1, "rank_in_cluster": 24}

>  <energy>  (20) 
-8.21

>  <cluster_rmsd>  (20) 
1.28

>  <cluster>  (20) 
1

$$$$

     RDKit          3D

 57 60  0  0  0  0  0  0  0  0999 V2000
  138.8590   72.7730  220.5760 O   0  0  0  0  0  0  0  0  0  0  0  0
  139.7000   72.8460  221.5310 C   0  0  0  0  0  0  0  0  0  0  0  0
  140.7040   73.8430  221.4250 N   0  0  0  0  0  0  0  0  0  0  0  0
  140.7880   74.7470  220.2910 C   0  0  0  0  0  0  0  0  0  0  0  0
  142.0940   75.4520  220.2930 C   0  0  0  0  0  0  0  0  0  0  0  0
  143.0620   74.8990  220.8730 O   0  0  0  0  0  0  0  0  0  0  0  0
  142.1750   76.7120  219.6420 N   0  0  0  0  0  0  0  0  0  0  0  0
  142.6320   76.9770  218.2840 C   0  0  0  0  0  0  0  0  0  0  0  0
  141.9930   78.2700  217.8450 C   0  0  2  0  0  0  0  0  0  0  0  0
  142.9750   79.2550  217.8380 O   0  0  0  0  0  0  0  0  0  0  0  0
  141.0470   78.5690  218.9840 C   0  0  0  0  0  0  0  0  0  0  0  0
  141.8240   78.0360  220.1600 C   0  0  1  0  0  0  0  0  0  0  0  0
  141.0670   77.9460  221.4330 C   0  0  0  0  0  0  0  0  0  0  0  0
  141.0800   79.1710  222.2060 N   0  0  0  0  0  0  0  0  0  0  0  0
  141.7100   80.2670  221.4950 C   0  0  0  0  0  0  0  0  0  0  0  0
  141.4260   81.5420  222.2580 C   0  0  0  0  0  0  0  0  0  0  0  0
  141.6700   81.3770  223.7370 C   0  0  0  0  0  0  0  0  0  0  0  0
  142.5620   80.1490  223.9030 C   0  0  0  0  0  0  0  0  0  0  0  0
  141.8560   78.9130  223.4020 C   0  0  0  0  0  0  0  0  0  0  0  0
  139.6150   71.9430  222.6620 C   0  0  0  0  0  0  0  0  0  0  0  0
  138.8320   70.8290  222.6230 C   0  0  0  0  0  0  0  0  0  0  0  0
  138.8220   70.0260  223.7630 C   0  0  0  0  0  0  0  0  0  0  0  0
  139.5680   70.3410  224.8750 C   0  0  0  0  0  0  0  0  0  0  0  0
  139.5330   69.5210  225.9860 C   0  0  0  0  0  0  0  0  0  0  0  0
  140.2820   69.8240  227.1260 C   0  0  0  0  0  0  0  0  0  0  0  0
  140.2500   68.7950  228.5450 Cl  0  0  0  0  0  0  0  0  0  0  0  0
  141.0670   70.9790  227.1090 C   0  0  0  0  0  0  0  0  0  0  0  0
  141.0760   71.7650  225.9930 C   0  0  0  0  0  0  0  0  0  0  0  0
  140.3440   71.4760  224.8710 C   0  0  0  0  0  0  0  0  0  0  0  0
  140.3360   72.2310  223.7630 N   0  0  0  0  0  0  0  0  0  0  0  0
  141.3910   73.8870  222.2240 H   0  0  0  0  0  0  0  0  0  0  0  0
  140.6873   74.1712  219.3591 H   0  0  0  0  0  0  0  0  0  0  0  0
  139.9794   75.4893  220.3631 H   0  0  0  0  0  0  0  0  0  0  0  0
  143.7277   77.0728  218.2667 H   0  0  0  0  0  0  0  0  0  0  0  0
  142.3530   76.1539  217.6097 H   0  0  0  0  0  0  0  0  0  0  0  0
  141.5141   78.2239  216.8558 H   0  0  0  0  0  0  0  0  0  0  0  0
  143.6350   79.1010  217.0870 H   0  0  0  0  0  0  0  0  0  0  0  0
  140.8610   79.6489  219.0802 H   0  0  0  0  0  0  0  0  0  0  0  0
  140.0466   78.1268  218.8670 H   0  0  0  0  0  0  0  0  0  0  0  0
  142.6609   78.6865  220.4540 H   0  0  0  0  0  0  0  0  0  0  0  0
  140.0221   77.6943  221.1987 H   0  0  0  0  0  0  0  0  0  0  0  0
  141.5574   77.1746  222.0448 H   0  0  0  0  0  0  0  0  0  0  0  0
  142.7957   80.1000  221.4376 H   0  0  0  0  0  0  0  0  0  0  0  0
  141.3136   80.3372  220.4713 H   0  0  0  0  0  0  0  0  0  0  0  0
  142.0811   82.3388  221.8760 H   0  0  0  0  0  0  0  0  0  0  0  0
  140.3659   81.7976  222.1132 H   0  0  0  0  0  0  0  0  0  0  0  0
  142.1739   82.2682  224.1393 H   0  0  0  0  0  0  0  0  0  0  0  0
  140.7225   81.2529  224.2818 H   0  0  0  0  0  0  0  0  0  0  0  0
  143.4890   80.2944  223.3290 H   0  0  0  0  0  0  0  0  0  0  0  0
  142.7941   80.0188  224.9703 H   0  0  0  0  0  0  0  0  0  0  0  0
  142.6081   78.1426  223.1766 H   0  0  0  0  0  0  0  0  0  0  0  0
  141.1627   78.5790  224.1880 H   0  0  0  0  0  0  0  0  0  0  0  0
  138.2358   70.5749  221.7342 H   0  0  0  0  0  0  0  0  0  0  0  0
  138.2018   69.1176  223.7733 H   0  0  0  0  0  0  0  0  0  0  0  0
  138.9067   68.6168  225.9731 H   0  0  0  0  0  0  0  0  0  0  0  0
  141.6719   71.2525  227.9861 H   0  0  0  0  0  0  0  0  0  0  0  0
  141.6991   72.6715  225.9943 H   0  0  0  0  0  0  0  0  0  0  0  0
  1  2  2  0
  2  3  1  0
  3  4  1  0
  4  5  1  0
  5  6  2  0
  5  7  1  0
  7  8  1  0
  8  9  1  0
  9 10  1  0
  9 11  1  0
 11 12  1  0
 12 13  1  0
 13 14  1  0
 14 15  1  0
 15 16  1  0
 16 17  1  0
 17 18  1  0
 18 19  1  0
  2 20  1  0
 20 21  2  0
 21 22  1  0
 22 23  2  0
 23 24  1  0
 24 25  2  0
 25 26  1  0
 25 27  1  0
 27 28  2  0
 28 29  1  0
 29 30  2  0
 12  7  1  0
 19 14  1  0
 30 20  1  0
 29 23  1  0
  3 31  1  0
  4 32  1  0
  4 33  1  0
  8 34  1  0
  8 35  1  0
  9 36  1  6
 10 37  1  0
 11 38  1  0
 11 39  1  0
 12 40  1  1
 13 41  1  0
 13 42  1  0
 15 43  1  0
 15 44  1  0
 16 45  1  0
 16 46  1  0
 17 47  1  0
 17 48  1  0
 18 49  1  0
 18 50  1  0
 19 51  1  0
 19 52  1  0
 21 53  1  0
 22 54  1  0
 24 55  1  0
 27 56  1  0
 28 57  1  0
M  END
>  <smiles>  (21) 
O=C(NCC(=O)N1C[C@H](O)C[C@H]1CN1CCCCC1)c1ccc2cc(Cl)ccc2n1

>  <score_type>  (21) 
oracle

>  <origin>  (21) 
autodockgpu

>  <m_score__min__energy>  (21) 
-9.2599999999999998

>  <m_primary>  (21) 
energy

>  <rmsd>  (21) 
2.7031433528744033

>  <m_score__min__rmsd>  (21) 
2.7031433528744033

>  <meeko>  (21) 
{"free_energy": -8.35, "intermolecular_energy": -10.44, "internal_energy": -1.87, "cluster_size": 30, "cluster_id": 1, "rank_in_cluster": 17}

>  <energy>  (21) 
-8.17

>  <cluster_rmsd>  (21) 
1.32

>  <cluster>  (21) 
1

$$$$

     RDKit          3D

 57 60  0  0  0  0  0  0  0  0999 V2000
  141.3400   73.0470  221.0670 O   0  0  0  0  0  0  0  0  0  0  0  0
  140.6030   73.9480  221.5880 C   0  0  0  0  0  0  0  0  0  0  0  0
  139.4560   73.5060  222.2960 N   0  0  0  0  0  0  0  0  0  0  0  0
  139.1180   72.0990  222.4330 C   0  0  0  0  0  0  0  0  0  0  0  0
  137.6860   71.9500  222.7950 C   0  0  0  0  0  0  0  0  0  0  0  0
  136.9850   72.9890  222.8730 O   0  0  0  0  0  0  0  0  0  0  0  0
  137.1910   70.6400  223.0330 N   0  0  0  0  0  0  0  0  0  0  0  0
  136.0230   70.0130  222.4260 C   0  0  0  0  0  0  0  0  0  0  0  0
  136.2360   68.5210  222.4930 C   0  0  2  0  0  0  0  0  0  0  0  0
  135.3880   68.0080  223.4680 O   0  0  0  0  0  0  0  0  0  0  0  0
  137.6530   68.4170  223.0090 C   0  0  0  0  0  0  0  0  0  0  0  0
  137.7180   69.6090  223.9300 C   0  0  1  0  0  0  0  0  0  0  0  0
  139.0740   69.9520  224.4260 C   0  0  0  0  0  0  0  0  0  0  0  0
  139.2500   69.7200  225.8440 N   0  0  0  0  0  0  0  0  0  0  0  0
  140.2980   70.5460  226.4150 C   0  0  0  0  0  0  0  0  0  0  0  0
  140.2110   70.4350  227.9210 C   0  0  0  0  0  0  0  0  0  0  0  0
  140.0660   69.0030  228.3700 C   0  0  0  0  0  0  0  0  0  0  0  0
  140.5280   68.1270  227.2080 C   0  0  0  0  0  0  0  0  0  0  0  0
  139.6410   68.3340  226.0060 C   0  0  0  0  0  0  0  0  0  0  0  0
  140.9410   75.3500  221.4500 C   0  0  0  0  0  0  0  0  0  0  0  0
  141.8210   75.7780  220.5020 C   0  0  0  0  0  0  0  0  0  0  0  0
  142.0760   77.1480  220.4520 C   0  0  0  0  0  0  0  0  0  0  0  0
  141.4700   78.0280  221.3180 C   0  0  0  0  0  0  0  0  0  0  0  0
  141.7470   79.3790  221.2380 C   0  0  0  0  0  0  0  0  0  0  0  0
  141.1420   80.2890  222.1090 C   0  0  0  0  0  0  0  0  0  0  0  0
  141.4830   82.0060  222.0220 Cl  0  0  0  0  0  0  0  0  0  0  0  0
  140.2490   79.7930  223.0610 C   0  0  0  0  0  0  0  0  0  0  0  0
  140.0000   78.4520  223.1100 C   0  0  0  0  0  0  0  0  0  0  0  0
  140.5890   77.5530  222.2600 C   0  0  0  0  0  0  0  0  0  0  0  0
  140.3600   76.2320  222.2870 N   0  0  0  0  0  0  0  0  0  0  0  0
  138.8590   74.2660  222.7190 H   0  0  0  0  0  0  0  0  0  0  0  0
  139.3073   71.5850  221.4790 H   0  0  0  0  0  0  0  0  0  0  0  0
  139.7374   71.6561  223.2268 H   0  0  0  0  0  0  0  0  0  0  0  0
  135.1147   70.2899  222.9812 H   0  0  0  0  0  0  0  0  0  0  0  0
  135.8973   70.3444  221.3847 H   0  0  0  0  0  0  0  0  0  0  0  0
  136.0586   67.9963  221.5426 H   0  0  0  0  0  0  0  0  0  0  0  0
  134.5830   67.5630  223.0480 H   0  0  0  0  0  0  0  0  0  0  0  0
  137.8149   67.4762  223.5555 H   0  0  0  0  0  0  0  0  0  0  0  0
  138.4209   68.4128  222.2214 H   0  0  0  0  0  0  0  0  0  0  0  0
  137.1754   69.4555  224.8744 H   0  0  0  0  0  0  0  0  0  0  0  0
  139.8083   69.3413  223.8803 H   0  0  0  0  0  0  0  0  0  0  0  0
  139.2158   71.0295  224.2561 H   0  0  0  0  0  0  0  0  0  0  0  0
  141.2812   70.1928  226.0707 H   0  0  0  0  0  0  0  0  0  0  0  0
  140.1739   71.5928  226.1008 H   0  0  0  0  0  0  0  0  0  0  0  0
  141.1266   70.8555  228.3624 H   0  0  0  0  0  0  0  0  0  0  0  0
  139.3209   70.9892  228.2536 H   0  0  0  0  0  0  0  0  0  0  0  0
  140.6921   68.8186  229.2554 H   0  0  0  0  0  0  0  0  0  0  0  0
  139.0243   68.7788  228.6433 H   0  0  0  0  0  0  0  0  0  0  0  0
  141.5627   68.3914  226.9443 H   0  0  0  0  0  0  0  0  0  0  0  0
  140.4727   67.0718  227.5137 H   0  0  0  0  0  0  0  0  0  0  0  0
  140.1845   68.0121  225.1055 H   0  0  0  0  0  0  0  0  0  0  0  0
  138.7265   67.7414  226.1562 H   0  0  0  0  0  0  0  0  0  0  0  0
  142.3074   75.0759  219.8088 H   0  0  0  0  0  0  0  0  0  0  0  0
  142.7800   77.5349  219.7005 H   0  0  0  0  0  0  0  0  0  0  0  0
  142.4537   79.7436  220.4780 H   0  0  0  0  0  0  0  0  0  0  0  0
  139.7511   80.4764  223.7646 H   0  0  0  0  0  0  0  0  0  0  0  0
  139.2948   78.0760  223.8658 H   0  0  0  0  0  0  0  0  0  0  0  0
  1  2  2  0
  2  3  1  0
  3  4  1  0
  4  5  1  0
  5  6  2  0
  5  7  1  0
  7  8  1  0
  8  9  1  0
  9 10  1  0
  9 11  1  0
 11 12  1  0
 12 13  1  0
 13 14  1  0
 14 15  1  0
 15 16  1  0
 16 17  1  0
 17 18  1  0
 18 19  1  0
  2 20  1  0
 20 21  2  0
 21 22  1  0
 22 23  2  0
 23 24  1  0
 24 25  2  0
 25 26  1  0
 25 27  1  0
 27 28  2  0
 28 29  1  0
 29 30  2  0
 12  7  1  0
 19 14  1  0
 30 20  1  0
 29 23  1  0
  3 31  1  0
  4 32  1  0
  4 33  1  0
  8 34  1  0
  8 35  1  0
  9 36  1  6
 10 37  1  0
 11 38  1  0
 11 39  1  0
 12 40  1  1
 13 41  1  0
 13 42  1  0
 15 43  1  0
 15 44  1  0
 16 45  1  0
 16 46  1  0
 17 47  1  0
 17 48  1  0
 18 49  1  0
 18 50  1  0
 19 51  1  0
 19 52  1  0
 21 53  1  0
 22 54  1  0
 24 55  1  0
 27 56  1  0
 28 57  1  0
M  END
>  <smiles>  (22) 
O=C(NCC(=O)N1C[C@H](O)C[C@H]1CN1CCCCC1)c1ccc2cc(Cl)ccc2n1

>  <score_type>  (22) 
oracle

>  <origin>  (22) 
autodockgpu

>  <m_score__min__energy>  (22) 
-9.2599999999999998

>  <m_primary>  (22) 
energy

>  <rmsd>  (22) 
9.531389522403991

>  <m_score__min__rmsd>  (22) 
9.531389522403991

>  <meeko>  (22) 
{"free_energy": -7.71, "intermolecular_energy": -9.8, "internal_energy": -1.79, "cluster_size": 5, "cluster_id": 4, "rank_in_cluster": 1}

>  <energy>  (22) 
-8.16

>  <cluster_rmsd>  (22) 
1.57

>  <cluster>  (22) 
1

$$$$

     RDKit          3D

 57 60  0  0  0  0  0  0  0  0999 V2000
  141.4230   76.2710  218.3360 O   0  0  0  0  0  0  0  0  0  0  0  0
  141.7410   77.0900  219.2590 C   0  0  0  0  0  0  0  0  0  0  0  0
  141.9740   76.5430  220.5470 N   0  0  0  0  0  0  0  0  0  0  0  0
  141.8610   75.1210  220.8240 C   0  0  0  0  0  0  0  0  0  0  0  0
  140.5220   74.8120  221.3830 C   0  0  0  0  0  0  0  0  0  0  0  0
  140.4010   73.7800  222.0880 O   0  0  0  0  0  0  0  0  0  0  0  0
  139.4540   75.6990  221.0870 N   0  0  0  0  0  0  0  0  0  0  0  0
  138.3190   75.4530  220.2050 C   0  0  0  0  0  0  0  0  0  0  0  0
  137.2010   76.3590  220.6580 C   0  0  2  0  0  0  0  0  0  0  0  0
  137.0700   77.3820  219.7250 O   0  0  0  0  0  0  0  0  0  0  0  0
  137.7610   76.9590  221.9270 C   0  0  0  0  0  0  0  0  0  0  0  0
  139.2250   77.0590  221.5830 C   0  0  1  0  0  0  0  0  0  0  0  0
  140.1220   77.3870  222.7190 C   0  0  0  0  0  0  0  0  0  0  0  0
  140.9290   78.5690  222.5000 N   0  0  0  0  0  0  0  0  0  0  0  0
  142.0090   78.6880  223.4620 C   0  0  0  0  0  0  0  0  0  0  0  0
  142.9410   79.7800  222.9830 C   0  0  0  0  0  0  0  0  0  0  0  0
  142.1870   81.0130  222.5550 C   0  0  0  0  0  0  0  0  0  0  0  0
  140.8000   80.9240  223.1860 C   0  0  0  0  0  0  0  0  0  0  0  0
  140.0600   79.7170  222.6650 C   0  0  0  0  0  0  0  0  0  0  0  0
  141.8530   78.5080  218.9830 C   0  0  0  0  0  0  0  0  0  0  0  0
  142.8560   79.0020  218.2030 C   0  0  0  0  0  0  0  0  0  0  0  0
  142.8730   80.3810  217.9980 C   0  0  0  0  0  0  0  0  0  0  0  0
  141.9240   81.2060  218.5550 C   0  0  0  0  0  0  0  0  0  0  0  0
  141.9730   82.5680  218.3290 C   0  0  0  0  0  0  0  0  0  0  0  0
  141.0200   83.4230  218.8860 C   0  0  0  0  0  0  0  0  0  0  0  0
  141.0660   85.1540  218.6100 Cl  0  0  0  0  0  0  0  0  0  0  0  0
  140.0150   82.8620  219.6780 C   0  0  0  0  0  0  0  0  0  0  0  0
  139.9990   81.5120  219.8780 C   0  0  0  0  0  0  0  0  0  0  0  0
  140.9310   80.6660  219.3360 C   0  0  0  0  0  0  0  0  0  0  0  0
  140.9360   79.3370  219.5180 N   0  0  0  0  0  0  0  0  0  0  0  0
  142.2350   77.2370  221.2990 H   0  0  0  0  0  0  0  0  0  0  0  0
  142.0040   74.5567  219.8907 H   0  0  0  0  0  0  0  0  0  0  0  0
  142.6301   74.8362  221.5571 H   0  0  0  0  0  0  0  0  0  0  0  0
  138.5928   75.6827  219.1647 H   0  0  0  0  0  0  0  0  0  0  0  0
  138.0104   74.3981  220.2489 H   0  0  0  0  0  0  0  0  0  0  0  0
  136.2326   75.8526  220.7831 H   0  0  0  0  0  0  0  0  0  0  0  0
  137.9580   77.8380  219.5640 H   0  0  0  0  0  0  0  0  0  0  0  0
  137.3264   77.9487  222.1308 H   0  0  0  0  0  0  0  0  0  0  0  0
  137.5496   76.3740  222.8343 H   0  0  0  0  0  0  0  0  0  0  0  0
  139.4489   77.8806  220.8867 H   0  0  0  0  0  0  0  0  0  0  0  0
  139.5037   77.5494  223.6142 H   0  0  0  0  0  0  0  0  0  0  0  0
  140.8154   76.5411  222.8361 H   0  0  0  0  0  0  0  0  0  0  0  0
  141.6023   78.9505  224.4498 H   0  0  0  0  0  0  0  0  0  0  0  0
  142.5500   77.7343  223.5504 H   0  0  0  0  0  0  0  0  0  0  0  0
  143.6257   80.0477  223.8012 H   0  0  0  0  0  0  0  0  0  0  0  0
  143.4946   79.3988  222.1122 H   0  0  0  0  0  0  0  0  0  0  0  0
  142.7064   81.9160  222.9083 H   0  0  0  0  0  0  0  0  0  0  0  0
  142.1184   81.0726  221.4588 H   0  0  0  0  0  0  0  0  0  0  0  0
  140.9035   80.8418  224.2780 H   0  0  0  0  0  0  0  0  0  0  0  0
  140.2319   81.8295  222.9265 H   0  0  0  0  0  0  0  0  0  0  0  0
  139.2617   79.4573  223.3758 H   0  0  0  0  0  0  0  0  0  0  0  0
  139.6499   79.9738  221.6771 H   0  0  0  0  0  0  0  0  0  0  0  0
  143.6159   78.3438  217.7565 H   0  0  0  0  0  0  0  0  0  0  0  0
  143.6658   80.8204  217.3748 H   0  0  0  0  0  0  0  0  0  0  0  0
  142.7743   82.9849  217.7012 H   0  0  0  0  0  0  0  0  0  0  0  0
  139.2453   83.5012  220.1352 H   0  0  0  0  0  0  0  0  0  0  0  0
  139.2016   81.0834  220.5028 H   0  0  0  0  0  0  0  0  0  0  0  0
  1  2  2  0
  2  3  1  0
  3  4  1  0
  4  5  1  0
  5  6  2  0
  5  7  1  0
  7  8  1  0
  8  9  1  0
  9 10  1  0
  9 11  1  0
 11 12  1  0
 12 13  1  0
 13 14  1  0
 14 15  1  0
 15 16  1  0
 16 17  1  0
 17 18  1  0
 18 19  1  0
  2 20  1  0
 20 21  2  0
 21 22  1  0
 22 23  2  0
 23 24  1  0
 24 25  2  0
 25 26  1  0
 25 27  1  0
 27 28  2  0
 28 29  1  0
 29 30  2  0
 12  7  1  0
 19 14  1  0
 30 20  1  0
 29 23  1  0
  3 31  1  0
  4 32  1  0
  4 33  1  0
  8 34  1  0
  8 35  1  0
  9 36  1  1
 10 37  1  0
 11 38  1  0
 11 39  1  0
 12 40  1  6
 13 41  1  0
 13 42  1  0
 15 43  1  0
 15 44  1  0
 16 45  1  0
 16 46  1  0
 17 47  1  0
 17 48  1  0
 18 49  1  0
 18 50  1  0
 19 51  1  0
 19 52  1  0
 21 53  1  0
 22 54  1  0
 24 55  1  0
 27 56  1  0
 28 57  1  0
M  END
>  <smiles>  (23) 
O=C(NCC(=O)N1C[C@H](O)C[C@H]1CN1CCCCC1)c1ccc2cc(Cl)ccc2n1

>  <score_type>  (23) 
oracle

>  <origin>  (23) 
autodockgpu

>  <m_score__min__energy>  (23) 
-9.2599999999999998

>  <m_primary>  (23) 
energy

>  <rmsd>  (23) 
8.571037054153205

>  <m_score__min__rmsd>  (23) 
8.571037054153205

>  <meeko>  (23) 
{"free_energy": -5.63, "intermolecular_energy": -7.72, "internal_energy": -3.63, "cluster_size": 1, "cluster_id": 12, "rank_in_cluster": 1}

>  <energy>  (23) 
-8.13

>  <cluster_rmsd>  (23) 
1.33

>  <cluster>  (23) 
1

$$$$

     RDKit          3D

 57 60  0  0  0  0  0  0  0  0999 V2000
  140.5380   72.5640  220.7600 O   0  0  0  0  0  0  0  0  0  0  0  0
  139.9200   72.7870  221.8520 C   0  0  0  0  0  0  0  0  0  0  0  0
  139.2290   74.0220  221.9560 N   0  0  0  0  0  0  0  0  0  0  0  0
  139.2120   74.9990  220.8810 C   0  0  0  0  0  0  0  0  0  0  0  0
  140.2630   76.0230  221.1010 C   0  0  0  0  0  0  0  0  0  0  0  0
  140.2660   76.6400  222.1950 O   0  0  0  0  0  0  0  0  0  0  0  0
  141.2050   76.2480  220.0620 N   0  0  0  0  0  0  0  0  0  0  0  0
  141.1710   77.2990  219.0520 C   0  0  0  0  0  0  0  0  0  0  0  0
  142.5910   77.5160  218.5910 C   0  0  2  0  0  0  0  0  0  0  0  0
  142.7160   76.9780  217.3150 O   0  0  0  0  0  0  0  0  0  0  0  0
  143.3790   76.6440  219.5410 C   0  0  0  0  0  0  0  0  0  0  0  0
  142.4230   75.4970  219.7490 C   0  0  1  0  0  0  0  0  0  0  0  0
  142.7860   74.5590  220.8390 C   0  0  0  0  0  0  0  0  0  0  0  0
  143.7150   73.5250  220.4320 N   0  0  0  0  0  0  0  0  0  0  0  0
  145.0990   73.9240  220.6100 C   0  0  0  0  0  0  0  0  0  0  0  0
  145.9650   72.6970  220.4260 C   0  0  0  0  0  0  0  0  0  0  0  0
  145.5690   71.9100  219.2020 C   0  0  0  0  0  0  0  0  0  0  0  0
  144.7600   72.8520  218.3140 C   0  0  0  0  0  0  0  0  0  0  0  0
  143.5000   73.2890  219.0180 C   0  0  0  0  0  0  0  0  0  0  0  0
  139.9380   71.8120  222.9240 C   0  0  0  0  0  0  0  0  0  0  0  0
  139.4710   70.5460  222.7390 C   0  0  0  0  0  0  0  0  0  0  0  0
  139.5350   69.6850  223.8330 C   0  0  0  0  0  0  0  0  0  0  0  0
  140.0440   70.0920  225.0450 C   0  0  0  0  0  0  0  0  0  0  0  0
  140.0910   69.2100  226.1060 C   0  0  0  0  0  0  0  0  0  0  0  0
  140.6040   69.6040  227.3450 C   0  0  0  0  0  0  0  0  0  0  0  0
  140.6710   68.4980  228.7040 Cl  0  0  0  0  0  0  0  0  0  0  0  0
  141.0680   70.9150  227.4780 C   0  0  0  0  0  0  0  0  0  0  0  0
  141.0050   71.7570  226.4060 C   0  0  0  0  0  0  0  0  0  0  0  0
  140.5030   71.3790  225.1880 C   0  0  0  0  0  0  0  0  0  0  0  0
  140.4320   72.1870  224.1200 N   0  0  0  0  0  0  0  0  0  0  0  0
  138.7250   74.1890  222.8680 H   0  0  0  0  0  0  0  0  0  0  0  0
  139.3965   74.4891  219.9239 H   0  0  0  0  0  0  0  0  0  0  0  0
  138.2292   75.4927  220.8609 H   0  0  0  0  0  0  0  0  0  0  0  0
  140.5424   76.9880  218.2046 H   0  0  0  0  0  0  0  0  0  0  0  0
  140.7471   78.2261  219.4653 H   0  0  0  0  0  0  0  0  0  0  0  0
  142.9049   78.5701  218.5753 H   0  0  0  0  0  0  0  0  0  0  0  0
  143.6450   76.6060  217.1710 H   0  0  0  0  0  0  0  0  0  0  0  0
  144.3225   76.3051  219.0882 H   0  0  0  0  0  0  0  0  0  0  0  0
  143.6852   77.1497  220.4686 H   0  0  0  0  0  0  0  0  0  0  0  0
  142.3727   74.8154  218.8871 H   0  0  0  0  0  0  0  0  0  0  0  0
  143.2446   75.1361  221.6555 H   0  0  0  0  0  0  0  0  0  0  0  0
  141.8596   74.0543  221.1506 H   0  0  0  0  0  0  0  0  0  0  0  0
  145.3671   74.6859  219.8633 H   0  0  0  0  0  0  0  0  0  0  0  0
  145.2483   74.3511  221.6126 H   0  0  0  0  0  0  0  0  0  0  0  0
  147.0133   73.0135  220.3219 H   0  0  0  0  0  0  0  0  0  0  0  0
  145.8326   72.0502  221.3058 H   0  0  0  0  0  0  0  0  0  0  0  0
  146.4661   71.5636  218.6680 H   0  0  0  0  0  0  0  0  0  0  0  0
  144.9790   71.0233  219.4770 H   0  0  0  0  0  0  0  0  0  0  0  0
  145.3680   73.7375  218.0770 H   0  0  0  0  0  0  0  0  0  0  0  0
  144.4858   72.3221  217.3899 H   0  0  0  0  0  0  0  0  0  0  0  0
  143.1401   74.2194  218.5545 H   0  0  0  0  0  0  0  0  0  0  0  0
  142.7611   72.4801  218.9198 H   0  0  0  0  0  0  0  0  0  0  0  0
  139.0625   70.2185  221.7716 H   0  0  0  0  0  0  0  0  0  0  0  0
  139.1692   68.6533  223.7249 H   0  0  0  0  0  0  0  0  0  0  0  0
  139.7196   68.1830  225.9745 H   0  0  0  0  0  0  0  0  0  0  0  0
  141.4796   71.2647  228.4363 H   0  0  0  0  0  0  0  0  0  0  0  0
  141.3741   72.7864  226.5249 H   0  0  0  0  0  0  0  0  0  0  0  0
  1  2  2  0
  2  3  1  0
  3  4  1  0
  4  5  1  0
  5  6  2  0
  5  7  1  0
  7  8  1  0
  8  9  1  0
  9 10  1  0
  9 11  1  0
 11 12  1  0
 12 13  1  0
 13 14  1  0
 14 15  1  0
 15 16  1  0
 16 17  1  0
 17 18  1  0
 18 19  1  0
  2 20  1  0
 20 21  2  0
 21 22  1  0
 22 23  2  0
 23 24  1  0
 24 25  2  0
 25 26  1  0
 25 27  1  0
 27 28  2  0
 28 29  1  0
 29 30  2  0
 12  7  1  0
 19 14  1  0
 30 20  1  0
 29 23  1  0
  3 31  1  0
  4 32  1  0
  4 33  1  0
  8 34  1  0
  8 35  1  0
  9 36  1  6
 10 37  1  0
 11 38  1  0
 11 39  1  0
 12 40  1  6
 13 41  1  0
 13 42  1  0
 15 43  1  0
 15 44  1  0
 16 45  1  0
 16 46  1  0
 17 47  1  0
 17 48  1  0
 18 49  1  0
 18 50  1  0
 19 51  1  0
 19 52  1  0
 21 53  1  0
 22 54  1  0
 24 55  1  0
 27 56  1  0
 28 57  1  0
M  END
>  <smiles>  (24) 
O=C(NCC(=O)N1C[C@H](O)C[C@H]1CN1CCCCC1)c1ccc2cc(Cl)ccc2n1

>  <score_type>  (24) 
oracle

>  <origin>  (24) 
autodockgpu

>  <m_score__min__energy>  (24) 
-9.2599999999999998

>  <m_primary>  (24) 
energy

>  <rmsd>  (24) 
4.5983506385730335

>  <m_score__min__rmsd>  (24) 
4.5983506385730335

>  <meeko>  (24) 
{"free_energy": -7.7, "intermolecular_energy": -9.79, "internal_energy": -1.85, "cluster_size": 3, "cluster_id": 5, "rank_in_cluster": 1}

>  <energy>  (24) 
-8.1

>  <cluster_rmsd>  (24) 
1.24

>  <cluster>  (24) 
1

$$$$

     RDKit          3D

 57 60  0  0  0  0  0  0  0  0999 V2000
  142.5570   79.7110  218.4670 O   0  0  0  0  0  0  0  0  0  0  0  0
  141.8910   78.6530  218.7150 C   0  0  0  0  0  0  0  0  0  0  0  0
  140.5750   78.8280  219.2150 N   0  0  0  0  0  0  0  0  0  0  0  0
  139.9940   80.1410  219.4400 C   0  0  0  0  0  0  0  0  0  0  0  0
  139.8840   80.4100  220.8960 C   0  0  0  0  0  0  0  0  0  0  0  0
  138.7830   80.8210  221.3390 O   0  0  0  0  0  0  0  0  0  0  0  0
  141.0300   80.1880  221.7040 N   0  0  0  0  0  0  0  0  0  0  0  0
  142.1020   81.1330  221.9950 C   0  0  0  0  0  0  0  0  0  0  0  0
  142.7250   80.7080  223.3010 C   0  0  2  0  0  0  0  0  0  0  0  0
  143.9670   80.1470  223.0240 O   0  0  0  0  0  0  0  0  0  0  0  0
  141.8060   79.5970  223.7540 C   0  0  0  0  0  0  0  0  0  0  0  0
  141.4180   78.9800  222.4350 C   0  0  1  0  0  0  0  0  0  0  0  0
  140.3100   77.9950  222.4980 C   0  0  0  0  0  0  0  0  0  0  0  0
  140.3120   77.0480  221.4020 N   0  0  0  0  0  0  0  0  0  0  0  0
  138.9770   76.5860  221.0680 C   0  0  0  0  0  0  0  0  0  0  0  0
  139.0590   75.8350  219.7570 C   0  0  0  0  0  0  0  0  0  0  0  0
  140.2090   74.8600  219.7400 C   0  0  0  0  0  0  0  0  0  0  0  0
  140.6040   74.6180  221.1950 C   0  0  0  0  0  0  0  0  0  0  0  0
  141.0840   75.8990  221.8310 C   0  0  0  0  0  0  0  0  0  0  0  0
  142.4700   77.3440  218.4900 C   0  0  0  0  0  0  0  0  0  0  0  0
  142.4010   76.7370  217.2720 C   0  0  0  0  0  0  0  0  0  0  0  0
  142.9920   75.4790  217.1600 C   0  0  0  0  0  0  0  0  0  0  0  0
  143.6160   74.8770  218.2280 C   0  0  0  0  0  0  0  0  0  0  0  0
  144.1910   73.6300  218.0790 C   0  0  0  0  0  0  0  0  0  0  0  0
  144.8290   73.0000  219.1500 C   0  0  0  0  0  0  0  0  0  0  0  0
  145.5630   71.4180  218.9800 Cl  0  0  0  0  0  0  0  0  0  0  0  0
  144.8690   73.6690  220.3760 C   0  0  0  0  0  0  0  0  0  0  0  0
  144.2900   74.9000  220.4850 C   0  0  0  0  0  0  0  0  0  0  0  0
  143.6620   75.5240  219.4390 C   0  0  0  0  0  0  0  0  0  0  0  0
  143.0870   76.7330  219.5200 N   0  0  0  0  0  0  0  0  0  0  0  0
  140.0390   77.9400  219.4150 H   0  0  0  0  0  0  0  0  0  0  0  0
  140.6343   80.9060  218.9765 H   0  0  0  0  0  0  0  0  0  0  0  0
  138.9896   80.1707  218.9925 H   0  0  0  0  0  0  0  0  0  0  0  0
  142.8542   81.1092  221.1927 H   0  0  0  0  0  0  0  0  0  0  0  0
  141.7118   82.1592  222.0629 H   0  0  0  0  0  0  0  0  0  0  0  0
  142.8469   81.5232  224.0294 H   0  0  0  0  0  0  0  0  0  0  0  0
  143.9220   79.5620  222.2010 H   0  0  0  0  0  0  0  0  0  0  0  0
  142.3321   78.8759  224.3968 H   0  0  0  0  0  0  0  0  0  0  0  0
  140.9538   79.9361  224.3612 H   0  0  0  0  0  0  0  0  0  0  0  0
  142.2202   78.3731  221.9899 H   0  0  0  0  0  0  0  0  0  0  0  0
  140.3956   77.4354  223.4411 H   0  0  0  0  0  0  0  0  0  0  0  0
  139.3701   78.5626  222.4317 H   0  0  0  0  0  0  0  0  0  0  0  0
  138.6040   75.9182  221.8585 H   0  0  0  0  0  0  0  0  0  0  0  0
  138.2877   77.4386  220.9786 H   0  0  0  0  0  0  0  0  0  0  0  0
  138.1208   75.2813  219.6048 H   0  0  0  0  0  0  0  0  0  0  0  0
  139.2210   76.5681  218.9531 H   0  0  0  0  0  0  0  0  0  0  0  0
  139.8977   73.9154  219.2700 H   0  0  0  0  0  0  0  0  0  0  0  0
  141.0559   75.2587  219.1623 H   0  0  0  0  0  0  0  0  0  0  0  0
  139.7312   74.2431  221.7497 H   0  0  0  0  0  0  0  0  0  0  0  0
  141.4179   73.8786  221.2250 H   0  0  0  0  0  0  0  0  0  0  0  0
  141.0005   75.8045  222.9237 H   0  0  0  0  0  0  0  0  0  0  0  0
  142.1271   76.0590  221.5206 H   0  0  0  0  0  0  0  0  0  0  0  0
  141.9024   77.2170  216.4170 H   0  0  0  0  0  0  0  0  0  0  0  0
  142.9584   74.9549  216.1935 H   0  0  0  0  0  0  0  0  0  0  0  0
  144.1458   73.1256  217.1025 H   0  0  0  0  0  0  0  0  0  0  0  0
  145.3622   73.2081  221.2446 H   0  0  0  0  0  0  0  0  0  0  0  0
  144.3292   75.4146  221.4564 H   0  0  0  0  0  0  0  0  0  0  0  0
  1  2  2  0
  2  3  1  0
  3  4  1  0
  4  5  1  0
  5  6  2  0
  5  7  1  0
  7  8  1  0
  8  9  1  0
  9 10  1  0
  9 11  1  0
 11 12  1  0
 12 13  1  0
 13 14  1  0
 14 15  1  0
 15 16  1  0
 16 17  1  0
 17 18  1  0
 18 19  1  0
  2 20  1  0
 20 21  2  0
 21 22  1  0
 22 23  2  0
 23 24  1  0
 24 25  2  0
 25 26  1  0
 25 27  1  0
 27 28  2  0
 28 29  1  0
 29 30  2  0
 12  7  1  0
 19 14  1  0
 30 20  1  0
 29 23  1  0
  3 31  1  0
  4 32  1  0
  4 33  1  0
  8 34  1  0
  8 35  1  0
  9 36  1  1
 10 37  1  0
 11 38  1  0
 11 39  1  0
 12 40  1  6
 13 41  1  0
 13 42  1  0
 15 43  1  0
 15 44  1  0
 16 45  1  0
 16 46  1  0
 17 47  1  0
 17 48  1  0
 18 49  1  0
 18 50  1  0
 19 51  1  0
 19 52  1  0
 21 53  1  0
 22 54  1  0
 24 55  1  0
 27 56  1  0
 28 57  1  0
M  END
>  <smiles>  (25) 
O=C(NCC(=O)N1C[C@H](O)C[C@H]1CN1CCCCC1)c1ccc2cc(Cl)ccc2n1

>  <score_type>  (25) 
oracle

>  <origin>  (25) 
autodockgpu

>  <m_score__min__energy>  (25) 
-9.2599999999999998

>  <m_primary>  (25) 
energy

>  <rmsd>  (25) 
7.883582942310753

>  <m_score__min__rmsd>  (25) 
7.883582942310753

>  <meeko>  (25) 
{"free_energy": -5.72, "intermolecular_energy": -7.81, "internal_energy": -3.68, "cluster_size": 2, "cluster_id": 11, "rank_in_cluster": 2}

>  <energy>  (25) 
-8.05

>  <cluster_rmsd>  (25) 
1.33

>  <cluster>  (25) 
1

$$$$

     RDKit          3D

 57 60  0  0  0  0  0  0  0  0999 V2000
  140.8760   72.9440  221.2990 O   0  0  0  0  0  0  0  0  0  0  0  0
  140.0320   72.9450  222.2550 C   0  0  0  0  0  0  0  0  0  0  0  0
  139.1010   74.0150  222.2850 N   0  0  0  0  0  0  0  0  0  0  0  0
  139.0900   75.0690  221.2850 C   0  0  0  0  0  0  0  0  0  0  0  0
  139.9770   76.1820  221.7040 C   0  0  0  0  0  0  0  0  0  0  0  0
  139.6420   76.8570  222.7090 O   0  0  0  0  0  0  0  0  0  0  0  0
  141.1530   76.4220  220.9450 N   0  0  0  0  0  0  0  0  0  0  0  0
  142.0940   75.4310  220.4360 C   0  0  0  0  0  0  0  0  0  0  0  0
  142.7840   76.0450  219.2450 C   0  0  2  0  0  0  0  0  0  0  0  0
  144.0860   76.3640  219.6170 O   0  0  0  0  0  0  0  0  0  0  0  0
  142.0260   77.3390  219.0600 C   0  0  0  0  0  0  0  0  0  0  0  0
  141.7060   77.6990  220.4880 C   0  0  1  0  0  0  0  0  0  0  0  0
  140.7380   78.8110  220.6610 C   0  0  0  0  0  0  0  0  0  0  0  0
  141.0270   79.6620  221.7960 N   0  0  0  0  0  0  0  0  0  0  0  0
  141.4560   80.9890  221.3970 C   0  0  0  0  0  0  0  0  0  0  0  0
  141.4600   81.8680  222.6290 C   0  0  0  0  0  0  0  0  0  0  0  0
  142.1270   81.1910  223.7990 C   0  0  0  0  0  0  0  0  0  0  0  0
  142.9820   80.0630  223.2270 C   0  0  0  0  0  0  0  0  0  0  0  0
  142.1150   79.0460  222.5280 C   0  0  0  0  0  0  0  0  0  0  0  0
  140.0430   71.8930  223.2520 C   0  0  0  0  0  0  0  0  0  0  0  0
  139.5940   70.6390  222.9660 C   0  0  0  0  0  0  0  0  0  0  0  0
  139.6490   69.7000  223.9950 C   0  0  0  0  0  0  0  0  0  0  0  0
  140.1320   70.0220  225.2420 C   0  0  0  0  0  0  0  0  0  0  0  0
  140.1710   69.0650  226.2360 C   0  0  0  0  0  0  0  0  0  0  0  0
  140.6580   69.3710  227.5090 C   0  0  0  0  0  0  0  0  0  0  0  0
  140.7150   68.1690  228.7840 Cl  0  0  0  0  0  0  0  0  0  0  0  0
  141.1040   70.6730  227.7470 C   0  0  0  0  0  0  0  0  0  0  0  0
  141.0500   71.5920  226.7390 C   0  0  0  0  0  0  0  0  0  0  0  0
  140.5740   71.3000  225.4880 C   0  0  0  0  0  0  0  0  0  0  0  0
  140.5110   72.1840  224.4810 N   0  0  0  0  0  0  0  0  0  0  0  0
  138.4110   73.9990  223.0840 H   0  0  0  0  0  0  0  0  0  0  0  0
  139.4442   74.6635  220.3258 H   0  0  0  0  0  0  0  0  0  0  0  0
  138.0637   75.4495  221.1758 H   0  0  0  0  0  0  0  0  0  0  0  0
  142.8325   75.1789  221.2113 H   0  0  0  0  0  0  0  0  0  0  0  0
  141.5719   74.5055  220.1516 H   0  0  0  0  0  0  0  0  0  0  0  0
  142.8064   75.3993  218.3547 H   0  0  0  0  0  0  0  0  0  0  0  0
  144.0960   77.1480  220.2560 H   0  0  0  0  0  0  0  0  0  0  0  0
  142.6511   78.1072  218.5812 H   0  0  0  0  0  0  0  0  0  0  0  0
  141.1444   77.2559  218.4074 H   0  0  0  0  0  0  0  0  0  0  0  0
  142.5759   78.0839  221.0404 H   0  0  0  0  0  0  0  0  0  0  0  0
  140.7524   79.4288  219.7510 H   0  0  0  0  0  0  0  0  0  0  0  0
  139.7535   78.3552  220.8429 H   0  0  0  0  0  0  0  0  0  0  0  0
  142.4681   80.9414  220.9689 H   0  0  0  0  0  0  0  0  0  0  0  0
  140.7748   81.3989  220.6367 H   0  0  0  0  0  0  0  0  0  0  0  0
  142.0007   82.7983  222.4006 H   0  0  0  0  0  0  0  0  0  0  0  0
  140.4153   82.0746  222.9043 H   0  0  0  0  0  0  0  0  0  0  0  0
  142.7603   81.9087  224.3411 H   0  0  0  0  0  0  0  0  0  0  0  0
  141.3810   80.8008  224.5070 H   0  0  0  0  0  0  0  0  0  0  0  0
  143.7002   80.4824  222.5071 H   0  0  0  0  0  0  0  0  0  0  0  0
  143.5166   79.5685  224.0514 H   0  0  0  0  0  0  0  0  0  0  0  0
  142.7373   78.4753  221.8230 H   0  0  0  0  0  0  0  0  0  0  0  0
  141.6764   78.3924  223.2964 H   0  0  0  0  0  0  0  0  0  0  0  0
  139.2062   70.3795  221.9699 H   0  0  0  0  0  0  0  0  0  0  0  0
  139.2971   68.6753  223.8048 H   0  0  0  0  0  0  0  0  0  0  0  0
  139.8135   68.0468  226.0226 H   0  0  0  0  0  0  0  0  0  0  0  0
  141.4945   70.9548  228.7360 H   0  0  0  0  0  0  0  0  0  0  0  0
  141.4049   72.6135  226.9404 H   0  0  0  0  0  0  0  0  0  0  0  0
  1  2  2  0
  2  3  1  0
  3  4  1  0
  4  5  1  0
  5  6  2  0
  5  7  1  0
  7  8  1  0
  8  9  1  0
  9 10  1  0
  9 11  1  0
 11 12  1  0
 12 13  1  0
 13 14  1  0
 14 15  1  0
 15 16  1  0
 16 17  1  0
 17 18  1  0
 18 19  1  0
  2 20  1  0
 20 21  2  0
 21 22  1  0
 22 23  2  0
 23 24  1  0
 24 25  2  0
 25 26  1  0
 25 27  1  0
 27 28  2  0
 28 29  1  0
 29 30  2  0
 12  7  1  0
 19 14  1  0
 30 20  1  0
 29 23  1  0
  3 31  1  0
  4 32  1  0
  4 33  1  0
  8 34  1  0
  8 35  1  0
  9 36  1  6
 10 37  1  0
 11 38  1  0
 11 39  1  0
 12 40  1  1
 13 41  1  0
 13 42  1  0
 15 43  1  0
 15 44  1  0
 16 45  1  0
 16 46  1  0
 17 47  1  0
 17 48  1  0
 18 49  1  0
 18 50  1  0
 19 51  1  0
 19 52  1  0
 21 53  1  0
 22 54  1  0
 24 55  1  0
 27 56  1  0
 28 57  1  0
M  END
>  <smiles>  (26) 
O=C(NCC(=O)N1C[C@H](O)C[C@H]1CN1CCCCC1)c1ccc2cc(Cl)ccc2n1

>  <score_type>  (26) 
oracle

>  <origin>  (26) 
autodockgpu

>  <m_score__min__energy>  (26) 
-9.2599999999999998

>  <m_primary>  (26) 
energy

>  <rmsd>  (26) 
2.4364920893132394

>  <m_score__min__rmsd>  (26) 
2.4364920893132394

>  <meeko>  (26) 
{"free_energy": -9.26, "intermolecular_energy": -11.34, "internal_energy": -1.51, "cluster_size": 30, "cluster_id": 1, "rank_in_cluster": 1}

>  <energy>  (26) 
-7.97

>  <cluster_rmsd>  (26) 
1.41

>  <cluster>  (26) 
1

$$$$

     RDKit          3D

 57 60  0  0  0  0  0  0  0  0999 V2000
  140.7230   75.9600  220.3130 O   0  0  0  0  0  0  0  0  0  0  0  0
  140.2210   75.9040  221.4840 C   0  0  0  0  0  0  0  0  0  0  0  0
  139.9880   74.6120  222.0190 N   0  0  0  0  0  0  0  0  0  0  0  0
  140.2970   73.3960  221.2860 C   0  0  0  0  0  0  0  0  0  0  0  0
  140.3440   72.2370  222.2120 C   0  0  0  0  0  0  0  0  0  0  0  0
  141.4320   71.6220  222.3340 O   0  0  0  0  0  0  0  0  0  0  0  0
  139.1540   71.8870  222.9050 N   0  0  0  0  0  0  0  0  0  0  0  0
  137.8020   72.3610  222.6330 C   0  0  0  0  0  0  0  0  0  0  0  0
  136.8520   71.3190  223.1660 C   0  0  2  0  0  0  0  0  0  0  0  0
  136.2640   71.8220  224.3220 O   0  0  0  0  0  0  0  0  0  0  0  0
  137.7870   70.2020  223.5720 C   0  0  0  0  0  0  0  0  0  0  0  0
  138.9880   70.9810  224.0430 C   0  0  1  0  0  0  0  0  0  0  0  0
  140.2100   70.1750  224.2880 C   0  0  0  0  0  0  0  0  0  0  0  0
  140.6360   70.1710  225.6720 N   0  0  0  0  0  0  0  0  0  0  0  0
  139.5900   69.7250  226.5720 C   0  0  0  0  0  0  0  0  0  0  0  0
  140.2130   69.4920  227.9310 C   0  0  0  0  0  0  0  0  0  0  0  0
  141.1090   70.6340  228.3400 C   0  0  0  0  0  0  0  0  0  0  0  0
  140.7180   71.8320  227.4790 C   0  0  0  0  0  0  0  0  0  0  0  0
  140.9690   71.5380  226.0210 C   0  0  0  0  0  0  0  0  0  0  0  0
  139.9120   77.1170  222.2150 C   0  0  0  0  0  0  0  0  0  0  0  0
  140.8960   77.8830  222.7660 C   0  0  0  0  0  0  0  0  0  0  0  0
  140.4930   79.0300  223.4470 C   0  0  0  0  0  0  0  0  0  0  0  0
  139.1660   79.3770  223.5580 C   0  0  0  0  0  0  0  0  0  0  0  0
  138.8050   80.5220  224.2400 C   0  0  0  0  0  0  0  0  0  0  0  0
  137.4630   80.8910  224.3650 C   0  0  0  0  0  0  0  0  0  0  0  0
  136.9860   82.3400  225.2270 Cl  0  0  0  0  0  0  0  0  0  0  0  0
  136.4980   80.0680  223.7800 C   0  0  0  0  0  0  0  0  0  0  0  0
  136.8930   78.9440  223.1140 C   0  0  0  0  0  0  0  0  0  0  0  0
  138.2070   78.5750  222.9870 C   0  0  0  0  0  0  0  0  0  0  0  0
  138.6210   77.4770  222.3370 N   0  0  0  0  0  0  0  0  0  0  0  0
  139.5710   74.5860  222.9890 H   0  0  0  0  0  0  0  0  0  0  0  0
  139.5208   73.2227  220.5261 H   0  0  0  0  0  0  0  0  0  0  0  0
  141.2783   73.5084  220.8018 H   0  0  0  0  0  0  0  0  0  0  0  0
  137.6302   73.3225  223.1390 H   0  0  0  0  0  0  0  0  0  0  0  0
  137.6502   72.5144  221.5544 H   0  0  0  0  0  0  0  0  0  0  0  0
  136.0664   71.0201  222.4564 H   0  0  0  0  0  0  0  0  0  0  0  0
  136.7220   72.6740  224.6170 H   0  0  0  0  0  0  0  0  0  0  0  0
  137.3591   69.5926  224.3817 H   0  0  0  0  0  0  0  0  0  0  0  0
  138.0032   69.4808  222.7701 H   0  0  0  0  0  0  0  0  0  0  0  0
  138.8393   71.4503  225.0267 H   0  0  0  0  0  0  0  0  0  0  0  0
  140.0086   69.1374  223.9835 H   0  0  0  0  0  0  0  0  0  0  0  0
  141.0208   70.6338  223.7031 H   0  0  0  0  0  0  0  0  0  0  0  0
  138.8079   70.4949  226.6466 H   0  0  0  0  0  0  0  0  0  0  0  0
  139.1316   68.7981  226.1969 H   0  0  0  0  0  0  0  0  0  0  0  0
  139.4113   69.3840  228.6764 H   0  0  0  0  0  0  0  0  0  0  0  0
  140.8258   68.5803  227.8742 H   0  0  0  0  0  0  0  0  0  0  0  0
  140.9614   70.8685  229.4045 H   0  0  0  0  0  0  0  0  0  0  0  0
  142.1685   70.3748  228.1975 H   0  0  0  0  0  0  0  0  0  0  0  0
  139.6499   72.0503  227.6258 H   0  0  0  0  0  0  0  0  0  0  0  0
  141.3262   72.6986  227.7774 H   0  0  0  0  0  0  0  0  0  0  0  0
  140.3557   72.2184  225.4119 H   0  0  0  0  0  0  0  0  0  0  0  0
  142.0420   71.6838  225.8273 H   0  0  0  0  0  0  0  0  0  0  0  0
  141.9575   77.6087  222.6772 H   0  0  0  0  0  0  0  0  0  0  0  0
  141.2556   79.6750  223.9079 H   0  0  0  0  0  0  0  0  0  0  0  0
  139.5850   81.1528  224.6914 H   0  0  0  0  0  0  0  0  0  0  0  0
  135.4306   80.3231  223.8552 H   0  0  0  0  0  0  0  0  0  0  0  0
  136.1219   78.3053  222.6585 H   0  0  0  0  0  0  0  0  0  0  0  0
  1  2  2  0
  2  3  1  0
  3  4  1  0
  4  5  1  0
  5  6  2  0
  5  7  1  0
  7  8  1  0
  8  9  1  0
  9 10  1  0
  9 11  1  0
 11 12  1  0
 12 13  1  0
 13 14  1  0
 14 15  1  0
 15 16  1  0
 16 17  1  0
 17 18  1  0
 18 19  1  0
  2 20  1  0
 20 21  2  0
 21 22  1  0
 22 23  2  0
 23 24  1  0
 24 25  2  0
 25 26  1  0
 25 27  1  0
 27 28  2  0
 28 29  1  0
 29 30  2  0
 12  7  1  0
 19 14  1  0
 30 20  1  0
 29 23  1  0
  3 31  1  0
  4 32  1  0
  4 33  1  0
  8 34  1  0
  8 35  1  0
  9 36  1  6
 10 37  1  0
 11 38  1  0
 11 39  1  0
 12 40  1  1
 13 41  1  0
 13 42  1  0
 15 43  1  0
 15 44  1  0
 16 45  1  0
 16 46  1  0
 17 47  1  0
 17 48  1  0
 18 49  1  0
 18 50  1  0
 19 51  1  0
 19 52  1  0
 21 53  1  0
 22 54  1  0
 24 55  1  0
 27 56  1  0
 28 57  1  0
M  END
>  <smiles>  (27) 
O=C(NCC(=O)N1C[C@H](O)C[C@H]1CN1CCCCC1)c1ccc2cc(Cl)ccc2n1

>  <score_type>  (27) 
oracle

>  <origin>  (27) 
autodockgpu

>  <m_score__min__energy>  (27) 
-9.2599999999999998

>  <m_primary>  (27) 
energy

>  <rmsd>  (27) 
9.142376881212527

>  <m_score__min__rmsd>  (27) 
9.142376881212527

>  <meeko>  (27) 
{"free_energy": -7.67, "intermolecular_energy": -9.76, "internal_energy": -1.3, "cluster_size": 1, "cluster_id": 6, "rank_in_cluster": 1}

>  <energy>  (27) 
-7.9

>  <cluster_rmsd>  (27) 
1.58

>  <cluster>  (27) 
1

$$$$

     RDKit          3D

 57 60  0  0  0  0  0  0  0  0999 V2000
  138.8530   72.0740  220.8080 O   0  0  0  0  0  0  0  0  0  0  0  0
  139.2590   72.4440  221.9590 C   0  0  0  0  0  0  0  0  0  0  0  0
  139.4800   73.8330  222.1430 N   0  0  0  0  0  0  0  0  0  0  0  0
  139.2630   74.8050  221.0860 C   0  0  0  0  0  0  0  0  0  0  0  0
  140.1090   74.4820  219.9100 C   0  0  0  0  0  0  0  0  0  0  0  0
  139.5450   74.0250  218.8850 O   0  0  0  0  0  0  0  0  0  0  0  0
  141.5080   74.7070  220.0120 N   0  0  0  0  0  0  0  0  0  0  0  0
  142.5790   73.7700  219.6930 C   0  0  0  0  0  0  0  0  0  0  0  0
  143.8030   74.5900  219.3720 C   0  0  2  0  0  0  0  0  0  0  0  0
  144.6910   74.4730  220.4360 O   0  0  0  0  0  0  0  0  0  0  0  0
  143.2610   76.0000  219.3740 C   0  0  0  0  0  0  0  0  0  0  0  0
  142.2140   75.9120  220.4540 C   0  0  1  0  0  0  0  0  0  0  0  0
  141.3030   77.0780  220.5510 C   0  0  0  0  0  0  0  0  0  0  0  0
  141.7500   78.0890  221.4870 N   0  0  0  0  0  0  0  0  0  0  0  0
  141.0460   78.0200  222.7540 C   0  0  0  0  0  0  0  0  0  0  0  0
  141.7680   78.9150  223.7380 C   0  0  0  0  0  0  0  0  0  0  0  0
  142.0910   80.2610  223.1390 C   0  0  0  0  0  0  0  0  0  0  0  0
  141.1770   80.4360  221.9290 C   0  0  0  0  0  0  0  0  0  0  0  0
  141.4650   79.3800  220.8920 C   0  0  0  0  0  0  0  0  0  0  0  0
  139.4750   71.4740  223.0130 C   0  0  0  0  0  0  0  0  0  0  0  0
  139.1420   70.1630  222.8500 C   0  0  0  0  0  0  0  0  0  0  0  0
  139.3930   69.3110  223.9250 C   0  0  0  0  0  0  0  0  0  0  0  0
  139.9510   69.7700  225.0960 C   0  0  0  0  0  0  0  0  0  0  0  0
  140.1860   68.8960  226.1390 C   0  0  0  0  0  0  0  0  0  0  0  0
  140.7510   69.3410  227.3360 C   0  0  0  0  0  0  0  0  0  0  0  0
  141.0550   68.2460  228.6710 Cl  0  0  0  0  0  0  0  0  0  0  0  0
  141.0720   70.6960  227.4480 C   0  0  0  0  0  0  0  0  0  0  0  0
  140.8260   71.5300  226.3950 C   0  0  0  0  0  0  0  0  0  0  0  0
  140.2710   71.1000  225.2170 C   0  0  0  0  0  0  0  0  0  0  0  0
  140.0200   71.8990  224.1690 N   0  0  0  0  0  0  0  0  0  0  0  0
  139.8170   74.1190  223.1020 H   0  0  0  0  0  0  0  0  0  0  0  0
  138.2044   74.7870  220.7878 H   0  0  0  0  0  0  0  0  0  0  0  0
  139.5320   75.8048  221.4575 H   0  0  0  0  0  0  0  0  0  0  0  0
  142.7779   73.1163  220.5550 H   0  0  0  0  0  0  0  0  0  0  0  0
  142.3006   73.1315  218.8416 H   0  0  0  0  0  0  0  0  0  0  0  0
  144.3095   74.2992  218.4398 H   0  0  0  0  0  0  0  0  0  0  0  0
  145.6070   74.8160  220.1800 H   0  0  0  0  0  0  0  0  0  0  0  0
  144.0421   76.7313  219.6289 H   0  0  0  0  0  0  0  0  0  0  0  0
  142.8763   76.3363  218.3998 H   0  0  0  0  0  0  0  0  0  0  0  0
  142.6409   75.8885  221.4675 H   0  0  0  0  0  0  0  0  0  0  0  0
  141.2208   77.5384  219.5554 H   0  0  0  0  0  0  0  0  0  0  0  0
  140.3374   76.7021  220.9202 H   0  0  0  0  0  0  0  0  0  0  0  0
  140.0099   78.3661  222.6249 H   0  0  0  0  0  0  0  0  0  0  0  0
  141.0240   76.9842  223.1237 H   0  0  0  0  0  0  0  0  0  0  0  0
  141.1284   79.0624  224.6207 H   0  0  0  0  0  0  0  0  0  0  0  0
  142.7149   78.4271  224.0126 H   0  0  0  0  0  0  0  0  0  0  0  0
  141.9030   81.0575  223.8740 H   0  0  0  0  0  0  0  0  0  0  0  0
  143.1496   80.3187  222.8457 H   0  0  0  0  0  0  0  0  0  0  0  0
  140.1289   80.3500  222.2517 H   0  0  0  0  0  0  0  0  0  0  0  0
  141.3579   81.4270  221.4871 H   0  0  0  0  0  0  0  0  0  0  0  0
  140.5885   79.2810  220.2348 H   0  0  0  0  0  0  0  0  0  0  0  0
  142.3555   79.6952  220.3285 H   0  0  0  0  0  0  0  0  0  0  0  0
  138.6962   69.7940  221.9145 H   0  0  0  0  0  0  0  0  0  0  0  0
  139.1384   68.2447  223.8345 H   0  0  0  0  0  0  0  0  0  0  0  0
  139.9243   67.8337  226.0253 H   0  0  0  0  0  0  0  0  0  0  0  0
  141.5181   71.0869  228.3744 H   0  0  0  0  0  0  0  0  0  0  0  0
  141.0846   72.5944  226.4963 H   0  0  0  0  0  0  0  0  0  0  0  0
  1  2  2  0
  2  3  1  0
  3  4  1  0
  4  5  1  0
  5  6  2  0
  5  7  1  0
  7  8  1  0
  8  9  1  0
  9 10  1  0
  9 11  1  0
 11 12  1  0
 12 13  1  0
 13 14  1  0
 14 15  1  0
 15 16  1  0
 16 17  1  0
 17 18  1  0
 18 19  1  0
  2 20  1  0
 20 21  2  0
 21 22  1  0
 22 23  2  0
 23 24  1  0
 24 25  2  0
 25 26  1  0
 25 27  1  0
 27 28  2  0
 28 29  1  0
 29 30  2  0
 12  7  1  0
 19 14  1  0
 30 20  1  0
 29 23  1  0
  3 31  1  0
  4 32  1  0
  4 33  1  0
  8 34  1  0
  8 35  1  0
  9 36  1  6
 10 37  1  0
 11 38  1  0
 11 39  1  0
 12 40  1  1
 13 41  1  0
 13 42  1  0
 15 43  1  0
 15 44  1  0
 16 45  1  0
 16 46  1  0
 17 47  1  0
 17 48  1  0
 18 49  1  0
 18 50  1  0
 19 51  1  0
 19 52  1  0
 21 53  1  0
 22 54  1  0
 24 55  1  0
 27 56  1  0
 28 57  1  0
M  END
>  <smiles>  (28) 
O=C(NCC(=O)N1C[C@H](O)C[C@H]1CN1CCCCC1)c1ccc2cc(Cl)ccc2n1

>  <score_type>  (28) 
oracle

>  <origin>  (28) 
autodockgpu

>  <m_score__min__energy>  (28) 
-9.2599999999999998

>  <m_primary>  (28) 
energy

>  <rmsd>  (28) 
2.365086367666297

>  <m_score__min__rmsd>  (28) 
2.365086367666297

>  <meeko>  (28) 
{"free_energy": -8.05, "intermolecular_energy": -10.14, "internal_energy": -1.58, "cluster_size": 30, "cluster_id": 1, "rank_in_cluster": 25}

>  <energy>  (28) 
-7.89

>  <cluster_rmsd>  (28) 
1.41

>  <cluster>  (28) 
1

$$$$

     RDKit          3D

 57 60  0  0  0  0  0  0  0  0999 V2000
  134.9490   68.4460  224.9320 O   0  0  0  0  0  0  0  0  0  0  0  0
  135.2800   69.6560  224.7050 C   0  0  0  0  0  0  0  0  0  0  0  0
  136.3270   69.8670  223.7720 N   0  0  0  0  0  0  0  0  0  0  0  0
  137.0040   68.7730  223.0960 C   0  0  0  0  0  0  0  0  0  0  0  0
  138.4430   68.7570  223.4590 C   0  0  0  0  0  0  0  0  0  0  0  0
  138.8510   67.8400  224.2140 O   0  0  0  0  0  0  0  0  0  0  0  0
  139.2750   69.7810  222.9340 N   0  0  0  0  0  0  0  0  0  0  0  0
  139.6610   69.9790  221.5420 C   0  0  0  0  0  0  0  0  0  0  0  0
  140.0020   71.4390  221.3800 C   0  0  2  0  0  0  0  0  0  0  0  0
  141.3840   71.5490  221.2620 O   0  0  0  0  0  0  0  0  0  0  0  0
  139.6050   72.0170  222.7190 C   0  0  0  0  0  0  0  0  0  0  0  0
  139.9420   70.8760  223.6440 C   0  0  1  0  0  0  0  0  0  0  0  0
  139.4410   71.0160  225.0330 C   0  0  0  0  0  0  0  0  0  0  0  0
  140.0940   70.1360  225.9790 N   0  0  0  0  0  0  0  0  0  0  0  0
  139.1570   69.2670  226.6660 C   0  0  0  0  0  0  0  0  0  0  0  0
  139.9530   68.2160  227.4080 C   0  0  0  0  0  0  0  0  0  0  0  0
  141.1040   68.8200  228.1720 C   0  0  0  0  0  0  0  0  0  0  0  0
  140.8000   70.3080  228.3250 C   0  0  0  0  0  0  0  0  0  0  0  0
  140.7320   70.9750  226.9740 C   0  0  0  0  0  0  0  0  0  0  0  0
  134.6050   70.7470  225.3790 C   0  0  0  0  0  0  0  0  0  0  0  0
  133.6760   70.5150  226.3480 C   0  0  0  0  0  0  0  0  0  0  0  0
  133.0870   71.6340  226.9360 C   0  0  0  0  0  0  0  0  0  0  0  0
  133.4250   72.9120  226.5570 C   0  0  0  0  0  0  0  0  0  0  0  0
  132.8210   73.9960  227.1620 C   0  0  0  0  0  0  0  0  0  0  0  0
  133.1500   75.3020  226.7910 C   0  0  0  0  0  0  0  0  0  0  0  0
  132.3920   76.6890  227.5480 Cl  0  0  0  0  0  0  0  0  0  0  0  0
  134.1090   75.4800  225.7910 C   0  0  0  0  0  0  0  0  0  0  0  0
  134.6850   74.3840  225.2160 C   0  0  0  0  0  0  0  0  0  0  0  0
  134.3670   73.0990  225.5740 C   0  0  0  0  0  0  0  0  0  0  0  0
  134.9200   72.0070  225.0250 N   0  0  0  0  0  0  0  0  0  0  0  0
  136.5890   70.8750  223.5980 H   0  0  0  0  0  0  0  0  0  0  0  0
  136.5432   67.8202  223.3957 H   0  0  0  0  0  0  0  0  0  0  0  0
  136.9101   68.9105  222.0087 H   0  0  0  0  0  0  0  0  0  0  0  0
  140.5364   69.3580  221.3012 H   0  0  0  0  0  0  0  0  0  0  0  0
  138.8442   69.6901  220.8642 H   0  0  0  0  0  0  0  0  0  0  0  0
  139.5220   71.9211  220.5156 H   0  0  0  0  0  0  0  0  0  0  0  0
  141.6330   72.2960  220.6280 H   0  0  0  0  0  0  0  0  0  0  0  0
  140.1907   72.9166  222.9590 H   0  0  0  0  0  0  0  0  0  0  0  0
  138.5574   72.3478  222.7744 H   0  0  0  0  0  0  0  0  0  0  0  0
  141.0228   70.7650  223.8160 H   0  0  0  0  0  0  0  0  0  0  0  0
  139.6018   72.0548  225.3570 H   0  0  0  0  0  0  0  0  0  0  0  0
  138.3762   70.7403  225.0198 H   0  0  0  0  0  0  0  0  0  0  0  0
  138.5573   69.8530  227.3780 H   0  0  0  0  0  0  0  0  0  0  0  0
  138.4760   68.7922  225.9443 H   0  0  0  0  0  0  0  0  0  0  0  0
  139.2879   67.6997  228.1158 H   0  0  0  0  0  0  0  0  0  0  0  0
  140.3651   67.5140  226.6681 H   0  0  0  0  0  0  0  0  0  0  0  0
  141.1909   68.3476  229.1616 H   0  0  0  0  0  0  0  0  0  0  0  0
  142.0548   68.6642  227.6413 H   0  0  0  0  0  0  0  0  0  0  0  0
  139.8343   70.4293  228.8376 H   0  0  0  0  0  0  0  0  0  0  0  0
  141.6030   70.7765  228.9130 H   0  0  0  0  0  0  0  0  0  0  0  0
  140.1593   71.9093  227.0690 H   0  0  0  0  0  0  0  0  0  0  0  0
  141.7625   71.1682  226.6413 H   0  0  0  0  0  0  0  0  0  0  0  0
  133.4034   69.4936  226.6522 H   0  0  0  0  0  0  0  0  0  0  0  0
  132.3324   71.4907  227.7234 H   0  0  0  0  0  0  0  0  0  0  0  0
  132.0696   73.8289  227.9478 H   0  0  0  0  0  0  0  0  0  0  0  0
  134.3968   76.4921  225.4704 H   0  0  0  0  0  0  0  0  0  0  0  0
  135.4385   74.5387  224.4297 H   0  0  0  0  0  0  0  0  0  0  0  0
  1  2  2  0
  2  3  1  0
  3  4  1  0
  4  5  1  0
  5  6  2  0
  5  7  1  0
  7  8  1  0
  8  9  1  0
  9 10  1  0
  9 11  1  0
 11 12  1  0
 12 13  1  0
 13 14  1  0
 14 15  1  0
 15 16  1  0
 16 17  1  0
 17 18  1  0
 18 19  1  0
  2 20  1  0
 20 21  2  0
 21 22  1  0
 22 23  2  0
 23 24  1  0
 24 25  2  0
 25 26  1  0
 25 27  1  0
 27 28  2  0
 28 29  1  0
 29 30  2  0
 12  7  1  0
 19 14  1  0
 30 20  1  0
 29 23  1  0
  3 31  1  0
  4 32  1  0
  4 33  1  0
  8 34  1  0
  8 35  1  0
  9 36  1  6
 10 37  1  0
 11 38  1  0
 11 39  1  0
 12 40  1  1
 13 41  1  0
 13 42  1  0
 15 43  1  0
 15 44  1  0
 16 45  1  0
 16 46  1  0
 17 47  1  0
 17 48  1  0
 18 49  1  0
 18 50  1  0
 19 51  1  0
 19 52  1  0
 21 53  1  0
 22 54  1  0
 24 55  1  0
 27 56  1  0
 28 57  1  0
M  END
>  <smiles>  (29) 
O=C(NCC(=O)N1C[C@H](O)C[C@H]1CN1CCCCC1)c1ccc2cc(Cl)ccc2n1

>  <score_type>  (29) 
oracle

>  <origin>  (29) 
autodockgpu

>  <m_score__min__energy>  (29) 
-9.2599999999999998

>  <m_primary>  (29) 
energy

>  <rmsd>  (29) 
8.536583325316384

>  <m_score__min__rmsd>  (29) 
8.536583325316384

>  <meeko>  (29) 
{"free_energy": -7.41, "intermolecular_energy": -9.5, "internal_energy": -2.01, "cluster_size": 2, "cluster_id": 8, "rank_in_cluster": 1}

>  <energy>  (29) 
-7.88

>  <cluster_rmsd>  (29) 
1.41

>  <cluster>  (29) 
1

$$$$

     RDKit          3D

 57 60  0  0  0  0  0  0  0  0999 V2000
  140.0700   72.5260  221.1290 O   0  0  0  0  0  0  0  0  0  0  0  0
  139.2790   72.4700  222.1260 C   0  0  0  0  0  0  0  0  0  0  0  0
  138.2110   73.4030  222.1490 N   0  0  0  0  0  0  0  0  0  0  0  0
  138.0090   74.3840  221.0970 C   0  0  0  0  0  0  0  0  0  0  0  0
  138.6800   75.6600  221.4500 C   0  0  0  0  0  0  0  0  0  0  0  0
  138.0060   76.5360  222.0470 O   0  0  0  0  0  0  0  0  0  0  0  0
  140.0450   75.8180  221.0920 N   0  0  0  0  0  0  0  0  0  0  0  0
  140.7390   75.2070  219.9650 C   0  0  0  0  0  0  0  0  0  0  0  0
  141.9160   76.0900  219.6370 C   0  0  2  0  0  0  0  0  0  0  0  0
  143.0720   75.4430  220.0600 O   0  0  0  0  0  0  0  0  0  0  0  0
  141.6930   77.2790  220.5420 C   0  0  0  0  0  0  0  0  0  0  0  0
  141.0800   76.6190  221.7500 C   0  0  1  0  0  0  0  0  0  0  0  0
  140.5020   77.5450  222.7550 C   0  0  0  0  0  0  0  0  0  0  0  0
  141.0710   78.8760  222.7130 N   0  0  0  0  0  0  0  0  0  0  0  0
  141.9270   79.1490  223.8520 C   0  0  0  0  0  0  0  0  0  0  0  0
  142.6780   80.4330  223.5750 C   0  0  0  0  0  0  0  0  0  0  0  0
  141.7660   81.5150  223.0540 C   0  0  0  0  0  0  0  0  0  0  0  0
  140.3420   81.1100  223.4290 C   0  0  0  0  0  0  0  0  0  0  0  0
  139.9670   79.8140  222.7540 C   0  0  0  0  0  0  0  0  0  0  0  0
  139.4810   71.4900  223.1760 C   0  0  0  0  0  0  0  0  0  0  0  0
  139.1170   70.1880  223.0100 C   0  0  0  0  0  0  0  0  0  0  0  0
  139.3560   69.3260  224.0790 C   0  0  0  0  0  0  0  0  0  0  0  0
  139.9320   69.7670  225.2480 C   0  0  0  0  0  0  0  0  0  0  0  0
  140.1530   68.8840  226.2860 C   0  0  0  0  0  0  0  0  0  0  0  0
  140.7360   69.3120  227.4810 C   0  0  0  0  0  0  0  0  0  0  0  0
  141.0240   68.2050  228.8100 Cl  0  0  0  0  0  0  0  0  0  0  0  0
  141.0880   70.6590  227.5960 C   0  0  0  0  0  0  0  0  0  0  0  0
  140.8540   71.5020  226.5480 C   0  0  0  0  0  0  0  0  0  0  0  0
  140.2820   71.0900  225.3730 C   0  0  0  0  0  0  0  0  0  0  0  0
  140.0430   71.8980  224.3290 N   0  0  0  0  0  0  0  0  0  0  0  0
  137.5670   73.3410  222.9840 H   0  0  0  0  0  0  0  0  0  0  0  0
  138.4305   74.0000  220.1563 H   0  0  0  0  0  0  0  0  0  0  0  0
  136.9307   74.5664  220.9787 H   0  0  0  0  0  0  0  0  0  0  0  0
  141.0874   74.1999  220.2376 H   0  0  0  0  0  0  0  0  0  0  0  0
  140.0686   75.1107  219.0983 H   0  0  0  0  0  0  0  0  0  0  0  0
  142.0084   76.3413  218.5701 H   0  0  0  0  0  0  0  0  0  0  0  0
  143.2570   75.6370  221.0350 H   0  0  0  0  0  0  0  0  0  0  0  0
  142.6409   77.7775  220.7930 H   0  0  0  0  0  0  0  0  0  0  0  0
  141.0734   78.0726  220.0990 H   0  0  0  0  0  0  0  0  0  0  0  0
  141.8132   76.0710  222.3600 H   0  0  0  0  0  0  0  0  0  0  0  0
  139.4199   77.6237  222.5734 H   0  0  0  0  0  0  0  0  0  0  0  0
  140.7310   77.1279  223.7467 H   0  0  0  0  0  0  0  0  0  0  0  0
  141.3159   79.2623  224.7596 H   0  0  0  0  0  0  0  0  0  0  0  0
  142.6325   78.3195  224.0075 H   0  0  0  0  0  0  0  0  0  0  0  0
  143.1454   80.7803  224.5082 H   0  0  0  0  0  0  0  0  0  0  0  0
  143.4364   80.2259  222.8057 H   0  0  0  0  0  0  0  0  0  0  0  0
  142.0198   82.4798  223.5174 H   0  0  0  0  0  0  0  0  0  0  0  0
  141.8703   81.6286  221.9649 H   0  0  0  0  0  0  0  0  0  0  0  0
  140.2771   80.9823  224.5196 H   0  0  0  0  0  0  0  0  0  0  0  0
  139.6490   81.8975  223.0979 H   0  0  0  0  0  0  0  0  0  0  0  0
  139.1336   79.3556  223.3065 H   0  0  0  0  0  0  0  0  0  0  0  0
  139.6825   80.0447  221.7168 H   0  0  0  0  0  0  0  0  0  0  0  0
  138.6561   69.8335  222.0762 H   0  0  0  0  0  0  0  0  0  0  0  0
  139.0770   68.2661  223.9856 H   0  0  0  0  0  0  0  0  0  0  0  0
  139.8659   67.8284  226.1703 H   0  0  0  0  0  0  0  0  0  0  0  0
  141.5487   71.0363  228.5209 H   0  0  0  0  0  0  0  0  0  0  0  0
  141.1375   72.5598  226.6515 H   0  0  0  0  0  0  0  0  0  0  0  0
  1  2  2  0
  2  3  1  0
  3  4  1  0
  4  5  1  0
  5  6  2  0
  5  7  1  0
  7  8  1  0
  8  9  1  0
  9 10  1  0
  9 11  1  0
 11 12  1  0
 12 13  1  0
 13 14  1  0
 14 15  1  0
 15 16  1  0
 16 17  1  0
 17 18  1  0
 18 19  1  0
  2 20  1  0
 20 21  2  0
 21 22  1  0
 22 23  2  0
 23 24  1  0
 24 25  2  0
 25 26  1  0
 25 27  1  0
 27 28  2  0
 28 29  1  0
 29 30  2  0
 12  7  1  0
 19 14  1  0
 30 20  1  0
 29 23  1  0
  3 31  1  0
  4 32  1  0
  4 33  1  0
  8 34  1  0
  8 35  1  0
  9 36  1  6
 10 37  1  0
 11 38  1  0
 11 39  1  0
 12 40  1  1
 13 41  1  0
 13 42  1  0
 15 43  1  0
 15 44  1  0
 16 45  1  0
 16 46  1  0
 17 47  1  0
 17 48  1  0
 18 49  1  0
 18 50  1  0
 19 51  1  0
 19 52  1  0
 21 53  1  0
 22 54  1  0
 24 55  1  0
 27 56  1  0
 28 57  1  0
M  END
>  <smiles>  (30) 
O=C(NCC(=O)N1C[C@H](O)C[C@H]1CN1CCCCC1)c1ccc2cc(Cl)ccc2n1

>  <score_type>  (30) 
oracle

>  <origin>  (30) 
autodockgpu

>  <m_score__min__energy>  (30) 
-9.2599999999999998

>  <m_primary>  (30) 
energy

>  <rmsd>  (30) 
2.0641598271079324

>  <m_score__min__rmsd>  (30) 
2.0641598271079324

>  <meeko>  (30) 
{"free_energy": -8.52, "intermolecular_energy": -10.61, "internal_energy": -1.39, "cluster_size": 30, "cluster_id": 1, "rank_in_cluster": 10}

>  <energy>  (30) 
-7.52

>  <cluster_rmsd>  (30) 
1.91

>  <cluster>  (30) 
1

$$$$

     RDKit          3D

 57 60  0  0  0  0  0  0  0  0999 V2000
  141.1490   73.0500  221.5340 O   0  0  0  0  0  0  0  0  0  0  0  0
  140.1750   72.9460  222.3500 C   0  0  0  0  0  0  0  0  0  0  0  0
  139.1360   73.9040  222.2300 N   0  0  0  0  0  0  0  0  0  0  0  0
  139.1590   74.9610  221.2340 C   0  0  0  0  0  0  0  0  0  0  0  0
  140.0750   76.0470  221.6590 C   0  0  0  0  0  0  0  0  0  0  0  0
  139.8030   76.6690  222.7160 O   0  0  0  0  0  0  0  0  0  0  0  0
  141.2070   76.3230  220.8460 N   0  0  0  0  0  0  0  0  0  0  0  0
  142.1200   75.3580  220.2470 C   0  0  0  0  0  0  0  0  0  0  0  0
  142.7420   76.0230  219.0450 C   0  0  2  0  0  0  0  0  0  0  0  0
  144.0610   76.3320  219.3570 O   0  0  0  0  0  0  0  0  0  0  0  0
  141.9710   77.3200  218.9550 C   0  0  0  0  0  0  0  0  0  0  0  0
  141.7310   77.6200  220.4130 C   0  0  1  0  0  0  0  0  0  0  0  0
  140.7710   78.7190  220.6840 C   0  0  0  0  0  0  0  0  0  0  0  0
  141.2570   79.6930  221.6390 N   0  0  0  0  0  0  0  0  0  0  0  0
  142.2270   79.1290  222.5590 C   0  0  0  0  0  0  0  0  0  0  0  0
  142.8680   80.2710  223.3180 C   0  0  0  0  0  0  0  0  0  0  0  0
  141.8420   81.2510  223.8270 C   0  0  0  0  0  0  0  0  0  0  0  0
  140.4980   80.5280  223.8210 C   0  0  0  0  0  0  0  0  0  0  0  0
  140.1160   80.1370  222.4150 C   0  0  0  0  0  0  0  0  0  0  0  0
  140.1520   71.8920  223.3440 C   0  0  0  0  0  0  0  0  0  0  0  0
  139.6860   70.6460  223.0470 C   0  0  0  0  0  0  0  0  0  0  0  0
  139.7090   69.7040  224.0740 C   0  0  0  0  0  0  0  0  0  0  0  0
  140.1800   70.0130  225.3290 C   0  0  0  0  0  0  0  0  0  0  0  0
  140.1870   69.0530  226.3210 C   0  0  0  0  0  0  0  0  0  0  0  0
  140.6600   69.3470  227.6020 C   0  0  0  0  0  0  0  0  0  0  0  0
  140.6770   68.1410  228.8740 Cl  0  0  0  0  0  0  0  0  0  0  0  0
  141.1250   70.6410  227.8500 C   0  0  0  0  0  0  0  0  0  0  0  0
  141.1020   71.5630  226.8440 C   0  0  0  0  0  0  0  0  0  0  0  0
  140.6390   71.2830  225.5850 C   0  0  0  0  0  0  0  0  0  0  0  0
  140.6080   72.1710  224.5800 N   0  0  0  0  0  0  0  0  0  0  0  0
  138.3390   73.8020  222.9160 H   0  0  0  0  0  0  0  0  0  0  0  0
  139.5051   74.5486  220.2748 H   0  0  0  0  0  0  0  0  0  0  0  0
  138.1443   75.3709  221.1230 H   0  0  0  0  0  0  0  0  0  0  0  0
  142.9007   75.0783  220.9696 H   0  0  0  0  0  0  0  0  0  0  0  0
  141.5852   74.4422  219.9548 H   0  0  0  0  0  0  0  0  0  0  0  0
  142.7170   75.4143  218.1291 H   0  0  0  0  0  0  0  0  0  0  0  0
  144.1110   77.1680  219.9240 H   0  0  0  0  0  0  0  0  0  0  0  0
  142.5660   78.1100  218.4735 H   0  0  0  0  0  0  0  0  0  0  0  0
  141.0544   77.2592  218.3498 H   0  0  0  0  0  0  0  0  0  0  0  0
  142.6292   77.9857  220.9322 H   0  0  0  0  0  0  0  0  0  0  0  0
  140.5592   79.2368  219.7369 H   0  0  0  0  0  0  0  0  0  0  0  0
  139.8718   78.2604  221.1213 H   0  0  0  0  0  0  0  0  0  0  0  0
  141.7237   78.4490  223.2621 H   0  0  0  0  0  0  0  0  0  0  0  0
  142.9900   78.5588  222.0089 H   0  0  0  0  0  0  0  0  0  0  0  0
  143.4246   79.8616  224.1739 H   0  0  0  0  0  0  0  0  0  0  0  0
  143.5387   80.8054  222.6291 H   0  0  0  0  0  0  0  0  0  0  0  0
  142.0963   81.5684  224.8490 H   0  0  0  0  0  0  0  0  0  0  0  0
  141.8084   82.1503  223.1945 H   0  0  0  0  0  0  0  0  0  0  0  0
  140.5710   79.6227  224.4416 H   0  0  0  0  0  0  0  0  0  0  0  0
  139.7287   81.2027  224.2246 H   0  0  0  0  0  0  0  0  0  0  0  0
  139.3807   79.3202  222.4622 H   0  0  0  0  0  0  0  0  0  0  0  0
  139.6974   81.0258  221.9202 H   0  0  0  0  0  0  0  0  0  0  0  0
  139.3096   70.3957  222.0442 H   0  0  0  0  0  0  0  0  0  0  0  0
  139.3408   68.6866  223.8758 H   0  0  0  0  0  0  0  0  0  0  0  0
  139.8147   68.0419  226.0995 H   0  0  0  0  0  0  0  0  0  0  0  0
  141.5055   70.9137  228.8454 H   0  0  0  0  0  0  0  0  0  0  0  0
  141.4721   72.5775  227.0534 H   0  0  0  0  0  0  0  0  0  0  0  0
  1  2  2  0
  2  3  1  0
  3  4  1  0
  4  5  1  0
  5  6  2  0
  5  7  1  0
  7  8  1  0
  8  9  1  0
  9 10  1  0
  9 11  1  0
 11 12  1  0
 12 13  1  0
 13 14  1  0
 14 15  1  0
 15 16  1  0
 16 17  1  0
 17 18  1  0
 18 19  1  0
  2 20  1  0
 20 21  2  0
 21 22  1  0
 22 23  2  0
 23 24  1  0
 24 25  2  0
 25 26  1  0
 25 27  1  0
 27 28  2  0
 28 29  1  0
 29 30  2  0
 12  7  1  0
 19 14  1  0
 30 20  1  0
 29 23  1  0
  3 31  1  0
  4 32  1  0
  4 33  1  0
  8 34  1  0
  8 35  1  0
  9 36  1  6
 10 37  1  0
 11 38  1  0
 11 39  1  0
 12 40  1  1
 13 41  1  0
 13 42  1  0
 15 43  1  0
 15 44  1  0
 16 45  1  0
 16 46  1  0
 17 47  1  0
 17 48  1  0
 18 49  1  0
 18 50  1  0
 19 51  1  0
 19 52  1  0
 21 53  1  0
 22 54  1  0
 24 55  1  0
 27 56  1  0
 28 57  1  0
M  END
>  <smiles>  (31) 
O=C(NCC(=O)N1C[C@H](O)C[C@H]1CN1CCCCC1)c1ccc2cc(Cl)ccc2n1

>  <score_type>  (31) 
oracle

>  <origin>  (31) 
autodockgpu

>  <m_score__min__energy>  (31) 
-9.2599999999999998

>  <m_primary>  (31) 
energy

>  <rmsd>  (31) 
2.3481901799973426

>  <m_score__min__rmsd>  (31) 
2.3481901799973426

>  <meeko>  (31) 
{"free_energy": -9.09, "intermolecular_energy": -11.18, "internal_energy": -1.5, "cluster_size": 30, "cluster_id": 1, "rank_in_cluster": 2}

>  <energy>  (31) 
-8.09

>  <cluster_rmsd>  (31) 
0.0

>  <cluster>  (31) 
2

$$$$

     RDKit          3D

 57 60  0  0  0  0  0  0  0  0999 V2000
  140.2580   73.9890  221.9730 O   0  0  0  0  0  0  0  0  0  0  0  0
  140.4230   72.7400  221.7770 C   0  0  0  0  0  0  0  0  0  0  0  0
  140.7660   72.3390  220.4600 N   0  0  0  0  0  0  0  0  0  0  0  0
  140.9260   73.2890  219.3710 C   0  0  0  0  0  0  0  0  0  0  0  0
  142.0320   72.8630  218.4780 C   0  0  0  0  0  0  0  0  0  0  0  0
  141.7440   72.5170  217.3060 O   0  0  0  0  0  0  0  0  0  0  0  0
  143.3520   72.8680  219.0010 N   0  0  0  0  0  0  0  0  0  0  0  0
  144.2400   74.0160  219.1480 C   0  0  0  0  0  0  0  0  0  0  0  0
  145.2180   73.6830  220.2460 C   0  0  2  0  0  0  0  0  0  0  0  0
  146.4540   73.4290  219.6610 O   0  0  0  0  0  0  0  0  0  0  0  0
  144.6790   72.3740  220.7760 C   0  0  0  0  0  0  0  0  0  0  0  0
  144.1400   71.7460  219.5160 C   0  0  1  0  0  0  0  0  0  0  0  0
  143.3060   70.5360  219.7180 C   0  0  0  0  0  0  0  0  0  0  0  0
  143.8380   69.3490  219.0810 N   0  0  0  0  0  0  0  0  0  0  0  0
  144.4230   68.4240  220.0330 C   0  0  0  0  0  0  0  0  0  0  0  0
  144.6900   67.1200  219.3140 C   0  0  0  0  0  0  0  0  0  0  0  0
  145.3630   67.3420  217.9830 C   0  0  0  0  0  0  0  0  0  0  0  0
  145.9710   68.7420  218.0240 C   0  0  0  0  0  0  0  0  0  0  0  0
  144.8890   69.7820  218.1810 C   0  0  0  0  0  0  0  0  0  0  0  0
  140.2630   71.7930  222.8620 C   0  0  0  0  0  0  0  0  0  0  0  0
  139.6730   70.5810  222.6650 C   0  0  0  0  0  0  0  0  0  0  0  0
  139.5700   69.7430  223.7740 C   0  0  0  0  0  0  0  0  0  0  0  0
  140.0400   70.1200  225.0110 C   0  0  0  0  0  0  0  0  0  0  0  0
  139.9200   69.2630  226.0870 C   0  0  0  0  0  0  0  0  0  0  0  0
  140.3910   69.6260  227.3510 C   0  0  0  0  0  0  0  0  0  0  0  0
  140.2470   68.5510  228.7280 Cl  0  0  0  0  0  0  0  0  0  0  0  0
  140.9860   70.8820  227.4950 C   0  0  0  0  0  0  0  0  0  0  0  0
  141.0870   71.7020  226.4080 C   0  0  0  0  0  0  0  0  0  0  0  0
  140.6270   71.3530  225.1650 C   0  0  0  0  0  0  0  0  0  0  0  0
  140.7150   72.1400  224.0820 N   0  0  0  0  0  0  0  0  0  0  0  0
  140.8970   71.3020  220.3170 H   0  0  0  0  0  0  0  0  0  0  0  0
  139.9914   73.3401  218.7931 H   0  0  0  0  0  0  0  0  0  0  0  0
  141.1632   74.2783  219.7895 H   0  0  0  0  0  0  0  0  0  0  0  0
  144.7782   74.1996  218.2064 H   0  0  0  0  0  0  0  0  0  0  0  0
  143.6690   74.9233  219.3945 H   0  0  0  0  0  0  0  0  0  0  0  0
  145.3290   74.4707  221.0057 H   0  0  0  0  0  0  0  0  0  0  0  0
  146.7550   74.2140  219.0990 H   0  0  0  0  0  0  0  0  0  0  0  0
  145.4761   71.7613  221.2224 H   0  0  0  0  0  0  0  0  0  0  0  0
  143.9350   72.4846  221.5786 H   0  0  0  0  0  0  0  0  0  0  0  0
  144.9294   71.3560  218.8566 H   0  0  0  0  0  0  0  0  0  0  0  0
  143.2275   70.3447  220.7984 H   0  0  0  0  0  0  0  0  0  0  0  0
  142.3287   70.7384  219.2554 H   0  0  0  0  0  0  0  0  0  0  0  0
  145.3659   68.8355  220.4223 H   0  0  0  0  0  0  0  0  0  0  0  0
  143.7380   68.2612  220.8781 H   0  0  0  0  0  0  0  0  0  0  0  0
  145.3408   66.4939  219.9420 H   0  0  0  0  0  0  0  0  0  0  0  0
  143.7241   66.6267  219.1306 H   0  0  0  0  0  0  0  0  0  0  0  0
  146.1517   66.5911  217.8275 H   0  0  0  0  0  0  0  0  0  0  0  0
  144.6433   67.2483  217.1564 H   0  0  0  0  0  0  0  0  0  0  0  0
  146.6655   68.8106  218.8743 H   0  0  0  0  0  0  0  0  0  0  0  0
  146.5075   68.9253  217.0814 H   0  0  0  0  0  0  0  0  0  0  0  0
  145.3388   70.7035  218.5793 H   0  0  0  0  0  0  0  0  0  0  0  0
  144.4377   69.9510  217.1922 H   0  0  0  0  0  0  0  0  0  0  0  0
  139.2956   70.2780  221.6772 H   0  0  0  0  0  0  0  0  0  0  0  0
  139.1009   68.7549  223.6573 H   0  0  0  0  0  0  0  0  0  0  0  0
  139.4466   68.2800  225.9468 H   0  0  0  0  0  0  0  0  0  0  0  0
  141.3690   71.2067  228.4737 H   0  0  0  0  0  0  0  0  0  0  0  0
  141.5590   72.6874  226.5357 H   0  0  0  0  0  0  0  0  0  0  0  0
  1  2  2  0
  2  3  1  0
  3  4  1  0
  4  5  1  0
  5  6  2  0
  5  7  1  0
  7  8  1  0
  8  9  1  0
  9 10  1  0
  9 11  1  0
 11 12  1  0
 12 13  1  0
 13 14  1  0
 14 15  1  0
 15 16  1  0
 16 17  1  0
 17 18  1  0
 18 19  1  0
  2 20  1  0
 20 21  2  0
 21 22  1  0
 22 23  2  0
 23 24  1  0
 24 25  2  0
 25 26  1  0
 25 27  1  0
 27 28  2  0
 28 29  1  0
 29 30  2  0
 12  7  1  0
 19 14  1  0
 30 20  1  0
 29 23  1  0
  3 31  1  0
  4 32  1  0
  4 33  1  0
  8 34  1  0
  8 35  1  0
  9 36  1  1
 10 37  1  0
 11 38  1  0
 11 39  1  0
 12 40  1  6
 13 41  1  0
 13 42  1  0
 15 43  1  0
 15 44  1  0
 16 45  1  0
 16 46  1  0
 17 47  1  0
 17 48  1  0
 18 49  1  0
 18 50  1  0
 19 51  1  0
 19 52  1  0
 21 53  1  0
 22 54  1  0
 24 55  1  0
 27 56  1  0
 28 57  1  0
M  END
>  <smiles>  (32) 
O=C(NCC(=O)N1C[C@H](O)C[C@H]1CN1CCCCC1)c1ccc2cc(Cl)ccc2n1

>  <score_type>  (32) 
oracle

>  <origin>  (32) 
autodockgpu

>  <m_score__min__energy>  (32) 
-9.2599999999999998

>  <m_primary>  (32) 
energy

>  <rmsd>  (32) 
7.140846970189009

>  <m_score__min__rmsd>  (32) 
7.140846970189009

>  <meeko>  (32) 
{"free_energy": -8.09, "intermolecular_energy": -10.18, "internal_energy": -1.67, "cluster_size": 1, "cluster_id": 2, "rank_in_cluster": 1}

>  <energy>  (32) 
-7.85

>  <cluster_rmsd>  (32) 
0.0

>  <cluster>  (32) 
3

$$$$

     RDKit          3D

 57 60  0  0  0  0  0  0  0  0999 V2000
  136.5080   79.1510  220.5930 O   0  0  0  0  0  0  0  0  0  0  0  0
  137.5480   79.5520  221.2120 C   0  0  0  0  0  0  0  0  0  0  0  0
  138.7770   79.4860  220.5070 N   0  0  0  0  0  0  0  0  0  0  0  0
  138.8700   78.9890  219.1440 C   0  0  0  0  0  0  0  0  0  0  0  0
  139.7850   77.8230  219.0850 C   0  0  0  0  0  0  0  0  0  0  0  0
  140.4450   77.6420  218.0320 O   0  0  0  0  0  0  0  0  0  0  0  0
  139.8610   76.9760  220.2230 N   0  0  0  0  0  0  0  0  0  0  0  0
  139.0980   75.7580  220.4710 C   0  0  0  0  0  0  0  0  0  0  0  0
  139.9030   74.9180  221.4300 C   0  0  2  0  0  0  0  0  0  0  0  0
  139.2820   74.9680  222.6730 O   0  0  0  0  0  0  0  0  0  0  0  0
  141.2000   75.6880  221.5280 C   0  0  0  0  0  0  0  0  0  0  0  0
  140.7090   77.1080  221.4100 C   0  0  1  0  0  0  0  0  0  0  0  0
  141.7660   78.1310  221.2200 C   0  0  0  0  0  0  0  0  0  0  0  0
  141.5390   79.3490  221.9700 N   0  0  0  0  0  0  0  0  0  0  0  0
  142.1090   80.5130  221.3190 C   0  0  0  0  0  0  0  0  0  0  0  0
  141.5840   81.7450  222.0240 C   0  0  0  0  0  0  0  0  0  0  0  0
  141.6710   81.6130  223.5230 C   0  0  0  0  0  0  0  0  0  0  0  0
  142.6810   80.5050  223.8110 C   0  0  0  0  0  0  0  0  0  0  0  0
  142.1960   79.1910  223.2520 C   0  0  0  0  0  0  0  0  0  0  0  0
  137.4550   80.0480  222.5700 C   0  0  0  0  0  0  0  0  0  0  0  0
  138.5640   80.4290  223.2640 C   0  0  0  0  0  0  0  0  0  0  0  0
  138.3660   80.8930  224.5630 C   0  0  0  0  0  0  0  0  0  0  0  0
  137.1110   80.9630  225.1220 C   0  0  0  0  0  0  0  0  0  0  0  0
  136.9530   81.4280  226.4130 C   0  0  0  0  0  0  0  0  0  0  0  0
  135.6870   81.5070  226.9980 C   0  0  0  0  0  0  0  0  0  0  0  0
  135.4690   82.0950  228.6350 Cl  0  0  0  0  0  0  0  0  0  0  0  0
  134.5860   81.1020  226.2410 C   0  0  0  0  0  0  0  0  0  0  0  0
  134.7810   80.6470  224.9690 C   0  0  0  0  0  0  0  0  0  0  0  0
  136.0190   80.5670  224.3870 C   0  0  0  0  0  0  0  0  0  0  0  0
  136.2370   80.1250  223.1390 N   0  0  0  0  0  0  0  0  0  0  0  0
  139.6270   79.8210  221.0360 H   0  0  0  0  0  0  0  0  0  0  0  0
  137.8708   78.6845  218.7994 H   0  0  0  0  0  0  0  0  0  0  0  0
  139.2634   79.7870  218.4971 H   0  0  0  0  0  0  0  0  0  0  0  0
  138.1229   76.0074  220.9148 H   0  0  0  0  0  0  0  0  0  0  0  0
  138.9140   75.2135  219.5331 H   0  0  0  0  0  0  0  0  0  0  0  0
  140.0196   73.8683  221.1227 H   0  0  0  0  0  0  0  0  0  0  0  0
  138.7240   74.1400  222.8310 H   0  0  0  0  0  0  0  0  0  0  0  0
  141.7002   75.5135  222.4920 H   0  0  0  0  0  0  0  0  0  0  0  0
  141.9497   75.4061  220.7740 H   0  0  0  0  0  0  0  0  0  0  0  0
  140.2200   77.4726  222.3254 H   0  0  0  0  0  0  0  0  0  0  0  0
  142.7269   77.7008  221.5388 H   0  0  0  0  0  0  0  0  0  0  0  0
  141.7613   78.4040  220.1544 H   0  0  0  0  0  0  0  0  0  0  0  0
  143.2062   80.4810  221.3901 H   0  0  0  0  0  0  0  0  0  0  0  0
  141.8292   80.5322  220.2554 H   0  0  0  0  0  0  0  0  0  0  0  0
  142.1775   82.6157  221.7084 H   0  0  0  0  0  0  0  0  0  0  0  0
  140.5251   81.8684  221.7529 H   0  0  0  0  0  0  0  0  0  0  0  0
  142.0110   82.5601  223.9673 H   0  0  0  0  0  0  0  0  0  0  0  0
  140.6884   81.3732  223.9555 H   0  0  0  0  0  0  0  0  0  0  0  0
  143.6440   80.7630  223.3461 H   0  0  0  0  0  0  0  0  0  0  0  0
  142.8005   80.4063  224.9000 H   0  0  0  0  0  0  0  0  0  0  0  0
  143.0583   78.5195  223.1275 H   0  0  0  0  0  0  0  0  0  0  0  0
  141.4621   78.7748  223.9578 H   0  0  0  0  0  0  0  0  0  0  0  0
  139.5687   80.3729  222.8196 H   0  0  0  0  0  0  0  0  0  0  0  0
  139.2356   81.2115  225.1567 H   0  0  0  0  0  0  0  0  0  0  0  0
  137.8367   81.7406  226.9886 H   0  0  0  0  0  0  0  0  0  0  0  0
  133.5722   81.1491  226.6652 H   0  0  0  0  0  0  0  0  0  0  0  0
  133.9046   80.3302  224.3846 H   0  0  0  0  0  0  0  0  0  0  0  0
  1  2  2  0
  2  3  1  0
  3  4  1  0
  4  5  1  0
  5  6  2  0
  5  7  1  0
  7  8  1  0
  8  9  1  0
  9 10  1  0
  9 11  1  0
 11 12  1  0
 12 13  1  0
 13 14  1  0
 14 15  1  0
 15 16  1  0
 16 17  1  0
 17 18  1  0
 18 19  1  0
  2 20  1  0
 20 21  2  0
 21 22  1  0
 22 23  2  0
 23 24  1  0
 24 25  2  0
 25 26  1  0
 25 27  1  0
 27 28  2  0
 28 29  1  0
 29 30  2  0
 12  7  1  0
 19 14  1  0
 30 20  1  0
 29 23  1  0
  3 31  1  0
  4 32  1  0
  4 33  1  0
  8 34  1  0
  8 35  1  0
  9 36  1  6
 10 37  1  0
 11 38  1  0
 11 39  1  0
 12 40  1  1
 13 41  1  0
 13 42  1  0
 15 43  1  0
 15 44  1  0
 16 45  1  0
 16 46  1  0
 17 47  1  0
 17 48  1  0
 18 49  1  0
 18 50  1  0
 19 51  1  0
 19 52  1  0
 21 53  1  0
 22 54  1  0
 24 55  1  0
 27 56  1  0
 28 57  1  0
M  END
>  <smiles>  (33) 
O=C(NCC(=O)N1C[C@H](O)C[C@H]1CN1CCCCC1)c1ccc2cc(Cl)ccc2n1

>  <score_type>  (33) 
oracle

>  <origin>  (33) 
autodockgpu

>  <m_score__min__energy>  (33) 
-9.2599999999999998

>  <m_primary>  (33) 
energy

>  <rmsd>  (33) 
7.92490274577481

>  <m_score__min__rmsd>  (33) 
7.92490274577481

>  <meeko>  (33) 
{"free_energy": -6.06, "intermolecular_energy": -8.15, "internal_energy": -2.94, "cluster_size": 1, "cluster_id": 10, "rank_in_cluster": 1}

>  <energy>  (33) 
-7.7

>  <cluster_rmsd>  (33) 
0.52

>  <cluster>  (33) 
3

$$$$

     RDKit          3D

 57 60  0  0  0  0  0  0  0  0999 V2000
  140.3900   72.1930  220.5520 O   0  0  0  0  0  0  0  0  0  0  0  0
  140.1180   72.5900  221.7330 C   0  0  0  0  0  0  0  0  0  0  0  0
  139.8910   73.9800  221.9030 N   0  0  0  0  0  0  0  0  0  0  0  0
  139.9600   74.9240  220.8000 C   0  0  0  0  0  0  0  0  0  0  0  0
  141.3750   75.1870  220.4380 C   0  0  0  0  0  0  0  0  0  0  0  0
  142.2120   74.2690  220.6220 O   0  0  0  0  0  0  0  0  0  0  0  0
  141.7030   76.4630  219.9070 N   0  0  0  0  0  0  0  0  0  0  0  0
  142.1540   76.7680  218.5550 C   0  0  0  0  0  0  0  0  0  0  0  0
  141.7950   78.2070  218.2810 C   0  0  2  0  0  0  0  0  0  0  0  0
  142.9670   78.9560  218.3090 O   0  0  0  0  0  0  0  0  0  0  0  0
  140.9810   78.5770  219.4990 C   0  0  0  0  0  0  0  0  0  0  0  0
  141.6690   77.7690  220.5700 C   0  0  1  0  0  0  0  0  0  0  0  0
  140.9600   77.7070  221.8720 C   0  0  0  0  0  0  0  0  0  0  0  0
  141.1860   78.8630  222.7130 N   0  0  0  0  0  0  0  0  0  0  0  0
  140.2480   79.9370  222.4430 C   0  0  0  0  0  0  0  0  0  0  0  0
  140.3870   80.9650  223.5440 C   0  0  0  0  0  0  0  0  0  0  0  0
  141.8310   81.2930  223.8260 C   0  0  0  0  0  0  0  0  0  0  0  0
  142.6320   80.8450  222.6060 C   0  0  0  0  0  0  0  0  0  0  0  0
  142.5180   79.3530  222.4180 C   0  0  0  0  0  0  0  0  0  0  0  0
  140.0490   71.6490  222.8330 C   0  0  0  0  0  0  0  0  0  0  0  0
  139.4970   70.4140  222.6750 C   0  0  0  0  0  0  0  0  0  0  0  0
  139.4810   69.5840  223.7950 C   0  0  0  0  0  0  0  0  0  0  0  0
  139.9990   69.9900  225.0030 C   0  0  0  0  0  0  0  0  0  0  0  0
  139.9660   69.1400  226.0910 C   0  0  0  0  0  0  0  0  0  0  0  0
  140.4860   69.5340  227.3260 C   0  0  0  0  0  0  0  0  0  0  0  0
  140.4530   68.4680  228.7180 Cl  0  0  0  0  0  0  0  0  0  0  0  0
  141.0400   70.8120  227.4300 C   0  0  0  0  0  0  0  0  0  0  0  0
  141.0540   71.6240  226.3330 C   0  0  0  0  0  0  0  0  0  0  0  0
  140.5460   71.2460  225.1170 C   0  0  0  0  0  0  0  0  0  0  0  0
  140.5490   72.0240  224.0250 N   0  0  0  0  0  0  0  0  0  0  0  0
  139.6690   74.2900  222.8880 H   0  0  0  0  0  0  0  0  0  0  0  0
  139.4342   74.5047  219.9295 H   0  0  0  0  0  0  0  0  0  0  0  0
  139.4864   75.8685  221.1059 H   0  0  0  0  0  0  0  0  0  0  0  0
  143.2428   76.6301  218.4805 H   0  0  0  0  0  0  0  0  0  0  0  0
  141.6768   76.0996  217.8233 H   0  0  0  0  0  0  0  0  0  0  0  0
  141.2799   78.3694  217.3227 H   0  0  0  0  0  0  0  0  0  0  0  0
  143.3180   79.1090  217.3730 H   0  0  0  0  0  0  0  0  0  0  0  0
  141.0377   79.6553  219.7090 H   0  0  0  0  0  0  0  0  0  0  0  0
  139.9047   78.3719  219.4011 H   0  0  0  0  0  0  0  0  0  0  0  0
  142.6381   78.1917  220.8737 H   0  0  0  0  0  0  0  0  0  0  0  0
  139.8806   77.6257  221.6762 H   0  0  0  0  0  0  0  0  0  0  0  0
  141.3554   76.8342  222.4122 H   0  0  0  0  0  0  0  0  0  0  0  0
  140.4773   80.3976  221.4708 H   0  0  0  0  0  0  0  0  0  0  0  0
  139.2197   79.5478  222.4104 H   0  0  0  0  0  0  0  0  0  0  0  0
  139.8660   81.8848  223.2399 H   0  0  0  0  0  0  0  0  0  0  0  0
  139.9469   80.5453  224.4606 H   0  0  0  0  0  0  0  0  0  0  0  0
  141.9501   82.3756  223.9805 H   0  0  0  0  0  0  0  0  0  0  0  0
  142.1807   80.7839  224.7362 H   0  0  0  0  0  0  0  0  0  0  0  0
  142.2434   81.3533  221.7112 H   0  0  0  0  0  0  0  0  0  0  0  0
  143.6898   81.1043  222.7602 H   0  0  0  0  0  0  0  0  0  0  0  0
  142.7621   79.1081  221.3738 H   0  0  0  0  0  0  0  0  0  0  0  0
  143.2172   78.8707  223.1169 H   0  0  0  0  0  0  0  0  0  0  0  0
  139.0834   70.0870  221.7096 H   0  0  0  0  0  0  0  0  0  0  0  0
  139.0429   68.5785  223.7106 H   0  0  0  0  0  0  0  0  0  0  0  0
  139.5239   68.1385  225.9834 H   0  0  0  0  0  0  0  0  0  0  0  0
  141.4602   71.1601  228.3851 H   0  0  0  0  0  0  0  0  0  0  0  0
  141.4931   72.6280  226.4290 H   0  0  0  0  0  0  0  0  0  0  0  0
  1  2  2  0
  2  3  1  0
  3  4  1  0
  4  5  1  0
  5  6  2  0
  5  7  1  0
  7  8  1  0
  8  9  1  0
  9 10  1  0
  9 11  1  0
 11 12  1  0
 12 13  1  0
 13 14  1  0
 14 15  1  0
 15 16  1  0
 16 17  1  0
 17 18  1  0
 18 19  1  0
  2 20  1  0
 20 21  2  0
 21 22  1  0
 22 23  2  0
 23 24  1  0
 24 25  2  0
 25 26  1  0
 25 27  1  0
 27 28  2  0
 28 29  1  0
 29 30  2  0
 12  7  1  0
 19 14  1  0
 30 20  1  0
 29 23  1  0
  3 31  1  0
  4 32  1  0
  4 33  1  0
  8 34  1  0
  8 35  1  0
  9 36  1  6
 10 37  1  0
 11 38  1  0
 11 39  1  0
 12 40  1  1
 13 41  1  0
 13 42  1  0
 15 43  1  0
 15 44  1  0
 16 45  1  0
 16 46  1  0
 17 47  1  0
 17 48  1  0
 18 49  1  0
 18 50  1  0
 19 51  1  0
 19 52  1  0
 21 53  1  0
 22 54  1  0
 24 55  1  0
 27 56  1  0
 28 57  1  0
M  END
>  <smiles>  (34) 
O=C(NCC(=O)N1C[C@H](O)C[C@H]1CN1CCCCC1)c1ccc2cc(Cl)ccc2n1

>  <score_type>  (34) 
oracle

>  <origin>  (34) 
autodockgpu

>  <m_score__min__energy>  (34) 
-9.2599999999999998

>  <m_primary>  (34) 
energy

>  <rmsd>  (34) 
2.295713034089607

>  <m_score__min__rmsd>  (34) 
2.295713034089607

>  <meeko>  (34) 
{"free_energy": -8.51, "intermolecular_energy": -10.6, "internal_energy": -1.37, "cluster_size": 30, "cluster_id": 1, "rank_in_cluster": 11}

>  <energy>  (34) 
-7.71

>  <cluster_rmsd>  (34) 
0.0

>  <cluster>  (34) 
4

$$$$

     RDKit          3D

 57 60  0  0  0  0  0  0  0  0999 V2000
  140.8580   72.8690  221.1950 O   0  0  0  0  0  0  0  0  0  0  0  0
  140.0630   72.9350  222.1900 C   0  0  0  0  0  0  0  0  0  0  0  0
  139.2170   74.0720  222.2580 N   0  0  0  0  0  0  0  0  0  0  0  0
  139.2390   75.1230  221.2550 C   0  0  0  0  0  0  0  0  0  0  0  0
  140.2100   76.1780  221.6390 C   0  0  0  0  0  0  0  0  0  0  0  0
  140.0260   76.7820  222.7240 O   0  0  0  0  0  0  0  0  0  0  0  0
  141.2890   76.4450  220.7550 N   0  0  0  0  0  0  0  0  0  0  0  0
  142.1870   75.4760  220.1380 C   0  0  0  0  0  0  0  0  0  0  0  0
  142.7280   76.1100  218.8820 C   0  0  2  0  0  0  0  0  0  0  0  0
  144.0570   76.4530  219.1100 O   0  0  0  0  0  0  0  0  0  0  0  0
  141.9290   77.3900  218.7930 C   0  0  0  0  0  0  0  0  0  0  0  0
  141.7640   77.7360  220.2500 C   0  0  1  0  0  0  0  0  0  0  0  0
  140.8000   78.8260  220.5380 C   0  0  0  0  0  0  0  0  0  0  0  0
  141.2520   79.7490  221.5580 N   0  0  0  0  0  0  0  0  0  0  0  0
  142.3130   79.1920  222.3760 C   0  0  0  0  0  0  0  0  0  0  0  0
  142.8960   80.3120  223.2100 C   0  0  0  0  0  0  0  0  0  0  0  0
  141.8210   81.1490  223.8550 C   0  0  0  0  0  0  0  0  0  0  0  0
  140.5430   80.3140  223.8410 C   0  0  0  0  0  0  0  0  0  0  0  0
  140.1210   80.0200  222.4230 C   0  0  0  0  0  0  0  0  0  0  0  0
  140.0420   71.8870  223.1900 C   0  0  0  0  0  0  0  0  0  0  0  0
  139.5520   70.6470  222.9080 C   0  0  0  0  0  0  0  0  0  0  0  0
  139.5780   69.7100  223.9390 C   0  0  0  0  0  0  0  0  0  0  0  0
  140.0740   70.0190  225.1840 C   0  0  0  0  0  0  0  0  0  0  0  0
  140.0840   69.0640  226.1820 C   0  0  0  0  0  0  0  0  0  0  0  0
  140.5830   69.3580  227.4530 C   0  0  0  0  0  0  0  0  0  0  0  0
  140.6030   68.1580  228.7310 Cl  0  0  0  0  0  0  0  0  0  0  0  0
  141.0720   70.6460  227.6860 C   0  0  0  0  0  0  0  0  0  0  0  0
  141.0450   71.5630  226.6750 C   0  0  0  0  0  0  0  0  0  0  0  0
  140.5570   71.2830  225.4260 C   0  0  0  0  0  0  0  0  0  0  0  0
  140.5220   72.1650  224.4170 N   0  0  0  0  0  0  0  0  0  0  0  0
  138.5670   74.1090  223.0890 H   0  0  0  0  0  0  0  0  0  0  0  0
  139.5330   74.6941  220.2857 H   0  0  0  0  0  0  0  0  0  0  0  0
  138.2361   75.5685  221.1800 H   0  0  0  0  0  0  0  0  0  0  0  0
  143.0119   75.2355  220.8247 H   0  0  0  0  0  0  0  0  0  0  0  0
  141.6552   74.5412  219.9069 H   0  0  0  0  0  0  0  0  0  0  0  0
  142.6636   75.4701  217.9896 H   0  0  0  0  0  0  0  0  0  0  0  0
  144.1270   77.1800  219.8090 H   0  0  0  0  0  0  0  0  0  0  0  0
  142.4816   78.1731  218.2531 H   0  0  0  0  0  0  0  0  0  0  0  0
  140.9815   77.2926  218.2427 H   0  0  0  0  0  0  0  0  0  0  0  0
  142.6824   78.1353  220.7050 H   0  0  0  0  0  0  0  0  0  0  0  0
  140.6276   79.3911  219.6102 H   0  0  0  0  0  0  0  0  0  0  0  0
  139.8829   78.3518  220.9175 H   0  0  0  0  0  0  0  0  0  0  0  0
  141.9061   78.4096  223.0335 H   0  0  0  0  0  0  0  0  0  0  0  0
  143.0908   78.7436  221.7404 H   0  0  0  0  0  0  0  0  0  0  0  0
  143.5288   79.8769  223.9976 H   0  0  0  0  0  0  0  0  0  0  0  0
  143.4828   80.9630  222.5452 H   0  0  0  0  0  0  0  0  0  0  0  0
  142.1018   81.3940  224.8899 H   0  0  0  0  0  0  0  0  0  0  0  0
  141.6796   82.0956  223.3128 H   0  0  0  0  0  0  0  0  0  0  0  0
  140.7238   79.3661  224.3690 H   0  0  0  0  0  0  0  0  0  0  0  0
  139.7426   80.8792  224.3410 H   0  0  0  0  0  0  0  0  0  0  0  0
  139.4591   79.1414  222.4257 H   0  0  0  0  0  0  0  0  0  0  0  0
  139.6050   80.9101  222.0338 H   0  0  0  0  0  0  0  0  0  0  0  0
  139.1546   70.3975  221.9131 H   0  0  0  0  0  0  0  0  0  0  0  0
  139.1919   68.6971  223.7523 H   0  0  0  0  0  0  0  0  0  0  0  0
  139.6933   68.0573  225.9727 H   0  0  0  0  0  0  0  0  0  0  0  0
  141.4742   70.9181  228.6730 H   0  0  0  0  0  0  0  0  0  0  0  0
  141.4329   72.5732  226.8724 H   0  0  0  0  0  0  0  0  0  0  0  0
  1  2  2  0
  2  3  1  0
  3  4  1  0
  4  5  1  0
  5  6  2  0
  5  7  1  0
  7  8  1  0
  8  9  1  0
  9 10  1  0
  9 11  1  0
 11 12  1  0
 12 13  1  0
 13 14  1  0
 14 15  1  0
 15 16  1  0
 16 17  1  0
 17 18  1  0
 18 19  1  0
  2 20  1  0
 20 21  2  0
 21 22  1  0
 22 23  2  0
 23 24  1  0
 24 25  2  0
 25 26  1  0
 25 27  1  0
 27 28  2  0
 28 29  1  0
 29 30  2  0
 12  7  1  0
 19 14  1  0
 30 20  1  0
 29 23  1  0
  3 31  1  0
  4 32  1  0
  4 33  1  0
  8 34  1  0
  8 35  1  0
  9 36  1  6
 10 37  1  0
 11 38  1  0
 11 39  1  0
 12 40  1  1
 13 41  1  0
 13 42  1  0
 15 43  1  0
 15 44  1  0
 16 45  1  0
 16 46  1  0
 17 47  1  0
 17 48  1  0
 18 49  1  0
 18 50  1  0
 19 51  1  0
 19 52  1  0
 21 53  1  0
 22 54  1  0
 24 55  1  0
 27 56  1  0
 28 57  1  0
M  END
>  <smiles>  (35) 
O=C(NCC(=O)N1C[C@H](O)C[C@H]1CN1CCCCC1)c1ccc2cc(Cl)ccc2n1

>  <score_type>  (35) 
oracle

>  <origin>  (35) 
autodockgpu

>  <m_score__min__energy>  (35) 
-9.2599999999999998

>  <m_primary>  (35) 
energy

>  <rmsd>  (35) 
2.364799638647067

>  <m_score__min__rmsd>  (35) 
2.364799638647067

>  <meeko>  (35) 
{"free_energy": -8.98, "intermolecular_energy": -11.07, "internal_energy": -1.63, "cluster_size": 30, "cluster_id": 1, "rank_in_cluster": 5}

>  <energy>  (35) 
-7.67

>  <cluster_rmsd>  (35) 
0.42

>  <cluster>  (35) 
4

$$$$

     RDKit          3D

 57 60  0  0  0  0  0  0  0  0999 V2000
  138.7420   71.6700  221.0640 O   0  0  0  0  0  0  0  0  0  0  0  0
  139.1590   72.0890  222.1940 C   0  0  0  0  0  0  0  0  0  0  0  0
  139.3610   73.4870  222.3230 N   0  0  0  0  0  0  0  0  0  0  0  0
  139.1110   74.4160  221.2340 C   0  0  0  0  0  0  0  0  0  0  0  0
  139.6320   75.7620  221.5790 C   0  0  0  0  0  0  0  0  0  0  0  0
  138.9440   76.4820  222.3440 O   0  0  0  0  0  0  0  0  0  0  0  0
  140.8760   76.1600  221.0210 N   0  0  0  0  0  0  0  0  0  0  0  0
  141.9050   75.2980  220.4520 C   0  0  0  0  0  0  0  0  0  0  0  0
  142.7010   76.1380  219.4850 C   0  0  2  0  0  0  0  0  0  0  0  0
  143.9400   76.4000  220.0610 O   0  0  0  0  0  0  0  0  0  0  0  0
  141.9200   77.4310  219.4570 C   0  0  0  0  0  0  0  0  0  0  0  0
  141.4280   77.5090  220.8790 C   0  0  1  0  0  0  0  0  0  0  0  0
  140.4060   78.5520  221.1400 C   0  0  0  0  0  0  0  0  0  0  0  0
  140.8310   79.5570  222.0920 N   0  0  0  0  0  0  0  0  0  0  0  0
  141.4550   80.6990  221.4510 C   0  0  0  0  0  0  0  0  0  0  0  0
  141.6040   81.7920  222.4860 C   0  0  0  0  0  0  0  0  0  0  0  0
  142.1690   81.2660  223.7810 C   0  0  0  0  0  0  0  0  0  0  0  0
  142.8360   79.9310  223.4610 C   0  0  0  0  0  0  0  0  0  0  0  0
  141.8170   78.9390  222.9560 C   0  0  0  0  0  0  0  0  0  0  0  0
  139.4090   71.1620  223.2800 C   0  0  0  0  0  0  0  0  0  0  0  0
  139.0980   69.8400  223.1700 C   0  0  0  0  0  0  0  0  0  0  0  0
  139.3800   69.0330  224.2710 C   0  0  0  0  0  0  0  0  0  0  0  0
  139.9440   69.5450  225.4160 C   0  0  0  0  0  0  0  0  0  0  0  0
  140.2090   68.7140  226.4870 C   0  0  0  0  0  0  0  0  0  0  0  0
  140.7820   69.2140  227.6590 C   0  0  0  0  0  0  0  0  0  0  0  0
  141.1250   68.1750  229.0290 Cl  0  0  0  0  0  0  0  0  0  0  0  0
  141.0790   70.5780  227.7170 C   0  0  0  0  0  0  0  0  0  0  0  0
  140.8020   71.3670  226.6380 C   0  0  0  0  0  0  0  0  0  0  0  0
  140.2400   70.8850  225.4850 C   0  0  0  0  0  0  0  0  0  0  0  0
  139.9600   71.6390  224.4120 N   0  0  0  0  0  0  0  0  0  0  0  0
  139.7080   73.8140  223.2650 H   0  0  0  0  0  0  0  0  0  0  0  0
  139.6134   74.0539  220.3249 H   0  0  0  0  0  0  0  0  0  0  0  0
  138.0267   74.4840  221.0620 H   0  0  0  0  0  0  0  0  0  0  0  0
  142.5605   74.9162  221.2486 H   0  0  0  0  0  0  0  0  0  0  0  0
  141.4543   74.4340  219.9417 H   0  0  0  0  0  0  0  0  0  0  0  0
  142.8478   75.6744  218.4983 H   0  0  0  0  0  0  0  0  0  0  0  0
  143.9550   77.3210  220.4780 H   0  0  0  0  0  0  0  0  0  0  0  0
  142.5653   78.2859  219.2066 H   0  0  0  0  0  0  0  0  0  0  0  0
  141.1210   77.4586  218.7015 H   0  0  0  0  0  0  0  0  0  0  0  0
  142.2144   77.7960  221.5926 H   0  0  0  0  0  0  0  0  0  0  0  0
  140.1693   79.0521  220.1893 H   0  0  0  0  0  0  0  0  0  0  0  0
  139.5326   78.0448  221.5758 H   0  0  0  0  0  0  0  0  0  0  0  0
  142.4443   80.4149  221.0630 H   0  0  0  0  0  0  0  0  0  0  0  0
  140.8381   81.0499  220.6106 H   0  0  0  0  0  0  0  0  0  0  0  0
  142.2791   82.5657  222.0916 H   0  0  0  0  0  0  0  0  0  0  0  0
  140.6055   82.2049  222.6922 H   0  0  0  0  0  0  0  0  0  0  0  0
  142.9093   81.9719  224.1856 H   0  0  0  0  0  0  0  0  0  0  0  0
  141.3779   81.1413  224.5351 H   0  0  0  0  0  0  0  0  0  0  0  0
  143.6040   80.0859  222.6889 H   0  0  0  0  0  0  0  0  0  0  0  0
  143.2952   79.5337  224.3782 H   0  0  0  0  0  0  0  0  0  0  0  0
  142.3386   78.1520  222.3916 H   0  0  0  0  0  0  0  0  0  0  0  0
  141.2891   78.5246  223.8276 H   0  0  0  0  0  0  0  0  0  0  0  0
  138.6457   69.4289  222.2554 H   0  0  0  0  0  0  0  0  0  0  0  0
  139.1455   67.9594  224.2228 H   0  0  0  0  0  0  0  0  0  0  0  0
  139.9655   67.6436  226.4162 H   0  0  0  0  0  0  0  0  0  0  0  0
  141.5308   71.0111  228.6216 H   0  0  0  0  0  0  0  0  0  0  0  0
  141.0410   72.4391  226.6969 H   0  0  0  0  0  0  0  0  0  0  0  0
  1  2  2  0
  2  3  1  0
  3  4  1  0
  4  5  1  0
  5  6  2  0
  5  7  1  0
  7  8  1  0
  8  9  1  0
  9 10  1  0
  9 11  1  0
 11 12  1  0
 12 13  1  0
 13 14  1  0
 14 15  1  0
 15 16  1  0
 16 17  1  0
 17 18  1  0
 18 19  1  0
  2 20  1  0
 20 21  2  0
 21 22  1  0
 22 23  2  0
 23 24  1  0
 24 25  2  0
 25 26  1  0
 25 27  1  0
 27 28  2  0
 28 29  1  0
 29 30  2  0
 12  7  1  0
 19 14  1  0
 30 20  1  0
 29 23  1  0
  3 31  1  0
  4 32  1  0
  4 33  1  0
  8 34  1  0
  8 35  1  0
  9 36  1  6
 10 37  1  0
 11 38  1  0
 11 39  1  0
 12 40  1  1
 13 41  1  0
 13 42  1  0
 15 43  1  0
 15 44  1  0
 16 45  1  0
 16 46  1  0
 17 47  1  0
 17 48  1  0
 18 49  1  0
 18 50  1  0
 19 51  1  0
 19 52  1  0
 21 53  1  0
 22 54  1  0
 24 55  1  0
 27 56  1  0
 28 57  1  0
M  END
>  <smiles>  (36) 
O=C(NCC(=O)N1C[C@H](O)C[C@H]1CN1CCCCC1)c1ccc2cc(Cl)ccc2n1

>  <score_type>  (36) 
oracle

>  <origin>  (36) 
autodockgpu

>  <m_score__min__energy>  (36) 
-9.2599999999999998

>  <m_primary>  (36) 
energy

>  <rmsd>  (36) 
2.28167810299539

>  <m_score__min__rmsd>  (36) 
2.28167810299539

>  <meeko>  (36) 
{"free_energy": -8.94, "intermolecular_energy": -11.03, "internal_energy": -1.63, "cluster_size": 30, "cluster_id": 1, "rank_in_cluster": 6}

>  <energy>  (36) 
-7.55

>  <cluster_rmsd>  (36) 
1.55

>  <cluster>  (36) 
4

$$$$

     RDKit          3D

 57 60  0  0  0  0  0  0  0  0999 V2000
  139.0490   72.0600  220.8630 O   0  0  0  0  0  0  0  0  0  0  0  0
  139.2990   72.4240  222.0580 C   0  0  0  0  0  0  0  0  0  0  0  0
  139.3520   73.8200  222.3040 N   0  0  0  0  0  0  0  0  0  0  0  0
  139.1360   74.8050  221.2580 C   0  0  0  0  0  0  0  0  0  0  0  0
  139.8490   76.0650  221.5850 C   0  0  0  0  0  0  0  0  0  0  0  0
  139.2880   76.8750  222.3640 O   0  0  0  0  0  0  0  0  0  0  0  0
  141.1230   76.2830  220.9960 N   0  0  0  0  0  0  0  0  0  0  0  0
  142.1160   75.2770  220.6410 C   0  0  0  0  0  0  0  0  0  0  0  0
  142.9740   75.8660  219.5500 C   0  0  2  0  0  0  0  0  0  0  0  0
  144.2130   76.1800  220.0980 O   0  0  0  0  0  0  0  0  0  0  0  0
  142.2630   77.1640  219.2410 C   0  0  0  0  0  0  0  0  0  0  0  0
  141.7480   77.5490  220.6040 C   0  0  1  0  0  0  0  0  0  0  0  0
  140.7770   78.6700  220.6220 C   0  0  0  0  0  0  0  0  0  0  0  0
  140.9630   79.5840  221.7300 N   0  0  0  0  0  0  0  0  0  0  0  0
  141.6150   80.8160  221.3280 C   0  0  0  0  0  0  0  0  0  0  0  0
  141.5090   81.7960  222.4760 C   0  0  0  0  0  0  0  0  0  0  0  0
  141.8720   81.1580  223.7930 C   0  0  0  0  0  0  0  0  0  0  0  0
  142.6700   79.8970  223.4670 C   0  0  0  0  0  0  0  0  0  0  0  0
  141.8220   78.9210  222.6910 C   0  0  0  0  0  0  0  0  0  0  0  0
  139.5160   71.4410  223.1010 C   0  0  0  0  0  0  0  0  0  0  0  0
  139.1960   70.1290  222.9160 C   0  0  0  0  0  0  0  0  0  0  0  0
  139.4460   69.2650  223.9810 C   0  0  0  0  0  0  0  0  0  0  0  0
  139.9880   69.7120  225.1630 C   0  0  0  0  0  0  0  0  0  0  0  0
  140.2210   68.8250  226.1960 C   0  0  0  0  0  0  0  0  0  0  0  0
  140.7710   69.2590  227.4050 C   0  0  0  0  0  0  0  0  0  0  0  0
  141.0730   68.1480  228.7270 Cl  0  0  0  0  0  0  0  0  0  0  0  0
  141.0780   70.6150  227.5390 C   0  0  0  0  0  0  0  0  0  0  0  0
  140.8330   71.4610  226.4950 C   0  0  0  0  0  0  0  0  0  0  0  0
  140.2940   71.0440  225.3070 C   0  0  0  0  0  0  0  0  0  0  0  0
  140.0460   71.8540  224.2680 N   0  0  0  0  0  0  0  0  0  0  0  0
  139.5620   74.1020  223.2990 H   0  0  0  0  0  0  0  0  0  0  0  0
  139.5147   74.4104  220.3036 H   0  0  0  0  0  0  0  0  0  0  0  0
  138.0588   75.0127  221.1776 H   0  0  0  0  0  0  0  0  0  0  0  0
  142.7348   75.0322  221.5169 H   0  0  0  0  0  0  0  0  0  0  0  0
  141.6302   74.3509  220.2998 H   0  0  0  0  0  0  0  0  0  0  0  0
  143.1152   75.2061  218.6813 H   0  0  0  0  0  0  0  0  0  0  0  0
  144.2620   77.1610  220.3410 H   0  0  0  0  0  0  0  0  0  0  0  0
  142.9575   77.9193  218.8446 H   0  0  0  0  0  0  0  0  0  0  0  0
  141.4817   77.0781  218.4715 H   0  0  0  0  0  0  0  0  0  0  0  0
  142.5346   77.9358  221.2686 H   0  0  0  0  0  0  0  0  0  0  0  0
  140.8819   79.2353  219.6842 H   0  0  0  0  0  0  0  0  0  0  0  0
  139.7766   78.2268  220.7355 H   0  0  0  0  0  0  0  0  0  0  0  0
  142.6733   80.6212  221.0997 H   0  0  0  0  0  0  0  0  0  0  0  0
  141.1342   81.2273  220.4282 H   0  0  0  0  0  0  0  0  0  0  0  0
  142.1909   82.6386  222.2888 H   0  0  0  0  0  0  0  0  0  0  0  0
  140.4653   82.1378  222.5381 H   0  0  0  0  0  0  0  0  0  0  0  0
  142.4832   81.8485  224.3927 H   0  0  0  0  0  0  0  0  0  0  0  0
  140.9712   80.9155  224.3759 H   0  0  0  0  0  0  0  0  0  0  0  0
  143.5493   80.1706  222.8654 H   0  0  0  0  0  0  0  0  0  0  0  0
  142.9866   79.4233  224.4079 H   0  0  0  0  0  0  0  0  0  0  0  0
  142.4840   78.2259  222.1537 H   0  0  0  0  0  0  0  0  0  0  0  0
  141.1789   78.3890  223.4075 H   0  0  0  0  0  0  0  0  0  0  0  0
  138.7614   69.7693  221.9717 H   0  0  0  0  0  0  0  0  0  0  0  0
  139.2033   68.1976  223.8730 H   0  0  0  0  0  0  0  0  0  0  0  0
  139.9700   67.7620  226.0650 H   0  0  0  0  0  0  0  0  0  0  0  0
  141.5121   70.9972  228.4746 H   0  0  0  0  0  0  0  0  0  0  0  0
  141.0800   72.5263  226.6139 H   0  0  0  0  0  0  0  0  0  0  0  0
  1  2  2  0
  2  3  1  0
  3  4  1  0
  4  5  1  0
  5  6  2  0
  5  7  1  0
  7  8  1  0
  8  9  1  0
  9 10  1  0
  9 11  1  0
 11 12  1  0
 12 13  1  0
 13 14  1  0
 14 15  1  0
 15 16  1  0
 16 17  1  0
 17 18  1  0
 18 19  1  0
  2 20  1  0
 20 21  2  0
 21 22  1  0
 22 23  2  0
 23 24  1  0
 24 25  2  0
 25 26  1  0
 25 27  1  0
 27 28  2  0
 28 29  1  0
 29 30  2  0
 12  7  1  0
 19 14  1  0
 30 20  1  0
 29 23  1  0
  3 31  1  0
  4 32  1  0
  4 33  1  0
  8 34  1  0
  8 35  1  0
  9 36  1  6
 10 37  1  0
 11 38  1  0
 11 39  1  0
 12 40  1  1
 13 41  1  0
 13 42  1  0
 15 43  1  0
 15 44  1  0
 16 45  1  0
 16 46  1  0
 17 47  1  0
 17 48  1  0
 18 49  1  0
 18 50  1  0
 19 51  1  0
 19 52  1  0
 21 53  1  0
 22 54  1  0
 24 55  1  0
 27 56  1  0
 28 57  1  0
M  END
>  <smiles>  (37) 
O=C(NCC(=O)N1C[C@H](O)C[C@H]1CN1CCCCC1)c1ccc2cc(Cl)ccc2n1

>  <score_type>  (37) 
oracle

>  <origin>  (37) 
autodockgpu

>  <m_score__min__energy>  (37) 
-9.2599999999999998

>  <m_primary>  (37) 
energy

>  <rmsd>  (37) 
2.3972088028718725

>  <m_score__min__rmsd>  (37) 
2.3972088028718725

>  <meeko>  (37) 
{"free_energy": -9.08, "intermolecular_energy": -11.17, "internal_energy": -1.69, "cluster_size": 30, "cluster_id": 1, "rank_in_cluster": 3}

>  <energy>  (37) 
-7.4

>  <cluster_rmsd>  (37) 
1.85

>  <cluster>  (37) 
4

$$$$

     RDKit          3D

 57 60  0  0  0  0  0  0  0  0999 V2000
  140.0910   72.0280  220.3930 O   0  0  0  0  0  0  0  0  0  0  0  0
  140.3520   72.4270  221.5750 C   0  0  0  0  0  0  0  0  0  0  0  0
  140.7810   73.7720  221.7160 N   0  0  0  0  0  0  0  0  0  0  0  0
  140.9240   74.6680  220.5810 C   0  0  0  0  0  0  0  0  0  0  0  0
  141.1300   76.0610  221.0510 C   0  0  0  0  0  0  0  0  0  0  0  0
  140.8640   76.3250  222.2500 O   0  0  0  0  0  0  0  0  0  0  0  0
  141.6140   77.0160  220.1170 N   0  0  0  0  0  0  0  0  0  0  0  0
  142.4440   76.7640  218.9460 C   0  0  0  0  0  0  0  0  0  0  0  0
  142.1990   77.8940  217.9770 C   0  0  2  0  0  0  0  0  0  0  0  0
  143.3200   78.7160  217.9810 O   0  0  0  0  0  0  0  0  0  0  0  0
  141.0680   78.6490  218.6370 C   0  0  0  0  0  0  0  0  0  0  0  0
  141.4040   78.4660  220.0950 C   0  0  1  0  0  0  0  0  0  0  0  0
  140.3440   78.8820  221.0470 C   0  0  0  0  0  0  0  0  0  0  0  0
  140.8080   79.7980  222.0680 N   0  0  0  0  0  0  0  0  0  0  0  0
  141.3410   81.0260  221.5100 C   0  0  0  0  0  0  0  0  0  0  0  0
  141.5330   82.0100  222.6440 C   0  0  0  0  0  0  0  0  0  0  0  0
  142.2150   81.3740  223.8290 C   0  0  0  0  0  0  0  0  0  0  0  0
  142.9000   80.1090  223.3170 C   0  0  0  0  0  0  0  0  0  0  0  0
  141.8790   79.1340  222.7840 C   0  0  0  0  0  0  0  0  0  0  0  0
  140.2090   71.5330  222.7070 C   0  0  0  0  0  0  0  0  0  0  0  0
  139.5850   70.3280  222.5850 C   0  0  0  0  0  0  0  0  0  0  0  0
  139.5020   69.5420  223.7330 C   0  0  0  0  0  0  0  0  0  0  0  0
  140.0250   69.9610  224.9340 C   0  0  0  0  0  0  0  0  0  0  0  0
  139.9250   69.1540  226.0510 C   0  0  0  0  0  0  0  0  0  0  0  0
  140.4490   69.5610  227.2800 C   0  0  0  0  0  0  0  0  0  0  0  0
  140.3300   68.5510  228.7080 Cl  0  0  0  0  0  0  0  0  0  0  0  0
  141.0790   70.8060  227.3470 C   0  0  0  0  0  0  0  0  0  0  0  0
  141.1590   71.5750  226.2220 C   0  0  0  0  0  0  0  0  0  0  0  0
  140.6470   71.1840  225.0130 C   0  0  0  0  0  0  0  0  0  0  0  0
  140.7140   71.9210  223.8940 N   0  0  0  0  0  0  0  0  0  0  0  0
  140.9940   74.0840  222.7020 H   0  0  0  0  0  0  0  0  0  0  0  0
  141.7897   74.3559  219.9784 H   0  0  0  0  0  0  0  0  0  0  0  0
  140.0085   74.6259  219.9726 H   0  0  0  0  0  0  0  0  0  0  0  0
  143.5052   76.7376  219.2343 H   0  0  0  0  0  0  0  0  0  0  0  0
  142.1929   75.7953  218.4893 H   0  0  0  0  0  0  0  0  0  0  0  0
  141.9891   77.5687  216.9474 H   0  0  0  0  0  0  0  0  0  0  0  0
  143.5100   79.0710  217.0530 H   0  0  0  0  0  0  0  0  0  0  0  0
  141.0729   79.7116  218.3526 H   0  0  0  0  0  0  0  0  0  0  0  0
  140.0651   78.2942  218.3572 H   0  0  0  0  0  0  0  0  0  0  0  0
  142.2472   79.0905  220.4252 H   0  0  0  0  0  0  0  0  0  0  0  0
  139.5398   79.3727  220.4791 H   0  0  0  0  0  0  0  0  0  0  0  0
  139.9986   77.9734  221.5620 H   0  0  0  0  0  0  0  0  0  0  0  0
  142.3062   80.8261  221.0217 H   0  0  0  0  0  0  0  0  0  0  0  0
  140.6490   81.4371  220.7602 H   0  0  0  0  0  0  0  0  0  0  0  0
  142.1486   82.8488  222.2870 H   0  0  0  0  0  0  0  0  0  0  0  0
  140.5403   82.3569  222.9669 H   0  0  0  0  0  0  0  0  0  0  0  0
  142.9604   82.0635  224.2520 H   0  0  0  0  0  0  0  0  0  0  0  0
  141.4899   81.1371  224.6215 H   0  0  0  0  0  0  0  0  0  0  0  0
  143.5997   80.3769  222.5116 H   0  0  0  0  0  0  0  0  0  0  0  0
  143.4426   79.6366  224.1491 H   0  0  0  0  0  0  0  0  0  0  0  0
  142.3813   78.4339  222.1002 H   0  0  0  0  0  0  0  0  0  0  0  0
  141.4354   78.6076  223.6420 H   0  0  0  0  0  0  0  0  0  0  0  0
  139.1662   69.9912  221.6252 H   0  0  0  0  0  0  0  0  0  0  0  0
  139.0057   68.5619  223.6770 H   0  0  0  0  0  0  0  0  0  0  0  0
  139.4256   68.1771  225.9712 H   0  0  0  0  0  0  0  0  0  0  0  0
  141.5059   71.1628  228.2959 H   0  0  0  0  0  0  0  0  0  0  0  0
  141.6573   72.5533  226.2893 H   0  0  0  0  0  0  0  0  0  0  0  0
  1  2  2  0
  2  3  1  0
  3  4  1  0
  4  5  1  0
  5  6  2  0
  5  7  1  0
  7  8  1  0
  8  9  1  0
  9 10  1  0
  9 11  1  0
 11 12  1  0
 12 13  1  0
 13 14  1  0
 14 15  1  0
 15 16  1  0
 16 17  1  0
 17 18  1  0
 18 19  1  0
  2 20  1  0
 20 21  2  0
 21 22  1  0
 22 23  2  0
 23 24  1  0
 24 25  2  0
 25 26  1  0
 25 27  1  0
 27 28  2  0
 28 29  1  0
 29 30  2  0
 12  7  1  0
 19 14  1  0
 30 20  1  0
 29 23  1  0
  3 31  1  0
  4 32  1  0
  4 33  1  0
  8 34  1  0
  8 35  1  0
  9 36  1  6
 10 37  1  0
 11 38  1  0
 11 39  1  0
 12 40  1  1
 13 41  1  0
 13 42  1  0
 15 43  1  0
 15 44  1  0
 16 45  1  0
 16 46  1  0
 17 47  1  0
 17 48  1  0
 18 49  1  0
 18 50  1  0
 19 51  1  0
 19 52  1  0
 21 53  1  0
 22 54  1  0
 24 55  1  0
 27 56  1  0
 28 57  1  0
M  END
>  <smiles>  (38) 
O=C(NCC(=O)N1C[C@H](O)C[C@H]1CN1CCCCC1)c1ccc2cc(Cl)ccc2n1

>  <score_type>  (38) 
oracle

>  <origin>  (38) 
autodockgpu

>  <m_score__min__energy>  (38) 
-9.2599999999999998

>  <m_primary>  (38) 
energy

>  <rmsd>  (38) 
2.5833626980153195

>  <m_score__min__rmsd>  (38) 
2.5833626980153195

>  <meeko>  (38) 
{"free_energy": -8.21, "intermolecular_energy": -10.3, "internal_energy": -2.07, "cluster_size": 30, "cluster_id": 1, "rank_in_cluster": 20}

>  <energy>  (38) 
-7.28

>  <cluster_rmsd>  (38) 
1.91

>  <cluster>  (38) 
4

$$$$

     RDKit          3D

 57 60  0  0  0  0  0  0  0  0999 V2000
  138.7690   72.9470  221.2870 O   0  0  0  0  0  0  0  0  0  0  0  0
  139.8320   72.7230  221.9530 C   0  0  0  0  0  0  0  0  0  0  0  0
  140.9780   73.4830  221.6030 N   0  0  0  0  0  0  0  0  0  0  0  0
  140.9630   74.4730  220.5400 C   0  0  0  0  0  0  0  0  0  0  0  0
  142.3270   75.0190  220.3280 C   0  0  0  0  0  0  0  0  0  0  0  0
  143.2990   74.3770  220.7990 O   0  0  0  0  0  0  0  0  0  0  0  0
  142.4550   76.2360  219.6070 N   0  0  0  0  0  0  0  0  0  0  0  0
  142.8910   76.4030  218.2260 C   0  0  0  0  0  0  0  0  0  0  0  0
  142.3080   77.7030  217.7310 C   0  0  2  0  0  0  0  0  0  0  0  0
  143.3380   78.6330  217.6480 O   0  0  0  0  0  0  0  0  0  0  0  0
  141.4070   78.1110  218.8740 C   0  0  0  0  0  0  0  0  0  0  0  0
  142.1860   77.6030  220.0600 C   0  0  1  0  0  0  0  0  0  0  0  0
  141.4570   77.6210  221.3520 C   0  0  0  0  0  0  0  0  0  0  0  0
  141.2720   78.9500  221.8960 N   0  0  0  0  0  0  0  0  0  0  0  0
  142.3830   79.3650  222.7330 C   0  0  0  0  0  0  0  0  0  0  0  0
  142.2260   80.8430  223.0160 C   0  0  0  0  0  0  0  0  0  0  0  0
  140.8170   81.1900  223.4250 C   0  0  0  0  0  0  0  0  0  0  0  0
  140.1550   79.8880  223.8720 C   0  0  0  0  0  0  0  0  0  0  0  0
  140.0840   78.9120  222.7250 C   0  0  0  0  0  0  0  0  0  0  0  0
  139.8470   71.7350  223.0140 C   0  0  0  0  0  0  0  0  0  0  0  0
  139.2970   70.5010  222.8400 C   0  0  0  0  0  0  0  0  0  0  0  0
  139.3650   69.6240  223.9220 C   0  0  0  0  0  0  0  0  0  0  0  0
  139.9590   69.9840  225.1090 C   0  0  0  0  0  0  0  0  0  0  0  0
  140.0080   69.0880  226.1580 C   0  0  0  0  0  0  0  0  0  0  0  0
  140.6060   69.4350  227.3720 C   0  0  0  0  0  0  0  0  0  0  0  0
  140.6770   68.3110  228.7150 Cl  0  0  0  0  0  0  0  0  0  0  0  0
  141.1540   70.7150  227.4930 C   0  0  0  0  0  0  0  0  0  0  0  0
  141.0860   71.5730  226.4340 C   0  0  0  0  0  0  0  0  0  0  0  0
  140.5010   71.2410  225.2400 C   0  0  0  0  0  0  0  0  0  0  0  0
  140.4230   72.0650  224.1850 N   0  0  0  0  0  0  0  0  0  0  0  0
  141.8490   73.2830  222.1660 H   0  0  0  0  0  0  0  0  0  0  0  0
  140.6116   74.0022  219.6100 H   0  0  0  0  0  0  0  0  0  0  0  0
  140.2881   75.2939  220.8239 H   0  0  0  0  0  0  0  0  0  0  0  0
  143.9894   76.4399  218.1789 H   0  0  0  0  0  0  0  0  0  0  0  0
  142.5535   75.5607  217.6043 H   0  0  0  0  0  0  0  0  0  0  0  0
  141.8027   77.6298  216.7567 H   0  0  0  0  0  0  0  0  0  0  0  0
  143.3080   79.1250  216.7650 H   0  0  0  0  0  0  0  0  0  0  0  0
  141.2776   79.2026  218.9148 H   0  0  0  0  0  0  0  0  0  0  0  0
  140.3833   77.7146  218.8042 H   0  0  0  0  0  0  0  0  0  0  0  0
  143.0622   78.2234  220.2994 H   0  0  0  0  0  0  0  0  0  0  0  0
  140.4667   77.1673  221.1986 H   0  0  0  0  0  0  0  0  0  0  0  0
  142.0678   77.0595  222.0743 H   0  0  0  0  0  0  0  0  0  0  0  0
  142.3709   78.8005  223.6770 H   0  0  0  0  0  0  0  0  0  0  0  0
  143.3389   79.1720  222.2241 H   0  0  0  0  0  0  0  0  0  0  0  0
  142.9118   81.1244  223.8287 H   0  0  0  0  0  0  0  0  0  0  0  0
  142.4586   81.3937  222.0926 H   0  0  0  0  0  0  0  0  0  0  0  0
  140.8303   81.9125  224.2544 H   0  0  0  0  0  0  0  0  0  0  0  0
  140.2649   81.6480  222.5910 H   0  0  0  0  0  0  0  0  0  0  0  0
  140.7431   79.4446  224.6890 H   0  0  0  0  0  0  0  0  0  0  0  0
  139.1337   80.1077  224.2165 H   0  0  0  0  0  0  0  0  0  0  0  0
  139.9686   77.8964  223.1314 H   0  0  0  0  0  0  0  0  0  0  0  0
  139.2261   79.1932  222.0966 H   0  0  0  0  0  0  0  0  0  0  0  0
  138.8220   70.2103  221.8914 H   0  0  0  0  0  0  0  0  0  0  0  0
  138.9321   68.6176  223.8235 H   0  0  0  0  0  0  0  0  0  0  0  0
  139.5699   68.0864  226.0363 H   0  0  0  0  0  0  0  0  0  0  0  0
  141.6349   71.0274  228.4317 H   0  0  0  0  0  0  0  0  0  0  0  0
  141.5208   72.5774  226.5438 H   0  0  0  0  0  0  0  0  0  0  0  0
  1  2  2  0
  2  3  1  0
  3  4  1  0
  4  5  1  0
  5  6  2  0
  5  7  1  0
  7  8  1  0
  8  9  1  0
  9 10  1  0
  9 11  1  0
 11 12  1  0
 12 13  1  0
 13 14  1  0
 14 15  1  0
 15 16  1  0
 16 17  1  0
 17 18  1  0
 18 19  1  0
  2 20  1  0
 20 21  2  0
 21 22  1  0
 22 23  2  0
 23 24  1  0
 24 25  2  0
 25 26  1  0
 25 27  1  0
 27 28  2  0
 28 29  1  0
 29 30  2  0
 12  7  1  0
 19 14  1  0
 30 20  1  0
 29 23  1  0
  3 31  1  0
  4 32  1  0
  4 33  1  0
  8 34  1  0
  8 35  1  0
  9 36  1  6
 10 37  1  0
 11 38  1  0
 11 39  1  0
 12 40  1  1
 13 41  1  0
 13 42  1  0
 15 43  1  0
 15 44  1  0
 16 45  1  0
 16 46  1  0
 17 47  1  0
 17 48  1  0
 18 49  1  0
 18 50  1  0
 19 51  1  0
 19 52  1  0
 21 53  1  0
 22 54  1  0
 24 55  1  0
 27 56  1  0
 28 57  1  0
M  END
>  <smiles>  (39) 
O=C(NCC(=O)N1C[C@H](O)C[C@H]1CN1CCCCC1)c1ccc2cc(Cl)ccc2n1

>  <score_type>  (39) 
oracle

>  <origin>  (39) 
autodockgpu

>  <m_score__min__energy>  (39) 
-9.2599999999999998

>  <m_primary>  (39) 
energy

>  <rmsd>  (39) 
2.597288094455233

>  <m_score__min__rmsd>  (39) 
2.597288094455233

>  <meeko>  (39) 
{"free_energy": -8.16, "intermolecular_energy": -10.25, "internal_energy": -1.78, "cluster_size": 30, "cluster_id": 1, "rank_in_cluster": 22}

>  <energy>  (39) 
-7.7

>  <cluster_rmsd>  (39) 
0.0

>  <cluster>  (39) 
5

$$$$

     RDKit          3D

 57 60  0  0  0  0  0  0  0  0999 V2000
  139.9130   72.2420  220.6370 O   0  0  0  0  0  0  0  0  0  0  0  0
  139.7430   72.6040  221.8480 C   0  0  0  0  0  0  0  0  0  0  0  0
  139.4660   73.9770  222.0720 N   0  0  0  0  0  0  0  0  0  0  0  0
  139.3770   74.9430  220.9900 C   0  0  0  0  0  0  0  0  0  0  0  0
  138.9570   76.2650  221.5160 C   0  0  0  0  0  0  0  0  0  0  0  0
  138.8940   76.4120  222.7620 O   0  0  0  0  0  0  0  0  0  0  0  0
  138.6470   77.2880  220.5810 N   0  0  0  0  0  0  0  0  0  0  0  0
  137.3420   77.6010  220.0120 C   0  0  0  0  0  0  0  0  0  0  0  0
  137.3760   79.0480  219.5920 C   0  0  2  0  0  0  0  0  0  0  0  0
  137.4400   79.0920  218.2030 O   0  0  0  0  0  0  0  0  0  0  0  0
  138.7090   79.5130  220.1310 C   0  0  0  0  0  0  0  0  0  0  0  0
  139.5440   78.2690  219.9640 C   0  0  1  0  0  0  0  0  0  0  0  0
  140.8680   78.3000  220.6320 C   0  0  0  0  0  0  0  0  0  0  0  0
  140.9700   79.2980  221.6760 N   0  0  0  0  0  0  0  0  0  0  0  0
  141.9860   80.2940  221.3920 C   0  0  0  0  0  0  0  0  0  0  0  0
  141.8210   81.4250  222.3840 C   0  0  0  0  0  0  0  0  0  0  0  0
  141.6530   80.9140  223.7930 C   0  0  0  0  0  0  0  0  0  0  0  0
  142.1750   79.4800  223.8080 C   0  0  0  0  0  0  0  0  0  0  0  0
  141.3520   78.6090  222.8920 C   0  0  0  0  0  0  0  0  0  0  0  0
  139.8320   71.6410  222.9270 C   0  0  0  0  0  0  0  0  0  0  0  0
  139.4390   70.3470  222.7570 C   0  0  0  0  0  0  0  0  0  0  0  0
  139.5680   69.5010  223.8580 C   0  0  0  0  0  0  0  0  0  0  0  0
  140.0670   69.9480  225.0590 C   0  0  0  0  0  0  0  0  0  0  0  0
  140.1810   69.0790  226.1270 C   0  0  0  0  0  0  0  0  0  0  0  0
  140.6850   69.5130  227.3550 C   0  0  0  0  0  0  0  0  0  0  0  0
  140.8350   68.4260  228.7220 Cl  0  0  0  0  0  0  0  0  0  0  0  0
  141.0720   70.8510  227.4720 C   0  0  0  0  0  0  0  0  0  0  0  0
  140.9450   71.6790  226.3940 C   0  0  0  0  0  0  0  0  0  0  0  0
  140.4510   71.2610  225.1860 C   0  0  0  0  0  0  0  0  0  0  0  0
  140.3180   72.0550  224.1130 N   0  0  0  0  0  0  0  0  0  0  0  0
  139.3300   74.2570  223.0810 H   0  0  0  0  0  0  0  0  0  0  0  0
  140.3609   75.0399  220.5077 H   0  0  0  0  0  0  0  0  0  0  0  0
  138.6326   74.5950  220.2588 H   0  0  0  0  0  0  0  0  0  0  0  0
  137.1472   76.9596  219.1398 H   0  0  0  0  0  0  0  0  0  0  0  0
  136.5427   77.4258  220.7471 H   0  0  0  0  0  0  0  0  0  0  0  0
  136.5146   79.6385  219.9374 H   0  0  0  0  0  0  0  0  0  0  0  0
  136.9210   79.8830  217.8430 H   0  0  0  0  0  0  0  0  0  0  0  0
  139.1116   80.3505  219.5423 H   0  0  0  0  0  0  0  0  0  0  0  0
  138.6701   79.8950  221.1618 H   0  0  0  0  0  0  0  0  0  0  0  0
  139.8346   78.0811  218.9199 H   0  0  0  0  0  0  0  0  0  0  0  0
  141.0557   77.3116  221.0769 H   0  0  0  0  0  0  0  0  0  0  0  0
  141.6098   78.5620  219.8632 H   0  0  0  0  0  0  0  0  0  0  0  0
  142.9860   79.8479  221.4971 H   0  0  0  0  0  0  0  0  0  0  0  0
  141.8776   80.6685  220.3634 H   0  0  0  0  0  0  0  0  0  0  0  0
  142.7125   82.0680  222.3424 H   0  0  0  0  0  0  0  0  0  0  0  0
  140.9150   81.9873  222.1139 H   0  0  0  0  0  0  0  0  0  0  0  0
  142.2320   81.5349  224.4924 H   0  0  0  0  0  0  0  0  0  0  0  0
  140.5985   80.9531  224.1036 H   0  0  0  0  0  0  0  0  0  0  0  0
  143.2220   79.4723  223.4708 H   0  0  0  0  0  0  0  0  0  0  0  0
  142.1039   79.0861  224.8326 H   0  0  0  0  0  0  0  0  0  0  0  0
  141.9420   77.7199  222.6246 H   0  0  0  0  0  0  0  0  0  0  0  0
  140.4310   78.3335  223.4267 H   0  0  0  0  0  0  0  0  0  0  0  0
  139.0393   69.9873  221.7974 H   0  0  0  0  0  0  0  0  0  0  0  0
  139.2626   68.4485  223.7634 H   0  0  0  0  0  0  0  0  0  0  0  0
  139.8704   68.0305  226.0084 H   0  0  0  0  0  0  0  0  0  0  0  0
  141.4744   71.2325  228.4220 H   0  0  0  0  0  0  0  0  0  0  0  0
  141.2533   72.7296  226.4999 H   0  0  0  0  0  0  0  0  0  0  0  0
  1  2  2  0
  2  3  1  0
  3  4  1  0
  4  5  1  0
  5  6  2  0
  5  7  1  0
  7  8  1  0
  8  9  1  0
  9 10  1  0
  9 11  1  0
 11 12  1  0
 12 13  1  0
 13 14  1  0
 14 15  1  0
 15 16  1  0
 16 17  1  0
 17 18  1  0
 18 19  1  0
  2 20  1  0
 20 21  2  0
 21 22  1  0
 22 23  2  0
 23 24  1  0
 24 25  2  0
 25 26  1  0
 25 27  1  0
 27 28  2  0
 28 29  1  0
 29 30  2  0
 12  7  1  0
 19 14  1  0
 30 20  1  0
 29 23  1  0
  3 31  1  0
  4 32  1  0
  4 33  1  0
  8 34  1  0
  8 35  1  0
  9 36  1  1
 10 37  1  0
 11 38  1  0
 11 39  1  0
 12 40  1  6
 13 41  1  0
 13 42  1  0
 15 43  1  0
 15 44  1  0
 16 45  1  0
 16 46  1  0
 17 47  1  0
 17 48  1  0
 18 49  1  0
 18 50  1  0
 19 51  1  0
 19 52  1  0
 21 53  1  0
 22 54  1  0
 24 55  1  0
 27 56  1  0
 28 57  1  0
M  END
>  <smiles>  (40) 
O=C(NCC(=O)N1C[C@H](O)C[C@H]1CN1CCCCC1)c1ccc2cc(Cl)ccc2n1

>  <score_type>  (40) 
oracle

>  <origin>  (40) 
autodockgpu

>  <m_score__min__energy>  (40) 
-9.2599999999999998

>  <m_primary>  (40) 
energy

>  <rmsd>  (40) 
2.7815956454774837

>  <m_score__min__rmsd>  (40) 
2.7815956454774837

>  <meeko>  (40) 
{"free_energy": -7.42, "intermolecular_energy": -9.51, "internal_energy": -2.11, "cluster_size": 1, "cluster_id": 7, "rank_in_cluster": 1}

>  <energy>  (40) 
-7.22

>  <cluster_rmsd>  (40) 
1.09

>  <cluster>  (40) 
5

$$$$

     RDKit          3D

 57 60  0  0  0  0  0  0  0  0999 V2000
  138.7490   73.1250  221.0100 O   0  0  0  0  0  0  0  0  0  0  0  0
  139.8090   72.8850  221.6780 C   0  0  0  0  0  0  0  0  0  0  0  0
  140.9690   73.6180  221.3190 N   0  0  0  0  0  0  0  0  0  0  0  0
  140.9740   74.5970  220.2460 C   0  0  0  0  0  0  0  0  0  0  0  0
  142.2480   75.3580  220.2520 C   0  0  0  0  0  0  0  0  0  0  0  0
  143.2360   74.8500  220.8380 O   0  0  0  0  0  0  0  0  0  0  0  0
  142.2770   76.6180  219.5970 N   0  0  0  0  0  0  0  0  0  0  0  0
  142.6550   76.8870  218.2150 C   0  0  0  0  0  0  0  0  0  0  0  0
  141.9770   78.1720  217.8110 C   0  0  2  0  0  0  0  0  0  0  0  0
  142.9450   79.1690  217.7490 O   0  0  0  0  0  0  0  0  0  0  0  0
  141.0910   78.4600  219.0010 C   0  0  0  0  0  0  0  0  0  0  0  0
  141.9400   77.9390  220.1330 C   0  0  1  0  0  0  0  0  0  0  0  0
  141.2550   77.8410  221.4450 C   0  0  0  0  0  0  0  0  0  0  0  0
  141.2130   79.0920  222.1740 N   0  0  0  0  0  0  0  0  0  0  0  0
  141.9220   80.1560  221.4890 C   0  0  0  0  0  0  0  0  0  0  0  0
  141.5860   81.4600  222.1780 C   0  0  0  0  0  0  0  0  0  0  0  0
  141.6870   81.3450  223.6770 C   0  0  0  0  0  0  0  0  0  0  0  0
  142.5420   80.1140  223.9690 C   0  0  0  0  0  0  0  0  0  0  0  0
  141.8700   78.8690  223.4460 C   0  0  0  0  0  0  0  0  0  0  0  0
  139.8040   71.9080  222.7480 C   0  0  0  0  0  0  0  0  0  0  0  0
  139.2520   70.6740  222.5790 C   0  0  0  0  0  0  0  0  0  0  0  0
  139.3000   69.8070  223.6690 C   0  0  0  0  0  0  0  0  0  0  0  0
  139.8780   70.1770  224.8610 C   0  0  0  0  0  0  0  0  0  0  0  0
  139.9090   69.2910  225.9200 C   0  0  0  0  0  0  0  0  0  0  0  0
  140.4900   69.6480  227.1390 C   0  0  0  0  0  0  0  0  0  0  0  0
  140.5370   68.5370  228.4940 Cl  0  0  0  0  0  0  0  0  0  0  0  0
  141.0410   70.9270  227.2560 C   0  0  0  0  0  0  0  0  0  0  0  0
  140.9920   71.7750  226.1870 C   0  0  0  0  0  0  0  0  0  0  0  0
  140.4230   71.4330  224.9890 C   0  0  0  0  0  0  0  0  0  0  0  0
  140.3640   72.2470  223.9240 N   0  0  0  0  0  0  0  0  0  0  0  0
  141.8370   73.4050  221.8820 H   0  0  0  0  0  0  0  0  0  0  0  0
  140.8645   74.0795  219.2815 H   0  0  0  0  0  0  0  0  0  0  0  0
  140.1378   75.2961  220.3943 H   0  0  0  0  0  0  0  0  0  0  0  0
  143.7468   76.9959  218.1370 H   0  0  0  0  0  0  0  0  0  0  0  0
  142.3489   76.0598  217.5577 H   0  0  0  0  0  0  0  0  0  0  0  0
  141.4451   78.1195  216.8496 H   0  0  0  0  0  0  0  0  0  0  0  0
  143.5750   79.0110  216.9740 H   0  0  0  0  0  0  0  0  0  0  0  0
  140.8958   79.5374  219.1066 H   0  0  0  0  0  0  0  0  0  0  0  0
  140.0918   78.0042  218.9400 H   0  0  0  0  0  0  0  0  0  0  0  0
  142.7841   78.5999  220.3795 H   0  0  0  0  0  0  0  0  0  0  0  0
  140.2220   77.5041  221.2733 H   0  0  0  0  0  0  0  0  0  0  0  0
  141.8313   77.1313  222.0567 H   0  0  0  0  0  0  0  0  0  0  0  0
  143.0059   79.9754  221.5397 H   0  0  0  0  0  0  0  0  0  0  0  0
  141.6238   80.1947  220.4309 H   0  0  0  0  0  0  0  0  0  0  0  0
  142.2857   82.2354  221.8327 H   0  0  0  0  0  0  0  0  0  0  0  0
  140.5480   81.7220  221.9251 H   0  0  0  0  0  0  0  0  0  0  0  0
  142.1632   82.2444  224.0945 H   0  0  0  0  0  0  0  0  0  0  0  0
  140.6906   81.2505  224.1334 H   0  0  0  0  0  0  0  0  0  0  0  0
  143.5212   80.2292  223.4812 H   0  0  0  0  0  0  0  0  0  0  0  0
  142.6699   80.0192  225.0574 H   0  0  0  0  0  0  0  0  0  0  0  0
  142.6297   78.0837  223.3189 H   0  0  0  0  0  0  0  0  0  0  0  0
  141.1014   78.5702  224.1740 H   0  0  0  0  0  0  0  0  0  0  0  0
  138.7898   70.3758  221.6264 H   0  0  0  0  0  0  0  0  0  0  0  0
  138.8646   68.8013  223.5737 H   0  0  0  0  0  0  0  0  0  0  0  0
  139.4697   68.2895  225.8017 H   0  0  0  0  0  0  0  0  0  0  0  0
  141.5089   71.2469  228.1987 H   0  0  0  0  0  0  0  0  0  0  0  0
  141.4295   72.7787  226.2927 H   0  0  0  0  0  0  0  0  0  0  0  0
  1  2  2  0
  2  3  1  0
  3  4  1  0
  4  5  1  0
  5  6  2  0
  5  7  1  0
  7  8  1  0
  8  9  1  0
  9 10  1  0
  9 11  1  0
 11 12  1  0
 12 13  1  0
 13 14  1  0
 14 15  1  0
 15 16  1  0
 16 17  1  0
 17 18  1  0
 18 19  1  0
  2 20  1  0
 20 21  2  0
 21 22  1  0
 22 23  2  0
 23 24  1  0
 24 25  2  0
 25 26  1  0
 25 27  1  0
 27 28  2  0
 28 29  1  0
 29 30  2  0
 12  7  1  0
 19 14  1  0
 30 20  1  0
 29 23  1  0
  3 31  1  0
  4 32  1  0
  4 33  1  0
  8 34  1  0
  8 35  1  0
  9 36  1  6
 10 37  1  0
 11 38  1  0
 11 39  1  0
 12 40  1  1
 13 41  1  0
 13 42  1  0
 15 43  1  0
 15 44  1  0
 16 45  1  0
 16 46  1  0
 17 47  1  0
 17 48  1  0
 18 49  1  0
 18 50  1  0
 19 51  1  0
 19 52  1  0
 21 53  1  0
 22 54  1  0
 24 55  1  0
 27 56  1  0
 28 57  1  0
M  END
>  <smiles>  (41) 
O=C(NCC(=O)N1C[C@H](O)C[C@H]1CN1CCCCC1)c1ccc2cc(Cl)ccc2n1

>  <score_type>  (41) 
oracle

>  <origin>  (41) 
autodockgpu

>  <m_score__min__energy>  (41) 
-9.2599999999999998

>  <m_primary>  (41) 
energy

>  <rmsd>  (41) 
2.716877461213051

>  <m_score__min__rmsd>  (41) 
2.716877461213051

>  <meeko>  (41) 
{"free_energy": -8.43, "intermolecular_energy": -10.52, "internal_energy": -1.83, "cluster_size": 30, "cluster_id": 1, "rank_in_cluster": 15}

>  <energy>  (41) 
-7.19

>  <cluster_rmsd>  (41) 
0.96

>  <cluster>  (41) 
5

$$$$

     RDKit          3D

 57 60  0  0  0  0  0  0  0  0999 V2000
  140.7690   72.4430  222.6040 O   0  0  0  0  0  0  0  0  0  0  0  0
  139.9450   72.9720  221.7890 C   0  0  0  0  0  0  0  0  0  0  0  0
  139.5060   72.1650  220.7080 N   0  0  0  0  0  0  0  0  0  0  0  0
  139.9610   70.7980  220.5190 C   0  0  0  0  0  0  0  0  0  0  0  0
  139.2210   69.8820  221.4220 C   0  0  0  0  0  0  0  0  0  0  0  0
  139.3560   68.6460  221.2490 O   0  0  0  0  0  0  0  0  0  0  0  0
  138.3990   70.4560  222.4290 N   0  0  0  0  0  0  0  0  0  0  0  0
  137.1630   71.2050  222.2390 C   0  0  0  0  0  0  0  0  0  0  0  0
  136.3680   71.0790  223.5150 C   0  0  2  0  0  0  0  0  0  0  0  0
  136.4230   72.2990  224.1800 O   0  0  0  0  0  0  0  0  0  0  0  0
  137.1820   70.0820  224.3080 C   0  0  0  0  0  0  0  0  0  0  0  0
  138.5820   70.4400  223.8820 C   0  0  1  0  0  0  0  0  0  0  0  0
  139.6350   69.4790  224.2930 C   0  0  0  0  0  0  0  0  0  0  0  0
  140.2400   69.7900  225.5710 N   0  0  0  0  0  0  0  0  0  0  0  0
  139.3040   69.6580  226.6730 C   0  0  0  0  0  0  0  0  0  0  0  0
  140.0900   69.7280  227.9630 C   0  0  0  0  0  0  0  0  0  0  0  0
  141.0770   70.8680  227.9580 C   0  0  0  0  0  0  0  0  0  0  0  0
  140.6240   71.8390  226.8700 C   0  0  0  0  0  0  0  0  0  0  0  0
  140.6690   71.1730  225.5170 C   0  0  0  0  0  0  0  0  0  0  0  0
  139.4910   74.3360  221.9770 C   0  0  0  0  0  0  0  0  0  0  0  0
  138.1670   74.6550  221.9330 C   0  0  0  0  0  0  0  0  0  0  0  0
  137.8360   75.9950  222.1280 C   0  0  0  0  0  0  0  0  0  0  0  0
  138.7980   76.9520  222.3560 C   0  0  0  0  0  0  0  0  0  0  0  0
  138.4320   78.2700  222.5450 C   0  0  0  0  0  0  0  0  0  0  0  0
  139.3930   79.2560  222.7770 C   0  0  0  0  0  0  0  0  0  0  0  0
  138.9470   80.9340  223.0190 Cl  0  0  0  0  0  0  0  0  0  0  0  0
  140.7360   78.8720  222.8110 C   0  0  0  0  0  0  0  0  0  0  0  0
  141.0590   77.5590  222.6190 C   0  0  0  0  0  0  0  0  0  0  0  0
  140.1220   76.5860  222.3910 C   0  0  0  0  0  0  0  0  0  0  0  0
  140.4140   75.2900  222.2010 N   0  0  0  0  0  0  0  0  0  0  0  0
  138.8250   72.6220  220.0440 H   0  0  0  0  0  0  0  0  0  0  0  0
  139.7869   70.4982  219.4751 H   0  0  0  0  0  0  0  0  0  0  0  0
  141.0346   70.7417  220.7519 H   0  0  0  0  0  0  0  0  0  0  0  0
  137.3896   72.2625  222.0384 H   0  0  0  0  0  0  0  0  0  0  0  0
  136.5947   70.8124  221.3829 H   0  0  0  0  0  0  0  0  0  0  0  0
  135.3166   70.7922  223.3656 H   0  0  0  0  0  0  0  0  0  0  0  0
  137.2030   72.8530  223.8520 H   0  0  0  0  0  0  0  0  0  0  0  0
  137.0430   70.2187  225.3906 H   0  0  0  0  0  0  0  0  0  0  0  0
  136.9101   69.0318  224.1262 H   0  0  0  0  0  0  0  0  0  0  0  0
  138.9483   71.3698  224.3417 H   0  0  0  0  0  0  0  0  0  0  0  0
  139.1853   68.4771  224.3563 H   0  0  0  0  0  0  0  0  0  0  0  0
  140.4329   69.5339  223.5377 H   0  0  0  0  0  0  0  0  0  0  0  0
  138.5689   70.4756  226.6387 H   0  0  0  0  0  0  0  0  0  0  0  0
  138.7650   68.7015  226.6048 H   0  0  0  0  0  0  0  0  0  0  0  0
  139.3893   69.8677  228.7994 H   0  0  0  0  0  0  0  0  0  0  0  0
  140.6533   68.7894  228.0707 H   0  0  0  0  0  0  0  0  0  0  0  0
  141.0802   71.3704  228.9365 H   0  0  0  0  0  0  0  0  0  0  0  0
  142.0974   70.5058  227.7639 H   0  0  0  0  0  0  0  0  0  0  0  0
  139.5941   72.1634  227.0799 H   0  0  0  0  0  0  0  0  0  0  0  0
  141.3002   72.7066  226.8627 H   0  0  0  0  0  0  0  0  0  0  0  0
  140.0080   71.7220  224.8302 H   0  0  0  0  0  0  0  0  0  0  0  0
  141.7122   71.1887  225.1684 H   0  0  0  0  0  0  0  0  0  0  0  0
  137.3961   73.8915  221.7522 H   0  0  0  0  0  0  0  0  0  0  0  0
  136.7781   76.2952  222.0989 H   0  0  0  0  0  0  0  0  0  0  0  0
  137.3680   78.5471  222.5123 H   0  0  0  0  0  0  0  0  0  0  0  0
  141.5238   79.6184  222.9903 H   0  0  0  0  0  0  0  0  0  0  0  0
  142.1198   77.2696  222.6488 H   0  0  0  0  0  0  0  0  0  0  0  0
  1  2  2  0
  2  3  1  0
  3  4  1  0
  4  5  1  0
  5  6  2  0
  5  7  1  0
  7  8  1  0
  8  9  1  0
  9 10  1  0
  9 11  1  0
 11 12  1  0
 12 13  1  0
 13 14  1  0
 14 15  1  0
 15 16  1  0
 16 17  1  0
 17 18  1  0
 18 19  1  0
  2 20  1  0
 20 21  2  0
 21 22  1  0
 22 23  2  0
 23 24  1  0
 24 25  2  0
 25 26  1  0
 25 27  1  0
 27 28  2  0
 28 29  1  0
 29 30  2  0
 12  7  1  0
 19 14  1  0
 30 20  1  0
 29 23  1  0
  3 31  1  0
  4 32  1  0
  4 33  1  0
  8 34  1  0
  8 35  1  0
  9 36  1  6
 10 37  1  0
 11 38  1  0
 11 39  1  0
 12 40  1  1
 13 41  1  0
 13 42  1  0
 15 43  1  0
 15 44  1  0
 16 45  1  0
 16 46  1  0
 17 47  1  0
 17 48  1  0
 18 49  1  0
 18 50  1  0
 19 51  1  0
 19 52  1  0
 21 53  1  0
 22 54  1  0
 24 55  1  0
 27 56  1  0
 28 57  1  0
M  END
>  <smiles>  (42) 
O=C(NCC(=O)N1C[C@H](O)C[C@H]1CN1CCCCC1)c1ccc2cc(Cl)ccc2n1

>  <score_type>  (42) 
oracle

>  <origin>  (42) 
autodockgpu

>  <m_score__min__energy>  (42) 
-9.2599999999999998

>  <m_primary>  (42) 
energy

>  <rmsd>  (42) 
8.539047759709318

>  <m_score__min__rmsd>  (42) 
8.539047759709318

>  <meeko>  (42) 
{"free_energy": -7.28, "intermolecular_energy": -9.37, "internal_energy": -1.99, "cluster_size": 5, "cluster_id": 4, "rank_in_cluster": 5}

>  <energy>  (42) 
-7.67

>  <cluster_rmsd>  (42) 
0.0

>  <cluster>  (42) 
6

$$$$

     RDKit          3D

 57 60  0  0  0  0  0  0  0  0999 V2000
  138.5650   72.5170  220.7280 O   0  0  0  0  0  0  0  0  0  0  0  0
  138.3760   73.3150  221.7040 C   0  0  0  0  0  0  0  0  0  0  0  0
  137.3110   73.0030  222.5880 N   0  0  0  0  0  0  0  0  0  0  0  0
  136.4640   71.8370  222.4090 C   0  0  0  0  0  0  0  0  0  0  0  0
  136.6560   70.8860  223.5320 C   0  0  0  0  0  0  0  0  0  0  0  0
  136.0530   71.1150  224.6090 O   0  0  0  0  0  0  0  0  0  0  0  0
  137.5130   69.7720  223.3240 N   0  0  0  0  0  0  0  0  0  0  0  0
  137.1680   68.4930  222.7170 C   0  0  0  0  0  0  0  0  0  0  0  0
  138.4440   67.9020  222.1710 C   0  0  2  0  0  0  0  0  0  0  0  0
  138.8180   66.8470  222.9970 O   0  0  0  0  0  0  0  0  0  0  0  0
  139.4360   69.0240  222.3760 C   0  0  0  0  0  0  0  0  0  0  0  0
  138.9320   69.6310  223.6600 C   0  0  1  0  0  0  0  0  0  0  0  0
  139.5420   70.9330  224.0280 C   0  0  0  0  0  0  0  0  0  0  0  0
  139.7250   71.1080  225.4540 N   0  0  0  0  0  0  0  0  0  0  0  0
  141.0720   71.5260  225.7920 C   0  0  0  0  0  0  0  0  0  0  0  0
  141.0800   71.9450  227.2460 C   0  0  0  0  0  0  0  0  0  0  0  0
  140.3700   70.9430  228.1210 C   0  0  0  0  0  0  0  0  0  0  0  0
  140.3040   69.6370  227.3330 C   0  0  0  0  0  0  0  0  0  0  0  0
  139.4910   69.8200  226.0760 C   0  0  0  0  0  0  0  0  0  0  0  0
  139.2220   74.4790  221.8830 C   0  0  0  0  0  0  0  0  0  0  0  0
  140.5490   74.4450  221.5760 C   0  0  0  0  0  0  0  0  0  0  0  0
  141.2730   75.6180  221.7830 C   0  0  0  0  0  0  0  0  0  0  0  0
  140.6790   76.7570  222.2740 C   0  0  0  0  0  0  0  0  0  0  0  0
  141.4290   77.9010  222.4650 C   0  0  0  0  0  0  0  0  0  0  0  0
  140.8440   79.0680  222.9630 C   0  0  0  0  0  0  0  0  0  0  0  0
  141.7810   80.5290  223.2130 Cl  0  0  0  0  0  0  0  0  0  0  0  0
  139.4800   79.0450  223.2610 C   0  0  0  0  0  0  0  0  0  0  0  0
  138.7710   77.8950  223.0590 C   0  0  0  0  0  0  0  0  0  0  0  0
  139.3370   76.7460  222.5710 C   0  0  0  0  0  0  0  0  0  0  0  0
  138.6630   75.6060  222.3620 N   0  0  0  0  0  0  0  0  0  0  0  0
  137.1700   73.6760  223.3890 H   0  0  0  0  0  0  0  0  0  0  0  0
  135.4112   72.1542  222.3776 H   0  0  0  0  0  0  0  0  0  0  0  0
  136.7346   71.3384  221.4666 H   0  0  0  0  0  0  0  0  0  0  0  0
  136.7344   67.8215  223.4727 H   0  0  0  0  0  0  0  0  0  0  0  0
  136.4252   68.6273  221.9168 H   0  0  0  0  0  0  0  0  0  0  0  0
  138.3687   67.5448  221.1333 H   0  0  0  0  0  0  0  0  0  0  0  0
  139.8150   66.6840  222.9440 H   0  0  0  0  0  0  0  0  0  0  0  0
  140.4610   68.6404  222.4868 H   0  0  0  0  0  0  0  0  0  0  0  0
  139.4966   69.7316  221.5360 H   0  0  0  0  0  0  0  0  0  0  0  0
  139.1693   69.0241  224.5462 H   0  0  0  0  0  0  0  0  0  0  0  0
  140.5252   71.0061  223.5402 H   0  0  0  0  0  0  0  0  0  0  0  0
  138.8483   71.7187  223.6942 H   0  0  0  0  0  0  0  0  0  0  0  0
  141.7713   70.6906  225.6403 H   0  0  0  0  0  0  0  0  0  0  0  0
  141.3846   72.3635  225.1510 H   0  0  0  0  0  0  0  0  0  0  0  0
  142.1226   72.0375  227.5842 H   0  0  0  0  0  0  0  0  0  0  0  0
  140.5512   72.9061  227.3280 H   0  0  0  0  0  0  0  0  0  0  0  0
  140.9297   70.7931  229.0560 H   0  0  0  0  0  0  0  0  0  0  0  0
  139.3622   71.2951  228.3862 H   0  0  0  0  0  0  0  0  0  0  0  0
  141.3237   69.3253  227.0626 H   0  0  0  0  0  0  0  0  0  0  0  0
  139.8259   68.8680  227.9575 H   0  0  0  0  0  0  0  0  0  0  0  0
  139.7601   69.0278  225.3618 H   0  0  0  0  0  0  0  0  0  0  0  0
  138.4274   69.7669  226.3516 H   0  0  0  0  0  0  0  0  0  0  0  0
  141.0264   73.5351  221.1834 H   0  0  0  0  0  0  0  0  0  0  0  0
  142.3474   75.6330  221.5475 H   0  0  0  0  0  0  0  0  0  0  0  0
  142.5017   77.8932  222.2217 H   0  0  0  0  0  0  0  0  0  0  0  0
  138.9817   79.9434  223.6542 H   0  0  0  0  0  0  0  0  0  0  0  0
  137.6975   77.8909  223.2988 H   0  0  0  0  0  0  0  0  0  0  0  0
  1  2  2  0
  2  3  1  0
  3  4  1  0
  4  5  1  0
  5  6  2  0
  5  7  1  0
  7  8  1  0
  8  9  1  0
  9 10  1  0
  9 11  1  0
 11 12  1  0
 12 13  1  0
 13 14  1  0
 14 15  1  0
 15 16  1  0
 16 17  1  0
 17 18  1  0
 18 19  1  0
  2 20  1  0
 20 21  2  0
 21 22  1  0
 22 23  2  0
 23 24  1  0
 24 25  2  0
 25 26  1  0
 25 27  1  0
 27 28  2  0
 28 29  1  0
 29 30  2  0
 12  7  1  0
 19 14  1  0
 30 20  1  0
 29 23  1  0
  3 31  1  0
  4 32  1  0
  4 33  1  0
  8 34  1  0
  8 35  1  0
  9 36  1  6
 10 37  1  0
 11 38  1  0
 11 39  1  0
 12 40  1  1
 13 41  1  0
 13 42  1  0
 15 43  1  0
 15 44  1  0
 16 45  1  0
 16 46  1  0
 17 47  1  0
 17 48  1  0
 18 49  1  0
 18 50  1  0
 19 51  1  0
 19 52  1  0
 21 53  1  0
 22 54  1  0
 24 55  1  0
 27 56  1  0
 28 57  1  0
M  END
>  <smiles>  (43) 
O=C(NCC(=O)N1C[C@H](O)C[C@H]1CN1CCCCC1)c1ccc2cc(Cl)ccc2n1

>  <score_type>  (43) 
oracle

>  <origin>  (43) 
autodockgpu

>  <m_score__min__energy>  (43) 
-9.2599999999999998

>  <m_primary>  (43) 
energy

>  <rmsd>  (43) 
8.671492404474675

>  <m_score__min__rmsd>  (43) 
8.671492404474675

>  <meeko>  (43) 
{"free_energy": -7.4, "intermolecular_energy": -9.48, "internal_energy": -2.04, "cluster_size": 5, "cluster_id": 4, "rank_in_cluster": 4}

>  <energy>  (43) 
-7.42

>  <cluster_rmsd>  (43) 
0.0

>  <cluster>  (43) 
7

$$$$

     RDKit          3D

 57 60  0  0  0  0  0  0  0  0999 V2000
  133.4210   70.0080  226.5530 O   0  0  0  0  0  0  0  0  0  0  0  0
  133.8130   71.1670  226.1970 C   0  0  0  0  0  0  0  0  0  0  0  0
  134.9260   71.2230  225.3180 N   0  0  0  0  0  0  0  0  0  0  0  0
  135.6010   70.0300  224.8360 C   0  0  0  0  0  0  0  0  0  0  0  0
  136.6660   70.3990  223.8700 C   0  0  0  0  0  0  0  0  0  0  0  0
  136.7420   71.5980  223.5050 O   0  0  0  0  0  0  0  0  0  0  0  0
  137.5360   69.3740  223.4130 N   0  0  0  0  0  0  0  0  0  0  0  0
  137.1670   68.1430  222.7240 C   0  0  0  0  0  0  0  0  0  0  0  0
  138.3710   67.7010  221.9300 C   0  0  2  0  0  0  0  0  0  0  0  0
  138.9230   66.5940  222.5660 O   0  0  0  0  0  0  0  0  0  0  0  0
  139.3230   68.8610  222.1090 C   0  0  0  0  0  0  0  0  0  0  0  0
  138.9950   69.2960  223.5150 C   0  0  1  0  0  0  0  0  0  0  0  0
  139.5870   70.5920  223.9310 C   0  0  0  0  0  0  0  0  0  0  0  0
  139.7280   70.7320  225.3660 N   0  0  0  0  0  0  0  0  0  0  0  0
  140.9950   71.3310  225.7410 C   0  0  0  0  0  0  0  0  0  0  0  0
  140.9260   71.6850  227.2110 C   0  0  0  0  0  0  0  0  0  0  0  0
  140.3650   70.5540  228.0350 C   0  0  0  0  0  0  0  0  0  0  0  0
  140.5010   69.2860  227.1950 C   0  0  0  0  0  0  0  0  0  0  0  0
  139.6820   69.3990  225.9330 C   0  0  0  0  0  0  0  0  0  0  0  0
  133.1400   72.3560  226.6790 C   0  0  0  0  0  0  0  0  0  0  0  0
  131.9390   72.2820  227.3170 C   0  0  0  0  0  0  0  0  0  0  0  0
  131.3760   73.4850  227.7420 C   0  0  0  0  0  0  0  0  0  0  0  0
  132.0030   74.6910  227.5300 C   0  0  0  0  0  0  0  0  0  0  0  0
  131.4150   75.8610  227.9660 C   0  0  0  0  0  0  0  0  0  0  0  0
  132.0340   77.0960  227.7600 C   0  0  0  0  0  0  0  0  0  0  0  0
  131.3030   78.5930  228.3060 Cl  0  0  0  0  0  0  0  0  0  0  0  0
  133.2650   77.1130  227.0990 C   0  0  0  0  0  0  0  0  0  0  0  0
  133.8150   75.9350  226.6820 C   0  0  0  0  0  0  0  0  0  0  0  0
  133.2140   74.7190  226.8810 C   0  0  0  0  0  0  0  0  0  0  0  0
  133.7340   73.5490  226.4820 N   0  0  0  0  0  0  0  0  0  0  0  0
  135.2370   72.1910  225.0360 H   0  0  0  0  0  0  0  0  0  0  0  0
  136.0509   69.4980  225.6872 H   0  0  0  0  0  0  0  0  0  0  0  0
  134.8687   69.3816  224.3328 H   0  0  0  0  0  0  0  0  0  0  0  0
  136.8926   67.3688  223.4557 H   0  0  0  0  0  0  0  0  0  0  0  0
  136.3021   68.3076  222.0646 H   0  0  0  0  0  0  0  0  0  0  0  0
  138.1535   67.4492  220.8815 H   0  0  0  0  0  0  0  0  0  0  0  0
  139.9090   66.7360  222.7440 H   0  0  0  0  0  0  0  0  0  0  0  0
  140.3712   68.5393  222.0209 H   0  0  0  0  0  0  0  0  0  0  0  0
  139.2146   69.6541  221.3545 H   0  0  0  0  0  0  0  0  0  0  0  0
  139.3984   68.6183  224.2818 H   0  0  0  0  0  0  0  0  0  0  0  0
  140.5833   70.6819  223.4734 H   0  0  0  0  0  0  0  0  0  0  0  0
  138.8995   71.3826  223.5961 H   0  0  0  0  0  0  0  0  0  0  0  0
  141.8125   70.6158  225.5669 H   0  0  0  0  0  0  0  0  0  0  0  0
  141.1859   72.2315  225.1388 H   0  0  0  0  0  0  0  0  0  0  0  0
  141.9399   71.9172  227.5690 H   0  0  0  0  0  0  0  0  0  0  0  0
  140.2584   72.5521  227.3222 H   0  0  0  0  0  0  0  0  0  0  0  0
  140.9323   70.4503  228.9717 H   0  0  0  0  0  0  0  0  0  0  0  0
  139.3137   70.7417  228.2988 H   0  0  0  0  0  0  0  0  0  0  0  0
  141.5582   69.1396  226.9288 H   0  0  0  0  0  0  0  0  0  0  0  0
  140.1359   68.4297  227.7810 H   0  0  0  0  0  0  0  0  0  0  0  0
  140.0728   68.6857  225.1924 H   0  0  0  0  0  0  0  0  0  0  0  0
  138.6354   69.1780  226.1896 H   0  0  0  0  0  0  0  0  0  0  0  0
  131.4367   71.3186  227.4890 H   0  0  0  0  0  0  0  0  0  0  0  0
  130.4057   73.4692  228.2600 H   0  0  0  0  0  0  0  0  0  0  0  0
  130.4450   75.8203  228.4831 H   0  0  0  0  0  0  0  0  0  0  0  0
  133.7852   78.0649  226.9166 H   0  0  0  0  0  0  0  0  0  0  0  0
  134.7844   75.9629  226.1628 H   0  0  0  0  0  0  0  0  0  0  0  0
  1  2  2  0
  2  3  1  0
  3  4  1  0
  4  5  1  0
  5  6  2  0
  5  7  1  0
  7  8  1  0
  8  9  1  0
  9 10  1  0
  9 11  1  0
 11 12  1  0
 12 13  1  0
 13 14  1  0
 14 15  1  0
 15 16  1  0
 16 17  1  0
 17 18  1  0
 18 19  1  0
  2 20  1  0
 20 21  2  0
 21 22  1  0
 22 23  2  0
 23 24  1  0
 24 25  2  0
 25 26  1  0
 25 27  1  0
 27 28  2  0
 28 29  1  0
 29 30  2  0
 12  7  1  0
 19 14  1  0
 30 20  1  0
 29 23  1  0
  3 31  1  0
  4 32  1  0
  4 33  1  0
  8 34  1  0
  8 35  1  0
  9 36  1  6
 10 37  1  0
 11 38  1  0
 11 39  1  0
 12 40  1  1
 13 41  1  0
 13 42  1  0
 15 43  1  0
 15 44  1  0
 16 45  1  0
 16 46  1  0
 17 47  1  0
 17 48  1  0
 18 49  1  0
 18 50  1  0
 19 51  1  0
 19 52  1  0
 21 53  1  0
 22 54  1  0
 24 55  1  0
 27 56  1  0
 28 57  1  0
M  END
>  <smiles>  (44) 
O=C(NCC(=O)N1C[C@H](O)C[C@H]1CN1CCCCC1)c1ccc2cc(Cl)ccc2n1

>  <score_type>  (44) 
oracle

>  <origin>  (44) 
autodockgpu

>  <m_score__min__energy>  (44) 
-9.2599999999999998

>  <m_primary>  (44) 
energy

>  <rmsd>  (44) 
9.457386394894863

>  <m_score__min__rmsd>  (44) 
9.457386394894863

>  <meeko>  (44) 
{"free_energy": -7.85, "intermolecular_energy": -9.94, "internal_energy": -2.22, "cluster_size": 2, "cluster_id": 3, "rank_in_cluster": 1}

>  <energy>  (44) 
-7.41

>  <cluster_rmsd>  (44) 
0.0

>  <cluster>  (44) 
8

$$$$

     RDKit          3D

 57 60  0  0  0  0  0  0  0  0999 V2000
  139.0810   72.2250  220.6780 O   0  0  0  0  0  0  0  0  0  0  0  0
  139.7880   72.4550  221.7140 C   0  0  0  0  0  0  0  0  0  0  0  0
  140.5310   73.6630  221.7240 N   0  0  0  0  0  0  0  0  0  0  0  0
  140.5040   74.6060  220.6200 C   0  0  0  0  0  0  0  0  0  0  0  0
  141.2280   75.8490  220.9890 C   0  0  0  0  0  0  0  0  0  0  0  0
  141.4050   76.0880  222.2090 O   0  0  0  0  0  0  0  0  0  0  0  0
  141.6760   76.6970  219.9410 N   0  0  0  0  0  0  0  0  0  0  0  0
  142.5340   76.3370  218.8190 C   0  0  0  0  0  0  0  0  0  0  0  0
  142.2460   77.3150  217.7090 C   0  0  2  0  0  0  0  0  0  0  0  0
  143.3240   78.1880  217.6120 O   0  0  0  0  0  0  0  0  0  0  0  0
  141.0700   78.0910  218.2550 C   0  0  0  0  0  0  0  0  0  0  0  0
  141.3930   78.1180  219.7270 C   0  0  1  0  0  0  0  0  0  0  0  0
  140.3000   78.6000  220.6070 C   0  0  0  0  0  0  0  0  0  0  0  0
  140.7530   79.4730  221.6700 N   0  0  0  0  0  0  0  0  0  0  0  0
  142.1670   79.7800  221.5700 C   0  0  0  0  0  0  0  0  0  0  0  0
  142.4710   80.9000  222.5410 C   0  0  0  0  0  0  0  0  0  0  0  0
  141.8590   80.6490  223.8960 C   0  0  0  0  0  0  0  0  0  0  0  0
  141.5500   79.1560  223.9720 C   0  0  0  0  0  0  0  0  0  0  0  0
  140.5390   78.7720  222.9210 C   0  0  0  0  0  0  0  0  0  0  0  0
  139.8150   71.5130  222.8150 C   0  0  0  0  0  0  0  0  0  0  0  0
  139.3070   70.2560  222.6860 C   0  0  0  0  0  0  0  0  0  0  0  0
  139.3830   69.4280  223.8050 C   0  0  0  0  0  0  0  0  0  0  0  0
  139.9450   69.8570  224.9850 C   0  0  0  0  0  0  0  0  0  0  0  0
  140.0040   69.0080  226.0720 C   0  0  0  0  0  0  0  0  0  0  0  0
  140.5700   69.4250  227.2790 C   0  0  0  0  0  0  0  0  0  0  0  0
  140.6530   68.3610  228.6700 Cl  0  0  0  0  0  0  0  0  0  0  0  0
  141.0750   70.7250  227.3550 C   0  0  0  0  0  0  0  0  0  0  0  0
  140.9990   71.5350  226.2590 C   0  0  0  0  0  0  0  0  0  0  0  0
  140.4450   71.1340  225.0710 C   0  0  0  0  0  0  0  0  0  0  0  0
  140.3600   71.9110  223.9810 N   0  0  0  0  0  0  0  0  0  0  0  0
  141.1110   73.8350  222.5900 H   0  0  0  0  0  0  0  0  0  0  0  0
  140.9865   74.1515  219.7421 H   0  0  0  0  0  0  0  0  0  0  0  0
  139.4584   74.8556  220.3868 H   0  0  0  0  0  0  0  0  0  0  0  0
  143.5911   76.4037  219.1158 H   0  0  0  0  0  0  0  0  0  0  0  0
  142.3384   75.3051  218.4920 H   0  0  0  0  0  0  0  0  0  0  0  0
  142.0670   76.8461  216.7302 H   0  0  0  0  0  0  0  0  0  0  0  0
  143.3340   78.6510  216.7130 H   0  0  0  0  0  0  0  0  0  0  0  0
  141.0265   79.1061  217.8334 H   0  0  0  0  0  0  0  0  0  0  0  0
  140.0901   77.6518  218.0164 H   0  0  0  0  0  0  0  0  0  0  0  0
  142.1986   78.8232  219.9794 H   0  0  0  0  0  0  0  0  0  0  0  0
  139.5745   79.1507  219.9903 H   0  0  0  0  0  0  0  0  0  0  0  0
  139.8563   77.7140  221.0846 H   0  0  0  0  0  0  0  0  0  0  0  0
  142.7614   78.8909  221.8274 H   0  0  0  0  0  0  0  0  0  0  0  0
  142.4209   80.0839  220.5438 H   0  0  0  0  0  0  0  0  0  0  0  0
  143.5617   80.9871  222.6537 H   0  0  0  0  0  0  0  0  0  0  0  0
  142.0394   81.8280  222.1379 H   0  0  0  0  0  0  0  0  0  0  0  0
  142.5675   80.9297  224.6892 H   0  0  0  0  0  0  0  0  0  0  0  0
  140.9466   81.2479  224.0335 H   0  0  0  0  0  0  0  0  0  0  0  0
  142.4764   78.5858  223.8087 H   0  0  0  0  0  0  0  0  0  0  0  0
  141.1350   78.9286  224.9650 H   0  0  0  0  0  0  0  0  0  0  0  0
  140.6131   77.6900  222.7374 H   0  0  0  0  0  0  0  0  0  0  0  0
  139.5424   79.0484  223.2956 H   0  0  0  0  0  0  0  0  0  0  0  0
  138.8579   69.9103  221.7433 H   0  0  0  0  0  0  0  0  0  0  0  0
  138.9832   68.4051  223.7427 H   0  0  0  0  0  0  0  0  0  0  0  0
  139.5995   67.9887  225.9864 H   0  0  0  0  0  0  0  0  0  0  0  0
  141.5288   71.0919  228.2875 H   0  0  0  0  0  0  0  0  0  0  0  0
  141.4007   72.5564  226.3324 H   0  0  0  0  0  0  0  0  0  0  0  0
  1  2  2  0
  2  3  1  0
  3  4  1  0
  4  5  1  0
  5  6  2  0
  5  7  1  0
  7  8  1  0
  8  9  1  0
  9 10  1  0
  9 11  1  0
 11 12  1  0
 12 13  1  0
 13 14  1  0
 14 15  1  0
 15 16  1  0
 16 17  1  0
 17 18  1  0
 18 19  1  0
  2 20  1  0
 20 21  2  0
 21 22  1  0
 22 23  2  0
 23 24  1  0
 24 25  2  0
 25 26  1  0
 25 27  1  0
 27 28  2  0
 28 29  1  0
 29 30  2  0
 12  7  1  0
 19 14  1  0
 30 20  1  0
 29 23  1  0
  3 31  1  0
  4 32  1  0
  4 33  1  0
  8 34  1  0
  8 35  1  0
  9 36  1  6
 10 37  1  0
 11 38  1  0
 11 39  1  0
 12 40  1  6
 13 41  1  0
 13 42  1  0
 15 43  1  0
 15 44  1  0
 16 45  1  0
 16 46  1  0
 17 47  1  0
 17 48  1  0
 18 49  1  0
 18 50  1  0
 19 51  1  0
 19 52  1  0
 21 53  1  0
 22 54  1  0
 24 55  1  0
 27 56  1  0
 28 57  1  0
M  END
>  <smiles>  (45) 
O=C(NCC(=O)N1C[C@H](O)C[C@H]1CN1CCCCC1)c1ccc2cc(Cl)ccc2n1

>  <score_type>  (45) 
oracle

>  <origin>  (45) 
autodockgpu

>  <m_score__min__energy>  (45) 
-9.2599999999999998

>  <m_primary>  (45) 
energy

>  <rmsd>  (45) 
2.510286342902032

>  <m_score__min__rmsd>  (45) 
2.510286342902032

>  <meeko>  (45) 
{"free_energy": -7.88, "intermolecular_energy": -9.97, "internal_energy": -2.17, "cluster_size": 30, "cluster_id": 1, "rank_in_cluster": 29}

>  <energy>  (45) 
-7.23

>  <cluster_rmsd>  (45) 
0.26

>  <cluster>  (45) 
8

$$$$

     RDKit          3D

 57 60  0  0  0  0  0  0  0  0999 V2000
  141.2940   72.8190  221.1290 O   0  0  0  0  0  0  0  0  0  0  0  0
  140.5610   73.7320  221.6320 C   0  0  0  0  0  0  0  0  0  0  0  0
  139.4130   73.3070  222.3500 N   0  0  0  0  0  0  0  0  0  0  0  0
  139.0710   71.9050  222.5170 C   0  0  0  0  0  0  0  0  0  0  0  0
  137.6360   71.7660  222.8680 C   0  0  0  0  0  0  0  0  0  0  0  0
  136.9550   72.8130  222.9970 O   0  0  0  0  0  0  0  0  0  0  0  0
  137.1150   70.4560  223.0410 N   0  0  0  0  0  0  0  0  0  0  0  0
  135.8420   69.9400  222.5540 C   0  0  0  0  0  0  0  0  0  0  0  0
  135.9860   68.4440  222.4330 C   0  0  2  0  0  0  0  0  0  0  0  0
  135.2640   67.8560  223.4660 O   0  0  0  0  0  0  0  0  0  0  0  0
  137.4550   68.2340  222.7190 C   0  0  0  0  0  0  0  0  0  0  0  0
  137.7140   69.3140  223.7370 C   0  0  1  0  0  0  0  0  0  0  0  0
  139.1430   69.5540  224.0580 C   0  0  0  0  0  0  0  0  0  0  0  0
  139.3620   70.0540  225.3990 N   0  0  0  0  0  0  0  0  0  0  0  0
  140.6130   70.7770  225.5230 C   0  0  0  0  0  0  0  0  0  0  0  0
  140.6130   71.4850  226.8610 C   0  0  0  0  0  0  0  0  0  0  0  0
  140.1660   70.5740  227.9770 C   0  0  0  0  0  0  0  0  0  0  0  0
  140.3220   69.1430  227.4680 C   0  0  0  0  0  0  0  0  0  0  0  0
  139.4240   68.9050  226.2800 C   0  0  0  0  0  0  0  0  0  0  0  0
  140.9020   75.1300  221.4640 C   0  0  0  0  0  0  0  0  0  0  0  0
  141.7700   75.5380  220.4960 C   0  0  0  0  0  0  0  0  0  0  0  0
  142.0290   76.9050  220.4190 C   0  0  0  0  0  0  0  0  0  0  0  0
  141.4380   77.8030  221.2770 C   0  0  0  0  0  0  0  0  0  0  0  0
  141.7200   79.1510  221.1690 C   0  0  0  0  0  0  0  0  0  0  0  0
  141.1310   80.0790  222.0310 C   0  0  0  0  0  0  0  0  0  0  0  0
  141.4760   81.7930  221.9090 Cl  0  0  0  0  0  0  0  0  0  0  0  0
  140.2480   79.6040  223.0050 C   0  0  0  0  0  0  0  0  0  0  0  0
  139.9950   78.2650  223.0810 C   0  0  0  0  0  0  0  0  0  0  0  0
  140.5690   77.3480  222.2390 C   0  0  0  0  0  0  0  0  0  0  0  0
  140.3360   76.0290  222.2930 N   0  0  0  0  0  0  0  0  0  0  0  0
  138.8170   74.0780  222.7570 H   0  0  0  0  0  0  0  0  0  0  0  0
  139.2689   71.3683  221.5774 H   0  0  0  0  0  0  0  0  0  0  0  0
  139.6816   71.4806  223.3276 H   0  0  0  0  0  0  0  0  0  0  0  0
  135.0389   70.1853  223.2646 H   0  0  0  0  0  0  0  0  0  0  0  0
  135.5842   70.3879  221.5830 H   0  0  0  0  0  0  0  0  0  0  0  0
  135.6461   68.0346  221.4703 H   0  0  0  0  0  0  0  0  0  0  0  0
  134.6830   67.1050  223.1180 H   0  0  0  0  0  0  0  0  0  0  0  0
  137.6454   67.2338  223.1355 H   0  0  0  0  0  0  0  0  0  0  0  0
  138.0998   68.2889  221.8295 H   0  0  0  0  0  0  0  0  0  0  0  0
  137.3075   69.0755  224.7309 H   0  0  0  0  0  0  0  0  0  0  0  0
  139.6879   68.6048  223.9479 H   0  0  0  0  0  0  0  0  0  0  0  0
  139.5031   70.3274  223.3636 H   0  0  0  0  0  0  0  0  0  0  0  0
  141.4573   70.0737  225.4727 H   0  0  0  0  0  0  0  0  0  0  0  0
  140.7164   71.5053  224.7051 H   0  0  0  0  0  0  0  0  0  0  0  0
  141.6320   71.8387  227.0766 H   0  0  0  0  0  0  0  0  0  0  0  0
  139.9066   72.3261  226.8026 H   0  0  0  0  0  0  0  0  0  0  0  0
  140.7932   70.7297  228.8671 H   0  0  0  0  0  0  0  0  0  0  0  0
  139.1235   70.7803  228.2611 H   0  0  0  0  0  0  0  0  0  0  0  0
  141.3678   68.9764  227.1706 H   0  0  0  0  0  0  0  0  0  0  0  0
  140.0413   68.4465  228.2718 H   0  0  0  0  0  0  0  0  0  0  0  0
  139.8083   68.0445  225.7127 H   0  0  0  0  0  0  0  0  0  0  0  0
  138.4086   68.7155  226.6581 H   0  0  0  0  0  0  0  0  0  0  0  0
  142.2437   74.8222  219.8081 H   0  0  0  0  0  0  0  0  0  0  0  0
  142.7246   77.2758  219.6517 H   0  0  0  0  0  0  0  0  0  0  0  0
  142.4182   79.4985  220.3933 H   0  0  0  0  0  0  0  0  0  0  0  0
  139.7622   80.3020  223.7028 H   0  0  0  0  0  0  0  0  0  0  0  0
  139.2988   77.9052  223.8530 H   0  0  0  0  0  0  0  0  0  0  0  0
  1  2  2  0
  2  3  1  0
  3  4  1  0
  4  5  1  0
  5  6  2  0
  5  7  1  0
  7  8  1  0
  8  9  1  0
  9 10  1  0
  9 11  1  0
 11 12  1  0
 12 13  1  0
 13 14  1  0
 14 15  1  0
 15 16  1  0
 16 17  1  0
 17 18  1  0
 18 19  1  0
  2 20  1  0
 20 21  2  0
 21 22  1  0
 22 23  2  0
 23 24  1  0
 24 25  2  0
 25 26  1  0
 25 27  1  0
 27 28  2  0
 28 29  1  0
 29 30  2  0
 12  7  1  0
 19 14  1  0
 30 20  1  0
 29 23  1  0
  3 31  1  0
  4 32  1  0
  4 33  1  0
  8 34  1  0
  8 35  1  0
  9 36  1  6
 10 37  1  0
 11 38  1  0
 11 39  1  0
 12 40  1  1
 13 41  1  0
 13 42  1  0
 15 43  1  0
 15 44  1  0
 16 45  1  0
 16 46  1  0
 17 47  1  0
 17 48  1  0
 18 49  1  0
 18 50  1  0
 19 51  1  0
 19 52  1  0
 21 53  1  0
 22 54  1  0
 24 55  1  0
 27 56  1  0
 28 57  1  0
M  END
>  <smiles>  (46) 
O=C(NCC(=O)N1C[C@H](O)C[C@H]1CN1CCCCC1)c1ccc2cc(Cl)ccc2n1

>  <score_type>  (46) 
oracle

>  <origin>  (46) 
autodockgpu

>  <m_score__min__energy>  (46) 
-9.2599999999999998

>  <m_primary>  (46) 
energy

>  <rmsd>  (46) 
9.278760894369487

>  <m_score__min__rmsd>  (46) 
9.278760894369487

>  <meeko>  (46) 
{"free_energy": -7.67, "intermolecular_energy": -9.76, "internal_energy": -1.79, "cluster_size": 5, "cluster_id": 4, "rank_in_cluster": 2}

>  <energy>  (46) 
-6.63

>  <cluster_rmsd>  (46) 
0.0

>  <cluster>  (46) 
9

$$$$

     RDKit          3D

 57 60  0  0  0  0  0  0  0  0999 V2000
  140.3850   72.5700  220.7300 O   0  0  0  0  0  0  0  0  0  0  0  0
  140.0590   72.8930  221.9190 C   0  0  0  0  0  0  0  0  0  0  0  0
  139.7210   74.2520  222.1430 N   0  0  0  0  0  0  0  0  0  0  0  0
  139.7390   75.2460  221.0830 C   0  0  0  0  0  0  0  0  0  0  0  0
  139.1130   76.5070  221.5520 C   0  0  0  0  0  0  0  0  0  0  0  0
  138.7930   76.5920  222.7640 O   0  0  0  0  0  0  0  0  0  0  0  0
  138.9090   77.5440  220.6040 N   0  0  0  0  0  0  0  0  0  0  0  0
  137.6660   77.8890  219.9250 C   0  0  0  0  0  0  0  0  0  0  0  0
  137.7670   79.3400  219.5240 C   0  0  2  0  0  0  0  0  0  0  0  0
  137.9560   79.3940  218.1470 O   0  0  0  0  0  0  0  0  0  0  0  0
  139.0560   79.7710  220.1840 C   0  0  0  0  0  0  0  0  0  0  0  0
  139.8770   78.5110  220.0790 C   0  0  1  0  0  0  0  0  0  0  0  0
  141.1370   78.5080  220.8630 C   0  0  0  0  0  0  0  0  0  0  0  0
  141.1920   79.5370  221.8800 N   0  0  0  0  0  0  0  0  0  0  0  0
  141.8110   80.7580  221.4000 C   0  0  0  0  0  0  0  0  0  0  0  0
  141.5690   81.8400  222.4290 C   0  0  0  0  0  0  0  0  0  0  0  0
  141.8600   81.3590  223.8280 C   0  0  0  0  0  0  0  0  0  0  0  0
  142.7420   80.1190  223.6940 C   0  0  0  0  0  0  0  0  0  0  0  0
  142.0050   79.0240  222.9650 C   0  0  0  0  0  0  0  0  0  0  0  0
  140.0410   71.9010  222.9760 C   0  0  0  0  0  0  0  0  0  0  0  0
  139.5620   70.6440  222.7610 C   0  0  0  0  0  0  0  0  0  0  0  0
  139.5910   69.7660  223.8440 C   0  0  0  0  0  0  0  0  0  0  0  0
  140.0800   70.1470  225.0710 C   0  0  0  0  0  0  0  0  0  0  0  0
  140.0930   69.2490  226.1200 C   0  0  0  0  0  0  0  0  0  0  0  0
  140.5850   69.6170  227.3750 C   0  0  0  0  0  0  0  0  0  0  0  0
  140.6090   68.4900  228.7180 Cl  0  0  0  0  0  0  0  0  0  0  0  0
  141.0630   70.9190  227.5380 C   0  0  0  0  0  0  0  0  0  0  0  0
  141.0340   71.7790  226.4780 C   0  0  0  0  0  0  0  0  0  0  0  0
  140.5530   71.4260  225.2440 C   0  0  0  0  0  0  0  0  0  0  0  0
  140.5150   72.2510  224.1870 N   0  0  0  0  0  0  0  0  0  0  0  0
  139.4550   74.5000  223.1340 H   0  0  0  0  0  0  0  0  0  0  0  0
  140.7802   75.4447  220.7889 H   0  0  0  0  0  0  0  0  0  0  0  0
  139.1721   74.8626  220.2218 H   0  0  0  0  0  0  0  0  0  0  0  0
  137.5362   77.2591  219.0326 H   0  0  0  0  0  0  0  0  0  0  0  0
  136.8011   77.7245  220.5845 H   0  0  0  0  0  0  0  0  0  0  0  0
  136.8906   79.9461  219.7971 H   0  0  0  0  0  0  0  0  0  0  0  0
  137.8910   78.4720  217.7370 H   0  0  0  0  0  0  0  0  0  0  0  0
  139.5267   80.6047  219.6423 H   0  0  0  0  0  0  0  0  0  0  0  0
  138.9332   80.1445  221.2113 H   0  0  0  0  0  0  0  0  0  0  0  0
  140.2554   78.3261  219.0628 H   0  0  0  0  0  0  0  0  0  0  0  0
  141.2383   77.5288  221.3539 H   0  0  0  0  0  0  0  0  0  0  0  0
  141.9557   78.7100  220.1566 H   0  0  0  0  0  0  0  0  0  0  0  0
  142.8920   80.6022  221.2692 H   0  0  0  0  0  0  0  0  0  0  0  0
  141.3807   81.0493  220.4305 H   0  0  0  0  0  0  0  0  0  0  0  0
  142.2212   82.6969  222.2045 H   0  0  0  0  0  0  0  0  0  0  0  0
  140.5081   82.1264  222.3802 H   0  0  0  0  0  0  0  0  0  0  0  0
  142.3882   82.1399  224.3947 H   0  0  0  0  0  0  0  0  0  0  0  0
  140.9297   81.1253  224.3665 H   0  0  0  0  0  0  0  0  0  0  0  0
  143.6509   80.3801  223.1321 H   0  0  0  0  0  0  0  0  0  0  0  0
  143.0081   79.7609  224.6995 H   0  0  0  0  0  0  0  0  0  0  0  0
  142.7397   78.3166  222.5528 H   0  0  0  0  0  0  0  0  0  0  0  0
  141.3344   78.5321  223.6850 H   0  0  0  0  0  0  0  0  0  0  0  0
  139.1710   70.3363  221.7800 H   0  0  0  0  0  0  0  0  0  0  0  0
  139.2126   68.7415  223.7130 H   0  0  0  0  0  0  0  0  0  0  0  0
  139.7105   68.2293  225.9654 H   0  0  0  0  0  0  0  0  0  0  0  0
  141.4587   71.2482  228.5101 H   0  0  0  0  0  0  0  0  0  0  0  0
  141.4138   72.8014  226.6207 H   0  0  0  0  0  0  0  0  0  0  0  0
  1  2  2  0
  2  3  1  0
  3  4  1  0
  4  5  1  0
  5  6  2  0
  5  7  1  0
  7  8  1  0
  8  9  1  0
  9 10  1  0
  9 11  1  0
 11 12  1  0
 12 13  1  0
 13 14  1  0
 14 15  1  0
 15 16  1  0
 16 17  1  0
 17 18  1  0
 18 19  1  0
  2 20  1  0
 20 21  2  0
 21 22  1  0
 22 23  2  0
 23 24  1  0
 24 25  2  0
 25 26  1  0
 25 27  1  0
 27 28  2  0
 28 29  1  0
 29 30  2  0
 12  7  1  0
 19 14  1  0
 30 20  1  0
 29 23  1  0
  3 31  1  0
  4 32  1  0
  4 33  1  0
  8 34  1  0
  8 35  1  0
  9 36  1  6
 10 37  1  0
 11 38  1  0
 11 39  1  0
 12 40  1  6
 13 41  1  0
 13 42  1  0
 15 43  1  0
 15 44  1  0
 16 45  1  0
 16 46  1  0
 17 47  1  0
 17 48  1  0
 18 49  1  0
 18 50  1  0
 19 51  1  0
 19 52  1  0
 21 53  1  0
 22 54  1  0
 24 55  1  0
 27 56  1  0
 28 57  1  0
M  END
>  <smiles>  (47) 
O=C(NCC(=O)N1C[C@H](O)C[C@H]1CN1CCCCC1)c1ccc2cc(Cl)ccc2n1

>  <score_type>  (47) 
oracle

>  <origin>  (47) 
autodockgpu

>  <m_score__min__energy>  (47) 
-9.2599999999999998

>  <m_primary>  (47) 
energy

>  <rmsd>  (47) 
2.8577933259806167

>  <m_score__min__rmsd>  (47) 
2.8577933259806167

>  <meeko>  (47) 
{"free_energy": -7.52, "intermolecular_energy": -9.6, "internal_energy": -1.99, "cluster_size": 30, "cluster_id": 1, "rank_in_cluster": 30}

>  <energy>  (47) 
-6.06

>  <cluster_rmsd>  (47) 
0.0

>  <cluster>  (47) 
10

$$$$

     RDKit          3D

 57 60  0  0  0  0  0  0  0  0999 V2000
  139.7070   72.1510  220.8190 O   0  0  0  0  0  0  0  0  0  0  0  0
  139.6880   72.5040  222.0430 C   0  0  0  0  0  0  0  0  0  0  0  0
  139.5610   73.8920  222.3060 N   0  0  0  0  0  0  0  0  0  0  0  0
  139.4580   74.8810  221.2470 C   0  0  0  0  0  0  0  0  0  0  0  0
  140.2510   76.0870  221.5930 C   0  0  0  0  0  0  0  0  0  0  0  0
  140.0610   76.6170  222.7160 O   0  0  0  0  0  0  0  0  0  0  0  0
  141.1770   76.5750  220.6330 N   0  0  0  0  0  0  0  0  0  0  0  0
  142.0120   75.7890  219.7320 C   0  0  0  0  0  0  0  0  0  0  0  0
  142.3370   76.6660  218.5500 C   0  0  2  0  0  0  0  0  0  0  0  0
  143.6700   77.0510  218.6510 O   0  0  0  0  0  0  0  0  0  0  0  0
  141.4830   77.8870  218.8050 C   0  0  0  0  0  0  0  0  0  0  0  0
  141.5190   77.9620  220.3100 C   0  0  1  0  0  0  0  0  0  0  0  0
  140.5650   78.9200  220.9200 C   0  0  0  0  0  0  0  0  0  0  0  0
  141.0800   79.5820  222.1000 N   0  0  0  0  0  0  0  0  0  0  0  0
  141.1950   81.0180  221.9240 C   0  0  0  0  0  0  0  0  0  0  0  0
  141.4680   81.6330  223.2790 C   0  0  0  0  0  0  0  0  0  0  0  0
  142.5430   80.8880  224.0280 C   0  0  0  0  0  0  0  0  0  0  0  0
  143.3150   80.0710  222.9940 C   0  0  0  0  0  0  0  0  0  0  0  0
  142.4090   79.0570  222.3400 C   0  0  0  0  0  0  0  0  0  0  0  0
  139.7910   71.5170  223.1000 C   0  0  0  0  0  0  0  0  0  0  0  0
  139.4010   70.2260  222.9050 C   0  0  0  0  0  0  0  0  0  0  0  0
  139.5440   69.3560  223.9840 C   0  0  0  0  0  0  0  0  0  0  0  0
  140.0540   69.7770  225.1900 C   0  0  0  0  0  0  0  0  0  0  0  0
  140.1800   68.8850  226.2370 C   0  0  0  0  0  0  0  0  0  0  0  0
  140.6950   69.2930  227.4700 C   0  0  0  0  0  0  0  0  0  0  0  0
  140.8630   68.1760  228.8100 Cl  0  0  0  0  0  0  0  0  0  0  0  0
  141.0790   70.6290  227.6130 C   0  0  0  0  0  0  0  0  0  0  0  0
  140.9390   71.4810  226.5550 C   0  0  0  0  0  0  0  0  0  0  0  0
  140.4340   71.0890  225.3430 C   0  0  0  0  0  0  0  0  0  0  0  0
  140.2880   71.9060  224.2890 N   0  0  0  0  0  0  0  0  0  0  0  0
  139.5480   74.1650  223.3260 H   0  0  0  0  0  0  0  0  0  0  0  0
  139.8409   74.4510  220.3097 H   0  0  0  0  0  0  0  0  0  0  0  0
  138.4031   75.1679  221.1252 H   0  0  0  0  0  0  0  0  0  0  0  0
  142.9378   75.4866  220.2432 H   0  0  0  0  0  0  0  0  0  0  0  0
  141.4890   74.8764  219.4101 H   0  0  0  0  0  0  0  0  0  0  0  0
  142.1679   76.1876  217.5740 H   0  0  0  0  0  0  0  0  0  0  0  0
  143.8510   77.4910  219.5440 H   0  0  0  0  0  0  0  0  0  0  0  0
  141.9191   78.7866  218.3462 H   0  0  0  0  0  0  0  0  0  0  0  0
  140.4700   77.8254  218.3806 H   0  0  0  0  0  0  0  0  0  0  0  0
  142.4773   78.3354  220.7002 H   0  0  0  0  0  0  0  0  0  0  0  0
  140.3169   79.6872  220.1717 H   0  0  0  0  0  0  0  0  0  0  0  0
  139.6845   78.3407  221.2347 H   0  0  0  0  0  0  0  0  0  0  0  0
  142.0235   81.2450  221.2369 H   0  0  0  0  0  0  0  0  0  0  0  0
  140.2670   81.4270  221.4979 H   0  0  0  0  0  0  0  0  0  0  0  0
  141.7899   82.6754  223.1381 H   0  0  0  0  0  0  0  0  0  0  0  0
  140.5418   81.5805  223.8701 H   0  0  0  0  0  0  0  0  0  0  0  0
  143.2169   81.5982  224.5295 H   0  0  0  0  0  0  0  0  0  0  0  0
  142.1075   80.2372  224.8005 H   0  0  0  0  0  0  0  0  0  0  0  0
  143.7169   80.7470  222.2249 H   0  0  0  0  0  0  0  0  0  0  0  0
  144.1362   79.5415  223.4992 H   0  0  0  0  0  0  0  0  0  0  0  0
  142.8500   78.7569  221.3780 H   0  0  0  0  0  0  0  0  0  0  0  0
  142.3143   78.1999  223.0229 H   0  0  0  0  0  0  0  0  0  0  0  0
  138.9927   69.8868  221.9416 H   0  0  0  0  0  0  0  0  0  0  0  0
  139.2411   68.3049  223.8682 H   0  0  0  0  0  0  0  0  0  0  0  0
  139.8705   67.8386  226.0981 H   0  0  0  0  0  0  0  0  0  0  0  0
  141.4895   70.9904  228.5674 H   0  0  0  0  0  0  0  0  0  0  0  0
  141.2456   72.5298  226.6815 H   0  0  0  0  0  0  0  0  0  0  0  0
  1  2  2  0
  2  3  1  0
  3  4  1  0
  4  5  1  0
  5  6  2  0
  5  7  1  0
  7  8  1  0
  8  9  1  0
  9 10  1  0
  9 11  1  0
 11 12  1  0
 12 13  1  0
 13 14  1  0
 14 15  1  0
 15 16  1  0
 16 17  1  0
 17 18  1  0
 18 19  1  0
  2 20  1  0
 20 21  2  0
 21 22  1  0
 22 23  2  0
 23 24  1  0
 24 25  2  0
 25 26  1  0
 25 27  1  0
 27 28  2  0
 28 29  1  0
 29 30  2  0
 12  7  1  0
 19 14  1  0
 30 20  1  0
 29 23  1  0
  3 31  1  0
  4 32  1  0
  4 33  1  0
  8 34  1  0
  8 35  1  0
  9 36  1  6
 10 37  1  0
 11 38  1  0
 11 39  1  0
 12 40  1  6
 13 41  1  0
 13 42  1  0
 15 43  1  0
 15 44  1  0
 16 45  1  0
 16 46  1  0
 17 47  1  0
 17 48  1  0
 18 49  1  0
 18 50  1  0
 19 51  1  0
 19 52  1  0
 21 53  1  0
 22 54  1  0
 24 55  1  0
 27 56  1  0
 28 57  1  0
M  END
>  <smiles>  (48) 
O=C(NCC(=O)N1C[C@H](O)C[C@H]1CN1CCCCC1)c1ccc2cc(Cl)ccc2n1

>  <score_type>  (48) 
oracle

>  <origin>  (48) 
autodockgpu

>  <m_score__min__energy>  (48) 
-9.2599999999999998

>  <m_primary>  (48) 
energy

>  <rmsd>  (48) 
2.2941863926919455

>  <m_score__min__rmsd>  (48) 
2.2941863926919455

>  <meeko>  (48) 
{"free_energy": -8.76, "intermolecular_energy": -10.84, "internal_energy": -1.77, "cluster_size": 30, "cluster_id": 1, "rank_in_cluster": 7}

>  <energy>  (48) 
-5.79

>  <cluster_rmsd>  (48) 
0.0

>  <cluster>  (48) 
11

$$$$

     RDKit          3D

 57 60  0  0  0  0  0  0  0  0999 V2000
  140.3140   72.4910  220.6580 O   0  0  0  0  0  0  0  0  0  0  0  0
  140.0530   72.8420  221.8550 C   0  0  0  0  0  0  0  0  0  0  0  0
  139.7930   74.2190  222.0760 N   0  0  0  0  0  0  0  0  0  0  0  0
  139.8170   75.1990  221.0030 C   0  0  0  0  0  0  0  0  0  0  0  0
  140.3730   76.4840  221.4960 C   0  0  0  0  0  0  0  0  0  0  0  0
  140.1410   76.8100  222.6860 O   0  0  0  0  0  0  0  0  0  0  0  0
  141.1350   77.2720  220.5920 N   0  0  0  0  0  0  0  0  0  0  0  0
  141.3500   77.0260  219.1710 C   0  0  0  0  0  0  0  0  0  0  0  0
  141.6660   78.3560  218.5340 C   0  0  2  0  0  0  0  0  0  0  0  0
  143.0230   78.3770  218.2300 O   0  0  0  0  0  0  0  0  0  0  0  0
  141.4320   79.3250  219.6710 C   0  0  0  0  0  0  0  0  0  0  0  0
  141.8800   78.5050  220.8530 C   0  0  1  0  0  0  0  0  0  0  0  0
  141.5500   79.0760  222.1820 C   0  0  0  0  0  0  0  0  0  0  0  0
  140.3760   79.9240  222.1750 N   0  0  0  0  0  0  0  0  0  0  0  0
  140.7110   81.3340  222.2330 C   0  0  0  0  0  0  0  0  0  0  0  0
  139.4540   82.1250  221.9410 C   0  0  0  0  0  0  0  0  0  0  0  0
  138.2730   81.6090  222.7230 C   0  0  0  0  0  0  0  0  0  0  0  0
  138.8350   80.7880  223.8820 C   0  0  0  0  0  0  0  0  0  0  0  0
  139.6080   79.6020  223.3620 C   0  0  0  0  0  0  0  0  0  0  0  0
  140.0290   71.8640  222.9250 C   0  0  0  0  0  0  0  0  0  0  0  0
  139.5410   70.6070  222.7260 C   0  0  0  0  0  0  0  0  0  0  0  0
  139.5640   69.7420  223.8190 C   0  0  0  0  0  0  0  0  0  0  0  0
  140.0570   70.1360  225.0420 C   0  0  0  0  0  0  0  0  0  0  0  0
  140.0650   69.2510  226.1010 C   0  0  0  0  0  0  0  0  0  0  0  0
  140.5600   69.6310  227.3510 C   0  0  0  0  0  0  0  0  0  0  0  0
  140.5770   68.5210  228.7080 Cl  0  0  0  0  0  0  0  0  0  0  0  0
  141.0480   70.9320  227.4970 C   0  0  0  0  0  0  0  0  0  0  0  0
  141.0240   71.7780  226.4270 C   0  0  0  0  0  0  0  0  0  0  0  0
  140.5390   71.4130  225.1980 C   0  0  0  0  0  0  0  0  0  0  0  0
  140.5060   72.2250  224.1310 N   0  0  0  0  0  0  0  0  0  0  0  0
  139.5800   74.4900  223.0730 H   0  0  0  0  0  0  0  0  0  0  0  0
  140.4441   74.8230  220.1812 H   0  0  0  0  0  0  0  0  0  0  0  0
  138.7902   75.3654  220.6453 H   0  0  0  0  0  0  0  0  0  0  0  0
  142.1913   76.3313  219.0313 H   0  0  0  0  0  0  0  0  0  0  0  0
  140.4581   76.5741  218.7124 H   0  0  0  0  0  0  0  0  0  0  0  0
  141.0846   78.5709  217.6252 H   0  0  0  0  0  0  0  0  0  0  0  0
  143.2120   79.0170  217.4710 H   0  0  0  0  0  0  0  0  0  0  0  0
  142.0408   80.2341  219.5574 H   0  0  0  0  0  0  0  0  0  0  0  0
  140.3982   79.6937  219.7438 H   0  0  0  0  0  0  0  0  0  0  0  0
  142.9738   78.4126  220.9242 H   0  0  0  0  0  0  0  0  0  0  0  0
  141.3752   78.2464  222.8829 H   0  0  0  0  0  0  0  0  0  0  0  0
  142.4004   79.7060  222.4818 H   0  0  0  0  0  0  0  0  0  0  0  0
  141.0874   81.5875  223.2350 H   0  0  0  0  0  0  0  0  0  0  0  0
  141.4924   81.5720  221.4963 H   0  0  0  0  0  0  0  0  0  0  0  0
  139.6257   83.1780  222.2089 H   0  0  0  0  0  0  0  0  0  0  0  0
  139.2262   82.0214  220.8698 H   0  0  0  0  0  0  0  0  0  0  0  0
  137.6776   82.4498  223.1084 H   0  0  0  0  0  0  0  0  0  0  0  0
  137.6164   80.9965  222.0876 H   0  0  0  0  0  0  0  0  0  0  0  0
  139.5042   81.4210  224.4832 H   0  0  0  0  0  0  0  0  0  0  0  0
  138.0000   80.4258  224.4997 H   0  0  0  0  0  0  0  0  0  0  0  0
  140.2974   79.2572  224.1468 H   0  0  0  0  0  0  0  0  0  0  0  0
  138.8833   78.8196  223.0923 H   0  0  0  0  0  0  0  0  0  0  0  0
  139.1475   70.2900  221.7489 H   0  0  0  0  0  0  0  0  0  0  0  0
  139.1783   68.7186  223.7009 H   0  0  0  0  0  0  0  0  0  0  0  0
  139.6761   68.2319  225.9588 H   0  0  0  0  0  0  0  0  0  0  0  0
  141.4473   71.2706  228.4644 H   0  0  0  0  0  0  0  0  0  0  0  0
  141.4114   72.7994  226.5564 H   0  0  0  0  0  0  0  0  0  0  0  0
  1  2  2  0
  2  3  1  0
  3  4  1  0
  4  5  1  0
  5  6  2  0
  5  7  1  0
  7  8  1  0
  8  9  1  0
  9 10  1  0
  9 11  1  0
 11 12  1  0
 12 13  1  0
 13 14  1  0
 14 15  1  0
 15 16  1  0
 16 17  1  0
 17 18  1  0
 18 19  1  0
  2 20  1  0
 20 21  2  0
 21 22  1  0
 22 23  2  0
 23 24  1  0
 24 25  2  0
 25 26  1  0
 25 27  1  0
 27 28  2  0
 28 29  1  0
 29 30  2  0
 12  7  1  0
 19 14  1  0
 30 20  1  0
 29 23  1  0
  3 31  1  0
  4 32  1  0
  4 33  1  0
  8 34  1  0
  8 35  1  0
  9 36  1  6
 10 37  1  0
 11 38  1  0
 11 39  1  0
 12 40  1  1
 13 41  1  0
 13 42  1  0
 15 43  1  0
 15 44  1  0
 16 45  1  0
 16 46  1  0
 17 47  1  0
 17 48  1  0
 18 49  1  0
 18 50  1  0
 19 51  1  0
 19 52  1  0
 21 53  1  0
 22 54  1  0
 24 55  1  0
 27 56  1  0
 28 57  1  0
M  END
>  <smiles>  (49) 
O=C(NCC(=O)N1C[C@H](O)C[C@H]1CN1CCCCC1)c1ccc2cc(Cl)ccc2n1

>  <score_type>  (49) 
oracle

>  <origin>  (49) 
autodockgpu

>  <m_score__min__energy>  (49) 
-9.2599999999999998

>  <m_primary>  (49) 
energy

>  <rmsd>  (49) 
2.5062977722773594

>  <m_score__min__rmsd>  (49) 
2.5062977722773594

>  <meeko>  (49) 
{"free_energy": -7.97, "intermolecular_energy": -10.06, "internal_energy": -1.69, "cluster_size": 30, "cluster_id": 1, "rank_in_cluster": 26}

>  <energy>  (49) 
-5.72

>  <cluster_rmsd>  (49) 
0.18

>  <cluster>  (49) 
11

$$$$

     RDKit          3D

 57 60  0  0  0  0  0  0  0  0999 V2000
  134.9610   68.5230  224.9450 O   0  0  0  0  0  0  0  0  0  0  0  0
  135.3230   69.7090  224.6480 C   0  0  0  0  0  0  0  0  0  0  0  0
  136.3700   69.8390  223.7000 N   0  0  0  0  0  0  0  0  0  0  0  0
  137.0140   68.6910  223.0850 C   0  0  0  0  0  0  0  0  0  0  0  0
  138.4640   68.6870  223.4010 C   0  0  0  0  0  0  0  0  0  0  0  0
  138.9070   67.7650  224.1300 O   0  0  0  0  0  0  0  0  0  0  0  0
  139.2680   69.7270  222.8630 N   0  0  0  0  0  0  0  0  0  0  0  0
  139.6760   69.9000  221.4740 C   0  0  0  0  0  0  0  0  0  0  0  0
  139.9640   71.3670  221.2760 C   0  0  2  0  0  0  0  0  0  0  0  0
  141.3430   71.5270  221.1820 O   0  0  0  0  0  0  0  0  0  0  0  0
  139.5160   71.9670  222.5880 C   0  0  0  0  0  0  0  0  0  0  0  0
  139.8770   70.8670  223.5530 C   0  0  1  0  0  0  0  0  0  0  0  0
  139.3410   71.0280  224.9270 C   0  0  0  0  0  0  0  0  0  0  0  0
  140.0400   70.2400  225.9210 N   0  0  0  0  0  0  0  0  0  0  0  0
  139.1510   69.3610  226.6570 C   0  0  0  0  0  0  0  0  0  0  0  0
  140.0030   68.3990  227.4560 C   0  0  0  0  0  0  0  0  0  0  0  0
  141.1180   69.1070  228.1830 C   0  0  0  0  0  0  0  0  0  0  0  0
  140.7320   70.5830  228.2520 C   0  0  0  0  0  0  0  0  0  0  0  0
  140.6300   71.1670  226.8650 C   0  0  0  0  0  0  0  0  0  0  0  0
  134.6800   70.8540  225.2610 C   0  0  0  0  0  0  0  0  0  0  0  0
  133.6830   70.7010  226.1780 C   0  0  0  0  0  0  0  0  0  0  0  0
  133.1320   71.8660  226.7090 C   0  0  0  0  0  0  0  0  0  0  0  0
  133.5720   73.1130  226.3280 C   0  0  0  0  0  0  0  0  0  0  0  0
  133.0020   74.2440  226.8770 C   0  0  0  0  0  0  0  0  0  0  0  0
  133.4330   75.5190  226.5020 C   0  0  0  0  0  0  0  0  0  0  0  0
  132.7220   76.9670  227.1880 Cl  0  0  0  0  0  0  0  0  0  0  0  0
  134.4580   75.6160  225.5570 C   0  0  0  0  0  0  0  0  0  0  0  0
  134.9970   74.4740  225.0370 C   0  0  0  0  0  0  0  0  0  0  0  0
  134.5790   73.2200  225.3990 C   0  0  0  0  0  0  0  0  0  0  0  0
  135.0920   72.0850  224.9040 N   0  0  0  0  0  0  0  0  0  0  0  0
  136.6560   70.8290  223.4680 H   0  0  0  0  0  0  0  0  0  0  0  0
  136.5557   67.7679  223.4696 H   0  0  0  0  0  0  0  0  0  0  0  0
  136.8844   68.7482  221.9942 H   0  0  0  0  0  0  0  0  0  0  0  0
  140.5797   69.3071  221.2695 H   0  0  0  0  0  0  0  0  0  0  0  0
  138.8857   69.5601  220.7885 H   0  0  0  0  0  0  0  0  0  0  0  0
  139.4846   71.8055  220.3884 H   0  0  0  0  0  0  0  0  0  0  0  0
  141.5870   72.0760  220.3690 H   0  0  0  0  0  0  0  0  0  0  0  0
  140.0610   72.8955  222.8133 H   0  0  0  0  0  0  0  0  0  0  0  0
  138.4554   72.2579  222.6120 H   0  0  0  0  0  0  0  0  0  0  0  0
  140.9574   70.8029  223.7497 H   0  0  0  0  0  0  0  0  0  0  0  0
  139.4182   72.0888  225.2077 H   0  0  0  0  0  0  0  0  0  0  0  0
  138.3000   70.6730  224.9095 H   0  0  0  0  0  0  0  0  0  0  0  0
  138.5187   69.9522  227.3357 H   0  0  0  0  0  0  0  0  0  0  0  0
  138.4982   68.8096  225.9643 H   0  0  0  0  0  0  0  0  0  0  0  0
  139.3663   67.8875  228.1929 H   0  0  0  0  0  0  0  0  0  0  0  0
  140.4544   67.6806  226.7559 H   0  0  0  0  0  0  0  0  0  0  0  0
  141.2291   68.6968  229.1976 H   0  0  0  0  0  0  0  0  0  0  0  0
  142.0770   68.9737  227.6609 H   0  0  0  0  0  0  0  0  0  0  0  0
  139.7601   70.6799  228.7581 H   0  0  0  0  0  0  0  0  0  0  0  0
  141.5065   71.1278  228.8117 H   0  0  0  0  0  0  0  0  0  0  0  0
  140.0076   72.0730  226.9074 H   0  0  0  0  0  0  0  0  0  0  0  0
  141.6491   71.3960  226.5201 H   0  0  0  0  0  0  0  0  0  0  0  0
  133.3300   69.7052  226.4844 H   0  0  0  0  0  0  0  0  0  0  0  0
  132.3246   71.7866  227.4518 H   0  0  0  0  0  0  0  0  0  0  0  0
  132.1974   74.1400  227.6199 H   0  0  0  0  0  0  0  0  0  0  0  0
  134.8266   76.6013  225.2356 H   0  0  0  0  0  0  0  0  0  0  0  0
  135.8031   74.5648  224.2940 H   0  0  0  0  0  0  0  0  0  0  0  0
  1  2  2  0
  2  3  1  0
  3  4  1  0
  4  5  1  0
  5  6  2  0
  5  7  1  0
  7  8  1  0
  8  9  1  0
  9 10  1  0
  9 11  1  0
 11 12  1  0
 12 13  1  0
 13 14  1  0
 14 15  1  0
 15 16  1  0
 16 17  1  0
 17 18  1  0
 18 19  1  0
  2 20  1  0
 20 21  2  0
 21 22  1  0
 22 23  2  0
 23 24  1  0
 24 25  2  0
 25 26  1  0
 25 27  1  0
 27 28  2  0
 28 29  1  0
 29 30  2  0
 12  7  1  0
 19 14  1  0
 30 20  1  0
 29 23  1  0
  3 31  1  0
  4 32  1  0
  4 33  1  0
  8 34  1  0
  8 35  1  0
  9 36  1  6
 10 37  1  0
 11 38  1  0
 11 39  1  0
 12 40  1  1
 13 41  1  0
 13 42  1  0
 15 43  1  0
 15 44  1  0
 16 45  1  0
 16 46  1  0
 17 47  1  0
 17 48  1  0
 18 49  1  0
 18 50  1  0
 19 51  1  0
 19 52  1  0
 21 53  1  0
 22 54  1  0
 24 55  1  0
 27 56  1  0
 28 57  1  0
M  END
>  <smiles>  (50) 
O=C(NCC(=O)N1C[C@H](O)C[C@H]1CN1CCCCC1)c1ccc2cc(Cl)ccc2n1

>  <score_type>  (50) 
oracle

>  <origin>  (50) 
autodockgpu

>  <m_score__min__energy>  (50) 
-9.2599999999999998

>  <m_primary>  (50) 
energy

>  <rmsd>  (50) 
8.457108654797016

>  <m_score__min__rmsd>  (50) 
8.457108654797016

>  <meeko>  (50) 
{"free_energy": -7.23, "intermolecular_energy": -9.32, "internal_energy": -2.11, "cluster_size": 2, "cluster_id": 8, "rank_in_cluster": 2}

>  <energy>  (50) 
-5.63

>  <cluster_rmsd>  (50) 
0.0

>  <cluster>  (50) 
12

$$$$
