
     RDKit          3D

 50 54  0  0  0  0  0  0  0  0999 V2000
  143.0390   74.3450  220.3730 O   0  0  0  0  0  0  0  0  0  0  0  0
  141.9690   74.0240  220.9550 C   0  0  0  0  0  0  0  0  0  0  0  0
  141.6460   72.6060  221.2440 C   0  0  0  0  0  0  0  0  0  0  0  0
  140.3420   72.4920  221.9330 C   0  0  0  0  0  0  0  0  0  0  0  0
  139.8740   71.1520  222.3360 C   0  0  0  0  0  0  0  0  0  0  0  0
  139.4850   70.2390  221.3780 C   0  0  0  0  0  0  0  0  0  0  0  0
  139.0790   68.9730  221.7630 C   0  0  0  0  0  0  0  0  0  0  0  0
  139.0710   68.6470  223.1000 C   0  0  0  0  0  0  0  0  0  0  0  0
  139.4500   69.5230  224.0990 C   0  0  0  0  0  0  0  0  0  0  0  0
  139.4640   69.2340  225.5000 C   0  0  0  0  0  0  0  0  0  0  0  0
  139.0010   68.1000  225.8790 O   0  0  0  0  0  0  0  0  0  0  0  0
  139.9430   70.0750  226.5360 N   0  0  0  0  0  0  0  0  0  0  0  0
  140.5470   71.3860  226.7140 C   0  0  0  0  0  0  0  0  0  0  0  0
  141.0710   70.9500  228.0870 C   0  0  0  0  0  0  0  0  0  0  0  0
  139.9640   69.9610  227.9970 C   0  0  0  0  0  0  0  0  0  0  0  0
  139.8490   70.7820  223.6690 C   0  0  0  0  0  0  0  0  0  0  0  0
  139.5830   73.4760  222.2410 N   0  0  0  0  0  0  0  0  0  0  0  0
  139.9080   74.8210  221.9530 C   0  0  0  0  0  0  0  0  0  0  0  0
  139.0090   75.7910  222.3360 C   0  0  0  0  0  0  0  0  0  0  0  0
  139.3540   77.0980  222.0490 C   0  0  0  0  0  0  0  0  0  0  0  0
  140.5070   77.4580  221.4220 C   0  0  0  0  0  0  0  0  0  0  0  0
  140.7410   78.7980  221.1890 O   0  0  0  0  0  0  0  0  0  0  0  0
  141.4100   79.5310  222.1490 C   0  0  0  0  0  0  0  0  0  0  0  0
  142.7480   79.4100  222.4410 C   0  0  0  0  0  0  0  0  0  0  0  0
  143.3140   80.2020  223.4240 C   0  0  0  0  0  0  0  0  0  0  0  0
  142.5210   81.1170  224.1100 C   0  0  0  0  0  0  0  0  0  0  0  0
  141.1740   81.2610  223.8390 C   0  0  0  0  0  0  0  0  0  0  0  0
  140.6520   80.4550  222.8550 C   0  0  0  0  0  0  0  0  0  0  0  0
  141.3880   76.4540  221.0490 C   0  0  0  0  0  0  0  0  0  0  0  0
  141.0860   75.1410  221.3160 C   0  0  0  0  0  0  0  0  0  0  0  0
  141.6038   72.0461  220.2981 H   0  0  0  0  0  0  0  0  0  0  0  0
  142.4273   72.1939  221.8995 H   0  0  0  0  0  0  0  0  0  0  0  0
  139.4974   70.5156  220.3134 H   0  0  0  0  0  0  0  0  0  0  0  0
  138.7663   68.2358  221.0088 H   0  0  0  0  0  0  0  0  0  0  0  0
  138.7460   67.6364  223.3883 H   0  0  0  0  0  0  0  0  0  0  0  0
  141.3363   71.6207  225.9847 H   0  0  0  0  0  0  0  0  0  0  0  0
  139.9423   72.2990  226.6104 H   0  0  0  0  0  0  0  0  0  0  0  0
  142.0864   70.5271  228.0957 H   0  0  0  0  0  0  0  0  0  0  0  0
  141.2169   71.6346  228.9356 H   0  0  0  0  0  0  0  0  0  0  0  0
  140.2327   68.9584  228.3610 H   0  0  0  0  0  0  0  0  0  0  0  0
  139.0396   70.1210  228.5714 H   0  0  0  0  0  0  0  0  0  0  0  0
  140.1597   71.5195  224.4236 H   0  0  0  0  0  0  0  0  0  0  0  0
  138.0662   75.5389  222.8435 H   0  0  0  0  0  0  0  0  0  0  0  0
  138.6554   77.8945  222.3448 H   0  0  0  0  0  0  0  0  0  0  0  0
  143.3677   78.6844  221.8937 H   0  0  0  0  0  0  0  0  0  0  0  0
  144.3840   80.1091  223.6618 H   0  0  0  0  0  0  0  0  0  0  0  0
  142.9795   81.7430  224.8897 H   0  0  0  0  0  0  0  0  0  0  0  0
  140.5499   81.9848  224.3836 H   0  0  0  0  0  0  0  0  0  0  0  0
  139.5823   80.5468  222.6157 H   0  0  0  0  0  0  0  0  0  0  0  0
  142.3288   76.7092  220.5393 H   0  0  0  0  0  0  0  0  0  0  0  0
  1  2  2  0
  2  3  1  0
  3  4  1  0
  4  5  1  0
  5  6  2  0
  6  7  1  0
  7  8  2  0
  8  9  1  0
  9 10  1  0
 10 11  2  0
 10 12  1  0
 12 13  1  0
 13 14  1  0
 14 15  1  0
  9 16  2  0
  4 17  2  0
 17 18  1  0
 18 19  2  0
 19 20  1  0
 20 21  2  0
 21 22  1  0
 22 23  1  0
 23 24  2  0
 24 25  1  0
 25 26  2  0
 26 27  1  0
 27 28  2  0
 21 29  1  0
 29 30  2  0
 30  2  1  0
 16  5  1  0
 30 18  1  0
 15 12  1  0
 28 23  1  0
  3 31  1  0
  3 32  1  0
  6 33  1  0
  7 34  1  0
  8 35  1  0
 13 36  1  0
 13 37  1  0
 14 38  1  0
 14 39  1  0
 15 40  1  0
 15 41  1  0
 16 42  1  0
 19 43  1  0
 20 44  1  0
 24 45  1  0
 25 46  1  0
 26 47  1  0
 27 48  1  0
 28 49  1  0
 29 50  1  0
M  END
>  <smiles>  (1) 
O=C1CC(c2cccc(C(=O)N3CCC3)c2)=Nc2ccc(Oc3ccccc3)cc21

>  <score_type>  (1) 
oracle

>  <origin>  (1) 
autodockgpu

>  <m_score__min__energy>  (1) 
-9.2799999999999994

>  <m_primary>  (1) 
energy

>  <rmsd>  (1) 
6.308295858285094

>  <m_score__min__rmsd>  (1) 
6.308295858285094

>  <meeko>  (1) 
{"free_energy": -9.06, "intermolecular_energy": -10.26, "internal_energy": -1.03, "cluster_size": 48, "cluster_id": 1, "rank_in_cluster": 40}

>  <energy>  (1) 
-9.28

>  <cluster_rmsd>  (1) 
0.0

>  <cluster>  (1) 
1

$$$$

     RDKit          3D

 50 54  0  0  0  0  0  0  0  0999 V2000
  143.0680   73.9690  219.9490 O   0  0  0  0  0  0  0  0  0  0  0  0
  142.0650   73.8190  220.6960 C   0  0  0  0  0  0  0  0  0  0  0  0
  141.6090   72.4700  221.1100 C   0  0  0  0  0  0  0  0  0  0  0  0
  140.4200   72.5610  221.9850 C   0  0  0  0  0  0  0  0  0  0  0  0
  139.8490   71.3130  222.5270 C   0  0  0  0  0  0  0  0  0  0  0  0
  139.1870   70.4360  221.6920 C   0  0  0  0  0  0  0  0  0  0  0  0
  138.6840   69.2530  222.2030 C   0  0  0  0  0  0  0  0  0  0  0  0
  138.8530   68.9700  223.5390 C   0  0  0  0  0  0  0  0  0  0  0  0
  139.5040   69.8140  224.4190 C   0  0  0  0  0  0  0  0  0  0  0  0
  139.7100   69.5680  225.8120 C   0  0  0  0  0  0  0  0  0  0  0  0
  139.4230   68.4020  226.2600 O   0  0  0  0  0  0  0  0  0  0  0  0
  140.2070   70.4860  226.7730 N   0  0  0  0  0  0  0  0  0  0  0  0
  140.6760   71.8590  226.8590 C   0  0  0  0  0  0  0  0  0  0  0  0
  141.3980   71.5230  228.1680 C   0  0  0  0  0  0  0  0  0  0  0  0
  140.4060   70.4160  228.2230 C   0  0  0  0  0  0  0  0  0  0  0  0
  139.9940   70.9910  223.8640 C   0  0  0  0  0  0  0  0  0  0  0  0
  139.8490   73.6500  222.3420 N   0  0  0  0  0  0  0  0  0  0  0  0
  140.2980   74.9260  221.9330 C   0  0  0  0  0  0  0  0  0  0  0  0
  139.6000   76.0230  222.3860 C   0  0  0  0  0  0  0  0  0  0  0  0
  140.0640   77.2600  221.9770 C   0  0  0  0  0  0  0  0  0  0  0  0
  141.1460   77.4360  221.1720 C   0  0  0  0  0  0  0  0  0  0  0  0
  141.5140   78.7210  220.8310 O   0  0  0  0  0  0  0  0  0  0  0  0
  141.7900   79.6220  221.8410 C   0  0  0  0  0  0  0  0  0  0  0  0
  142.8520   79.5300  222.7100 C   0  0  0  0  0  0  0  0  0  0  0  0
  143.0310   80.4950  223.6830 C   0  0  0  0  0  0  0  0  0  0  0  0
  142.1340   81.5540  223.7750 C   0  0  0  0  0  0  0  0  0  0  0  0
  141.0580   81.6740  222.9160 C   0  0  0  0  0  0  0  0  0  0  0  0
  140.9170   80.6930  221.9630 C   0  0  0  0  0  0  0  0  0  0  0  0
  141.8240   76.3070  220.7340 C   0  0  0  0  0  0  0  0  0  0  0  0
  141.3980   75.0590  221.1160 C   0  0  0  0  0  0  0  0  0  0  0  0
  141.3530   71.8855  220.2140 H   0  0  0  0  0  0  0  0  0  0  0  0
  142.4203   71.9806  221.6688 H   0  0  0  0  0  0  0  0  0  0  0  0
  139.0600   70.6763  220.6261 H   0  0  0  0  0  0  0  0  0  0  0  0
  138.1543   68.5457  221.5480 H   0  0  0  0  0  0  0  0  0  0  0  0
  138.4491   68.0231  223.9267 H   0  0  0  0  0  0  0  0  0  0  0  0
  141.3459   72.1580  226.0394 H   0  0  0  0  0  0  0  0  0  0  0  0
  139.9646   72.6967  226.8120 H   0  0  0  0  0  0  0  0  0  0  0  0
  142.4489   71.2146  228.0654 H   0  0  0  0  0  0  0  0  0  0  0  0
  141.5615   72.2436  228.9829 H   0  0  0  0  0  0  0  0  0  0  0  0
  140.8253   69.4597  228.5689 H   0  0  0  0  0  0  0  0  0  0  0  0
  139.5409   70.4894  228.8984 H   0  0  0  0  0  0  0  0  0  0  0  0
  140.5219   71.6994  224.5194 H   0  0  0  0  0  0  0  0  0  0  0  0
  138.7203   75.9210  223.0384 H   0  0  0  0  0  0  0  0  0  0  0  0
  139.5259   78.1547  222.3234 H   0  0  0  0  0  0  0  0  0  0  0  0
  143.5576   78.6899  222.6308 H   0  0  0  0  0  0  0  0  0  0  0  0
  143.8784   80.4259  224.3810 H   0  0  0  0  0  0  0  0  0  0  0  0
  142.2852   82.3170  224.5528 H   0  0  0  0  0  0  0  0  0  0  0  0
  140.3498   82.5124  222.9910 H   0  0  0  0  0  0  0  0  0  0  0  0
  140.0709   80.7608  221.2634 H   0  0  0  0  0  0  0  0  0  0  0  0
  142.7028   76.4121  220.0807 H   0  0  0  0  0  0  0  0  0  0  0  0
  1  2  2  0
  2  3  1  0
  3  4  1  0
  4  5  1  0
  5  6  2  0
  6  7  1  0
  7  8  2  0
  8  9  1  0
  9 10  1  0
 10 11  2  0
 10 12  1  0
 12 13  1  0
 13 14  1  0
 14 15  1  0
  9 16  2  0
  4 17  2  0
 17 18  1  0
 18 19  2  0
 19 20  1  0
 20 21  2  0
 21 22  1  0
 22 23  1  0
 23 24  2  0
 24 25  1  0
 25 26  2  0
 26 27  1  0
 27 28  2  0
 21 29  1  0
 29 30  2  0
 30  2  1  0
 16  5  1  0
 30 18  1  0
 15 12  1  0
 28 23  1  0
  3 31  1  0
  3 32  1  0
  6 33  1  0
  7 34  1  0
  8 35  1  0
 13 36  1  0
 13 37  1  0
 14 38  1  0
 14 39  1  0
 15 40  1  0
 15 41  1  0
 16 42  1  0
 19 43  1  0
 20 44  1  0
 24 45  1  0
 25 46  1  0
 26 47  1  0
 27 48  1  0
 28 49  1  0
 29 50  1  0
M  END
>  <smiles>  (2) 
O=C1CC(c2cccc(C(=O)N3CCC3)c2)=Nc2ccc(Oc3ccccc3)cc21

>  <score_type>  (2) 
oracle

>  <origin>  (2) 
autodockgpu

>  <m_score__min__energy>  (2) 
-9.2799999999999994

>  <m_primary>  (2) 
energy

>  <rmsd>  (2) 
6.395035195801558

>  <m_score__min__rmsd>  (2) 
6.395035195801558

>  <meeko>  (2) 
{"free_energy": -9.2, "intermolecular_energy": -10.39, "internal_energy": -1.03, "cluster_size": 48, "cluster_id": 1, "rank_in_cluster": 19}

>  <energy>  (2) 
-9.27

>  <cluster_rmsd>  (2) 
0.1

>  <cluster>  (2) 
1

$$$$

     RDKit          3D

 50 54  0  0  0  0  0  0  0  0999 V2000
  143.1270   74.0100  220.1140 O   0  0  0  0  0  0  0  0  0  0  0  0
  142.0920   73.8680  220.8180 C   0  0  0  0  0  0  0  0  0  0  0  0
  141.6250   72.5240  221.2370 C   0  0  0  0  0  0  0  0  0  0  0  0
  140.3960   72.6240  222.0550 C   0  0  0  0  0  0  0  0  0  0  0  0
  139.8080   71.3830  222.5950 C   0  0  0  0  0  0  0  0  0  0  0  0
  139.0230   70.5830  221.7910 C   0  0  0  0  0  0  0  0  0  0  0  0
  138.5040   69.4040  222.2970 C   0  0  0  0  0  0  0  0  0  0  0  0
  138.7800   69.0500  223.5980 C   0  0  0  0  0  0  0  0  0  0  0  0
  139.5580   69.8160  224.4460 C   0  0  0  0  0  0  0  0  0  0  0  0
  139.8790   69.4930  225.8010 C   0  0  0  0  0  0  0  0  0  0  0  0
  139.7970   68.2640  226.1570 O   0  0  0  0  0  0  0  0  0  0  0  0
  140.2850   70.3970  226.8160 N   0  0  0  0  0  0  0  0  0  0  0  0
  140.5460   71.8150  227.0030 C   0  0  0  0  0  0  0  0  0  0  0  0
  141.3850   71.4900  228.2440 C   0  0  0  0  0  0  0  0  0  0  0  0
  140.5760   70.2420  228.2440 C   0  0  0  0  0  0  0  0  0  0  0  0
  140.0590   70.9900  223.8980 C   0  0  0  0  0  0  0  0  0  0  0  0
  139.8020   73.7160  222.3620 N   0  0  0  0  0  0  0  0  0  0  0  0
  140.2620   74.9870  221.9490 C   0  0  0  0  0  0  0  0  0  0  0  0
  139.5370   76.0880  222.3450 C   0  0  0  0  0  0  0  0  0  0  0  0
  140.0110   77.3190  221.9330 C   0  0  0  0  0  0  0  0  0  0  0  0
  141.1290   77.4860  221.1750 C   0  0  0  0  0  0  0  0  0  0  0  0
  141.5040   78.7670  220.8260 O   0  0  0  0  0  0  0  0  0  0  0  0
  141.7960   79.6700  221.8290 C   0  0  0  0  0  0  0  0  0  0  0  0
  142.7040   79.4590  222.8390 C   0  0  0  0  0  0  0  0  0  0  0  0
  142.9180   80.4380  223.7900 C   0  0  0  0  0  0  0  0  0  0  0  0
  142.2110   81.6340  223.7170 C   0  0  0  0  0  0  0  0  0  0  0  0
  141.2910   81.8760  222.7130 C   0  0  0  0  0  0  0  0  0  0  0  0
  141.1100   80.8750  221.7880 C   0  0  0  0  0  0  0  0  0  0  0  0
  141.8340   76.3540  220.7930 C   0  0  0  0  0  0  0  0  0  0  0  0
  141.3980   75.1110  221.1800 C   0  0  0  0  0  0  0  0  0  0  0  0
  141.4138   71.9207  220.3418 H   0  0  0  0  0  0  0  0  0  0  0  0
  142.4125   72.0508  221.8419 H   0  0  0  0  0  0  0  0  0  0  0  0
  138.8107   70.8804  220.7535 H   0  0  0  0  0  0  0  0  0  0  0  0
  137.8774   68.7566  221.6659 H   0  0  0  0  0  0  0  0  0  0  0  0
  138.3599   68.1091  223.9829 H   0  0  0  0  0  0  0  0  0  0  0  0
  141.1149   72.2797  226.1842 H   0  0  0  0  0  0  0  0  0  0  0  0
  139.7150   72.5332  227.0625 H   0  0  0  0  0  0  0  0  0  0  0  0
  142.4627   71.3577  228.0677 H   0  0  0  0  0  0  0  0  0  0  0  0
  141.4848   72.1586  229.1117 H   0  0  0  0  0  0  0  0  0  0  0  0
  141.1539   69.3374  228.4845 H   0  0  0  0  0  0  0  0  0  0  0  0
  139.7499   70.1257  228.9610 H   0  0  0  0  0  0  0  0  0  0  0  0
  140.6847   71.6378  224.5295 H   0  0  0  0  0  0  0  0  0  0  0  0
  138.6281   75.9930  222.9572 H   0  0  0  0  0  0  0  0  0  0  0  0
  139.4518   78.2167  222.2355 H   0  0  0  0  0  0  0  0  0  0  0  0
  143.2599   78.5112  222.8901 H   0  0  0  0  0  0  0  0  0  0  0  0
  143.6433   80.2728  224.6003 H   0  0  0  0  0  0  0  0  0  0  0  0
  142.3885   82.4080  224.4782 H   0  0  0  0  0  0  0  0  0  0  0  0
  140.7322   82.8218  222.6573 H   0  0  0  0  0  0  0  0  0  0  0  0
  140.3860   81.0376  220.9760 H   0  0  0  0  0  0  0  0  0  0  0  0
  142.7422   76.4523  220.1802 H   0  0  0  0  0  0  0  0  0  0  0  0
  1  2  2  0
  2  3  1  0
  3  4  1  0
  4  5  1  0
  5  6  2  0
  6  7  1  0
  7  8  2  0
  8  9  1  0
  9 10  1  0
 10 11  2  0
 10 12  1  0
 12 13  1  0
 13 14  1  0
 14 15  1  0
  9 16  2  0
  4 17  2  0
 17 18  1  0
 18 19  2  0
 19 20  1  0
 20 21  2  0
 21 22  1  0
 22 23  1  0
 23 24  2  0
 24 25  1  0
 25 26  2  0
 26 27  1  0
 27 28  2  0
 21 29  1  0
 29 30  2  0
 30  2  1  0
 16  5  1  0
 30 18  1  0
 15 12  1  0
 28 23  1  0
  3 31  1  0
  3 32  1  0
  6 33  1  0
  7 34  1  0
  8 35  1  0
 13 36  1  0
 13 37  1  0
 14 38  1  0
 14 39  1  0
 15 40  1  0
 15 41  1  0
 16 42  1  0
 19 43  1  0
 20 44  1  0
 24 45  1  0
 25 46  1  0
 26 47  1  0
 27 48  1  0
 28 49  1  0
 29 50  1  0
M  END
>  <smiles>  (3) 
O=C1CC(c2cccc(C(=O)N3CCC3)c2)=Nc2ccc(Oc3ccccc3)cc21

>  <score_type>  (3) 
oracle

>  <origin>  (3) 
autodockgpu

>  <m_score__min__energy>  (3) 
-9.2799999999999994

>  <m_primary>  (3) 
energy

>  <rmsd>  (3) 
6.40838479383801

>  <m_score__min__rmsd>  (3) 
6.40838479383801

>  <meeko>  (3) 
{"free_energy": -9.18, "intermolecular_energy": -10.37, "internal_energy": -1.04, "cluster_size": 48, "cluster_id": 1, "rank_in_cluster": 23}

>  <energy>  (3) 
-9.27

>  <cluster_rmsd>  (3) 
0.08

>  <cluster>  (3) 
1

$$$$

     RDKit          3D

 50 54  0  0  0  0  0  0  0  0999 V2000
  142.9490   73.5510  220.1890 O   0  0  0  0  0  0  0  0  0  0  0  0
  141.8740   73.4990  220.8430 C   0  0  0  0  0  0  0  0  0  0  0  0
  141.2650   72.2000  221.2200 C   0  0  0  0  0  0  0  0  0  0  0  0
  140.0140   72.4060  221.9830 C   0  0  0  0  0  0  0  0  0  0  0  0
  139.2890   71.2200  222.4770 C   0  0  0  0  0  0  0  0  0  0  0  0
  138.3180   70.6290  221.6960 C   0  0  0  0  0  0  0  0  0  0  0  0
  137.6670   69.4970  222.1550 C   0  0  0  0  0  0  0  0  0  0  0  0
  138.0000   68.9800  223.3850 C   0  0  0  0  0  0  0  0  0  0  0  0
  138.9620   69.5340  224.2080 C   0  0  0  0  0  0  0  0  0  0  0  0
  139.3500   69.0360  225.4910 C   0  0  0  0  0  0  0  0  0  0  0  0
  139.2060   67.7810  225.7110 O   0  0  0  0  0  0  0  0  0  0  0  0
  139.8860   69.7870  226.5680 N   0  0  0  0  0  0  0  0  0  0  0  0
  140.2570   71.1550  226.8920 C   0  0  0  0  0  0  0  0  0  0  0  0
  141.1520   70.6350  228.0230 C   0  0  0  0  0  0  0  0  0  0  0  0
  140.2600   69.4490  227.9440 C   0  0  0  0  0  0  0  0  0  0  0  0
  139.5910   70.6690  223.7090 C   0  0  0  0  0  0  0  0  0  0  0  0
  139.5110   73.5460  222.2810 N   0  0  0  0  0  0  0  0  0  0  0  0
  140.1060   74.7720  221.9080 C   0  0  0  0  0  0  0  0  0  0  0  0
  139.4700   75.9320  222.2890 C   0  0  0  0  0  0  0  0  0  0  0  0
  140.0750   77.1180  221.9180 C   0  0  0  0  0  0  0  0  0  0  0  0
  141.2370   77.1880  221.2140 C   0  0  0  0  0  0  0  0  0  0  0  0
  141.7460   78.4320  220.9010 O   0  0  0  0  0  0  0  0  0  0  0  0
  141.7490   79.4110  221.8750 C   0  0  0  0  0  0  0  0  0  0  0  0
  140.7520   80.3390  222.0610 C   0  0  0  0  0  0  0  0  0  0  0  0
  140.8610   81.2740  223.0730 C   0  0  0  0  0  0  0  0  0  0  0  0
  141.9820   81.2680  223.8980 C   0  0  0  0  0  0  0  0  0  0  0  0
  143.0010   80.3480  223.7350 C   0  0  0  0  0  0  0  0  0  0  0  0
  142.8520   79.4360  222.7160 C   0  0  0  0  0  0  0  0  0  0  0  0
  141.8500   75.9990  220.8450 C   0  0  0  0  0  0  0  0  0  0  0  0
  141.2830   74.7980  221.1930 C   0  0  0  0  0  0  0  0  0  0  0  0
  141.0404   71.6289  220.3071 H   0  0  0  0  0  0  0  0  0  0  0  0
  141.9761   71.6484  221.8525 H   0  0  0  0  0  0  0  0  0  0  0  0
  138.0625   71.0546  220.7144 H   0  0  0  0  0  0  0  0  0  0  0  0
  136.8909   69.0156  221.5419 H   0  0  0  0  0  0  0  0  0  0  0  0
  137.4733   68.0787  223.7318 H   0  0  0  0  0  0  0  0  0  0  0  0
  140.8011   71.6760  226.0904 H   0  0  0  0  0  0  0  0  0  0  0  0
  139.4844   71.9118  227.0927 H   0  0  0  0  0  0  0  0  0  0  0  0
  142.2035   70.4574  227.7532 H   0  0  0  0  0  0  0  0  0  0  0  0
  141.3561   71.1903  228.9504 H   0  0  0  0  0  0  0  0  0  0  0  0
  140.7877   68.4885  228.0383 H   0  0  0  0  0  0  0  0  0  0  0  0
  139.4776   69.3015  228.7030 H   0  0  0  0  0  0  0  0  0  0  0  0
  140.3655   71.1516  224.3232 H   0  0  0  0  0  0  0  0  0  0  0  0
  138.5293   75.9158  222.8590 H   0  0  0  0  0  0  0  0  0  0  0  0
  139.5884   78.0606  222.2090 H   0  0  0  0  0  0  0  0  0  0  0  0
  139.8687   80.3374  221.4054 H   0  0  0  0  0  0  0  0  0  0  0  0
  140.0661   82.0189  223.2256 H   0  0  0  0  0  0  0  0  0  0  0  0
  142.0592   82.0154  224.7014 H   0  0  0  0  0  0  0  0  0  0  0  0
  143.8866   80.3454  224.3875 H   0  0  0  0  0  0  0  0  0  0  0  0
  143.6458   78.6905  222.5605 H   0  0  0  0  0  0  0  0  0  0  0  0
  142.7899   76.0187  220.2739 H   0  0  0  0  0  0  0  0  0  0  0  0
  1  2  2  0
  2  3  1  0
  3  4  1  0
  4  5  1  0
  5  6  2  0
  6  7  1  0
  7  8  2  0
  8  9  1  0
  9 10  1  0
 10 11  2  0
 10 12  1  0
 12 13  1  0
 13 14  1  0
 14 15  1  0
  9 16  2  0
  4 17  2  0
 17 18  1  0
 18 19  2  0
 19 20  1  0
 20 21  2  0
 21 22  1  0
 22 23  1  0
 23 24  2  0
 24 25  1  0
 25 26  2  0
 26 27  1  0
 27 28  2  0
 21 29  1  0
 29 30  2  0
 30  2  1  0
 16  5  1  0
 30 18  1  0
 15 12  1  0
 28 23  1  0
  3 31  1  0
  3 32  1  0
  6 33  1  0
  7 34  1  0
  8 35  1  0
 13 36  1  0
 13 37  1  0
 14 38  1  0
 14 39  1  0
 15 40  1  0
 15 41  1  0
 16 42  1  0
 19 43  1  0
 20 44  1  0
 24 45  1  0
 25 46  1  0
 26 47  1  0
 27 48  1  0
 28 49  1  0
 29 50  1  0
M  END
>  <smiles>  (4) 
O=C1CC(c2cccc(C(=O)N3CCC3)c2)=Nc2ccc(Oc3ccccc3)cc21

>  <score_type>  (4) 
oracle

>  <origin>  (4) 
autodockgpu

>  <m_score__min__energy>  (4) 
-9.2799999999999994

>  <m_primary>  (4) 
energy

>  <rmsd>  (4) 
6.259072866395359

>  <m_score__min__rmsd>  (4) 
6.259072866395359

>  <meeko>  (4) 
{"free_energy": -9.11, "intermolecular_energy": -10.3, "internal_energy": -1.02, "cluster_size": 48, "cluster_id": 1, "rank_in_cluster": 37}

>  <energy>  (4) 
-9.27

>  <cluster_rmsd>  (4) 
0.1

>  <cluster>  (4) 
1

$$$$

     RDKit          3D

 50 54  0  0  0  0  0  0  0  0999 V2000
  143.1870   74.0200  220.1430 O   0  0  0  0  0  0  0  0  0  0  0  0
  142.1520   73.8460  220.8390 C   0  0  0  0  0  0  0  0  0  0  0  0
  141.7190   72.4880  221.2490 C   0  0  0  0  0  0  0  0  0  0  0  0
  140.4820   72.5510  222.0590 C   0  0  0  0  0  0  0  0  0  0  0  0
  139.9250   71.2920  222.5900 C   0  0  0  0  0  0  0  0  0  0  0  0
  139.3460   70.3770  221.7340 C   0  0  0  0  0  0  0  0  0  0  0  0
  138.8570   69.1850  222.2380 C   0  0  0  0  0  0  0  0  0  0  0  0
  138.9550   68.9320  223.5860 C   0  0  0  0  0  0  0  0  0  0  0  0
  139.5230   69.8140  224.4870 C   0  0  0  0  0  0  0  0  0  0  0  0
  139.6540   69.6000  225.8940 C   0  0  0  0  0  0  0  0  0  0  0  0
  139.2850   68.4640  226.3610 O   0  0  0  0  0  0  0  0  0  0  0  0
  140.1570   70.5190  226.8500 N   0  0  0  0  0  0  0  0  0  0  0  0
  140.6950   71.8670  226.9190 C   0  0  0  0  0  0  0  0  0  0  0  0
  141.3400   71.5330  228.2690 C   0  0  0  0  0  0  0  0  0  0  0  0
  140.2880   70.4820  228.3100 C   0  0  0  0  0  0  0  0  0  0  0  0
  140.0020   70.9980  223.9390 C   0  0  0  0  0  0  0  0  0  0  0  0
  139.8570   73.6250  222.3670 N   0  0  0  0  0  0  0  0  0  0  0  0
  140.2840   74.9100  221.9620 C   0  0  0  0  0  0  0  0  0  0  0  0
  139.5270   75.9890  222.3590 C   0  0  0  0  0  0  0  0  0  0  0  0
  139.9700   77.2350  221.9560 C   0  0  0  0  0  0  0  0  0  0  0  0
  141.0870   77.4360  221.2060 C   0  0  0  0  0  0  0  0  0  0  0  0
  141.4300   78.7280  220.8650 O   0  0  0  0  0  0  0  0  0  0  0  0
  141.7400   79.6200  221.8720 C   0  0  0  0  0  0  0  0  0  0  0  0
  142.6380   79.3820  222.8850 C   0  0  0  0  0  0  0  0  0  0  0  0
  142.8730   80.3530  223.8400 C   0  0  0  0  0  0  0  0  0  0  0  0
  142.1960   81.5670  223.7680 C   0  0  0  0  0  0  0  0  0  0  0  0
  141.2870   81.8350  222.7610 C   0  0  0  0  0  0  0  0  0  0  0  0
  141.0850   80.8420  221.8320 C   0  0  0  0  0  0  0  0  0  0  0  0
  141.8260   76.3250  220.8230 C   0  0  0  0  0  0  0  0  0  0  0  0
  141.4210   75.0680  221.2020 C   0  0  0  0  0  0  0  0  0  0  0  0
  141.5304   71.8832  220.3498 H   0  0  0  0  0  0  0  0  0  0  0  0
  142.5150   72.0336  221.8572 H   0  0  0  0  0  0  0  0  0  0  0  0
  139.2738   70.5942  220.6581 H   0  0  0  0  0  0  0  0  0  0  0  0
  138.3942   68.4466  221.5667 H   0  0  0  0  0  0  0  0  0  0  0  0
  138.5611   67.9784  223.9675 H   0  0  0  0  0  0  0  0  0  0  0  0
  141.4154   72.1054  226.1227 H   0  0  0  0  0  0  0  0  0  0  0  0
  140.0326   72.7392  226.8165 H   0  0  0  0  0  0  0  0  0  0  0  0
  142.3761   71.1666  228.2228 H   0  0  0  0  0  0  0  0  0  0  0  0
  141.5064   72.2684  229.0700 H   0  0  0  0  0  0  0  0  0  0  0  0
  140.6393   69.5157  228.7010 H   0  0  0  0  0  0  0  0  0  0  0  0
  139.3994   70.6211  228.9432 H   0  0  0  0  0  0  0  0  0  0  0  0
  140.4644   71.7365  224.6104 H   0  0  0  0  0  0  0  0  0  0  0  0
  138.6173   75.8662  222.9651 H   0  0  0  0  0  0  0  0  0  0  0  0
  139.3849   78.1156  222.2596 H   0  0  0  0  0  0  0  0  0  0  0  0
  143.1689   78.4199  222.9355 H   0  0  0  0  0  0  0  0  0  0  0  0
  143.5910   80.1674  224.6524 H   0  0  0  0  0  0  0  0  0  0  0  0
  142.3892   82.3338  224.5327 H   0  0  0  0  0  0  0  0  0  0  0  0
  140.7523   82.7947  222.7060 H   0  0  0  0  0  0  0  0  0  0  0  0
  140.3691   81.0255  221.0173 H   0  0  0  0  0  0  0  0  0  0  0  0
  142.7351   76.4509  220.2166 H   0  0  0  0  0  0  0  0  0  0  0  0
  1  2  2  0
  2  3  1  0
  3  4  1  0
  4  5  1  0
  5  6  2  0
  6  7  1  0
  7  8  2  0
  8  9  1  0
  9 10  1  0
 10 11  2  0
 10 12  1  0
 12 13  1  0
 13 14  1  0
 14 15  1  0
  9 16  2  0
  4 17  2  0
 17 18  1  0
 18 19  2  0
 19 20  1  0
 20 21  2  0
 21 22  1  0
 22 23  1  0
 23 24  2  0
 24 25  1  0
 25 26  2  0
 26 27  1  0
 27 28  2  0
 21 29  1  0
 29 30  2  0
 30  2  1  0
 16  5  1  0
 30 18  1  0
 15 12  1  0
 28 23  1  0
  3 31  1  0
  3 32  1  0
  6 33  1  0
  7 34  1  0
  8 35  1  0
 13 36  1  0
 13 37  1  0
 14 38  1  0
 14 39  1  0
 15 40  1  0
 15 41  1  0
 16 42  1  0
 19 43  1  0
 20 44  1  0
 24 45  1  0
 25 46  1  0
 26 47  1  0
 27 48  1  0
 28 49  1  0
 29 50  1  0
M  END
>  <smiles>  (5) 
O=C1CC(c2cccc(C(=O)N3CCC3)c2)=Nc2ccc(Oc3ccccc3)cc21

>  <score_type>  (5) 
oracle

>  <origin>  (5) 
autodockgpu

>  <m_score__min__energy>  (5) 
-9.2799999999999994

>  <m_primary>  (5) 
energy

>  <rmsd>  (5) 
6.38707764054255

>  <m_score__min__rmsd>  (5) 
6.38707764054255

>  <meeko>  (5) 
{"free_energy": -9.26, "intermolecular_energy": -10.45, "internal_energy": -1.03, "cluster_size": 48, "cluster_id": 1, "rank_in_cluster": 11}

>  <energy>  (5) 
-9.27

>  <cluster_rmsd>  (5) 
0.12

>  <cluster>  (5) 
1

$$$$

     RDKit          3D

 50 54  0  0  0  0  0  0  0  0999 V2000
  143.2120   74.1140  220.1420 O   0  0  0  0  0  0  0  0  0  0  0  0
  142.1730   73.9170  220.8260 C   0  0  0  0  0  0  0  0  0  0  0  0
  141.7650   72.5500  221.2290 C   0  0  0  0  0  0  0  0  0  0  0  0
  140.5190   72.5850  222.0250 C   0  0  0  0  0  0  0  0  0  0  0  0
  139.9820   71.3140  222.5480 C   0  0  0  0  0  0  0  0  0  0  0  0
  139.4730   70.3690  221.6800 C   0  0  0  0  0  0  0  0  0  0  0  0
  139.0030   69.1660  222.1770 C   0  0  0  0  0  0  0  0  0  0  0  0
  139.0520   68.9320  223.5320 C   0  0  0  0  0  0  0  0  0  0  0  0
  139.5490   69.8440  224.4440 C   0  0  0  0  0  0  0  0  0  0  0  0
  139.6260   69.6500  225.8590 C   0  0  0  0  0  0  0  0  0  0  0  0
  139.1990   68.5370  226.3320 O   0  0  0  0  0  0  0  0  0  0  0  0
  140.1320   70.5660  226.8160 N   0  0  0  0  0  0  0  0  0  0  0  0
  140.7180   71.8950  226.8800 C   0  0  0  0  0  0  0  0  0  0  0  0
  141.3060   71.5610  228.2560 C   0  0  0  0  0  0  0  0  0  0  0  0
  140.2150   70.5510  228.2790 C   0  0  0  0  0  0  0  0  0  0  0  0
  140.0100   71.0380  223.9030 C   0  0  0  0  0  0  0  0  0  0  0  0
  139.8670   73.6450  222.3290 N   0  0  0  0  0  0  0  0  0  0  0  0
  140.2720   74.9390  221.9310 C   0  0  0  0  0  0  0  0  0  0  0  0
  139.4880   76.0010  222.3220 C   0  0  0  0  0  0  0  0  0  0  0  0
  139.9090   77.2570  221.9260 C   0  0  0  0  0  0  0  0  0  0  0  0
  141.0300   77.4830  221.1890 C   0  0  0  0  0  0  0  0  0  0  0  0
  141.3490   78.7830  220.8540 O   0  0  0  0  0  0  0  0  0  0  0  0
  141.6870   79.6640  221.8610 C   0  0  0  0  0  0  0  0  0  0  0  0
  142.5220   79.3730  222.9140 C   0  0  0  0  0  0  0  0  0  0  0  0
  142.7930   80.3380  223.8660 C   0  0  0  0  0  0  0  0  0  0  0  0
  142.2170   81.5990  223.7500 C   0  0  0  0  0  0  0  0  0  0  0  0
  141.3740   81.9220  222.7030 C   0  0  0  0  0  0  0  0  0  0  0  0
  141.1320   80.9330  221.7790 C   0  0  0  0  0  0  0  0  0  0  0  0
  141.7950   76.3890  220.8120 C   0  0  0  0  0  0  0  0  0  0  0  0
  141.4140   75.1230  221.1840 C   0  0  0  0  0  0  0  0  0  0  0  0
  141.5993   71.9428  220.3269 H   0  0  0  0  0  0  0  0  0  0  0  0
  142.5639   72.1118  221.8452 H   0  0  0  0  0  0  0  0  0  0  0  0
  139.4412   70.5711  220.5992 H   0  0  0  0  0  0  0  0  0  0  0  0
  138.5945   68.4049  221.4960 H   0  0  0  0  0  0  0  0  0  0  0  0
  138.6762   67.9694  223.9090 H   0  0  0  0  0  0  0  0  0  0  0  0
  141.4722   72.0923  226.1040 H   0  0  0  0  0  0  0  0  0  0  0  0
  140.0927   72.7892  226.7411 H   0  0  0  0  0  0  0  0  0  0  0  0
  142.3286   71.1558  228.2501 H   0  0  0  0  0  0  0  0  0  0  0  0
  141.4739   72.3035  229.0500 H   0  0  0  0  0  0  0  0  0  0  0  0
  140.5170   69.5795  228.6974 H   0  0  0  0  0  0  0  0  0  0  0  0
  139.3122   70.7347  228.8800 H   0  0  0  0  0  0  0  0  0  0  0  0
  140.4164   71.7997  224.5846 H   0  0  0  0  0  0  0  0  0  0  0  0
  138.5747   75.8578  222.9181 H   0  0  0  0  0  0  0  0  0  0  0  0
  139.3019   78.1245  222.2243 H   0  0  0  0  0  0  0  0  0  0  0  0
  142.9738   78.3736  222.9987 H   0  0  0  0  0  0  0  0  0  0  0  0
  143.4602   80.1101  224.7103 H   0  0  0  0  0  0  0  0  0  0  0  0
  142.4385   82.3602  224.5126 H   0  0  0  0  0  0  0  0  0  0  0  0
  140.9198   82.9198  222.6137 H   0  0  0  0  0  0  0  0  0  0  0  0
  140.4658   81.1589  220.9334 H   0  0  0  0  0  0  0  0  0  0  0  0
  142.7071   76.5355  220.2149 H   0  0  0  0  0  0  0  0  0  0  0  0
  1  2  2  0
  2  3  1  0
  3  4  1  0
  4  5  1  0
  5  6  2  0
  6  7  1  0
  7  8  2  0
  8  9  1  0
  9 10  1  0
 10 11  2  0
 10 12  1  0
 12 13  1  0
 13 14  1  0
 14 15  1  0
  9 16  2  0
  4 17  2  0
 17 18  1  0
 18 19  2  0
 19 20  1  0
 20 21  2  0
 21 22  1  0
 22 23  1  0
 23 24  2  0
 24 25  1  0
 25 26  2  0
 26 27  1  0
 27 28  2  0
 21 29  1  0
 29 30  2  0
 30  2  1  0
 16  5  1  0
 30 18  1  0
 15 12  1  0
 28 23  1  0
  3 31  1  0
  3 32  1  0
  6 33  1  0
  7 34  1  0
  8 35  1  0
 13 36  1  0
 13 37  1  0
 14 38  1  0
 14 39  1  0
 15 40  1  0
 15 41  1  0
 16 42  1  0
 19 43  1  0
 20 44  1  0
 24 45  1  0
 25 46  1  0
 26 47  1  0
 27 48  1  0
 28 49  1  0
 29 50  1  0
M  END
>  <smiles>  (6) 
O=C1CC(c2cccc(C(=O)N3CCC3)c2)=Nc2ccc(Oc3ccccc3)cc21

>  <score_type>  (6) 
oracle

>  <origin>  (6) 
autodockgpu

>  <m_score__min__energy>  (6) 
-9.2799999999999994

>  <m_primary>  (6) 
energy

>  <rmsd>  (6) 
6.400772296379092

>  <m_score__min__rmsd>  (6) 
6.400772296379092

>  <meeko>  (6) 
{"free_energy": -9.26, "intermolecular_energy": -10.45, "internal_energy": -1.03, "cluster_size": 48, "cluster_id": 1, "rank_in_cluster": 10}

>  <energy>  (6) 
-9.27

>  <cluster_rmsd>  (6) 
0.07

>  <cluster>  (6) 
1

$$$$

     RDKit          3D

 50 54  0  0  0  0  0  0  0  0999 V2000
  143.1610   74.0740  220.0590 O   0  0  0  0  0  0  0  0  0  0  0  0
  142.1420   73.8910  220.7760 C   0  0  0  0  0  0  0  0  0  0  0  0
  141.7280   72.5280  221.1910 C   0  0  0  0  0  0  0  0  0  0  0  0
  140.5070   72.5800  222.0260 C   0  0  0  0  0  0  0  0  0  0  0  0
  139.9700   71.3160  222.5640 C   0  0  0  0  0  0  0  0  0  0  0  0
  139.4520   70.3650  221.7090 C   0  0  0  0  0  0  0  0  0  0  0  0
  138.9810   69.1680  222.2210 C   0  0  0  0  0  0  0  0  0  0  0  0
  139.0380   68.9470  223.5780 C   0  0  0  0  0  0  0  0  0  0  0  0
  139.5450   69.8650  224.4780 C   0  0  0  0  0  0  0  0  0  0  0  0
  139.6310   69.6850  225.8940 C   0  0  0  0  0  0  0  0  0  0  0  0
  139.1990   68.5800  226.3810 O   0  0  0  0  0  0  0  0  0  0  0  0
  140.1510   70.6070  226.8380 N   0  0  0  0  0  0  0  0  0  0  0  0
  140.7480   71.9310  226.8840 C   0  0  0  0  0  0  0  0  0  0  0  0
  141.3430   71.6070  228.2590 C   0  0  0  0  0  0  0  0  0  0  0  0
  140.2440   70.6060  228.3000 C   0  0  0  0  0  0  0  0  0  0  0  0
  140.0070   71.0530  223.9220 C   0  0  0  0  0  0  0  0  0  0  0  0
  139.8810   73.6490  222.3510 N   0  0  0  0  0  0  0  0  0  0  0  0
  140.2900   74.9370  221.9410 C   0  0  0  0  0  0  0  0  0  0  0  0
  139.5340   76.0090  222.3570 C   0  0  0  0  0  0  0  0  0  0  0  0
  139.9600   77.2600  221.9490 C   0  0  0  0  0  0  0  0  0  0  0  0
  141.0600   77.4710  221.1770 C   0  0  0  0  0  0  0  0  0  0  0  0
  141.3860   78.7670  220.8320 O   0  0  0  0  0  0  0  0  0  0  0  0
  141.7060   79.6590  221.8360 C   0  0  0  0  0  0  0  0  0  0  0  0
  142.5460   79.3890  222.8910 C   0  0  0  0  0  0  0  0  0  0  0  0
  142.7980   80.3640  223.8380 C   0  0  0  0  0  0  0  0  0  0  0  0
  142.1990   81.6140  223.7150 C   0  0  0  0  0  0  0  0  0  0  0  0
  141.3520   81.9150  222.6660 C   0  0  0  0  0  0  0  0  0  0  0  0
  141.1290   80.9170  221.7460 C   0  0  0  0  0  0  0  0  0  0  0  0
  141.7980   76.3670  220.7750 C   0  0  0  0  0  0  0  0  0  0  0  0
  141.4100   75.1060  221.1580 C   0  0  0  0  0  0  0  0  0  0  0  0
  141.5259   71.9239  220.2942 H   0  0  0  0  0  0  0  0  0  0  0  0
  142.5396   72.0779  221.7815 H   0  0  0  0  0  0  0  0  0  0  0  0
  139.4135   70.5568  220.6265 H   0  0  0  0  0  0  0  0  0  0  0  0
  138.5656   68.4017  221.5501 H   0  0  0  0  0  0  0  0  0  0  0  0
  138.6603   67.9898  223.9666 H   0  0  0  0  0  0  0  0  0  0  0  0
  141.4983   72.1139  226.1006 H   0  0  0  0  0  0  0  0  0  0  0  0
  140.1289   72.8288  226.7401 H   0  0  0  0  0  0  0  0  0  0  0  0
  142.3623   71.1936  228.2503 H   0  0  0  0  0  0  0  0  0  0  0  0
  141.5224   72.3564  229.0440 H   0  0  0  0  0  0  0  0  0  0  0  0
  140.5412   69.6364  228.7261 H   0  0  0  0  0  0  0  0  0  0  0  0
  139.3469   70.8030  228.9054 H   0  0  0  0  0  0  0  0  0  0  0  0
  140.4213   71.8196  224.5933 H   0  0  0  0  0  0  0  0  0  0  0  0
  138.6379   75.8778  222.9813 H   0  0  0  0  0  0  0  0  0  0  0  0
  139.3751   78.1355  222.2674 H   0  0  0  0  0  0  0  0  0  0  0  0
  143.0166   78.3988  222.9811 H   0  0  0  0  0  0  0  0  0  0  0  0
  143.4684   80.1529  224.6842 H   0  0  0  0  0  0  0  0  0  0  0  0
  142.4055   82.3833  224.4736 H   0  0  0  0  0  0  0  0  0  0  0  0
  140.8793   82.9037  222.5711 H   0  0  0  0  0  0  0  0  0  0  0  0
  140.4607   81.1268  220.8979 H   0  0  0  0  0  0  0  0  0  0  0  0
  142.6932   76.5013  220.1500 H   0  0  0  0  0  0  0  0  0  0  0  0
  1  2  2  0
  2  3  1  0
  3  4  1  0
  4  5  1  0
  5  6  2  0
  6  7  1  0
  7  8  2  0
  8  9  1  0
  9 10  1  0
 10 11  2  0
 10 12  1  0
 12 13  1  0
 13 14  1  0
 14 15  1  0
  9 16  2  0
  4 17  2  0
 17 18  1  0
 18 19  2  0
 19 20  1  0
 20 21  2  0
 21 22  1  0
 22 23  1  0
 23 24  2  0
 24 25  1  0
 25 26  2  0
 26 27  1  0
 27 28  2  0
 21 29  1  0
 29 30  2  0
 30  2  1  0
 16  5  1  0
 30 18  1  0
 15 12  1  0
 28 23  1  0
  3 31  1  0
  3 32  1  0
  6 33  1  0
  7 34  1  0
  8 35  1  0
 13 36  1  0
 13 37  1  0
 14 38  1  0
 14 39  1  0
 15 40  1  0
 15 41  1  0
 16 42  1  0
 19 43  1  0
 20 44  1  0
 24 45  1  0
 25 46  1  0
 26 47  1  0
 27 48  1  0
 28 49  1  0
 29 50  1  0
M  END
>  <smiles>  (7) 
O=C1CC(c2cccc(C(=O)N3CCC3)c2)=Nc2ccc(Oc3ccccc3)cc21

>  <score_type>  (7) 
oracle

>  <origin>  (7) 
autodockgpu

>  <m_score__min__energy>  (7) 
-9.2799999999999994

>  <m_primary>  (7) 
energy

>  <rmsd>  (7) 
6.40958787709939

>  <m_score__min__rmsd>  (7) 
6.40958787709939

>  <meeko>  (7) 
{"free_energy": -9.27, "intermolecular_energy": -10.46, "internal_energy": -1.03, "cluster_size": 48, "cluster_id": 1, "rank_in_cluster": 8}

>  <energy>  (7) 
-9.27

>  <cluster_rmsd>  (7) 
0.14

>  <cluster>  (7) 
1

$$$$

     RDKit          3D

 50 54  0  0  0  0  0  0  0  0999 V2000
  143.8650   72.2880  220.5450 O   0  0  0  0  0  0  0  0  0  0  0  0
  143.0580   73.2550  220.5570 C   0  0  0  0  0  0  0  0  0  0  0  0
  143.3780   74.5330  219.8760 C   0  0  0  0  0  0  0  0  0  0  0  0
  142.2730   75.5040  220.0310 C   0  0  0  0  0  0  0  0  0  0  0  0
  142.4000   76.8230  219.3830 C   0  0  0  0  0  0  0  0  0  0  0  0
  142.7940   76.9100  218.0640 C   0  0  0  0  0  0  0  0  0  0  0  0
  142.8780   78.1500  217.4550 C   0  0  0  0  0  0  0  0  0  0  0  0
  142.5660   79.2780  218.1780 C   0  0  0  0  0  0  0  0  0  0  0  0
  142.1680   79.2470  219.5010 C   0  0  0  0  0  0  0  0  0  0  0  0
  141.8290   80.3870  220.2960 C   0  0  0  0  0  0  0  0  0  0  0  0
  141.2760   81.3810  219.7060 O   0  0  0  0  0  0  0  0  0  0  0  0
  142.0400   80.5430  221.6900 N   0  0  0  0  0  0  0  0  0  0  0  0
  142.5840   79.8090  222.8210 C   0  0  0  0  0  0  0  0  0  0  0  0
  141.7970   80.7130  223.7760 C   0  0  0  0  0  0  0  0  0  0  0  0
  141.8210   81.6510  222.6230 C   0  0  0  0  0  0  0  0  0  0  0  0
  142.0970   77.9830  220.0740 C   0  0  0  0  0  0  0  0  0  0  0  0
  141.1840   75.2860  220.6690 N   0  0  0  0  0  0  0  0  0  0  0  0
  140.9000   74.0610  221.3150 C   0  0  0  0  0  0  0  0  0  0  0  0
  139.6930   73.9480  221.9660 C   0  0  0  0  0  0  0  0  0  0  0  0
  139.4370   72.7380  222.5840 C   0  0  0  0  0  0  0  0  0  0  0  0
  140.2990   71.6860  222.5770 C   0  0  0  0  0  0  0  0  0  0  0  0
  139.9330   70.5270  223.2290 O   0  0  0  0  0  0  0  0  0  0  0  0
  140.1080   70.4510  224.5970 C   0  0  0  0  0  0  0  0  0  0  0  0
  139.6510   69.4280  225.3940 C   0  0  0  0  0  0  0  0  0  0  0  0
  139.8880   69.4560  226.7550 C   0  0  0  0  0  0  0  0  0  0  0  0
  140.5900   70.5210  227.3090 C   0  0  0  0  0  0  0  0  0  0  0  0
  141.0630   71.5640  226.5340 C   0  0  0  0  0  0  0  0  0  0  0  0
  140.8050   71.4970  225.1850 C   0  0  0  0  0  0  0  0  0  0  0  0
  141.5080   71.8360  221.9110 C   0  0  0  0  0  0  0  0  0  0  0  0
  141.8030   73.0220  221.2840 C   0  0  0  0  0  0  0  0  0  0  0  0
  144.2935   74.9559  220.3153 H   0  0  0  0  0  0  0  0  0  0  0  0
  143.5233   74.3336  218.8040 H   0  0  0  0  0  0  0  0  0  0  0  0
  143.0401   75.9987  217.4992 H   0  0  0  0  0  0  0  0  0  0  0  0
  143.1910   78.2327  216.4037 H   0  0  0  0  0  0  0  0  0  0  0  0
  142.6370   80.2549  217.6773 H   0  0  0  0  0  0  0  0  0  0  0  0
  142.2869   78.7504  222.8557 H   0  0  0  0  0  0  0  0  0  0  0  0
  143.6708   79.6847  222.9367 H   0  0  0  0  0  0  0  0  0  0  0  0
  140.8026   80.3443  224.0680 H   0  0  0  0  0  0  0  0  0  0  0  0
  142.1320   80.9761  224.7902 H   0  0  0  0  0  0  0  0  0  0  0  0
  140.8726   82.1851  222.4644 H   0  0  0  0  0  0  0  0  0  0  0  0
  142.5125   82.5065  222.6282 H   0  0  0  0  0  0  0  0  0  0  0  0
  141.7855   77.9007  221.1258 H   0  0  0  0  0  0  0  0  0  0  0  0
  138.9700   74.7766  221.9933 H   0  0  0  0  0  0  0  0  0  0  0  0
  138.4796   72.6191  223.1125 H   0  0  0  0  0  0  0  0  0  0  0  0
  139.0974   68.5883  224.9486 H   0  0  0  0  0  0  0  0  0  0  0  0
  139.5234   68.6404  227.3967 H   0  0  0  0  0  0  0  0  0  0  0  0
  140.7740   70.5341  228.3934 H   0  0  0  0  0  0  0  0  0  0  0  0
  141.6180   72.4053  226.9747 H   0  0  0  0  0  0  0  0  0  0  0  0
  141.1685   72.3115  224.5412 H   0  0  0  0  0  0  0  0  0  0  0  0
  142.2291   71.0057  221.8855 H   0  0  0  0  0  0  0  0  0  0  0  0
  1  2  2  0
  2  3  1  0
  3  4  1  0
  4  5  1  0
  5  6  2  0
  6  7  1  0
  7  8  2  0
  8  9  1  0
  9 10  1  0
 10 11  2  0
 10 12  1  0
 12 13  1  0
 13 14  1  0
 14 15  1  0
  9 16  2  0
  4 17  2  0
 17 18  1  0
 18 19  2  0
 19 20  1  0
 20 21  2  0
 21 22  1  0
 22 23  1  0
 23 24  2  0
 24 25  1  0
 25 26  2  0
 26 27  1  0
 27 28  2  0
 21 29  1  0
 29 30  2  0
 30  2  1  0
 16  5  1  0
 30 18  1  0
 15 12  1  0
 28 23  1  0
  3 31  1  0
  3 32  1  0
  6 33  1  0
  7 34  1  0
  8 35  1  0
 13 36  1  0
 13 37  1  0
 14 38  1  0
 14 39  1  0
 15 40  1  0
 15 41  1  0
 16 42  1  0
 19 43  1  0
 20 44  1  0
 24 45  1  0
 25 46  1  0
 26 47  1  0
 27 48  1  0
 28 49  1  0
 29 50  1  0
M  END
>  <smiles>  (8) 
O=C1CC(c2cccc(C(=O)N3CCC3)c2)=Nc2ccc(Oc3ccccc3)cc21

>  <score_type>  (8) 
oracle

>  <origin>  (8) 
autodockgpu

>  <m_score__min__energy>  (8) 
-9.2799999999999994

>  <m_primary>  (8) 
energy

>  <rmsd>  (8) 
8.511843888742797

>  <m_score__min__rmsd>  (8) 
8.511843888742797

>  <meeko>  (8) 
{"free_energy": -8.29, "intermolecular_energy": -9.49, "internal_energy": -1.03, "cluster_size": 2, "cluster_id": 2, "rank_in_cluster": 1}

>  <energy>  (8) 
-9.27

>  <cluster_rmsd>  (8) 
0.09

>  <cluster>  (8) 
1

$$$$

     RDKit          3D

 50 54  0  0  0  0  0  0  0  0999 V2000
  143.2920   74.2180  220.1760 O   0  0  0  0  0  0  0  0  0  0  0  0
  142.2310   74.0110  220.8230 C   0  0  0  0  0  0  0  0  0  0  0  0
  141.8410   72.6440  221.2440 C   0  0  0  0  0  0  0  0  0  0  0  0
  140.5620   72.6670  221.9880 C   0  0  0  0  0  0  0  0  0  0  0  0
  140.0370   71.3950  222.5210 C   0  0  0  0  0  0  0  0  0  0  0  0
  139.5950   70.4140  221.6580 C   0  0  0  0  0  0  0  0  0  0  0  0
  139.1350   69.2120  222.1670 C   0  0  0  0  0  0  0  0  0  0  0  0
  139.1250   69.0160  223.5280 C   0  0  0  0  0  0  0  0  0  0  0  0
  139.5540   69.9660  224.4370 C   0  0  0  0  0  0  0  0  0  0  0  0
  139.5690   69.8130  225.8580 C   0  0  0  0  0  0  0  0  0  0  0  0
  138.9780   68.7890  226.3540 O   0  0  0  0  0  0  0  0  0  0  0  0
  140.1770   70.6820  226.8000 N   0  0  0  0  0  0  0  0  0  0  0  0
  140.9440   71.9160  226.8390 C   0  0  0  0  0  0  0  0  0  0  0  0
  141.4450   71.5520  228.2410 C   0  0  0  0  0  0  0  0  0  0  0  0
  140.2220   70.7070  228.2650 C   0  0  0  0  0  0  0  0  0  0  0  0
  140.0080   71.1570  223.8840 C   0  0  0  0  0  0  0  0  0  0  0  0
  139.8730   73.7170  222.2380 N   0  0  0  0  0  0  0  0  0  0  0  0
  140.2620   75.0110  221.8240 C   0  0  0  0  0  0  0  0  0  0  0  0
  139.4370   76.0620  222.1560 C   0  0  0  0  0  0  0  0  0  0  0  0
  139.8430   77.3180  221.7450 C   0  0  0  0  0  0  0  0  0  0  0  0
  140.9870   77.5540  221.0480 C   0  0  0  0  0  0  0  0  0  0  0  0
  141.2870   78.8530  220.6920 O   0  0  0  0  0  0  0  0  0  0  0  0
  141.5520   79.7700  221.6900 C   0  0  0  0  0  0  0  0  0  0  0  0
  141.1740   81.0920  221.6660 C   0  0  0  0  0  0  0  0  0  0  0  0
  141.4920   81.9190  222.7260 C   0  0  0  0  0  0  0  0  0  0  0  0
  142.1940   81.4070  223.8120 C   0  0  0  0  0  0  0  0  0  0  0  0
  142.5880   80.0830  223.8660 C   0  0  0  0  0  0  0  0  0  0  0  0
  142.2500   79.2940  222.7910 C   0  0  0  0  0  0  0  0  0  0  0  0
  141.7940   76.4710  220.7300 C   0  0  0  0  0  0  0  0  0  0  0  0
  141.4280   75.2050  221.1190 C   0  0  0  0  0  0  0  0  0  0  0  0
  141.7277   72.0106  220.3518 H   0  0  0  0  0  0  0  0  0  0  0  0
  142.6245   72.2415  221.9029 H   0  0  0  0  0  0  0  0  0  0  0  0
  139.6080   70.5860  220.5716 H   0  0  0  0  0  0  0  0  0  0  0  0
  138.7808   68.4212  221.4894 H   0  0  0  0  0  0  0  0  0  0  0  0
  138.7568   68.0539  223.9137 H   0  0  0  0  0  0  0  0  0  0  0  0
  141.7372   71.9771  226.0794 H   0  0  0  0  0  0  0  0  0  0  0  0
  140.4555   72.8840  226.6537 H   0  0  0  0  0  0  0  0  0  0  0  0
  142.3998   71.0070  228.2777 H   0  0  0  0  0  0  0  0  0  0  0  0
  141.6969   72.2915  229.0154 H   0  0  0  0  0  0  0  0  0  0  0  0
  140.3735   69.7181  228.7223 H   0  0  0  0  0  0  0  0  0  0  0  0
  139.3402   71.0368  228.8339 H   0  0  0  0  0  0  0  0  0  0  0  0
  140.3611   71.9483  224.5617 H   0  0  0  0  0  0  0  0  0  0  0  0
  138.5040   75.9104  222.7186 H   0  0  0  0  0  0  0  0  0  0  0  0
  139.2034   78.1769  221.9964 H   0  0  0  0  0  0  0  0  0  0  0  0
  140.6191   81.4905  220.8039 H   0  0  0  0  0  0  0  0  0  0  0  0
  141.1915   82.9771  222.7111 H   0  0  0  0  0  0  0  0  0  0  0  0
  142.4425   82.0738  224.6509 H   0  0  0  0  0  0  0  0  0  0  0  0
  143.1440   79.6805  224.7256 H   0  0  0  0  0  0  0  0  0  0  0  0
  142.5472   78.2350  222.8047 H   0  0  0  0  0  0  0  0  0  0  0  0
  142.7262   76.6258  220.1669 H   0  0  0  0  0  0  0  0  0  0  0  0
  1  2  2  0
  2  3  1  0
  3  4  1  0
  4  5  1  0
  5  6  2  0
  6  7  1  0
  7  8  2  0
  8  9  1  0
  9 10  1  0
 10 11  2  0
 10 12  1  0
 12 13  1  0
 13 14  1  0
 14 15  1  0
  9 16  2  0
  4 17  2  0
 17 18  1  0
 18 19  2  0
 19 20  1  0
 20 21  2  0
 21 22  1  0
 22 23  1  0
 23 24  2  0
 24 25  1  0
 25 26  2  0
 26 27  1  0
 27 28  2  0
 21 29  1  0
 29 30  2  0
 30  2  1  0
 16  5  1  0
 30 18  1  0
 15 12  1  0
 28 23  1  0
  3 31  1  0
  3 32  1  0
  6 33  1  0
  7 34  1  0
  8 35  1  0
 13 36  1  0
 13 37  1  0
 14 38  1  0
 14 39  1  0
 15 40  1  0
 15 41  1  0
 16 42  1  0
 19 43  1  0
 20 44  1  0
 24 45  1  0
 25 46  1  0
 26 47  1  0
 27 48  1  0
 28 49  1  0
 29 50  1  0
M  END
>  <smiles>  (9) 
O=C1CC(c2cccc(C(=O)N3CCC3)c2)=Nc2ccc(Oc3ccccc3)cc21

>  <score_type>  (9) 
oracle

>  <origin>  (9) 
autodockgpu

>  <m_score__min__energy>  (9) 
-9.2799999999999994

>  <m_primary>  (9) 
energy

>  <rmsd>  (9) 
6.455983423545165

>  <m_score__min__rmsd>  (9) 
6.455983423545165

>  <meeko>  (9) 
{"free_energy": -9.16, "intermolecular_energy": -10.35, "internal_energy": -1.03, "cluster_size": 48, "cluster_id": 1, "rank_in_cluster": 27}

>  <energy>  (9) 
-9.26

>  <cluster_rmsd>  (9) 
0.11

>  <cluster>  (9) 
1

$$$$

     RDKit          3D

 50 54  0  0  0  0  0  0  0  0999 V2000
  143.2170   74.1410  220.1170 O   0  0  0  0  0  0  0  0  0  0  0  0
  142.1860   73.9430  220.8140 C   0  0  0  0  0  0  0  0  0  0  0  0
  141.7830   72.5750  221.2210 C   0  0  0  0  0  0  0  0  0  0  0  0
  140.5470   72.6090  222.0330 C   0  0  0  0  0  0  0  0  0  0  0  0
  140.0180   71.3380  222.5610 C   0  0  0  0  0  0  0  0  0  0  0  0
  139.5330   70.3780  221.6960 C   0  0  0  0  0  0  0  0  0  0  0  0
  139.0690   69.1750  222.1990 C   0  0  0  0  0  0  0  0  0  0  0  0
  139.0990   68.9560  223.5570 C   0  0  0  0  0  0  0  0  0  0  0  0
  139.5720   69.8830  224.4670 C   0  0  0  0  0  0  0  0  0  0  0  0
  139.6300   69.7050  225.8840 C   0  0  0  0  0  0  0  0  0  0  0  0
  139.1760   68.6060  226.3660 O   0  0  0  0  0  0  0  0  0  0  0  0
  140.1420   70.6230  226.8360 N   0  0  0  0  0  0  0  0  0  0  0  0
  140.7540   71.9410  226.8910 C   0  0  0  0  0  0  0  0  0  0  0  0
  141.3190   71.6130  228.2770 C   0  0  0  0  0  0  0  0  0  0  0  0
  140.2080   70.6250  228.3000 C   0  0  0  0  0  0  0  0  0  0  0  0
  140.0280   71.0760  223.9200 C   0  0  0  0  0  0  0  0  0  0  0  0
  139.9000   73.6690  222.3470 N   0  0  0  0  0  0  0  0  0  0  0  0
  140.3000   74.9640  221.9450 C   0  0  0  0  0  0  0  0  0  0  0  0
  139.5210   76.0250  222.3480 C   0  0  0  0  0  0  0  0  0  0  0  0
  139.9370   77.2810  221.9480 C   0  0  0  0  0  0  0  0  0  0  0  0
  141.0480   77.5080  221.1960 C   0  0  0  0  0  0  0  0  0  0  0  0
  141.3630   78.8080  220.8580 O   0  0  0  0  0  0  0  0  0  0  0  0
  141.6940   79.6940  221.8650 C   0  0  0  0  0  0  0  0  0  0  0  0
  142.5230   79.4070  222.9240 C   0  0  0  0  0  0  0  0  0  0  0  0
  142.7880   80.3760  223.8740 C   0  0  0  0  0  0  0  0  0  0  0  0
  142.2120   81.6370  223.7490 C   0  0  0  0  0  0  0  0  0  0  0  0
  141.3750   81.9540  222.6960 C   0  0  0  0  0  0  0  0  0  0  0  0
  141.1390   80.9620  221.7740 C   0  0  0  0  0  0  0  0  0  0  0  0
  141.8090   76.4140  220.8080 C   0  0  0  0  0  0  0  0  0  0  0  0
  141.4320   75.1480  221.1830 C   0  0  0  0  0  0  0  0  0  0  0  0
  141.6058   71.9687  220.3204 H   0  0  0  0  0  0  0  0  0  0  0  0
  142.5897   72.1363  221.8266 H   0  0  0  0  0  0  0  0  0  0  0  0
  139.5154   70.5680  220.6127 H   0  0  0  0  0  0  0  0  0  0  0  0
  138.6802   68.4018  221.5200 H   0  0  0  0  0  0  0  0  0  0  0  0
  138.7274   67.9935  223.9384 H   0  0  0  0  0  0  0  0  0  0  0  0
  141.5209   72.1136  226.1216 H   0  0  0  0  0  0  0  0  0  0  0  0
  140.1483   72.8457  226.7340 H   0  0  0  0  0  0  0  0  0  0  0  0
  142.3334   71.1876  228.2881 H   0  0  0  0  0  0  0  0  0  0  0  0
  141.4924   72.3621  229.0636 H   0  0  0  0  0  0  0  0  0  0  0  0
  140.4859   69.6532  228.7340 H   0  0  0  0  0  0  0  0  0  0  0  0
  139.3022   70.8341  228.8881 H   0  0  0  0  0  0  0  0  0  0  0  0
  140.4155   71.8493  224.5996 H   0  0  0  0  0  0  0  0  0  0  0  0
  138.6157   75.8810  222.9560 H   0  0  0  0  0  0  0  0  0  0  0  0
  139.3343   78.1482  222.2558 H   0  0  0  0  0  0  0  0  0  0  0  0
  142.9746   78.4081  223.0151 H   0  0  0  0  0  0  0  0  0  0  0  0
  143.4500   80.1518  224.7234 H   0  0  0  0  0  0  0  0  0  0  0  0
  142.4290   82.4020  224.5090 H   0  0  0  0  0  0  0  0  0  0  0  0
  140.9200   82.9509  222.6003 H   0  0  0  0  0  0  0  0  0  0  0  0
  140.4783   81.1845  220.9232 H   0  0  0  0  0  0  0  0  0  0  0  0
  142.7140   76.5611  220.2002 H   0  0  0  0  0  0  0  0  0  0  0  0
  1  2  2  0
  2  3  1  0
  3  4  1  0
  4  5  1  0
  5  6  2  0
  6  7  1  0
  7  8  2  0
  8  9  1  0
  9 10  1  0
 10 11  2  0
 10 12  1  0
 12 13  1  0
 13 14  1  0
 14 15  1  0
  9 16  2  0
  4 17  2  0
 17 18  1  0
 18 19  2  0
 19 20  1  0
 20 21  2  0
 21 22  1  0
 22 23  1  0
 23 24  2  0
 24 25  1  0
 25 26  2  0
 26 27  1  0
 27 28  2  0
 21 29  1  0
 29 30  2  0
 30  2  1  0
 16  5  1  0
 30 18  1  0
 15 12  1  0
 28 23  1  0
  3 31  1  0
  3 32  1  0
  6 33  1  0
  7 34  1  0
  8 35  1  0
 13 36  1  0
 13 37  1  0
 14 38  1  0
 14 39  1  0
 15 40  1  0
 15 41  1  0
 16 42  1  0
 19 43  1  0
 20 44  1  0
 24 45  1  0
 25 46  1  0
 26 47  1  0
 27 48  1  0
 28 49  1  0
 29 50  1  0
M  END
>  <smiles>  (10) 
O=C1CC(c2cccc(C(=O)N3CCC3)c2)=Nc2ccc(Oc3ccccc3)cc21

>  <score_type>  (10) 
oracle

>  <origin>  (10) 
autodockgpu

>  <m_score__min__energy>  (10) 
-9.2799999999999994

>  <m_primary>  (10) 
energy

>  <rmsd>  (10) 
6.417702399847042

>  <m_score__min__rmsd>  (10) 
6.417702399847042

>  <meeko>  (10) 
{"free_energy": -9.26, "intermolecular_energy": -10.45, "internal_energy": -1.03, "cluster_size": 48, "cluster_id": 1, "rank_in_cluster": 9}

>  <energy>  (10) 
-9.26

>  <cluster_rmsd>  (10) 
0.08

>  <cluster>  (10) 
1

$$$$

     RDKit          3D

 50 54  0  0  0  0  0  0  0  0999 V2000
  142.9930   74.3880  220.2470 O   0  0  0  0  0  0  0  0  0  0  0  0
  141.9480   74.1350  220.9030 C   0  0  0  0  0  0  0  0  0  0  0  0
  141.5970   72.7450  221.2830 C   0  0  0  0  0  0  0  0  0  0  0  0
  140.3300   72.7120  222.0480 C   0  0  0  0  0  0  0  0  0  0  0  0
  139.8440   71.4110  222.5450 C   0  0  0  0  0  0  0  0  0  0  0  0
  139.2410   70.5210  221.6800 C   0  0  0  0  0  0  0  0  0  0  0  0
  138.8180   69.2900  222.1490 C   0  0  0  0  0  0  0  0  0  0  0  0
  139.0060   68.9730  223.4740 C   0  0  0  0  0  0  0  0  0  0  0  0
  139.6010   69.8270  224.3830 C   0  0  0  0  0  0  0  0  0  0  0  0
  139.8250   69.5470  225.7680 C   0  0  0  0  0  0  0  0  0  0  0  0
  139.6260   68.3460  226.1720 O   0  0  0  0  0  0  0  0  0  0  0  0
  140.2500   70.4640  226.7620 N   0  0  0  0  0  0  0  0  0  0  0  0
  140.6140   71.8650  226.8990 C   0  0  0  0  0  0  0  0  0  0  0  0
  141.3590   71.5360  228.1980 C   0  0  0  0  0  0  0  0  0  0  0  0
  140.4530   70.3570  228.2100 C   0  0  0  0  0  0  0  0  0  0  0  0
  140.0110   71.0520  223.8710 C   0  0  0  0  0  0  0  0  0  0  0  0
  139.6210   73.7360  222.3450 N   0  0  0  0  0  0  0  0  0  0  0  0
  139.9720   75.0520  221.9690 C   0  0  0  0  0  0  0  0  0  0  0  0
  139.1280   76.0710  222.3490 C   0  0  0  0  0  0  0  0  0  0  0  0
  139.4970   77.3490  221.9750 C   0  0  0  0  0  0  0  0  0  0  0  0
  140.6240   77.6370  221.2690 C   0  0  0  0  0  0  0  0  0  0  0  0
  140.8870   78.9540  220.9540 O   0  0  0  0  0  0  0  0  0  0  0  0
  141.3800   79.7860  221.9390 C   0  0  0  0  0  0  0  0  0  0  0  0
  140.7240   80.8840  222.4430 C   0  0  0  0  0  0  0  0  0  0  0  0
  141.3140   81.6460  223.4330 C   0  0  0  0  0  0  0  0  0  0  0  0
  142.5710   81.2930  223.9150 C   0  0  0  0  0  0  0  0  0  0  0  0
  143.2560   80.1950  223.4280 C   0  0  0  0  0  0  0  0  0  0  0  0
  142.6320   79.4660  222.4440 C   0  0  0  0  0  0  0  0  0  0  0  0
  141.4510   76.5850  220.9010 C   0  0  0  0  0  0  0  0  0  0  0  0
  141.1220   75.2980  221.2520 C   0  0  0  0  0  0  0  0  0  0  0  0
  141.4835   72.1399  220.3714 H   0  0  0  0  0  0  0  0  0  0  0  0
  142.4006   72.3392  221.9151 H   0  0  0  0  0  0  0  0  0  0  0  0
  139.0973   70.7889  220.6228 H   0  0  0  0  0  0  0  0  0  0  0  0
  138.3362   68.5721  221.4690 H   0  0  0  0  0  0  0  0  0  0  0  0
  138.6652   67.9890  223.8284 H   0  0  0  0  0  0  0  0  0  0  0  0
  141.2599   72.2433  226.0930 H   0  0  0  0  0  0  0  0  0  0  0  0
  139.8417   72.6481  226.8800 H   0  0  0  0  0  0  0  0  0  0  0  0
  142.4300   71.3110  228.0874 H   0  0  0  0  0  0  0  0  0  0  0  0
  141.4678   72.2367  229.0390 H   0  0  0  0  0  0  0  0  0  0  0  0
  140.9425   69.4229  228.5228 H   0  0  0  0  0  0  0  0  0  0  0  0
  139.5844   70.3412  228.8847 H   0  0  0  0  0  0  0  0  0  0  0  0
  140.4910   71.7703  224.5519 H   0  0  0  0  0  0  0  0  0  0  0  0
  138.2081   75.8780  222.9204 H   0  0  0  0  0  0  0  0  0  0  0  0
  138.8409   78.1829  222.2652 H   0  0  0  0  0  0  0  0  0  0  0  0
  139.7299   81.1557  222.0583 H   0  0  0  0  0  0  0  0  0  0  0  0
  140.7934   82.5264  223.8378 H   0  0  0  0  0  0  0  0  0  0  0  0
  143.0321   81.9041  224.7049 H   0  0  0  0  0  0  0  0  0  0  0  0
  144.2503   79.9189  223.8089 H   0  0  0  0  0  0  0  0  0  0  0  0
  143.1507   78.5856  222.0369 H   0  0  0  0  0  0  0  0  0  0  0  0
  142.3695   76.7815  220.3285 H   0  0  0  0  0  0  0  0  0  0  0  0
  1  2  2  0
  2  3  1  0
  3  4  1  0
  4  5  1  0
  5  6  2  0
  6  7  1  0
  7  8  2  0
  8  9  1  0
  9 10  1  0
 10 11  2  0
 10 12  1  0
 12 13  1  0
 13 14  1  0
 14 15  1  0
  9 16  2  0
  4 17  2  0
 17 18  1  0
 18 19  2  0
 19 20  1  0
 20 21  2  0
 21 22  1  0
 22 23  1  0
 23 24  2  0
 24 25  1  0
 25 26  2  0
 26 27  1  0
 27 28  2  0
 21 29  1  0
 29 30  2  0
 30  2  1  0
 16  5  1  0
 30 18  1  0
 15 12  1  0
 28 23  1  0
  3 31  1  0
  3 32  1  0
  6 33  1  0
  7 34  1  0
  8 35  1  0
 13 36  1  0
 13 37  1  0
 14 38  1  0
 14 39  1  0
 15 40  1  0
 15 41  1  0
 16 42  1  0
 19 43  1  0
 20 44  1  0
 24 45  1  0
 25 46  1  0
 26 47  1  0
 27 48  1  0
 28 49  1  0
 29 50  1  0
M  END
>  <smiles>  (11) 
O=C1CC(c2cccc(C(=O)N3CCC3)c2)=Nc2ccc(Oc3ccccc3)cc21

>  <score_type>  (11) 
oracle

>  <origin>  (11) 
autodockgpu

>  <m_score__min__energy>  (11) 
-9.2799999999999994

>  <m_primary>  (11) 
energy

>  <rmsd>  (11) 
6.408907705927582

>  <m_score__min__rmsd>  (11) 
6.408907705927582

>  <meeko>  (11) 
{"free_energy": -9.06, "intermolecular_energy": -10.26, "internal_energy": -1.04, "cluster_size": 48, "cluster_id": 1, "rank_in_cluster": 39}

>  <energy>  (11) 
-9.26

>  <cluster_rmsd>  (11) 
0.07

>  <cluster>  (11) 
1

$$$$

     RDKit          3D

 50 54  0  0  0  0  0  0  0  0999 V2000
  143.0960   74.0230  220.0270 O   0  0  0  0  0  0  0  0  0  0  0  0
  142.0760   73.8950  220.7550 C   0  0  0  0  0  0  0  0  0  0  0  0
  141.6150   72.5600  221.2060 C   0  0  0  0  0  0  0  0  0  0  0  0
  140.4050   72.6770  222.0490 C   0  0  0  0  0  0  0  0  0  0  0  0
  139.8260   71.4470  222.6220 C   0  0  0  0  0  0  0  0  0  0  0  0
  138.9740   70.6670  221.8670 C   0  0  0  0  0  0  0  0  0  0  0  0
  138.4630   69.4980  222.4020 C   0  0  0  0  0  0  0  0  0  0  0  0
  138.8130   69.1330  223.6820 C   0  0  0  0  0  0  0  0  0  0  0  0
  139.6580   69.8780  224.4810 C   0  0  0  0  0  0  0  0  0  0  0  0
  140.0570   69.5430  225.8130 C   0  0  0  0  0  0  0  0  0  0  0  0
  140.1240   68.3000  226.1200 O   0  0  0  0  0  0  0  0  0  0  0  0
  140.3930   70.4480  226.8520 N   0  0  0  0  0  0  0  0  0  0  0  0
  140.5000   71.8790  227.0880 C   0  0  0  0  0  0  0  0  0  0  0  0
  141.4100   71.6040  228.2910 C   0  0  0  0  0  0  0  0  0  0  0  0
  140.7460   70.2740  228.2640 C   0  0  0  0  0  0  0  0  0  0  0  0
  140.1490   71.0440  223.9050 C   0  0  0  0  0  0  0  0  0  0  0  0
  139.8210   73.7760  222.3520 N   0  0  0  0  0  0  0  0  0  0  0  0
  140.2750   75.0390  221.9080 C   0  0  0  0  0  0  0  0  0  0  0  0
  139.5630   76.1480  222.3040 C   0  0  0  0  0  0  0  0  0  0  0  0
  140.0320   77.3710  221.8620 C   0  0  0  0  0  0  0  0  0  0  0  0
  141.1320   77.5230  221.0770 C   0  0  0  0  0  0  0  0  0  0  0  0
  141.5030   78.7960  220.6980 O   0  0  0  0  0  0  0  0  0  0  0  0
  141.6900   79.7520  221.6770 C   0  0  0  0  0  0  0  0  0  0  0  0
  141.1430   81.0130  221.6610 C   0  0  0  0  0  0  0  0  0  0  0  0
  141.3960   81.8880  222.7000 C   0  0  0  0  0  0  0  0  0  0  0  0
  142.2040   81.4840  223.7580 C   0  0  0  0  0  0  0  0  0  0  0  0
  142.7670   80.2220  223.8040 C   0  0  0  0  0  0  0  0  0  0  0  0
  142.4890   79.3840  222.7490 C   0  0  0  0  0  0  0  0  0  0  0  0
  141.8250   76.3820  220.6960 C   0  0  0  0  0  0  0  0  0  0  0  0
  141.3940   75.1460  221.1130 C   0  0  0  0  0  0  0  0  0  0  0  0
  141.3824   71.9428  220.3256 H   0  0  0  0  0  0  0  0  0  0  0  0
  142.4145   72.0943  221.8010 H   0  0  0  0  0  0  0  0  0  0  0  0
  138.7028   70.9729  220.8458 H   0  0  0  0  0  0  0  0  0  0  0  0
  137.7838   68.8666  221.8103 H   0  0  0  0  0  0  0  0  0  0  0  0
  138.3982   68.1994  224.0899 H   0  0  0  0  0  0  0  0  0  0  0  0
  140.9867   72.4347  226.2729 H   0  0  0  0  0  0  0  0  0  0  0  0
  139.5967   72.4968  227.1994 H   0  0  0  0  0  0  0  0  0  0  0  0
  142.4894   71.6004  228.0791 H   0  0  0  0  0  0  0  0  0  0  0  0
  141.4627   72.2470  229.1819 H   0  0  0  0  0  0  0  0  0  0  0  0
  141.4287   69.4321  228.4514 H   0  0  0  0  0  0  0  0  0  0  0  0
  139.9621   70.0389  228.9990 H   0  0  0  0  0  0  0  0  0  0  0  0
  140.8266   71.6761  224.4977 H   0  0  0  0  0  0  0  0  0  0  0  0
  138.6682   76.0657  222.9385 H   0  0  0  0  0  0  0  0  0  0  0  0
  139.4826   78.2751  222.1632 H   0  0  0  0  0  0  0  0  0  0  0  0
  140.5043   81.3253  220.8216 H   0  0  0  0  0  0  0  0  0  0  0  0
  140.9610   82.8983  222.6907 H   0  0  0  0  0  0  0  0  0  0  0  0
  142.4003   82.1877  224.5803 H   0  0  0  0  0  0  0  0  0  0  0  0
  143.4050   79.9041  224.6418 H   0  0  0  0  0  0  0  0  0  0  0  0
  142.9216   78.3727  222.7561 H   0  0  0  0  0  0  0  0  0  0  0  0
  142.7188   76.4675  220.0605 H   0  0  0  0  0  0  0  0  0  0  0  0
  1  2  2  0
  2  3  1  0
  3  4  1  0
  4  5  1  0
  5  6  2  0
  6  7  1  0
  7  8  2  0
  8  9  1  0
  9 10  1  0
 10 11  2  0
 10 12  1  0
 12 13  1  0
 13 14  1  0
 14 15  1  0
  9 16  2  0
  4 17  2  0
 17 18  1  0
 18 19  2  0
 19 20  1  0
 20 21  2  0
 21 22  1  0
 22 23  1  0
 23 24  2  0
 24 25  1  0
 25 26  2  0
 26 27  1  0
 27 28  2  0
 21 29  1  0
 29 30  2  0
 30  2  1  0
 16  5  1  0
 30 18  1  0
 15 12  1  0
 28 23  1  0
  3 31  1  0
  3 32  1  0
  6 33  1  0
  7 34  1  0
  8 35  1  0
 13 36  1  0
 13 37  1  0
 14 38  1  0
 14 39  1  0
 15 40  1  0
 15 41  1  0
 16 42  1  0
 19 43  1  0
 20 44  1  0
 24 45  1  0
 25 46  1  0
 26 47  1  0
 27 48  1  0
 28 49  1  0
 29 50  1  0
M  END
>  <smiles>  (12) 
O=C1CC(c2cccc(C(=O)N3CCC3)c2)=Nc2ccc(Oc3ccccc3)cc21

>  <score_type>  (12) 
oracle

>  <origin>  (12) 
autodockgpu

>  <m_score__min__energy>  (12) 
-9.2799999999999994

>  <m_primary>  (12) 
energy

>  <rmsd>  (12) 
6.458302972083236

>  <m_score__min__rmsd>  (12) 
6.458302972083236

>  <meeko>  (12) 
{"free_energy": -9.2, "intermolecular_energy": -10.39, "internal_energy": -1.04, "cluster_size": 48, "cluster_id": 1, "rank_in_cluster": 20}

>  <energy>  (12) 
-9.24

>  <cluster_rmsd>  (12) 
0.16

>  <cluster>  (12) 
1

$$$$

     RDKit          3D

 50 54  0  0  0  0  0  0  0  0999 V2000
  143.3140   74.3340  220.2530 O   0  0  0  0  0  0  0  0  0  0  0  0
  142.2220   74.0900  220.8310 C   0  0  0  0  0  0  0  0  0  0  0  0
  141.8510   72.7090  221.2230 C   0  0  0  0  0  0  0  0  0  0  0  0
  140.5280   72.6870  221.8860 C   0  0  0  0  0  0  0  0  0  0  0  0
  140.0120   71.3960  222.3820 C   0  0  0  0  0  0  0  0  0  0  0  0
  139.5890   70.4320  221.4900 C   0  0  0  0  0  0  0  0  0  0  0  0
  139.1380   69.2130  221.9640 C   0  0  0  0  0  0  0  0  0  0  0  0
  139.1180   68.9820  223.3200 C   0  0  0  0  0  0  0  0  0  0  0  0
  139.5280   69.9130  224.2560 C   0  0  0  0  0  0  0  0  0  0  0  0
  139.5320   69.7240  225.6730 C   0  0  0  0  0  0  0  0  0  0  0  0
  139.0100   68.6470  226.1320 O   0  0  0  0  0  0  0  0  0  0  0  0
  140.0580   70.6110  226.6470 N   0  0  0  0  0  0  0  0  0  0  0  0
  140.7300   71.8970  226.7310 C   0  0  0  0  0  0  0  0  0  0  0  0
  141.2350   71.5340  228.1320 C   0  0  0  0  0  0  0  0  0  0  0  0
  140.0780   70.6010  228.1120 C   0  0  0  0  0  0  0  0  0  0  0  0
  139.9730   71.1230  223.7380 C   0  0  0  0  0  0  0  0  0  0  0  0
  139.7910   73.7130  222.0950 N   0  0  0  0  0  0  0  0  0  0  0  0
  140.1620   75.0200  221.7100 C   0  0  0  0  0  0  0  0  0  0  0  0
  139.2840   76.0420  221.9910 C   0  0  0  0  0  0  0  0  0  0  0  0
  139.6740   77.3130  221.6100 C   0  0  0  0  0  0  0  0  0  0  0  0
  140.8510   77.5890  220.9870 C   0  0  0  0  0  0  0  0  0  0  0  0
  141.1300   78.8990  220.6540 O   0  0  0  0  0  0  0  0  0  0  0  0
  141.5250   79.7670  221.6520 C   0  0  0  0  0  0  0  0  0  0  0  0
  141.3610   81.1320  221.6180 C   0  0  0  0  0  0  0  0  0  0  0  0
  141.7930   81.9050  222.6800 C   0  0  0  0  0  0  0  0  0  0  0  0
  142.3910   81.2940  223.7770 C   0  0  0  0  0  0  0  0  0  0  0  0
  142.5690   79.9240  223.8400 C   0  0  0  0  0  0  0  0  0  0  0  0
  142.1250   79.1940  222.7630 C   0  0  0  0  0  0  0  0  0  0  0  0
  141.7110   76.5340  220.7170 C   0  0  0  0  0  0  0  0  0  0  0  0
  141.3630   75.2560  221.0790 C   0  0  0  0  0  0  0  0  0  0  0  0
  141.8140   72.0767  220.3237 H   0  0  0  0  0  0  0  0  0  0  0  0
  142.6046   72.3288  221.9284 H   0  0  0  0  0  0  0  0  0  0  0  0
  139.6103   70.6315  220.4085 H   0  0  0  0  0  0  0  0  0  0  0  0
  138.7986   68.4359  221.2633 H   0  0  0  0  0  0  0  0  0  0  0  0
  138.7572   68.0064  223.6778 H   0  0  0  0  0  0  0  0  0  0  0  0
  141.5282   72.0371  225.9872 H   0  0  0  0  0  0  0  0  0  0  0  0
  140.1734   72.8306  226.5620 H   0  0  0  0  0  0  0  0  0  0  0  0
  142.2270   71.0602  228.1717 H   0  0  0  0  0  0  0  0  0  0  0  0
  141.4193   72.2689  228.9294 H   0  0  0  0  0  0  0  0  0  0  0  0
  140.2950   69.6142  228.5470 H   0  0  0  0  0  0  0  0  0  0  0  0
  139.1651   70.8502  228.6728 H   0  0  0  0  0  0  0  0  0  0  0  0
  140.3103   71.9007  224.4390 H   0  0  0  0  0  0  0  0  0  0  0  0
  138.3224   75.8575  222.4924 H   0  0  0  0  0  0  0  0  0  0  0  0
  138.9924   78.1496  221.8233 H   0  0  0  0  0  0  0  0  0  0  0  0
  140.8868   81.6082  220.7472 H   0  0  0  0  0  0  0  0  0  0  0  0
  141.6644   82.9972  222.6573 H   0  0  0  0  0  0  0  0  0  0  0  0
  142.7315   81.9172  224.6170 H   0  0  0  0  0  0  0  0  0  0  0  0
  143.0422   79.4425  224.7085 H   0  0  0  0  0  0  0  0  0  0  0  0
  142.2520   78.1015  222.7836 H   0  0  0  0  0  0  0  0  0  0  0  0
  142.6708   76.7214  220.2133 H   0  0  0  0  0  0  0  0  0  0  0  0
  1  2  2  0
  2  3  1  0
  3  4  1  0
  4  5  1  0
  5  6  2  0
  6  7  1  0
  7  8  2  0
  8  9  1  0
  9 10  1  0
 10 11  2  0
 10 12  1  0
 12 13  1  0
 13 14  1  0
 14 15  1  0
  9 16  2  0
  4 17  2  0
 17 18  1  0
 18 19  2  0
 19 20  1  0
 20 21  2  0
 21 22  1  0
 22 23  1  0
 23 24  2  0
 24 25  1  0
 25 26  2  0
 26 27  1  0
 27 28  2  0
 21 29  1  0
 29 30  2  0
 30  2  1  0
 16  5  1  0
 30 18  1  0
 15 12  1  0
 28 23  1  0
  3 31  1  0
  3 32  1  0
  6 33  1  0
  7 34  1  0
  8 35  1  0
 13 36  1  0
 13 37  1  0
 14 38  1  0
 14 39  1  0
 15 40  1  0
 15 41  1  0
 16 42  1  0
 19 43  1  0
 20 44  1  0
 24 45  1  0
 25 46  1  0
 26 47  1  0
 27 48  1  0
 28 49  1  0
 29 50  1  0
M  END
>  <smiles>  (13) 
O=C1CC(c2cccc(C(=O)N3CCC3)c2)=Nc2ccc(Oc3ccccc3)cc21

>  <score_type>  (13) 
oracle

>  <origin>  (13) 
autodockgpu

>  <m_score__min__energy>  (13) 
-9.2799999999999994

>  <m_primary>  (13) 
energy

>  <rmsd>  (13) 
6.419006595358446

>  <m_score__min__rmsd>  (13) 
6.419006595358446

>  <meeko>  (13) 
{"free_energy": -9.02, "intermolecular_energy": -10.21, "internal_energy": -1.03, "cluster_size": 48, "cluster_id": 1, "rank_in_cluster": 41}

>  <energy>  (13) 
-9.23

>  <cluster_rmsd>  (13) 
0.12

>  <cluster>  (13) 
1

$$$$

     RDKit          3D

 50 54  0  0  0  0  0  0  0  0999 V2000
  143.0140   74.3120  220.2200 O   0  0  0  0  0  0  0  0  0  0  0  0
  141.9700   74.0320  220.8670 C   0  0  0  0  0  0  0  0  0  0  0  0
  141.6170   72.6280  221.1870 C   0  0  0  0  0  0  0  0  0  0  0  0
  140.3530   72.5640  221.9530 C   0  0  0  0  0  0  0  0  0  0  0  0
  139.8650   71.2430  222.3940 C   0  0  0  0  0  0  0  0  0  0  0  0
  139.4600   70.3090  221.4630 C   0  0  0  0  0  0  0  0  0  0  0  0
  139.0350   69.0620  221.8850 C   0  0  0  0  0  0  0  0  0  0  0  0
  139.0230   68.7730  223.2300 C   0  0  0  0  0  0  0  0  0  0  0  0
  139.4160   69.6720  224.2040 C   0  0  0  0  0  0  0  0  0  0  0  0
  139.4270   69.4230  225.6120 C   0  0  0  0  0  0  0  0  0  0  0  0
  138.9470   68.3080  226.0240 O   0  0  0  0  0  0  0  0  0  0  0  0
  139.9200   70.2870  226.6240 N   0  0  0  0  0  0  0  0  0  0  0  0
  140.5440   71.5920  226.7630 C   0  0  0  0  0  0  0  0  0  0  0  0
  141.0620   71.1890  228.1480 C   0  0  0  0  0  0  0  0  0  0  0  0
  139.9400   70.2140  228.0870 C   0  0  0  0  0  0  0  0  0  0  0  0
  139.8350   70.9120  223.7370 C   0  0  0  0  0  0  0  0  0  0  0  0
  139.6460   73.5750  222.2960 N   0  0  0  0  0  0  0  0  0  0  0  0
  139.9990   74.9060  221.9780 C   0  0  0  0  0  0  0  0  0  0  0  0
  139.1580   75.9090  222.4050 C   0  0  0  0  0  0  0  0  0  0  0  0
  139.5290   77.2020  222.0860 C   0  0  0  0  0  0  0  0  0  0  0  0
  140.6540   77.5180  221.3900 C   0  0  0  0  0  0  0  0  0  0  0  0
  140.9200   78.8470  221.1320 O   0  0  0  0  0  0  0  0  0  0  0  0
  141.4820   79.6170  222.1300 C   0  0  0  0  0  0  0  0  0  0  0  0
  142.8140   79.6110  222.4740 C   0  0  0  0  0  0  0  0  0  0  0  0
  143.2670   80.4290  223.4910 C   0  0  0  0  0  0  0  0  0  0  0  0
  142.3700   81.2550  224.1610 C   0  0  0  0  0  0  0  0  0  0  0  0
  141.0260   81.2840  223.8380 C   0  0  0  0  0  0  0  0  0  0  0  0
  140.6180   80.4550  222.8200 C   0  0  0  0  0  0  0  0  0  0  0  0
  141.4780   76.4810  220.9740 C   0  0  0  0  0  0  0  0  0  0  0  0
  141.1470   75.1810  221.2690 C   0  0  0  0  0  0  0  0  0  0  0  0
  141.4996   72.0635  220.2502 H   0  0  0  0  0  0  0  0  0  0  0  0
  142.4215   72.1935  221.7986 H   0  0  0  0  0  0  0  0  0  0  0  0
  139.4749   70.5545  220.3908 H   0  0  0  0  0  0  0  0  0  0  0  0
  138.7098   68.3088  221.1522 H   0  0  0  0  0  0  0  0  0  0  0  0
  138.6834   67.7758  223.5466 H   0  0  0  0  0  0  0  0  0  0  0  0
  141.3364   71.7927  226.0270 H   0  0  0  0  0  0  0  0  0  0  0  0
  139.9534   72.5108  226.6326 H   0  0  0  0  0  0  0  0  0  0  0  0
  142.0710   70.7515  228.1691 H   0  0  0  0  0  0  0  0  0  0  0  0
  141.2184   71.8960  228.9761 H   0  0  0  0  0  0  0  0  0  0  0  0
  140.1941   69.2182  228.4793 H   0  0  0  0  0  0  0  0  0  0  0  0
  139.0186   70.4037  228.6570 H   0  0  0  0  0  0  0  0  0  0  0  0
  140.1581   71.6660  224.4698 H   0  0  0  0  0  0  0  0  0  0  0  0
  138.2394   75.6929  222.9702 H   0  0  0  0  0  0  0  0  0  0  0  0
  138.8757   78.0238  222.4145 H   0  0  0  0  0  0  0  0  0  0  0  0
  143.5176   78.9556  221.9398 H   0  0  0  0  0  0  0  0  0  0  0  0
  144.3311   80.4273  223.7695 H   0  0  0  0  0  0  0  0  0  0  0  0
  142.7401   81.9025  224.9696 H   0  0  0  0  0  0  0  0  0  0  0  0
  140.3185   81.9377  224.3690 H   0  0  0  0  0  0  0  0  0  0  0  0
  139.5545   80.4562  222.5388 H   0  0  0  0  0  0  0  0  0  0  0  0
  142.3956   76.7004  220.4084 H   0  0  0  0  0  0  0  0  0  0  0  0
  1  2  2  0
  2  3  1  0
  3  4  1  0
  4  5  1  0
  5  6  2  0
  6  7  1  0
  7  8  2  0
  8  9  1  0
  9 10  1  0
 10 11  2  0
 10 12  1  0
 12 13  1  0
 13 14  1  0
 14 15  1  0
  9 16  2  0
  4 17  2  0
 17 18  1  0
 18 19  2  0
 19 20  1  0
 20 21  2  0
 21 22  1  0
 22 23  1  0
 23 24  2  0
 24 25  1  0
 25 26  2  0
 26 27  1  0
 27 28  2  0
 21 29  1  0
 29 30  2  0
 30  2  1  0
 16  5  1  0
 30 18  1  0
 15 12  1  0
 28 23  1  0
  3 31  1  0
  3 32  1  0
  6 33  1  0
  7 34  1  0
  8 35  1  0
 13 36  1  0
 13 37  1  0
 14 38  1  0
 14 39  1  0
 15 40  1  0
 15 41  1  0
 16 42  1  0
 19 43  1  0
 20 44  1  0
 24 45  1  0
 25 46  1  0
 26 47  1  0
 27 48  1  0
 28 49  1  0
 29 50  1  0
M  END
>  <smiles>  (14) 
O=C1CC(c2cccc(C(=O)N3CCC3)c2)=Nc2ccc(Oc3ccccc3)cc21

>  <score_type>  (14) 
oracle

>  <origin>  (14) 
autodockgpu

>  <m_score__min__energy>  (14) 
-9.2799999999999994

>  <m_primary>  (14) 
energy

>  <rmsd>  (14) 
6.341060445661781

>  <m_score__min__rmsd>  (14) 
6.341060445661781

>  <meeko>  (14) 
{"free_energy": -9.12, "intermolecular_energy": -10.31, "internal_energy": -1.03, "cluster_size": 48, "cluster_id": 1, "rank_in_cluster": 36}

>  <energy>  (14) 
-9.23

>  <cluster_rmsd>  (14) 
0.28

>  <cluster>  (14) 
1

$$$$

     RDKit          3D

 50 54  0  0  0  0  0  0  0  0999 V2000
  143.1970   74.0720  220.0490 O   0  0  0  0  0  0  0  0  0  0  0  0
  142.1780   73.8810  220.7650 C   0  0  0  0  0  0  0  0  0  0  0  0
  141.7700   72.5150  221.1740 C   0  0  0  0  0  0  0  0  0  0  0  0
  140.5500   72.5570  222.0090 C   0  0  0  0  0  0  0  0  0  0  0  0
  140.0180   71.2880  222.5410 C   0  0  0  0  0  0  0  0  0  0  0  0
  139.5230   70.3300  221.6810 C   0  0  0  0  0  0  0  0  0  0  0  0
  139.0580   69.1290  222.1880 C   0  0  0  0  0  0  0  0  0  0  0  0
  139.0970   68.9110  223.5460 C   0  0  0  0  0  0  0  0  0  0  0  0
  139.5800   69.8370  224.4510 C   0  0  0  0  0  0  0  0  0  0  0  0
  139.6480   69.6600  225.8690 C   0  0  0  0  0  0  0  0  0  0  0  0
  139.1880   68.5660  226.3550 O   0  0  0  0  0  0  0  0  0  0  0  0
  140.1760   70.5750  226.8150 N   0  0  0  0  0  0  0  0  0  0  0  0
  140.7990   71.8870  226.8640 C   0  0  0  0  0  0  0  0  0  0  0  0
  141.3730   71.5550  228.2460 C   0  0  0  0  0  0  0  0  0  0  0  0
  140.2530   70.5770  228.2790 C   0  0  0  0  0  0  0  0  0  0  0  0
  140.0370   71.0280  223.9000 C   0  0  0  0  0  0  0  0  0  0  0  0
  139.9180   73.6210  222.3370 N   0  0  0  0  0  0  0  0  0  0  0  0
  140.3210   74.9140  221.9330 C   0  0  0  0  0  0  0  0  0  0  0  0
  139.5600   75.9810  222.3540 C   0  0  0  0  0  0  0  0  0  0  0  0
  139.9800   77.2350  221.9500 C   0  0  0  0  0  0  0  0  0  0  0  0
  141.0790   77.4540  221.1800 C   0  0  0  0  0  0  0  0  0  0  0  0
  141.3990   78.7530  220.8410 O   0  0  0  0  0  0  0  0  0  0  0  0
  141.7180   79.6420  221.8480 C   0  0  0  0  0  0  0  0  0  0  0  0
  142.5600   79.3700  222.9000 C   0  0  0  0  0  0  0  0  0  0  0  0
  142.8110   80.3410  223.8510 C   0  0  0  0  0  0  0  0  0  0  0  0
  142.2080   81.5890  223.7350 C   0  0  0  0  0  0  0  0  0  0  0  0
  141.3570   81.8930  222.6890 C   0  0  0  0  0  0  0  0  0  0  0  0
  141.1360   80.8980  221.7650 C   0  0  0  0  0  0  0  0  0  0  0  0
  141.8220   76.3550  220.7740 C   0  0  0  0  0  0  0  0  0  0  0  0
  141.4410   75.0910  221.1520 C   0  0  0  0  0  0  0  0  0  0  0  0
  141.5704   71.9141  220.2745 H   0  0  0  0  0  0  0  0  0  0  0  0
  142.5838   72.0663  221.7626 H   0  0  0  0  0  0  0  0  0  0  0  0
  139.4979   70.5195  220.5977 H   0  0  0  0  0  0  0  0  0  0  0  0
  138.6614   68.3569  221.5124 H   0  0  0  0  0  0  0  0  0  0  0  0
  138.7246   67.9503  223.9311 H   0  0  0  0  0  0  0  0  0  0  0  0
  141.5609   72.0527  226.0881 H   0  0  0  0  0  0  0  0  0  0  0  0
  140.1995   72.7966  226.7114 H   0  0  0  0  0  0  0  0  0  0  0  0
  142.3835   71.1204  228.2489 H   0  0  0  0  0  0  0  0  0  0  0  0
  141.5599   72.3031  229.0305 H   0  0  0  0  0  0  0  0  0  0  0  0
  140.5254   69.6030  228.7116 H   0  0  0  0  0  0  0  0  0  0  0  0
  139.3538   70.7944  228.8742 H   0  0  0  0  0  0  0  0  0  0  0  0
  140.4325   71.8005  224.5759 H   0  0  0  0  0  0  0  0  0  0  0  0
  138.6651   75.8434  222.9787 H   0  0  0  0  0  0  0  0  0  0  0  0
  139.3903   78.1066  222.2704 H   0  0  0  0  0  0  0  0  0  0  0  0
  143.0334   78.3807  222.9848 H   0  0  0  0  0  0  0  0  0  0  0  0
  143.4838   80.1280  224.6948 H   0  0  0  0  0  0  0  0  0  0  0  0
  142.4140   82.3553  224.4968 H   0  0  0  0  0  0  0  0  0  0  0  0
  140.8806   82.8805  222.5999 H   0  0  0  0  0  0  0  0  0  0  0  0
  140.4650   81.1089  220.9192 H   0  0  0  0  0  0  0  0  0  0  0  0
  142.7163   76.4961  220.1493 H   0  0  0  0  0  0  0  0  0  0  0  0
  1  2  2  0
  2  3  1  0
  3  4  1  0
  4  5  1  0
  5  6  2  0
  6  7  1  0
  7  8  2  0
  8  9  1  0
  9 10  1  0
 10 11  2  0
 10 12  1  0
 12 13  1  0
 13 14  1  0
 14 15  1  0
  9 16  2  0
  4 17  2  0
 17 18  1  0
 18 19  2  0
 19 20  1  0
 20 21  2  0
 21 22  1  0
 22 23  1  0
 23 24  2  0
 24 25  1  0
 25 26  2  0
 26 27  1  0
 27 28  2  0
 21 29  1  0
 29 30  2  0
 30  2  1  0
 16  5  1  0
 30 18  1  0
 15 12  1  0
 28 23  1  0
  3 31  1  0
  3 32  1  0
  6 33  1  0
  7 34  1  0
  8 35  1  0
 13 36  1  0
 13 37  1  0
 14 38  1  0
 14 39  1  0
 15 40  1  0
 15 41  1  0
 16 42  1  0
 19 43  1  0
 20 44  1  0
 24 45  1  0
 25 46  1  0
 26 47  1  0
 27 48  1  0
 28 49  1  0
 29 50  1  0
M  END
>  <smiles>  (15) 
O=C1CC(c2cccc(C(=O)N3CCC3)c2)=Nc2ccc(Oc3ccccc3)cc21

>  <score_type>  (15) 
oracle

>  <origin>  (15) 
autodockgpu

>  <m_score__min__energy>  (15) 
-9.2799999999999994

>  <m_primary>  (15) 
energy

>  <rmsd>  (15) 
6.413365080966425

>  <m_score__min__rmsd>  (15) 
6.413365080966425

>  <meeko>  (15) 
{"free_energy": -9.27, "intermolecular_energy": -10.47, "internal_energy": -1.03, "cluster_size": 48, "cluster_id": 1, "rank_in_cluster": 2}

>  <energy>  (15) 
-9.22

>  <cluster_rmsd>  (15) 
0.16

>  <cluster>  (15) 
1

$$$$

     RDKit          3D

 50 54  0  0  0  0  0  0  0  0999 V2000
  142.8230   73.2840  220.2030 O   0  0  0  0  0  0  0  0  0  0  0  0
  141.7620   73.3030  220.8810 C   0  0  0  0  0  0  0  0  0  0  0  0
  141.0950   72.0460  221.3010 C   0  0  0  0  0  0  0  0  0  0  0  0
  139.8750   72.3340  222.0860 C   0  0  0  0  0  0  0  0  0  0  0  0
  139.1000   71.1990  222.6220 C   0  0  0  0  0  0  0  0  0  0  0  0
  137.9200   70.8200  222.0170 C   0  0  0  0  0  0  0  0  0  0  0  0
  137.2180   69.7330  222.5080 C   0  0  0  0  0  0  0  0  0  0  0  0
  137.7100   69.0470  223.5940 C   0  0  0  0  0  0  0  0  0  0  0  0
  138.8850   69.3860  224.2380 C   0  0  0  0  0  0  0  0  0  0  0  0
  139.4430   68.7060  225.3660 C   0  0  0  0  0  0  0  0  0  0  0  0
  139.5390   67.4290  225.3040 O   0  0  0  0  0  0  0  0  0  0  0  0
  139.9110   69.2970  226.5670 N   0  0  0  0  0  0  0  0  0  0  0  0
  140.0570   70.6080  227.1780 C   0  0  0  0  0  0  0  0  0  0  0  0
  141.1060   70.0370  228.1380 C   0  0  0  0  0  0  0  0  0  0  0  0
  140.4350   68.7480  227.8220 C   0  0  0  0  0  0  0  0  0  0  0  0
  139.5580   70.4820  223.7140 C   0  0  0  0  0  0  0  0  0  0  0  0
  139.4390   73.5050  222.3690 N   0  0  0  0  0  0  0  0  0  0  0  0
  140.0880   74.6900  221.9560 C   0  0  0  0  0  0  0  0  0  0  0  0
  139.5220   75.8890  222.3240 C   0  0  0  0  0  0  0  0  0  0  0  0
  140.1800   77.0340  221.9140 C   0  0  0  0  0  0  0  0  0  0  0  0
  141.3270   77.0270  221.1820 C   0  0  0  0  0  0  0  0  0  0  0  0
  141.8930   78.2350  220.8310 O   0  0  0  0  0  0  0  0  0  0  0  0
  141.8090   79.2910  221.7180 C   0  0  0  0  0  0  0  0  0  0  0  0
  141.0500   80.4210  221.5260 C   0  0  0  0  0  0  0  0  0  0  0  0
  141.0390   81.4150  222.4860 C   0  0  0  0  0  0  0  0  0  0  0  0
  141.7990   81.2630  223.6420 C   0  0  0  0  0  0  0  0  0  0  0  0
  142.5720   80.1380  223.8630 C   0  0  0  0  0  0  0  0  0  0  0  0
  142.5530   79.1740  222.8830 C   0  0  0  0  0  0  0  0  0  0  0  0
  141.8690   75.8000  220.8270 C   0  0  0  0  0  0  0  0  0  0  0  0
  141.2480   74.6380  221.2150 C   0  0  0  0  0  0  0  0  0  0  0  0
  140.8199   71.4678  220.4066 H   0  0  0  0  0  0  0  0  0  0  0  0
  141.7909   71.4716  221.9301 H   0  0  0  0  0  0  0  0  0  0  0  0
  137.5390   71.3784  221.1492 H   0  0  0  0  0  0  0  0  0  0  0  0
  136.2756   69.4206  222.0343 H   0  0  0  0  0  0  0  0  0  0  0  0
  137.1392   68.1847  223.9690 H   0  0  0  0  0  0  0  0  0  0  0  0
  140.4433   71.3811  226.4975 H   0  0  0  0  0  0  0  0  0  0  0  0
  139.1785   71.1449  227.5654 H   0  0  0  0  0  0  0  0  0  0  0  0
  142.1510   70.1226  227.8053 H   0  0  0  0  0  0  0  0  0  0  0  0
  141.2723   70.4096  229.1595 H   0  0  0  0  0  0  0  0  0  0  0  0
  141.1301   67.9068  227.6837 H   0  0  0  0  0  0  0  0  0  0  0  0
  139.7466   68.2962  228.5513 H   0  0  0  0  0  0  0  0  0  0  0  0
  140.4994   70.7951  224.1891 H   0  0  0  0  0  0  0  0  0  0  0  0
  138.5945   75.9343  222.9136 H   0  0  0  0  0  0  0  0  0  0  0  0
  139.7513   78.0070  222.1960 H   0  0  0  0  0  0  0  0  0  0  0  0
  140.4523   80.5338  220.6095 H   0  0  0  0  0  0  0  0  0  0  0  0
  140.4331   82.3210  222.3374 H   0  0  0  0  0  0  0  0  0  0  0  0
  141.7843   82.0595  224.4005 H   0  0  0  0  0  0  0  0  0  0  0  0
  143.1722   80.0202  224.7773 H   0  0  0  0  0  0  0  0  0  0  0  0
  143.1567   78.2663  223.0297 H   0  0  0  0  0  0  0  0  0  0  0  0
  142.7953   75.7580  220.2353 H   0  0  0  0  0  0  0  0  0  0  0  0
  1  2  2  0
  2  3  1  0
  3  4  1  0
  4  5  1  0
  5  6  2  0
  6  7  1  0
  7  8  2  0
  8  9  1  0
  9 10  1  0
 10 11  2  0
 10 12  1  0
 12 13  1  0
 13 14  1  0
 14 15  1  0
  9 16  2  0
  4 17  2  0
 17 18  1  0
 18 19  2  0
 19 20  1  0
 20 21  2  0
 21 22  1  0
 22 23  1  0
 23 24  2  0
 24 25  1  0
 25 26  2  0
 26 27  1  0
 27 28  2  0
 21 29  1  0
 29 30  2  0
 30  2  1  0
 16  5  1  0
 30 18  1  0
 15 12  1  0
 28 23  1  0
  3 31  1  0
  3 32  1  0
  6 33  1  0
  7 34  1  0
  8 35  1  0
 13 36  1  0
 13 37  1  0
 14 38  1  0
 14 39  1  0
 15 40  1  0
 15 41  1  0
 16 42  1  0
 19 43  1  0
 20 44  1  0
 24 45  1  0
 25 46  1  0
 26 47  1  0
 27 48  1  0
 28 49  1  0
 29 50  1  0
M  END
>  <smiles>  (16) 
O=C1CC(c2cccc(C(=O)N3CCC3)c2)=Nc2ccc(Oc3ccccc3)cc21

>  <score_type>  (16) 
oracle

>  <origin>  (16) 
autodockgpu

>  <m_score__min__energy>  (16) 
-9.2799999999999994

>  <m_primary>  (16) 
energy

>  <rmsd>  (16) 
6.3032860489250435

>  <m_score__min__rmsd>  (16) 
6.3032860489250435

>  <meeko>  (16) 
{"free_energy": -9.01, "intermolecular_energy": -10.2, "internal_energy": -1.04, "cluster_size": 48, "cluster_id": 1, "rank_in_cluster": 42}

>  <energy>  (16) 
-9.21

>  <cluster_rmsd>  (16) 
0.14

>  <cluster>  (16) 
1

$$$$

     RDKit          3D

 50 54  0  0  0  0  0  0  0  0999 V2000
  143.0930   74.0550  219.8790 O   0  0  0  0  0  0  0  0  0  0  0  0
  142.0980   73.8800  220.6320 C   0  0  0  0  0  0  0  0  0  0  0  0
  141.6720   72.5190  221.0380 C   0  0  0  0  0  0  0  0  0  0  0  0
  140.4860   72.5800  221.9210 C   0  0  0  0  0  0  0  0  0  0  0  0
  139.9440   71.3180  222.4580 C   0  0  0  0  0  0  0  0  0  0  0  0
  139.4620   70.3520  221.5990 C   0  0  0  0  0  0  0  0  0  0  0  0
  138.9860   69.1570  222.1110 C   0  0  0  0  0  0  0  0  0  0  0  0
  139.0010   68.9530  223.4710 C   0  0  0  0  0  0  0  0  0  0  0  0
  139.4700   69.8870  224.3750 C   0  0  0  0  0  0  0  0  0  0  0  0
  139.5120   69.7250  225.7950 C   0  0  0  0  0  0  0  0  0  0  0  0
  138.9710   68.6740  226.2910 O   0  0  0  0  0  0  0  0  0  0  0  0
  140.0970   70.6120  226.7350 N   0  0  0  0  0  0  0  0  0  0  0  0
  140.8130   71.8770  226.7720 C   0  0  0  0  0  0  0  0  0  0  0  0
  141.3490   71.5230  228.1640 C   0  0  0  0  0  0  0  0  0  0  0  0
  140.1620   70.6290  228.1990 C   0  0  0  0  0  0  0  0  0  0  0  0
  139.9390   71.0720  223.8200 C   0  0  0  0  0  0  0  0  0  0  0  0
  139.8960   73.6560  222.2890 N   0  0  0  0  0  0  0  0  0  0  0  0
  140.3170   74.9430  221.8870 C   0  0  0  0  0  0  0  0  0  0  0  0
  139.6000   76.0230  222.3500 C   0  0  0  0  0  0  0  0  0  0  0  0
  140.0360   77.2710  221.9480 C   0  0  0  0  0  0  0  0  0  0  0  0
  141.1090   77.4740  221.1370 C   0  0  0  0  0  0  0  0  0  0  0  0
  141.4490   78.7690  220.8030 O   0  0  0  0  0  0  0  0  0  0  0  0
  141.7470   79.6590  221.8150 C   0  0  0  0  0  0  0  0  0  0  0  0
  142.5370   79.3750  222.9050 C   0  0  0  0  0  0  0  0  0  0  0  0
  142.7710   80.3480  223.8580 C   0  0  0  0  0  0  0  0  0  0  0  0
  142.2050   81.6110  223.7060 C   0  0  0  0  0  0  0  0  0  0  0  0
  141.4080   81.9250  222.6220 C   0  0  0  0  0  0  0  0  0  0  0  0
  141.2010   80.9280  221.6970 C   0  0  0  0  0  0  0  0  0  0  0  0
  141.8070   76.3620  220.6870 C   0  0  0  0  0  0  0  0  0  0  0  0
  141.4090   75.1030  221.0630 C   0  0  0  0  0  0  0  0  0  0  0  0
  141.4225   71.9362  220.1390 H   0  0  0  0  0  0  0  0  0  0  0  0
  142.4963   72.0414  221.5880 H   0  0  0  0  0  0  0  0  0  0  0  0
  139.4559   70.5302  220.5135 H   0  0  0  0  0  0  0  0  0  0  0  0
  138.5996   68.3785  221.4367 H   0  0  0  0  0  0  0  0  0  0  0  0
  138.6200   67.9969  223.8592 H   0  0  0  0  0  0  0  0  0  0  0  0
  141.5917   71.9764  226.0015 H   0  0  0  0  0  0  0  0  0  0  0  0
  140.2826   72.8254  226.6011 H   0  0  0  0  0  0  0  0  0  0  0  0
  142.3255   71.0170  228.1825 H   0  0  0  0  0  0  0  0  0  0  0  0
  141.5821   72.2664  228.9406 H   0  0  0  0  0  0  0  0  0  0  0  0
  140.3600   69.6440  228.6469 H   0  0  0  0  0  0  0  0  0  0  0  0
  139.2758   70.9189  228.7827 H   0  0  0  0  0  0  0  0  0  0  0  0
  140.3242   71.8506  224.4948 H   0  0  0  0  0  0  0  0  0  0  0  0
  138.7256   75.8990  223.0058 H   0  0  0  0  0  0  0  0  0  0  0  0
  139.4828   78.1523  222.3048 H   0  0  0  0  0  0  0  0  0  0  0  0
  142.9816   78.3752  223.0177 H   0  0  0  0  0  0  0  0  0  0  0  0
  143.4010   80.1259  224.7319 H   0  0  0  0  0  0  0  0  0  0  0  0
  142.3975   82.3793  224.4693 H   0  0  0  0  0  0  0  0  0  0  0  0
  140.9610   82.9232  222.5044 H   0  0  0  0  0  0  0  0  0  0  0  0
  140.5721   81.1481  220.8218 H   0  0  0  0  0  0  0  0  0  0  0  0
  142.6792   76.4894  220.0290 H   0  0  0  0  0  0  0  0  0  0  0  0
  1  2  2  0
  2  3  1  0
  3  4  1  0
  4  5  1  0
  5  6  2  0
  6  7  1  0
  7  8  2  0
  8  9  1  0
  9 10  1  0
 10 11  2  0
 10 12  1  0
 12 13  1  0
 13 14  1  0
 14 15  1  0
  9 16  2  0
  4 17  2  0
 17 18  1  0
 18 19  2  0
 19 20  1  0
 20 21  2  0
 21 22  1  0
 22 23  1  0
 23 24  2  0
 24 25  1  0
 25 26  2  0
 26 27  1  0
 27 28  2  0
 21 29  1  0
 29 30  2  0
 30  2  1  0
 16  5  1  0
 30 18  1  0
 15 12  1  0
 28 23  1  0
  3 31  1  0
  3 32  1  0
  6 33  1  0
  7 34  1  0
  8 35  1  0
 13 36  1  0
 13 37  1  0
 14 38  1  0
 14 39  1  0
 15 40  1  0
 15 41  1  0
 16 42  1  0
 19 43  1  0
 20 44  1  0
 24 45  1  0
 25 46  1  0
 26 47  1  0
 27 48  1  0
 28 49  1  0
 29 50  1  0
M  END
>  <smiles>  (17) 
O=C1CC(c2cccc(C(=O)N3CCC3)c2)=Nc2ccc(Oc3ccccc3)cc21

>  <score_type>  (17) 
oracle

>  <origin>  (17) 
autodockgpu

>  <m_score__min__energy>  (17) 
-9.2799999999999994

>  <m_primary>  (17) 
energy

>  <rmsd>  (17) 
6.421321384322799

>  <m_score__min__rmsd>  (17) 
6.421321384322799

>  <meeko>  (17) 
{"free_energy": -9.22, "intermolecular_energy": -10.41, "internal_energy": -1.02, "cluster_size": 48, "cluster_id": 1, "rank_in_cluster": 15}

>  <energy>  (17) 
-9.21

>  <cluster_rmsd>  (17) 
0.14

>  <cluster>  (17) 
1

$$$$

     RDKit          3D

 50 54  0  0  0  0  0  0  0  0999 V2000
  143.2000   73.9980  220.1530 O   0  0  0  0  0  0  0  0  0  0  0  0
  142.1500   73.8350  220.8300 C   0  0  0  0  0  0  0  0  0  0  0  0
  141.7140   72.4850  221.2610 C   0  0  0  0  0  0  0  0  0  0  0  0
  140.4600   72.5600  222.0420 C   0  0  0  0  0  0  0  0  0  0  0  0
  139.8970   71.3110  222.5890 C   0  0  0  0  0  0  0  0  0  0  0  0
  139.2710   70.4100  221.7520 C   0  0  0  0  0  0  0  0  0  0  0  0
  138.7750   69.2260  222.2690 C   0  0  0  0  0  0  0  0  0  0  0  0
  138.9150   68.9670  223.6130 C   0  0  0  0  0  0  0  0  0  0  0  0
  139.5310   69.8340  224.4950 C   0  0  0  0  0  0  0  0  0  0  0  0
  139.7070   69.6130  225.8960 C   0  0  0  0  0  0  0  0  0  0  0  0
  139.3640   68.4700  226.3660 O   0  0  0  0  0  0  0  0  0  0  0  0
  140.2270   70.5320  226.8430 N   0  0  0  0  0  0  0  0  0  0  0  0
  140.7520   71.8860  226.9050 C   0  0  0  0  0  0  0  0  0  0  0  0
  141.4410   71.5500  228.2320 C   0  0  0  0  0  0  0  0  0  0  0  0
  140.4030   70.4880  228.2980 C   0  0  0  0  0  0  0  0  0  0  0  0
  140.0140   71.0110  223.9340 C   0  0  0  0  0  0  0  0  0  0  0  0
  139.8240   73.6380  222.3130 N   0  0  0  0  0  0  0  0  0  0  0  0
  140.2550   74.9150  221.8890 C   0  0  0  0  0  0  0  0  0  0  0  0
  139.4850   75.9990  222.2460 C   0  0  0  0  0  0  0  0  0  0  0  0
  139.9320   77.2380  221.8240 C   0  0  0  0  0  0  0  0  0  0  0  0
  141.0640   77.4270  221.0950 C   0  0  0  0  0  0  0  0  0  0  0  0
  141.4080   78.7130  220.7320 O   0  0  0  0  0  0  0  0  0  0  0  0
  141.6220   79.6480  221.7250 C   0  0  0  0  0  0  0  0  0  0  0  0
  141.2150   80.9610  221.6710 C   0  0  0  0  0  0  0  0  0  0  0  0
  141.4810   81.8090  222.7290 C   0  0  0  0  0  0  0  0  0  0  0  0
  142.1590   81.3260  223.8440 C   0  0  0  0  0  0  0  0  0  0  0  0
  142.5800   80.0120  223.9280 C   0  0  0  0  0  0  0  0  0  0  0  0
  142.2950   79.2030  222.8530 C   0  0  0  0  0  0  0  0  0  0  0  0
  141.8150   76.3110  220.7520 C   0  0  0  0  0  0  0  0  0  0  0  0
  141.4070   75.0610  221.1500 C   0  0  0  0  0  0  0  0  0  0  0  0
  141.5477   71.8592  220.3718 H   0  0  0  0  0  0  0  0  0  0  0  0
  142.4985   72.0484  221.8966 H   0  0  0  0  0  0  0  0  0  0  0  0
  139.1668   70.6317  220.6796 H   0  0  0  0  0  0  0  0  0  0  0  0
  138.2740   68.4995  221.6123 H   0  0  0  0  0  0  0  0  0  0  0  0
  138.5157   68.0203  224.0058 H   0  0  0  0  0  0  0  0  0  0  0  0
  141.4453   72.1378  226.0889 H   0  0  0  0  0  0  0  0  0  0  0  0
  140.0773   72.7514  226.8286 H   0  0  0  0  0  0  0  0  0  0  0  0
  142.4791   71.1952  228.1517 H   0  0  0  0  0  0  0  0  0  0  0  0
  141.6237   72.2819  229.0326 H   0  0  0  0  0  0  0  0  0  0  0  0
  140.7766   69.5233  228.6720 H   0  0  0  0  0  0  0  0  0  0  0  0
  139.5326   70.6137  228.9587 H   0  0  0  0  0  0  0  0  0  0  0  0
  140.5130   71.7383  224.5914 H   0  0  0  0  0  0  0  0  0  0  0  0
  138.5632   75.8857  222.8355 H   0  0  0  0  0  0  0  0  0  0  0  0
  139.3366   78.1226  222.0941 H   0  0  0  0  0  0  0  0  0  0  0  0
  140.6785   81.3353  220.7867 H   0  0  0  0  0  0  0  0  0  0  0  0
  141.1586   82.8600  222.6901 H   0  0  0  0  0  0  0  0  0  0  0  0
  142.3656   82.0085  224.6816 H   0  0  0  0  0  0  0  0  0  0  0  0
  143.1161   79.6325  224.8104 H   0  0  0  0  0  0  0  0  0  0  0  0
  142.6165   78.1517  222.8896 H   0  0  0  0  0  0  0  0  0  0  0  0
  142.7361   76.4275  220.1620 H   0  0  0  0  0  0  0  0  0  0  0  0
  1  2  2  0
  2  3  1  0
  3  4  1  0
  4  5  1  0
  5  6  2  0
  6  7  1  0
  7  8  2  0
  8  9  1  0
  9 10  1  0
 10 11  2  0
 10 12  1  0
 12 13  1  0
 13 14  1  0
 14 15  1  0
  9 16  2  0
  4 17  2  0
 17 18  1  0
 18 19  2  0
 19 20  1  0
 20 21  2  0
 21 22  1  0
 22 23  1  0
 23 24  2  0
 24 25  1  0
 25 26  2  0
 26 27  1  0
 27 28  2  0
 21 29  1  0
 29 30  2  0
 30  2  1  0
 16  5  1  0
 30 18  1  0
 15 12  1  0
 28 23  1  0
  3 31  1  0
  3 32  1  0
  6 33  1  0
  7 34  1  0
  8 35  1  0
 13 36  1  0
 13 37  1  0
 14 38  1  0
 14 39  1  0
 15 40  1  0
 15 41  1  0
 16 42  1  0
 19 43  1  0
 20 44  1  0
 24 45  1  0
 25 46  1  0
 26 47  1  0
 27 48  1  0
 28 49  1  0
 29 50  1  0
M  END
>  <smiles>  (18) 
O=C1CC(c2cccc(C(=O)N3CCC3)c2)=Nc2ccc(Oc3ccccc3)cc21

>  <score_type>  (18) 
oracle

>  <origin>  (18) 
autodockgpu

>  <m_score__min__energy>  (18) 
-9.2799999999999994

>  <m_primary>  (18) 
energy

>  <rmsd>  (18) 
6.396470276461475

>  <m_score__min__rmsd>  (18) 
6.396470276461475

>  <meeko>  (18) 
{"free_energy": -9.21, "intermolecular_energy": -10.4, "internal_energy": -1.02, "cluster_size": 48, "cluster_id": 1, "rank_in_cluster": 17}

>  <energy>  (18) 
-9.2

>  <cluster_rmsd>  (18) 
0.3

>  <cluster>  (18) 
1

$$$$

     RDKit          3D

 50 54  0  0  0  0  0  0  0  0999 V2000
  143.0520   73.9410  219.9890 O   0  0  0  0  0  0  0  0  0  0  0  0
  142.0390   73.8300  220.7290 C   0  0  0  0  0  0  0  0  0  0  0  0
  141.5570   72.5020  221.1790 C   0  0  0  0  0  0  0  0  0  0  0  0
  140.3600   72.6390  222.0370 C   0  0  0  0  0  0  0  0  0  0  0  0
  139.7630   71.4180  222.6110 C   0  0  0  0  0  0  0  0  0  0  0  0
  138.9250   70.6330  221.8470 C   0  0  0  0  0  0  0  0  0  0  0  0
  138.3970   69.4720  222.3840 C   0  0  0  0  0  0  0  0  0  0  0  0
  138.7180   69.1190  223.6750 C   0  0  0  0  0  0  0  0  0  0  0  0
  139.5500   69.8700  224.4840 C   0  0  0  0  0  0  0  0  0  0  0  0
  139.9180   69.5490  225.8270 C   0  0  0  0  0  0  0  0  0  0  0  0
  139.8740   68.3160  226.1780 O   0  0  0  0  0  0  0  0  0  0  0  0
  140.3350   70.4570  226.8340 N   0  0  0  0  0  0  0  0  0  0  0  0
  140.5700   71.8790  227.0200 C   0  0  0  0  0  0  0  0  0  0  0  0
  141.4530   71.5680  228.2330 C   0  0  0  0  0  0  0  0  0  0  0  0
  140.6720   70.3020  228.2520 C   0  0  0  0  0  0  0  0  0  0  0  0
  140.0580   71.0280  223.9060 C   0  0  0  0  0  0  0  0  0  0  0  0
  139.8020   73.7480  222.3530 N   0  0  0  0  0  0  0  0  0  0  0  0
  140.2750   75.0030  221.9090 C   0  0  0  0  0  0  0  0  0  0  0  0
  139.5900   76.1240  222.3190 C   0  0  0  0  0  0  0  0  0  0  0  0
  140.0770   77.3400  221.8770 C   0  0  0  0  0  0  0  0  0  0  0  0
  141.1710   77.4740  221.0790 C   0  0  0  0  0  0  0  0  0  0  0  0
  141.5630   78.7420  220.7020 O   0  0  0  0  0  0  0  0  0  0  0  0
  141.7180   79.7060  221.6780 C   0  0  0  0  0  0  0  0  0  0  0  0
  141.0700   80.9180  221.6980 C   0  0  0  0  0  0  0  0  0  0  0  0
  141.3020   81.8070  222.7310 C   0  0  0  0  0  0  0  0  0  0  0  0
  142.1910   81.4670  223.7450 C   0  0  0  0  0  0  0  0  0  0  0  0
  142.8580   80.2560  223.7530 C   0  0  0  0  0  0  0  0  0  0  0  0
  142.5980   79.4010  222.7070 C   0  0  0  0  0  0  0  0  0  0  0  0
  141.8360   76.3220  220.6850 C   0  0  0  0  0  0  0  0  0  0  0  0
  141.3860   75.0930  221.1010 C   0  0  0  0  0  0  0  0  0  0  0  0
  141.3016   71.8941  220.2986 H   0  0  0  0  0  0  0  0  0  0  0  0
  142.3541   72.0173  221.7618 H   0  0  0  0  0  0  0  0  0  0  0  0
  138.6777   70.9281  220.8166 H   0  0  0  0  0  0  0  0  0  0  0  0
  137.7273   68.8375  221.7849 H   0  0  0  0  0  0  0  0  0  0  0  0
  138.2905   68.1917  224.0840 H   0  0  0  0  0  0  0  0  0  0  0  0
  141.1033   72.3598  226.1866 H   0  0  0  0  0  0  0  0  0  0  0  0
  139.7254   72.5781  227.1082 H   0  0  0  0  0  0  0  0  0  0  0  0
  142.5275   71.4604  228.0235 H   0  0  0  0  0  0  0  0  0  0  0  0
  141.5644   72.2354  229.1003 H   0  0  0  0  0  0  0  0  0  0  0  0
  141.2766   69.4095  228.4707 H   0  0  0  0  0  0  0  0  0  0  0  0
  139.8709   70.1641  228.9931 H   0  0  0  0  0  0  0  0  0  0  0  0
  140.7256   71.6640  224.5059 H   0  0  0  0  0  0  0  0  0  0  0  0
  138.7018   76.0560  222.9644 H   0  0  0  0  0  0  0  0  0  0  0  0
  139.5489   78.2532  222.1888 H   0  0  0  0  0  0  0  0  0  0  0  0
  140.3677   81.1803  220.8930 H   0  0  0  0  0  0  0  0  0  0  0  0
  140.7861   82.7783  222.7508 H   0  0  0  0  0  0  0  0  0  0  0  0
  142.3683   82.1809  224.5628 H   0  0  0  0  0  0  0  0  0  0  0  0
  143.5614   79.9894  224.5556 H   0  0  0  0  0  0  0  0  0  0  0  0
  143.1123   78.4289  222.6852 H   0  0  0  0  0  0  0  0  0  0  0  0
  142.7238   76.3930  220.0394 H   0  0  0  0  0  0  0  0  0  0  0  0
  1  2  2  0
  2  3  1  0
  3  4  1  0
  4  5  1  0
  5  6  2  0
  6  7  1  0
  7  8  2  0
  8  9  1  0
  9 10  1  0
 10 11  2  0
 10 12  1  0
 12 13  1  0
 13 14  1  0
 14 15  1  0
  9 16  2  0
  4 17  2  0
 17 18  1  0
 18 19  2  0
 19 20  1  0
 20 21  2  0
 21 22  1  0
 22 23  1  0
 23 24  2  0
 24 25  1  0
 25 26  2  0
 26 27  1  0
 27 28  2  0
 21 29  1  0
 29 30  2  0
 30  2  1  0
 16  5  1  0
 30 18  1  0
 15 12  1  0
 28 23  1  0
  3 31  1  0
  3 32  1  0
  6 33  1  0
  7 34  1  0
  8 35  1  0
 13 36  1  0
 13 37  1  0
 14 38  1  0
 14 39  1  0
 15 40  1  0
 15 41  1  0
 16 42  1  0
 19 43  1  0
 20 44  1  0
 24 45  1  0
 25 46  1  0
 26 47  1  0
 27 48  1  0
 28 49  1  0
 29 50  1  0
M  END
>  <smiles>  (19) 
O=C1CC(c2cccc(C(=O)N3CCC3)c2)=Nc2ccc(Oc3ccccc3)cc21

>  <score_type>  (19) 
oracle

>  <origin>  (19) 
autodockgpu

>  <m_score__min__energy>  (19) 
-9.2799999999999994

>  <m_primary>  (19) 
energy

>  <rmsd>  (19) 
6.430769444816579

>  <m_score__min__rmsd>  (19) 
6.430769444816579

>  <meeko>  (19) 
{"free_energy": -9.18, "intermolecular_energy": -10.38, "internal_energy": -1.05, "cluster_size": 48, "cluster_id": 1, "rank_in_cluster": 22}

>  <energy>  (19) 
-9.2

>  <cluster_rmsd>  (19) 
0.18

>  <cluster>  (19) 
1

$$$$

     RDKit          3D

 50 54  0  0  0  0  0  0  0  0999 V2000
  143.4010   74.1000  219.7340 O   0  0  0  0  0  0  0  0  0  0  0  0
  142.3790   73.9350  220.4510 C   0  0  0  0  0  0  0  0  0  0  0  0
  141.9320   72.5790  220.8520 C   0  0  0  0  0  0  0  0  0  0  0  0
  140.7160   72.6520  221.6910 C   0  0  0  0  0  0  0  0  0  0  0  0
  140.1480   71.3950  222.2160 C   0  0  0  0  0  0  0  0  0  0  0  0
  139.7010   70.4210  221.3470 C   0  0  0  0  0  0  0  0  0  0  0  0
  139.2020   69.2330  221.8500 C   0  0  0  0  0  0  0  0  0  0  0  0
  139.1590   69.0420  223.2110 C   0  0  0  0  0  0  0  0  0  0  0  0
  139.5900   69.9850  224.1250 C   0  0  0  0  0  0  0  0  0  0  0  0
  139.5720   69.8370  225.5480 C   0  0  0  0  0  0  0  0  0  0  0  0
  138.9500   68.8260  226.0330 O   0  0  0  0  0  0  0  0  0  0  0  0
  140.1760   70.6970  226.4990 N   0  0  0  0  0  0  0  0  0  0  0  0
  140.9660   71.9160  226.5510 C   0  0  0  0  0  0  0  0  0  0  0  0
  141.4300   71.5470  227.9650 C   0  0  0  0  0  0  0  0  0  0  0  0
  140.1900   70.7270  227.9650 C   0  0  0  0  0  0  0  0  0  0  0  0
  140.0850   71.1630  223.5790 C   0  0  0  0  0  0  0  0  0  0  0  0
  140.1170   73.7320  222.0290 N   0  0  0  0  0  0  0  0  0  0  0  0
  140.5580   75.0150  221.6330 C   0  0  0  0  0  0  0  0  0  0  0  0
  139.8300   76.1010  222.0630 C   0  0  0  0  0  0  0  0  0  0  0  0
  140.2860   77.3440  221.6670 C   0  0  0  0  0  0  0  0  0  0  0  0
  141.3890   77.5370  220.8950 C   0  0  0  0  0  0  0  0  0  0  0  0
  141.7460   78.8270  220.5640 O   0  0  0  0  0  0  0  0  0  0  0  0
  141.8500   79.7660  221.5710 C   0  0  0  0  0  0  0  0  0  0  0  0
  141.2810   81.0180  221.5420 C   0  0  0  0  0  0  0  0  0  0  0  0
  141.4490   81.8760  222.6120 C   0  0  0  0  0  0  0  0  0  0  0  0
  142.1940   81.4650  223.7130 C   0  0  0  0  0  0  0  0  0  0  0  0
  142.7770   80.2130  223.7720 C   0  0  0  0  0  0  0  0  0  0  0  0
  142.5850   79.3910  222.6860 C   0  0  0  0  0  0  0  0  0  0  0  0
  142.0980   76.4190  220.4780 C   0  0  0  0  0  0  0  0  0  0  0  0
  141.6800   75.1640  220.8490 C   0  0  0  0  0  0  0  0  0  0  0  0
  141.7121   71.9904  219.9491 H   0  0  0  0  0  0  0  0  0  0  0  0
  142.7337   72.1022  221.4350 H   0  0  0  0  0  0  0  0  0  0  0  0
  139.7412   70.5882  220.2605 H   0  0  0  0  0  0  0  0  0  0  0  0
  138.8430   68.4485  221.1677 H   0  0  0  0  0  0  0  0  0  0  0  0
  138.7612   68.0898  223.5919 H   0  0  0  0  0  0  0  0  0  0  0  0
  141.7763   71.9592  225.8084 H   0  0  0  0  0  0  0  0  0  0  0  0
  140.5005   72.8927  226.3526 H   0  0  0  0  0  0  0  0  0  0  0  0
  142.3726   70.9831  228.0238 H   0  0  0  0  0  0  0  0  0  0  0  0
  141.6804   72.2839  228.7423 H   0  0  0  0  0  0  0  0  0  0  0  0
  140.3115   69.7370  228.4289 H   0  0  0  0  0  0  0  0  0  0  0  0
  139.3029   71.0769  228.5133 H   0  0  0  0  0  0  0  0  0  0  0  0
  140.4434   71.9475  224.2617 H   0  0  0  0  0  0  0  0  0  0  0  0
  138.9327   75.9857  222.6888 H   0  0  0  0  0  0  0  0  0  0  0  0
  139.7233   78.2302  221.9958 H   0  0  0  0  0  0  0  0  0  0  0  0
  140.6931   81.3357  220.6683 H   0  0  0  0  0  0  0  0  0  0  0  0
  140.9963   82.8784  222.5935 H   0  0  0  0  0  0  0  0  0  0  0  0
  142.3226   82.1553  224.5597 H   0  0  0  0  0  0  0  0  0  0  0  0
  143.3650   79.8902  224.6438 H   0  0  0  0  0  0  0  0  0  0  0  0
  143.0361   78.3879  222.7025 H   0  0  0  0  0  0  0  0  0  0  0  0
  142.9939   76.5377  219.8509 H   0  0  0  0  0  0  0  0  0  0  0  0
  1  2  2  0
  2  3  1  0
  3  4  1  0
  4  5  1  0
  5  6  2  0
  6  7  1  0
  7  8  2  0
  8  9  1  0
  9 10  1  0
 10 11  2  0
 10 12  1  0
 12 13  1  0
 13 14  1  0
 14 15  1  0
  9 16  2  0
  4 17  2  0
 17 18  1  0
 18 19  2  0
 19 20  1  0
 20 21  2  0
 21 22  1  0
 22 23  1  0
 23 24  2  0
 24 25  1  0
 25 26  2  0
 26 27  1  0
 27 28  2  0
 21 29  1  0
 29 30  2  0
 30  2  1  0
 16  5  1  0
 30 18  1  0
 15 12  1  0
 28 23  1  0
  3 31  1  0
  3 32  1  0
  6 33  1  0
  7 34  1  0
  8 35  1  0
 13 36  1  0
 13 37  1  0
 14 38  1  0
 14 39  1  0
 15 40  1  0
 15 41  1  0
 16 42  1  0
 19 43  1  0
 20 44  1  0
 24 45  1  0
 25 46  1  0
 26 47  1  0
 27 48  1  0
 28 49  1  0
 29 50  1  0
M  END
>  <smiles>  (20) 
O=C1CC(c2cccc(C(=O)N3CCC3)c2)=Nc2ccc(Oc3ccccc3)cc21

>  <score_type>  (20) 
oracle

>  <origin>  (20) 
autodockgpu

>  <m_score__min__energy>  (20) 
-9.2799999999999994

>  <m_primary>  (20) 
energy

>  <rmsd>  (20) 
6.489120855192126

>  <m_score__min__rmsd>  (20) 
6.489120855192126

>  <meeko>  (20) 
{"free_energy": -9.15, "intermolecular_energy": -10.35, "internal_energy": -1.02, "cluster_size": 48, "cluster_id": 1, "rank_in_cluster": 28}

>  <energy>  (20) 
-9.2

>  <cluster_rmsd>  (20) 
0.25

>  <cluster>  (20) 
1

$$$$

     RDKit          3D

 50 54  0  0  0  0  0  0  0  0999 V2000
  143.3360   74.2170  220.1920 O   0  0  0  0  0  0  0  0  0  0  0  0
  142.2670   73.9990  220.8210 C   0  0  0  0  0  0  0  0  0  0  0  0
  141.8820   72.6270  221.2310 C   0  0  0  0  0  0  0  0  0  0  0  0
  140.5920   72.6360  221.9550 C   0  0  0  0  0  0  0  0  0  0  0  0
  140.0690   71.3580  222.4750 C   0  0  0  0  0  0  0  0  0  0  0  0
  139.5980   70.3970  221.6040 C   0  0  0  0  0  0  0  0  0  0  0  0
  139.1410   69.1890  222.1000 C   0  0  0  0  0  0  0  0  0  0  0  0
  139.1630   68.9660  223.4570 C   0  0  0  0  0  0  0  0  0  0  0  0
  139.6220   69.8930  224.3730 C   0  0  0  0  0  0  0  0  0  0  0  0
  139.6710   69.7120  225.7900 C   0  0  0  0  0  0  0  0  0  0  0  0
  139.1740   68.6310  226.2700 O   0  0  0  0  0  0  0  0  0  0  0  0
  140.2180   70.6080  226.7430 N   0  0  0  0  0  0  0  0  0  0  0  0
  140.8810   71.9010  226.8010 C   0  0  0  0  0  0  0  0  0  0  0  0
  141.4320   71.5490  228.1870 C   0  0  0  0  0  0  0  0  0  0  0  0
  140.2830   70.6050  228.2080 C   0  0  0  0  0  0  0  0  0  0  0  0
  140.0720   71.0920  223.8330 C   0  0  0  0  0  0  0  0  0  0  0  0
  139.8890   73.6790  222.1970 N   0  0  0  0  0  0  0  0  0  0  0  0
  140.2730   74.9770  221.7930 C   0  0  0  0  0  0  0  0  0  0  0  0
  139.4330   76.0200  222.1150 C   0  0  0  0  0  0  0  0  0  0  0  0
  139.8340   77.2810  221.7150 C   0  0  0  0  0  0  0  0  0  0  0  0
  140.9870   77.5300  221.0370 C   0  0  0  0  0  0  0  0  0  0  0  0
  141.2810   78.8320  220.6910 O   0  0  0  0  0  0  0  0  0  0  0  0
  141.5760   79.7350  221.6930 C   0  0  0  0  0  0  0  0  0  0  0  0
  141.2710   81.0760  221.6600 C   0  0  0  0  0  0  0  0  0  0  0  0
  141.6130   81.8870  222.7250 C   0  0  0  0  0  0  0  0  0  0  0  0
  142.2630   81.3390  223.8260 C   0  0  0  0  0  0  0  0  0  0  0  0
  142.5830   79.9950  223.8890 C   0  0  0  0  0  0  0  0  0  0  0  0
  142.2250   79.2250  222.8080 C   0  0  0  0  0  0  0  0  0  0  0  0
  141.8090   76.4550  220.7280 C   0  0  0  0  0  0  0  0  0  0  0  0
  141.4490   75.1850  221.1070 C   0  0  0  0  0  0  0  0  0  0  0  0
  141.7879   71.9961  220.3348 H   0  0  0  0  0  0  0  0  0  0  0  0
  142.6586   72.2288  221.9006 H   0  0  0  0  0  0  0  0  0  0  0  0
  139.5860   70.5903  220.5212 H   0  0  0  0  0  0  0  0  0  0  0  0
  138.7638   68.4146  221.4159 H   0  0  0  0  0  0  0  0  0  0  0  0
  138.7961   67.9994  223.8326 H   0  0  0  0  0  0  0  0  0  0  0  0
  141.6546   72.0449  226.0324 H   0  0  0  0  0  0  0  0  0  0  0  0
  140.3110   72.8288  226.6453 H   0  0  0  0  0  0  0  0  0  0  0  0
  142.4290   71.0843  228.1979 H   0  0  0  0  0  0  0  0  0  0  0  0
  141.6341   72.2896  228.9748 H   0  0  0  0  0  0  0  0  0  0  0  0
  140.5224   69.6224  228.6406 H   0  0  0  0  0  0  0  0  0  0  0  0
  139.3857   70.8483  228.7959 H   0  0  0  0  0  0  0  0  0  0  0  0
  140.4485   71.8663  224.5176 H   0  0  0  0  0  0  0  0  0  0  0  0
  138.4924   75.8580  222.6618 H   0  0  0  0  0  0  0  0  0  0  0  0
  139.1827   78.1331  221.9592 H   0  0  0  0  0  0  0  0  0  0  0  0
  140.7554   81.5021  220.7867 H   0  0  0  0  0  0  0  0  0  0  0  0
  141.3726   82.9602  222.7024 H   0  0  0  0  0  0  0  0  0  0  0  0
  142.5298   81.9925  224.6696 H   0  0  0  0  0  0  0  0  0  0  0  0
  143.0980   79.5639  224.7602 H   0  0  0  0  0  0  0  0  0  0  0  0
  142.4649   78.1517  222.8281 H   0  0  0  0  0  0  0  0  0  0  0  0
  142.7483   76.6202  220.1798 H   0  0  0  0  0  0  0  0  0  0  0  0
  1  2  2  0
  2  3  1  0
  3  4  1  0
  4  5  1  0
  5  6  2  0
  6  7  1  0
  7  8  2  0
  8  9  1  0
  9 10  1  0
 10 11  2  0
 10 12  1  0
 12 13  1  0
 13 14  1  0
 14 15  1  0
  9 16  2  0
  4 17  2  0
 17 18  1  0
 18 19  2  0
 19 20  1  0
 20 21  2  0
 21 22  1  0
 22 23  1  0
 23 24  2  0
 24 25  1  0
 25 26  2  0
 26 27  1  0
 27 28  2  0
 21 29  1  0
 29 30  2  0
 30  2  1  0
 16  5  1  0
 30 18  1  0
 15 12  1  0
 28 23  1  0
  3 31  1  0
  3 32  1  0
  6 33  1  0
  7 34  1  0
  8 35  1  0
 13 36  1  0
 13 37  1  0
 14 38  1  0
 14 39  1  0
 15 40  1  0
 15 41  1  0
 16 42  1  0
 19 43  1  0
 20 44  1  0
 24 45  1  0
 25 46  1  0
 26 47  1  0
 27 48  1  0
 28 49  1  0
 29 50  1  0
M  END
>  <smiles>  (21) 
O=C1CC(c2cccc(C(=O)N3CCC3)c2)=Nc2ccc(Oc3ccccc3)cc21

>  <score_type>  (21) 
oracle

>  <origin>  (21) 
autodockgpu

>  <m_score__min__energy>  (21) 
-9.2799999999999994

>  <m_primary>  (21) 
energy

>  <rmsd>  (21) 
6.438249054243965

>  <m_score__min__rmsd>  (21) 
6.438249054243965

>  <meeko>  (21) 
{"free_energy": -9.13, "intermolecular_energy": -10.32, "internal_energy": -1.03, "cluster_size": 48, "cluster_id": 1, "rank_in_cluster": 35}

>  <energy>  (21) 
-9.2

>  <cluster_rmsd>  (21) 
0.25

>  <cluster>  (21) 
1

$$$$

     RDKit          3D

 50 54  0  0  0  0  0  0  0  0999 V2000
  143.1040   74.1260  219.8250 O   0  0  0  0  0  0  0  0  0  0  0  0
  142.1320   73.9540  220.6070 C   0  0  0  0  0  0  0  0  0  0  0  0
  141.7360   72.5970  221.0550 C   0  0  0  0  0  0  0  0  0  0  0  0
  140.5740   72.6620  221.9680 C   0  0  0  0  0  0  0  0  0  0  0  0
  140.0640   71.4040  222.5470 C   0  0  0  0  0  0  0  0  0  0  0  0
  139.6700   70.3720  221.7200 C   0  0  0  0  0  0  0  0  0  0  0  0
  139.2250   69.1840  222.2730 C   0  0  0  0  0  0  0  0  0  0  0  0
  139.1820   69.0530  223.6410 C   0  0  0  0  0  0  0  0  0  0  0  0
  139.5610   70.0540  224.5140 C   0  0  0  0  0  0  0  0  0  0  0  0
  139.5400   69.9690  225.9420 C   0  0  0  0  0  0  0  0  0  0  0  0
  138.8890   68.9990  226.4710 O   0  0  0  0  0  0  0  0  0  0  0  0
  140.1700   70.8520  226.8550 N   0  0  0  0  0  0  0  0  0  0  0  0
  140.9970   72.0480  226.8540 C   0  0  0  0  0  0  0  0  0  0  0  0
  141.4510   71.7270  228.2820 C   0  0  0  0  0  0  0  0  0  0  0  0
  140.1870   70.9440  228.3180 C   0  0  0  0  0  0  0  0  0  0  0  0
  140.0020   71.2300  223.9180 C   0  0  0  0  0  0  0  0  0  0  0  0
  139.9780   73.7370  222.3280 N   0  0  0  0  0  0  0  0  0  0  0  0
  140.3690   75.0200  221.8860 C   0  0  0  0  0  0  0  0  0  0  0  0
  139.6500   76.1000  222.3460 C   0  0  0  0  0  0  0  0  0  0  0  0
  140.0570   77.3450  221.9040 C   0  0  0  0  0  0  0  0  0  0  0  0
  141.1060   77.5450  221.0610 C   0  0  0  0  0  0  0  0  0  0  0  0
  141.4180   78.8360  220.6890 O   0  0  0  0  0  0  0  0  0  0  0  0
  141.6410   79.7750  221.6770 C   0  0  0  0  0  0  0  0  0  0  0  0
  141.1210   81.0490  221.6840 C   0  0  0  0  0  0  0  0  0  0  0  0
  141.4100   81.9050  222.7300 C   0  0  0  0  0  0  0  0  0  0  0  0
  142.2260   81.4700  223.7700 C   0  0  0  0  0  0  0  0  0  0  0  0
  142.7620   80.1960  223.7910 C   0  0  0  0  0  0  0  0  0  0  0  0
  142.4490   79.3770  222.7310 C   0  0  0  0  0  0  0  0  0  0  0  0
  141.8070   76.4330  220.6170 C   0  0  0  0  0  0  0  0  0  0  0  0
  141.4370   75.1770  221.0310 C   0  0  0  0  0  0  0  0  0  0  0  0
  141.4705   71.9906  220.1764 H   0  0  0  0  0  0  0  0  0  0  0  0
  142.5814   72.1433  221.5930 H   0  0  0  0  0  0  0  0  0  0  0  0
  139.7094   70.4930  220.6274 H   0  0  0  0  0  0  0  0  0  0  0  0
  138.9090   68.3532  221.6249 H   0  0  0  0  0  0  0  0  0  0  0  0
  138.8271   68.1009  224.0624 H   0  0  0  0  0  0  0  0  0  0  0  0
  141.8074   72.0342  226.1103 H   0  0  0  0  0  0  0  0  0  0  0  0
  140.5611   73.0288  226.6132 H   0  0  0  0  0  0  0  0  0  0  0  0
  142.3767   71.1387  228.3652 H   0  0  0  0  0  0  0  0  0  0  0  0
  141.7236   72.4894  229.0267 H   0  0  0  0  0  0  0  0  0  0  0  0
  140.2803   69.9717  228.8238 H   0  0  0  0  0  0  0  0  0  0  0  0
  139.3114   71.3426  228.8514 H   0  0  0  0  0  0  0  0  0  0  0  0
  140.3163   72.0609  224.5668 H   0  0  0  0  0  0  0  0  0  0  0  0
  138.7965   75.9787  223.0293 H   0  0  0  0  0  0  0  0  0  0  0  0
  139.4997   78.2262  222.2547 H   0  0  0  0  0  0  0  0  0  0  0  0
  140.4765   81.3856  220.8586 H   0  0  0  0  0  0  0  0  0  0  0  0
  140.9973   82.9246  222.7403 H   0  0  0  0  0  0  0  0  0  0  0  0
  142.4506   82.1587  224.5978 H   0  0  0  0  0  0  0  0  0  0  0  0
  143.4066   79.8542  224.6142 H   0  0  0  0  0  0  0  0  0  0  0  0
  142.8598   78.3567  222.7191 H   0  0  0  0  0  0  0  0  0  0  0  0
  142.6595   76.5575  219.9331 H   0  0  0  0  0  0  0  0  0  0  0  0
  1  2  2  0
  2  3  1  0
  3  4  1  0
  4  5  1  0
  5  6  2  0
  6  7  1  0
  7  8  2  0
  8  9  1  0
  9 10  1  0
 10 11  2  0
 10 12  1  0
 12 13  1  0
 13 14  1  0
 14 15  1  0
  9 16  2  0
  4 17  2  0
 17 18  1  0
 18 19  2  0
 19 20  1  0
 20 21  2  0
 21 22  1  0
 22 23  1  0
 23 24  2  0
 24 25  1  0
 25 26  2  0
 26 27  1  0
 27 28  2  0
 21 29  1  0
 29 30  2  0
 30  2  1  0
 16  5  1  0
 30 18  1  0
 15 12  1  0
 28 23  1  0
  3 31  1  0
  3 32  1  0
  6 33  1  0
  7 34  1  0
  8 35  1  0
 13 36  1  0
 13 37  1  0
 14 38  1  0
 14 39  1  0
 15 40  1  0
 15 41  1  0
 16 42  1  0
 19 43  1  0
 20 44  1  0
 24 45  1  0
 25 46  1  0
 26 47  1  0
 27 48  1  0
 28 49  1  0
 29 50  1  0
M  END
>  <smiles>  (22) 
O=C1CC(c2cccc(C(=O)N3CCC3)c2)=Nc2ccc(Oc3ccccc3)cc21

>  <score_type>  (22) 
oracle

>  <origin>  (22) 
autodockgpu

>  <m_score__min__energy>  (22) 
-9.2799999999999994

>  <m_primary>  (22) 
energy

>  <rmsd>  (22) 
6.498262070309007

>  <m_score__min__rmsd>  (22) 
6.498262070309007

>  <meeko>  (22) 
{"free_energy": -9.23, "intermolecular_energy": -10.42, "internal_energy": -1.03, "cluster_size": 48, "cluster_id": 1, "rank_in_cluster": 14}

>  <energy>  (22) 
-9.18

>  <cluster_rmsd>  (22) 
0.23

>  <cluster>  (22) 
1

$$$$

     RDKit          3D

 50 54  0  0  0  0  0  0  0  0999 V2000
  143.1630   74.0360  220.0380 O   0  0  0  0  0  0  0  0  0  0  0  0
  142.1420   73.8640  220.7560 C   0  0  0  0  0  0  0  0  0  0  0  0
  141.7130   72.5060  221.1700 C   0  0  0  0  0  0  0  0  0  0  0  0
  140.4950   72.5720  222.0080 C   0  0  0  0  0  0  0  0  0  0  0  0
  139.9440   71.3130  222.5460 C   0  0  0  0  0  0  0  0  0  0  0  0
  139.3820   70.3840  221.6940 C   0  0  0  0  0  0  0  0  0  0  0  0
  138.8990   69.1920  222.2050 C   0  0  0  0  0  0  0  0  0  0  0  0
  138.9860   68.9540  223.5570 C   0  0  0  0  0  0  0  0  0  0  0  0
  139.5360   69.8500  224.4540 C   0  0  0  0  0  0  0  0  0  0  0  0
  139.6550   69.6510  225.8650 C   0  0  0  0  0  0  0  0  0  0  0  0
  139.2490   68.5340  226.3450 O   0  0  0  0  0  0  0  0  0  0  0  0
  140.1810   70.5680  226.8110 N   0  0  0  0  0  0  0  0  0  0  0  0
  140.7600   71.9000  226.8640 C   0  0  0  0  0  0  0  0  0  0  0  0
  141.3880   71.5650  228.2210 C   0  0  0  0  0  0  0  0  0  0  0  0
  140.3050   70.5480  228.2710 C   0  0  0  0  0  0  0  0  0  0  0  0
  140.0090   71.0340  223.8990 C   0  0  0  0  0  0  0  0  0  0  0  0
  139.8820   73.6470  222.3350 N   0  0  0  0  0  0  0  0  0  0  0  0
  140.3060   74.9320  221.9260 C   0  0  0  0  0  0  0  0  0  0  0  0
  139.5630   76.0120  222.3440 C   0  0  0  0  0  0  0  0  0  0  0  0
  140.0030   77.2580  221.9360 C   0  0  0  0  0  0  0  0  0  0  0  0
  141.1030   77.4570  221.1620 C   0  0  0  0  0  0  0  0  0  0  0  0
  141.4440   78.7490  220.8190 O   0  0  0  0  0  0  0  0  0  0  0  0
  141.7490   79.6440  221.8240 C   0  0  0  0  0  0  0  0  0  0  0  0
  142.6000   79.3890  222.8740 C   0  0  0  0  0  0  0  0  0  0  0  0
  142.8340   80.3650  223.8240 C   0  0  0  0  0  0  0  0  0  0  0  0
  142.2060   81.6020  223.7090 C   0  0  0  0  0  0  0  0  0  0  0  0
  141.3470   81.8880  222.6650 C   0  0  0  0  0  0  0  0  0  0  0  0
  141.1420   80.8890  221.7430 C   0  0  0  0  0  0  0  0  0  0  0  0
  141.8280   76.3440  220.7580 C   0  0  0  0  0  0  0  0  0  0  0  0
  141.4260   75.0880  221.1410 C   0  0  0  0  0  0  0  0  0  0  0  0
  141.5014   71.9056  220.2729 H   0  0  0  0  0  0  0  0  0  0  0  0
  142.5206   72.0451  221.7577 H   0  0  0  0  0  0  0  0  0  0  0  0
  139.3184   70.5898  220.6153 H   0  0  0  0  0  0  0  0  0  0  0  0
  138.4501   68.4424  221.5367 H   0  0  0  0  0  0  0  0  0  0  0  0
  138.5975   68.0006  223.9445 H   0  0  0  0  0  0  0  0  0  0  0  0
  141.4910   72.1051  226.0680 H   0  0  0  0  0  0  0  0  0  0  0  0
  140.1253   72.7907  226.7462 H   0  0  0  0  0  0  0  0  0  0  0  0
  142.4126   71.1665  228.1849 H   0  0  0  0  0  0  0  0  0  0  0  0
  141.5732   72.3058  229.0128 H   0  0  0  0  0  0  0  0  0  0  0  0
  140.6250   69.5770  228.6770 H   0  0  0  0  0  0  0  0  0  0  0  0
  139.4183   70.7234  228.8979 H   0  0  0  0  0  0  0  0  0  0  0  0
  140.4561   71.7842  224.5678 H   0  0  0  0  0  0  0  0  0  0  0  0
  138.6664   75.8908  222.9696 H   0  0  0  0  0  0  0  0  0  0  0  0
  139.4292   78.1401  222.2566 H   0  0  0  0  0  0  0  0  0  0  0  0
  143.0937   78.4096  222.9574 H   0  0  0  0  0  0  0  0  0  0  0  0
  143.5127   80.1655  224.6664 H   0  0  0  0  0  0  0  0  0  0  0  0
  142.3987   82.3727  224.4698 H   0  0  0  0  0  0  0  0  0  0  0  0
  140.8519   82.8663  222.5761 H   0  0  0  0  0  0  0  0  0  0  0  0
  140.4636   81.0864  220.8999 H   0  0  0  0  0  0  0  0  0  0  0  0
  142.7237   76.4682  220.1316 H   0  0  0  0  0  0  0  0  0  0  0  0
  1  2  2  0
  2  3  1  0
  3  4  1  0
  4  5  1  0
  5  6  2  0
  6  7  1  0
  7  8  2  0
  8  9  1  0
  9 10  1  0
 10 11  2  0
 10 12  1  0
 12 13  1  0
 13 14  1  0
 14 15  1  0
  9 16  2  0
  4 17  2  0
 17 18  1  0
 18 19  2  0
 19 20  1  0
 20 21  2  0
 21 22  1  0
 22 23  1  0
 23 24  2  0
 24 25  1  0
 25 26  2  0
 26 27  1  0
 27 28  2  0
 21 29  1  0
 29 30  2  0
 30  2  1  0
 16  5  1  0
 30 18  1  0
 15 12  1  0
 28 23  1  0
  3 31  1  0
  3 32  1  0
  6 33  1  0
  7 34  1  0
  8 35  1  0
 13 36  1  0
 13 37  1  0
 14 38  1  0
 14 39  1  0
 15 40  1  0
 15 41  1  0
 16 42  1  0
 19 43  1  0
 20 44  1  0
 24 45  1  0
 25 46  1  0
 26 47  1  0
 27 48  1  0
 28 49  1  0
 29 50  1  0
M  END
>  <smiles>  (23) 
O=C1CC(c2cccc(C(=O)N3CCC3)c2)=Nc2ccc(Oc3ccccc3)cc21

>  <score_type>  (23) 
oracle

>  <origin>  (23) 
autodockgpu

>  <m_score__min__energy>  (23) 
-9.2799999999999994

>  <m_primary>  (23) 
energy

>  <rmsd>  (23) 
6.40658811586501

>  <m_score__min__rmsd>  (23) 
6.40658811586501

>  <meeko>  (23) 
{"free_energy": -9.27, "intermolecular_energy": -10.46, "internal_energy": -1.03, "cluster_size": 48, "cluster_id": 1, "rank_in_cluster": 6}

>  <energy>  (23) 
-9.18

>  <cluster_rmsd>  (23) 
0.17

>  <cluster>  (23) 
1

$$$$

     RDKit          3D

 50 54  0  0  0  0  0  0  0  0999 V2000
  143.0170   74.3160  220.1650 O   0  0  0  0  0  0  0  0  0  0  0  0
  141.9910   74.0570  220.8480 C   0  0  0  0  0  0  0  0  0  0  0  0
  141.6700   72.6690  221.2590 C   0  0  0  0  0  0  0  0  0  0  0  0
  140.4210   72.6290  222.0510 C   0  0  0  0  0  0  0  0  0  0  0  0
  139.9660   71.3290  222.5810 C   0  0  0  0  0  0  0  0  0  0  0  0
  139.5580   70.3350  221.7160 C   0  0  0  0  0  0  0  0  0  0  0  0
  139.1650   69.1080  222.2210 C   0  0  0  0  0  0  0  0  0  0  0  0
  139.1880   68.9000  223.5810 C   0  0  0  0  0  0  0  0  0  0  0  0
  139.5850   69.8620  224.4900 C   0  0  0  0  0  0  0  0  0  0  0  0
  139.6310   69.6980  225.9100 C   0  0  0  0  0  0  0  0  0  0  0  0
  139.1210   68.6300  226.4030 O   0  0  0  0  0  0  0  0  0  0  0  0
  140.1880   70.6000  226.8520 N   0  0  0  0  0  0  0  0  0  0  0  0
  140.8660   71.8850  226.8930 C   0  0  0  0  0  0  0  0  0  0  0  0
  141.4120   71.5450  228.2840 C   0  0  0  0  0  0  0  0  0  0  0  0
  140.2520   70.6150  228.3160 C   0  0  0  0  0  0  0  0  0  0  0  0
  139.9720   71.0790  223.9410 C   0  0  0  0  0  0  0  0  0  0  0  0
  139.7020   73.6470  222.3460 N   0  0  0  0  0  0  0  0  0  0  0  0
  140.0240   74.9620  221.9410 C   0  0  0  0  0  0  0  0  0  0  0  0
  139.1720   75.9730  222.3220 C   0  0  0  0  0  0  0  0  0  0  0  0
  139.5130   77.2510  221.9190 C   0  0  0  0  0  0  0  0  0  0  0  0
  140.6190   77.5440  221.1830 C   0  0  0  0  0  0  0  0  0  0  0  0
  140.8540   78.8590  220.8400 O   0  0  0  0  0  0  0  0  0  0  0  0
  141.3500   79.7180  221.8010 C   0  0  0  0  0  0  0  0  0  0  0  0
  141.2320   81.0880  221.7700 C   0  0  0  0  0  0  0  0  0  0  0  0
  141.7660   81.8490  222.7920 C   0  0  0  0  0  0  0  0  0  0  0  0
  142.4190   81.2220  223.8480 C   0  0  0  0  0  0  0  0  0  0  0  0
  142.5530   79.8470  223.9080 C   0  0  0  0  0  0  0  0  0  0  0  0
  142.0070   79.1280  222.8710 C   0  0  0  0  0  0  0  0  0  0  0  0
  141.4540   76.4990  220.8150 C   0  0  0  0  0  0  0  0  0  0  0  0
  141.1540   75.2140  221.1950 C   0  0  0  0  0  0  0  0  0  0  0  0
  141.5469   72.0466  220.3604 H   0  0  0  0  0  0  0  0  0  0  0  0
  142.4931   72.2871  221.8808 H   0  0  0  0  0  0  0  0  0  0  0  0
  139.5451   70.5166  220.6312 H   0  0  0  0  0  0  0  0  0  0  0  0
  138.8375   68.3070  221.5420 H   0  0  0  0  0  0  0  0  0  0  0  0
  138.8743   67.9177  223.9641 H   0  0  0  0  0  0  0  0  0  0  0  0
  141.6417   72.0093  226.1231 H   0  0  0  0  0  0  0  0  0  0  0  0
  140.3072   72.8174  226.7244 H   0  0  0  0  0  0  0  0  0  0  0  0
  142.4034   71.0688  228.3020 H   0  0  0  0  0  0  0  0  0  0  0  0
  141.6223   72.2934  229.0623 H   0  0  0  0  0  0  0  0  0  0  0  0
  140.4795   69.6353  228.7613 H   0  0  0  0  0  0  0  0  0  0  0  0
  139.3572   70.8764  228.9000 H   0  0  0  0  0  0  0  0  0  0  0  0
  140.2982   71.8805  224.6201 H   0  0  0  0  0  0  0  0  0  0  0  0
  138.2674   75.7750  222.9158 H   0  0  0  0  0  0  0  0  0  0  0  0
  138.8510   78.0796  222.2107 H   0  0  0  0  0  0  0  0  0  0  0  0
  140.7131   81.5772  220.9325 H   0  0  0  0  0  0  0  0  0  0  0  0
  141.6752   82.9450  222.7707 H   0  0  0  0  0  0  0  0  0  0  0  0
  142.8402   81.8365  224.6573 H   0  0  0  0  0  0  0  0  0  0  0  0
  143.0705   79.3531  224.7436 H   0  0  0  0  0  0  0  0  0  0  0  0
  142.0954   78.0317  222.8907 H   0  0  0  0  0  0  0  0  0  0  0  0
  142.3564   76.6998  220.2188 H   0  0  0  0  0  0  0  0  0  0  0  0
  1  2  2  0
  2  3  1  0
  3  4  1  0
  4  5  1  0
  5  6  2  0
  6  7  1  0
  7  8  2  0
  8  9  1  0
  9 10  1  0
 10 11  2  0
 10 12  1  0
 12 13  1  0
 13 14  1  0
 14 15  1  0
  9 16  2  0
  4 17  2  0
 17 18  1  0
 18 19  2  0
 19 20  1  0
 20 21  2  0
 21 22  1  0
 22 23  1  0
 23 24  2  0
 24 25  1  0
 25 26  2  0
 26 27  1  0
 27 28  2  0
 21 29  1  0
 29 30  2  0
 30  2  1  0
 16  5  1  0
 30 18  1  0
 15 12  1  0
 28 23  1  0
  3 31  1  0
  3 32  1  0
  6 33  1  0
  7 34  1  0
  8 35  1  0
 13 36  1  0
 13 37  1  0
 14 38  1  0
 14 39  1  0
 15 40  1  0
 15 41  1  0
 16 42  1  0
 19 43  1  0
 20 44  1  0
 24 45  1  0
 25 46  1  0
 26 47  1  0
 27 48  1  0
 28 49  1  0
 29 50  1  0
M  END
>  <smiles>  (24) 
O=C1CC(c2cccc(C(=O)N3CCC3)c2)=Nc2ccc(Oc3ccccc3)cc21

>  <score_type>  (24) 
oracle

>  <origin>  (24) 
autodockgpu

>  <m_score__min__energy>  (24) 
-9.2799999999999994

>  <m_primary>  (24) 
energy

>  <rmsd>  (24) 
6.433456638362745

>  <m_score__min__rmsd>  (24) 
6.433456638362745

>  <meeko>  (24) 
{"free_energy": -9.17, "intermolecular_energy": -10.36, "internal_energy": -1.02, "cluster_size": 48, "cluster_id": 1, "rank_in_cluster": 26}

>  <energy>  (24) 
-9.17

>  <cluster_rmsd>  (24) 
0.3

>  <cluster>  (24) 
1

$$$$

     RDKit          3D

 50 54  0  0  0  0  0  0  0  0999 V2000
  142.8920   73.5280  220.1870 O   0  0  0  0  0  0  0  0  0  0  0  0
  141.8240   73.4860  220.8540 C   0  0  0  0  0  0  0  0  0  0  0  0
  141.2080   72.1930  221.2380 C   0  0  0  0  0  0  0  0  0  0  0  0
  139.9680   72.4110  222.0160 C   0  0  0  0  0  0  0  0  0  0  0  0
  139.2380   71.2310  222.5190 C   0  0  0  0  0  0  0  0  0  0  0  0
  138.2430   70.6570  221.7560 C   0  0  0  0  0  0  0  0  0  0  0  0
  137.5860   69.5310  222.2210 C   0  0  0  0  0  0  0  0  0  0  0  0
  137.9390   69.0030  223.4410 C   0  0  0  0  0  0  0  0  0  0  0  0
  138.9260   69.5390  224.2470 C   0  0  0  0  0  0  0  0  0  0  0  0
  139.3330   69.0280  225.5180 C   0  0  0  0  0  0  0  0  0  0  0  0
  139.2030   67.7690  225.7240 O   0  0  0  0  0  0  0  0  0  0  0  0
  139.8760   69.7710  226.5980 N   0  0  0  0  0  0  0  0  0  0  0  0
  140.2390   71.1370  226.9350 C   0  0  0  0  0  0  0  0  0  0  0  0
  141.1520   70.6120  228.0480 C   0  0  0  0  0  0  0  0  0  0  0  0
  140.2700   69.4190  227.9650 C   0  0  0  0  0  0  0  0  0  0  0  0
  139.5590   70.6680  223.7410 C   0  0  0  0  0  0  0  0  0  0  0  0
  139.4800   73.5550  222.3210 N   0  0  0  0  0  0  0  0  0  0  0  0
  140.0820   74.7760  221.9410 C   0  0  0  0  0  0  0  0  0  0  0  0
  139.4610   75.9410  222.3300 C   0  0  0  0  0  0  0  0  0  0  0  0
  140.0730   77.1220  221.9520 C   0  0  0  0  0  0  0  0  0  0  0  0
  141.2260   77.1810  221.2330 C   0  0  0  0  0  0  0  0  0  0  0  0
  141.7430   78.4200  220.9150 O   0  0  0  0  0  0  0  0  0  0  0  0
  141.7310   79.4110  221.8760 C   0  0  0  0  0  0  0  0  0  0  0  0
  140.7300   80.3400  222.0360 C   0  0  0  0  0  0  0  0  0  0  0  0
  140.8230   81.2880  223.0380 C   0  0  0  0  0  0  0  0  0  0  0  0
  141.9310   81.2930  223.8800 C   0  0  0  0  0  0  0  0  0  0  0  0
  142.9530   80.3710  223.7440 C   0  0  0  0  0  0  0  0  0  0  0  0
  142.8200   79.4470  222.7350 C   0  0  0  0  0  0  0  0  0  0  0  0
  141.8240   75.9860  220.8570 C   0  0  0  0  0  0  0  0  0  0  0  0
  141.2490   74.7900  221.2120 C   0  0  0  0  0  0  0  0  0  0  0  0
  140.9672   71.6241  220.3279 H   0  0  0  0  0  0  0  0  0  0  0  0
  141.9215   71.6345  221.8617 H   0  0  0  0  0  0  0  0  0  0  0  0
  137.9727   71.0919  220.7825 H   0  0  0  0  0  0  0  0  0  0  0  0
  136.7907   69.0638  221.6217 H   0  0  0  0  0  0  0  0  0  0  0  0
  137.4078   68.1068  223.7941 H   0  0  0  0  0  0  0  0  0  0  0  0
  140.7687   71.6728  226.1335 H   0  0  0  0  0  0  0  0  0  0  0  0
  139.4621   71.8840  227.1549 H   0  0  0  0  0  0  0  0  0  0  0  0
  142.2017   70.4475  227.7634 H   0  0  0  0  0  0  0  0  0  0  0  0
  141.3624   71.1577  228.9796 H   0  0  0  0  0  0  0  0  0  0  0  0
  140.8076   68.4623  228.0406 H   0  0  0  0  0  0  0  0  0  0  0  0
  139.4984   69.2546  228.7316 H   0  0  0  0  0  0  0  0  0  0  0  0
  140.3532   71.1363  224.3409 H   0  0  0  0  0  0  0  0  0  0  0  0
  138.5270   75.9331  222.9110 H   0  0  0  0  0  0  0  0  0  0  0  0
  139.5996   78.0691  222.2502 H   0  0  0  0  0  0  0  0  0  0  0  0
  139.8564   80.3289  221.3677 H   0  0  0  0  0  0  0  0  0  0  0  0
  140.0255   82.0343  223.1690 H   0  0  0  0  0  0  0  0  0  0  0  0
  141.9957   82.0505  224.6750 H   0  0  0  0  0  0  0  0  0  0  0  0
  143.8285   80.3769  224.4100 H   0  0  0  0  0  0  0  0  0  0  0  0
  143.6160   78.6995  222.6021 H   0  0  0  0  0  0  0  0  0  0  0  0
  142.7575   75.9968  220.2753 H   0  0  0  0  0  0  0  0  0  0  0  0
  1  2  2  0
  2  3  1  0
  3  4  1  0
  4  5  1  0
  5  6  2  0
  6  7  1  0
  7  8  2  0
  8  9  1  0
  9 10  1  0
 10 11  2  0
 10 12  1  0
 12 13  1  0
 13 14  1  0
 14 15  1  0
  9 16  2  0
  4 17  2  0
 17 18  1  0
 18 19  2  0
 19 20  1  0
 20 21  2  0
 21 22  1  0
 22 23  1  0
 23 24  2  0
 24 25  1  0
 25 26  2  0
 26 27  1  0
 27 28  2  0
 21 29  1  0
 29 30  2  0
 30  2  1  0
 16  5  1  0
 30 18  1  0
 15 12  1  0
 28 23  1  0
  3 31  1  0
  3 32  1  0
  6 33  1  0
  7 34  1  0
  8 35  1  0
 13 36  1  0
 13 37  1  0
 14 38  1  0
 14 39  1  0
 15 40  1  0
 15 41  1  0
 16 42  1  0
 19 43  1  0
 20 44  1  0
 24 45  1  0
 25 46  1  0
 26 47  1  0
 27 48  1  0
 28 49  1  0
 29 50  1  0
M  END
>  <smiles>  (25) 
O=C1CC(c2cccc(C(=O)N3CCC3)c2)=Nc2ccc(Oc3ccccc3)cc21

>  <score_type>  (25) 
oracle

>  <origin>  (25) 
autodockgpu

>  <m_score__min__energy>  (25) 
-9.2799999999999994

>  <m_primary>  (25) 
energy

>  <rmsd>  (25) 
6.259651271581428

>  <m_score__min__rmsd>  (25) 
6.259651271581428

>  <meeko>  (25) 
{"free_energy": -9.14, "intermolecular_energy": -10.33, "internal_energy": -1.02, "cluster_size": 48, "cluster_id": 1, "rank_in_cluster": 33}

>  <energy>  (25) 
-9.17

>  <cluster_rmsd>  (25) 
0.42

>  <cluster>  (25) 
1

$$$$

     RDKit          3D

 50 54  0  0  0  0  0  0  0  0999 V2000
  143.0300   73.8320  220.2310 O   0  0  0  0  0  0  0  0  0  0  0  0
  141.9720   73.6450  220.8900 C   0  0  0  0  0  0  0  0  0  0  0  0
  141.5360   72.2810  221.2740 C   0  0  0  0  0  0  0  0  0  0  0  0
  140.2720   72.3290  222.0420 C   0  0  0  0  0  0  0  0  0  0  0  0
  139.7060   71.0620  222.5430 C   0  0  0  0  0  0  0  0  0  0  0  0
  139.0700   70.1980  221.6750 C   0  0  0  0  0  0  0  0  0  0  0  0
  138.5710   68.9970  222.1490 C   0  0  0  0  0  0  0  0  0  0  0  0
  138.7190   68.6840  223.4800 C   0  0  0  0  0  0  0  0  0  0  0  0
  139.3450   69.5140  224.3920 C   0  0  0  0  0  0  0  0  0  0  0  0
  139.5290   69.2360  225.7820 C   0  0  0  0  0  0  0  0  0  0  0  0
  139.2770   68.0470  226.1910 O   0  0  0  0  0  0  0  0  0  0  0  0
  139.9670   70.1450  226.7790 N   0  0  0  0  0  0  0  0  0  0  0  0
  140.3800   71.5320  226.9140 C   0  0  0  0  0  0  0  0  0  0  0  0
  141.0840   71.1870  228.2310 C   0  0  0  0  0  0  0  0  0  0  0  0
  140.1360   70.0420  228.2310 C   0  0  0  0  0  0  0  0  0  0  0  0
  139.8300   70.7090  223.8750 C   0  0  0  0  0  0  0  0  0  0  0  0
  139.6290   73.3960  222.3380 N   0  0  0  0  0  0  0  0  0  0  0  0
  140.0610   74.6870  221.9590 C   0  0  0  0  0  0  0  0  0  0  0  0
  139.2840   75.7570  222.3390 C   0  0  0  0  0  0  0  0  0  0  0  0
  139.7320   77.0090  221.9620 C   0  0  0  0  0  0  0  0  0  0  0  0
  140.8720   77.2240  221.2520 C   0  0  0  0  0  0  0  0  0  0  0  0
  141.2170   78.5210  220.9330 O   0  0  0  0  0  0  0  0  0  0  0  0
  141.5730   79.3830  221.9520 C   0  0  0  0  0  0  0  0  0  0  0  0
  142.2320   79.0130  223.1010 C   0  0  0  0  0  0  0  0  0  0  0  0
  142.5420   79.9640  224.0540 C   0  0  0  0  0  0  0  0  0  0  0  0
  142.1840   81.2920  223.8430 C   0  0  0  0  0  0  0  0  0  0  0  0
  141.5210   81.6940  222.6980 C   0  0  0  0  0  0  0  0  0  0  0  0
  141.2330   80.7160  221.7760 C   0  0  0  0  0  0  0  0  0  0  0  0
  141.6300   76.1220  220.8840 C   0  0  0  0  0  0  0  0  0  0  0  0
  141.2220   74.8590  221.2390 C   0  0  0  0  0  0  0  0  0  0  0  0
  141.3824   71.6822  220.3642 H   0  0  0  0  0  0  0  0  0  0  0  0
  142.3144   71.8271  221.9049 H   0  0  0  0  0  0  0  0  0  0  0  0
  138.9603   70.4621  220.6128 H   0  0  0  0  0  0  0  0  0  0  0  0
  138.0611   68.2998  221.4678 H   0  0  0  0  0  0  0  0  0  0  0  0
  138.3188   67.7238  223.8376 H   0  0  0  0  0  0  0  0  0  0  0  0
  141.0568   71.8795  226.1195 H   0  0  0  0  0  0  0  0  0  0  0  0
  139.6378   72.3428  226.8726 H   0  0  0  0  0  0  0  0  0  0  0  0
  142.1484   70.9226  228.1458 H   0  0  0  0  0  0  0  0  0  0  0  0
  141.1998   71.8898  229.0692 H   0  0  0  0  0  0  0  0  0  0  0  0
  140.5847   69.0932  228.5603 H   0  0  0  0  0  0  0  0  0  0  0  0
  139.2533   70.0629  228.8871 H   0  0  0  0  0  0  0  0  0  0  0  0
  140.3366   71.4076  224.5571 H   0  0  0  0  0  0  0  0  0  0  0  0
  138.3551   75.6231  222.9127 H   0  0  0  0  0  0  0  0  0  0  0  0
  139.1311   77.8831  222.2534 H   0  0  0  0  0  0  0  0  0  0  0  0
  142.5119   77.9613  223.2610 H   0  0  0  0  0  0  0  0  0  0  0  0
  143.0690   79.6729  224.9746 H   0  0  0  0  0  0  0  0  0  0  0  0
  142.4351   82.0421  224.6074 H   0  0  0  0  0  0  0  0  0  0  0  0
  141.2381   82.7442  222.5332 H   0  0  0  0  0  0  0  0  0  0  0  0
  140.7074   81.0046  220.8538 H   0  0  0  0  0  0  0  0  0  0  0  0
  142.5572   76.2593  220.3083 H   0  0  0  0  0  0  0  0  0  0  0  0
  1  2  2  0
  2  3  1  0
  3  4  1  0
  4  5  1  0
  5  6  2  0
  6  7  1  0
  7  8  2  0
  8  9  1  0
  9 10  1  0
 10 11  2  0
 10 12  1  0
 12 13  1  0
 13 14  1  0
 14 15  1  0
  9 16  2  0
  4 17  2  0
 17 18  1  0
 18 19  2  0
 19 20  1  0
 20 21  2  0
 21 22  1  0
 22 23  1  0
 23 24  2  0
 24 25  1  0
 25 26  2  0
 26 27  1  0
 27 28  2  0
 21 29  1  0
 29 30  2  0
 30  2  1  0
 16  5  1  0
 30 18  1  0
 15 12  1  0
 28 23  1  0
  3 31  1  0
  3 32  1  0
  6 33  1  0
  7 34  1  0
  8 35  1  0
 13 36  1  0
 13 37  1  0
 14 38  1  0
 14 39  1  0
 15 40  1  0
 15 41  1  0
 16 42  1  0
 19 43  1  0
 20 44  1  0
 24 45  1  0
 25 46  1  0
 26 47  1  0
 27 48  1  0
 28 49  1  0
 29 50  1  0
M  END
>  <smiles>  (26) 
O=C1CC(c2cccc(C(=O)N3CCC3)c2)=Nc2ccc(Oc3ccccc3)cc21

>  <score_type>  (26) 
oracle

>  <origin>  (26) 
autodockgpu

>  <m_score__min__energy>  (26) 
-9.2799999999999994

>  <m_primary>  (26) 
energy

>  <rmsd>  (26) 
6.276539852682037

>  <m_score__min__rmsd>  (26) 
6.276539852682037

>  <meeko>  (26) 
{"free_energy": -9.15, "intermolecular_energy": -10.34, "internal_energy": -1.02, "cluster_size": 48, "cluster_id": 1, "rank_in_cluster": 31}

>  <energy>  (26) 
-9.17

>  <cluster_rmsd>  (26) 
0.32

>  <cluster>  (26) 
1

$$$$

     RDKit          3D

 50 54  0  0  0  0  0  0  0  0999 V2000
  143.2080   74.0740  220.1250 O   0  0  0  0  0  0  0  0  0  0  0  0
  142.1750   73.8860  220.8210 C   0  0  0  0  0  0  0  0  0  0  0  0
  141.7600   72.5210  221.2260 C   0  0  0  0  0  0  0  0  0  0  0  0
  140.5230   72.5660  222.0370 C   0  0  0  0  0  0  0  0  0  0  0  0
  139.9820   71.2980  222.5640 C   0  0  0  0  0  0  0  0  0  0  0  0
  139.4670   70.3540  221.7000 C   0  0  0  0  0  0  0  0  0  0  0  0
  138.9930   69.1540  222.2010 C   0  0  0  0  0  0  0  0  0  0  0  0
  139.0420   68.9240  223.5560 C   0  0  0  0  0  0  0  0  0  0  0  0
  139.5450   69.8350  224.4650 C   0  0  0  0  0  0  0  0  0  0  0  0
  139.6240   69.6450  225.8800 C   0  0  0  0  0  0  0  0  0  0  0  0
  139.1860   68.5380  226.3580 O   0  0  0  0  0  0  0  0  0  0  0  0
  140.1420   70.5590  226.8330 N   0  0  0  0  0  0  0  0  0  0  0  0
  140.7430   71.8810  226.8920 C   0  0  0  0  0  0  0  0  0  0  0  0
  141.3310   71.5460  228.2670 C   0  0  0  0  0  0  0  0  0  0  0  0
  140.2290   70.5480  228.2960 C   0  0  0  0  0  0  0  0  0  0  0  0
  140.0110   71.0260  223.9200 C   0  0  0  0  0  0  0  0  0  0  0  0
  139.8850   73.6310  222.3500 N   0  0  0  0  0  0  0  0  0  0  0  0
  140.2960   74.9220  221.9490 C   0  0  0  0  0  0  0  0  0  0  0  0
  139.5260   75.9900  222.3500 C   0  0  0  0  0  0  0  0  0  0  0  0
  139.9530   77.2430  221.9510 C   0  0  0  0  0  0  0  0  0  0  0  0
  141.0670   77.4600  221.2010 C   0  0  0  0  0  0  0  0  0  0  0  0
  141.3930   78.7570  220.8640 O   0  0  0  0  0  0  0  0  0  0  0  0
  141.7160   79.6440  221.8720 C   0  0  0  0  0  0  0  0  0  0  0  0
  142.5370   79.3590  222.9380 C   0  0  0  0  0  0  0  0  0  0  0  0
  142.7930   80.3290  223.8890 C   0  0  0  0  0  0  0  0  0  0  0  0
  142.2170   81.5890  223.7600 C   0  0  0  0  0  0  0  0  0  0  0  0
  141.3880   81.9050  222.7000 C   0  0  0  0  0  0  0  0  0  0  0  0
  141.1600   80.9110  221.7770 C   0  0  0  0  0  0  0  0  0  0  0  0
  141.8190   76.3600  220.8140 C   0  0  0  0  0  0  0  0  0  0  0  0
  141.4300   75.0970  221.1890 C   0  0  0  0  0  0  0  0  0  0  0  0
  141.5784   71.9171  220.3247 H   0  0  0  0  0  0  0  0  0  0  0  0
  142.5622   72.0740  221.8316 H   0  0  0  0  0  0  0  0  0  0  0  0
  139.4332   70.5538  220.6188 H   0  0  0  0  0  0  0  0  0  0  0  0
  138.5814   68.3923  221.5225 H   0  0  0  0  0  0  0  0  0  0  0  0
  138.6609   67.9647  223.9360 H   0  0  0  0  0  0  0  0  0  0  0  0
  141.4973   72.0675  226.1134 H   0  0  0  0  0  0  0  0  0  0  0  0
  140.1269   72.7815  226.7522 H   0  0  0  0  0  0  0  0  0  0  0  0
  142.3492   71.1297  228.2599 H   0  0  0  0  0  0  0  0  0  0  0  0
  141.5092   72.2894  229.0580 H   0  0  0  0  0  0  0  0  0  0  0  0
  140.5215   69.5747  228.7168 H   0  0  0  0  0  0  0  0  0  0  0  0
  139.3299   70.7437  228.8987 H   0  0  0  0  0  0  0  0  0  0  0  0
  140.4220   71.7877  224.5988 H   0  0  0  0  0  0  0  0  0  0  0  0
  138.6183   75.8538  222.9563 H   0  0  0  0  0  0  0  0  0  0  0  0
  139.3572   78.1153  222.2579 H   0  0  0  0  0  0  0  0  0  0  0  0
  142.9892   78.3608  223.0337 H   0  0  0  0  0  0  0  0  0  0  0  0
  143.4488   80.1059  224.7435 H   0  0  0  0  0  0  0  0  0  0  0  0
  142.4269   82.3541  224.5219 H   0  0  0  0  0  0  0  0  0  0  0  0
  140.9333   82.9016  222.5996 H   0  0  0  0  0  0  0  0  0  0  0  0
  140.5046   81.1318  220.9216 H   0  0  0  0  0  0  0  0  0  0  0  0
  142.7260   76.4992  220.2074 H   0  0  0  0  0  0  0  0  0  0  0  0
  1  2  2  0
  2  3  1  0
  3  4  1  0
  4  5  1  0
  5  6  2  0
  6  7  1  0
  7  8  2  0
  8  9  1  0
  9 10  1  0
 10 11  2  0
 10 12  1  0
 12 13  1  0
 13 14  1  0
 14 15  1  0
  9 16  2  0
  4 17  2  0
 17 18  1  0
 18 19  2  0
 19 20  1  0
 20 21  2  0
 21 22  1  0
 22 23  1  0
 23 24  2  0
 24 25  1  0
 25 26  2  0
 26 27  1  0
 27 28  2  0
 21 29  1  0
 29 30  2  0
 30  2  1  0
 16  5  1  0
 30 18  1  0
 15 12  1  0
 28 23  1  0
  3 31  1  0
  3 32  1  0
  6 33  1  0
  7 34  1  0
  8 35  1  0
 13 36  1  0
 13 37  1  0
 14 38  1  0
 14 39  1  0
 15 40  1  0
 15 41  1  0
 16 42  1  0
 19 43  1  0
 20 44  1  0
 24 45  1  0
 25 46  1  0
 26 47  1  0
 27 48  1  0
 28 49  1  0
 29 50  1  0
M  END
>  <smiles>  (27) 
O=C1CC(c2cccc(C(=O)N3CCC3)c2)=Nc2ccc(Oc3ccccc3)cc21

>  <score_type>  (27) 
oracle

>  <origin>  (27) 
autodockgpu

>  <m_score__min__energy>  (27) 
-9.2799999999999994

>  <m_primary>  (27) 
energy

>  <rmsd>  (27) 
6.4003897125284785

>  <m_score__min__rmsd>  (27) 
6.4003897125284785

>  <meeko>  (27) 
{"free_energy": -9.27, "intermolecular_energy": -10.47, "internal_energy": -1.03, "cluster_size": 48, "cluster_id": 1, "rank_in_cluster": 3}

>  <energy>  (27) 
-9.16

>  <cluster_rmsd>  (27) 
0.23

>  <cluster>  (27) 
1

$$$$

     RDKit          3D

 50 54  0  0  0  0  0  0  0  0999 V2000
  143.2300   74.1190  220.1070 O   0  0  0  0  0  0  0  0  0  0  0  0
  142.2000   73.9230  220.8050 C   0  0  0  0  0  0  0  0  0  0  0  0
  141.7950   72.5560  221.2120 C   0  0  0  0  0  0  0  0  0  0  0  0
  140.5590   72.5920  222.0240 C   0  0  0  0  0  0  0  0  0  0  0  0
  140.0280   71.3210  222.5520 C   0  0  0  0  0  0  0  0  0  0  0  0
  139.5330   70.3660  221.6880 C   0  0  0  0  0  0  0  0  0  0  0  0
  139.0680   69.1630  222.1910 C   0  0  0  0  0  0  0  0  0  0  0  0
  139.1060   68.9410  223.5480 C   0  0  0  0  0  0  0  0  0  0  0  0
  139.5890   69.8630  224.4570 C   0  0  0  0  0  0  0  0  0  0  0  0
  139.6550   69.6820  225.8740 C   0  0  0  0  0  0  0  0  0  0  0  0
  139.2020   68.5830  226.3560 O   0  0  0  0  0  0  0  0  0  0  0  0
  140.1760   70.5970  226.8240 N   0  0  0  0  0  0  0  0  0  0  0  0
  140.7900   71.9130  226.8780 C   0  0  0  0  0  0  0  0  0  0  0  0
  141.3640   71.5810  228.2600 C   0  0  0  0  0  0  0  0  0  0  0  0
  140.2520   70.5950  228.2880 C   0  0  0  0  0  0  0  0  0  0  0  0
  140.0460   71.0560  223.9100 C   0  0  0  0  0  0  0  0  0  0  0  0
  139.9120   73.6530  222.3360 N   0  0  0  0  0  0  0  0  0  0  0  0
  140.3140   74.9460  221.9340 C   0  0  0  0  0  0  0  0  0  0  0  0
  139.5360   76.0090  222.3350 C   0  0  0  0  0  0  0  0  0  0  0  0
  139.9530   77.2640  221.9340 C   0  0  0  0  0  0  0  0  0  0  0  0
  141.0650   77.4900  221.1830 C   0  0  0  0  0  0  0  0  0  0  0  0
  141.3810   78.7890  220.8450 O   0  0  0  0  0  0  0  0  0  0  0  0
  141.7060   79.6770  221.8510 C   0  0  0  0  0  0  0  0  0  0  0  0
  142.5350   79.3950  222.9120 C   0  0  0  0  0  0  0  0  0  0  0  0
  142.7930   80.3660  223.8610 C   0  0  0  0  0  0  0  0  0  0  0  0
  142.2110   81.6230  223.7360 C   0  0  0  0  0  0  0  0  0  0  0  0
  141.3740   81.9360  222.6810 C   0  0  0  0  0  0  0  0  0  0  0  0
  141.1440   80.9420  221.7590 C   0  0  0  0  0  0  0  0  0  0  0  0
  141.8240   76.3950  220.7960 C   0  0  0  0  0  0  0  0  0  0  0  0
  141.4460   75.1290  221.1720 C   0  0  0  0  0  0  0  0  0  0  0  0
  141.6169   71.9499  220.3115 H   0  0  0  0  0  0  0  0  0  0  0  0
  142.6010   72.1161  221.8177 H   0  0  0  0  0  0  0  0  0  0  0  0
  139.5080   70.5594  220.6054 H   0  0  0  0  0  0  0  0  0  0  0  0
  138.6723   68.3928  221.5127 H   0  0  0  0  0  0  0  0  0  0  0  0
  138.7324   67.9793  223.9295 H   0  0  0  0  0  0  0  0  0  0  0  0
  141.5521   72.0862  226.1039 H   0  0  0  0  0  0  0  0  0  0  0  0
  140.1846   72.8189  226.7271 H   0  0  0  0  0  0  0  0  0  0  0  0
  142.3778   71.1541  228.2634 H   0  0  0  0  0  0  0  0  0  0  0  0
  141.5438   72.3280  229.0471 H   0  0  0  0  0  0  0  0  0  0  0  0
  140.5314   69.6216  228.7175 H   0  0  0  0  0  0  0  0  0  0  0  0
  139.3506   70.8039  228.8828 H   0  0  0  0  0  0  0  0  0  0  0  0
  140.4408   71.8262  224.5889 H   0  0  0  0  0  0  0  0  0  0  0  0
  138.6301   75.8667  222.9426 H   0  0  0  0  0  0  0  0  0  0  0  0
  139.3503   78.1318  222.2401 H   0  0  0  0  0  0  0  0  0  0  0  0
  142.9916   78.3986  223.0049 H   0  0  0  0  0  0  0  0  0  0  0  0
  143.4554   80.1458  224.7111 H   0  0  0  0  0  0  0  0  0  0  0  0
  142.4223   82.3887  224.4969 H   0  0  0  0  0  0  0  0  0  0  0  0
  140.9148   82.9308  222.5840 H   0  0  0  0  0  0  0  0  0  0  0  0
  140.4826   81.1604  220.9076 H   0  0  0  0  0  0  0  0  0  0  0  0
  142.7289   76.5407  220.1878 H   0  0  0  0  0  0  0  0  0  0  0  0
  1  2  2  0
  2  3  1  0
  3  4  1  0
  4  5  1  0
  5  6  2  0
  6  7  1  0
  7  8  2  0
  8  9  1  0
  9 10  1  0
 10 11  2  0
 10 12  1  0
 12 13  1  0
 13 14  1  0
 14 15  1  0
  9 16  2  0
  4 17  2  0
 17 18  1  0
 18 19  2  0
 19 20  1  0
 20 21  2  0
 21 22  1  0
 22 23  1  0
 23 24  2  0
 24 25  1  0
 25 26  2  0
 26 27  1  0
 27 28  2  0
 21 29  1  0
 29 30  2  0
 30  2  1  0
 16  5  1  0
 30 18  1  0
 15 12  1  0
 28 23  1  0
  3 31  1  0
  3 32  1  0
  6 33  1  0
  7 34  1  0
  8 35  1  0
 13 36  1  0
 13 37  1  0
 14 38  1  0
 14 39  1  0
 15 40  1  0
 15 41  1  0
 16 42  1  0
 19 43  1  0
 20 44  1  0
 24 45  1  0
 25 46  1  0
 26 47  1  0
 27 48  1  0
 28 49  1  0
 29 50  1  0
M  END
>  <smiles>  (28) 
O=C1CC(c2cccc(C(=O)N3CCC3)c2)=Nc2ccc(Oc3ccccc3)cc21

>  <score_type>  (28) 
oracle

>  <origin>  (28) 
autodockgpu

>  <m_score__min__energy>  (28) 
-9.2799999999999994

>  <m_primary>  (28) 
energy

>  <rmsd>  (28) 
6.41861694797754

>  <m_score__min__rmsd>  (28) 
6.41861694797754

>  <meeko>  (28) 
{"free_energy": -9.27, "intermolecular_energy": -10.46, "internal_energy": -1.03, "cluster_size": 48, "cluster_id": 1, "rank_in_cluster": 4}

>  <energy>  (28) 
-9.15

>  <cluster_rmsd>  (28) 
0.4

>  <cluster>  (28) 
1

$$$$

     RDKit          3D

 50 54  0  0  0  0  0  0  0  0999 V2000
  143.0180   74.1300  219.9980 O   0  0  0  0  0  0  0  0  0  0  0  0
  142.0160   73.8900  220.7220 C   0  0  0  0  0  0  0  0  0  0  0  0
  141.6510   72.5020  221.0960 C   0  0  0  0  0  0  0  0  0  0  0  0
  140.4430   72.4870  221.9490 C   0  0  0  0  0  0  0  0  0  0  0  0
  139.9540   71.1880  222.4520 C   0  0  0  0  0  0  0  0  0  0  0  0
  139.4980   70.2320  221.5670 C   0  0  0  0  0  0  0  0  0  0  0  0
  139.0730   69.0050  222.0460 C   0  0  0  0  0  0  0  0  0  0  0  0
  139.1120   68.7590  223.3990 C   0  0  0  0  0  0  0  0  0  0  0  0
  139.5570   69.6810  224.3270 C   0  0  0  0  0  0  0  0  0  0  0  0
  139.6220   69.4760  225.7410 C   0  0  0  0  0  0  0  0  0  0  0  0
  139.2340   68.3430  226.1970 O   0  0  0  0  0  0  0  0  0  0  0  0
  140.0770   70.4030  226.7130 N   0  0  0  0  0  0  0  0  0  0  0  0
  140.6090   71.7530  226.7990 C   0  0  0  0  0  0  0  0  0  0  0  0
  141.1900   71.4290  228.1800 C   0  0  0  0  0  0  0  0  0  0  0  0
  140.1400   70.3760  228.1770 C   0  0  0  0  0  0  0  0  0  0  0  0
  139.9740   70.9000  223.8050 C   0  0  0  0  0  0  0  0  0  0  0  0
  139.7880   73.5230  222.3190 N   0  0  0  0  0  0  0  0  0  0  0  0
  140.1510   74.8370  221.9490 C   0  0  0  0  0  0  0  0  0  0  0  0
  139.3670   75.8700  222.4120 C   0  0  0  0  0  0  0  0  0  0  0  0
  139.7470   77.1460  222.0410 C   0  0  0  0  0  0  0  0  0  0  0  0
  140.8280   77.4190  221.2610 C   0  0  0  0  0  0  0  0  0  0  0  0
  141.1080   78.7350  220.9570 O   0  0  0  0  0  0  0  0  0  0  0  0
  141.5320   79.5740  221.9680 C   0  0  0  0  0  0  0  0  0  0  0  0
  142.0700   79.1570  223.1630 C   0  0  0  0  0  0  0  0  0  0  0  0
  142.4640   80.0900  224.1040 C   0  0  0  0  0  0  0  0  0  0  0  0
  142.3140   81.4460  223.8330 C   0  0  0  0  0  0  0  0  0  0  0  0
  141.7770   81.8960  222.6410 C   0  0  0  0  0  0  0  0  0  0  0  0
  141.3980   80.9350  221.7330 C   0  0  0  0  0  0  0  0  0  0  0  0
  141.5940   76.3530  220.8110 C   0  0  0  0  0  0  0  0  0  0  0  0
  141.2530   75.0680  221.1560 C   0  0  0  0  0  0  0  0  0  0  0  0
  141.4540   71.9224  220.1820 H   0  0  0  0  0  0  0  0  0  0  0  0
  142.4852   72.0582  221.6592 H   0  0  0  0  0  0  0  0  0  0  0  0
  139.4725   70.4439  220.4879 H   0  0  0  0  0  0  0  0  0  0  0  0
  138.7076   68.2340  221.3517 H   0  0  0  0  0  0  0  0  0  0  0  0
  138.7713   67.7776  223.7608 H   0  0  0  0  0  0  0  0  0  0  0  0
  141.3659   71.9879  226.0361 H   0  0  0  0  0  0  0  0  0  0  0  0
  139.9506   72.6231  226.6598 H   0  0  0  0  0  0  0  0  0  0  0  0
  142.2280   71.0650  228.1854 H   0  0  0  0  0  0  0  0  0  0  0  0
  141.3166   72.1695  228.9835 H   0  0  0  0  0  0  0  0  0  0  0  0
  140.4747   69.4130  228.5900 H   0  0  0  0  0  0  0  0  0  0  0  0
  139.2221   70.5173  228.7666 H   0  0  0  0  0  0  0  0  0  0  0  0
  140.3368   71.6715  224.5001 H   0  0  0  0  0  0  0  0  0  0  0  0
  138.4849   75.6892  223.0438 H   0  0  0  0  0  0  0  0  0  0  0  0
  139.1395   77.9910  222.3974 H   0  0  0  0  0  0  0  0  0  0  0  0
  142.1866   78.0829  223.3697 H   0  0  0  0  0  0  0  0  0  0  0  0
  142.8938   79.7618  225.0619 H   0  0  0  0  0  0  0  0  0  0  0  0
  142.6313   82.1806  224.5878 H   0  0  0  0  0  0  0  0  0  0  0  0
  141.6588   82.9690  222.4295 H   0  0  0  0  0  0  0  0  0  0  0  0
  140.9680   81.2610  220.7744 H   0  0  0  0  0  0  0  0  0  0  0  0
  142.4745   76.5371  220.1779 H   0  0  0  0  0  0  0  0  0  0  0  0
  1  2  2  0
  2  3  1  0
  3  4  1  0
  4  5  1  0
  5  6  2  0
  6  7  1  0
  7  8  2  0
  8  9  1  0
  9 10  1  0
 10 11  2  0
 10 12  1  0
 12 13  1  0
 13 14  1  0
 14 15  1  0
  9 16  2  0
  4 17  2  0
 17 18  1  0
 18 19  2  0
 19 20  1  0
 20 21  2  0
 21 22  1  0
 22 23  1  0
 23 24  2  0
 24 25  1  0
 25 26  2  0
 26 27  1  0
 27 28  2  0
 21 29  1  0
 29 30  2  0
 30  2  1  0
 16  5  1  0
 30 18  1  0
 15 12  1  0
 28 23  1  0
  3 31  1  0
  3 32  1  0
  6 33  1  0
  7 34  1  0
  8 35  1  0
 13 36  1  0
 13 37  1  0
 14 38  1  0
 14 39  1  0
 15 40  1  0
 15 41  1  0
 16 42  1  0
 19 43  1  0
 20 44  1  0
 24 45  1  0
 25 46  1  0
 26 47  1  0
 27 48  1  0
 28 49  1  0
 29 50  1  0
M  END
>  <smiles>  (29) 
O=C1CC(c2cccc(C(=O)N3CCC3)c2)=Nc2ccc(Oc3ccccc3)cc21

>  <score_type>  (29) 
oracle

>  <origin>  (29) 
autodockgpu

>  <m_score__min__energy>  (29) 
-9.2799999999999994

>  <m_primary>  (29) 
energy

>  <rmsd>  (29) 
6.366166829063353

>  <m_score__min__rmsd>  (29) 
6.366166829063353

>  <meeko>  (29) 
{"free_energy": -9.08, "intermolecular_energy": -10.28, "internal_energy": -1.0, "cluster_size": 48, "cluster_id": 1, "rank_in_cluster": 38}

>  <energy>  (29) 
-9.15

>  <cluster_rmsd>  (29) 
0.45

>  <cluster>  (29) 
1

$$$$

     RDKit          3D

 50 54  0  0  0  0  0  0  0  0999 V2000
  143.0480   73.4880  220.7070 O   0  0  0  0  0  0  0  0  0  0  0  0
  141.9140   73.2640  221.2090 C   0  0  0  0  0  0  0  0  0  0  0  0
  141.4900   71.8890  221.5660 C   0  0  0  0  0  0  0  0  0  0  0  0
  140.1250   71.8910  222.1380 C   0  0  0  0  0  0  0  0  0  0  0  0
  139.5510   70.6090  222.5890 C   0  0  0  0  0  0  0  0  0  0  0  0
  138.8680   69.8060  221.7000 C   0  0  0  0  0  0  0  0  0  0  0  0
  138.3620   68.5900  222.1250 C   0  0  0  0  0  0  0  0  0  0  0  0
  138.5480   68.2020  223.4310 C   0  0  0  0  0  0  0  0  0  0  0  0
  139.2220   68.9690  224.3630 C   0  0  0  0  0  0  0  0  0  0  0  0
  139.4470   68.6120  225.7300 C   0  0  0  0  0  0  0  0  0  0  0  0
  139.1990   67.4040  226.0790 O   0  0  0  0  0  0  0  0  0  0  0  0
  139.9240   69.4610  226.7620 N   0  0  0  0  0  0  0  0  0  0  0  0
  140.3520   70.8360  226.9610 C   0  0  0  0  0  0  0  0  0  0  0  0
  141.0950   70.4120  228.2330 C   0  0  0  0  0  0  0  0  0  0  0  0
  140.1380   69.2750  228.2000 C   0  0  0  0  0  0  0  0  0  0  0  0
  139.7140   70.1810  223.8950 C   0  0  0  0  0  0  0  0  0  0  0  0
  139.3960   72.9310  222.3030 N   0  0  0  0  0  0  0  0  0  0  0  0
  139.8190   74.2320  221.9510 C   0  0  0  0  0  0  0  0  0  0  0  0
  138.9450   75.2700  222.1800 C   0  0  0  0  0  0  0  0  0  0  0  0
  139.3850   76.5340  221.8330 C   0  0  0  0  0  0  0  0  0  0  0  0
  140.6070   76.7900  221.2930 C   0  0  0  0  0  0  0  0  0  0  0  0
  140.9340   78.0950  220.9880 O   0  0  0  0  0  0  0  0  0  0  0  0
  141.4450   78.9010  221.9860 C   0  0  0  0  0  0  0  0  0  0  0  0
  141.6290   78.5150  223.2930 C   0  0  0  0  0  0  0  0  0  0  0  0
  142.1530   79.4090  224.2080 C   0  0  0  0  0  0  0  0  0  0  0  0
  142.4910   80.6940  223.7980 C   0  0  0  0  0  0  0  0  0  0  0  0
  142.3190   81.1110  222.4910 C   0  0  0  0  0  0  0  0  0  0  0  0
  141.7950   80.1910  221.6140 C   0  0  0  0  0  0  0  0  0  0  0  0
  141.4620   75.7190  221.0750 C   0  0  0  0  0  0  0  0  0  0  0  0
  141.0650   74.4460  221.4050 C   0  0  0  0  0  0  0  0  0  0  0  0
  141.5012   71.2622  220.6621 H   0  0  0  0  0  0  0  0  0  0  0  0
  142.1865   71.4897  222.3180 H   0  0  0  0  0  0  0  0  0  0  0  0
  138.7261   70.1303  220.6585 H   0  0  0  0  0  0  0  0  0  0  0  0
  137.8164   67.9402  221.4249 H   0  0  0  0  0  0  0  0  0  0  0  0
  138.1397   67.2318  223.7505 H   0  0  0  0  0  0  0  0  0  0  0  0
  141.0057   71.2237  226.1658 H   0  0  0  0  0  0  0  0  0  0  0  0
  139.6156   71.6526  226.9892 H   0  0  0  0  0  0  0  0  0  0  0  0
  142.1538   70.1458  228.0983 H   0  0  0  0  0  0  0  0  0  0  0  0
  141.2436   71.0656  229.1052 H   0  0  0  0  0  0  0  0  0  0  0  0
  140.5890   68.3062  228.4610 H   0  0  0  0  0  0  0  0  0  0  0  0
  139.2770   69.2645  228.8845 H   0  0  0  0  0  0  0  0  0  0  0  0
  140.2588   70.8311  224.5954 H   0  0  0  0  0  0  0  0  0  0  0  0
  137.9490   75.1029  222.6160 H   0  0  0  0  0  0  0  0  0  0  0  0
  138.7066   77.3829  222.0037 H   0  0  0  0  0  0  0  0  0  0  0  0
  141.3597   77.4966  223.6098 H   0  0  0  0  0  0  0  0  0  0  0  0
  142.3018   79.1055  225.2548 H   0  0  0  0  0  0  0  0  0  0  0  0
  142.9067   81.3982  224.5338 H   0  0  0  0  0  0  0  0  0  0  0  0
  142.5879   82.1279  222.1690 H   0  0  0  0  0  0  0  0  0  0  0  0
  141.6460   80.4923  220.5666 H   0  0  0  0  0  0  0  0  0  0  0  0
  142.4571   75.8893  220.6382 H   0  0  0  0  0  0  0  0  0  0  0  0
  1  2  2  0
  2  3  1  0
  3  4  1  0
  4  5  1  0
  5  6  2  0
  6  7  1  0
  7  8  2  0
  8  9  1  0
  9 10  1  0
 10 11  2  0
 10 12  1  0
 12 13  1  0
 13 14  1  0
 14 15  1  0
  9 16  2  0
  4 17  2  0
 17 18  1  0
 18 19  2  0
 19 20  1  0
 20 21  2  0
 21 22  1  0
 22 23  1  0
 23 24  2  0
 24 25  1  0
 25 26  2  0
 26 27  1  0
 27 28  2  0
 21 29  1  0
 29 30  2  0
 30  2  1  0
 16  5  1  0
 30 18  1  0
 15 12  1  0
 28 23  1  0
  3 31  1  0
  3 32  1  0
  6 33  1  0
  7 34  1  0
  8 35  1  0
 13 36  1  0
 13 37  1  0
 14 38  1  0
 14 39  1  0
 15 40  1  0
 15 41  1  0
 16 42  1  0
 19 43  1  0
 20 44  1  0
 24 45  1  0
 25 46  1  0
 26 47  1  0
 27 48  1  0
 28 49  1  0
 29 50  1  0
M  END
>  <smiles>  (30) 
O=C1CC(c2cccc(C(=O)N3CCC3)c2)=Nc2ccc(Oc3ccccc3)cc21

>  <score_type>  (30) 
oracle

>  <origin>  (30) 
autodockgpu

>  <m_score__min__energy>  (30) 
-9.2799999999999994

>  <m_primary>  (30) 
energy

>  <rmsd>  (30) 
6.155231101131128

>  <m_score__min__rmsd>  (30) 
6.155231101131128

>  <meeko>  (30) 
{"free_energy": -8.97, "intermolecular_energy": -10.16, "internal_energy": -1.02, "cluster_size": 48, "cluster_id": 1, "rank_in_cluster": 44}

>  <energy>  (30) 
-9.15

>  <cluster_rmsd>  (30) 
0.53

>  <cluster>  (30) 
1

$$$$

     RDKit          3D

 50 54  0  0  0  0  0  0  0  0999 V2000
  143.1830   73.9980  220.1710 O   0  0  0  0  0  0  0  0  0  0  0  0
  142.1370   73.8370  220.8540 C   0  0  0  0  0  0  0  0  0  0  0  0
  141.6980   72.4860  221.2810 C   0  0  0  0  0  0  0  0  0  0  0  0
  140.4480   72.5630  222.0700 C   0  0  0  0  0  0  0  0  0  0  0  0
  139.8830   71.3140  222.6140 C   0  0  0  0  0  0  0  0  0  0  0  0
  139.2630   70.4120  221.7740 C   0  0  0  0  0  0  0  0  0  0  0  0
  138.7650   69.2280  222.2890 C   0  0  0  0  0  0  0  0  0  0  0  0
  138.8970   68.9700  223.6330 C   0  0  0  0  0  0  0  0  0  0  0  0
  139.5060   69.8390  224.5190 C   0  0  0  0  0  0  0  0  0  0  0  0
  139.6730   69.6190  225.9220 C   0  0  0  0  0  0  0  0  0  0  0  0
  139.3360   68.4730  226.3890 O   0  0  0  0  0  0  0  0  0  0  0  0
  140.1810   70.5410  226.8720 N   0  0  0  0  0  0  0  0  0  0  0  0
  140.6960   71.8990  226.9370 C   0  0  0  0  0  0  0  0  0  0  0  0
  141.3770   71.5680  228.2700 C   0  0  0  0  0  0  0  0  0  0  0  0
  140.3460   70.4990  228.3280 C   0  0  0  0  0  0  0  0  0  0  0  0
  139.9920   71.0150  223.9600 C   0  0  0  0  0  0  0  0  0  0  0  0
  139.8180   73.6430  222.3490 N   0  0  0  0  0  0  0  0  0  0  0  0
  140.2520   74.9200  221.9290 C   0  0  0  0  0  0  0  0  0  0  0  0
  139.4890   76.0050  222.2950 C   0  0  0  0  0  0  0  0  0  0  0  0
  139.9390   77.2440  221.8770 C   0  0  0  0  0  0  0  0  0  0  0  0
  141.0680   77.4320  221.1410 C   0  0  0  0  0  0  0  0  0  0  0  0
  141.4160   78.7180  220.7820 O   0  0  0  0  0  0  0  0  0  0  0  0
  141.6170   79.6530  221.7780 C   0  0  0  0  0  0  0  0  0  0  0  0
  140.9130   80.8270  221.9100 C   0  0  0  0  0  0  0  0  0  0  0  0
  141.2000   81.6890  222.9510 C   0  0  0  0  0  0  0  0  0  0  0  0
  142.2010   81.3610  223.8600 C   0  0  0  0  0  0  0  0  0  0  0  0
  142.9260   80.1890  223.7540 C   0  0  0  0  0  0  0  0  0  0  0  0
  142.6080   79.3600  222.7040 C   0  0  0  0  0  0  0  0  0  0  0  0
  141.8110   76.3150  220.7890 C   0  0  0  0  0  0  0  0  0  0  0  0
  141.4010   75.0650  221.1840 C   0  0  0  0  0  0  0  0  0  0  0  0
  141.5240   71.8652  220.3898 H   0  0  0  0  0  0  0  0  0  0  0  0
  142.4843   72.0427  221.9097 H   0  0  0  0  0  0  0  0  0  0  0  0
  139.1651   70.6328  220.7008 H   0  0  0  0  0  0  0  0  0  0  0  0
  138.2686   68.5007  221.6298 H   0  0  0  0  0  0  0  0  0  0  0  0
  138.4971   68.0226  224.0237 H   0  0  0  0  0  0  0  0  0  0  0  0
  141.3939   72.1552  226.1262 H   0  0  0  0  0  0  0  0  0  0  0  0
  140.0161   72.7598  226.8546 H   0  0  0  0  0  0  0  0  0  0  0  0
  142.4182   71.2204  228.1981 H   0  0  0  0  0  0  0  0  0  0  0  0
  141.5483   72.3013  229.0718 H   0  0  0  0  0  0  0  0  0  0  0  0
  140.7233   69.5371  228.7054 H   0  0  0  0  0  0  0  0  0  0  0  0
  139.4695   70.6191  228.9817 H   0  0  0  0  0  0  0  0  0  0  0  0
  140.4871   71.7428  224.6197 H   0  0  0  0  0  0  0  0  0  0  0  0
  138.5698   75.8928  222.8886 H   0  0  0  0  0  0  0  0  0  0  0  0
  139.3495   78.1298  222.1559 H   0  0  0  0  0  0  0  0  0  0  0  0
  140.1225   81.0794  221.1879 H   0  0  0  0  0  0  0  0  0  0  0  0
  140.6401   82.6295  223.0605 H   0  0  0  0  0  0  0  0  0  0  0  0
  142.4215   82.0535  224.6857 H   0  0  0  0  0  0  0  0  0  0  0  0
  143.7176   79.9323  224.4734 H   0  0  0  0  0  0  0  0  0  0  0  0
  143.1664   78.4188  222.5927 H   0  0  0  0  0  0  0  0  0  0  0  0
  142.7287   76.4302  220.1935 H   0  0  0  0  0  0  0  0  0  0  0  0
  1  2  2  0
  2  3  1  0
  3  4  1  0
  4  5  1  0
  5  6  2  0
  6  7  1  0
  7  8  2  0
  8  9  1  0
  9 10  1  0
 10 11  2  0
 10 12  1  0
 12 13  1  0
 13 14  1  0
 14 15  1  0
  9 16  2  0
  4 17  2  0
 17 18  1  0
 18 19  2  0
 19 20  1  0
 20 21  2  0
 21 22  1  0
 22 23  1  0
 23 24  2  0
 24 25  1  0
 25 26  2  0
 26 27  1  0
 27 28  2  0
 21 29  1  0
 29 30  2  0
 30  2  1  0
 16  5  1  0
 30 18  1  0
 15 12  1  0
 28 23  1  0
  3 31  1  0
  3 32  1  0
  6 33  1  0
  7 34  1  0
  8 35  1  0
 13 36  1  0
 13 37  1  0
 14 38  1  0
 14 39  1  0
 15 40  1  0
 15 41  1  0
 16 42  1  0
 19 43  1  0
 20 44  1  0
 24 45  1  0
 25 46  1  0
 26 47  1  0
 27 48  1  0
 28 49  1  0
 29 50  1  0
M  END
>  <smiles>  (31) 
O=C1CC(c2cccc(C(=O)N3CCC3)c2)=Nc2ccc(Oc3ccccc3)cc21

>  <score_type>  (31) 
oracle

>  <origin>  (31) 
autodockgpu

>  <m_score__min__energy>  (31) 
-9.2799999999999994

>  <m_primary>  (31) 
energy

>  <rmsd>  (31) 
6.389059400152168

>  <m_score__min__rmsd>  (31) 
6.389059400152168

>  <meeko>  (31) 
{"free_energy": -9.21, "intermolecular_energy": -10.41, "internal_energy": -1.04, "cluster_size": 48, "cluster_id": 1, "rank_in_cluster": 16}

>  <energy>  (31) 
-9.15

>  <cluster_rmsd>  (31) 
0.38

>  <cluster>  (31) 
1

$$$$

     RDKit          3D

 50 54  0  0  0  0  0  0  0  0999 V2000
  143.1550   73.9510  220.0980 O   0  0  0  0  0  0  0  0  0  0  0  0
  142.1220   73.7960  220.8010 C   0  0  0  0  0  0  0  0  0  0  0  0
  141.6790   72.4470  221.2300 C   0  0  0  0  0  0  0  0  0  0  0  0
  140.4480   72.5310  222.0450 C   0  0  0  0  0  0  0  0  0  0  0  0
  139.8820   71.2840  222.5950 C   0  0  0  0  0  0  0  0  0  0  0  0
  139.2720   70.3730  221.7570 C   0  0  0  0  0  0  0  0  0  0  0  0
  138.7740   69.1910  222.2770 C   0  0  0  0  0  0  0  0  0  0  0  0
  138.8960   68.9440  223.6250 C   0  0  0  0  0  0  0  0  0  0  0  0
  139.4950   69.8220  224.5080 C   0  0  0  0  0  0  0  0  0  0  0  0
  139.6520   69.6140  225.9140 C   0  0  0  0  0  0  0  0  0  0  0  0
  139.2940   68.4780  226.3910 O   0  0  0  0  0  0  0  0  0  0  0  0
  140.1670   70.5380  226.8580 N   0  0  0  0  0  0  0  0  0  0  0  0
  140.7020   71.8890  226.9120 C   0  0  0  0  0  0  0  0  0  0  0  0
  141.3710   71.5620  228.2520 C   0  0  0  0  0  0  0  0  0  0  0  0
  140.3240   70.5080  228.3150 C   0  0  0  0  0  0  0  0  0  0  0  0
  139.9810   70.9960  223.9440 C   0  0  0  0  0  0  0  0  0  0  0  0
  139.8330   73.6140  222.3430 N   0  0  0  0  0  0  0  0  0  0  0  0
  140.2700   74.8900  221.9210 C   0  0  0  0  0  0  0  0  0  0  0  0
  139.5240   75.9800  222.3080 C   0  0  0  0  0  0  0  0  0  0  0  0
  139.9760   77.2170  221.8870 C   0  0  0  0  0  0  0  0  0  0  0  0
  141.0910   77.3990  221.1290 C   0  0  0  0  0  0  0  0  0  0  0  0
  141.4430   78.6830  220.7700 O   0  0  0  0  0  0  0  0  0  0  0  0
  141.6190   79.6260  221.7630 C   0  0  0  0  0  0  0  0  0  0  0  0
  140.8590   80.7620  221.9140 C   0  0  0  0  0  0  0  0  0  0  0  0
  141.1240   81.6360  222.9510 C   0  0  0  0  0  0  0  0  0  0  0  0
  142.1600   81.3580  223.8370 C   0  0  0  0  0  0  0  0  0  0  0  0
  142.9410   80.2240  223.7120 C   0  0  0  0  0  0  0  0  0  0  0  0
  142.6430   79.3820  222.6670 C   0  0  0  0  0  0  0  0  0  0  0  0
  141.8180   76.2760  220.7560 C   0  0  0  0  0  0  0  0  0  0  0  0
  141.4040   75.0280  221.1530 C   0  0  0  0  0  0  0  0  0  0  0  0
  141.4802   71.8329  220.3393 H   0  0  0  0  0  0  0  0  0  0  0  0
  142.4742   71.9930  221.8396 H   0  0  0  0  0  0  0  0  0  0  0  0
  139.1820   70.5851  220.6814 H   0  0  0  0  0  0  0  0  0  0  0  0
  138.2858   68.4567  221.6194 H   0  0  0  0  0  0  0  0  0  0  0  0
  138.4960   67.9986  224.0203 H   0  0  0  0  0  0  0  0  0  0  0  0
  141.4079   72.1264  226.1024 H   0  0  0  0  0  0  0  0  0  0  0  0
  140.0353   72.7588  226.8172 H   0  0  0  0  0  0  0  0  0  0  0  0
  142.4075   71.1989  228.1894 H   0  0  0  0  0  0  0  0  0  0  0  0
  141.5485   72.3009  229.0473 H   0  0  0  0  0  0  0  0  0  0  0  0
  140.6855   69.5446  228.7037 H   0  0  0  0  0  0  0  0  0  0  0  0
  139.4460   70.6470  228.9629 H   0  0  0  0  0  0  0  0  0  0  0  0
  140.4675   71.7310  224.6021 H   0  0  0  0  0  0  0  0  0  0  0  0
  138.6162   75.8727  222.9199 H   0  0  0  0  0  0  0  0  0  0  0  0
  139.4001   78.1064  222.1823 H   0  0  0  0  0  0  0  0  0  0  0  0
  140.0410   80.9748  221.2100 H   0  0  0  0  0  0  0  0  0  0  0  0
  140.5192   82.5464  223.0753 H   0  0  0  0  0  0  0  0  0  0  0  0
  142.3633   82.0596  224.6595 H   0  0  0  0  0  0  0  0  0  0  0  0
  143.7598   80.0064  224.4136 H   0  0  0  0  0  0  0  0  0  0  0  0
  143.2457   78.4704  222.5414 H   0  0  0  0  0  0  0  0  0  0  0  0
  142.7247   76.3859  220.1430 H   0  0  0  0  0  0  0  0  0  0  0  0
  1  2  2  0
  2  3  1  0
  3  4  1  0
  4  5  1  0
  5  6  2  0
  6  7  1  0
  7  8  2  0
  8  9  1  0
  9 10  1  0
 10 11  2  0
 10 12  1  0
 12 13  1  0
 13 14  1  0
 14 15  1  0
  9 16  2  0
  4 17  2  0
 17 18  1  0
 18 19  2  0
 19 20  1  0
 20 21  2  0
 21 22  1  0
 22 23  1  0
 23 24  2  0
 24 25  1  0
 25 26  2  0
 26 27  1  0
 27 28  2  0
 21 29  1  0
 29 30  2  0
 30  2  1  0
 16  5  1  0
 30 18  1  0
 15 12  1  0
 28 23  1  0
  3 31  1  0
  3 32  1  0
  6 33  1  0
  7 34  1  0
  8 35  1  0
 13 36  1  0
 13 37  1  0
 14 38  1  0
 14 39  1  0
 15 40  1  0
 15 41  1  0
 16 42  1  0
 19 43  1  0
 20 44  1  0
 24 45  1  0
 25 46  1  0
 26 47  1  0
 27 48  1  0
 28 49  1  0
 29 50  1  0
M  END
>  <smiles>  (32) 
O=C1CC(c2cccc(C(=O)N3CCC3)c2)=Nc2ccc(Oc3ccccc3)cc21

>  <score_type>  (32) 
oracle

>  <origin>  (32) 
autodockgpu

>  <m_score__min__energy>  (32) 
-9.2799999999999994

>  <m_primary>  (32) 
energy

>  <rmsd>  (32) 
6.38502639009972

>  <m_score__min__rmsd>  (32) 
6.38502639009972

>  <meeko>  (32) 
{"free_energy": -9.24, "intermolecular_energy": -10.44, "internal_energy": -1.04, "cluster_size": 48, "cluster_id": 1, "rank_in_cluster": 12}

>  <energy>  (32) 
-9.14

>  <cluster_rmsd>  (32) 
0.33

>  <cluster>  (32) 
1

$$$$

     RDKit          3D

 50 54  0  0  0  0  0  0  0  0999 V2000
  136.6810   75.6340  221.9650 O   0  0  0  0  0  0  0  0  0  0  0  0
  137.6860   74.8750  222.0080 C   0  0  0  0  0  0  0  0  0  0  0  0
  137.5420   73.4240  222.2810 C   0  0  0  0  0  0  0  0  0  0  0  0
  138.8610   72.7540  222.2750 C   0  0  0  0  0  0  0  0  0  0  0  0
  138.9090   71.2960  222.4920 C   0  0  0  0  0  0  0  0  0  0  0  0
  138.7810   70.4330  221.4220 C   0  0  0  0  0  0  0  0  0  0  0  0
  138.8610   69.0680  221.6310 C   0  0  0  0  0  0  0  0  0  0  0  0
  139.0670   68.5920  222.9050 C   0  0  0  0  0  0  0  0  0  0  0  0
  139.2000   69.4110  224.0110 C   0  0  0  0  0  0  0  0  0  0  0  0
  139.4190   68.9700  225.3530 C   0  0  0  0  0  0  0  0  0  0  0  0
  139.1640   67.7430  225.6270 O   0  0  0  0  0  0  0  0  0  0  0  0
  139.8950   69.7510  226.4370 N   0  0  0  0  0  0  0  0  0  0  0  0
  140.3290   71.1090  226.7220 C   0  0  0  0  0  0  0  0  0  0  0  0
  141.0660   70.6040  227.9680 C   0  0  0  0  0  0  0  0  0  0  0  0
  140.1030   69.4760  227.8620 C   0  0  0  0  0  0  0  0  0  0  0  0
  139.1130   70.7740  223.7570 C   0  0  0  0  0  0  0  0  0  0  0  0
  139.9830   73.3360  222.0680 N   0  0  0  0  0  0  0  0  0  0  0  0
  140.0980   74.7210  221.8130 C   0  0  0  0  0  0  0  0  0  0  0  0
  141.3600   75.2290  221.6040 C   0  0  0  0  0  0  0  0  0  0  0  0
  141.4440   76.5850  221.3500 C   0  0  0  0  0  0  0  0  0  0  0  0
  140.3680   77.4160  221.3000 C   0  0  0  0  0  0  0  0  0  0  0  0
  140.5780   78.7540  221.0370 O   0  0  0  0  0  0  0  0  0  0  0  0
  141.1520   79.5400  222.0160 C   0  0  0  0  0  0  0  0  0  0  0  0
  140.4610   80.3830  222.8540 C   0  0  0  0  0  0  0  0  0  0  0  0
  141.1420   81.1230  223.8030 C   0  0  0  0  0  0  0  0  0  0  0  0
  142.5250   81.0070  223.9030 C   0  0  0  0  0  0  0  0  0  0  0  0
  143.2470   80.1670  223.0750 C   0  0  0  0  0  0  0  0  0  0  0  0
  142.5300   79.4500  222.1460 C   0  0  0  0  0  0  0  0  0  0  0  0
  139.1110   76.8690  221.5170 C   0  0  0  0  0  0  0  0  0  0  0  0
  138.9810   75.5260  221.7720 C   0  0  0  0  0  0  0  0  0  0  0  0
  137.0728   73.2875  223.2665 H   0  0  0  0  0  0  0  0  0  0  0  0
  136.9167   72.9778  221.4936 H   0  0  0  0  0  0  0  0  0  0  0  0
  138.6163   70.8287  220.4089 H   0  0  0  0  0  0  0  0  0  0  0  0
  138.7608   68.3700  220.7867 H   0  0  0  0  0  0  0  0  0  0  0  0
  139.1291   67.5036  223.0515 H   0  0  0  0  0  0  0  0  0  0  0  0
  140.9872   71.5418  225.9542 H   0  0  0  0  0  0  0  0  0  0  0  0
  139.5962   71.9258  226.7984 H   0  0  0  0  0  0  0  0  0  0  0  0
  142.1239   70.3411  227.8204 H   0  0  0  0  0  0  0  0  0  0  0  0
  141.2151   71.2020  228.8791 H   0  0  0  0  0  0  0  0  0  0  0  0
  140.5481   68.4907  228.0645 H   0  0  0  0  0  0  0  0  0  0  0  0
  139.2394   69.4282  228.5417 H   0  0  0  0  0  0  0  0  0  0  0  0
  139.2110   71.4715  224.6019 H   0  0  0  0  0  0  0  0  0  0  0  0
  142.2545   74.5896  221.6374 H   0  0  0  0  0  0  0  0  0  0  0  0
  142.4404   77.0182  221.1780 H   0  0  0  0  0  0  0  0  0  0  0  0
  139.3676   80.4687  222.7696 H   0  0  0  0  0  0  0  0  0  0  0  0
  140.5936   81.7995  224.4750 H   0  0  0  0  0  0  0  0  0  0  0  0
  143.0584   81.5994  224.6610 H   0  0  0  0  0  0  0  0  0  0  0  0
  144.3403   80.0768  223.1555 H   0  0  0  0  0  0  0  0  0  0  0  0
  143.0759   78.7721  221.4733 H   0  0  0  0  0  0  0  0  0  0  0  0
  138.2187   77.5115  221.4847 H   0  0  0  0  0  0  0  0  0  0  0  0
  1  2  2  0
  2  3  1  0
  3  4  1  0
  4  5  1  0
  5  6  2  0
  6  7  1  0
  7  8  2  0
  8  9  1  0
  9 10  1  0
 10 11  2  0
 10 12  1  0
 12 13  1  0
 13 14  1  0
 14 15  1  0
  9 16  2  0
  4 17  2  0
 17 18  1  0
 18 19  2  0
 19 20  1  0
 20 21  2  0
 21 22  1  0
 22 23  1  0
 23 24  2  0
 24 25  1  0
 25 26  2  0
 26 27  1  0
 27 28  2  0
 21 29  1  0
 29 30  2  0
 30  2  1  0
 16  5  1  0
 30 18  1  0
 15 12  1  0
 28 23  1  0
  3 31  1  0
  3 32  1  0
  6 33  1  0
  7 34  1  0
  8 35  1  0
 13 36  1  0
 13 37  1  0
 14 38  1  0
 14 39  1  0
 15 40  1  0
 15 41  1  0
 16 42  1  0
 19 43  1  0
 20 44  1  0
 24 45  1  0
 25 46  1  0
 26 47  1  0
 27 48  1  0
 28 49  1  0
 29 50  1  0
M  END
>  <smiles>  (33) 
O=C1CC(c2cccc(C(=O)N3CCC3)c2)=Nc2ccc(Oc3ccccc3)cc21

>  <score_type>  (33) 
oracle

>  <origin>  (33) 
autodockgpu

>  <m_score__min__energy>  (33) 
-9.2799999999999994

>  <m_primary>  (33) 
energy

>  <rmsd>  (33) 
6.2881141624135

>  <m_score__min__rmsd>  (33) 
6.2881141624135

>  <meeko>  (33) 
{"free_energy": -8.52, "intermolecular_energy": -9.71, "internal_energy": -0.98, "cluster_size": 48, "cluster_id": 1, "rank_in_cluster": 48}

>  <energy>  (33) 
-9.14

>  <cluster_rmsd>  (33) 
0.69

>  <cluster>  (33) 
1

$$$$

     RDKit          3D

 50 54  0  0  0  0  0  0  0  0999 V2000
  143.8320   72.2370  220.4790 O   0  0  0  0  0  0  0  0  0  0  0  0
  143.0340   73.2110  220.5050 C   0  0  0  0  0  0  0  0  0  0  0  0
  143.3560   74.4880  219.8230 C   0  0  0  0  0  0  0  0  0  0  0  0
  142.2630   75.4690  219.9970 C   0  0  0  0  0  0  0  0  0  0  0  0
  142.3930   76.7880  219.3500 C   0  0  0  0  0  0  0  0  0  0  0  0
  142.7970   76.8760  218.0340 C   0  0  0  0  0  0  0  0  0  0  0  0
  142.8840   78.1170  217.4260 C   0  0  0  0  0  0  0  0  0  0  0  0
  142.5650   79.2440  218.1470 C   0  0  0  0  0  0  0  0  0  0  0  0
  142.1570   79.2130  219.4670 C   0  0  0  0  0  0  0  0  0  0  0  0
  141.8100   80.3510  220.2600 C   0  0  0  0  0  0  0  0  0  0  0  0
  141.2320   81.3330  219.6710 O   0  0  0  0  0  0  0  0  0  0  0  0
  142.0370   80.5200  221.6490 N   0  0  0  0  0  0  0  0  0  0  0  0
  142.6080   79.8020  222.7770 C   0  0  0  0  0  0  0  0  0  0  0  0
  141.8190   80.6990  223.7380 C   0  0  0  0  0  0  0  0  0  0  0  0
  141.8120   81.6300  222.5790 C   0  0  0  0  0  0  0  0  0  0  0  0
  142.0830   77.9480  220.0380 C   0  0  0  0  0  0  0  0  0  0  0  0
  141.1810   75.2590  220.6500 N   0  0  0  0  0  0  0  0  0  0  0  0
  140.8950   74.0360  221.2970 C   0  0  0  0  0  0  0  0  0  0  0  0
  139.6970   73.9330  221.9660 C   0  0  0  0  0  0  0  0  0  0  0  0
  139.4390   72.7230  222.5840 C   0  0  0  0  0  0  0  0  0  0  0  0
  140.2910   71.6630  222.5620 C   0  0  0  0  0  0  0  0  0  0  0  0
  139.9230   70.5060  223.2170 O   0  0  0  0  0  0  0  0  0  0  0  0
  140.0720   70.4440  224.5880 C   0  0  0  0  0  0  0  0  0  0  0  0
  139.5480   69.4600  225.3930 C   0  0  0  0  0  0  0  0  0  0  0  0
  139.7650   69.4970  226.7580 C   0  0  0  0  0  0  0  0  0  0  0  0
  140.5150   70.5320  227.3070 C   0  0  0  0  0  0  0  0  0  0  0  0
  141.0550   71.5350  226.5240 C   0  0  0  0  0  0  0  0  0  0  0  0
  140.8150   71.4590  225.1720 C   0  0  0  0  0  0  0  0  0  0  0  0
  141.4910   71.8040  221.8790 C   0  0  0  0  0  0  0  0  0  0  0  0
  141.7880   72.9880  221.2500 C   0  0  0  0  0  0  0  0  0  0  0  0
  144.2819   74.9009  220.2499 H   0  0  0  0  0  0  0  0  0  0  0  0
  143.4833   74.2904  218.7484 H   0  0  0  0  0  0  0  0  0  0  0  0
  143.0486   75.9653  217.4707 H   0  0  0  0  0  0  0  0  0  0  0  0
  143.2049   78.2007  216.3772 H   0  0  0  0  0  0  0  0  0  0  0  0
  142.6385   80.2210  217.6469 H   0  0  0  0  0  0  0  0  0  0  0  0
  142.3288   78.7390  222.8219 H   0  0  0  0  0  0  0  0  0  0  0  0
  143.6982   79.6964  222.8786 H   0  0  0  0  0  0  0  0  0  0  0  0
  140.8349   80.3159  224.0458 H   0  0  0  0  0  0  0  0  0  0  0  0
  142.1632   80.9737  224.7460 H   0  0  0  0  0  0  0  0  0  0  0  0
  140.8528   82.1474  222.4301 H   0  0  0  0  0  0  0  0  0  0  0  0
  142.4893   82.4967  222.5699 H   0  0  0  0  0  0  0  0  0  0  0  0
  141.7627   77.8649  221.0870 H   0  0  0  0  0  0  0  0  0  0  0  0
  138.9827   74.7685  222.0071 H   0  0  0  0  0  0  0  0  0  0  0  0
  138.4881   72.6112  223.1256 H   0  0  0  0  0  0  0  0  0  0  0  0
  138.9568   68.6442  224.9514 H   0  0  0  0  0  0  0  0  0  0  0  0
  139.3470   68.7126  227.4061 H   0  0  0  0  0  0  0  0  0  0  0  0
  140.6829   70.5528  228.3939 H   0  0  0  0  0  0  0  0  0  0  0  0
  141.6470   72.3530  226.9604 H   0  0  0  0  0  0  0  0  0  0  0  0
  141.2329   72.2417  224.5219 H   0  0  0  0  0  0  0  0  0  0  0  0
  142.2041   70.9673  221.8415 H   0  0  0  0  0  0  0  0  0  0  0  0
  1  2  2  0
  2  3  1  0
  3  4  1  0
  4  5  1  0
  5  6  2  0
  6  7  1  0
  7  8  2  0
  8  9  1  0
  9 10  1  0
 10 11  2  0
 10 12  1  0
 12 13  1  0
 13 14  1  0
 14 15  1  0
  9 16  2  0
  4 17  2  0
 17 18  1  0
 18 19  2  0
 19 20  1  0
 20 21  2  0
 21 22  1  0
 22 23  1  0
 23 24  2  0
 24 25  1  0
 25 26  2  0
 26 27  1  0
 27 28  2  0
 21 29  1  0
 29 30  2  0
 30  2  1  0
 16  5  1  0
 30 18  1  0
 15 12  1  0
 28 23  1  0
  3 31  1  0
  3 32  1  0
  6 33  1  0
  7 34  1  0
  8 35  1  0
 13 36  1  0
 13 37  1  0
 14 38  1  0
 14 39  1  0
 15 40  1  0
 15 41  1  0
 16 42  1  0
 19 43  1  0
 20 44  1  0
 24 45  1  0
 25 46  1  0
 26 47  1  0
 27 48  1  0
 28 49  1  0
 29 50  1  0
M  END
>  <smiles>  (34) 
O=C1CC(c2cccc(C(=O)N3CCC3)c2)=Nc2ccc(Oc3ccccc3)cc21

>  <score_type>  (34) 
oracle

>  <origin>  (34) 
autodockgpu

>  <m_score__min__energy>  (34) 
-9.2799999999999994

>  <m_primary>  (34) 
energy

>  <rmsd>  (34) 
8.502676623079477

>  <m_score__min__rmsd>  (34) 
8.502676623079477

>  <meeko>  (34) 
{"free_energy": -8.29, "intermolecular_energy": -9.48, "internal_energy": -1.03, "cluster_size": 2, "cluster_id": 2, "rank_in_cluster": 2}

>  <energy>  (34) 
-9.14

>  <cluster_rmsd>  (34) 
0.18

>  <cluster>  (34) 
1

$$$$

     RDKit          3D

 50 54  0  0  0  0  0  0  0  0999 V2000
  142.9730   73.9490  219.7750 O   0  0  0  0  0  0  0  0  0  0  0  0
  142.0120   73.8080  220.5770 C   0  0  0  0  0  0  0  0  0  0  0  0
  141.5510   72.4610  220.9950 C   0  0  0  0  0  0  0  0  0  0  0  0
  140.4150   72.5630  221.9380 C   0  0  0  0  0  0  0  0  0  0  0  0
  139.8490   71.3180  222.4920 C   0  0  0  0  0  0  0  0  0  0  0  0
  139.2250   70.4120  221.6600 C   0  0  0  0  0  0  0  0  0  0  0  0
  138.7260   69.2320  222.1850 C   0  0  0  0  0  0  0  0  0  0  0  0
  138.8620   68.9830  223.5300 C   0  0  0  0  0  0  0  0  0  0  0  0
  139.4750   69.8570  224.4080 C   0  0  0  0  0  0  0  0  0  0  0  0
  139.6460   69.6460  225.8120 C   0  0  0  0  0  0  0  0  0  0  0  0
  139.3060   68.5050  226.2890 O   0  0  0  0  0  0  0  0  0  0  0  0
  140.1590   70.5730  226.7550 N   0  0  0  0  0  0  0  0  0  0  0  0
  140.6780   71.9300  226.8090 C   0  0  0  0  0  0  0  0  0  0  0  0
  141.3620   71.6070  228.1420 C   0  0  0  0  0  0  0  0  0  0  0  0
  140.3290   70.5410  228.2100 C   0  0  0  0  0  0  0  0  0  0  0  0
  139.9620   71.0290  223.8400 C   0  0  0  0  0  0  0  0  0  0  0  0
  139.8890   73.6580  222.3440 N   0  0  0  0  0  0  0  0  0  0  0  0
  140.3420   74.9310  221.9300 C   0  0  0  0  0  0  0  0  0  0  0  0
  139.6960   76.0340  222.4380 C   0  0  0  0  0  0  0  0  0  0  0  0
  140.1620   77.2680  222.0230 C   0  0  0  0  0  0  0  0  0  0  0  0
  141.2000   77.4340  221.1600 C   0  0  0  0  0  0  0  0  0  0  0  0
  141.5760   78.7170  220.8190 O   0  0  0  0  0  0  0  0  0  0  0  0
  141.8080   79.6310  221.8270 C   0  0  0  0  0  0  0  0  0  0  0  0
  142.7660   79.4980  222.8050 C   0  0  0  0  0  0  0  0  0  0  0  0
  142.9110   80.4810  223.7660 C   0  0  0  0  0  0  0  0  0  0  0  0
  142.0850   81.6000  223.7350 C   0  0  0  0  0  0  0  0  0  0  0  0
  141.1130   81.7620  222.7650 C   0  0  0  0  0  0  0  0  0  0  0  0
  141.0030   80.7610  221.8290 C   0  0  0  0  0  0  0  0  0  0  0  0
  141.8280   76.2990  220.6660 C   0  0  0  0  0  0  0  0  0  0  0  0
  141.3970   75.0540  221.0530 C   0  0  0  0  0  0  0  0  0  0  0  0
  141.2321   71.8971  220.1060 H   0  0  0  0  0  0  0  0  0  0  0  0
  142.3817   71.9448  221.4985 H   0  0  0  0  0  0  0  0  0  0  0  0
  139.1244   70.6257  220.5857 H   0  0  0  0  0  0  0  0  0  0  0  0
  138.2258   68.5012  221.5324 H   0  0  0  0  0  0  0  0  0  0  0  0
  138.4621   68.0389  223.9284 H   0  0  0  0  0  0  0  0  0  0  0  0
  141.3741   72.1785  225.9944 H   0  0  0  0  0  0  0  0  0  0  0  0
  140.0001   72.7920  226.7226 H   0  0  0  0  0  0  0  0  0  0  0  0
  142.4022   71.2567  228.0696 H   0  0  0  0  0  0  0  0  0  0  0  0
  141.5372   72.3454  228.9383 H   0  0  0  0  0  0  0  0  0  0  0  0
  140.7054   69.5809  228.5927 H   0  0  0  0  0  0  0  0  0  0  0  0
  139.4548   70.6678  228.8655 H   0  0  0  0  0  0  0  0  0  0  0  0
  140.4604   71.7605  224.4931 H   0  0  0  0  0  0  0  0  0  0  0  0
  138.8527   75.9394  223.1379 H   0  0  0  0  0  0  0  0  0  0  0  0
  139.6642   78.1678  222.4136 H   0  0  0  0  0  0  0  0  0  0  0  0
  143.4159   78.6107  222.8224 H   0  0  0  0  0  0  0  0  0  0  0  0
  143.6751   80.3790  224.5507 H   0  0  0  0  0  0  0  0  0  0  0  0
  142.2086   82.3774  224.5034 H   0  0  0  0  0  0  0  0  0  0  0  0
  140.4605   82.6473  222.7433 H   0  0  0  0  0  0  0  0  0  0  0  0
  140.2396   80.8609  221.0434 H   0  0  0  0  0  0  0  0  0  0  0  0
  142.6702   76.3968  219.9651 H   0  0  0  0  0  0  0  0  0  0  0  0
  1  2  2  0
  2  3  1  0
  3  4  1  0
  4  5  1  0
  5  6  2  0
  6  7  1  0
  7  8  2  0
  8  9  1  0
  9 10  1  0
 10 11  2  0
 10 12  1  0
 12 13  1  0
 13 14  1  0
 14 15  1  0
  9 16  2  0
  4 17  2  0
 17 18  1  0
 18 19  2  0
 19 20  1  0
 20 21  2  0
 21 22  1  0
 22 23  1  0
 23 24  2  0
 24 25  1  0
 25 26  2  0
 26 27  1  0
 27 28  2  0
 21 29  1  0
 29 30  2  0
 30  2  1  0
 16  5  1  0
 30 18  1  0
 15 12  1  0
 28 23  1  0
  3 31  1  0
  3 32  1  0
  6 33  1  0
  7 34  1  0
  8 35  1  0
 13 36  1  0
 13 37  1  0
 14 38  1  0
 14 39  1  0
 15 40  1  0
 15 41  1  0
 16 42  1  0
 19 43  1  0
 20 44  1  0
 24 45  1  0
 25 46  1  0
 26 47  1  0
 27 48  1  0
 28 49  1  0
 29 50  1  0
M  END
>  <smiles>  (35) 
O=C1CC(c2cccc(C(=O)N3CCC3)c2)=Nc2ccc(Oc3ccccc3)cc21

>  <score_type>  (35) 
oracle

>  <origin>  (35) 
autodockgpu

>  <m_score__min__energy>  (35) 
-9.2799999999999994

>  <m_primary>  (35) 
energy

>  <rmsd>  (35) 
6.4047472785575374

>  <m_score__min__rmsd>  (35) 
6.4047472785575374

>  <meeko>  (35) 
{"free_energy": -9.14, "intermolecular_energy": -10.33, "internal_energy": -1.03, "cluster_size": 48, "cluster_id": 1, "rank_in_cluster": 34}

>  <energy>  (35) 
-9.13

>  <cluster_rmsd>  (35) 
0.22

>  <cluster>  (35) 
1

$$$$

     RDKit          3D

 50 54  0  0  0  0  0  0  0  0999 V2000
  143.0590   74.0600  219.8780 O   0  0  0  0  0  0  0  0  0  0  0  0
  142.0780   73.8820  220.6480 C   0  0  0  0  0  0  0  0  0  0  0  0
  141.6600   72.5190  221.0580 C   0  0  0  0  0  0  0  0  0  0  0  0
  140.4900   72.5770  221.9620 C   0  0  0  0  0  0  0  0  0  0  0  0
  139.9590   71.3120  222.5050 C   0  0  0  0  0  0  0  0  0  0  0  0
  139.4460   70.3560  221.6530 C   0  0  0  0  0  0  0  0  0  0  0  0
  138.9800   69.1590  222.1690 C   0  0  0  0  0  0  0  0  0  0  0  0
  139.0360   68.9430  223.5260 C   0  0  0  0  0  0  0  0  0  0  0  0
  139.5380   69.8670  224.4230 C   0  0  0  0  0  0  0  0  0  0  0  0
  139.6230   69.6920  225.8400 C   0  0  0  0  0  0  0  0  0  0  0  0
  139.1560   68.6060  226.3350 O   0  0  0  0  0  0  0  0  0  0  0  0
  140.1770   70.6020  226.7760 N   0  0  0  0  0  0  0  0  0  0  0  0
  140.8190   71.9060  226.8130 C   0  0  0  0  0  0  0  0  0  0  0  0
  141.4080   71.5700  228.1870 C   0  0  0  0  0  0  0  0  0  0  0  0
  140.2760   70.6070  228.2390 C   0  0  0  0  0  0  0  0  0  0  0  0
  139.9940   71.0540  223.8640 C   0  0  0  0  0  0  0  0  0  0  0  0
  139.9050   73.6510  222.3440 N   0  0  0  0  0  0  0  0  0  0  0  0
  140.3180   74.9400  221.9380 C   0  0  0  0  0  0  0  0  0  0  0  0
  139.6090   76.0170  222.4180 C   0  0  0  0  0  0  0  0  0  0  0  0
  140.0370   77.2670  222.0110 C   0  0  0  0  0  0  0  0  0  0  0  0
  141.0950   77.4740  221.1820 C   0  0  0  0  0  0  0  0  0  0  0  0
  141.4280   78.7690  220.8460 O   0  0  0  0  0  0  0  0  0  0  0  0
  141.7350   79.6590  221.8560 C   0  0  0  0  0  0  0  0  0  0  0  0
  142.5850   79.3960  222.9050 C   0  0  0  0  0  0  0  0  0  0  0  0
  142.8210   80.3670  223.8600 C   0  0  0  0  0  0  0  0  0  0  0  0
  142.1960   81.6050  223.7520 C   0  0  0  0  0  0  0  0  0  0  0  0
  141.3380   81.8990  222.7090 C   0  0  0  0  0  0  0  0  0  0  0  0
  141.1310   80.9050  221.7810 C   0  0  0  0  0  0  0  0  0  0  0  0
  141.7860   76.3640  220.7160 C   0  0  0  0  0  0  0  0  0  0  0  0
  141.3950   75.1030  221.0960 C   0  0  0  0  0  0  0  0  0  0  0  0
  141.3949   71.9385  220.1621 H   0  0  0  0  0  0  0  0  0  0  0  0
  142.4942   72.0404  221.5919 H   0  0  0  0  0  0  0  0  0  0  0  0
  139.4075   70.5438  220.5698 H   0  0  0  0  0  0  0  0  0  0  0  0
  138.5690   68.3883  221.5003 H   0  0  0  0  0  0  0  0  0  0  0  0
  138.6620   67.9856  223.9177 H   0  0  0  0  0  0  0  0  0  0  0  0
  141.5720   72.0594  226.0259 H   0  0  0  0  0  0  0  0  0  0  0  0
  140.2298   72.8233  226.6667 H   0  0  0  0  0  0  0  0  0  0  0  0
  142.4127   71.1221  228.1766 H   0  0  0  0  0  0  0  0  0  0  0  0
  141.6159   72.3176  228.9666 H   0  0  0  0  0  0  0  0  0  0  0  0
  140.5420   69.6306  228.6702 H   0  0  0  0  0  0  0  0  0  0  0  0
  139.3886   70.8379  228.8467 H   0  0  0  0  0  0  0  0  0  0  0  0
  140.4023   71.8255  224.5334 H   0  0  0  0  0  0  0  0  0  0  0  0
  138.7473   75.8902  223.0899 H   0  0  0  0  0  0  0  0  0  0  0  0
  139.4891   78.1467  222.3797 H   0  0  0  0  0  0  0  0  0  0  0  0
  143.0760   78.4148  222.9837 H   0  0  0  0  0  0  0  0  0  0  0  0
  143.4996   80.1618  224.7011 H   0  0  0  0  0  0  0  0  0  0  0  0
  142.3899   82.3708  224.5175 H   0  0  0  0  0  0  0  0  0  0  0  0
  140.8453   82.8789  222.6252 H   0  0  0  0  0  0  0  0  0  0  0  0
  140.4535   81.1083  220.9386 H   0  0  0  0  0  0  0  0  0  0  0  0
  142.6462   76.4940  220.0428 H   0  0  0  0  0  0  0  0  0  0  0  0
  1  2  2  0
  2  3  1  0
  3  4  1  0
  4  5  1  0
  5  6  2  0
  6  7  1  0
  7  8  2  0
  8  9  1  0
  9 10  1  0
 10 11  2  0
 10 12  1  0
 12 13  1  0
 13 14  1  0
 14 15  1  0
  9 16  2  0
  4 17  2  0
 17 18  1  0
 18 19  2  0
 19 20  1  0
 20 21  2  0
 21 22  1  0
 22 23  1  0
 23 24  2  0
 24 25  1  0
 25 26  2  0
 26 27  1  0
 27 28  2  0
 21 29  1  0
 29 30  2  0
 30  2  1  0
 16  5  1  0
 30 18  1  0
 15 12  1  0
 28 23  1  0
  3 31  1  0
  3 32  1  0
  6 33  1  0
  7 34  1  0
  8 35  1  0
 13 36  1  0
 13 37  1  0
 14 38  1  0
 14 39  1  0
 15 40  1  0
 15 41  1  0
 16 42  1  0
 19 43  1  0
 20 44  1  0
 24 45  1  0
 25 46  1  0
 26 47  1  0
 27 48  1  0
 28 49  1  0
 29 50  1  0
M  END
>  <smiles>  (36) 
O=C1CC(c2cccc(C(=O)N3CCC3)c2)=Nc2ccc(Oc3ccccc3)cc21

>  <score_type>  (36) 
oracle

>  <origin>  (36) 
autodockgpu

>  <m_score__min__energy>  (36) 
-9.2799999999999994

>  <m_primary>  (36) 
energy

>  <rmsd>  (36) 
6.424500885446066

>  <m_score__min__rmsd>  (36) 
6.424500885446066

>  <meeko>  (36) 
{"free_energy": -9.23, "intermolecular_energy": -10.43, "internal_energy": -1.03, "cluster_size": 48, "cluster_id": 1, "rank_in_cluster": 13}

>  <energy>  (36) 
-9.12

>  <cluster_rmsd>  (36) 
0.51

>  <cluster>  (36) 
1

$$$$

     RDKit          3D

 50 54  0  0  0  0  0  0  0  0999 V2000
  143.1580   74.1710  220.0260 O   0  0  0  0  0  0  0  0  0  0  0  0
  142.1430   73.9450  220.7360 C   0  0  0  0  0  0  0  0  0  0  0  0
  141.7430   72.5610  221.0880 C   0  0  0  0  0  0  0  0  0  0  0  0
  140.5260   72.5620  221.9290 C   0  0  0  0  0  0  0  0  0  0  0  0
  140.0020   71.2690  222.4090 C   0  0  0  0  0  0  0  0  0  0  0  0
  139.5480   70.3290  221.5070 C   0  0  0  0  0  0  0  0  0  0  0  0
  139.0910   69.1060  221.9650 C   0  0  0  0  0  0  0  0  0  0  0  0
  139.0960   68.8480  223.3170 C   0  0  0  0  0  0  0  0  0  0  0  0
  139.5370   69.7540  224.2620 C   0  0  0  0  0  0  0  0  0  0  0  0
  139.5680   69.5360  225.6750 C   0  0  0  0  0  0  0  0  0  0  0  0
  139.1340   68.4130  226.1140 O   0  0  0  0  0  0  0  0  0  0  0  0
  140.0330   70.4400  226.6640 N   0  0  0  0  0  0  0  0  0  0  0  0
  140.6060   71.7720  226.7710 C   0  0  0  0  0  0  0  0  0  0  0  0
  141.1490   71.4190  228.1600 C   0  0  0  0  0  0  0  0  0  0  0  0
  140.0660   70.4000  228.1290 C   0  0  0  0  0  0  0  0  0  0  0  0
  139.9880   70.9690  223.7590 C   0  0  0  0  0  0  0  0  0  0  0  0
  139.8900   73.6080  222.3050 N   0  0  0  0  0  0  0  0  0  0  0  0
  140.2870   74.9190  221.9550 C   0  0  0  0  0  0  0  0  0  0  0  0
  139.5220   75.9630  222.4230 C   0  0  0  0  0  0  0  0  0  0  0  0
  139.9340   77.2350  222.0730 C   0  0  0  0  0  0  0  0  0  0  0  0
  141.0290   77.4930  221.3080 C   0  0  0  0  0  0  0  0  0  0  0  0
  141.3420   78.8060  221.0230 O   0  0  0  0  0  0  0  0  0  0  0  0
  141.6160   79.6640  222.0700 C   0  0  0  0  0  0  0  0  0  0  0  0
  140.6810   80.4310  222.7240 C   0  0  0  0  0  0  0  0  0  0  0  0
  141.0710   81.2550  223.7630 C   0  0  0  0  0  0  0  0  0  0  0  0
  142.4090   81.3010  224.1400 C   0  0  0  0  0  0  0  0  0  0  0  0
  143.3720   80.5420  223.5020 C   0  0  0  0  0  0  0  0  0  0  0  0
  142.9410   79.7360  222.4740 C   0  0  0  0  0  0  0  0  0  0  0  0
  141.7760   76.4150  220.8520 C   0  0  0  0  0  0  0  0  0  0  0  0
  141.4020   75.1340  221.1770 C   0  0  0  0  0  0  0  0  0  0  0  0
  141.5424   71.9980  220.1645 H   0  0  0  0  0  0  0  0  0  0  0  0
  142.5612   72.0913  221.6536 H   0  0  0  0  0  0  0  0  0  0  0  0
  139.5493   70.5506  220.4296 H   0  0  0  0  0  0  0  0  0  0  0  0
  138.7274   68.3477  221.2559 H   0  0  0  0  0  0  0  0  0  0  0  0
  138.7300   67.8700  223.6628 H   0  0  0  0  0  0  0  0  0  0  0  0
  141.3848   71.9883  226.0249 H   0  0  0  0  0  0  0  0  0  0  0  0
  139.9786   72.6638  226.6260 H   0  0  0  0  0  0  0  0  0  0  0  0
  142.1745   71.0218  228.1823 H   0  0  0  0  0  0  0  0  0  0  0  0
  141.2834   72.1492  228.9716 H   0  0  0  0  0  0  0  0  0  0  0  0
  140.3617   69.4238  228.5409 H   0  0  0  0  0  0  0  0  0  0  0  0
  139.1418   70.5660  228.7020 H   0  0  0  0  0  0  0  0  0  0  0  0
  140.3508   71.7275  224.4682 H   0  0  0  0  0  0  0  0  0  0  0  0
  138.6294   75.7939  223.0432 H   0  0  0  0  0  0  0  0  0  0  0  0
  139.3418   78.0888  222.4341 H   0  0  0  0  0  0  0  0  0  0  0  0
  139.6244   80.3890  222.4209 H   0  0  0  0  0  0  0  0  0  0  0  0
  140.3270   81.8712  224.2890 H   0  0  0  0  0  0  0  0  0  0  0  0
  142.7090   81.9594  224.9685 H   0  0  0  0  0  0  0  0  0  0  0  0
  144.4298   80.5806  223.8013 H   0  0  0  0  0  0  0  0  0  0  0  0
  143.6831   79.1186  221.9467 H   0  0  0  0  0  0  0  0  0  0  0  0
  142.6672   76.5869  220.2306 H   0  0  0  0  0  0  0  0  0  0  0  0
  1  2  2  0
  2  3  1  0
  3  4  1  0
  4  5  1  0
  5  6  2  0
  6  7  1  0
  7  8  2  0
  8  9  1  0
  9 10  1  0
 10 11  2  0
 10 12  1  0
 12 13  1  0
 13 14  1  0
 14 15  1  0
  9 16  2  0
  4 17  2  0
 17 18  1  0
 18 19  2  0
 19 20  1  0
 20 21  2  0
 21 22  1  0
 22 23  1  0
 23 24  2  0
 24 25  1  0
 25 26  2  0
 26 27  1  0
 27 28  2  0
 21 29  1  0
 29 30  2  0
 30  2  1  0
 16  5  1  0
 30 18  1  0
 15 12  1  0
 28 23  1  0
  3 31  1  0
  3 32  1  0
  6 33  1  0
  7 34  1  0
  8 35  1  0
 13 36  1  0
 13 37  1  0
 14 38  1  0
 14 39  1  0
 15 40  1  0
 15 41  1  0
 16 42  1  0
 19 43  1  0
 20 44  1  0
 24 45  1  0
 25 46  1  0
 26 47  1  0
 27 48  1  0
 28 49  1  0
 29 50  1  0
M  END
>  <smiles>  (37) 
O=C1CC(c2cccc(C(=O)N3CCC3)c2)=Nc2ccc(Oc3ccccc3)cc21

>  <score_type>  (37) 
oracle

>  <origin>  (37) 
autodockgpu

>  <m_score__min__energy>  (37) 
-9.2799999999999994

>  <m_primary>  (37) 
energy

>  <rmsd>  (37) 
6.378588732605735

>  <m_score__min__rmsd>  (37) 
6.378588732605735

>  <meeko>  (37) 
{"free_energy": -9.17, "intermolecular_energy": -10.36, "internal_energy": -1.02, "cluster_size": 48, "cluster_id": 1, "rank_in_cluster": 25}

>  <energy>  (37) 
-9.11

>  <cluster_rmsd>  (37) 
0.67

>  <cluster>  (37) 
1

$$$$

     RDKit          3D

 50 54  0  0  0  0  0  0  0  0999 V2000
  143.0180   73.6300  220.1690 O   0  0  0  0  0  0  0  0  0  0  0  0
  141.9580   73.5260  220.8410 C   0  0  0  0  0  0  0  0  0  0  0  0
  141.4150   72.2000  221.2220 C   0  0  0  0  0  0  0  0  0  0  0  0
  140.1690   72.3450  222.0060 C   0  0  0  0  0  0  0  0  0  0  0  0
  139.5060   71.1260  222.5060 C   0  0  0  0  0  0  0  0  0  0  0  0
  138.6800   70.3970  221.6750 C   0  0  0  0  0  0  0  0  0  0  0  0
  138.0900   69.2370  222.1440 C   0  0  0  0  0  0  0  0  0  0  0  0
  138.3380   68.8280  223.4340 C   0  0  0  0  0  0  0  0  0  0  0  0
  139.1540   69.5200  224.3080 C   0  0  0  0  0  0  0  0  0  0  0  0
  139.4480   69.1390  225.6540 C   0  0  0  0  0  0  0  0  0  0  0  0
  139.2490   67.9150  225.9830 O   0  0  0  0  0  0  0  0  0  0  0  0
  139.9450   69.9760  226.6850 N   0  0  0  0  0  0  0  0  0  0  0  0
  140.3430   71.3570  226.9000 C   0  0  0  0  0  0  0  0  0  0  0  0
  141.1520   70.9260  228.1280 C   0  0  0  0  0  0  0  0  0  0  0  0
  140.2260   69.7630  228.1080 C   0  0  0  0  0  0  0  0  0  0  0  0
  139.7270   70.6790  223.7970 C   0  0  0  0  0  0  0  0  0  0  0  0
  139.6200   73.4600  222.3180 N   0  0  0  0  0  0  0  0  0  0  0  0
  140.1520   74.7130  221.9420 C   0  0  0  0  0  0  0  0  0  0  0  0
  139.4710   75.8410  222.3390 C   0  0  0  0  0  0  0  0  0  0  0  0
  140.0160   77.0550  221.9640 C   0  0  0  0  0  0  0  0  0  0  0  0
  141.1610   77.1810  221.2410 C   0  0  0  0  0  0  0  0  0  0  0  0
  141.6080   78.4470  220.9260 O   0  0  0  0  0  0  0  0  0  0  0  0
  141.8060   79.3540  221.9480 C   0  0  0  0  0  0  0  0  0  0  0  0
  142.9210   79.4030  222.7520 C   0  0  0  0  0  0  0  0  0  0  0  0
  143.0130   80.3590  223.7460 C   0  0  0  0  0  0  0  0  0  0  0  0
  141.9740   81.2680  223.9250 C   0  0  0  0  0  0  0  0  0  0  0  0
  140.8410   81.2440  223.1330 C   0  0  0  0  0  0  0  0  0  0  0  0
  140.7910   80.2770  222.1560 C   0  0  0  0  0  0  0  0  0  0  0  0
  141.8210   76.0220  220.8560 C   0  0  0  0  0  0  0  0  0  0  0  0
  141.3140   74.7950  221.2080 C   0  0  0  0  0  0  0  0  0  0  0  0
  141.2016   71.6228  220.3103 H   0  0  0  0  0  0  0  0  0  0  0  0
  142.1608   71.6795  221.8407 H   0  0  0  0  0  0  0  0  0  0  0  0
  138.4918   70.7363  220.6457 H   0  0  0  0  0  0  0  0  0  0  0  0
  137.4290   68.6473  221.4919 H   0  0  0  0  0  0  0  0  0  0  0  0
  137.8617   67.9018  223.7879 H   0  0  0  0  0  0  0  0  0  0  0  0
  140.9505   71.7820  226.0874 H   0  0  0  0  0  0  0  0  0  0  0  0
  139.5857   72.1508  226.9801 H   0  0  0  0  0  0  0  0  0  0  0  0
  142.2109   70.6935  227.9418 H   0  0  0  0  0  0  0  0  0  0  0  0
  141.3203   71.5634  229.0086 H   0  0  0  0  0  0  0  0  0  0  0  0
  140.7143   68.8018  228.3260 H   0  0  0  0  0  0  0  0  0  0  0  0
  139.3959   69.7121  228.8280 H   0  0  0  0  0  0  0  0  0  0  0  0
  140.3874   71.2687  224.4498 H   0  0  0  0  0  0  0  0  0  0  0  0
  138.5415   75.7800  222.9242 H   0  0  0  0  0  0  0  0  0  0  0  0
  139.4926   77.9733  222.2684 H   0  0  0  0  0  0  0  0  0  0  0  0
  143.7386   78.6821  222.6040 H   0  0  0  0  0  0  0  0  0  0  0  0
  143.9023   80.4013  224.3920 H   0  0  0  0  0  0  0  0  0  0  0  0
  142.0566   82.0258  224.7180 H   0  0  0  0  0  0  0  0  0  0  0  0
  140.0205   81.9624  223.2770 H   0  0  0  0  0  0  0  0  0  0  0  0
  139.9032   80.2333  221.5081 H   0  0  0  0  0  0  0  0  0  0  0  0
  142.7494   76.0863  220.2695 H   0  0  0  0  0  0  0  0  0  0  0  0
  1  2  2  0
  2  3  1  0
  3  4  1  0
  4  5  1  0
  5  6  2  0
  6  7  1  0
  7  8  2  0
  8  9  1  0
  9 10  1  0
 10 11  2  0
 10 12  1  0
 12 13  1  0
 13 14  1  0
 14 15  1  0
  9 16  2  0
  4 17  2  0
 17 18  1  0
 18 19  2  0
 19 20  1  0
 20 21  2  0
 21 22  1  0
 22 23  1  0
 23 24  2  0
 24 25  1  0
 25 26  2  0
 26 27  1  0
 27 28  2  0
 21 29  1  0
 29 30  2  0
 30  2  1  0
 16  5  1  0
 30 18  1  0
 15 12  1  0
 28 23  1  0
  3 31  1  0
  3 32  1  0
  6 33  1  0
  7 34  1  0
  8 35  1  0
 13 36  1  0
 13 37  1  0
 14 38  1  0
 14 39  1  0
 15 40  1  0
 15 41  1  0
 16 42  1  0
 19 43  1  0
 20 44  1  0
 24 45  1  0
 25 46  1  0
 26 47  1  0
 27 48  1  0
 28 49  1  0
 29 50  1  0
M  END
>  <smiles>  (38) 
O=C1CC(c2cccc(C(=O)N3CCC3)c2)=Nc2ccc(Oc3ccccc3)cc21

>  <score_type>  (38) 
oracle

>  <origin>  (38) 
autodockgpu

>  <m_score__min__energy>  (38) 
-9.2799999999999994

>  <m_primary>  (38) 
energy

>  <rmsd>  (38) 
6.266005991786082

>  <m_score__min__rmsd>  (38) 
6.266005991786082

>  <meeko>  (38) 
{"free_energy": -9.15, "intermolecular_energy": -10.34, "internal_energy": -1.02, "cluster_size": 48, "cluster_id": 1, "rank_in_cluster": 30}

>  <energy>  (38) 
-9.08

>  <cluster_rmsd>  (38) 
0.27

>  <cluster>  (38) 
1

$$$$

     RDKit          3D

 50 54  0  0  0  0  0  0  0  0999 V2000
  143.0680   74.2080  220.1640 O   0  0  0  0  0  0  0  0  0  0  0  0
  142.0220   73.9830  220.8300 C   0  0  0  0  0  0  0  0  0  0  0  0
  141.6090   72.6000  221.1690 C   0  0  0  0  0  0  0  0  0  0  0  0
  140.3550   72.6020  221.9550 C   0  0  0  0  0  0  0  0  0  0  0  0
  139.8130   71.3100  222.4160 C   0  0  0  0  0  0  0  0  0  0  0  0
  139.2640   70.4270  221.5100 C   0  0  0  0  0  0  0  0  0  0  0  0
  138.7880   69.2040  221.9490 C   0  0  0  0  0  0  0  0  0  0  0  0
  138.8720   68.8880  223.2850 C   0  0  0  0  0  0  0  0  0  0  0  0
  139.4100   69.7360  224.2340 C   0  0  0  0  0  0  0  0  0  0  0  0
  139.5250   69.4570  225.6320 C   0  0  0  0  0  0  0  0  0  0  0  0
  139.1910   68.2860  226.0350 O   0  0  0  0  0  0  0  0  0  0  0  0
  139.9750   70.3450  226.6420 N   0  0  0  0  0  0  0  0  0  0  0  0
  140.4590   71.7080  226.7880 C   0  0  0  0  0  0  0  0  0  0  0  0
  141.0930   71.3310  228.1320 C   0  0  0  0  0  0  0  0  0  0  0  0
  140.0820   70.2410  228.1000 C   0  0  0  0  0  0  0  0  0  0  0  0
  139.8760   70.9530  223.7520 C   0  0  0  0  0  0  0  0  0  0  0  0
  139.7020   73.6490  222.2980 N   0  0  0  0  0  0  0  0  0  0  0  0
  140.1110   74.9580  221.9600 C   0  0  0  0  0  0  0  0  0  0  0  0
  139.3240   76.0030  222.3890 C   0  0  0  0  0  0  0  0  0  0  0  0
  139.7500   77.2750  222.0520 C   0  0  0  0  0  0  0  0  0  0  0  0
  140.8780   77.5310  221.3360 C   0  0  0  0  0  0  0  0  0  0  0  0
  141.2010   78.8440  221.0600 O   0  0  0  0  0  0  0  0  0  0  0  0
  141.5300   79.6800  222.1080 C   0  0  0  0  0  0  0  0  0  0  0  0
  140.6360   80.4580  222.8060 C   0  0  0  0  0  0  0  0  0  0  0  0
  141.0800   81.2580  223.8420 C   0  0  0  0  0  0  0  0  0  0  0  0
  142.4320   81.2680  224.1720 C   0  0  0  0  0  0  0  0  0  0  0  0
  143.3540   80.4970  223.4900 C   0  0  0  0  0  0  0  0  0  0  0  0
  142.8700   79.7160  222.4670 C   0  0  0  0  0  0  0  0  0  0  0  0
  141.6460   76.4530  220.9190 C   0  0  0  0  0  0  0  0  0  0  0  0
  141.2600   75.1730  221.2320 C   0  0  0  0  0  0  0  0  0  0  0  0
  141.4508   72.0331  220.2397 H   0  0  0  0  0  0  0  0  0  0  0  0
  142.4018   72.1340  221.7725 H   0  0  0  0  0  0  0  0  0  0  0  0
  139.2048   70.6934  220.4444 H   0  0  0  0  0  0  0  0  0  0  0  0
  138.3468   68.4915  221.2365 H   0  0  0  0  0  0  0  0  0  0  0  0
  138.4914   67.9101  223.6149 H   0  0  0  0  0  0  0  0  0  0  0  0
  141.1833   72.0134  226.0185 H   0  0  0  0  0  0  0  0  0  0  0  0
  139.7651   72.5585  226.7160 H   0  0  0  0  0  0  0  0  0  0  0  0
  142.1431   71.0066  228.0877 H   0  0  0  0  0  0  0  0  0  0  0  0
  141.2171   72.0307  228.9717 H   0  0  0  0  0  0  0  0  0  0  0  0
  140.4633   69.2703  228.4499 H   0  0  0  0  0  0  0  0  0  0  0  0
  139.1775   70.3154  228.7216 H   0  0  0  0  0  0  0  0  0  0  0  0
  140.3154   71.6659  224.4652 H   0  0  0  0  0  0  0  0  0  0  0  0
  138.4047   75.8351  222.9693 H   0  0  0  0  0  0  0  0  0  0  0  0
  139.1411   78.1295  222.3822 H   0  0  0  0  0  0  0  0  0  0  0  0
  139.5687   80.4436  222.5400 H   0  0  0  0  0  0  0  0  0  0  0  0
  140.3690   81.8830  224.4023 H   0  0  0  0  0  0  0  0  0  0  0  0
  142.7762   81.9072  224.9984 H   0  0  0  0  0  0  0  0  0  0  0  0
  144.4222   80.5075  223.7525 H   0  0  0  0  0  0  0  0  0  0  0  0
  143.5792   79.0895  221.9061 H   0  0  0  0  0  0  0  0  0  0  0  0
  142.5641   76.6240  220.3377 H   0  0  0  0  0  0  0  0  0  0  0  0
  1  2  2  0
  2  3  1  0
  3  4  1  0
  4  5  1  0
  5  6  2  0
  6  7  1  0
  7  8  2  0
  8  9  1  0
  9 10  1  0
 10 11  2  0
 10 12  1  0
 12 13  1  0
 13 14  1  0
 14 15  1  0
  9 16  2  0
  4 17  2  0
 17 18  1  0
 18 19  2  0
 19 20  1  0
 20 21  2  0
 21 22  1  0
 22 23  1  0
 23 24  2  0
 24 25  1  0
 25 26  2  0
 26 27  1  0
 27 28  2  0
 21 29  1  0
 29 30  2  0
 30  2  1  0
 16  5  1  0
 30 18  1  0
 15 12  1  0
 28 23  1  0
  3 31  1  0
  3 32  1  0
  6 33  1  0
  7 34  1  0
  8 35  1  0
 13 36  1  0
 13 37  1  0
 14 38  1  0
 14 39  1  0
 15 40  1  0
 15 41  1  0
 16 42  1  0
 19 43  1  0
 20 44  1  0
 24 45  1  0
 25 46  1  0
 26 47  1  0
 27 48  1  0
 28 49  1  0
 29 50  1  0
M  END
>  <smiles>  (39) 
O=C1CC(c2cccc(C(=O)N3CCC3)c2)=Nc2ccc(Oc3ccccc3)cc21

>  <score_type>  (39) 
oracle

>  <origin>  (39) 
autodockgpu

>  <m_score__min__energy>  (39) 
-9.2799999999999994

>  <m_primary>  (39) 
energy

>  <rmsd>  (39) 
6.344520283040948

>  <m_score__min__rmsd>  (39) 
6.344520283040948

>  <meeko>  (39) 
{"free_energy": -9.15, "intermolecular_energy": -10.35, "internal_energy": -1.02, "cluster_size": 48, "cluster_id": 1, "rank_in_cluster": 29}

>  <energy>  (39) 
-9.06

>  <cluster_rmsd>  (39) 
0.38

>  <cluster>  (39) 
1

$$$$

     RDKit          3D

 50 54  0  0  0  0  0  0  0  0999 V2000
  143.1890   74.0770  220.1280 O   0  0  0  0  0  0  0  0  0  0  0  0
  142.1530   73.9000  220.8210 C   0  0  0  0  0  0  0  0  0  0  0  0
  141.7220   72.5410  221.2280 C   0  0  0  0  0  0  0  0  0  0  0  0
  140.4840   72.6000  222.0350 C   0  0  0  0  0  0  0  0  0  0  0  0
  139.9280   71.3390  222.5620 C   0  0  0  0  0  0  0  0  0  0  0  0
  139.3220   70.4400  221.7090 C   0  0  0  0  0  0  0  0  0  0  0  0
  138.8340   69.2450  222.2080 C   0  0  0  0  0  0  0  0  0  0  0  0
  138.9600   68.9740  223.5500 C   0  0  0  0  0  0  0  0  0  0  0  0
  139.5550   69.8390  224.4480 C   0  0  0  0  0  0  0  0  0  0  0  0
  139.7160   69.6050  225.8500 C   0  0  0  0  0  0  0  0  0  0  0  0
  139.3860   68.4520  226.3030 O   0  0  0  0  0  0  0  0  0  0  0  0
  140.2100   70.5220  226.8130 N   0  0  0  0  0  0  0  0  0  0  0  0
  140.7130   71.8830  226.8960 C   0  0  0  0  0  0  0  0  0  0  0  0
  141.3890   71.5450  228.2290 C   0  0  0  0  0  0  0  0  0  0  0  0
  140.3670   70.4650  228.2690 C   0  0  0  0  0  0  0  0  0  0  0  0
  140.0320   71.0270  223.9060 C   0  0  0  0  0  0  0  0  0  0  0  0
  139.8550   73.6720  222.3440 N   0  0  0  0  0  0  0  0  0  0  0  0
  140.2810   74.9580  221.9430 C   0  0  0  0  0  0  0  0  0  0  0  0
  139.5210   76.0350  222.3400 C   0  0  0  0  0  0  0  0  0  0  0  0
  139.9620   77.2820  221.9410 C   0  0  0  0  0  0  0  0  0  0  0  0
  141.0810   77.4870  221.1940 C   0  0  0  0  0  0  0  0  0  0  0  0
  141.4210   78.7800  220.8560 O   0  0  0  0  0  0  0  0  0  0  0  0
  141.7390   79.6680  221.8640 C   0  0  0  0  0  0  0  0  0  0  0  0
  142.5690   79.3900  222.9250 C   0  0  0  0  0  0  0  0  0  0  0  0
  142.8180   80.3610  223.8770 C   0  0  0  0  0  0  0  0  0  0  0  0
  142.2270   81.6140  223.7540 C   0  0  0  0  0  0  0  0  0  0  0  0
  141.3890   81.9230  222.6990 C   0  0  0  0  0  0  0  0  0  0  0  0
  141.1680   80.9290  221.7740 C   0  0  0  0  0  0  0  0  0  0  0  0
  141.8220   76.3780  220.8100 C   0  0  0  0  0  0  0  0  0  0  0  0
  141.4190   75.1200  221.1860 C   0  0  0  0  0  0  0  0  0  0  0  0
  141.5366   71.9371  220.3275 H   0  0  0  0  0  0  0  0  0  0  0  0
  142.5177   72.0875  221.8373 H   0  0  0  0  0  0  0  0  0  0  0  0
  139.2272   70.6718  220.6379 H   0  0  0  0  0  0  0  0  0  0  0  0
  138.3502   68.5193  221.5377 H   0  0  0  0  0  0  0  0  0  0  0  0
  138.5667   68.0189  223.9283 H   0  0  0  0  0  0  0  0  0  0  0  0
  141.4134   72.1537  226.0921 H   0  0  0  0  0  0  0  0  0  0  0  0
  140.0258   72.7385  226.8190 H   0  0  0  0  0  0  0  0  0  0  0  0
  142.4339   71.2081  228.1599 H   0  0  0  0  0  0  0  0  0  0  0  0
  141.5486   72.2714  229.0395 H   0  0  0  0  0  0  0  0  0  0  0  0
  140.7511   69.5024  228.6377 H   0  0  0  0  0  0  0  0  0  0  0  0
  139.4857   70.5694  228.9189 H   0  0  0  0  0  0  0  0  0  0  0  0
  140.5146   71.7529  224.5770 H   0  0  0  0  0  0  0  0  0  0  0  0
  138.6100   75.9093  222.9435 H   0  0  0  0  0  0  0  0  0  0  0  0
  139.3742   78.1607  222.2449 H   0  0  0  0  0  0  0  0  0  0  0  0
  143.0337   78.3971  223.0158 H   0  0  0  0  0  0  0  0  0  0  0  0
  143.4804   80.1436  224.7278 H   0  0  0  0  0  0  0  0  0  0  0  0
  142.4320   82.3797  224.5167 H   0  0  0  0  0  0  0  0  0  0  0  0
  140.9221   82.9144  222.6038 H   0  0  0  0  0  0  0  0  0  0  0  0
  140.5066   81.1445  220.9219 H   0  0  0  0  0  0  0  0  0  0  0  0
  142.7315   76.5066  220.2048 H   0  0  0  0  0  0  0  0  0  0  0  0
  1  2  2  0
  2  3  1  0
  3  4  1  0
  4  5  1  0
  5  6  2  0
  6  7  1  0
  7  8  2  0
  8  9  1  0
  9 10  1  0
 10 11  2  0
 10 12  1  0
 12 13  1  0
 13 14  1  0
 14 15  1  0
  9 16  2  0
  4 17  2  0
 17 18  1  0
 18 19  2  0
 19 20  1  0
 20 21  2  0
 21 22  1  0
 22 23  1  0
 23 24  2  0
 24 25  1  0
 25 26  2  0
 26 27  1  0
 27 28  2  0
 21 29  1  0
 29 30  2  0
 30  2  1  0
 16  5  1  0
 30 18  1  0
 15 12  1  0
 28 23  1  0
  3 31  1  0
  3 32  1  0
  6 33  1  0
  7 34  1  0
  8 35  1  0
 13 36  1  0
 13 37  1  0
 14 38  1  0
 14 39  1  0
 15 40  1  0
 15 41  1  0
 16 42  1  0
 19 43  1  0
 20 44  1  0
 24 45  1  0
 25 46  1  0
 26 47  1  0
 27 48  1  0
 28 49  1  0
 29 50  1  0
M  END
>  <smiles>  (40) 
O=C1CC(c2cccc(C(=O)N3CCC3)c2)=Nc2ccc(Oc3ccccc3)cc21

>  <score_type>  (40) 
oracle

>  <origin>  (40) 
autodockgpu

>  <m_score__min__energy>  (40) 
-9.2799999999999994

>  <m_primary>  (40) 
energy

>  <rmsd>  (40) 
6.402764186301188

>  <m_score__min__rmsd>  (40) 
6.402764186301188

>  <meeko>  (40) 
{"free_energy": -9.28, "intermolecular_energy": -10.47, "internal_energy": -1.02, "cluster_size": 48, "cluster_id": 1, "rank_in_cluster": 1}

>  <energy>  (40) 
-9.06

>  <cluster_rmsd>  (40) 
0.6

>  <cluster>  (40) 
1

$$$$

     RDKit          3D

 50 54  0  0  0  0  0  0  0  0999 V2000
  143.0770   74.0180  220.0050 O   0  0  0  0  0  0  0  0  0  0  0  0
  142.0630   73.8920  220.7410 C   0  0  0  0  0  0  0  0  0  0  0  0
  141.6020   72.5570  221.1940 C   0  0  0  0  0  0  0  0  0  0  0  0
  140.3990   72.6770  222.0470 C   0  0  0  0  0  0  0  0  0  0  0  0
  139.8200   71.4480  222.6220 C   0  0  0  0  0  0  0  0  0  0  0  0
  138.9680   70.6670  221.8690 C   0  0  0  0  0  0  0  0  0  0  0  0
  138.4570   69.4980  222.4060 C   0  0  0  0  0  0  0  0  0  0  0  0
  138.8080   69.1350  223.6860 C   0  0  0  0  0  0  0  0  0  0  0  0
  139.6550   69.8810  224.4830 C   0  0  0  0  0  0  0  0  0  0  0  0
  140.0550   69.5480  225.8150 C   0  0  0  0  0  0  0  0  0  0  0  0
  140.1160   68.3060  226.1260 O   0  0  0  0  0  0  0  0  0  0  0  0
  140.3980   70.4550  226.8510 N   0  0  0  0  0  0  0  0  0  0  0  0
  140.5130   71.8850  227.0830 C   0  0  0  0  0  0  0  0  0  0  0  0
  141.4240   71.6100  228.2840 C   0  0  0  0  0  0  0  0  0  0  0  0
  140.7530   70.2830  228.2620 C   0  0  0  0  0  0  0  0  0  0  0  0
  140.1450   71.0460  223.9050 C   0  0  0  0  0  0  0  0  0  0  0  0
  139.8210   73.7780  222.3570 N   0  0  0  0  0  0  0  0  0  0  0  0
  140.2760   75.0390  221.9120 C   0  0  0  0  0  0  0  0  0  0  0  0
  139.5710   76.1500  222.3150 C   0  0  0  0  0  0  0  0  0  0  0  0
  140.0400   77.3730  221.8720 C   0  0  0  0  0  0  0  0  0  0  0  0
  141.1340   77.5220  221.0780 C   0  0  0  0  0  0  0  0  0  0  0  0
  141.5070   78.7950  220.6990 O   0  0  0  0  0  0  0  0  0  0  0  0
  141.6900   79.7520  221.6770 C   0  0  0  0  0  0  0  0  0  0  0  0
  141.1310   81.0080  221.6650 C   0  0  0  0  0  0  0  0  0  0  0  0
  141.3820   81.8840  222.7040 C   0  0  0  0  0  0  0  0  0  0  0  0
  142.2020   81.4870  223.7560 C   0  0  0  0  0  0  0  0  0  0  0  0
  142.7790   80.2320  223.7960 C   0  0  0  0  0  0  0  0  0  0  0  0
  142.5020   79.3910  222.7430 C   0  0  0  0  0  0  0  0  0  0  0  0
  141.8200   76.3800  220.6890 C   0  0  0  0  0  0  0  0  0  0  0  0
  141.3890   75.1450  221.1070 C   0  0  0  0  0  0  0  0  0  0  0  0
  141.3605   71.9416  220.3148 H   0  0  0  0  0  0  0  0  0  0  0  0
  142.4049   72.0879  221.7816 H   0  0  0  0  0  0  0  0  0  0  0  0
  138.6962   70.9715  220.8475 H   0  0  0  0  0  0  0  0  0  0  0  0
  137.7774   68.8658  221.8157 H   0  0  0  0  0  0  0  0  0  0  0  0
  138.3927   68.2026  224.0960 H   0  0  0  0  0  0  0  0  0  0  0  0
  141.0005   72.4359  226.2651 H   0  0  0  0  0  0  0  0  0  0  0  0
  139.6129   72.5073  227.1951 H   0  0  0  0  0  0  0  0  0  0  0  0
  142.5029   71.6006  228.0697 H   0  0  0  0  0  0  0  0  0  0  0  0
  141.4821   72.2555  229.1728 H   0  0  0  0  0  0  0  0  0  0  0  0
  141.4318   69.4381  228.4501 H   0  0  0  0  0  0  0  0  0  0  0  0
  139.9695   70.0538  228.9993 H   0  0  0  0  0  0  0  0  0  0  0  0
  140.8237   71.6786  224.4960 H   0  0  0  0  0  0  0  0  0  0  0  0
  138.6808   76.0693  222.9561 H   0  0  0  0  0  0  0  0  0  0  0  0
  139.4964   78.2784  222.1798 H   0  0  0  0  0  0  0  0  0  0  0  0
  140.4848   81.3153  220.8295 H   0  0  0  0  0  0  0  0  0  0  0  0
  140.9361   82.8896  222.6995 H   0  0  0  0  0  0  0  0  0  0  0  0
  142.3961   82.1915  224.5782 H   0  0  0  0  0  0  0  0  0  0  0  0
  143.4275   79.9209  224.6283 H   0  0  0  0  0  0  0  0  0  0  0  0
  142.9453   78.3843  222.7462 H   0  0  0  0  0  0  0  0  0  0  0  0
  142.7086   76.4641  220.0461 H   0  0  0  0  0  0  0  0  0  0  0  0
  1  2  2  0
  2  3  1  0
  3  4  1  0
  4  5  1  0
  5  6  2  0
  6  7  1  0
  7  8  2  0
  8  9  1  0
  9 10  1  0
 10 11  2  0
 10 12  1  0
 12 13  1  0
 13 14  1  0
 14 15  1  0
  9 16  2  0
  4 17  2  0
 17 18  1  0
 18 19  2  0
 19 20  1  0
 20 21  2  0
 21 22  1  0
 22 23  1  0
 23 24  2  0
 24 25  1  0
 25 26  2  0
 26 27  1  0
 27 28  2  0
 21 29  1  0
 29 30  2  0
 30  2  1  0
 16  5  1  0
 30 18  1  0
 15 12  1  0
 28 23  1  0
  3 31  1  0
  3 32  1  0
  6 33  1  0
  7 34  1  0
  8 35  1  0
 13 36  1  0
 13 37  1  0
 14 38  1  0
 14 39  1  0
 15 40  1  0
 15 41  1  0
 16 42  1  0
 19 43  1  0
 20 44  1  0
 24 45  1  0
 25 46  1  0
 26 47  1  0
 27 48  1  0
 28 49  1  0
 29 50  1  0
M  END
>  <smiles>  (41) 
O=C1CC(c2cccc(C(=O)N3CCC3)c2)=Nc2ccc(Oc3ccccc3)cc21

>  <score_type>  (41) 
oracle

>  <origin>  (41) 
autodockgpu

>  <m_score__min__energy>  (41) 
-9.2799999999999994

>  <m_primary>  (41) 
energy

>  <rmsd>  (41) 
6.459452172873175

>  <m_score__min__rmsd>  (41) 
6.459452172873175

>  <meeko>  (41) 
{"free_energy": -9.2, "intermolecular_energy": -10.39, "internal_energy": -1.04, "cluster_size": 48, "cluster_id": 1, "rank_in_cluster": 21}

>  <energy>  (41) 
-9.02

>  <cluster_rmsd>  (41) 
0.32

>  <cluster>  (41) 
1

$$$$

     RDKit          3D

 50 54  0  0  0  0  0  0  0  0999 V2000
  143.0840   74.1200  219.7400 O   0  0  0  0  0  0  0  0  0  0  0  0
  142.1280   73.9560  220.5440 C   0  0  0  0  0  0  0  0  0  0  0  0
  141.7240   72.6010  220.9920 C   0  0  0  0  0  0  0  0  0  0  0  0
  140.5840   72.6760  221.9320 C   0  0  0  0  0  0  0  0  0  0  0  0
  140.0700   71.4210  222.5140 C   0  0  0  0  0  0  0  0  0  0  0  0
  139.6800   70.3850  221.6910 C   0  0  0  0  0  0  0  0  0  0  0  0
  139.2310   69.2000  222.2470 C   0  0  0  0  0  0  0  0  0  0  0  0
  139.1800   69.0760  223.6160 C   0  0  0  0  0  0  0  0  0  0  0  0
  139.5560   70.0820  224.4860 C   0  0  0  0  0  0  0  0  0  0  0  0
  139.5270   70.0040  225.9140 C   0  0  0  0  0  0  0  0  0  0  0  0
  138.8620   69.0440  226.4440 O   0  0  0  0  0  0  0  0  0  0  0  0
  140.1630   70.8840  226.8260 N   0  0  0  0  0  0  0  0  0  0  0  0
  141.0030   72.0710  226.8230 C   0  0  0  0  0  0  0  0  0  0  0  0
  141.4460   71.7520  228.2550 C   0  0  0  0  0  0  0  0  0  0  0  0
  140.1730   70.9840  228.2880 C   0  0  0  0  0  0  0  0  0  0  0  0
  140.0010   71.2540  223.8860 C   0  0  0  0  0  0  0  0  0  0  0  0
  140.0100   73.7560  222.3120 N   0  0  0  0  0  0  0  0  0  0  0  0
  140.4090   75.0370  221.8690 C   0  0  0  0  0  0  0  0  0  0  0  0
  139.7150   76.1240  222.3510 C   0  0  0  0  0  0  0  0  0  0  0  0
  140.1290   77.3660  221.9080 C   0  0  0  0  0  0  0  0  0  0  0  0
  141.1610   77.5570  221.0420 C   0  0  0  0  0  0  0  0  0  0  0  0
  141.4820   78.8460  220.6720 O   0  0  0  0  0  0  0  0  0  0  0  0
  141.6900   79.7880  221.6600 C   0  0  0  0  0  0  0  0  0  0  0  0
  141.1420   81.0490  221.6720 C   0  0  0  0  0  0  0  0  0  0  0  0
  141.4170   81.9100  222.7180 C   0  0  0  0  0  0  0  0  0  0  0  0
  142.2490   81.4920  223.7520 C   0  0  0  0  0  0  0  0  0  0  0  0
  142.8140   80.2310  223.7670 C   0  0  0  0  0  0  0  0  0  0  0  0
  142.5140   79.4070  222.7080 C   0  0  0  0  0  0  0  0  0  0  0  0
  141.8370   76.4380  220.5760 C   0  0  0  0  0  0  0  0  0  0  0  0
  141.4590   75.1850  220.9900 C   0  0  0  0  0  0  0  0  0  0  0  0
  141.4302   72.0043  220.1159 H   0  0  0  0  0  0  0  0  0  0  0  0
  142.5752   72.1319  221.5072 H   0  0  0  0  0  0  0  0  0  0  0  0
  139.7257   70.5003  220.5980 H   0  0  0  0  0  0  0  0  0  0  0  0
  138.9183   68.3662  221.6012 H   0  0  0  0  0  0  0  0  0  0  0  0
  138.8213   68.1267  224.0405 H   0  0  0  0  0  0  0  0  0  0  0  0
  141.8170   72.0446  226.0836 H   0  0  0  0  0  0  0  0  0  0  0  0
  140.5792   73.0553  226.5749 H   0  0  0  0  0  0  0  0  0  0  0  0
  142.3644   71.1535  228.3460 H   0  0  0  0  0  0  0  0  0  0  0  0
  141.7236   72.5148  228.9973 H   0  0  0  0  0  0  0  0  0  0  0  0
  140.2522   70.0135  228.7997 H   0  0  0  0  0  0  0  0  0  0  0  0
  139.2992   71.3958  228.8142 H   0  0  0  0  0  0  0  0  0  0  0  0
  140.3130   72.0879  224.5320 H   0  0  0  0  0  0  0  0  0  0  0  0
  138.8750   76.0100  223.0520 H   0  0  0  0  0  0  0  0  0  0  0  0
  139.5925   78.2524  222.2773 H   0  0  0  0  0  0  0  0  0  0  0  0
  140.4857   81.3722  220.8505 H   0  0  0  0  0  0  0  0  0  0  0  0
  140.9807   82.9196  222.7328 H   0  0  0  0  0  0  0  0  0  0  0  0
  142.4627   82.1840  224.5799 H   0  0  0  0  0  0  0  0  0  0  0  0
  143.4712   79.9027  224.5857 H   0  0  0  0  0  0  0  0  0  0  0  0
  142.9487   78.3967  222.6914 H   0  0  0  0  0  0  0  0  0  0  0  0
  142.6762   76.5553  219.8745 H   0  0  0  0  0  0  0  0  0  0  0  0
  1  2  2  0
  2  3  1  0
  3  4  1  0
  4  5  1  0
  5  6  2  0
  6  7  1  0
  7  8  2  0
  8  9  1  0
  9 10  1  0
 10 11  2  0
 10 12  1  0
 12 13  1  0
 13 14  1  0
 14 15  1  0
  9 16  2  0
  4 17  2  0
 17 18  1  0
 18 19  2  0
 19 20  1  0
 20 21  2  0
 21 22  1  0
 22 23  1  0
 23 24  2  0
 24 25  1  0
 25 26  2  0
 26 27  1  0
 27 28  2  0
 21 29  1  0
 29 30  2  0
 30  2  1  0
 16  5  1  0
 30 18  1  0
 15 12  1  0
 28 23  1  0
  3 31  1  0
  3 32  1  0
  6 33  1  0
  7 34  1  0
  8 35  1  0
 13 36  1  0
 13 37  1  0
 14 38  1  0
 14 39  1  0
 15 40  1  0
 15 41  1  0
 16 42  1  0
 19 43  1  0
 20 44  1  0
 24 45  1  0
 25 46  1  0
 26 47  1  0
 27 48  1  0
 28 49  1  0
 29 50  1  0
M  END
>  <smiles>  (42) 
O=C1CC(c2cccc(C(=O)N3CCC3)c2)=Nc2ccc(Oc3ccccc3)cc21

>  <score_type>  (42) 
oracle

>  <origin>  (42) 
autodockgpu

>  <m_score__min__energy>  (42) 
-9.2799999999999994

>  <m_primary>  (42) 
energy

>  <rmsd>  (42) 
6.509152748441139

>  <m_score__min__rmsd>  (42) 
6.509152748441139

>  <meeko>  (42) 
{"free_energy": -9.2, "intermolecular_energy": -10.4, "internal_energy": -1.02, "cluster_size": 48, "cluster_id": 1, "rank_in_cluster": 18}

>  <energy>  (42) 
-9.01

>  <cluster_rmsd>  (42) 
0.9

>  <cluster>  (42) 
1

$$$$

     RDKit          3D

 50 54  0  0  0  0  0  0  0  0999 V2000
  143.2730   74.2950  220.0530 O   0  0  0  0  0  0  0  0  0  0  0  0
  142.2420   74.0930  220.7470 C   0  0  0  0  0  0  0  0  0  0  0  0
  141.8610   72.7270  221.1800 C   0  0  0  0  0  0  0  0  0  0  0  0
  140.6190   72.7560  221.9830 C   0  0  0  0  0  0  0  0  0  0  0  0
  140.1080   71.4860  222.5340 C   0  0  0  0  0  0  0  0  0  0  0  0
  139.7680   70.4520  221.6870 C   0  0  0  0  0  0  0  0  0  0  0  0
  139.3220   69.2530  222.2160 C   0  0  0  0  0  0  0  0  0  0  0  0
  139.2260   69.1130  223.5810 C   0  0  0  0  0  0  0  0  0  0  0  0
  139.5510   70.1170  224.4730 C   0  0  0  0  0  0  0  0  0  0  0  0
  139.4730   70.0230  225.8980 C   0  0  0  0  0  0  0  0  0  0  0  0
  138.7290   69.1040  226.3950 O   0  0  0  0  0  0  0  0  0  0  0  0
  140.1380   70.8480  226.8410 N   0  0  0  0  0  0  0  0  0  0  0  0
  141.0550   71.9750  226.8800 C   0  0  0  0  0  0  0  0  0  0  0  0
  141.4320   71.6090  228.3200 C   0  0  0  0  0  0  0  0  0  0  0  0
  140.1100   70.9280  228.3040 C   0  0  0  0  0  0  0  0  0  0  0  0
  139.9940   71.3030  223.9010 C   0  0  0  0  0  0  0  0  0  0  0  0
  139.9500   73.8100  222.2690 N   0  0  0  0  0  0  0  0  0  0  0  0
  140.3280   75.1030  221.8420 C   0  0  0  0  0  0  0  0  0  0  0  0
  139.5270   76.1580  222.2160 C   0  0  0  0  0  0  0  0  0  0  0  0
  139.9230   77.4130  221.7920 C   0  0  0  0  0  0  0  0  0  0  0  0
  141.0350   77.6440  221.0440 C   0  0  0  0  0  0  0  0  0  0  0  0
  141.3280   78.9420  220.6800 O   0  0  0  0  0  0  0  0  0  0  0  0
  141.5830   79.8680  221.6720 C   0  0  0  0  0  0  0  0  0  0  0  0
  141.1460   81.1720  221.6640 C   0  0  0  0  0  0  0  0  0  0  0  0
  141.4590   82.0110  222.7160 C   0  0  0  0  0  0  0  0  0  0  0  0
  142.2170   81.5280  223.7790 C   0  0  0  0  0  0  0  0  0  0  0  0
  142.6700   80.2230  223.8160 C   0  0  0  0  0  0  0  0  0  0  0  0
  142.3350   79.4220  222.7490 C   0  0  0  0  0  0  0  0  0  0  0  0
  141.8190   76.5560  220.6840 C   0  0  0  0  0  0  0  0  0  0  0  0
  141.4620   75.2920  221.0850 C   0  0  0  0  0  0  0  0  0  0  0  0
  141.7009   72.0988  220.2913 H   0  0  0  0  0  0  0  0  0  0  0  0
  142.6712   72.3155  221.7998 H   0  0  0  0  0  0  0  0  0  0  0  0
  139.8507   70.5793  220.5975 H   0  0  0  0  0  0  0  0  0  0  0  0
  139.0472   68.4206  221.5515 H   0  0  0  0  0  0  0  0  0  0  0  0
  138.8723   68.1522  223.9832 H   0  0  0  0  0  0  0  0  0  0  0  0
  141.8874   71.9030  226.1646 H   0  0  0  0  0  0  0  0  0  0  0  0
  140.7059   72.9887  226.6338 H   0  0  0  0  0  0  0  0  0  0  0  0
  142.3052   70.9490  228.4294 H   0  0  0  0  0  0  0  0  0  0  0  0
  141.7372   72.3420  229.0813 H   0  0  0  0  0  0  0  0  0  0  0  0
  140.1085   69.9478  228.8032 H   0  0  0  0  0  0  0  0  0  0  0  0
  139.2500   71.3907  228.8103 H   0  0  0  0  0  0  0  0  0  0  0  0
  140.2670   72.1357  224.5659 H   0  0  0  0  0  0  0  0  0  0  0  0
  138.6198   76.0105  222.8203 H   0  0  0  0  0  0  0  0  0  0  0  0
  139.3021   78.2753  222.0764 H   0  0  0  0  0  0  0  0  0  0  0  0
  140.5476   81.5467  220.8205 H   0  0  0  0  0  0  0  0  0  0  0  0
  141.1113   83.0546  222.7137 H   0  0  0  0  0  0  0  0  0  0  0  0
  142.4620   82.2033  224.6120 H   0  0  0  0  0  0  0  0  0  0  0  0
  143.2688   79.8435  224.6570 H   0  0  0  0  0  0  0  0  0  0  0  0
  142.6801   78.3775  222.7498 H   0  0  0  0  0  0  0  0  0  0  0  0
  142.7249   76.7063  220.0784 H   0  0  0  0  0  0  0  0  0  0  0  0
  1  2  2  0
  2  3  1  0
  3  4  1  0
  4  5  1  0
  5  6  2  0
  6  7  1  0
  7  8  2  0
  8  9  1  0
  9 10  1  0
 10 11  2  0
 10 12  1  0
 12 13  1  0
 13 14  1  0
 14 15  1  0
  9 16  2  0
  4 17  2  0
 17 18  1  0
 18 19  2  0
 19 20  1  0
 20 21  2  0
 21 22  1  0
 22 23  1  0
 23 24  2  0
 24 25  1  0
 25 26  2  0
 26 27  1  0
 27 28  2  0
 21 29  1  0
 29 30  2  0
 30  2  1  0
 16  5  1  0
 30 18  1  0
 15 12  1  0
 28 23  1  0
  3 31  1  0
  3 32  1  0
  6 33  1  0
  7 34  1  0
  8 35  1  0
 13 36  1  0
 13 37  1  0
 14 38  1  0
 14 39  1  0
 15 40  1  0
 15 41  1  0
 16 42  1  0
 19 43  1  0
 20 44  1  0
 24 45  1  0
 25 46  1  0
 26 47  1  0
 27 48  1  0
 28 49  1  0
 29 50  1  0
M  END
>  <smiles>  (43) 
O=C1CC(c2cccc(C(=O)N3CCC3)c2)=Nc2ccc(Oc3ccccc3)cc21

>  <score_type>  (43) 
oracle

>  <origin>  (43) 
autodockgpu

>  <m_score__min__energy>  (43) 
-9.2799999999999994

>  <m_primary>  (43) 
energy

>  <rmsd>  (43) 
6.525339849925382

>  <m_score__min__rmsd>  (43) 
6.525339849925382

>  <meeko>  (43) 
{"free_energy": -9.14, "intermolecular_energy": -10.33, "internal_energy": -1.03, "cluster_size": 48, "cluster_id": 1, "rank_in_cluster": 32}

>  <energy>  (43) 
-9.01

>  <cluster_rmsd>  (43) 
0.65

>  <cluster>  (43) 
1

$$$$

     RDKit          3D

 50 54  0  0  0  0  0  0  0  0999 V2000
  142.9850   74.1100  220.6760 O   0  0  0  0  0  0  0  0  0  0  0  0
  141.8690   73.8130  221.1790 C   0  0  0  0  0  0  0  0  0  0  0  0
  141.5200   72.4080  221.5010 C   0  0  0  0  0  0  0  0  0  0  0  0
  140.1620   72.3230  222.0830 C   0  0  0  0  0  0  0  0  0  0  0  0
  139.6590   71.0010  222.5020 C   0  0  0  0  0  0  0  0  0  0  0  0
  139.1140   70.1410  221.5700 C   0  0  0  0  0  0  0  0  0  0  0  0
  138.6750   68.8900  221.9680 C   0  0  0  0  0  0  0  0  0  0  0  0
  138.7900   68.5240  223.2890 C   0  0  0  0  0  0  0  0  0  0  0  0
  139.3260   69.3460  224.2620 C   0  0  0  0  0  0  0  0  0  0  0  0
  139.4730   69.0150  225.6450 C   0  0  0  0  0  0  0  0  0  0  0  0
  139.1470   67.8300  226.0120 O   0  0  0  0  0  0  0  0  0  0  0  0
  139.9470   69.8640  226.6770 N   0  0  0  0  0  0  0  0  0  0  0  0
  140.4380   71.2200  226.8620 C   0  0  0  0  0  0  0  0  0  0  0  0
  141.1020   70.7930  228.1760 C   0  0  0  0  0  0  0  0  0  0  0  0
  140.0890   69.7060  228.1270 C   0  0  0  0  0  0  0  0  0  0  0  0
  139.7540   70.5930  223.8200 C   0  0  0  0  0  0  0  0  0  0  0  0
  139.3820   73.3180  222.2830 N   0  0  0  0  0  0  0  0  0  0  0  0
  139.7330   74.6500  221.9650 C   0  0  0  0  0  0  0  0  0  0  0  0
  138.8080   75.6340  222.2300 C   0  0  0  0  0  0  0  0  0  0  0  0
  139.1790   76.9290  221.9160 C   0  0  0  0  0  0  0  0  0  0  0  0
  140.3810   77.2620  221.3740 C   0  0  0  0  0  0  0  0  0  0  0  0
  140.6380   78.5910  221.1040 O   0  0  0  0  0  0  0  0  0  0  0  0
  141.2070   79.3710  222.0920 C   0  0  0  0  0  0  0  0  0  0  0  0
  141.7170   78.8930  223.2760 C   0  0  0  0  0  0  0  0  0  0  0  0
  142.2680   79.7680  224.1920 C   0  0  0  0  0  0  0  0  0  0  0  0
  142.3010   81.1300  223.9080 C   0  0  0  0  0  0  0  0  0  0  0  0
  141.7960   81.6400  222.7270 C   0  0  0  0  0  0  0  0  0  0  0  0
  141.2580   80.7340  221.8430 C   0  0  0  0  0  0  0  0  0  0  0  0
  141.2890   76.2440  221.1200 C   0  0  0  0  0  0  0  0  0  0  0  0
  140.9610   74.9430  221.4160 C   0  0  0  0  0  0  0  0  0  0  0  0
  141.5557   71.8076  220.5800 H   0  0  0  0  0  0  0  0  0  0  0  0
  142.2429   72.0252  222.2365 H   0  0  0  0  0  0  0  0  0  0  0  0
  139.0290   70.4480  220.5171 H   0  0  0  0  0  0  0  0  0  0  0  0
  138.2385   68.1954  221.2352 H   0  0  0  0  0  0  0  0  0  0  0  0
  138.4371   67.5255  223.5862 H   0  0  0  0  0  0  0  0  0  0  0  0
  141.1451   71.5522  226.0876 H   0  0  0  0  0  0  0  0  0  0  0  0
  139.7448   72.0737  226.8376 H   0  0  0  0  0  0  0  0  0  0  0  0
  142.1503   70.4696  228.0955 H   0  0  0  0  0  0  0  0  0  0  0  0
  141.2466   71.4610  229.0379 H   0  0  0  0  0  0  0  0  0  0  0  0
  140.4770   68.7227  228.4312 H   0  0  0  0  0  0  0  0  0  0  0  0
  139.1996   69.7582  228.7722 H   0  0  0  0  0  0  0  0  0  0  0  0
  140.1888   71.2879  224.5535 H   0  0  0  0  0  0  0  0  0  0  0  0
  137.8259   75.4029  222.6682 H   0  0  0  0  0  0  0  0  0  0  0  0
  138.4597   77.7368  222.1164 H   0  0  0  0  0  0  0  0  0  0  0  0
  141.6863   77.8152  223.4936 H   0  0  0  0  0  0  0  0  0  0  0  0
  142.6783   79.3905  225.1402 H   0  0  0  0  0  0  0  0  0  0  0  0
  142.7410   81.8194  224.6436 H   0  0  0  0  0  0  0  0  0  0  0  0
  141.8230   82.7170  222.5050 H   0  0  0  0  0  0  0  0  0  0  0  0
  140.8487   81.1086  220.8932 H   0  0  0  0  0  0  0  0  0  0  0  0
  142.2705   76.4783  220.6821 H   0  0  0  0  0  0  0  0  0  0  0  0
  1  2  2  0
  2  3  1  0
  3  4  1  0
  4  5  1  0
  5  6  2  0
  6  7  1  0
  7  8  2  0
  8  9  1  0
  9 10  1  0
 10 11  2  0
 10 12  1  0
 12 13  1  0
 13 14  1  0
 14 15  1  0
  9 16  2  0
  4 17  2  0
 17 18  1  0
 18 19  2  0
 19 20  1  0
 20 21  2  0
 21 22  1  0
 22 23  1  0
 23 24  2  0
 24 25  1  0
 25 26  2  0
 26 27  1  0
 27 28  2  0
 21 29  1  0
 29 30  2  0
 30  2  1  0
 16  5  1  0
 30 18  1  0
 15 12  1  0
 28 23  1  0
  3 31  1  0
  3 32  1  0
  6 33  1  0
  7 34  1  0
  8 35  1  0
 13 36  1  0
 13 37  1  0
 14 38  1  0
 14 39  1  0
 15 40  1  0
 15 41  1  0
 16 42  1  0
 19 43  1  0
 20 44  1  0
 24 45  1  0
 25 46  1  0
 26 47  1  0
 27 48  1  0
 28 49  1  0
 29 50  1  0
M  END
>  <smiles>  (44) 
O=C1CC(c2cccc(C(=O)N3CCC3)c2)=Nc2ccc(Oc3ccccc3)cc21

>  <score_type>  (44) 
oracle

>  <origin>  (44) 
autodockgpu

>  <m_score__min__energy>  (44) 
-9.2799999999999994

>  <m_primary>  (44) 
energy

>  <rmsd>  (44) 
6.23287141603845

>  <m_score__min__rmsd>  (44) 
6.23287141603845

>  <meeko>  (44) 
{"free_energy": -8.9, "intermolecular_energy": -10.09, "internal_energy": -1.03, "cluster_size": 48, "cluster_id": 1, "rank_in_cluster": 45}

>  <energy>  (44) 
-8.97

>  <cluster_rmsd>  (44) 
0.9

>  <cluster>  (44) 
1

$$$$

     RDKit          3D

 50 54  0  0  0  0  0  0  0  0999 V2000
  143.0640   73.9550  219.9130 O   0  0  0  0  0  0  0  0  0  0  0  0
  142.0710   73.8440  220.6800 C   0  0  0  0  0  0  0  0  0  0  0  0
  141.5980   72.5160  221.1380 C   0  0  0  0  0  0  0  0  0  0  0  0
  140.4250   72.6530  222.0290 C   0  0  0  0  0  0  0  0  0  0  0  0
  139.8410   71.4310  222.6150 C   0  0  0  0  0  0  0  0  0  0  0  0
  138.9510   70.6710  221.8850 C   0  0  0  0  0  0  0  0  0  0  0  0
  138.4340   69.5090  222.4310 C   0  0  0  0  0  0  0  0  0  0  0  0
  138.8180   69.1310  223.6960 C   0  0  0  0  0  0  0  0  0  0  0  0
  139.7040   69.8560  224.4710 C   0  0  0  0  0  0  0  0  0  0  0  0
  140.1390   69.5060  225.7880 C   0  0  0  0  0  0  0  0  0  0  0  0
  140.2680   68.2600  226.0620 O   0  0  0  0  0  0  0  0  0  0  0  0
  140.4500   70.4000  226.8450 N   0  0  0  0  0  0  0  0  0  0  0  0
  140.4960   71.8270  227.1160 C   0  0  0  0  0  0  0  0  0  0  0  0
  141.4370   71.5650  228.2970 C   0  0  0  0  0  0  0  0  0  0  0  0
  140.8340   70.2070  228.2460 C   0  0  0  0  0  0  0  0  0  0  0  0
  140.1980   71.0150  223.8850 C   0  0  0  0  0  0  0  0  0  0  0  0
  139.8780   73.7620  222.3630 N   0  0  0  0  0  0  0  0  0  0  0  0
  140.3430   75.0170  221.9120 C   0  0  0  0  0  0  0  0  0  0  0  0
  139.6710   76.1390  222.3430 C   0  0  0  0  0  0  0  0  0  0  0  0
  140.1500   77.3550  221.8920 C   0  0  0  0  0  0  0  0  0  0  0  0
  141.2220   77.4890  221.0660 C   0  0  0  0  0  0  0  0  0  0  0  0
  141.6060   78.7570  220.6830 O   0  0  0  0  0  0  0  0  0  0  0  0
  141.7560   79.7270  221.6540 C   0  0  0  0  0  0  0  0  0  0  0  0
  141.1630   80.9670  221.6260 C   0  0  0  0  0  0  0  0  0  0  0  0
  141.3820   81.8590  222.6590 C   0  0  0  0  0  0  0  0  0  0  0  0
  142.2030   81.4940  223.7210 C   0  0  0  0  0  0  0  0  0  0  0  0
  142.8130   80.2550  223.7770 C   0  0  0  0  0  0  0  0  0  0  0  0
  142.5680   79.3980  222.7300 C   0  0  0  0  0  0  0  0  0  0  0  0
  141.8730   76.3360  220.6500 C   0  0  0  0  0  0  0  0  0  0  0  0
  141.4320   75.1070  221.0740 C   0  0  0  0  0  0  0  0  0  0  0  0
  141.3170   71.9120  220.2627 H   0  0  0  0  0  0  0  0  0  0  0  0
  142.4094   72.0271  221.6971 H   0  0  0  0  0  0  0  0  0  0  0  0
  138.6537   70.9868  220.8741 H   0  0  0  0  0  0  0  0  0  0  0  0
  137.7234   68.8944  221.8589 H   0  0  0  0  0  0  0  0  0  0  0  0
  138.3984   68.2036  224.1130 H   0  0  0  0  0  0  0  0  0  0  0  0
  140.9434   72.4244  226.3079 H   0  0  0  0  0  0  0  0  0  0  0  0
  139.5674   72.3995  227.2573 H   0  0  0  0  0  0  0  0  0  0  0  0
  142.5118   71.6165  228.0686 H   0  0  0  0  0  0  0  0  0  0  0  0
  141.4750   72.1875  229.2031 H   0  0  0  0  0  0  0  0  0  0  0  0
  141.5574   69.3930  228.4009 H   0  0  0  0  0  0  0  0  0  0  0  0
  140.0740   69.9176  228.9867 H   0  0  0  0  0  0  0  0  0  0  0  0
  140.9066   71.6309  224.4582 H   0  0  0  0  0  0  0  0  0  0  0  0
  138.7994   76.0714  223.0107 H   0  0  0  0  0  0  0  0  0  0  0  0
  139.6331   78.2686  222.2209 H   0  0  0  0  0  0  0  0  0  0  0  0
  140.5152   81.2489  220.7828 H   0  0  0  0  0  0  0  0  0  0  0  0
  140.9096   82.8522  222.6414 H   0  0  0  0  0  0  0  0  0  0  0  0
  142.3713   82.2108  224.5382 H   0  0  0  0  0  0  0  0  0  0  0  0
  143.4623   79.9687  224.6175 H   0  0  0  0  0  0  0  0  0  0  0  0
  143.0383   78.4038  222.7462 H   0  0  0  0  0  0  0  0  0  0  0  0
  142.7427   76.4069  219.9802 H   0  0  0  0  0  0  0  0  0  0  0  0
  1  2  2  0
  2  3  1  0
  3  4  1  0
  4  5  1  0
  5  6  2  0
  6  7  1  0
  7  8  2  0
  8  9  1  0
  9 10  1  0
 10 11  2  0
 10 12  1  0
 12 13  1  0
 13 14  1  0
 14 15  1  0
  9 16  2  0
  4 17  2  0
 17 18  1  0
 18 19  2  0
 19 20  1  0
 20 21  2  0
 21 22  1  0
 22 23  1  0
 23 24  2  0
 24 25  1  0
 25 26  2  0
 26 27  1  0
 27 28  2  0
 21 29  1  0
 29 30  2  0
 30  2  1  0
 16  5  1  0
 30 18  1  0
 15 12  1  0
 28 23  1  0
  3 31  1  0
  3 32  1  0
  6 33  1  0
  7 34  1  0
  8 35  1  0
 13 36  1  0
 13 37  1  0
 14 38  1  0
 14 39  1  0
 15 40  1  0
 15 41  1  0
 16 42  1  0
 19 43  1  0
 20 44  1  0
 24 45  1  0
 25 46  1  0
 26 47  1  0
 27 48  1  0
 28 49  1  0
 29 50  1  0
M  END
>  <smiles>  (45) 
O=C1CC(c2cccc(C(=O)N3CCC3)c2)=Nc2ccc(Oc3ccccc3)cc21

>  <score_type>  (45) 
oracle

>  <origin>  (45) 
autodockgpu

>  <m_score__min__energy>  (45) 
-9.2799999999999994

>  <m_primary>  (45) 
energy

>  <rmsd>  (45) 
6.476586078982998

>  <m_score__min__rmsd>  (45) 
6.476586078982998

>  <meeko>  (45) 
{"free_energy": -9.17, "intermolecular_energy": -10.36, "internal_energy": -1.04, "cluster_size": 48, "cluster_id": 1, "rank_in_cluster": 24}

>  <energy>  (45) 
-8.9

>  <cluster_rmsd>  (45) 
0.65

>  <cluster>  (45) 
1

$$$$

     RDKit          3D

 50 54  0  0  0  0  0  0  0  0999 V2000
  143.2030   74.0920  220.0420 O   0  0  0  0  0  0  0  0  0  0  0  0
  142.1860   73.8970  220.7590 C   0  0  0  0  0  0  0  0  0  0  0  0
  141.7860   72.5290  221.1690 C   0  0  0  0  0  0  0  0  0  0  0  0
  140.5660   72.5650  222.0050 C   0  0  0  0  0  0  0  0  0  0  0  0
  140.0420   71.2940  222.5390 C   0  0  0  0  0  0  0  0  0  0  0  0
  139.5890   70.3160  221.6780 C   0  0  0  0  0  0  0  0  0  0  0  0
  139.1310   69.1140  222.1870 C   0  0  0  0  0  0  0  0  0  0  0  0
  139.1330   68.9140  223.5480 C   0  0  0  0  0  0  0  0  0  0  0  0
  139.5730   69.8600  224.4550 C   0  0  0  0  0  0  0  0  0  0  0  0
  139.6010   69.7020  225.8760 C   0  0  0  0  0  0  0  0  0  0  0  0
  139.0810   68.6390  226.3680 O   0  0  0  0  0  0  0  0  0  0  0  0
  140.1500   70.6070  226.8200 N   0  0  0  0  0  0  0  0  0  0  0  0
  140.8330   71.8900  226.8630 C   0  0  0  0  0  0  0  0  0  0  0  0
  141.3600   71.5540  228.2630 C   0  0  0  0  0  0  0  0  0  0  0  0
  140.1960   70.6290  228.2850 C   0  0  0  0  0  0  0  0  0  0  0  0
  140.0250   71.0520  223.9020 C   0  0  0  0  0  0  0  0  0  0  0  0
  139.9290   73.6270  222.3350 N   0  0  0  0  0  0  0  0  0  0  0  0
  140.3260   74.9210  221.9300 C   0  0  0  0  0  0  0  0  0  0  0  0
  139.5600   75.9840  222.3510 C   0  0  0  0  0  0  0  0  0  0  0  0
  139.9730   77.2400  221.9470 C   0  0  0  0  0  0  0  0  0  0  0  0
  141.0700   77.4650  221.1740 C   0  0  0  0  0  0  0  0  0  0  0  0
  141.3830   78.7650  220.8340 O   0  0  0  0  0  0  0  0  0  0  0  0
  141.7070   79.6540  221.8400 C   0  0  0  0  0  0  0  0  0  0  0  0
  142.5510   79.3800  222.8900 C   0  0  0  0  0  0  0  0  0  0  0  0
  142.8070   80.3510  223.8400 C   0  0  0  0  0  0  0  0  0  0  0  0
  142.2060   81.6010  223.7250 C   0  0  0  0  0  0  0  0  0  0  0  0
  141.3530   81.9060  222.6800 C   0  0  0  0  0  0  0  0  0  0  0  0
  141.1270   80.9110  221.7580 C   0  0  0  0  0  0  0  0  0  0  0  0
  141.8180   76.3690  220.7670 C   0  0  0  0  0  0  0  0  0  0  0  0
  141.4430   75.1030  221.1460 C   0  0  0  0  0  0  0  0  0  0  0  0
  141.5891   71.9265  220.2700 H   0  0  0  0  0  0  0  0  0  0  0  0
  142.6026   72.0850  221.7572 H   0  0  0  0  0  0  0  0  0  0  0  0
  139.5920   70.4911  220.5920 H   0  0  0  0  0  0  0  0  0  0  0  0
  138.7688   68.3261  221.5102 H   0  0  0  0  0  0  0  0  0  0  0  0
  138.7656   67.9519  223.9345 H   0  0  0  0  0  0  0  0  0  0  0  0
  141.6189   72.0073  226.1023 H   0  0  0  0  0  0  0  0  0  0  0  0
  140.2805   72.8240  226.6827 H   0  0  0  0  0  0  0  0  0  0  0  0
  142.3491   71.0738  228.2957 H   0  0  0  0  0  0  0  0  0  0  0  0
  141.5635   72.3052  229.0403 H   0  0  0  0  0  0  0  0  0  0  0  0
  140.4140   69.6505  228.7379 H   0  0  0  0  0  0  0  0  0  0  0  0
  139.2952   70.8969  228.8566 H   0  0  0  0  0  0  0  0  0  0  0  0
  140.3862   71.8402  224.5789 H   0  0  0  0  0  0  0  0  0  0  0  0
  138.6661   75.8418  222.9761 H   0  0  0  0  0  0  0  0  0  0  0  0
  139.3799   78.1085  222.2694 H   0  0  0  0  0  0  0  0  0  0  0  0
  143.0219   78.3895  222.9741 H   0  0  0  0  0  0  0  0  0  0  0  0
  143.4818   80.1370  224.6819 H   0  0  0  0  0  0  0  0  0  0  0  0
  142.4151   82.3672  224.4860 H   0  0  0  0  0  0  0  0  0  0  0  0
  140.8792   82.8947  222.5908 H   0  0  0  0  0  0  0  0  0  0  0  0
  140.4534   81.1225  220.9144 H   0  0  0  0  0  0  0  0  0  0  0  0
  142.7109   76.5141  220.1411 H   0  0  0  0  0  0  0  0  0  0  0  0
  1  2  2  0
  2  3  1  0
  3  4  1  0
  4  5  1  0
  5  6  2  0
  6  7  1  0
  7  8  2  0
  8  9  1  0
  9 10  1  0
 10 11  2  0
 10 12  1  0
 12 13  1  0
 13 14  1  0
 14 15  1  0
  9 16  2  0
  4 17  2  0
 17 18  1  0
 18 19  2  0
 19 20  1  0
 20 21  2  0
 21 22  1  0
 22 23  1  0
 23 24  2  0
 24 25  1  0
 25 26  2  0
 26 27  1  0
 27 28  2  0
 21 29  1  0
 29 30  2  0
 30  2  1  0
 16  5  1  0
 30 18  1  0
 15 12  1  0
 28 23  1  0
  3 31  1  0
  3 32  1  0
  6 33  1  0
  7 34  1  0
  8 35  1  0
 13 36  1  0
 13 37  1  0
 14 38  1  0
 14 39  1  0
 15 40  1  0
 15 41  1  0
 16 42  1  0
 19 43  1  0
 20 44  1  0
 24 45  1  0
 25 46  1  0
 26 47  1  0
 27 48  1  0
 28 49  1  0
 29 50  1  0
M  END
>  <smiles>  (46) 
O=C1CC(c2cccc(C(=O)N3CCC3)c2)=Nc2ccc(Oc3ccccc3)cc21

>  <score_type>  (46) 
oracle

>  <origin>  (46) 
autodockgpu

>  <m_score__min__energy>  (46) 
-9.2799999999999994

>  <m_primary>  (46) 
energy

>  <rmsd>  (46) 
6.423090030545241

>  <m_score__min__rmsd>  (46) 
6.423090030545241

>  <meeko>  (46) 
{"free_energy": -9.27, "intermolecular_energy": -10.46, "internal_energy": -1.03, "cluster_size": 48, "cluster_id": 1, "rank_in_cluster": 7}

>  <energy>  (46) 
-8.85

>  <cluster_rmsd>  (46) 
0.8

>  <cluster>  (46) 
1

$$$$

     RDKit          3D

 50 54  0  0  0  0  0  0  0  0999 V2000
  142.9850   74.4550  220.3740 O   0  0  0  0  0  0  0  0  0  0  0  0
  141.9210   74.1020  220.9490 C   0  0  0  0  0  0  0  0  0  0  0  0
  141.6310   72.6730  221.2200 C   0  0  0  0  0  0  0  0  0  0  0  0
  140.3290   72.5210  221.9050 C   0  0  0  0  0  0  0  0  0  0  0  0
  139.8910   71.1650  222.2900 C   0  0  0  0  0  0  0  0  0  0  0  0
  139.5510   70.2460  221.3180 C   0  0  0  0  0  0  0  0  0  0  0  0
  139.1750   68.9670  221.6880 C   0  0  0  0  0  0  0  0  0  0  0  0
  139.1460   68.6330  223.0220 C   0  0  0  0  0  0  0  0  0  0  0  0
  139.4740   69.5140  224.0350 C   0  0  0  0  0  0  0  0  0  0  0  0
  139.4650   69.2180  225.4340 C   0  0  0  0  0  0  0  0  0  0  0  0
  138.9630   68.0970  225.8020 O   0  0  0  0  0  0  0  0  0  0  0  0
  139.9580   70.0390  226.4790 N   0  0  0  0  0  0  0  0  0  0  0  0
  140.6000   71.3300  226.6700 C   0  0  0  0  0  0  0  0  0  0  0  0
  141.0960   70.8710  228.0460 C   0  0  0  0  0  0  0  0  0  0  0  0
  139.9600   69.9170  227.9400 C   0  0  0  0  0  0  0  0  0  0  0  0
  139.8460   70.7870  223.6200 C   0  0  0  0  0  0  0  0  0  0  0  0
  139.5450   73.4830  222.2220 N   0  0  0  0  0  0  0  0  0  0  0  0
  139.8390   74.8380  221.9510 C   0  0  0  0  0  0  0  0  0  0  0  0
  138.9170   75.7820  222.3440 C   0  0  0  0  0  0  0  0  0  0  0  0
  139.2320   77.1010  222.0730 C   0  0  0  0  0  0  0  0  0  0  0  0
  140.3770   77.4950  221.4540 C   0  0  0  0  0  0  0  0  0  0  0  0
  140.5810   78.8420  221.2380 O   0  0  0  0  0  0  0  0  0  0  0  0
  141.3360   79.5540  222.1490 C   0  0  0  0  0  0  0  0  0  0  0  0
  142.6910   79.4040  222.3350 C   0  0  0  0  0  0  0  0  0  0  0  0
  143.3460   80.1750  223.2770 C   0  0  0  0  0  0  0  0  0  0  0  0
  142.6280   81.0990  224.0300 C   0  0  0  0  0  0  0  0  0  0  0  0
  141.2670   81.2720  223.8650 C   0  0  0  0  0  0  0  0  0  0  0  0
  140.6550   80.4850  222.9180 C   0  0  0  0  0  0  0  0  0  0  0  0
  141.2830   76.5160  221.0710 C   0  0  0  0  0  0  0  0  0  0  0  0
  141.0110   75.1930  221.3210 C   0  0  0  0  0  0  0  0  0  0  0  0
  141.6033   72.1239  220.2673 H   0  0  0  0  0  0  0  0  0  0  0  0
  142.4208   72.2708  221.8716 H   0  0  0  0  0  0  0  0  0  0  0  0
  139.5788   70.5288  220.2553 H   0  0  0  0  0  0  0  0  0  0  0  0
  138.9021   68.2249  220.9233 H   0  0  0  0  0  0  0  0  0  0  0  0
  138.8460   67.6110  223.2970 H   0  0  0  0  0  0  0  0  0  0  0  0
  141.4037   71.5440  225.9501 H   0  0  0  0  0  0  0  0  0  0  0  0
  140.0248   72.2617  226.5650 H   0  0  0  0  0  0  0  0  0  0  0  0
  142.0977   70.4169  228.0627 H   0  0  0  0  0  0  0  0  0  0  0  0
  141.2541   71.5466  228.8995 H   0  0  0  0  0  0  0  0  0  0  0  0
  140.1939   68.9048  228.3016 H   0  0  0  0  0  0  0  0  0  0  0  0
  139.0351   70.1024  228.5058 H   0  0  0  0  0  0  0  0  0  0  0  0
  140.1175   71.5292  224.3852 H   0  0  0  0  0  0  0  0  0  0  0  0
  137.9796   75.5019  222.8468 H   0  0  0  0  0  0  0  0  0  0  0  0
  138.5140   77.8773  222.3760 H   0  0  0  0  0  0  0  0  0  0  0  0
  143.2519   78.6720  221.7353 H   0  0  0  0  0  0  0  0  0  0  0  0
  144.4290   80.0587  223.4305 H   0  0  0  0  0  0  0  0  0  0  0  0
  143.1582   81.7082  224.7768 H   0  0  0  0  0  0  0  0  0  0  0  0
  140.7013   82.0029  224.4615 H   0  0  0  0  0  0  0  0  0  0  0  0
  139.5720   80.5998  222.7630 H   0  0  0  0  0  0  0  0  0  0  0  0
  142.2189   76.7995  220.5673 H   0  0  0  0  0  0  0  0  0  0  0  0
  1  2  2  0
  2  3  1  0
  3  4  1  0
  4  5  1  0
  5  6  2  0
  6  7  1  0
  7  8  2  0
  8  9  1  0
  9 10  1  0
 10 11  2  0
 10 12  1  0
 12 13  1  0
 13 14  1  0
 14 15  1  0
  9 16  2  0
  4 17  2  0
 17 18  1  0
 18 19  2  0
 19 20  1  0
 20 21  2  0
 21 22  1  0
 22 23  1  0
 23 24  2  0
 24 25  1  0
 25 26  2  0
 26 27  1  0
 27 28  2  0
 21 29  1  0
 29 30  2  0
 30  2  1  0
 16  5  1  0
 30 18  1  0
 15 12  1  0
 28 23  1  0
  3 31  1  0
  3 32  1  0
  6 33  1  0
  7 34  1  0
  8 35  1  0
 13 36  1  0
 13 37  1  0
 14 38  1  0
 14 39  1  0
 15 40  1  0
 15 41  1  0
 16 42  1  0
 19 43  1  0
 20 44  1  0
 24 45  1  0
 25 46  1  0
 26 47  1  0
 27 48  1  0
 28 49  1  0
 29 50  1  0
M  END
>  <smiles>  (47) 
O=C1CC(c2cccc(C(=O)N3CCC3)c2)=Nc2ccc(Oc3ccccc3)cc21

>  <score_type>  (47) 
oracle

>  <origin>  (47) 
autodockgpu

>  <m_score__min__energy>  (47) 
-9.2799999999999994

>  <m_primary>  (47) 
energy

>  <rmsd>  (47) 
6.320293426774511

>  <m_score__min__rmsd>  (47) 
6.320293426774511

>  <meeko>  (47) 
{"free_energy": -9.01, "intermolecular_energy": -10.2, "internal_energy": -1.03, "cluster_size": 48, "cluster_id": 1, "rank_in_cluster": 43}

>  <energy>  (47) 
-8.55

>  <cluster_rmsd>  (47) 
1.7

>  <cluster>  (47) 
1

$$$$

     RDKit          3D

 50 54  0  0  0  0  0  0  0  0999 V2000
  143.2190   74.1000  220.0810 O   0  0  0  0  0  0  0  0  0  0  0  0
  142.1950   73.9030  220.7870 C   0  0  0  0  0  0  0  0  0  0  0  0
  141.7930   72.5340  221.1920 C   0  0  0  0  0  0  0  0  0  0  0  0
  140.5640   72.5680  222.0150 C   0  0  0  0  0  0  0  0  0  0  0  0
  140.0360   71.2950  222.5430 C   0  0  0  0  0  0  0  0  0  0  0  0
  139.5730   70.3260  221.6770 C   0  0  0  0  0  0  0  0  0  0  0  0
  139.1110   69.1220  222.1800 C   0  0  0  0  0  0  0  0  0  0  0  0
  139.1210   68.9120  223.5400 C   0  0  0  0  0  0  0  0  0  0  0  0
  139.5710   69.8490  224.4510 C   0  0  0  0  0  0  0  0  0  0  0  0
  139.6080   69.6810  225.8700 C   0  0  0  0  0  0  0  0  0  0  0  0
  139.1110   68.6030  226.3550 O   0  0  0  0  0  0  0  0  0  0  0  0
  140.1410   70.5900  226.8200 N   0  0  0  0  0  0  0  0  0  0  0  0
  140.7960   71.8860  226.8710 C   0  0  0  0  0  0  0  0  0  0  0  0
  141.3350   71.5510  228.2660 C   0  0  0  0  0  0  0  0  0  0  0  0
  140.1910   70.6010  228.2850 C   0  0  0  0  0  0  0  0  0  0  0  0
  140.0260   71.0430  223.9030 C   0  0  0  0  0  0  0  0  0  0  0  0
  139.9210   73.6270  222.3370 N   0  0  0  0  0  0  0  0  0  0  0  0
  140.3200   74.9230  221.9370 C   0  0  0  0  0  0  0  0  0  0  0  0
  139.5460   75.9840  222.3490 C   0  0  0  0  0  0  0  0  0  0  0  0
  139.9610   77.2410  221.9500 C   0  0  0  0  0  0  0  0  0  0  0  0
  141.0660   77.4680  221.1900 C   0  0  0  0  0  0  0  0  0  0  0  0
  141.3810   78.7690  220.8540 O   0  0  0  0  0  0  0  0  0  0  0  0
  141.7060   79.6550  221.8620 C   0  0  0  0  0  0  0  0  0  0  0  0
  142.5470   79.3760  222.9140 C   0  0  0  0  0  0  0  0  0  0  0  0
  142.8040   80.3440  223.8660 C   0  0  0  0  0  0  0  0  0  0  0  0
  142.2080   81.5960  223.7520 C   0  0  0  0  0  0  0  0  0  0  0  0
  141.3590   81.9060  222.7060 C   0  0  0  0  0  0  0  0  0  0  0  0
  141.1310   80.9150  221.7810 C   0  0  0  0  0  0  0  0  0  0  0  0
  141.8210   76.3740  220.7920 C   0  0  0  0  0  0  0  0  0  0  0  0
  141.4450   75.1080  221.1660 C   0  0  0  0  0  0  0  0  0  0  0  0
  141.6067   71.9316  220.2907 H   0  0  0  0  0  0  0  0  0  0  0  0
  142.6040   72.0908  221.7885 H   0  0  0  0  0  0  0  0  0  0  0  0
  139.5710   70.5092  220.5924 H   0  0  0  0  0  0  0  0  0  0  0  0
  138.7398   68.3413  221.4998 H   0  0  0  0  0  0  0  0  0  0  0  0
  138.7518   67.9487  223.9218 H   0  0  0  0  0  0  0  0  0  0  0  0
  141.5765   72.0262  226.1086 H   0  0  0  0  0  0  0  0  0  0  0  0
  140.2228   72.8092  226.7000 H   0  0  0  0  0  0  0  0  0  0  0  0
  142.3343   71.0919  228.2916 H   0  0  0  0  0  0  0  0  0  0  0  0
  141.5252   72.3006  229.0483 H   0  0  0  0  0  0  0  0  0  0  0  0
  140.4314   69.6239  228.7294 H   0  0  0  0  0  0  0  0  0  0  0  0
  139.2866   70.8447  228.8618 H   0  0  0  0  0  0  0  0  0  0  0  0
  140.3956   71.8244  224.5833 H   0  0  0  0  0  0  0  0  0  0  0  0
  138.6450   75.8395  222.9632 H   0  0  0  0  0  0  0  0  0  0  0  0
  139.3625   78.1083  222.2656 H   0  0  0  0  0  0  0  0  0  0  0  0
  143.0143   78.3837  222.9974 H   0  0  0  0  0  0  0  0  0  0  0  0
  143.4760   80.1260  224.7092 H   0  0  0  0  0  0  0  0  0  0  0  0
  142.4181   82.3600  224.5150 H   0  0  0  0  0  0  0  0  0  0  0  0
  140.8891   82.8967  222.6182 H   0  0  0  0  0  0  0  0  0  0  0  0
  140.4606   81.1314  220.9362 H   0  0  0  0  0  0  0  0  0  0  0  0
  142.7209   76.5213  220.1768 H   0  0  0  0  0  0  0  0  0  0  0  0
  1  2  2  0
  2  3  1  0
  3  4  1  0
  4  5  1  0
  5  6  2  0
  6  7  1  0
  7  8  2  0
  8  9  1  0
  9 10  1  0
 10 11  2  0
 10 12  1  0
 12 13  1  0
 13 14  1  0
 14 15  1  0
  9 16  2  0
  4 17  2  0
 17 18  1  0
 18 19  2  0
 19 20  1  0
 20 21  2  0
 21 22  1  0
 22 23  1  0
 23 24  2  0
 24 25  1  0
 25 26  2  0
 26 27  1  0
 27 28  2  0
 21 29  1  0
 29 30  2  0
 30  2  1  0
 16  5  1  0
 30 18  1  0
 15 12  1  0
 28 23  1  0
  3 31  1  0
  3 32  1  0
  6 33  1  0
  7 34  1  0
  8 35  1  0
 13 36  1  0
 13 37  1  0
 14 38  1  0
 14 39  1  0
 15 40  1  0
 15 41  1  0
 16 42  1  0
 19 43  1  0
 20 44  1  0
 24 45  1  0
 25 46  1  0
 26 47  1  0
 27 48  1  0
 28 49  1  0
 29 50  1  0
M  END
>  <smiles>  (48) 
O=C1CC(c2cccc(C(=O)N3CCC3)c2)=Nc2ccc(Oc3ccccc3)cc21

>  <score_type>  (48) 
oracle

>  <origin>  (48) 
autodockgpu

>  <m_score__min__energy>  (48) 
-9.2799999999999994

>  <m_primary>  (48) 
energy

>  <rmsd>  (48) 
6.414887369896088

>  <m_score__min__rmsd>  (48) 
6.414887369896088

>  <meeko>  (48) 
{"free_energy": -9.27, "intermolecular_energy": -10.46, "internal_energy": -1.03, "cluster_size": 48, "cluster_id": 1, "rank_in_cluster": 5}

>  <energy>  (48) 
-8.52

>  <cluster_rmsd>  (48) 
1.61

>  <cluster>  (48) 
1

$$$$

     RDKit          3D

 50 54  0  0  0  0  0  0  0  0999 V2000
  136.6540   75.2210  221.9220 O   0  0  0  0  0  0  0  0  0  0  0  0
  137.6360   74.4360  221.9970 C   0  0  0  0  0  0  0  0  0  0  0  0
  137.4500   73.0010  222.3250 C   0  0  0  0  0  0  0  0  0  0  0  0
  138.7490   72.2940  222.3490 C   0  0  0  0  0  0  0  0  0  0  0  0
  138.7550   70.8440  222.6210 C   0  0  0  0  0  0  0  0  0  0  0  0
  138.5190   69.9470  221.5990 C   0  0  0  0  0  0  0  0  0  0  0  0
  138.5600   68.5880  221.8580 C   0  0  0  0  0  0  0  0  0  0  0  0
  138.8350   68.1540  223.1340 C   0  0  0  0  0  0  0  0  0  0  0  0
  139.0760   69.0080  224.1940 C   0  0  0  0  0  0  0  0  0  0  0  0
  139.3700   68.6100  225.5350 C   0  0  0  0  0  0  0  0  0  0  0  0
  139.1710   67.3830  225.8500 O   0  0  0  0  0  0  0  0  0  0  0  0
  139.8670   69.4350  226.5770 N   0  0  0  0  0  0  0  0  0  0  0  0
  140.2650   70.8140  226.8080 C   0  0  0  0  0  0  0  0  0  0  0  0
  141.0740   70.3670  228.0310 C   0  0  0  0  0  0  0  0  0  0  0  0
  140.1490   69.2040  227.9960 C   0  0  0  0  0  0  0  0  0  0  0  0
  139.0260   70.3630  223.8900 C   0  0  0  0  0  0  0  0  0  0  0  0
  139.8880   72.8350  222.1230 N   0  0  0  0  0  0  0  0  0  0  0  0
  140.0430   74.2050  221.8150 C   0  0  0  0  0  0  0  0  0  0  0  0
  141.3200   74.6680  221.5910 C   0  0  0  0  0  0  0  0  0  0  0  0
  141.4440   76.0110  221.2850 C   0  0  0  0  0  0  0  0  0  0  0  0
  140.3920   76.8690  221.2000 C   0  0  0  0  0  0  0  0  0  0  0  0
  140.6400   78.1890  220.8870 O   0  0  0  0  0  0  0  0  0  0  0  0
  141.2230   78.9990  221.8410 C   0  0  0  0  0  0  0  0  0  0  0  0
  141.4710   78.6300  223.1420 C   0  0  0  0  0  0  0  0  0  0  0  0
  142.0650   79.5250  224.0120 C   0  0  0  0  0  0  0  0  0  0  0  0
  142.4080   80.7960  223.5620 C   0  0  0  0  0  0  0  0  0  0  0  0
  142.1710   81.1970  222.2600 C   0  0  0  0  0  0  0  0  0  0  0  0
  141.5800   80.2750  221.4290 C   0  0  0  0  0  0  0  0  0  0  0  0
  139.1190   76.3680  221.4340 C   0  0  0  0  0  0  0  0  0  0  0  0
  138.9500   75.0400  221.7400 C   0  0  0  0  0  0  0  0  0  0  0  0
  136.9750   72.9158  223.3135 H   0  0  0  0  0  0  0  0  0  0  0  0
  136.8140   72.5429  221.5532 H   0  0  0  0  0  0  0  0  0  0  0  0
  138.2995   70.3102  220.5841 H   0  0  0  0  0  0  0  0  0  0  0  0
  138.3746   67.8627  221.0520 H   0  0  0  0  0  0  0  0  0  0  0  0
  138.8647   67.0704  223.3207 H   0  0  0  0  0  0  0  0  0  0  0  0
  140.8726   71.2486  226.0005 H   0  0  0  0  0  0  0  0  0  0  0  0
  139.5082   71.6072  226.8973 H   0  0  0  0  0  0  0  0  0  0  0  0
  142.1331   70.1375  227.8420 H   0  0  0  0  0  0  0  0  0  0  0  0
  141.2416   70.9930  228.9198 H   0  0  0  0  0  0  0  0  0  0  0  0
  140.6382   68.2403  228.2011 H   0  0  0  0  0  0  0  0  0  0  0  0
  139.3193   69.1433  228.7157 H   0  0  0  0  0  0  0  0  0  0  0  0
  139.2106   71.0879  224.6965 H   0  0  0  0  0  0  0  0  0  0  0  0
  142.1955   74.0048  221.6522 H   0  0  0  0  0  0  0  0  0  0  0  0
  142.4527   76.4087  221.0995 H   0  0  0  0  0  0  0  0  0  0  0  0
  141.1969   77.6233  223.4903 H   0  0  0  0  0  0  0  0  0  0  0  0
  142.2653   79.2341  225.0537 H   0  0  0  0  0  0  0  0  0  0  0  0
  142.8808   81.5014  224.2612 H   0  0  0  0  0  0  0  0  0  0  0  0
  142.4417   82.2030  221.9070 H   0  0  0  0  0  0  0  0  0  0  0  0
  141.3803   80.5629  220.3863 H   0  0  0  0  0  0  0  0  0  0  0  0
  138.2459   77.0344  221.3744 H   0  0  0  0  0  0  0  0  0  0  0  0
  1  2  2  0
  2  3  1  0
  3  4  1  0
  4  5  1  0
  5  6  2  0
  6  7  1  0
  7  8  2  0
  8  9  1  0
  9 10  1  0
 10 11  2  0
 10 12  1  0
 12 13  1  0
 13 14  1  0
 14 15  1  0
  9 16  2  0
  4 17  2  0
 17 18  1  0
 18 19  2  0
 19 20  1  0
 20 21  2  0
 21 22  1  0
 22 23  1  0
 23 24  2  0
 24 25  1  0
 25 26  2  0
 26 27  1  0
 27 28  2  0
 21 29  1  0
 29 30  2  0
 30  2  1  0
 16  5  1  0
 30 18  1  0
 15 12  1  0
 28 23  1  0
  3 31  1  0
  3 32  1  0
  6 33  1  0
  7 34  1  0
  8 35  1  0
 13 36  1  0
 13 37  1  0
 14 38  1  0
 14 39  1  0
 15 40  1  0
 15 41  1  0
 16 42  1  0
 19 43  1  0
 20 44  1  0
 24 45  1  0
 25 46  1  0
 26 47  1  0
 27 48  1  0
 28 49  1  0
 29 50  1  0
M  END
>  <smiles>  (49) 
O=C1CC(c2cccc(C(=O)N3CCC3)c2)=Nc2ccc(Oc3ccccc3)cc21

>  <score_type>  (49) 
oracle

>  <origin>  (49) 
autodockgpu

>  <m_score__min__energy>  (49) 
-9.2799999999999994

>  <m_primary>  (49) 
energy

>  <rmsd>  (49) 
6.208027492963865

>  <m_score__min__rmsd>  (49) 
6.208027492963865

>  <meeko>  (49) 
{"free_energy": -8.55, "intermolecular_energy": -9.74, "internal_energy": -0.99, "cluster_size": 48, "cluster_id": 1, "rank_in_cluster": 47}

>  <energy>  (49) 
-8.29

>  <cluster_rmsd>  (49) 
0.0

>  <cluster>  (49) 
2

$$$$

     RDKit          3D

 50 54  0  0  0  0  0  0  0  0999 V2000
  142.9770   73.8490  220.7050 O   0  0  0  0  0  0  0  0  0  0  0  0
  141.8430   73.5860  221.1870 C   0  0  0  0  0  0  0  0  0  0  0  0
  141.4630   72.1970  221.5420 C   0  0  0  0  0  0  0  0  0  0  0  0
  140.0890   72.1510  222.0890 C   0  0  0  0  0  0  0  0  0  0  0  0
  139.5530   70.8510  222.5350 C   0  0  0  0  0  0  0  0  0  0  0  0
  138.9640   69.9970  221.6260 C   0  0  0  0  0  0  0  0  0  0  0  0
  138.4950   68.7660  222.0480 C   0  0  0  0  0  0  0  0  0  0  0  0
  138.6230   68.4130  223.3710 C   0  0  0  0  0  0  0  0  0  0  0  0
  139.2010   69.2310  224.3240 C   0  0  0  0  0  0  0  0  0  0  0  0
  139.3630   68.9130  225.7090 C   0  0  0  0  0  0  0  0  0  0  0  0
  139.0240   67.7380  226.0940 O   0  0  0  0  0  0  0  0  0  0  0  0
  139.8660   69.7670  226.7230 N   0  0  0  0  0  0  0  0  0  0  0  0
  140.3810   71.1170  226.8850 C   0  0  0  0  0  0  0  0  0  0  0  0
  141.0570   70.6950  228.1940 C   0  0  0  0  0  0  0  0  0  0  0  0
  140.0260   69.6230  228.1730 C   0  0  0  0  0  0  0  0  0  0  0  0
  139.6590   70.4580  223.8580 C   0  0  0  0  0  0  0  0  0  0  0  0
  139.3200   73.1650  222.2370 N   0  0  0  0  0  0  0  0  0  0  0  0
  139.7010   74.4800  221.8880 C   0  0  0  0  0  0  0  0  0  0  0  0
  138.7860   75.4860  222.0970 C   0  0  0  0  0  0  0  0  0  0  0  0
  139.1860   76.7640  221.7540 C   0  0  0  0  0  0  0  0  0  0  0  0
  140.4080   77.0620  221.2340 C   0  0  0  0  0  0  0  0  0  0  0  0
  140.6930   78.3770  220.9300 O   0  0  0  0  0  0  0  0  0  0  0  0
  141.2640   79.1740  221.9030 C   0  0  0  0  0  0  0  0  0  0  0  0
  141.6540   80.4800  221.7210 C   0  0  0  0  0  0  0  0  0  0  0  0
  142.2130   81.1850  222.7700 C   0  0  0  0  0  0  0  0  0  0  0  0
  142.3770   80.5650  224.0050 C   0  0  0  0  0  0  0  0  0  0  0  0
  141.9940   79.2540  224.2190 C   0  0  0  0  0  0  0  0  0  0  0  0
  141.4420   78.5900  223.1480 C   0  0  0  0  0  0  0  0  0  0  0  0
  141.3050   76.0220  221.0360 C   0  0  0  0  0  0  0  0  0  0  0  0
  140.9480   74.7370  221.3640 C   0  0  0  0  0  0  0  0  0  0  0  0
  141.5136   71.5679  220.6411 H   0  0  0  0  0  0  0  0  0  0  0  0
  142.1598   71.8260  222.3081 H   0  0  0  0  0  0  0  0  0  0  0  0
  138.8678   70.2933  220.5710 H   0  0  0  0  0  0  0  0  0  0  0  0
  138.0242   68.0761  221.3323 H   0  0  0  0  0  0  0  0  0  0  0  0
  138.2461   67.4292  223.6872 H   0  0  0  0  0  0  0  0  0  0  0  0
  141.0819   71.4289  226.0967 H   0  0  0  0  0  0  0  0  0  0  0  0
  139.7010   71.9813  226.8605 H   0  0  0  0  0  0  0  0  0  0  0  0
  142.0988   70.3541  228.1023 H   0  0  0  0  0  0  0  0  0  0  0  0
  141.2245   71.3708  229.0456 H   0  0  0  0  0  0  0  0  0  0  0  0
  140.4029   68.6372  228.4832 H   0  0  0  0  0  0  0  0  0  0  0  0
  139.1471   69.6963  228.8304 H   0  0  0  0  0  0  0  0  0  0  0  0
  140.1276   71.1490  224.5742 H   0  0  0  0  0  0  0  0  0  0  0  0
  137.7888   75.2840  222.5150 H   0  0  0  0  0  0  0  0  0  0  0  0
  138.4749   77.5885  221.9105 H   0  0  0  0  0  0  0  0  0  0  0  0
  141.5212   80.9630  220.7417 H   0  0  0  0  0  0  0  0  0  0  0  0
  142.5264   82.2300  222.6296 H   0  0  0  0  0  0  0  0  0  0  0  0
  142.8237   81.1338  224.8338 H   0  0  0  0  0  0  0  0  0  0  0  0
  142.1241   78.7663  225.1964 H   0  0  0  0  0  0  0  0  0  0  0  0
  141.1266   77.5453  223.2860 H   0  0  0  0  0  0  0  0  0  0  0  0
  142.3012   76.2266  220.6167 H   0  0  0  0  0  0  0  0  0  0  0  0
  1  2  2  0
  2  3  1  0
  3  4  1  0
  4  5  1  0
  5  6  2  0
  6  7  1  0
  7  8  2  0
  8  9  1  0
  9 10  1  0
 10 11  2  0
 10 12  1  0
 12 13  1  0
 13 14  1  0
 14 15  1  0
  9 16  2  0
  4 17  2  0
 17 18  1  0
 18 19  2  0
 19 20  1  0
 20 21  2  0
 21 22  1  0
 22 23  1  0
 23 24  2  0
 24 25  1  0
 25 26  2  0
 26 27  1  0
 27 28  2  0
 21 29  1  0
 29 30  2  0
 30  2  1  0
 16  5  1  0
 30 18  1  0
 15 12  1  0
 28 23  1  0
  3 31  1  0
  3 32  1  0
  6 33  1  0
  7 34  1  0
  8 35  1  0
 13 36  1  0
 13 37  1  0
 14 38  1  0
 14 39  1  0
 15 40  1  0
 15 41  1  0
 16 42  1  0
 19 43  1  0
 20 44  1  0
 24 45  1  0
 25 46  1  0
 26 47  1  0
 27 48  1  0
 28 49  1  0
 29 50  1  0
M  END
>  <smiles>  (50) 
O=C1CC(c2cccc(C(=O)N3CCC3)c2)=Nc2ccc(Oc3ccccc3)cc21

>  <score_type>  (50) 
oracle

>  <origin>  (50) 
autodockgpu

>  <m_score__min__energy>  (50) 
-9.2799999999999994

>  <m_primary>  (50) 
energy

>  <rmsd>  (50) 
6.1894662537537455

>  <m_score__min__rmsd>  (50) 
6.1894662537537455

>  <meeko>  (50) 
{"free_energy": -8.85, "intermolecular_energy": -10.04, "internal_energy": -1.01, "cluster_size": 48, "cluster_id": 1, "rank_in_cluster": 46}

>  <energy>  (50) 
-8.29

>  <cluster_rmsd>  (50) 
0.06

>  <cluster>  (50) 
2

$$$$
