
     RDKit          3D

 53 56  0  0  0  0  0  0  0  0999 V2000
  141.0470   73.8360  221.9990 O   0  0  0  0  0  0  0  0  0  0  0  0
  140.0940   73.0470  222.0970 C   0  0  0  0  0  0  0  0  0  0  0  0
  139.0000   73.1630  221.1740 N   0  0  0  0  0  0  0  0  0  0  0  0
  138.9650   74.1490  220.1530 C   0  0  0  0  0  0  0  0  0  0  0  0
  138.0050   75.2240  220.2190 C   0  0  0  0  0  0  0  0  0  0  0  0
  136.8470   74.9010  219.6980 O   0  0  0  0  0  0  0  0  0  0  0  0
  138.0600   76.5200  220.7220 N   0  0  0  0  0  0  0  0  0  0  0  0
  137.3590   77.7610  220.2880 C   0  0  0  0  0  0  0  0  0  0  0  0
  136.7340   78.1880  221.6060 C   0  0  0  0  0  0  0  0  0  0  0  0
  137.6270   77.6190  222.7080 C   0  0  0  0  0  0  0  0  0  0  0  0
  138.7780   77.0840  221.8760 C   0  0  1  0  0  0  0  0  0  0  0  0
  139.7180   76.1910  222.5340 C   0  0  0  0  0  0  0  0  0  0  0  0
  141.0620   76.6600  222.4080 N   0  0  0  0  0  0  0  0  0  0  0  0
  141.2450   78.0230  222.0640 C   0  0  0  0  0  0  0  0  0  0  0  0
  141.6850   78.8220  223.2590 C   0  0  0  0  0  0  0  0  0  0  0  0
  141.1790   80.2090  223.4510 C   0  0  0  0  0  0  0  0  0  0  0  0
  142.5730   80.0060  222.9640 C   0  0  0  0  0  0  0  0  0  0  0  0
  140.0700   72.0100  223.1310 C   0  0  0  0  0  0  0  0  0  0  0  0
  139.5530   70.7730  222.8190 C   0  0  0  0  0  0  0  0  0  0  0  0
  139.5510   69.8290  223.8350 C   0  0  0  0  0  0  0  0  0  0  0  0
  140.0450   70.1150  225.1050 C   0  0  0  0  0  0  0  0  0  0  0  0
  140.0480   69.1860  226.1230 C   0  0  0  0  0  0  0  0  0  0  0  0
  140.5600   69.5610  227.3560 C   0  0  0  0  0  0  0  0  0  0  0  0
  140.5880   68.4150  228.6950 Cl  0  0  0  0  0  0  0  0  0  0  0  0
  141.0640   70.8180  227.6060 C   0  0  0  0  0  0  0  0  0  0  0  0
  141.0540   71.7340  226.5770 C   0  0  0  0  0  0  0  0  0  0  0  0
  140.5450   71.3620  225.3530 C   0  0  0  0  0  0  0  0  0  0  0  0
  140.5430   72.2660  224.3670 N   0  0  0  0  0  0  0  0  0  0  0  0
  138.2130   72.4590  221.3060 H   0  0  0  0  0  0  0  0  0  0  0  0
  139.9613   74.6145  220.1273 H   0  0  0  0  0  0  0  0  0  0  0  0
  138.6478   73.5818  219.2655 H   0  0  0  0  0  0  0  0  0  0  0  0
  138.0632   78.5153  219.9071 H   0  0  0  0  0  0  0  0  0  0  0  0
  136.6467   77.6248  219.4609 H   0  0  0  0  0  0  0  0  0  0  0  0
  136.6986   79.2854  221.6730 H   0  0  0  0  0  0  0  0  0  0  0  0
  135.7018   77.8190  221.6973 H   0  0  0  0  0  0  0  0  0  0  0  0
  137.9591   78.4009  223.4068 H   0  0  0  0  0  0  0  0  0  0  0  0
  137.1413   76.8736  223.3549 H   0  0  0  0  0  0  0  0  0  0  0  0
  139.5055   77.8662  221.6134 H   0  0  0  0  0  0  0  0  0  0  0  0
  139.4610   76.1252  223.6015 H   0  0  0  0  0  0  0  0  0  0  0  0
  139.6505   75.2039  222.0533 H   0  0  0  0  0  0  0  0  0  0  0  0
  141.7490   75.9860  222.0540 H   0  0  0  0  0  0  0  0  0  0  0  0
  142.0119   78.0967  221.2789 H   0  0  0  0  0  0  0  0  0  0  0  0
  140.2873   78.4268  221.7037 H   0  0  0  0  0  0  0  0  0  0  0  0
  141.7181   77.9327  223.9056 H   0  0  0  0  0  0  0  0  0  0  0  0
  140.4145   80.6121  222.7705 H   0  0  0  0  0  0  0  0  0  0  0  0
  140.7258   80.7569  224.2903 H   0  0  0  0  0  0  0  0  0  0  0  0
  142.8354   80.2530  221.9247 H   0  0  0  0  0  0  0  0  0  0  0  0
  143.5702   80.3349  223.2919 H   0  0  0  0  0  0  0  0  0  0  0  0
  139.1619   70.5452  221.8164 H   0  0  0  0  0  0  0  0  0  0  0  0
  139.1477   68.8260  223.6318 H   0  0  0  0  0  0  0  0  0  0  0  0
  139.6539   68.1718  225.9614 H   0  0  0  0  0  0  0  0  0  0  0  0
  141.4622   71.0825  228.5967 H   0  0  0  0  0  0  0  0  0  0  0  0
  141.4476   72.7495  226.7313 H   0  0  0  0  0  0  0  0  0  0  0  0
  1  2  2  0
  2  3  1  0
  3  4  1  0
  4  5  1  0
  5  6  2  0
  5  7  1  0
  7  8  1  0
  8  9  1  0
  9 10  1  0
 10 11  1  0
 11 12  1  0
 12 13  1  0
 13 14  1  0
 14 15  1  0
 15 16  1  0
 16 17  1  0
  2 18  1  0
 18 19  2  0
 19 20  1  0
 20 21  2  0
 21 22  1  0
 22 23  2  0
 23 24  1  0
 23 25  1  0
 25 26  2  0
 26 27  1  0
 27 28  2  0
 11  7  1  0
 17 15  1  0
 28 18  1  0
 27 21  1  0
  3 29  1  0
  4 30  1  0
  4 31  1  0
  8 32  1  0
  8 33  1  0
  9 34  1  0
  9 35  1  0
 10 36  1  0
 10 37  1  0
 11 38  1  6
 12 39  1  0
 12 40  1  0
 13 41  1  0
 14 42  1  0
 14 43  1  0
 15 44  1  0
 16 45  1  0
 16 46  1  0
 17 47  1  0
 17 48  1  0
 19 49  1  0
 20 50  1  0
 22 51  1  0
 25 52  1  0
 26 53  1  0
M  END
>  <smiles>  (1) 
O=C(NCC(=O)N1CCC[C@H]1CNCC1CC1)c1ccc2cc(Cl)ccc2n1

>  <score_type>  (1) 
oracle

>  <origin>  (1) 
autodockgpu

>  <m_score__min__energy>  (1) 
-8.1199999999999992

>  <m_primary>  (1) 
energy

>  <rmsd>  (1) 
3.0782401078112542

>  <m_score__min__rmsd>  (1) 
3.0782401078112542

>  <meeko>  (1) 
{"free_energy": -7.13, "intermolecular_energy": -9.52, "internal_energy": -1.99, "cluster_size": 1, "cluster_id": 2, "rank_in_cluster": 1}

>  <energy>  (1) 
-8.12

>  <cluster_rmsd>  (1) 
0.0

>  <cluster>  (1) 
1

$$$$

     RDKit          3D

 53 56  0  0  0  0  0  0  0  0999 V2000
  140.3780   72.4820  220.9440 O   0  0  0  0  0  0  0  0  0  0  0  0
  139.7150   72.5980  221.9870 C   0  0  0  0  0  0  0  0  0  0  0  0
  138.8560   73.7390  222.1390 N   0  0  0  0  0  0  0  0  0  0  0  0
  138.7370   74.7420  221.1420 C   0  0  0  0  0  0  0  0  0  0  0  0
  139.9180   75.3950  220.6300 C   0  0  0  0  0  0  0  0  0  0  0  0
  140.9370   75.3140  221.4500 O   0  0  0  0  0  0  0  0  0  0  0  0
  140.1910   76.0830  219.4520 N   0  0  0  0  0  0  0  0  0  0  0  0
  139.4680   76.1030  218.1490 C   0  0  0  0  0  0  0  0  0  0  0  0
  139.2770   77.6000  217.9750 C   0  0  0  0  0  0  0  0  0  0  0  0
  140.4150   78.2710  218.7430 C   0  0  0  0  0  0  0  0  0  0  0  0
  141.2440   77.0550  219.1160 C   0  0  1  0  0  0  0  0  0  0  0  0
  142.2800   77.2360  220.1200 C   0  0  0  0  0  0  0  0  0  0  0  0
  141.7440   77.7570  221.3390 N   0  0  0  0  0  0  0  0  0  0  0  0
  141.8330   79.1570  221.5400 C   0  0  0  0  0  0  0  0  0  0  0  0
  141.8700   79.4850  223.0070 C   0  0  0  0  0  0  0  0  0  0  0  0
  141.5250   80.8580  223.4690 C   0  0  0  0  0  0  0  0  0  0  0  0
  142.9550   80.4410  223.4370 C   0  0  0  0  0  0  0  0  0  0  0  0
  139.7960   71.5970  223.0530 C   0  0  0  0  0  0  0  0  0  0  0  0
  139.3380   70.3230  222.8030 C   0  0  0  0  0  0  0  0  0  0  0  0
  139.4360   69.4150  223.8470 C   0  0  0  0  0  0  0  0  0  0  0  0
  139.9670   69.7710  225.0840 C   0  0  0  0  0  0  0  0  0  0  0  0
  140.0680   68.8790  226.1300 C   0  0  0  0  0  0  0  0  0  0  0  0
  140.6100   69.3240  227.3260 C   0  0  0  0  0  0  0  0  0  0  0  0
  140.7620   68.2270  228.6980 Cl  0  0  0  0  0  0  0  0  0  0  0  0
  141.0500   70.6160  227.5140 C   0  0  0  0  0  0  0  0  0  0  0  0
  140.9430   71.4940  226.4580 C   0  0  0  0  0  0  0  0  0  0  0  0
  140.4040   71.0520  225.2700 C   0  0  0  0  0  0  0  0  0  0  0  0
  140.3060   71.9210  224.2580 N   0  0  0  0  0  0  0  0  0  0  0  0
  138.3110   73.7820  223.0530 H   0  0  0  0  0  0  0  0  0  0  0  0
  138.2336   74.2765  220.2819 H   0  0  0  0  0  0  0  0  0  0  0  0
  138.2052   75.5527  221.6615 H   0  0  0  0  0  0  0  0  0  0  0  0
  140.0748   75.6722  217.3390 H   0  0  0  0  0  0  0  0  0  0  0  0
  138.5405   75.5121  218.1252 H   0  0  0  0  0  0  0  0  0  0  0  0
  139.3265   77.8687  216.9095 H   0  0  0  0  0  0  0  0  0  0  0  0
  138.2956   77.9238  218.3519 H   0  0  0  0  0  0  0  0  0  0  0  0
  140.9793   78.9689  218.1070 H   0  0  0  0  0  0  0  0  0  0  0  0
  140.0944   78.8887  219.5948 H   0  0  0  0  0  0  0  0  0  0  0  0
  141.9089   76.7339  218.3006 H   0  0  0  0  0  0  0  0  0  0  0  0
  142.7533   76.2643  220.3243 H   0  0  0  0  0  0  0  0  0  0  0  0
  143.0151   77.9559  219.7310 H   0  0  0  0  0  0  0  0  0  0  0  0
  141.8200   77.1540  222.1640 H   0  0  0  0  0  0  0  0  0  0  0  0
  142.7507   79.5320  221.0634 H   0  0  0  0  0  0  0  0  0  0  0  0
  140.9475   79.6339  221.0945 H   0  0  0  0  0  0  0  0  0  0  0  0
  141.5226   78.4811  223.2925 H   0  0  0  0  0  0  0  0  0  0  0  0
  141.1552   81.6017  222.7478 H   0  0  0  0  0  0  0  0  0  0  0  0
  140.8569   81.2687  224.2403 H   0  0  0  0  0  0  0  0  0  0  0  0
  143.6382   80.8715  222.6901 H   0  0  0  0  0  0  0  0  0  0  0  0
  143.7760   80.4118  224.1685 H   0  0  0  0  0  0  0  0  0  0  0  0
  138.9167   70.0401  221.8271 H   0  0  0  0  0  0  0  0  0  0  0  0
  139.0842   68.3842  223.6933 H   0  0  0  0  0  0  0  0  0  0  0  0
  139.7268   67.8392  226.0185 H   0  0  0  0  0  0  0  0  0  0  0  0
  141.4735   70.9364  228.4773 H   0  0  0  0  0  0  0  0  0  0  0  0
  141.2836   72.5347  226.5621 H   0  0  0  0  0  0  0  0  0  0  0  0
  1  2  2  0
  2  3  1  0
  3  4  1  0
  4  5  1  0
  5  6  2  0
  5  7  1  0
  7  8  1  0
  8  9  1  0
  9 10  1  0
 10 11  1  0
 11 12  1  0
 12 13  1  0
 13 14  1  0
 14 15  1  0
 15 16  1  0
 16 17  1  0
  2 18  1  0
 18 19  2  0
 19 20  1  0
 20 21  2  0
 21 22  1  0
 22 23  2  0
 23 24  1  0
 23 25  1  0
 25 26  2  0
 26 27  1  0
 27 28  2  0
 11  7  1  0
 17 15  1  0
 28 18  1  0
 27 21  1  0
  3 29  1  0
  4 30  1  0
  4 31  1  0
  8 32  1  0
  8 33  1  0
  9 34  1  0
  9 35  1  0
 10 36  1  0
 10 37  1  0
 11 38  1  6
 12 39  1  0
 12 40  1  0
 13 41  1  0
 14 42  1  0
 14 43  1  0
 15 44  1  0
 16 45  1  0
 16 46  1  0
 17 47  1  0
 17 48  1  0
 19 49  1  0
 20 50  1  0
 22 51  1  0
 25 52  1  0
 26 53  1  0
M  END
>  <smiles>  (2) 
O=C(NCC(=O)N1CCC[C@H]1CNCC1CC1)c1ccc2cc(Cl)ccc2n1

>  <score_type>  (2) 
oracle

>  <origin>  (2) 
autodockgpu

>  <m_score__min__energy>  (2) 
-8.1199999999999992

>  <m_primary>  (2) 
energy

>  <rmsd>  (2) 
1.7958353588475795

>  <m_score__min__rmsd>  (2) 
1.7958353588475795

>  <meeko>  (2) 
{"free_energy": -7.48, "intermolecular_energy": -9.86, "internal_energy": -1.7, "cluster_size": 44, "cluster_id": 1, "rank_in_cluster": 28}

>  <energy>  (2) 
-8.08

>  <cluster_rmsd>  (2) 
1.22

>  <cluster>  (2) 
1

$$$$

     RDKit          3D

 53 56  0  0  0  0  0  0  0  0999 V2000
  140.5130   72.4550  220.8020 O   0  0  0  0  0  0  0  0  0  0  0  0
  139.8900   72.6510  221.8570 C   0  0  0  0  0  0  0  0  0  0  0  0
  139.1230   73.8570  221.9960 N   0  0  0  0  0  0  0  0  0  0  0  0
  139.0520   74.8370  220.9710 C   0  0  0  0  0  0  0  0  0  0  0  0
  140.0090   75.9170  220.9360 C   0  0  0  0  0  0  0  0  0  0  0  0
  139.4740   77.0770  221.2240 O   0  0  0  0  0  0  0  0  0  0  0  0
  141.3730   75.9720  220.6650 N   0  0  0  0  0  0  0  0  0  0  0  0
  142.4370   74.9410  220.8230 C   0  0  0  0  0  0  0  0  0  0  0  0
  143.0250   74.9510  219.4210 C   0  0  0  0  0  0  0  0  0  0  0  0
  142.7580   76.3440  218.8530 C   0  0  0  0  0  0  0  0  0  0  0  0
  142.2060   77.0380  220.0850 C   0  0  1  0  0  0  0  0  0  0  0  0
  141.5470   78.3190  219.8900 C   0  0  0  0  0  0  0  0  0  0  0  0
  141.2410   78.9460  221.1380 N   0  0  0  0  0  0  0  0  0  0  0  0
  142.1720   79.8930  221.6330 C   0  0  0  0  0  0  0  0  0  0  0  0
  142.1690   79.9100  223.1370 C   0  0  0  0  0  0  0  0  0  0  0  0
  141.8090   78.6780  223.8910 C   0  0  0  0  0  0  0  0  0  0  0  0
  140.8150   79.7840  223.7900 C   0  0  0  0  0  0  0  0  0  0  0  0
  139.9250   71.6790  222.9520 C   0  0  0  0  0  0  0  0  0  0  0  0
  139.4370   70.4110  222.7300 C   0  0  0  0  0  0  0  0  0  0  0  0
  139.4920   69.5310  223.8010 C   0  0  0  0  0  0  0  0  0  0  0  0
  140.0120   69.9070  225.0360 C   0  0  0  0  0  0  0  0  0  0  0  0
  140.0710   69.0430  226.1080 C   0  0  0  0  0  0  0  0  0  0  0  0
  140.6060   69.5060  227.3000 C   0  0  0  0  0  0  0  0  0  0  0  0
  140.7050   68.4450  228.7040 Cl  0  0  0  0  0  0  0  0  0  0  0  0
  141.0790   70.7900  227.4590 C   0  0  0  0  0  0  0  0  0  0  0  0
  141.0130   71.6410  226.3780 C   0  0  0  0  0  0  0  0  0  0  0  0
  140.4810   71.1800  225.1940 C   0  0  0  0  0  0  0  0  0  0  0  0
  140.4250   72.0230  224.1560 N   0  0  0  0  0  0  0  0  0  0  0  0
  138.6100   73.9690  222.9210 H   0  0  0  0  0  0  0  0  0  0  0  0
  139.1419   74.3022  220.0139 H   0  0  0  0  0  0  0  0  0  0  0  0
  138.1008   75.3494  221.1773 H   0  0  0  0  0  0  0  0  0  0  0  0
  143.1801   75.2339  221.5794 H   0  0  0  0  0  0  0  0  0  0  0  0
  142.0826   73.9590  221.1697 H   0  0  0  0  0  0  0  0  0  0  0  0
  144.1070   74.7569  219.4606 H   0  0  0  0  0  0  0  0  0  0  0  0
  142.5725   74.1699  218.7925 H   0  0  0  0  0  0  0  0  0  0  0  0
  143.6822   76.8221  218.4963 H   0  0  0  0  0  0  0  0  0  0  0  0
  142.0936   76.3643  217.9766 H   0  0  0  0  0  0  0  0  0  0  0  0
  143.0003   77.4017  220.7535 H   0  0  0  0  0  0  0  0  0  0  0  0
  142.2112   78.9784  219.3120 H   0  0  0  0  0  0  0  0  0  0  0  0
  140.6040   78.1437  219.3514 H   0  0  0  0  0  0  0  0  0  0  0  0
  140.7360   78.3750  221.8230 H   0  0  0  0  0  0  0  0  0  0  0  0
  143.1788   79.6286  221.2774 H   0  0  0  0  0  0  0  0  0  0  0  0
  141.8868   80.8910  221.2688 H   0  0  0  0  0  0  0  0  0  0  0  0
  143.0226   80.6023  223.1824 H   0  0  0  0  0  0  0  0  0  0  0  0
  141.6367   77.7357  223.3503 H   0  0  0  0  0  0  0  0  0  0  0  0
  142.2634   78.1210  224.7236 H   0  0  0  0  0  0  0  0  0  0  0  0
  139.9139   79.6606  223.1713 H   0  0  0  0  0  0  0  0  0  0  0  0
  140.2367   80.3820  224.5097 H   0  0  0  0  0  0  0  0  0  0  0  0
  139.0252   70.1115  221.7549 H   0  0  0  0  0  0  0  0  0  0  0  0
  139.1137   68.5064  223.6703 H   0  0  0  0  0  0  0  0  0  0  0  0
  139.7023   68.0104  226.0198 H   0  0  0  0  0  0  0  0  0  0  0  0
  141.4966   71.1254  228.4198 H   0  0  0  0  0  0  0  0  0  0  0  0
  141.3801   72.6747  226.4591 H   0  0  0  0  0  0  0  0  0  0  0  0
  1  2  2  0
  2  3  1  0
  3  4  1  0
  4  5  1  0
  5  6  2  0
  5  7  1  0
  7  8  1  0
  8  9  1  0
  9 10  1  0
 10 11  1  0
 11 12  1  0
 12 13  1  0
 13 14  1  0
 14 15  1  0
 15 16  1  0
 16 17  1  0
  2 18  1  0
 18 19  2  0
 19 20  1  0
 20 21  2  0
 21 22  1  0
 22 23  2  0
 23 24  1  0
 23 25  1  0
 25 26  2  0
 26 27  1  0
 27 28  2  0
 11  7  1  0
 17 15  1  0
 28 18  1  0
 27 21  1  0
  3 29  1  0
  4 30  1  0
  4 31  1  0
  8 32  1  0
  8 33  1  0
  9 34  1  0
  9 35  1  0
 10 36  1  0
 10 37  1  0
 11 38  1  1
 12 39  1  0
 12 40  1  0
 13 41  1  0
 14 42  1  0
 14 43  1  0
 15 44  1  0
 16 45  1  0
 16 46  1  0
 17 47  1  0
 17 48  1  0
 19 49  1  0
 20 50  1  0
 22 51  1  0
 25 52  1  0
 26 53  1  0
M  END
>  <smiles>  (3) 
O=C(NCC(=O)N1CCC[C@H]1CNCC1CC1)c1ccc2cc(Cl)ccc2n1

>  <score_type>  (3) 
oracle

>  <origin>  (3) 
autodockgpu

>  <m_score__min__energy>  (3) 
-8.1199999999999992

>  <m_primary>  (3) 
energy

>  <rmsd>  (3) 
2.492091444999924

>  <m_score__min__rmsd>  (3) 
2.492091444999924

>  <meeko>  (3) 
{"free_energy": -7.56, "intermolecular_energy": -9.95, "internal_energy": -2.12, "cluster_size": 44, "cluster_id": 1, "rank_in_cluster": 24}

>  <energy>  (3) 
-8.07

>  <cluster_rmsd>  (3) 
0.74

>  <cluster>  (3) 
1

$$$$

     RDKit          3D

 53 56  0  0  0  0  0  0  0  0999 V2000
  139.4500   71.9730  220.6530 O   0  0  0  0  0  0  0  0  0  0  0  0
  139.1750   72.3020  221.8180 C   0  0  0  0  0  0  0  0  0  0  0  0
  138.6240   73.6060  222.0590 N   0  0  0  0  0  0  0  0  0  0  0  0
  138.3820   74.5370  221.0140 C   0  0  0  0  0  0  0  0  0  0  0  0
  139.4640   75.3430  220.5020 C   0  0  0  0  0  0  0  0  0  0  0  0
  139.0520   76.2870  219.6920 O   0  0  0  0  0  0  0  0  0  0  0  0
  140.8420   75.3230  220.6960 N   0  0  0  0  0  0  0  0  0  0  0  0
  141.7830   74.1800  220.8620 C   0  0  0  0  0  0  0  0  0  0  0  0
  142.7980   74.5130  219.7810 C   0  0  0  0  0  0  0  0  0  0  0  0
  142.7490   76.0300  219.5990 C   0  0  0  0  0  0  0  0  0  0  0  0
  141.8320   76.4120  220.7460 C   0  0  1  0  0  0  0  0  0  0  0  0
  141.2880   77.7600  220.7450 C   0  0  0  0  0  0  0  0  0  0  0  0
  141.9720   78.6010  221.6780 N   0  0  0  0  0  0  0  0  0  0  0  0
  141.2210   79.1010  222.7710 C   0  0  0  0  0  0  0  0  0  0  0  0
  142.1200   79.7610  223.7810 C   0  0  0  0  0  0  0  0  0  0  0  0
  142.2080   81.2460  223.8360 C   0  0  0  0  0  0  0  0  0  0  0  0
  143.3230   80.4740  223.2170 C   0  0  0  0  0  0  0  0  0  0  0  0
  139.4030   71.3870  222.9380 C   0  0  0  0  0  0  0  0  0  0  0  0
  139.0080   70.0740  222.8140 C   0  0  0  0  0  0  0  0  0  0  0  0
  139.2450   69.2510  223.9050 C   0  0  0  0  0  0  0  0  0  0  0  0
  139.8480   69.7260  225.0670 C   0  0  0  0  0  0  0  0  0  0  0  0
  140.0870   68.9190  226.1590 C   0  0  0  0  0  0  0  0  0  0  0  0
  140.6930   69.4790  227.2730 C   0  0  0  0  0  0  0  0  0  0  0  0
  141.0210   68.4950  228.6980 Cl  0  0  0  0  0  0  0  0  0  0  0  0
  141.0640   70.8040  227.3360 C   0  0  0  0  0  0  0  0  0  0  0  0
  140.8180   71.5960  226.2360 C   0  0  0  0  0  0  0  0  0  0  0  0
  140.2160   71.0400  225.1290 C   0  0  0  0  0  0  0  0  0  0  0  0
  139.9850   71.8260  224.0720 N   0  0  0  0  0  0  0  0  0  0  0  0
  138.4070   73.8300  223.0760 H   0  0  0  0  0  0  0  0  0  0  0  0
  137.9829   73.9640  220.1641 H   0  0  0  0  0  0  0  0  0  0  0  0
  137.7154   75.2760  221.4825 H   0  0  0  0  0  0  0  0  0  0  0  0
  142.2406   74.1702  221.8623 H   0  0  0  0  0  0  0  0  0  0  0  0
  141.3226   73.1849  220.7738 H   0  0  0  0  0  0  0  0  0  0  0  0
  143.8047   74.1993  220.0942 H   0  0  0  0  0  0  0  0  0  0  0  0
  142.5673   73.9899  218.8412 H   0  0  0  0  0  0  0  0  0  0  0  0
  143.7448   76.4849  219.7054 H   0  0  0  0  0  0  0  0  0  0  0  0
  142.4092   76.3637  218.6075 H   0  0  0  0  0  0  0  0  0  0  0  0
  142.3677   76.4894  221.7036 H   0  0  0  0  0  0  0  0  0  0  0  0
  141.3914   78.1866  219.7364 H   0  0  0  0  0  0  0  0  0  0  0  0
  140.2297   77.7058  221.0401 H   0  0  0  0  0  0  0  0  0  0  0  0
  142.7090   79.2020  221.2950 H   0  0  0  0  0  0  0  0  0  0  0  0
  140.4927   79.8376  222.4010 H   0  0  0  0  0  0  0  0  0  0  0  0
  140.7034   78.2605  223.2564 H   0  0  0  0  0  0  0  0  0  0  0  0
  141.9253   78.9867  224.5377 H   0  0  0  0  0  0  0  0  0  0  0  0
  141.5479   81.8576  223.2034 H   0  0  0  0  0  0  0  0  0  0  0  0
  142.1387   81.9953  224.6383 H   0  0  0  0  0  0  0  0  0  0  0  0
  143.4820   80.5112  222.1292 H   0  0  0  0  0  0  0  0  0  0  0  0
  144.4103   80.4128  223.3719 H   0  0  0  0  0  0  0  0  0  0  0  0
  138.5296   69.6974  221.8979 H   0  0  0  0  0  0  0  0  0  0  0  0
  138.9483   68.1932  223.8509 H   0  0  0  0  0  0  0  0  0  0  0  0
  139.8036   67.8562  226.1466 H   0  0  0  0  0  0  0  0  0  0  0  0
  141.5418   71.2169  228.2366 H   0  0  0  0  0  0  0  0  0  0  0  0
  141.0989   72.6595  226.2417 H   0  0  0  0  0  0  0  0  0  0  0  0
  1  2  2  0
  2  3  1  0
  3  4  1  0
  4  5  1  0
  5  6  2  0
  5  7  1  0
  7  8  1  0
  8  9  1  0
  9 10  1  0
 10 11  1  0
 11 12  1  0
 12 13  1  0
 13 14  1  0
 14 15  1  0
 15 16  1  0
 16 17  1  0
  2 18  1  0
 18 19  2  0
 19 20  1  0
 20 21  2  0
 21 22  1  0
 22 23  2  0
 23 24  1  0
 23 25  1  0
 25 26  2  0
 26 27  1  0
 27 28  2  0
 11  7  1  0
 17 15  1  0
 28 18  1  0
 27 21  1  0
  3 29  1  0
  4 30  1  0
  4 31  1  0
  8 32  1  0
  8 33  1  0
  9 34  1  0
  9 35  1  0
 10 36  1  0
 10 37  1  0
 11 38  1  1
 12 39  1  0
 12 40  1  0
 13 41  1  0
 14 42  1  0
 14 43  1  0
 15 44  1  0
 16 45  1  0
 16 46  1  0
 17 47  1  0
 17 48  1  0
 19 49  1  0
 20 50  1  0
 22 51  1  0
 25 52  1  0
 26 53  1  0
M  END
>  <smiles>  (4) 
O=C(NCC(=O)N1CCC[C@H]1CNCC1CC1)c1ccc2cc(Cl)ccc2n1

>  <score_type>  (4) 
oracle

>  <origin>  (4) 
autodockgpu

>  <m_score__min__energy>  (4) 
-8.1199999999999992

>  <m_primary>  (4) 
energy

>  <rmsd>  (4) 
2.268757343624487

>  <m_score__min__rmsd>  (4) 
2.268757343624487

>  <meeko>  (4) 
{"free_energy": -7.88, "intermolecular_energy": -10.27, "internal_energy": -1.44, "cluster_size": 44, "cluster_id": 1, "rank_in_cluster": 10}

>  <energy>  (4) 
-8.03

>  <cluster_rmsd>  (4) 
0.98

>  <cluster>  (4) 
1

$$$$

     RDKit          3D

 53 56  0  0  0  0  0  0  0  0999 V2000
  139.0490   72.0310  220.7790 O   0  0  0  0  0  0  0  0  0  0  0  0
  139.2920   72.4230  221.9310 C   0  0  0  0  0  0  0  0  0  0  0  0
  139.3540   73.8350  222.1860 N   0  0  0  0  0  0  0  0  0  0  0  0
  139.1500   74.8020  221.1680 C   0  0  0  0  0  0  0  0  0  0  0  0
  140.2000   75.7360  220.8370 C   0  0  0  0  0  0  0  0  0  0  0  0
  139.7730   76.9730  220.7640 O   0  0  0  0  0  0  0  0  0  0  0  0
  141.5610   75.5900  220.5870 N   0  0  0  0  0  0  0  0  0  0  0  0
  142.4430   74.3930  220.6840 C   0  0  0  0  0  0  0  0  0  0  0  0
  143.0580   74.4040  219.2940 C   0  0  0  0  0  0  0  0  0  0  0  0
  143.0300   75.8580  218.8240 C   0  0  0  0  0  0  0  0  0  0  0  0
  142.5660   76.5460  220.0950 C   0  0  1  0  0  0  0  0  0  0  0  0
  142.1250   77.9260  219.9850 C   0  0  0  0  0  0  0  0  0  0  0  0
  142.1190   78.5790  221.2570 N   0  0  0  0  0  0  0  0  0  0  0  0
  141.7860   79.9560  221.2770 C   0  0  0  0  0  0  0  0  0  0  0  0
  141.5180   80.4200  222.6820 C   0  0  0  0  0  0  0  0  0  0  0  0
  142.2360   79.7870  223.8220 C   0  0  0  0  0  0  0  0  0  0  0  0
  140.8110   79.4300  223.5750 C   0  0  0  0  0  0  0  0  0  0  0  0
  139.5150   71.4730  223.0240 C   0  0  0  0  0  0  0  0  0  0  0  0
  139.1570   70.1560  222.8430 C   0  0  0  0  0  0  0  0  0  0  0  0
  139.3870   69.3000  223.9090 C   0  0  0  0  0  0  0  0  0  0  0  0
  139.9480   69.7470  225.1020 C   0  0  0  0  0  0  0  0  0  0  0  0
  140.1800   68.9070  226.1700 C   0  0  0  0  0  0  0  0  0  0  0  0
  140.7440   69.4410  227.3190 C   0  0  0  0  0  0  0  0  0  0  0  0
  141.0610   68.4130  228.7160 Cl  0  0  0  0  0  0  0  0  0  0  0  0
  141.0800   70.7710  227.4390 C   0  0  0  0  0  0  0  0  0  0  0  0
  140.8420   71.5970  226.3630 C   0  0  0  0  0  0  0  0  0  0  0  0
  140.2820   71.0660  225.2210 C   0  0  0  0  0  0  0  0  0  0  0  0
  140.0580   71.8850  224.1880 N   0  0  0  0  0  0  0  0  0  0  0  0
  139.5650   74.1090  223.1920 H   0  0  0  0  0  0  0  0  0  0  0  0
  138.9158   74.2483  220.2468 H   0  0  0  0  0  0  0  0  0  0  0  0
  138.3622   75.4459  221.5860 H   0  0  0  0  0  0  0  0  0  0  0  0
  143.2052   74.5102  221.4684 H   0  0  0  0  0  0  0  0  0  0  0  0
  141.9283   73.4594  220.9552 H   0  0  0  0  0  0  0  0  0  0  0  0
  144.0940   74.0362  219.3330 H   0  0  0  0  0  0  0  0  0  0  0  0
  142.5020   73.7506  218.6056 H   0  0  0  0  0  0  0  0  0  0  0  0
  144.0270   76.2047  218.5144 H   0  0  0  0  0  0  0  0  0  0  0  0
  142.3984   76.0446  217.9430 H   0  0  0  0  0  0  0  0  0  0  0  0
  143.3920   76.7317  220.7973 H   0  0  0  0  0  0  0  0  0  0  0  0
  142.8054   78.4656  219.3098 H   0  0  0  0  0  0  0  0  0  0  0  0
  141.0978   77.9289  219.5916 H   0  0  0  0  0  0  0  0  0  0  0  0
  142.8060   78.2470  221.9420 H   0  0  0  0  0  0  0  0  0  0  0  0
  142.6224   80.5355  220.8592 H   0  0  0  0  0  0  0  0  0  0  0  0
  140.8772   80.1078  220.6761 H   0  0  0  0  0  0  0  0  0  0  0  0
  141.3738   81.4632  222.3643 H   0  0  0  0  0  0  0  0  0  0  0  0
  143.0272   79.0478  223.6282 H   0  0  0  0  0  0  0  0  0  0  0  0
  142.7983   80.1671  224.6876 H   0  0  0  0  0  0  0  0  0  0  0  0
  140.5509   78.4315  223.1938 H   0  0  0  0  0  0  0  0  0  0  0  0
  139.8887   79.4394  224.1744 H   0  0  0  0  0  0  0  0  0  0  0  0
  138.7117   69.8014  221.9017 H   0  0  0  0  0  0  0  0  0  0  0  0
  139.1187   68.2379  223.8093 H   0  0  0  0  0  0  0  0  0  0  0  0
  139.9239   67.8388  226.1123 H   0  0  0  0  0  0  0  0  0  0  0  0
  141.5249   71.1618  228.3660 H   0  0  0  0  0  0  0  0  0  0  0  0
  141.0954   72.6662  226.4143 H   0  0  0  0  0  0  0  0  0  0  0  0
  1  2  2  0
  2  3  1  0
  3  4  1  0
  4  5  1  0
  5  6  2  0
  5  7  1  0
  7  8  1  0
  8  9  1  0
  9 10  1  0
 10 11  1  0
 11 12  1  0
 12 13  1  0
 13 14  1  0
 14 15  1  0
 15 16  1  0
 16 17  1  0
  2 18  1  0
 18 19  2  0
 19 20  1  0
 20 21  2  0
 21 22  1  0
 22 23  2  0
 23 24  1  0
 23 25  1  0
 25 26  2  0
 26 27  1  0
 27 28  2  0
 11  7  1  0
 17 15  1  0
 28 18  1  0
 27 21  1  0
  3 29  1  0
  4 30  1  0
  4 31  1  0
  8 32  1  0
  8 33  1  0
  9 34  1  0
  9 35  1  0
 10 36  1  0
 10 37  1  0
 11 38  1  1
 12 39  1  0
 12 40  1  0
 13 41  1  0
 14 42  1  0
 14 43  1  0
 15 44  1  0
 16 45  1  0
 16 46  1  0
 17 47  1  0
 17 48  1  0
 19 49  1  0
 20 50  1  0
 22 51  1  0
 25 52  1  0
 26 53  1  0
M  END
>  <smiles>  (5) 
O=C(NCC(=O)N1CCC[C@H]1CNCC1CC1)c1ccc2cc(Cl)ccc2n1

>  <score_type>  (5) 
oracle

>  <origin>  (5) 
autodockgpu

>  <m_score__min__energy>  (5) 
-8.1199999999999992

>  <m_primary>  (5) 
energy

>  <rmsd>  (5) 
2.4873140585813873

>  <m_score__min__rmsd>  (5) 
2.4873140585813873

>  <meeko>  (5) 
{"free_energy": -7.8, "intermolecular_energy": -10.18, "internal_energy": -1.54, "cluster_size": 44, "cluster_id": 1, "rank_in_cluster": 13}

>  <energy>  (5) 
-8.03

>  <cluster_rmsd>  (5) 
0.27

>  <cluster>  (5) 
1

$$$$

     RDKit          3D

 53 56  0  0  0  0  0  0  0  0999 V2000
  138.2790   71.5370  220.8050 O   0  0  0  0  0  0  0  0  0  0  0  0
  138.5760   72.0010  221.9170 C   0  0  0  0  0  0  0  0  0  0  0  0
  138.5750   73.4260  222.0980 N   0  0  0  0  0  0  0  0  0  0  0  0
  138.2480   74.3270  221.0500 C   0  0  0  0  0  0  0  0  0  0  0  0
  139.0650   75.4940  220.8200 C   0  0  0  0  0  0  0  0  0  0  0  0
  138.3570   76.5860  220.6730 O   0  0  0  0  0  0  0  0  0  0  0  0
  140.4400   75.6920  220.7290 N   0  0  0  0  0  0  0  0  0  0  0  0
  141.4370   75.1470  219.7660 C   0  0  0  0  0  0  0  0  0  0  0  0
  142.0800   76.4400  219.2920 C   0  0  0  0  0  0  0  0  0  0  0  0
  141.9150   77.4450  220.4310 C   0  0  0  0  0  0  0  0  0  0  0  0
  141.3530   76.5400  221.5120 C   0  0  1  0  0  0  0  0  0  0  0  0
  140.7750   77.1780  222.6830 C   0  0  0  0  0  0  0  0  0  0  0  0
  140.0590   78.3660  222.3340 N   0  0  0  0  0  0  0  0  0  0  0  0
  140.1420   79.4600  223.2300 C   0  0  0  0  0  0  0  0  0  0  0  0
  141.5400   79.6100  223.7640 C   0  0  0  0  0  0  0  0  0  0  0  0
  142.1660   80.9590  223.8330 C   0  0  0  0  0  0  0  0  0  0  0  0
  142.5850   80.0190  222.7550 C   0  0  0  0  0  0  0  0  0  0  0  0
  138.9250   71.1230  223.0360 C   0  0  0  0  0  0  0  0  0  0  0  0
  138.5820   69.7920  222.9680 C   0  0  0  0  0  0  0  0  0  0  0  0
  138.9330   69.0060  224.0550 C   0  0  0  0  0  0  0  0  0  0  0  0
  139.5960   69.5330  225.1600 C   0  0  0  0  0  0  0  0  0  0  0  0
  139.9490   68.7630  226.2480 C   0  0  0  0  0  0  0  0  0  0  0  0
  140.6070   69.3760  227.3030 C   0  0  0  0  0  0  0  0  0  0  0  0
  141.0810   68.4400  228.7200 Cl  0  0  0  0  0  0  0  0  0  0  0  0
  140.9220   70.7160  227.3120 C   0  0  0  0  0  0  0  0  0  0  0  0
  140.5630   71.4710  226.2170 C   0  0  0  0  0  0  0  0  0  0  0  0
  139.9080   70.8630  225.1690 C   0  0  0  0  0  0  0  0  0  0  0  0
  139.5670   71.6140  224.1160 N   0  0  0  0  0  0  0  0  0  0  0  0
  138.8360   73.7630  223.0720 H   0  0  0  0  0  0  0  0  0  0  0  0
  138.2562   73.7448  220.1167 H   0  0  0  0  0  0  0  0  0  0  0  0
  137.2861   74.7517  221.3730 H   0  0  0  0  0  0  0  0  0  0  0  0
  142.1644   74.4869  220.2612 H   0  0  0  0  0  0  0  0  0  0  0  0
  141.0147   74.5195  218.9673 H   0  0  0  0  0  0  0  0  0  0  0  0
  143.1469   76.2786  219.0783 H   0  0  0  0  0  0  0  0  0  0  0  0
  141.6096   76.8042  218.3668 H   0  0  0  0  0  0  0  0  0  0  0  0
  142.8784   77.8847  220.7286 H   0  0  0  0  0  0  0  0  0  0  0  0
  141.2891   78.3166  220.1889 H   0  0  0  0  0  0  0  0  0  0  0  0
  142.1386   75.9833  222.0439 H   0  0  0  0  0  0  0  0  0  0  0  0
  140.0835   76.4738  223.1688 H   0  0  0  0  0  0  0  0  0  0  0  0
  141.5934   77.4561  223.3633 H   0  0  0  0  0  0  0  0  0  0  0  0
  139.1780   78.2340  221.8260 H   0  0  0  0  0  0  0  0  0  0  0  0
  139.8575   80.3815  222.7009 H   0  0  0  0  0  0  0  0  0  0  0  0
  139.4607   79.2763  224.0739 H   0  0  0  0  0  0  0  0  0  0  0  0
  141.4024   78.8017  224.4973 H   0  0  0  0  0  0  0  0  0  0  0  0
  141.5735   81.8511  223.5818 H   0  0  0  0  0  0  0  0  0  0  0  0
  142.6957   81.5261  224.6127 H   0  0  0  0  0  0  0  0  0  0  0  0
  142.2973   80.2135  221.7113 H   0  0  0  0  0  0  0  0  0  0  0  0
  143.5434   79.6027  222.4112 H   0  0  0  0  0  0  0  0  0  0  0  0
  138.0568   69.3735  222.0968 H   0  0  0  0  0  0  0  0  0  0  0  0
  138.6804   67.9354  224.0440 H   0  0  0  0  0  0  0  0  0  0  0  0
  139.7143   67.6888  226.2781 H   0  0  0  0  0  0  0  0  0  0  0  0
  141.4442   71.1699  228.1671 H   0  0  0  0  0  0  0  0  0  0  0  0
  140.7964   72.5453  226.1802 H   0  0  0  0  0  0  0  0  0  0  0  0
  1  2  2  0
  2  3  1  0
  3  4  1  0
  4  5  1  0
  5  6  2  0
  5  7  1  0
  7  8  1  0
  8  9  1  0
  9 10  1  0
 10 11  1  0
 11 12  1  0
 12 13  1  0
 13 14  1  0
 14 15  1  0
 15 16  1  0
 16 17  1  0
  2 18  1  0
 18 19  2  0
 19 20  1  0
 20 21  2  0
 21 22  1  0
 22 23  2  0
 23 24  1  0
 23 25  1  0
 25 26  2  0
 26 27  1  0
 27 28  2  0
 11  7  1  0
 17 15  1  0
 28 18  1  0
 27 21  1  0
  3 29  1  0
  4 30  1  0
  4 31  1  0
  8 32  1  0
  8 33  1  0
  9 34  1  0
  9 35  1  0
 10 36  1  0
 10 37  1  0
 11 38  1  1
 12 39  1  0
 12 40  1  0
 13 41  1  0
 14 42  1  0
 14 43  1  0
 15 44  1  0
 16 45  1  0
 16 46  1  0
 17 47  1  0
 17 48  1  0
 19 49  1  0
 20 50  1  0
 22 51  1  0
 25 52  1  0
 26 53  1  0
M  END
>  <smiles>  (6) 
O=C(NCC(=O)N1CCC[C@H]1CNCC1CC1)c1ccc2cc(Cl)ccc2n1

>  <score_type>  (6) 
oracle

>  <origin>  (6) 
autodockgpu

>  <m_score__min__energy>  (6) 
-8.1199999999999992

>  <m_primary>  (6) 
energy

>  <rmsd>  (6) 
2.0389017766089967

>  <m_score__min__rmsd>  (6) 
2.0389017766089967

>  <meeko>  (6) 
{"free_energy": -7.1, "intermolecular_energy": -9.49, "internal_energy": -2.29, "cluster_size": 44, "cluster_id": 1, "rank_in_cluster": 38}

>  <energy>  (6) 
-7.97

>  <cluster_rmsd>  (6) 
1.18

>  <cluster>  (6) 
1

$$$$

     RDKit          3D

 53 56  0  0  0  0  0  0  0  0999 V2000
  139.8240   72.4470  220.9590 O   0  0  0  0  0  0  0  0  0  0  0  0
  139.1490   72.4620  222.0000 C   0  0  0  0  0  0  0  0  0  0  0  0
  138.1150   73.4480  222.1440 N   0  0  0  0  0  0  0  0  0  0  0  0
  137.8370   74.4130  221.1390 C   0  0  0  0  0  0  0  0  0  0  0  0
  138.9170   74.9990  220.3820 C   0  0  0  0  0  0  0  0  0  0  0  0
  139.1370   74.3760  219.2500 O   0  0  0  0  0  0  0  0  0  0  0  0
  139.7590   76.0830  220.6060 N   0  0  0  0  0  0  0  0  0  0  0  0
  139.5490   77.5400  220.3750 C   0  0  0  0  0  0  0  0  0  0  0  0
  139.8910   78.0790  221.7550 C   0  0  0  0  0  0  0  0  0  0  0  0
  140.8590   77.0750  222.3800 C   0  0  0  0  0  0  0  0  0  0  0  0
  141.1060   76.1610  221.1940 C   0  0  1  0  0  0  0  0  0  0  0  0
  141.7560   74.8870  221.4560 C   0  0  0  0  0  0  0  0  0  0  0  0
  141.9600   74.1450  220.2520 N   0  0  0  0  0  0  0  0  0  0  0  0
  143.0050   74.5730  219.3950 C   0  0  0  0  0  0  0  0  0  0  0  0
  144.2080   73.6800  219.5320 C   0  0  0  0  0  0  0  0  0  0  0  0
  144.3540   72.8120  220.7320 C   0  0  0  0  0  0  0  0  0  0  0  0
  145.1770   74.0500  220.6280 C   0  0  0  0  0  0  0  0  0  0  0  0
  139.3890   71.4950  223.0730 C   0  0  0  0  0  0  0  0  0  0  0  0
  138.9980   70.1880  222.8900 C   0  0  0  0  0  0  0  0  0  0  0  0
  139.2460   69.3140  223.9380 C   0  0  0  0  0  0  0  0  0  0  0  0
  139.8580   69.7350  225.1160 C   0  0  0  0  0  0  0  0  0  0  0  0
  140.1100   68.8770  226.1650 C   0  0  0  0  0  0  0  0  0  0  0  0
  140.7240   69.3860  227.3000 C   0  0  0  0  0  0  0  0  0  0  0  0
  141.0680   68.3350  228.6730 Cl  0  0  0  0  0  0  0  0  0  0  0  0
  141.0920   70.7070  227.4230 C   0  0  0  0  0  0  0  0  0  0  0  0
  140.8340   71.5510  226.3650 C   0  0  0  0  0  0  0  0  0  0  0  0
  140.2230   71.0450  225.2380 C   0  0  0  0  0  0  0  0  0  0  0  0
  139.9800   71.8810  224.2220 N   0  0  0  0  0  0  0  0  0  0  0  0
  137.5700   73.4100  223.0570 H   0  0  0  0  0  0  0  0  0  0  0  0
  137.1656   73.9310  220.4131 H   0  0  0  0  0  0  0  0  0  0  0  0
  137.4377   75.2643  221.7099 H   0  0  0  0  0  0  0  0  0  0  0  0
  140.2278   77.9329  219.6037 H   0  0  0  0  0  0  0  0  0  0  0  0
  138.5484   77.8109  220.0071 H   0  0  0  0  0  0  0  0  0  0  0  0
  140.3683   79.0664  221.6707 H   0  0  0  0  0  0  0  0  0  0  0  0
  138.9882   78.2009  222.3716 H   0  0  0  0  0  0  0  0  0  0  0  0
  141.7858   77.5606  222.7194 H   0  0  0  0  0  0  0  0  0  0  0  0
  140.4795   76.5688  223.2799 H   0  0  0  0  0  0  0  0  0  0  0  0
  141.8720   76.5579  220.5115 H   0  0  0  0  0  0  0  0  0  0  0  0
  142.7309   75.0741  221.9299 H   0  0  0  0  0  0  0  0  0  0  0  0
  141.1049   74.2975  222.1182 H   0  0  0  0  0  0  0  0  0  0  0  0
  141.1230   73.7460  219.8140 H   0  0  0  0  0  0  0  0  0  0  0  0
  142.6517   74.5449  218.3537 H   0  0  0  0  0  0  0  0  0  0  0  0
  143.2927   75.5973  219.6742 H   0  0  0  0  0  0  0  0  0  0  0  0
  144.2526   73.4882  218.4498 H   0  0  0  0  0  0  0  0  0  0  0  0
  143.5399   72.7561  221.4696 H   0  0  0  0  0  0  0  0  0  0  0  0
  144.5774   71.7470  220.8926 H   0  0  0  0  0  0  0  0  0  0  0  0
  144.9670   74.9084  221.2831 H   0  0  0  0  0  0  0  0  0  0  0  0
  146.2518   74.2793  220.6753 H   0  0  0  0  0  0  0  0  0  0  0  0
  138.5138   69.8539  221.9605 H   0  0  0  0  0  0  0  0  0  0  0  0
  138.9512   68.2592  223.8359 H   0  0  0  0  0  0  0  0  0  0  0  0
  139.8311   67.8147  226.1036 H   0  0  0  0  0  0  0  0  0  0  0  0
  141.5772   71.0773  228.3381 H   0  0  0  0  0  0  0  0  0  0  0  0
  141.1118   72.6140  226.4191 H   0  0  0  0  0  0  0  0  0  0  0  0
  1  2  2  0
  2  3  1  0
  3  4  1  0
  4  5  1  0
  5  6  2  0
  5  7  1  0
  7  8  1  0
  8  9  1  0
  9 10  1  0
 10 11  1  0
 11 12  1  0
 12 13  1  0
 13 14  1  0
 14 15  1  0
 15 16  1  0
 16 17  1  0
  2 18  1  0
 18 19  2  0
 19 20  1  0
 20 21  2  0
 21 22  1  0
 22 23  2  0
 23 24  1  0
 23 25  1  0
 25 26  2  0
 26 27  1  0
 27 28  2  0
 11  7  1  0
 17 15  1  0
 28 18  1  0
 27 21  1  0
  3 29  1  0
  4 30  1  0
  4 31  1  0
  8 32  1  0
  8 33  1  0
  9 34  1  0
  9 35  1  0
 10 36  1  0
 10 37  1  0
 11 38  1  6
 12 39  1  0
 12 40  1  0
 13 41  1  0
 14 42  1  0
 14 43  1  0
 15 44  1  0
 16 45  1  0
 16 46  1  0
 17 47  1  0
 17 48  1  0
 19 49  1  0
 20 50  1  0
 22 51  1  0
 25 52  1  0
 26 53  1  0
M  END
>  <smiles>  (7) 
O=C(NCC(=O)N1CCC[C@H]1CNCC1CC1)c1ccc2cc(Cl)ccc2n1

>  <score_type>  (7) 
oracle

>  <origin>  (7) 
autodockgpu

>  <m_score__min__energy>  (7) 
-8.1199999999999992

>  <m_primary>  (7) 
energy

>  <rmsd>  (7) 
4.02605069572794

>  <m_score__min__rmsd>  (7) 
4.02605069572794

>  <meeko>  (7) 
{"free_energy": -6.28, "intermolecular_energy": -8.66, "internal_energy": -2.96, "cluster_size": 44, "cluster_id": 1, "rank_in_cluster": 44}

>  <energy>  (7) 
-7.96

>  <cluster_rmsd>  (7) 
0.9

>  <cluster>  (7) 
1

$$$$

     RDKit          3D

 53 56  0  0  0  0  0  0  0  0999 V2000
  139.0120   71.8980  220.6420 O   0  0  0  0  0  0  0  0  0  0  0  0
  139.0920   72.3040  221.8120 C   0  0  0  0  0  0  0  0  0  0  0  0
  138.9240   73.7060  222.0730 N   0  0  0  0  0  0  0  0  0  0  0  0
  138.6720   74.6490  221.0410 C   0  0  0  0  0  0  0  0  0  0  0  0
  139.5670   75.7640  220.8470 C   0  0  0  0  0  0  0  0  0  0  0  0
  138.9320   76.8990  220.6820 O   0  0  0  0  0  0  0  0  0  0  0  0
  140.9530   75.8770  220.8050 N   0  0  0  0  0  0  0  0  0  0  0  0
  142.0090   74.8350  220.6690 C   0  0  0  0  0  0  0  0  0  0  0  0
  142.7800   75.3940  219.4850 C   0  0  0  0  0  0  0  0  0  0  0  0
  142.5620   76.9060  219.5050 C   0  0  0  0  0  0  0  0  0  0  0  0
  141.8320   77.0580  220.8270 C   0  0  1  0  0  0  0  0  0  0  0  0
  141.1770   78.3290  221.0860 C   0  0  0  0  0  0  0  0  0  0  0  0
  140.5540   78.3450  222.3720 N   0  0  0  0  0  0  0  0  0  0  0  0
  141.3600   78.7130  223.4790 C   0  0  0  0  0  0  0  0  0  0  0  0
  142.4070   79.7110  223.0690 C   0  0  0  0  0  0  0  0  0  0  0  0
  142.9140   80.7020  224.0580 C   0  0  0  0  0  0  0  0  0  0  0  0
  141.9540   81.1490  223.0090 C   0  0  0  0  0  0  0  0  0  0  0  0
  139.3530   71.3820  222.9190 C   0  0  0  0  0  0  0  0  0  0  0  0
  138.9920   70.0600  222.7820 C   0  0  0  0  0  0  0  0  0  0  0  0
  139.2590   69.2310  223.8610 C   0  0  0  0  0  0  0  0  0  0  0  0
  139.8590   69.7070  225.0230 C   0  0  0  0  0  0  0  0  0  0  0  0
  140.1280   68.8930  226.1030 C   0  0  0  0  0  0  0  0  0  0  0  0
  140.7280   69.4550  227.2190 C   0  0  0  0  0  0  0  0  0  0  0  0
  141.0940   68.4620  228.6290 Cl  0  0  0  0  0  0  0  0  0  0  0  0
  141.0660   70.7880  227.2960 C   0  0  0  0  0  0  0  0  0  0  0  0
  140.7900   71.5880  226.2080 C   0  0  0  0  0  0  0  0  0  0  0  0
  140.1940   71.0290  225.0990 C   0  0  0  0  0  0  0  0  0  0  0  0
  139.9330   71.8220  224.0540 N   0  0  0  0  0  0  0  0  0  0  0  0
  139.0020   73.9940  223.0940 H   0  0  0  0  0  0  0  0  0  0  0  0
  138.6549   74.0875  220.0953 H   0  0  0  0  0  0  0  0  0  0  0  0
  137.7359   75.1296  221.3614 H   0  0  0  0  0  0  0  0  0  0  0  0
  142.6362   74.7693  221.5703 H   0  0  0  0  0  0  0  0  0  0  0  0
  141.6338   73.8097  220.5353 H   0  0  0  0  0  0  0  0  0  0  0  0
  143.8507   75.1624  219.5844 H   0  0  0  0  0  0  0  0  0  0  0  0
  142.4334   74.9531  218.5387 H   0  0  0  0  0  0  0  0  0  0  0  0
  143.5154   77.4546  219.5013 H   0  0  0  0  0  0  0  0  0  0  0  0
  142.0228   77.3047  218.6331 H   0  0  0  0  0  0  0  0  0  0  0  0
  142.5193   77.0914  221.6852 H   0  0  0  0  0  0  0  0  0  0  0  0
  141.9266   79.1328  221.0420 H   0  0  0  0  0  0  0  0  0  0  0  0
  140.3982   78.4774  220.3235 H   0  0  0  0  0  0  0  0  0  0  0  0
  139.8190   77.6480  222.5320 H   0  0  0  0  0  0  0  0  0  0  0  0
  140.7225   79.1582  224.2570 H   0  0  0  0  0  0  0  0  0  0  0  0
  141.8622   77.8132  223.8639 H   0  0  0  0  0  0  0  0  0  0  0  0
  142.8996   78.9942  222.3955 H   0  0  0  0  0  0  0  0  0  0  0  0
  142.5900   80.6432  225.1076 H   0  0  0  0  0  0  0  0  0  0  0  0
  143.9132   81.0294  224.3812 H   0  0  0  0  0  0  0  0  0  0  0  0
  140.9221   81.4138  223.2828 H   0  0  0  0  0  0  0  0  0  0  0  0
  141.9492   81.9344  222.2389 H   0  0  0  0  0  0  0  0  0  0  0  0
  138.5169   69.6817  221.8649 H   0  0  0  0  0  0  0  0  0  0  0  0
  138.9888   68.1666  223.7967 H   0  0  0  0  0  0  0  0  0  0  0  0
  139.8726   67.8233  226.0795 H   0  0  0  0  0  0  0  0  0  0  0  0
  141.5414   71.2013  228.1978 H   0  0  0  0  0  0  0  0  0  0  0  0
  141.0423   72.6585  226.2251 H   0  0  0  0  0  0  0  0  0  0  0  0
  1  2  2  0
  2  3  1  0
  3  4  1  0
  4  5  1  0
  5  6  2  0
  5  7  1  0
  7  8  1  0
  8  9  1  0
  9 10  1  0
 10 11  1  0
 11 12  1  0
 12 13  1  0
 13 14  1  0
 14 15  1  0
 15 16  1  0
 16 17  1  0
  2 18  1  0
 18 19  2  0
 19 20  1  0
 20 21  2  0
 21 22  1  0
 22 23  2  0
 23 24  1  0
 23 25  1  0
 25 26  2  0
 26 27  1  0
 27 28  2  0
 11  7  1  0
 17 15  1  0
 28 18  1  0
 27 21  1  0
  3 29  1  0
  4 30  1  0
  4 31  1  0
  8 32  1  0
  8 33  1  0
  9 34  1  0
  9 35  1  0
 10 36  1  0
 10 37  1  0
 11 38  1  1
 12 39  1  0
 12 40  1  0
 13 41  1  0
 14 42  1  0
 14 43  1  0
 15 44  1  0
 16 45  1  0
 16 46  1  0
 17 47  1  0
 17 48  1  0
 19 49  1  0
 20 50  1  0
 22 51  1  0
 25 52  1  0
 26 53  1  0
M  END
>  <smiles>  (8) 
O=C(NCC(=O)N1CCC[C@H]1CNCC1CC1)c1ccc2cc(Cl)ccc2n1

>  <score_type>  (8) 
oracle

>  <origin>  (8) 
autodockgpu

>  <m_score__min__energy>  (8) 
-8.1199999999999992

>  <m_primary>  (8) 
energy

>  <rmsd>  (8) 
2.2741118318939835

>  <m_score__min__rmsd>  (8) 
2.2741118318939835

>  <meeko>  (8) 
{"free_energy": -7.53, "intermolecular_energy": -9.92, "internal_energy": -2.07, "cluster_size": 44, "cluster_id": 1, "rank_in_cluster": 25}

>  <energy>  (8) 
-7.95

>  <cluster_rmsd>  (8) 
1.5

>  <cluster>  (8) 
1

$$$$

     RDKit          3D

 53 56  0  0  0  0  0  0  0  0999 V2000
  138.3260   71.5220  221.3190 O   0  0  0  0  0  0  0  0  0  0  0  0
  138.9310   71.9120  222.3310 C   0  0  0  0  0  0  0  0  0  0  0  0
  139.3280   73.2890  222.4140 N   0  0  0  0  0  0  0  0  0  0  0  0
  139.0570   74.2250  221.3820 C   0  0  0  0  0  0  0  0  0  0  0  0
  139.2890   75.6320  221.6020 C   0  0  0  0  0  0  0  0  0  0  0  0
  140.2180   75.8570  222.4990 O   0  0  0  0  0  0  0  0  0  0  0  0
  138.7350   76.7860  221.0580 N   0  0  0  0  0  0  0  0  0  0  0  0
  137.3120   77.2030  220.9070 C   0  0  0  0  0  0  0  0  0  0  0  0
  137.3640   78.5670  221.5740 C   0  0  0  0  0  0  0  0  0  0  0  0
  138.8000   79.0680  221.4180 C   0  0  0  0  0  0  0  0  0  0  0  0
  139.3620   77.9960  220.5020 C   0  0  1  0  0  0  0  0  0  0  0  0
  140.8060   77.9440  220.3440 C   0  0  0  0  0  0  0  0  0  0  0  0
  141.4750   78.0390  221.6040 N   0  0  0  0  0  0  0  0  0  0  0  0
  142.1870   79.2350  221.8720 C   0  0  0  0  0  0  0  0  0  0  0  0
  141.9150   79.7180  223.2700 C   0  0  0  0  0  0  0  0  0  0  0  0
  141.5880   81.1500  223.5100 C   0  0  0  0  0  0  0  0  0  0  0  0
  142.9490   80.6480  223.8540 C   0  0  0  0  0  0  0  0  0  0  0  0
  139.2430   70.9940  223.4280 C   0  0  0  0  0  0  0  0  0  0  0  0
  138.9150   69.6630  223.2960 C   0  0  0  0  0  0  0  0  0  0  0  0
  139.2300   68.8390  224.3650 C   0  0  0  0  0  0  0  0  0  0  0  0
  139.8440   69.3280  225.5150 C   0  0  0  0  0  0  0  0  0  0  0  0
  140.1600   68.5190  226.5860 C   0  0  0  0  0  0  0  0  0  0  0  0
  140.7710   69.0950  227.6890 C   0  0  0  0  0  0  0  0  0  0  0  0
  141.1970   68.1090  229.0870 Cl  0  0  0  0  0  0  0  0  0  0  0  0
  141.0740   70.4370  227.7620 C   0  0  0  0  0  0  0  0  0  0  0  0
  140.7510   71.2310  226.6830 C   0  0  0  0  0  0  0  0  0  0  0  0
  140.1440   70.6590  225.5870 C   0  0  0  0  0  0  0  0  0  0  0  0
  139.8380   71.4470  224.5510 N   0  0  0  0  0  0  0  0  0  0  0  0
  139.8420   73.5640  223.3050 H   0  0  0  0  0  0  0  0  0  0  0  0
  139.6737   73.9331  220.5192 H   0  0  0  0  0  0  0  0  0  0  0  0
  137.9646   74.1648  221.2680 H   0  0  0  0  0  0  0  0  0  0  0  0
  137.0183   77.2767  219.8495 H   0  0  0  0  0  0  0  0  0  0  0  0
  136.5771   76.5057  221.3356 H   0  0  0  0  0  0  0  0  0  0  0  0
  136.6641   79.2583  221.0819 H   0  0  0  0  0  0  0  0  0  0  0  0
  137.0759   78.5045  222.6338 H   0  0  0  0  0  0  0  0  0  0  0  0
  138.8356   80.0629  220.9502 H   0  0  0  0  0  0  0  0  0  0  0  0
  139.3473   79.2000  222.3630 H   0  0  0  0  0  0  0  0  0  0  0  0
  139.1229   78.1798  219.4442 H   0  0  0  0  0  0  0  0  0  0  0  0
  141.0791   76.9920  219.8652 H   0  0  0  0  0  0  0  0  0  0  0  0
  141.1161   78.7977  219.7235 H   0  0  0  0  0  0  0  0  0  0  0  0
  141.8550   77.1660  221.9860 H   0  0  0  0  0  0  0  0  0  0  0  0
  143.2647   79.0458  221.7593 H   0  0  0  0  0  0  0  0  0  0  0  0
  141.8570   80.0078  221.1621 H   0  0  0  0  0  0  0  0  0  0  0  0
  141.4293   78.7735  223.5563 H   0  0  0  0  0  0  0  0  0  0  0  0
  141.4551   81.8318  222.6571 H   0  0  0  0  0  0  0  0  0  0  0  0
  140.7976   81.6804  224.0614 H   0  0  0  0  0  0  0  0  0  0  0  0
  143.8178   80.9539  223.2527 H   0  0  0  0  0  0  0  0  0  0  0  0
  143.5764   80.6494  224.7576 H   0  0  0  0  0  0  0  0  0  0  0  0
  138.4284   69.2741  222.3894 H   0  0  0  0  0  0  0  0  0  0  0  0
  138.9879   67.7678  224.3031 H   0  0  0  0  0  0  0  0  0  0  0  0
  139.9328   67.4429  226.5656 H   0  0  0  0  0  0  0  0  0  0  0  0
  141.5586   70.8614  228.6537 H   0  0  0  0  0  0  0  0  0  0  0  0
  140.9751   72.3078  226.6969 H   0  0  0  0  0  0  0  0  0  0  0  0
  1  2  2  0
  2  3  1  0
  3  4  1  0
  4  5  1  0
  5  6  2  0
  5  7  1  0
  7  8  1  0
  8  9  1  0
  9 10  1  0
 10 11  1  0
 11 12  1  0
 12 13  1  0
 13 14  1  0
 14 15  1  0
 15 16  1  0
 16 17  1  0
  2 18  1  0
 18 19  2  0
 19 20  1  0
 20 21  2  0
 21 22  1  0
 22 23  2  0
 23 24  1  0
 23 25  1  0
 25 26  2  0
 26 27  1  0
 27 28  2  0
 11  7  1  0
 17 15  1  0
 28 18  1  0
 27 21  1  0
  3 29  1  0
  4 30  1  0
  4 31  1  0
  8 32  1  0
  8 33  1  0
  9 34  1  0
  9 35  1  0
 10 36  1  0
 10 37  1  0
 11 38  1  6
 12 39  1  0
 12 40  1  0
 13 41  1  0
 14 42  1  0
 14 43  1  0
 15 44  1  0
 16 45  1  0
 16 46  1  0
 17 47  1  0
 17 48  1  0
 19 49  1  0
 20 50  1  0
 22 51  1  0
 25 52  1  0
 26 53  1  0
M  END
>  <smiles>  (9) 
O=C(NCC(=O)N1CCC[C@H]1CNCC1CC1)c1ccc2cc(Cl)ccc2n1

>  <score_type>  (9) 
oracle

>  <origin>  (9) 
autodockgpu

>  <m_score__min__energy>  (9) 
-8.1199999999999992

>  <m_primary>  (9) 
energy

>  <rmsd>  (9) 
2.584664945136969

>  <m_score__min__rmsd>  (9) 
2.584664945136969

>  <meeko>  (9) 
{"free_energy": -7.49, "intermolecular_energy": -9.88, "internal_energy": -2.47, "cluster_size": 44, "cluster_id": 1, "rank_in_cluster": 26}

>  <energy>  (9) 
-7.89

>  <cluster_rmsd>  (9) 
1.32

>  <cluster>  (9) 
1

$$$$

     RDKit          3D

 53 56  0  0  0  0  0  0  0  0999 V2000
  138.8090   71.9470  220.7670 O   0  0  0  0  0  0  0  0  0  0  0  0
  139.0930   72.3640  221.9010 C   0  0  0  0  0  0  0  0  0  0  0  0
  139.1610   73.7810  222.1230 N   0  0  0  0  0  0  0  0  0  0  0  0
  138.9190   74.7260  221.0910 C   0  0  0  0  0  0  0  0  0  0  0  0
  140.0260   75.3290  220.3890 C   0  0  0  0  0  0  0  0  0  0  0  0
  139.6450   76.2530  219.5420 O   0  0  0  0  0  0  0  0  0  0  0  0
  141.4030   75.1320  220.4330 N   0  0  0  0  0  0  0  0  0  0  0  0
  142.2000   73.9200  220.7770 C   0  0  0  0  0  0  0  0  0  0  0  0
  143.0840   73.8270  219.5450 C   0  0  0  0  0  0  0  0  0  0  0  0
  143.2100   75.2490  218.9970 C   0  0  0  0  0  0  0  0  0  0  0  0
  142.5240   76.0270  220.1050 C   0  0  1  0  0  0  0  0  0  0  0  0
  142.1680   77.4090  219.8270 C   0  0  0  0  0  0  0  0  0  0  0  0
  142.1560   78.1980  221.0190 N   0  0  0  0  0  0  0  0  0  0  0  0
  141.4430   79.4210  220.9810 C   0  0  0  0  0  0  0  0  0  0  0  0
  141.4740   80.1010  222.3220 C   0  0  0  0  0  0  0  0  0  0  0  0
  142.7520   80.1850  223.0810 C   0  0  0  0  0  0  0  0  0  0  0  0
  141.7170   79.2000  223.5070 C   0  0  0  0  0  0  0  0  0  0  0  0
  139.3560   71.4390  223.0060 C   0  0  0  0  0  0  0  0  0  0  0  0
  139.0180   70.1130  222.8560 C   0  0  0  0  0  0  0  0  0  0  0  0
  139.2850   69.2810  223.9330 C   0  0  0  0  0  0  0  0  0  0  0  0
  139.8640   69.7590  225.1050 C   0  0  0  0  0  0  0  0  0  0  0  0
  140.1340   68.9430  226.1830 C   0  0  0  0  0  0  0  0  0  0  0  0
  140.7120   69.5080  227.3090 C   0  0  0  0  0  0  0  0  0  0  0  0
  141.0780   68.5120  228.7170 Cl  0  0  0  0  0  0  0  0  0  0  0  0
  141.0270   70.8460  227.3980 C   0  0  0  0  0  0  0  0  0  0  0  0
  140.7510   71.6470  226.3120 C   0  0  0  0  0  0  0  0  0  0  0  0
  140.1770   71.0860  225.1930 C   0  0  0  0  0  0  0  0  0  0  0  0
  139.9150   71.8810  224.1500 N   0  0  0  0  0  0  0  0  0  0  0  0
  139.4070   74.0780  223.1150 H   0  0  0  0  0  0  0  0  0  0  0  0
  138.3022   74.2187  220.3346 H   0  0  0  0  0  0  0  0  0  0  0  0
  138.4679   75.5743  221.6266 H   0  0  0  0  0  0  0  0  0  0  0  0
  142.7908   74.0665  221.6932 H   0  0  0  0  0  0  0  0  0  0  0  0
  141.6052   73.0194  220.9895 H   0  0  0  0  0  0  0  0  0  0  0  0
  144.0751   73.4345  219.8164 H   0  0  0  0  0  0  0  0  0  0  0  0
  142.6535   73.1469  218.7952 H   0  0  0  0  0  0  0  0  0  0  0  0
  144.2619   75.5486  218.8801 H   0  0  0  0  0  0  0  0  0  0  0  0
  142.7798   75.3968  217.9955 H   0  0  0  0  0  0  0  0  0  0  0  0
  143.1960   76.2333  220.9510 H   0  0  0  0  0  0  0  0  0  0  0  0
  142.9017   77.8327  219.1255 H   0  0  0  0  0  0  0  0  0  0  0  0
  141.1571   77.4240  219.3936 H   0  0  0  0  0  0  0  0  0  0  0  0
  143.0010   78.1600  221.5990 H   0  0  0  0  0  0  0  0  0  0  0  0
  141.9015   80.0823  220.2310 H   0  0  0  0  0  0  0  0  0  0  0  0
  140.3961   79.2099  220.7176 H   0  0  0  0  0  0  0  0  0  0  0  0
  140.7241   80.8465  222.0189 H   0  0  0  0  0  0  0  0  0  0  0  0
  143.6867   79.8327  222.6204 H   0  0  0  0  0  0  0  0  0  0  0  0
  143.3010   80.9953  223.5831 H   0  0  0  0  0  0  0  0  0  0  0  0
  141.8851   78.1235  223.3558 H   0  0  0  0  0  0  0  0  0  0  0  0
  141.1848   78.9832  224.4450 H   0  0  0  0  0  0  0  0  0  0  0  0
  138.5602   69.7333  221.9306 H   0  0  0  0  0  0  0  0  0  0  0  0
  139.0320   68.2131  223.8589 H   0  0  0  0  0  0  0  0  0  0  0  0
  139.8964   67.8695  226.1503 H   0  0  0  0  0  0  0  0  0  0  0  0
  141.4846   71.2618  228.3078 H   0  0  0  0  0  0  0  0  0  0  0  0
  140.9861   72.7213  226.3382 H   0  0  0  0  0  0  0  0  0  0  0  0
  1  2  2  0
  2  3  1  0
  3  4  1  0
  4  5  1  0
  5  6  2  0
  5  7  1  0
  7  8  1  0
  8  9  1  0
  9 10  1  0
 10 11  1  0
 11 12  1  0
 12 13  1  0
 13 14  1  0
 14 15  1  0
 15 16  1  0
 16 17  1  0
  2 18  1  0
 18 19  2  0
 19 20  1  0
 20 21  2  0
 21 22  1  0
 22 23  2  0
 23 24  1  0
 23 25  1  0
 25 26  2  0
 26 27  1  0
 27 28  2  0
 11  7  1  0
 17 15  1  0
 28 18  1  0
 27 21  1  0
  3 29  1  0
  4 30  1  0
  4 31  1  0
  8 32  1  0
  8 33  1  0
  9 34  1  0
  9 35  1  0
 10 36  1  0
 10 37  1  0
 11 38  1  1
 12 39  1  0
 12 40  1  0
 13 41  1  0
 14 42  1  0
 14 43  1  0
 15 44  1  0
 16 45  1  0
 16 46  1  0
 17 47  1  0
 17 48  1  0
 19 49  1  0
 20 50  1  0
 22 51  1  0
 25 52  1  0
 26 53  1  0
M  END
>  <smiles>  (10) 
O=C(NCC(=O)N1CCC[C@H]1CNCC1CC1)c1ccc2cc(Cl)ccc2n1

>  <score_type>  (10) 
oracle

>  <origin>  (10) 
autodockgpu

>  <m_score__min__energy>  (10) 
-8.1199999999999992

>  <m_primary>  (10) 
energy

>  <rmsd>  (10) 
2.5492664523835016

>  <m_score__min__rmsd>  (10) 
2.5492664523835016

>  <meeko>  (10) 
{"free_energy": -7.71, "intermolecular_energy": -10.09, "internal_energy": -1.67, "cluster_size": 44, "cluster_id": 1, "rank_in_cluster": 17}

>  <energy>  (10) 
-7.88

>  <cluster_rmsd>  (10) 
1.06

>  <cluster>  (10) 
1

$$$$

     RDKit          3D

 53 56  0  0  0  0  0  0  0  0999 V2000
  138.9080   71.9940  220.7810 O   0  0  0  0  0  0  0  0  0  0  0  0
  139.1990   72.3960  221.9190 C   0  0  0  0  0  0  0  0  0  0  0  0
  139.3050   73.8100  222.1490 N   0  0  0  0  0  0  0  0  0  0  0  0
  139.0930   74.7670  221.1220 C   0  0  0  0  0  0  0  0  0  0  0  0
  140.1260   75.0220  220.1470 C   0  0  0  0  0  0  0  0  0  0  0  0
  139.8380   74.5360  218.9650 O   0  0  0  0  0  0  0  0  0  0  0  0
  141.3530   75.6760  220.2080 N   0  0  0  0  0  0  0  0  0  0  0  0
  142.6900   75.2840  219.6810 C   0  0  0  0  0  0  0  0  0  0  0  0
  143.0310   76.5260  218.8740 C   0  0  0  0  0  0  0  0  0  0  0  0
  142.2740   77.6820  219.5250 C   0  0  0  0  0  0  0  0  0  0  0  0
  141.7270   76.9880  220.7590 C   0  0  1  0  0  0  0  0  0  0  0  0
  140.6900   77.6780  221.5090 C   0  0  0  0  0  0  0  0  0  0  0  0
  141.0850   77.9040  222.8640 N   0  0  0  0  0  0  0  0  0  0  0  0
  140.6390   79.1010  223.4780 C   0  0  0  0  0  0  0  0  0  0  0  0
  141.7460   80.1180  223.5340 C   0  0  0  0  0  0  0  0  0  0  0  0
  142.1010   80.8960  222.3150 C   0  0  0  0  0  0  0  0  0  0  0  0
  142.9880   79.7780  222.7470 C   0  0  0  0  0  0  0  0  0  0  0  0
  139.4310   71.4580  223.0190 C   0  0  0  0  0  0  0  0  0  0  0  0
  139.0590   70.1430  222.8600 C   0  0  0  0  0  0  0  0  0  0  0  0
  139.2990   69.2980  223.9330 C   0  0  0  0  0  0  0  0  0  0  0  0
  139.8850   69.7530  225.1110 C   0  0  0  0  0  0  0  0  0  0  0  0
  140.1280   68.9240  226.1850 C   0  0  0  0  0  0  0  0  0  0  0  0
  140.7150   69.4670  227.3180 C   0  0  0  0  0  0  0  0  0  0  0  0
  141.0470   68.4540  228.7220 Cl  0  0  0  0  0  0  0  0  0  0  0  0
  141.0650   70.7960  227.4160 C   0  0  0  0  0  0  0  0  0  0  0  0
  140.8160   71.6100  226.3330 C   0  0  0  0  0  0  0  0  0  0  0  0
  140.2320   71.0710  225.2080 C   0  0  0  0  0  0  0  0  0  0  0  0
  139.9970   71.8790  224.1680 N   0  0  0  0  0  0  0  0  0  0  0  0
  139.5550   74.0940  223.1430 H   0  0  0  0  0  0  0  0  0  0  0  0
  138.2031   74.4411  220.5635 H   0  0  0  0  0  0  0  0  0  0  0  0
  139.0258   75.7170  221.6725 H   0  0  0  0  0  0  0  0  0  0  0  0
  143.4138   75.1124  220.4914 H   0  0  0  0  0  0  0  0  0  0  0  0
  142.7055   74.3431  219.1114 H   0  0  0  0  0  0  0  0  0  0  0  0
  144.1143   76.7147  218.9050 H   0  0  0  0  0  0  0  0  0  0  0  0
  142.7472   76.4068  217.8179 H   0  0  0  0  0  0  0  0  0  0  0  0
  142.9466   78.5114  219.7891 H   0  0  0  0  0  0  0  0  0  0  0  0
  141.5122   78.1514  218.8853 H   0  0  0  0  0  0  0  0  0  0  0  0
  142.4638   76.9393  221.5743 H   0  0  0  0  0  0  0  0  0  0  0  0
  140.4871   78.6470  221.0296 H   0  0  0  0  0  0  0  0  0  0  0  0
  139.7893   77.0465  221.5131 H   0  0  0  0  0  0  0  0  0  0  0  0
  142.0070   77.5480  223.1360 H   0  0  0  0  0  0  0  0  0  0  0  0
  139.8001   79.5129  222.8978 H   0  0  0  0  0  0  0  0  0  0  0  0
  140.3187   78.8719  224.5051 H   0  0  0  0  0  0  0  0  0  0  0  0
  141.5016   80.4024  224.5681 H   0  0  0  0  0  0  0  0  0  0  0  0
  141.4942   80.7927  221.4034 H   0  0  0  0  0  0  0  0  0  0  0  0
  142.2535   81.9633  222.0966 H   0  0  0  0  0  0  0  0  0  0  0  0
  143.0310   78.8495  222.1587 H   0  0  0  0  0  0  0  0  0  0  0  0
  144.0578   79.6764  222.9821 H   0  0  0  0  0  0  0  0  0  0  0  0
  138.5955   69.7809  221.9305 H   0  0  0  0  0  0  0  0  0  0  0  0
  139.0182   68.2376  223.8510 H   0  0  0  0  0  0  0  0  0  0  0  0
  139.8627   67.8573  226.1444 H   0  0  0  0  0  0  0  0  0  0  0  0
  141.5287   71.1945  228.3304 H   0  0  0  0  0  0  0  0  0  0  0  0
  141.0803   72.6773  226.3662 H   0  0  0  0  0  0  0  0  0  0  0  0
  1  2  2  0
  2  3  1  0
  3  4  1  0
  4  5  1  0
  5  6  2  0
  5  7  1  0
  7  8  1  0
  8  9  1  0
  9 10  1  0
 10 11  1  0
 11 12  1  0
 12 13  1  0
 13 14  1  0
 14 15  1  0
 15 16  1  0
 16 17  1  0
  2 18  1  0
 18 19  2  0
 19 20  1  0
 20 21  2  0
 21 22  1  0
 22 23  2  0
 23 24  1  0
 23 25  1  0
 25 26  2  0
 26 27  1  0
 27 28  2  0
 11  7  1  0
 17 15  1  0
 28 18  1  0
 27 21  1  0
  3 29  1  0
  4 30  1  0
  4 31  1  0
  8 32  1  0
  8 33  1  0
  9 34  1  0
  9 35  1  0
 10 36  1  0
 10 37  1  0
 11 38  1  1
 12 39  1  0
 12 40  1  0
 13 41  1  0
 14 42  1  0
 14 43  1  0
 15 44  1  0
 16 45  1  0
 16 46  1  0
 17 47  1  0
 17 48  1  0
 19 49  1  0
 20 50  1  0
 22 51  1  0
 25 52  1  0
 26 53  1  0
M  END
>  <smiles>  (11) 
O=C(NCC(=O)N1CCC[C@H]1CNCC1CC1)c1ccc2cc(Cl)ccc2n1

>  <score_type>  (11) 
oracle

>  <origin>  (11) 
autodockgpu

>  <m_score__min__energy>  (11) 
-8.1199999999999992

>  <m_primary>  (11) 
energy

>  <rmsd>  (11) 
2.2056691578474052

>  <m_score__min__rmsd>  (11) 
2.2056691578474052

>  <meeko>  (11) 
{"free_energy": -7.82, "intermolecular_energy": -10.2, "internal_energy": -1.62, "cluster_size": 44, "cluster_id": 1, "rank_in_cluster": 12}

>  <energy>  (11) 
-7.82

>  <cluster_rmsd>  (11) 
0.99

>  <cluster>  (11) 
1

$$$$

     RDKit          3D

 53 56  0  0  0  0  0  0  0  0999 V2000
  139.5710   73.7660  222.2940 O   0  0  0  0  0  0  0  0  0  0  0  0
  140.3530   72.8040  222.3340 C   0  0  0  0  0  0  0  0  0  0  0  0
  141.3850   72.7060  221.3410 N   0  0  0  0  0  0  0  0  0  0  0  0
  141.5450   73.6690  220.3110 C   0  0  0  0  0  0  0  0  0  0  0  0
  141.8680   75.0360  220.6440 C   0  0  0  0  0  0  0  0  0  0  0  0
  141.7170   75.2960  221.9190 O   0  0  0  0  0  0  0  0  0  0  0  0
  142.3060   76.1220  219.8910 N   0  0  0  0  0  0  0  0  0  0  0  0
  143.4880   76.2690  218.9960 C   0  0  0  0  0  0  0  0  0  0  0  0
  142.8020   76.7590  217.7310 C   0  0  0  0  0  0  0  0  0  0  0  0
  141.5240   77.4650  218.1820 C   0  0  0  0  0  0  0  0  0  0  0  0
  141.7270   77.4590  219.6860 C   0  0  1  0  0  0  0  0  0  0  0  0
  140.5780   77.7840  220.5160 C   0  0  0  0  0  0  0  0  0  0  0  0
  140.9520   77.9570  221.8840 N   0  0  0  0  0  0  0  0  0  0  0  0
  140.9010   79.2730  222.4090 C   0  0  0  0  0  0  0  0  0  0  0  0
  141.9830   79.4820  223.4320 C   0  0  0  0  0  0  0  0  0  0  0  0
  142.3280   80.8610  223.8750 C   0  0  0  0  0  0  0  0  0  0  0  0
  143.2380   80.1540  222.9300 C   0  0  0  0  0  0  0  0  0  0  0  0
  140.2380   71.7760  223.3710 C   0  0  0  0  0  0  0  0  0  0  0  0
  139.6500   70.5720  223.0510 C   0  0  0  0  0  0  0  0  0  0  0  0
  139.5630   69.6360  224.0710 C   0  0  0  0  0  0  0  0  0  0  0  0
  140.0440   69.8960  225.3510 C   0  0  0  0  0  0  0  0  0  0  0  0
  139.9630   68.9750  226.3730 C   0  0  0  0  0  0  0  0  0  0  0  0
  140.4680   69.3230  227.6160 C   0  0  0  0  0  0  0  0  0  0  0  0
  140.3900   68.1840  228.9600 Cl  0  0  0  0  0  0  0  0  0  0  0  0
  141.0450   70.5460  227.8740 C   0  0  0  0  0  0  0  0  0  0  0  0
  141.1190   71.4560  226.8420 C   0  0  0  0  0  0  0  0  0  0  0  0
  140.6160   71.1100  225.6060 C   0  0  0  0  0  0  0  0  0  0  0  0
  140.6960   72.0070  224.6180 N   0  0  0  0  0  0  0  0  0  0  0  0
  142.0250   71.8600  221.4290 H   0  0  0  0  0  0  0  0  0  0  0  0
  142.3498   73.3030  219.6566 H   0  0  0  0  0  0  0  0  0  0  0  0
  140.5366   73.7460  219.8784 H   0  0  0  0  0  0  0  0  0  0  0  0
  144.2046   77.0078  219.3842 H   0  0  0  0  0  0  0  0  0  0  0  0
  144.0917   75.3578  218.8724 H   0  0  0  0  0  0  0  0  0  0  0  0
  143.4547   77.4609  217.1913 H   0  0  0  0  0  0  0  0  0  0  0  0
  142.5788   75.9255  217.0488 H   0  0  0  0  0  0  0  0  0  0  0  0
  141.4623   78.4885  217.7838 H   0  0  0  0  0  0  0  0  0  0  0  0
  140.5916   76.9911  217.8414 H   0  0  0  0  0  0  0  0  0  0  0  0
  142.3696   78.2844  220.0264 H   0  0  0  0  0  0  0  0  0  0  0  0
  140.1243   78.7164  220.1489 H   0  0  0  0  0  0  0  0  0  0  0  0
  139.8628   76.9504  220.4567 H   0  0  0  0  0  0  0  0  0  0  0  0
  141.6840   77.3330  222.2390 H   0  0  0  0  0  0  0  0  0  0  0  0
  141.0358   79.9938  221.5891 H   0  0  0  0  0  0  0  0  0  0  0  0
  139.9245   79.4219  222.8931 H   0  0  0  0  0  0  0  0  0  0  0  0
  141.7252   78.5572  223.9689 H   0  0  0  0  0  0  0  0  0  0  0  0
  141.7298   81.7147  223.5237 H   0  0  0  0  0  0  0  0  0  0  0  0
  142.4569   81.3489  224.8524 H   0  0  0  0  0  0  0  0  0  0  0  0
  143.3068   80.4811  221.8820 H   0  0  0  0  0  0  0  0  0  0  0  0
  144.3084   79.9006  222.9192 H   0  0  0  0  0  0  0  0  0  0  0  0
  139.2696   70.3639  222.0401 H   0  0  0  0  0  0  0  0  0  0  0  0
  139.1005   68.6600  223.8623 H   0  0  0  0  0  0  0  0  0  0  0  0
  139.5084   67.9873  226.2063 H   0  0  0  0  0  0  0  0  0  0  0  0
  141.4350   70.7893  228.8734 H   0  0  0  0  0  0  0  0  0  0  0  0
  141.5732   72.4450  227.0022 H   0  0  0  0  0  0  0  0  0  0  0  0
  1  2  2  0
  2  3  1  0
  3  4  1  0
  4  5  1  0
  5  6  2  0
  5  7  1  0
  7  8  1  0
  8  9  1  0
  9 10  1  0
 10 11  1  0
 11 12  1  0
 12 13  1  0
 13 14  1  0
 14 15  1  0
 15 16  1  0
 16 17  1  0
  2 18  1  0
 18 19  2  0
 19 20  1  0
 20 21  2  0
 21 22  1  0
 22 23  2  0
 23 24  1  0
 23 25  1  0
 25 26  2  0
 26 27  1  0
 27 28  2  0
 11  7  1  0
 17 15  1  0
 28 18  1  0
 27 21  1  0
  3 29  1  0
  4 30  1  0
  4 31  1  0
  8 32  1  0
  8 33  1  0
  9 34  1  0
  9 35  1  0
 10 36  1  0
 10 37  1  0
 11 38  1  6
 12 39  1  0
 12 40  1  0
 13 41  1  0
 14 42  1  0
 14 43  1  0
 15 44  1  0
 16 45  1  0
 16 46  1  0
 17 47  1  0
 17 48  1  0
 19 49  1  0
 20 50  1  0
 22 51  1  0
 25 52  1  0
 26 53  1  0
M  END
>  <smiles>  (12) 
O=C(NCC(=O)N1CCC[C@H]1CNCC1CC1)c1ccc2cc(Cl)ccc2n1

>  <score_type>  (12) 
oracle

>  <origin>  (12) 
autodockgpu

>  <m_score__min__energy>  (12) 
-8.1199999999999992

>  <m_primary>  (12) 
energy

>  <rmsd>  (12) 
2.6142950012509427

>  <m_score__min__rmsd>  (12) 
2.6142950012509427

>  <meeko>  (12) 
{"free_energy": -7.89, "intermolecular_energy": -10.28, "internal_energy": -1.87, "cluster_size": 44, "cluster_id": 1, "rank_in_cluster": 9}

>  <energy>  (12) 
-7.82

>  <cluster_rmsd>  (12) 
1.09

>  <cluster>  (12) 
1

$$$$

     RDKit          3D

 53 56  0  0  0  0  0  0  0  0999 V2000
  139.5600   72.0820  220.8500 O   0  0  0  0  0  0  0  0  0  0  0  0
  139.5990   72.4270  222.0410 C   0  0  0  0  0  0  0  0  0  0  0  0
  139.5000   73.8230  222.3640 N   0  0  0  0  0  0  0  0  0  0  0  0
  139.3600   74.8270  221.3700 C   0  0  0  0  0  0  0  0  0  0  0  0
  139.7760   76.1810  221.6480 C   0  0  0  0  0  0  0  0  0  0  0  0
  140.9890   76.2470  222.1380 O   0  0  0  0  0  0  0  0  0  0  0  0
  139.1560   77.4170  221.4970 N   0  0  0  0  0  0  0  0  0  0  0  0
  137.9220   77.8010  220.7540 C   0  0  0  0  0  0  0  0  0  0  0  0
  137.1570   78.5080  221.8600 C   0  0  0  0  0  0  0  0  0  0  0  0
  138.2060   79.0460  222.8330 C   0  0  0  0  0  0  0  0  0  0  0  0
  139.4750   78.7390  222.0590 C   0  0  1  0  0  0  0  0  0  0  0  0
  140.7340   78.8320  222.7800 C   0  0  0  0  0  0  0  0  0  0  0  0
  141.8510   78.8220  221.8880 N   0  0  0  0  0  0  0  0  0  0  0  0
  141.8100   79.7150  220.7870 C   0  0  0  0  0  0  0  0  0  0  0  0
  142.0230   78.9790  219.4930 C   0  0  0  0  0  0  0  0  0  0  0  0
  140.9670   78.0650  218.9780 C   0  0  0  0  0  0  0  0  0  0  0  0
  142.1850   77.4830  219.6100 C   0  0  0  0  0  0  0  0  0  0  0  0
  139.7440   71.4390  223.1120 C   0  0  0  0  0  0  0  0  0  0  0  0
  139.3600   70.1380  222.8730 C   0  0  0  0  0  0  0  0  0  0  0  0
  139.5150   69.2440  223.9210 C   0  0  0  0  0  0  0  0  0  0  0  0
  140.0320   69.6380  225.1530 C   0  0  0  0  0  0  0  0  0  0  0  0
  140.1900   68.7590  226.2030 C   0  0  0  0  0  0  0  0  0  0  0  0
  140.7130   69.2420  227.3930 C   0  0  0  0  0  0  0  0  0  0  0  0
  140.9350   68.1630  228.7700 Cl  0  0  0  0  0  0  0  0  0  0  0  0
  141.0780   70.5570  227.5710 C   0  0  0  0  0  0  0  0  0  0  0  0
  140.9140   71.4220  226.5120 C   0  0  0  0  0  0  0  0  0  0  0  0
  140.3950   70.9430  225.3290 C   0  0  0  0  0  0  0  0  0  0  0  0
  140.2420   71.7990  224.3130 N   0  0  0  0  0  0  0  0  0  0  0  0
  139.5380   74.0560  223.4010 H   0  0  0  0  0  0  0  0  0  0  0  0
  139.9367   74.4908  220.4957 H   0  0  0  0  0  0  0  0  0  0  0  0
  138.2699   74.9165  221.2529 H   0  0  0  0  0  0  0  0  0  0  0  0
  138.1443   78.4768  219.9151 H   0  0  0  0  0  0  0  0  0  0  0  0
  137.3862   76.9642  220.2820 H   0  0  0  0  0  0  0  0  0  0  0  0
  136.5641   79.3357  221.4436 H   0  0  0  0  0  0  0  0  0  0  0  0
  136.4593   77.8229  222.3638 H   0  0  0  0  0  0  0  0  0  0  0  0
  138.0855   80.1257  223.0056 H   0  0  0  0  0  0  0  0  0  0  0  0
  138.1649   78.6102  223.8422 H   0  0  0  0  0  0  0  0  0  0  0  0
  139.7015   79.5051  221.3028 H   0  0  0  0  0  0  0  0  0  0  0  0
  140.7465   79.7679  223.3579 H   0  0  0  0  0  0  0  0  0  0  0  0
  140.8159   77.9597  223.4451 H   0  0  0  0  0  0  0  0  0  0  0  0
  142.3150   77.9180  221.7470 H   0  0  0  0  0  0  0  0  0  0  0  0
  140.8288   80.2115  220.7620 H   0  0  0  0  0  0  0  0  0  0  0  0
  142.6126   80.4578  220.9059 H   0  0  0  0  0  0  0  0  0  0  0  0
  142.5811   79.8163  219.0487 H   0  0  0  0  0  0  0  0  0  0  0  0
  139.9982   78.0013  219.4950 H   0  0  0  0  0  0  0  0  0  0  0  0
  140.4624   77.9356  218.0092 H   0  0  0  0  0  0  0  0  0  0  0  0
  142.1166   76.9963  220.5941 H   0  0  0  0  0  0  0  0  0  0  0  0
  142.9505   76.7543  219.3050 H   0  0  0  0  0  0  0  0  0  0  0  0
  138.9515   69.8247  221.9009 H   0  0  0  0  0  0  0  0  0  0  0  0
  139.2215   68.1939  223.7757 H   0  0  0  0  0  0  0  0  0  0  0  0
  139.9082   67.7008  226.0995 H   0  0  0  0  0  0  0  0  0  0  0  0
  141.4882   70.9065  228.5299 H   0  0  0  0  0  0  0  0  0  0  0  0
  141.1937   72.4814  226.6093 H   0  0  0  0  0  0  0  0  0  0  0  0
  1  2  2  0
  2  3  1  0
  3  4  1  0
  4  5  1  0
  5  6  2  0
  5  7  1  0
  7  8  1  0
  8  9  1  0
  9 10  1  0
 10 11  1  0
 11 12  1  0
 12 13  1  0
 13 14  1  0
 14 15  1  0
 15 16  1  0
 16 17  1  0
  2 18  1  0
 18 19  2  0
 19 20  1  0
 20 21  2  0
 21 22  1  0
 22 23  2  0
 23 24  1  0
 23 25  1  0
 25 26  2  0
 26 27  1  0
 27 28  2  0
 11  7  1  0
 17 15  1  0
 28 18  1  0
 27 21  1  0
  3 29  1  0
  4 30  1  0
  4 31  1  0
  8 32  1  0
  8 33  1  0
  9 34  1  0
  9 35  1  0
 10 36  1  0
 10 37  1  0
 11 38  1  6
 12 39  1  0
 12 40  1  0
 13 41  1  0
 14 42  1  0
 14 43  1  0
 15 44  1  0
 16 45  1  0
 16 46  1  0
 17 47  1  0
 17 48  1  0
 19 49  1  0
 20 50  1  0
 22 51  1  0
 25 52  1  0
 26 53  1  0
M  END
>  <smiles>  (13) 
O=C(NCC(=O)N1CCC[C@H]1CNCC1CC1)c1ccc2cc(Cl)ccc2n1

>  <score_type>  (13) 
oracle

>  <origin>  (13) 
autodockgpu

>  <m_score__min__energy>  (13) 
-8.1199999999999992

>  <m_primary>  (13) 
energy

>  <rmsd>  (13) 
3.0346198880257496

>  <m_score__min__rmsd>  (13) 
3.0346198880257496

>  <meeko>  (13) 
{"free_energy": -6.86, "intermolecular_energy": -9.24, "internal_energy": -2.3, "cluster_size": 44, "cluster_id": 1, "rank_in_cluster": 41}

>  <energy>  (13) 
-7.8

>  <cluster_rmsd>  (13) 
0.74

>  <cluster>  (13) 
1

$$$$

     RDKit          3D

 53 56  0  0  0  0  0  0  0  0999 V2000
  141.0460   73.0210  221.3980 O   0  0  0  0  0  0  0  0  0  0  0  0
  140.1550   72.9420  222.2580 C   0  0  0  0  0  0  0  0  0  0  0  0
  139.1050   73.9210  222.2610 N   0  0  0  0  0  0  0  0  0  0  0  0
  139.0470   74.9800  221.3170 C   0  0  0  0  0  0  0  0  0  0  0  0
  139.9880   76.0720  221.3970 C   0  0  0  0  0  0  0  0  0  0  0  0
  140.8810   75.9020  222.3410 O   0  0  0  0  0  0  0  0  0  0  0  0
  140.1380   77.2540  220.6790 N   0  0  0  0  0  0  0  0  0  0  0  0
  139.6020   78.6210  220.9350 C   0  0  0  0  0  0  0  0  0  0  0  0
  140.8910   79.4240  220.8820 C   0  0  0  0  0  0  0  0  0  0  0  0
  141.8480   78.6430  219.9810 C   0  0  0  0  0  0  0  0  0  0  0  0
  140.9150   77.5620  219.4670 C   0  0  1  0  0  0  0  0  0  0  0  0
  141.5190   76.4220  218.7970 C   0  0  0  0  0  0  0  0  0  0  0  0
  142.3060   75.6400  219.6990 N   0  0  0  0  0  0  0  0  0  0  0  0
  143.6780   75.4740  219.3850 C   0  0  0  0  0  0  0  0  0  0  0  0
  144.0910   74.0360  219.5380 C   0  0  0  0  0  0  0  0  0  0  0  0
  143.8800   73.3380  220.8360 C   0  0  0  0  0  0  0  0  0  0  0  0
  145.2540   73.7840  220.4660 C   0  0  0  0  0  0  0  0  0  0  0  0
  140.1610   71.8750  223.2600 C   0  0  0  0  0  0  0  0  0  0  0  0
  139.7120   70.6240  222.9010 C   0  0  0  0  0  0  0  0  0  0  0  0
  139.7360   69.6500  223.8880 C   0  0  0  0  0  0  0  0  0  0  0  0
  140.1890   69.9210  225.1770 C   0  0  0  0  0  0  0  0  0  0  0  0
  140.2170   68.9630  226.1670 C   0  0  0  0  0  0  0  0  0  0  0  0
  140.6850   69.3250  227.4210 C   0  0  0  0  0  0  0  0  0  0  0  0
  140.7410   68.1410  228.7270 Cl  0  0  0  0  0  0  0  0  0  0  0  0
  141.1210   70.5960  227.7190 C   0  0  0  0  0  0  0  0  0  0  0  0
  141.0870   71.5420  226.7180 C   0  0  0  0  0  0  0  0  0  0  0  0
  140.6220   71.1830  225.4720 C   0  0  0  0  0  0  0  0  0  0  0  0
  140.5960   72.1150  224.5140 N   0  0  0  0  0  0  0  0  0  0  0  0
  138.3700   73.8010  223.0210 H   0  0  0  0  0  0  0  0  0  0  0  0
  139.1715   74.5260  220.3228 H   0  0  0  0  0  0  0  0  0  0  0  0
  138.0826   75.4613  221.5367 H   0  0  0  0  0  0  0  0  0  0  0  0
  138.8934   78.9345  220.1542 H   0  0  0  0  0  0  0  0  0  0  0  0
  139.0284   78.7266  221.8676 H   0  0  0  0  0  0  0  0  0  0  0  0
  140.7006   80.4221  220.4606 H   0  0  0  0  0  0  0  0  0  0  0  0
  141.3149   79.5654  221.8871 H   0  0  0  0  0  0  0  0  0  0  0  0
  142.2375   79.2670  219.1632 H   0  0  0  0  0  0  0  0  0  0  0  0
  142.7524   78.2698  220.4838 H   0  0  0  0  0  0  0  0  0  0  0  0
  140.3057   77.9029  218.6170 H   0  0  0  0  0  0  0  0  0  0  0  0
  140.7219   75.7901  218.3782 H   0  0  0  0  0  0  0  0  0  0  0  0
  142.1787   76.7991  218.0016 H   0  0  0  0  0  0  0  0  0  0  0  0
  141.8280   74.8610  220.1630 H   0  0  0  0  0  0  0  0  0  0  0  0
  143.8508   75.7902  218.3457 H   0  0  0  0  0  0  0  0  0  0  0  0
  144.2745   76.0875  220.0762 H   0  0  0  0  0  0  0  0  0  0  0  0
  143.8250   73.7955  218.4981 H   0  0  0  0  0  0  0  0  0  0  0  0
  143.3400   73.8452  221.6491 H   0  0  0  0  0  0  0  0  0  0  0  0
  143.4330   72.3779  221.1335 H   0  0  0  0  0  0  0  0  0  0  0  0
  145.7243   74.6223  221.0008 H   0  0  0  0  0  0  0  0  0  0  0  0
  146.2351   73.2952  220.3734 H   0  0  0  0  0  0  0  0  0  0  0  0
  139.3528   70.4082  221.8839 H   0  0  0  0  0  0  0  0  0  0  0  0
  139.3875   68.6351  223.6461 H   0  0  0  0  0  0  0  0  0  0  0  0
  139.8764   67.9363  225.9674 H   0  0  0  0  0  0  0  0  0  0  0  0
  141.4855   70.8488  228.7256 H   0  0  0  0  0  0  0  0  0  0  0  0
  141.4267   72.5703  226.9112 H   0  0  0  0  0  0  0  0  0  0  0  0
  1  2  2  0
  2  3  1  0
  3  4  1  0
  4  5  1  0
  5  6  2  0
  5  7  1  0
  7  8  1  0
  8  9  1  0
  9 10  1  0
 10 11  1  0
 11 12  1  0
 12 13  1  0
 13 14  1  0
 14 15  1  0
 15 16  1  0
 16 17  1  0
  2 18  1  0
 18 19  2  0
 19 20  1  0
 20 21  2  0
 21 22  1  0
 22 23  2  0
 23 24  1  0
 23 25  1  0
 25 26  2  0
 26 27  1  0
 27 28  2  0
 11  7  1  0
 17 15  1  0
 28 18  1  0
 27 21  1  0
  3 29  1  0
  4 30  1  0
  4 31  1  0
  8 32  1  0
  8 33  1  0
  9 34  1  0
  9 35  1  0
 10 36  1  0
 10 37  1  0
 11 38  1  6
 12 39  1  0
 12 40  1  0
 13 41  1  0
 14 42  1  0
 14 43  1  0
 15 44  1  0
 16 45  1  0
 16 46  1  0
 17 47  1  0
 17 48  1  0
 19 49  1  0
 20 50  1  0
 22 51  1  0
 25 52  1  0
 26 53  1  0
M  END
>  <smiles>  (14) 
O=C(NCC(=O)N1CCC[C@H]1CNCC1CC1)c1ccc2cc(Cl)ccc2n1

>  <score_type>  (14) 
oracle

>  <origin>  (14) 
autodockgpu

>  <m_score__min__energy>  (14) 
-8.1199999999999992

>  <m_primary>  (14) 
energy

>  <rmsd>  (14) 
3.9331128867010863

>  <m_score__min__rmsd>  (14) 
3.9331128867010863

>  <meeko>  (14) 
{"free_energy": -6.98, "intermolecular_energy": -9.37, "internal_energy": -2.3, "cluster_size": 44, "cluster_id": 1, "rank_in_cluster": 39}

>  <energy>  (14) 
-7.72

>  <cluster_rmsd>  (14) 
1.49

>  <cluster>  (14) 
1

$$$$

     RDKit          3D

 53 56  0  0  0  0  0  0  0  0999 V2000
  142.1520   78.2790  216.7250 O   0  0  0  0  0  0  0  0  0  0  0  0
  142.5950   77.7520  217.7580 C   0  0  0  0  0  0  0  0  0  0  0  0
  142.5620   78.4960  218.9860 N   0  0  0  0  0  0  0  0  0  0  0  0
  142.0430   79.8150  219.0640 C   0  0  0  0  0  0  0  0  0  0  0  0
  141.8330   80.4340  220.3510 C   0  0  0  0  0  0  0  0  0  0  0  0
  141.4220   81.6740  220.2550 O   0  0  0  0  0  0  0  0  0  0  0  0
  141.9720   79.9810  221.6590 N   0  0  0  0  0  0  0  0  0  0  0  0
  142.6900   80.5750  222.8210 C   0  0  0  0  0  0  0  0  0  0  0  0
  141.5700   80.5860  223.8480 C   0  0  0  0  0  0  0  0  0  0  0  0
  140.6170   79.4560  223.4560 C   0  0  0  0  0  0  0  0  0  0  0  0
  141.4150   78.8020  222.3430 C   0  0  1  0  0  0  0  0  0  0  0  0
  140.7200   77.8490  221.4950 C   0  0  0  0  0  0  0  0  0  0  0  0
  141.5880   76.7970  221.0660 N   0  0  0  0  0  0  0  0  0  0  0  0
  141.3290   75.4970  221.5660 C   0  0  0  0  0  0  0  0  0  0  0  0
  140.9330   74.5650  220.4550 C   0  0  0  0  0  0  0  0  0  0  0  0
  140.3130   75.1100  219.2160 C   0  0  0  0  0  0  0  0  0  0  0  0
  139.4500   74.4220  220.2170 C   0  0  0  0  0  0  0  0  0  0  0  0
  143.1450   76.3950  217.7410 C   0  0  0  0  0  0  0  0  0  0  0  0
  143.2200   75.7230  216.5420 C   0  0  0  0  0  0  0  0  0  0  0  0
  143.7450   74.4400  216.5830 C   0  0  0  0  0  0  0  0  0  0  0  0
  144.1750   73.8590  217.7730 C   0  0  0  0  0  0  0  0  0  0  0  0
  144.6980   72.5850  217.8270 C   0  0  0  0  0  0  0  0  0  0  0  0
  145.0990   72.0890  219.0580 C   0  0  0  0  0  0  0  0  0  0  0  0
  145.7730   70.4650  219.1870 Cl  0  0  0  0  0  0  0  0  0  0  0  0
  144.9970   72.8120  220.2260 C   0  0  0  0  0  0  0  0  0  0  0  0
  144.4720   74.0840  220.1540 C   0  0  0  0  0  0  0  0  0  0  0  0
  144.0740   74.5770  218.9310 C   0  0  0  0  0  0  0  0  0  0  0  0
  143.5660   75.8130  218.8830 N   0  0  0  0  0  0  0  0  0  0  0  0
  142.9530   77.9910  219.8370 H   0  0  0  0  0  0  0  0  0  0  0  0
  142.7382   80.4629  218.5099 H   0  0  0  0  0  0  0  0  0  0  0  0
  141.0232   79.7089  218.6655 H   0  0  0  0  0  0  0  0  0  0  0  0
  143.5334   79.9469  223.1439 H   0  0  0  0  0  0  0  0  0  0  0  0
  143.1506   81.5551  222.6283 H   0  0  0  0  0  0  0  0  0  0  0  0
  141.9753   80.4102  224.8554 H   0  0  0  0  0  0  0  0  0  0  0  0
  141.0532   81.5569  223.8655 H   0  0  0  0  0  0  0  0  0  0  0  0
  140.4415   78.7632  224.2922 H   0  0  0  0  0  0  0  0  0  0  0  0
  139.6077   79.7844  223.1672 H   0  0  0  0  0  0  0  0  0  0  0  0
  142.1743   78.1038  222.7250 H   0  0  0  0  0  0  0  0  0  0  0  0
  139.8824   77.4132  222.0594 H   0  0  0  0  0  0  0  0  0  0  0  0
  140.3574   78.3816  220.6035 H   0  0  0  0  0  0  0  0  0  0  0  0
  142.5670   77.0540  220.8980 H   0  0  0  0  0  0  0  0  0  0  0  0
  142.2363   75.1112  222.0538 H   0  0  0  0  0  0  0  0  0  0  0  0
  140.5009   75.5561  222.2876 H   0  0  0  0  0  0  0  0  0  0  0  0
  141.7856   73.8960  220.6433 H   0  0  0  0  0  0  0  0  0  0  0  0
  140.2307   76.1982  219.0779 H   0  0  0  0  0  0  0  0  0  0  0  0
  140.4986   74.9839  218.1391 H   0  0  0  0  0  0  0  0  0  0  0  0
  138.7363   75.0017  220.8208 H   0  0  0  0  0  0  0  0  0  0  0  0
  138.7413   73.5812  220.1900 H   0  0  0  0  0  0  0  0  0  0  0  0
  142.8812   76.1798  215.6004 H   0  0  0  0  0  0  0  0  0  0  0  0
  143.8239   73.8649  215.6486 H   0  0  0  0  0  0  0  0  0  0  0  0
  144.7949   71.9766  216.9157 H   0  0  0  0  0  0  0  0  0  0  0  0
  145.3244   72.3872  221.1864 H   0  0  0  0  0  0  0  0  0  0  0  0
  144.3721   74.6977  221.0614 H   0  0  0  0  0  0  0  0  0  0  0  0
  1  2  2  0
  2  3  1  0
  3  4  1  0
  4  5  1  0
  5  6  2  0
  5  7  1  0
  7  8  1  0
  8  9  1  0
  9 10  1  0
 10 11  1  0
 11 12  1  0
 12 13  1  0
 13 14  1  0
 14 15  1  0
 15 16  1  0
 16 17  1  0
  2 18  1  0
 18 19  2  0
 19 20  1  0
 20 21  2  0
 21 22  1  0
 22 23  2  0
 23 24  1  0
 23 25  1  0
 25 26  2  0
 26 27  1  0
 27 28  2  0
 11  7  1  0
 17 15  1  0
 28 18  1  0
 27 21  1  0
  3 29  1  0
  4 30  1  0
  4 31  1  0
  8 32  1  0
  8 33  1  0
  9 34  1  0
  9 35  1  0
 10 36  1  0
 10 37  1  0
 11 38  1  1
 12 39  1  0
 12 40  1  0
 13 41  1  0
 14 42  1  0
 14 43  1  0
 15 44  1  0
 16 45  1  0
 16 46  1  0
 17 47  1  0
 17 48  1  0
 19 49  1  0
 20 50  1  0
 22 51  1  0
 25 52  1  0
 26 53  1  0
M  END
>  <smiles>  (15) 
O=C(NCC(=O)N1CCC[C@H]1CNCC1CC1)c1ccc2cc(Cl)ccc2n1

>  <score_type>  (15) 
oracle

>  <origin>  (15) 
autodockgpu

>  <m_score__min__energy>  (15) 
-8.1199999999999992

>  <m_primary>  (15) 
energy

>  <rmsd>  (15) 
7.8337799447146335

>  <m_score__min__rmsd>  (15) 
7.8337799447146335

>  <meeko>  (15) 
{"free_energy": -5.45, "intermolecular_energy": -7.84, "internal_energy": -3.51, "cluster_size": 2, "cluster_id": 6, "rank_in_cluster": 2}

>  <energy>  (15) 
-7.71

>  <cluster_rmsd>  (15) 
1.43

>  <cluster>  (15) 
1

$$$$

     RDKit          3D

 53 56  0  0  0  0  0  0  0  0999 V2000
  133.3180   70.0670  226.5570 O   0  0  0  0  0  0  0  0  0  0  0  0
  133.7250   71.1800  226.1880 C   0  0  0  0  0  0  0  0  0  0  0  0
  134.8290   71.2460  225.2730 N   0  0  0  0  0  0  0  0  0  0  0  0
  135.4770   70.0860  224.7740 C   0  0  0  0  0  0  0  0  0  0  0  0
  136.6490   70.2140  223.9410 C   0  0  0  0  0  0  0  0  0  0  0  0
  136.9960   71.4620  223.7450 O   0  0  0  0  0  0  0  0  0  0  0  0
  137.4770   69.2890  223.3130 N   0  0  0  0  0  0  0  0  0  0  0  0
  137.2520   68.4450  222.1060 C   0  0  0  0  0  0  0  0  0  0  0  0
  138.4780   68.8190  221.2900 C   0  0  0  0  0  0  0  0  0  0  0  0
  139.5500   69.2420  222.2940 C   0  0  0  0  0  0  0  0  0  0  0  0
  138.8620   68.8760  223.5960 C   0  0  1  0  0  0  0  0  0  0  0  0
  139.4380   69.3970  224.8250 C   0  0  0  0  0  0  0  0  0  0  0  0
  139.7960   70.7750  224.6930 N   0  0  0  0  0  0  0  0  0  0  0  0
  140.7230   71.2970  225.6300 C   0  0  0  0  0  0  0  0  0  0  0  0
  140.2530   71.0530  227.0380 C   0  0  0  0  0  0  0  0  0  0  0  0
  141.0760   71.5250  228.1860 C   0  0  0  0  0  0  0  0  0  0  0  0
  141.0740   70.0750  227.8420 C   0  0  0  0  0  0  0  0  0  0  0  0
  133.1000   72.4130  226.6700 C   0  0  0  0  0  0  0  0  0  0  0  0
  131.8680   72.3400  227.2790 C   0  0  0  0  0  0  0  0  0  0  0  0
  131.3200   73.5380  227.7140 C   0  0  0  0  0  0  0  0  0  0  0  0
  131.9790   74.7520  227.5440 C   0  0  0  0  0  0  0  0  0  0  0  0
  131.4450   75.9500  227.9700 C   0  0  0  0  0  0  0  0  0  0  0  0
  132.1740   77.1100  227.7560 C   0  0  0  0  0  0  0  0  0  0  0  0
  131.5390   78.6690  228.2790 Cl  0  0  0  0  0  0  0  0  0  0  0  0
  133.4050   77.1170  227.1390 C   0  0  0  0  0  0  0  0  0  0  0  0
  133.9240   75.9120  226.7190 C   0  0  0  0  0  0  0  0  0  0  0  0
  133.2000   74.7600  226.9310 C   0  0  0  0  0  0  0  0  0  0  0  0
  133.7210   73.6000  226.5150 N   0  0  0  0  0  0  0  0  0  0  0  0
  135.1330   72.2270  224.9930 H   0  0  0  0  0  0  0  0  0  0  0  0
  135.7729   69.4872  225.6480 H   0  0  0  0  0  0  0  0  0  0  0  0
  134.7296   69.6531  224.0928 H   0  0  0  0  0  0  0  0  0  0  0  0
  137.2381   67.3734  222.3540 H   0  0  0  0  0  0  0  0  0  0  0  0
  136.2900   68.6094  221.5986 H   0  0  0  0  0  0  0  0  0  0  0  0
  138.8243   67.9542  220.7050 H   0  0  0  0  0  0  0  0  0  0  0  0
  138.2536   69.6289  220.5803 H   0  0  0  0  0  0  0  0  0  0  0  0
  140.4837   68.6774  222.1544 H   0  0  0  0  0  0  0  0  0  0  0  0
  139.8622   70.2940  222.2182 H   0  0  0  0  0  0  0  0  0  0  0  0
  138.9720   67.8100  223.8441 H   0  0  0  0  0  0  0  0  0  0  0  0
  138.7019   69.2951  225.6360 H   0  0  0  0  0  0  0  0  0  0  0  0
  140.3496   68.8236  225.0491 H   0  0  0  0  0  0  0  0  0  0  0  0
  139.0640   71.4060  224.3490 H   0  0  0  0  0  0  0  0  0  0  0  0
  141.6972   70.8072  225.4849 H   0  0  0  0  0  0  0  0  0  0  0  0
  140.8127   72.3817  225.4709 H   0  0  0  0  0  0  0  0  0  0  0  0
  139.1957   71.1798  226.7621 H   0  0  0  0  0  0  0  0  0  0  0  0
  141.9761   72.1301  228.0024 H   0  0  0  0  0  0  0  0  0  0  0  0
  140.8695   72.1029  229.0989 H   0  0  0  0  0  0  0  0  0  0  0  0
  141.9686   69.6121  227.4000 H   0  0  0  0  0  0  0  0  0  0  0  0
  140.8641   69.1435  228.3882 H   0  0  0  0  0  0  0  0  0  0  0  0
  131.3450   71.3817  227.4138 H   0  0  0  0  0  0  0  0  0  0  0  0
  130.3368   73.5281  228.2072 H   0  0  0  0  0  0  0  0  0  0  0  0
  130.4645   75.9845  228.4675 H   0  0  0  0  0  0  0  0  0  0  0  0
  133.9571   78.0561  226.9862 H   0  0  0  0  0  0  0  0  0  0  0  0
  134.9038   75.8706  226.2208 H   0  0  0  0  0  0  0  0  0  0  0  0
  1  2  2  0
  2  3  1  0
  3  4  1  0
  4  5  1  0
  5  6  2  0
  5  7  1  0
  7  8  1  0
  8  9  1  0
  9 10  1  0
 10 11  1  0
 11 12  1  0
 12 13  1  0
 13 14  1  0
 14 15  1  0
 15 16  1  0
 16 17  1  0
  2 18  1  0
 18 19  2  0
 19 20  1  0
 20 21  2  0
 21 22  1  0
 22 23  2  0
 23 24  1  0
 23 25  1  0
 25 26  2  0
 26 27  1  0
 27 28  2  0
 11  7  1  0
 17 15  1  0
 28 18  1  0
 27 21  1  0
  3 29  1  0
  4 30  1  0
  4 31  1  0
  8 32  1  0
  8 33  1  0
  9 34  1  0
  9 35  1  0
 10 36  1  0
 10 37  1  0
 11 38  1  1
 12 39  1  0
 12 40  1  0
 13 41  1  0
 14 42  1  0
 14 43  1  0
 15 44  1  0
 16 45  1  0
 16 46  1  0
 17 47  1  0
 17 48  1  0
 19 49  1  0
 20 50  1  0
 22 51  1  0
 25 52  1  0
 26 53  1  0
M  END
>  <smiles>  (16) 
O=C(NCC(=O)N1CCC[C@H]1CNCC1CC1)c1ccc2cc(Cl)ccc2n1

>  <score_type>  (16) 
oracle

>  <origin>  (16) 
autodockgpu

>  <m_score__min__energy>  (16) 
-8.1199999999999992

>  <m_primary>  (16) 
energy

>  <rmsd>  (16) 
9.156165036923175

>  <m_score__min__rmsd>  (16) 
9.156165036923175

>  <meeko>  (16) 
{"free_energy": -6.75, "intermolecular_energy": -9.14, "internal_energy": -2.59, "cluster_size": 1, "cluster_id": 5, "rank_in_cluster": 1}

>  <energy>  (16) 
-7.71

>  <cluster_rmsd>  (16) 
0.75

>  <cluster>  (16) 
1

$$$$

     RDKit          3D

 53 56  0  0  0  0  0  0  0  0999 V2000
  140.3130   72.5480  220.8260 O   0  0  0  0  0  0  0  0  0  0  0  0
  139.7720   72.7580  221.9230 C   0  0  0  0  0  0  0  0  0  0  0  0
  139.0630   73.9900  222.1220 N   0  0  0  0  0  0  0  0  0  0  0  0
  138.9590   74.9820  221.1110 C   0  0  0  0  0  0  0  0  0  0  0  0
  139.9610   76.0150  221.0080 C   0  0  0  0  0  0  0  0  0  0  0  0
  139.4770   77.2140  221.2220 O   0  0  0  0  0  0  0  0  0  0  0  0
  141.3250   75.9950  220.7330 N   0  0  0  0  0  0  0  0  0  0  0  0
  142.3240   74.8950  220.8500 C   0  0  0  0  0  0  0  0  0  0  0  0
  142.9090   74.9190  219.4470 C   0  0  0  0  0  0  0  0  0  0  0  0
  142.7280   76.3460  218.9310 C   0  0  0  0  0  0  0  0  0  0  0  0
  142.2220   77.0280  220.1890 C   0  0  1  0  0  0  0  0  0  0  0  0
  141.6440   78.3540  220.0430 C   0  0  0  0  0  0  0  0  0  0  0  0
  141.9960   79.2030  221.1380 N   0  0  0  0  0  0  0  0  0  0  0  0
  140.9700   80.0140  221.6850 C   0  0  0  0  0  0  0  0  0  0  0  0
  141.1570   80.1850  223.1670 C   0  0  0  0  0  0  0  0  0  0  0  0
  142.5300   80.2950  223.7330 C   0  0  0  0  0  0  0  0  0  0  0  0
  141.7820   79.0160  223.8880 C   0  0  0  0  0  0  0  0  0  0  0  0
  139.8450   71.7750  223.0060 C   0  0  0  0  0  0  0  0  0  0  0  0
  139.4150   70.4890  222.7660 C   0  0  0  0  0  0  0  0  0  0  0  0
  139.5040   69.5990  223.8260 C   0  0  0  0  0  0  0  0  0  0  0  0
  140.0000   69.9830  225.0690 C   0  0  0  0  0  0  0  0  0  0  0  0
  140.0920   69.1090  226.1310 C   0  0  0  0  0  0  0  0  0  0  0  0
  140.5990   69.5810  227.3320 C   0  0  0  0  0  0  0  0  0  0  0  0
  140.7380   68.5080  228.7240 Cl  0  0  0  0  0  0  0  0  0  0  0  0
  141.0140   70.8830  227.5090 C   0  0  0  0  0  0  0  0  0  0  0  0
  140.9150   71.7430  226.4380 C   0  0  0  0  0  0  0  0  0  0  0  0
  140.4110   71.2740  225.2450 C   0  0  0  0  0  0  0  0  0  0  0  0
  140.3230   72.1260  224.2170 N   0  0  0  0  0  0  0  0  0  0  0  0
  138.6190   74.1130  223.0810 H   0  0  0  0  0  0  0  0  0  0  0  0
  138.9483   74.4528  220.1467 H   0  0  0  0  0  0  0  0  0  0  0  0
  138.0521   75.5368  221.3935 H   0  0  0  0  0  0  0  0  0  0  0  0
  143.0850   75.1143  221.6134 H   0  0  0  0  0  0  0  0  0  0  0  0
  141.9104   73.9249  221.1629 H   0  0  0  0  0  0  0  0  0  0  0  0
  143.9769   74.6568  219.4751 H   0  0  0  0  0  0  0  0  0  0  0  0
  142.4079   74.1907  218.7925 H   0  0  0  0  0  0  0  0  0  0  0  0
  143.6796   76.7785  218.5884 H   0  0  0  0  0  0  0  0  0  0  0  0
  142.0646   76.4391  218.0585 H   0  0  0  0  0  0  0  0  0  0  0  0
  143.0381   77.3175  220.8673 H   0  0  0  0  0  0  0  0  0  0  0  0
  142.0127   78.8037  219.1093 H   0  0  0  0  0  0  0  0  0  0  0  0
  140.5489   78.2526  220.0234 H   0  0  0  0  0  0  0  0  0  0  0  0
  142.9480   79.5830  221.1330 H   0  0  0  0  0  0  0  0  0  0  0  0
  140.9953   81.0020  221.2020 H   0  0  0  0  0  0  0  0  0  0  0  0
  140.0011   79.5248  221.5062 H   0  0  0  0  0  0  0  0  0  0  0  0
  140.2476   80.7963  223.2629 H   0  0  0  0  0  0  0  0  0  0  0  0
  143.3979   80.3435  223.0589 H   0  0  0  0  0  0  0  0  0  0  0  0
  143.0262   80.9890  224.4274 H   0  0  0  0  0  0  0  0  0  0  0  0
  142.0933   78.1237  223.3251 H   0  0  0  0  0  0  0  0  0  0  0  0
  141.4942   78.3781  224.7367 H   0  0  0  0  0  0  0  0  0  0  0  0
  139.0216   70.1837  221.7852 H   0  0  0  0  0  0  0  0  0  0  0  0
  139.1733   68.5600  223.6805 H   0  0  0  0  0  0  0  0  0  0  0  0
  139.7708   68.0620  226.0280 H   0  0  0  0  0  0  0  0  0  0  0  0
  141.4120   71.2248  228.4758 H   0  0  0  0  0  0  0  0  0  0  0  0
  141.2344   72.7912  226.5340 H   0  0  0  0  0  0  0  0  0  0  0  0
  1  2  2  0
  2  3  1  0
  3  4  1  0
  4  5  1  0
  5  6  2  0
  5  7  1  0
  7  8  1  0
  8  9  1  0
  9 10  1  0
 10 11  1  0
 11 12  1  0
 12 13  1  0
 13 14  1  0
 14 15  1  0
 15 16  1  0
 16 17  1  0
  2 18  1  0
 18 19  2  0
 19 20  1  0
 20 21  2  0
 21 22  1  0
 22 23  2  0
 23 24  1  0
 23 25  1  0
 25 26  2  0
 26 27  1  0
 27 28  2  0
 11  7  1  0
 17 15  1  0
 28 18  1  0
 27 21  1  0
  3 29  1  0
  4 30  1  0
  4 31  1  0
  8 32  1  0
  8 33  1  0
  9 34  1  0
  9 35  1  0
 10 36  1  0
 10 37  1  0
 11 38  1  1
 12 39  1  0
 12 40  1  0
 13 41  1  0
 14 42  1  0
 14 43  1  0
 15 44  1  0
 16 45  1  0
 16 46  1  0
 17 47  1  0
 17 48  1  0
 19 49  1  0
 20 50  1  0
 22 51  1  0
 25 52  1  0
 26 53  1  0
M  END
>  <smiles>  (17) 
O=C(NCC(=O)N1CCC[C@H]1CNCC1CC1)c1ccc2cc(Cl)ccc2n1

>  <score_type>  (17) 
oracle

>  <origin>  (17) 
autodockgpu

>  <m_score__min__energy>  (17) 
-8.1199999999999992

>  <m_primary>  (17) 
energy

>  <rmsd>  (17) 
2.4998382454604418

>  <m_score__min__rmsd>  (17) 
2.4998382454604418

>  <meeko>  (17) 
{"free_energy": -8.07, "intermolecular_energy": -10.45, "internal_energy": -1.53, "cluster_size": 44, "cluster_id": 1, "rank_in_cluster": 3}

>  <energy>  (17) 
-7.71

>  <cluster_rmsd>  (17) 
0.97

>  <cluster>  (17) 
1

$$$$

     RDKit          3D

 53 56  0  0  0  0  0  0  0  0999 V2000
  139.2920   72.1480  220.8060 O   0  0  0  0  0  0  0  0  0  0  0  0
  139.4310   72.5040  221.9870 C   0  0  0  0  0  0  0  0  0  0  0  0
  139.4080   73.9060  222.2970 N   0  0  0  0  0  0  0  0  0  0  0  0
  139.2360   74.9040  221.3020 C   0  0  0  0  0  0  0  0  0  0  0  0
  140.2610   75.1190  220.3090 C   0  0  0  0  0  0  0  0  0  0  0  0
  139.9790   74.5560  219.1600 O   0  0  0  0  0  0  0  0  0  0  0  0
  141.4740   75.8000  220.3250 N   0  0  0  0  0  0  0  0  0  0  0  0
  142.8700   75.3010  220.1770 C   0  0  0  0  0  0  0  0  0  0  0  0
  143.3550   76.1990  219.0510 C   0  0  0  0  0  0  0  0  0  0  0  0
  142.5250   77.4790  219.1360 C   0  0  0  0  0  0  0  0  0  0  0  0
  141.7810   77.2350  220.4350 C   0  0  1  0  0  0  0  0  0  0  0  0
  140.6520   78.1020  220.7310 C   0  0  0  0  0  0  0  0  0  0  0  0
  140.3670   78.1330  222.1310 N   0  0  0  0  0  0  0  0  0  0  0  0
  141.4630   78.3160  223.0110 C   0  0  0  0  0  0  0  0  0  0  0  0
  142.1830   79.6010  222.7090 C   0  0  0  0  0  0  0  0  0  0  0  0
  142.5950   80.5000  223.8220 C   0  0  0  0  0  0  0  0  0  0  0  0
  141.4120   80.8670  222.9920 C   0  0  0  0  0  0  0  0  0  0  0  0
  139.6150   71.5220  223.0580 C   0  0  0  0  0  0  0  0  0  0  0  0
  139.2430   70.2160  222.8330 C   0  0  0  0  0  0  0  0  0  0  0  0
  139.4360   69.3280  223.8810 C   0  0  0  0  0  0  0  0  0  0  0  0
  139.9760   69.7340  225.0990 C   0  0  0  0  0  0  0  0  0  0  0  0
  140.1720   68.8630  226.1480 C   0  0  0  0  0  0  0  0  0  0  0  0
  140.7150   69.3570  227.3240 C   0  0  0  0  0  0  0  0  0  0  0  0
  140.9860   68.2880  228.6990 Cl  0  0  0  0  0  0  0  0  0  0  0  0
  141.0670   70.6790  227.4880 C   0  0  0  0  0  0  0  0  0  0  0  0
  140.8650   71.5370  226.4290 C   0  0  0  0  0  0  0  0  0  0  0  0
  140.3250   71.0450  225.2610 C   0  0  0  0  0  0  0  0  0  0  0  0
  140.1360   71.8940  224.2450 N   0  0  0  0  0  0  0  0  0  0  0  0
  139.5300   74.1490  223.3260 H   0  0  0  0  0  0  0  0  0  0  0  0
  138.3140   74.6531  220.7571 H   0  0  0  0  0  0  0  0  0  0  0  0
  139.2441   75.8401  221.8797 H   0  0  0  0  0  0  0  0  0  0  0  0
  143.4553   75.4477  221.0967 H   0  0  0  0  0  0  0  0  0  0  0  0
  142.9573   74.2225  219.9790 H   0  0  0  0  0  0  0  0  0  0  0  0
  144.4231   76.4283  219.1798 H   0  0  0  0  0  0  0  0  0  0  0  0
  143.2386   75.7111  218.0720 H   0  0  0  0  0  0  0  0  0  0  0  0
  143.1621   78.3739  219.1940 H   0  0  0  0  0  0  0  0  0  0  0  0
  141.8802   77.6679  218.2650 H   0  0  0  0  0  0  0  0  0  0  0  0
  142.3813   77.4995  221.3180 H   0  0  0  0  0  0  0  0  0  0  0  0
  140.8860   79.1218  220.3914 H   0  0  0  0  0  0  0  0  0  0  0  0
  139.7682   77.7076  220.2081 H   0  0  0  0  0  0  0  0  0  0  0  0
  139.5950   77.5410  222.4530 H   0  0  0  0  0  0  0  0  0  0  0  0
  141.0929   78.3450  224.0465 H   0  0  0  0  0  0  0  0  0  0  0  0
  142.1648   77.4795  222.8779 H   0  0  0  0  0  0  0  0  0  0  0  0
  142.7186   79.1592  221.8558 H   0  0  0  0  0  0  0  0  0  0  0  0
  142.4542   80.1802  224.8650 H   0  0  0  0  0  0  0  0  0  0  0  0
  143.5310   81.0065  224.1001 H   0  0  0  0  0  0  0  0  0  0  0  0
  140.4000   80.8123  223.4197 H   0  0  0  0  0  0  0  0  0  0  0  0
  141.1138   81.7475  222.4039 H   0  0  0  0  0  0  0  0  0  0  0  0
  138.8150   69.8934  221.8724 H   0  0  0  0  0  0  0  0  0  0  0  0
  139.1546   68.2732  223.7463 H   0  0  0  0  0  0  0  0  0  0  0  0
  139.9039   67.8003  226.0547 H   0  0  0  0  0  0  0  0  0  0  0  0
  141.4960   71.0383  228.4350 H   0  0  0  0  0  0  0  0  0  0  0  0
  141.1314   72.6008  226.5150 H   0  0  0  0  0  0  0  0  0  0  0  0
  1  2  2  0
  2  3  1  0
  3  4  1  0
  4  5  1  0
  5  6  2  0
  5  7  1  0
  7  8  1  0
  8  9  1  0
  9 10  1  0
 10 11  1  0
 11 12  1  0
 12 13  1  0
 13 14  1  0
 14 15  1  0
 15 16  1  0
 16 17  1  0
  2 18  1  0
 18 19  2  0
 19 20  1  0
 20 21  2  0
 21 22  1  0
 22 23  2  0
 23 24  1  0
 23 25  1  0
 25 26  2  0
 26 27  1  0
 27 28  2  0
 11  7  1  0
 17 15  1  0
 28 18  1  0
 27 21  1  0
  3 29  1  0
  4 30  1  0
  4 31  1  0
  8 32  1  0
  8 33  1  0
  9 34  1  0
  9 35  1  0
 10 36  1  0
 10 37  1  0
 11 38  1  1
 12 39  1  0
 12 40  1  0
 13 41  1  0
 14 42  1  0
 14 43  1  0
 15 44  1  0
 16 45  1  0
 16 46  1  0
 17 47  1  0
 17 48  1  0
 19 49  1  0
 20 50  1  0
 22 51  1  0
 25 52  1  0
 26 53  1  0
M  END
>  <smiles>  (18) 
O=C(NCC(=O)N1CCC[C@H]1CNCC1CC1)c1ccc2cc(Cl)ccc2n1

>  <score_type>  (18) 
oracle

>  <origin>  (18) 
autodockgpu

>  <m_score__min__energy>  (18) 
-8.1199999999999992

>  <m_primary>  (18) 
energy

>  <rmsd>  (18) 
2.3941533711105323

>  <m_score__min__rmsd>  (18) 
2.3941533711105323

>  <meeko>  (18) 
{"free_energy": -7.57, "intermolecular_energy": -9.95, "internal_energy": -1.69, "cluster_size": 44, "cluster_id": 1, "rank_in_cluster": 23}

>  <energy>  (18) 
-7.69

>  <cluster_rmsd>  (18) 
1.49

>  <cluster>  (18) 
1

$$$$

     RDKit          3D

 53 56  0  0  0  0  0  0  0  0999 V2000
  138.1330   71.3860  221.3200 O   0  0  0  0  0  0  0  0  0  0  0  0
  138.7590   71.7990  222.3100 C   0  0  0  0  0  0  0  0  0  0  0  0
  139.1420   73.1820  222.3600 N   0  0  0  0  0  0  0  0  0  0  0  0
  138.8340   74.0970  221.3180 C   0  0  0  0  0  0  0  0  0  0  0  0
  139.5340   75.3560  221.2330 C   0  0  0  0  0  0  0  0  0  0  0  0
  140.7830   75.2680  221.6190 O   0  0  0  0  0  0  0  0  0  0  0  0
  139.1550   76.6310  220.8240 N   0  0  0  0  0  0  0  0  0  0  0  0
  138.4370   77.0850  219.5990 C   0  0  0  0  0  0  0  0  0  0  0  0
  137.3080   77.8790  220.2330 C   0  0  0  0  0  0  0  0  0  0  0  0
  137.8300   78.3640  221.5850 C   0  0  0  0  0  0  0  0  0  0  0  0
  139.2840   77.9410  221.4820 C   0  0  1  0  0  0  0  0  0  0  0  0
  140.0720   77.9600  222.7040 C   0  0  0  0  0  0  0  0  0  0  0  0
  141.4730   77.9050  222.4240 N   0  0  0  0  0  0  0  0  0  0  0  0
  142.1640   79.1390  222.3270 C   0  0  0  0  0  0  0  0  0  0  0  0
  141.9170   79.9870  223.5440 C   0  0  0  0  0  0  0  0  0  0  0  0
  141.6630   81.4460  223.3920 C   0  0  0  0  0  0  0  0  0  0  0  0
  142.9970   80.9880  223.8740 C   0  0  0  0  0  0  0  0  0  0  0  0
  139.1070   70.9050  223.4150 C   0  0  0  0  0  0  0  0  0  0  0  0
  138.7920   69.5680  223.3130 C   0  0  0  0  0  0  0  0  0  0  0  0
  139.1410   68.7660  224.3890 C   0  0  0  0  0  0  0  0  0  0  0  0
  139.7770   69.2820  225.5150 C   0  0  0  0  0  0  0  0  0  0  0  0
  140.1290   68.4960  226.5910 C   0  0  0  0  0  0  0  0  0  0  0  0
  140.7590   69.0970  227.6690 C   0  0  0  0  0  0  0  0  0  0  0  0
  141.2290   68.1410  229.0730 Cl  0  0  0  0  0  0  0  0  0  0  0  0
  141.0470   70.4430  227.7120 C   0  0  0  0  0  0  0  0  0  0  0  0
  140.6900   71.2150  226.6280 C   0  0  0  0  0  0  0  0  0  0  0  0
  140.0630   70.6170  225.5570 C   0  0  0  0  0  0  0  0  0  0  0  0
  139.7230   71.3840  224.5150 N   0  0  0  0  0  0  0  0  0  0  0  0
  139.6740   73.4780  223.2320 H   0  0  0  0  0  0  0  0  0  0  0  0
  139.0126   73.5697  220.3693 H   0  0  0  0  0  0  0  0  0  0  0  0
  137.7999   74.3973  221.5427 H   0  0  0  0  0  0  0  0  0  0  0  0
  139.0741   77.7177  218.9635 H   0  0  0  0  0  0  0  0  0  0  0  0
  138.1138   76.2774  218.9257 H   0  0  0  0  0  0  0  0  0  0  0  0
  137.0422   78.7367  219.5976 H   0  0  0  0  0  0  0  0  0  0  0  0
  136.4041   77.2634  220.3513 H   0  0  0  0  0  0  0  0  0  0  0  0
  137.7299   79.4541  221.6926 H   0  0  0  0  0  0  0  0  0  0  0  0
  137.2940   77.9610  222.4569 H   0  0  0  0  0  0  0  0  0  0  0  0
  139.8943   78.6660  220.9234 H   0  0  0  0  0  0  0  0  0  0  0  0
  139.8537   78.8862  223.2559 H   0  0  0  0  0  0  0  0  0  0  0  0
  139.8042   77.0762  223.3016 H   0  0  0  0  0  0  0  0  0  0  0  0
  141.7880   77.1370  221.8220 H   0  0  0  0  0  0  0  0  0  0  0  0
  143.2426   78.9422  222.2375 H   0  0  0  0  0  0  0  0  0  0  0  0
  141.7983   79.6790  221.4412 H   0  0  0  0  0  0  0  0  0  0  0  0
  141.3847   79.1769  224.0639 H   0  0  0  0  0  0  0  0  0  0  0  0
  141.5642   81.8829  222.3873 H   0  0  0  0  0  0  0  0  0  0  0  0
  140.9007   82.1414  223.7731 H   0  0  0  0  0  0  0  0  0  0  0  0
  143.8797   81.0810  223.2243 H   0  0  0  0  0  0  0  0  0  0  0  0
  143.6241   81.1987  224.7529 H   0  0  0  0  0  0  0  0  0  0  0  0
  138.2898   69.1579  222.4244 H   0  0  0  0  0  0  0  0  0  0  0  0
  138.9088   67.6914  224.3519 H   0  0  0  0  0  0  0  0  0  0  0  0
  139.9149   67.4170  226.5940 H   0  0  0  0  0  0  0  0  0  0  0  0
  141.5467   70.8882  228.5850 H   0  0  0  0  0  0  0  0  0  0  0  0
  140.9028   72.2942  226.6179 H   0  0  0  0  0  0  0  0  0  0  0  0
  1  2  2  0
  2  3  1  0
  3  4  1  0
  4  5  1  0
  5  6  2  0
  5  7  1  0
  7  8  1  0
  8  9  1  0
  9 10  1  0
 10 11  1  0
 11 12  1  0
 12 13  1  0
 13 14  1  0
 14 15  1  0
 15 16  1  0
 16 17  1  0
  2 18  1  0
 18 19  2  0
 19 20  1  0
 20 21  2  0
 21 22  1  0
 22 23  2  0
 23 24  1  0
 23 25  1  0
 25 26  2  0
 26 27  1  0
 27 28  2  0
 11  7  1  0
 17 15  1  0
 28 18  1  0
 27 21  1  0
  3 29  1  0
  4 30  1  0
  4 31  1  0
  8 32  1  0
  8 33  1  0
  9 34  1  0
  9 35  1  0
 10 36  1  0
 10 37  1  0
 11 38  1  6
 12 39  1  0
 12 40  1  0
 13 41  1  0
 14 42  1  0
 14 43  1  0
 15 44  1  0
 16 45  1  0
 16 46  1  0
 17 47  1  0
 17 48  1  0
 19 49  1  0
 20 50  1  0
 22 51  1  0
 25 52  1  0
 26 53  1  0
M  END
>  <smiles>  (19) 
O=C(NCC(=O)N1CCC[C@H]1CNCC1CC1)c1ccc2cc(Cl)ccc2n1

>  <score_type>  (19) 
oracle

>  <origin>  (19) 
autodockgpu

>  <m_score__min__energy>  (19) 
-8.1199999999999992

>  <m_primary>  (19) 
energy

>  <rmsd>  (19) 
2.4241304139911835

>  <m_score__min__rmsd>  (19) 
2.4241304139911835

>  <meeko>  (19) 
{"free_energy": -7.47, "intermolecular_energy": -9.86, "internal_energy": -2.29, "cluster_size": 44, "cluster_id": 1, "rank_in_cluster": 29}

>  <energy>  (19) 
-7.65

>  <cluster_rmsd>  (19) 
1.55

>  <cluster>  (19) 
1

$$$$

     RDKit          3D

 53 56  0  0  0  0  0  0  0  0999 V2000
  141.7280   72.3560  220.9820 O   0  0  0  0  0  0  0  0  0  0  0  0
  141.1030   73.2380  221.5910 C   0  0  0  0  0  0  0  0  0  0  0  0
  140.1670   72.8480  222.6080 N   0  0  0  0  0  0  0  0  0  0  0  0
  139.9280   71.4890  222.9430 C   0  0  0  0  0  0  0  0  0  0  0  0
  139.5650   71.1310  224.2940 C   0  0  0  0  0  0  0  0  0  0  0  0
  138.2910   71.3120  224.5400 O   0  0  0  0  0  0  0  0  0  0  0  0
  140.2880   70.6330  225.3740 N   0  0  0  0  0  0  0  0  0  0  0  0
  141.2410   71.3090  226.2990 C   0  0  0  0  0  0  0  0  0  0  0  0
  140.6210   70.9350  227.6350 C   0  0  0  0  0  0  0  0  0  0  0  0
  139.8710   69.6230  227.4100 C   0  0  0  0  0  0  0  0  0  0  0  0
  140.3110   69.2990  225.9940 C   0  0  1  0  0  0  0  0  0  0  0  0
  139.5780   68.2610  225.2880 C   0  0  0  0  0  0  0  0  0  0  0  0
  138.2310   68.6580  225.0220 N   0  0  0  0  0  0  0  0  0  0  0  0
  137.7610   68.5090  223.6930 C   0  0  0  0  0  0  0  0  0  0  0  0
  138.8670   68.0490  222.7840 C   0  0  0  0  0  0  0  0  0  0  0  0
  138.5730   67.7390  221.3580 C   0  0  0  0  0  0  0  0  0  0  0  0
  138.7780   66.6170  222.3170 C   0  0  0  0  0  0  0  0  0  0  0  0
  141.3040   74.6570  221.2900 C   0  0  0  0  0  0  0  0  0  0  0  0
  142.0720   75.0020  220.2010 C   0  0  0  0  0  0  0  0  0  0  0  0
  142.2330   76.3590  219.9620 C   0  0  0  0  0  0  0  0  0  0  0  0
  141.6500   77.3230  220.7800 C   0  0  0  0  0  0  0  0  0  0  0  0
  141.8030   78.6750  220.5540 C   0  0  0  0  0  0  0  0  0  0  0  0
  141.1850   79.5620  221.4220 C   0  0  0  0  0  0  0  0  0  0  0  0
  141.3480   81.3010  221.1830 Cl  0  0  0  0  0  0  0  0  0  0  0  0
  140.4280   79.1530  222.4970 C   0  0  0  0  0  0  0  0  0  0  0  0
  140.2840   77.7990  222.7080 C   0  0  0  0  0  0  0  0  0  0  0  0
  140.8980   76.9170  221.8460 C   0  0  0  0  0  0  0  0  0  0  0  0
  140.7480   75.6070  222.0680 N   0  0  0  0  0  0  0  0  0  0  0  0
  139.6630   73.6470  223.0970 H   0  0  0  0  0  0  0  0  0  0  0  0
  139.1126   71.1403  222.2922 H   0  0  0  0  0  0  0  0  0  0  0  0
  140.9144   71.0197  222.8137 H   0  0  0  0  0  0  0  0  0  0  0  0
  142.2613   70.9109  226.1966 H   0  0  0  0  0  0  0  0  0  0  0  0
  141.3630   72.3892  226.1307 H   0  0  0  0  0  0  0  0  0  0  0  0
  141.4056   70.7994  228.3939 H   0  0  0  0  0  0  0  0  0  0  0  0
  139.9449   71.7241  227.9959 H   0  0  0  0  0  0  0  0  0  0  0  0
  140.1867   68.8464  228.1221 H   0  0  0  0  0  0  0  0  0  0  0  0
  138.7819   69.6850  227.5511 H   0  0  0  0  0  0  0  0  0  0  0  0
  141.2939   68.8060  225.9626 H   0  0  0  0  0  0  0  0  0  0  0  0
  140.0840   68.0524  224.3338 H   0  0  0  0  0  0  0  0  0  0  0  0
  139.5536   67.3634  225.9234 H   0  0  0  0  0  0  0  0  0  0  0  0
  137.8750   69.4530  225.5640 H   0  0  0  0  0  0  0  0  0  0  0  0
  136.9498   67.7662  223.6785 H   0  0  0  0  0  0  0  0  0  0  0  0
  137.3944   69.4832  223.3373 H   0  0  0  0  0  0  0  0  0  0  0  0
  139.6115   68.6880  223.2815 H   0  0  0  0  0  0  0  0  0  0  0  0
  137.5702   67.9348  220.9506 H   0  0  0  0  0  0  0  0  0  0  0  0
  139.0235   68.0255  220.3962 H   0  0  0  0  0  0  0  0  0  0  0  0
  137.9273   65.9896  222.6216 H   0  0  0  0  0  0  0  0  0  0  0  0
  139.4390   65.7389  222.3614 H   0  0  0  0  0  0  0  0  0  0  0  0
  142.5339   74.2415  219.5542 H   0  0  0  0  0  0  0  0  0  0  0  0
  142.8382   76.6824  219.1022 H   0  0  0  0  0  0  0  0  0  0  0  0
  142.4006   79.0405  219.7059 H   0  0  0  0  0  0  0  0  0  0  0  0
  139.9528   79.8848  223.1668 H   0  0  0  0  0  0  0  0  0  0  0  0
  139.6867   77.4272  223.5536 H   0  0  0  0  0  0  0  0  0  0  0  0
  1  2  2  0
  2  3  1  0
  3  4  1  0
  4  5  1  0
  5  6  2  0
  5  7  1  0
  7  8  1  0
  8  9  1  0
  9 10  1  0
 10 11  1  0
 11 12  1  0
 12 13  1  0
 13 14  1  0
 14 15  1  0
 15 16  1  0
 16 17  1  0
  2 18  1  0
 18 19  2  0
 19 20  1  0
 20 21  2  0
 21 22  1  0
 22 23  2  0
 23 24  1  0
 23 25  1  0
 25 26  2  0
 26 27  1  0
 27 28  2  0
 11  7  1  0
 17 15  1  0
 28 18  1  0
 27 21  1  0
  3 29  1  0
  4 30  1  0
  4 31  1  0
  8 32  1  0
  8 33  1  0
  9 34  1  0
  9 35  1  0
 10 36  1  0
 10 37  1  0
 11 38  1  1
 12 39  1  0
 12 40  1  0
 13 41  1  0
 14 42  1  0
 14 43  1  0
 15 44  1  0
 16 45  1  0
 16 46  1  0
 17 47  1  0
 17 48  1  0
 19 49  1  0
 20 50  1  0
 22 51  1  0
 25 52  1  0
 26 53  1  0
M  END
>  <smiles>  (20) 
O=C(NCC(=O)N1CCC[C@H]1CNCC1CC1)c1ccc2cc(Cl)ccc2n1

>  <score_type>  (20) 
oracle

>  <origin>  (20) 
autodockgpu

>  <m_score__min__energy>  (20) 
-8.1199999999999992

>  <m_primary>  (20) 
energy

>  <rmsd>  (20) 
9.834950531189408

>  <m_score__min__rmsd>  (20) 
9.834950531189408

>  <meeko>  (20) 
{"free_energy": -6.94, "intermolecular_energy": -9.33, "internal_energy": -2.3, "cluster_size": 1, "cluster_id": 3, "rank_in_cluster": 1}

>  <energy>  (20) 
-7.59

>  <cluster_rmsd>  (20) 
1.7

>  <cluster>  (20) 
1

$$$$

     RDKit          3D

 53 56  0  0  0  0  0  0  0  0999 V2000
  141.0340   74.0030  221.9850 O   0  0  0  0  0  0  0  0  0  0  0  0
  140.1200   73.1650  221.9580 C   0  0  0  0  0  0  0  0  0  0  0  0
  139.1230   73.2570  220.9280 N   0  0  0  0  0  0  0  0  0  0  0  0
  139.1430   74.2750  219.9380 C   0  0  0  0  0  0  0  0  0  0  0  0
  140.3010   74.4370  219.0920 C   0  0  0  0  0  0  0  0  0  0  0  0
  140.0510   74.1640  217.8350 O   0  0  0  0  0  0  0  0  0  0  0  0
  141.6140   74.8260  219.3390 N   0  0  0  0  0  0  0  0  0  0  0  0
  142.9030   74.1590  219.0050 C   0  0  0  0  0  0  0  0  0  0  0  0
  143.6060   75.2910  218.2740 C   0  0  0  0  0  0  0  0  0  0  0  0
  143.0170   76.5890  218.8250 C   0  0  0  0  0  0  0  0  0  0  0  0
  142.1670   76.0420  219.9570 C   0  0  1  0  0  0  0  0  0  0  0  0
  141.1960   76.9430  220.5580 C   0  0  0  0  0  0  0  0  0  0  0  0
  141.0700   76.7150  221.9640 N   0  0  0  0  0  0  0  0  0  0  0  0
  140.6440   77.8060  222.7620 C   0  0  0  0  0  0  0  0  0  0  0  0
  141.8240   78.5670  223.3010 C   0  0  0  0  0  0  0  0  0  0  0  0
  141.6490   79.9660  223.7780 C   0  0  0  0  0  0  0  0  0  0  0  0
  142.2980   79.7250  222.4580 C   0  0  0  0  0  0  0  0  0  0  0  0
  140.0440   72.0930  222.9530 C   0  0  0  0  0  0  0  0  0  0  0  0
  139.4330   70.9080  222.6070 C   0  0  0  0  0  0  0  0  0  0  0  0
  139.3860   69.9270  223.5870 C   0  0  0  0  0  0  0  0  0  0  0  0
  139.9250   70.1280  224.8550 C   0  0  0  0  0  0  0  0  0  0  0  0
  139.8840   69.1630  225.8380 C   0  0  0  0  0  0  0  0  0  0  0  0
  140.4470   69.4520  227.0710 C   0  0  0  0  0  0  0  0  0  0  0  0
  140.4200   68.2560  228.3650 Cl  0  0  0  0  0  0  0  0  0  0  0  0
  141.0440   70.6600  227.3560 C   0  0  0  0  0  0  0  0  0  0  0  0
  141.0770   71.6140  226.3620 C   0  0  0  0  0  0  0  0  0  0  0  0
  140.5180   71.3260  225.1370 C   0  0  0  0  0  0  0  0  0  0  0  0
  140.5590   72.2660  224.1860 N   0  0  0  0  0  0  0  0  0  0  0  0
  138.3660   72.5100  220.9560 H   0  0  0  0  0  0  0  0  0  0  0  0
  138.2875   74.0875  219.2725 H   0  0  0  0  0  0  0  0  0  0  0  0
  139.1304   75.2025  220.5292 H   0  0  0  0  0  0  0  0  0  0  0  0
  143.4510   73.8546  219.9089 H   0  0  0  0  0  0  0  0  0  0  0  0
  142.8060   73.2264  218.4297 H   0  0  0  0  0  0  0  0  0  0  0  0
  144.6887   75.2530  218.4647 H   0  0  0  0  0  0  0  0  0  0  0  0
  143.4599   75.2159  217.1863 H   0  0  0  0  0  0  0  0  0  0  0  0
  143.8005   77.2666  219.1951 H   0  0  0  0  0  0  0  0  0  0  0  0
  142.4685   77.1948  218.0886 H   0  0  0  0  0  0  0  0  0  0  0  0
  142.7527   75.8557  220.8693 H   0  0  0  0  0  0  0  0  0  0  0  0
  141.5206   77.9808  220.3918 H   0  0  0  0  0  0  0  0  0  0  0  0
  140.2180   76.7589  220.0894 H   0  0  0  0  0  0  0  0  0  0  0  0
  141.7350   76.0550  222.3800 H   0  0  0  0  0  0  0  0  0  0  0  0
  140.0283   78.4816  222.1500 H   0  0  0  0  0  0  0  0  0  0  0  0
  140.0595   77.4163  223.6085 H   0  0  0  0  0  0  0  0  0  0  0  0
  142.2656   77.6647  223.7491 H   0  0  0  0  0  0  0  0  0  0  0  0
  140.6427   80.4081  223.8209 H   0  0  0  0  0  0  0  0  0  0  0  0
  141.9317   80.5126  224.6898 H   0  0  0  0  0  0  0  0  0  0  0  0
  141.7695   79.9830  221.5284 H   0  0  0  0  0  0  0  0  0  0  0  0
  143.2524   80.0131  221.9930 H   0  0  0  0  0  0  0  0  0  0  0  0
  139.0049   70.7479  221.6065 H   0  0  0  0  0  0  0  0  0  0  0  0
  138.9094   68.9630  223.3557 H   0  0  0  0  0  0  0  0  0  0  0  0
  139.4153   68.1861  225.6484 H   0  0  0  0  0  0  0  0  0  0  0  0
  141.4808   70.8572  228.3461 H   0  0  0  0  0  0  0  0  0  0  0  0
  141.5439   72.5930  226.5449 H   0  0  0  0  0  0  0  0  0  0  0  0
  1  2  2  0
  2  3  1  0
  3  4  1  0
  4  5  1  0
  5  6  2  0
  5  7  1  0
  7  8  1  0
  8  9  1  0
  9 10  1  0
 10 11  1  0
 11 12  1  0
 12 13  1  0
 13 14  1  0
 14 15  1  0
 15 16  1  0
 16 17  1  0
  2 18  1  0
 18 19  2  0
 19 20  1  0
 20 21  2  0
 21 22  1  0
 22 23  2  0
 23 24  1  0
 23 25  1  0
 25 26  2  0
 26 27  1  0
 27 28  2  0
 11  7  1  0
 17 15  1  0
 28 18  1  0
 27 21  1  0
  3 29  1  0
  4 30  1  0
  4 31  1  0
  8 32  1  0
  8 33  1  0
  9 34  1  0
  9 35  1  0
 10 36  1  0
 10 37  1  0
 11 38  1  1
 12 39  1  0
 12 40  1  0
 13 41  1  0
 14 42  1  0
 14 43  1  0
 15 44  1  0
 16 45  1  0
 16 46  1  0
 17 47  1  0
 17 48  1  0
 19 49  1  0
 20 50  1  0
 22 51  1  0
 25 52  1  0
 26 53  1  0
M  END
>  <smiles>  (21) 
O=C(NCC(=O)N1CCC[C@H]1CNCC1CC1)c1ccc2cc(Cl)ccc2n1

>  <score_type>  (21) 
oracle

>  <origin>  (21) 
autodockgpu

>  <m_score__min__energy>  (21) 
-8.1199999999999992

>  <m_primary>  (21) 
energy

>  <rmsd>  (21) 
2.538937176906624

>  <m_score__min__rmsd>  (21) 
2.538937176906624

>  <meeko>  (21) 
{"free_energy": -7.37, "intermolecular_energy": -9.76, "internal_energy": -2.12, "cluster_size": 44, "cluster_id": 1, "rank_in_cluster": 30}

>  <energy>  (21) 
-7.58

>  <cluster_rmsd>  (21) 
1.34

>  <cluster>  (21) 
1

$$$$

     RDKit          3D

 53 56  0  0  0  0  0  0  0  0999 V2000
  141.1600   72.5600  221.3900 O   0  0  0  0  0  0  0  0  0  0  0  0
  140.3080   72.6480  222.2880 C   0  0  0  0  0  0  0  0  0  0  0  0
  139.4060   73.7660  222.2810 N   0  0  0  0  0  0  0  0  0  0  0  0
  139.4530   74.7770  221.2850 C   0  0  0  0  0  0  0  0  0  0  0  0
  140.7220   75.3330  220.8800 C   0  0  0  0  0  0  0  0  0  0  0  0
  141.5540   75.4780  221.8820 O   0  0  0  0  0  0  0  0  0  0  0  0
  141.2350   75.7390  219.6520 N   0  0  0  0  0  0  0  0  0  0  0  0
  141.0860   77.0250  218.9140 C   0  0  0  0  0  0  0  0  0  0  0  0
  142.5490   77.3630  218.6750 C   0  0  0  0  0  0  0  0  0  0  0  0
  143.3000   76.0320  218.6580 C   0  0  0  0  0  0  0  0  0  0  0  0
  142.1340   75.0620  218.7040 C   0  0  1  0  0  0  0  0  0  0  0  0
  142.4350   73.6710  219.0010 C   0  0  0  0  0  0  0  0  0  0  0  0
  143.2210   73.5470  220.1890 N   0  0  0  0  0  0  0  0  0  0  0  0
  144.0160   72.3810  220.3220 C   0  0  0  0  0  0  0  0  0  0  0  0
  145.4720   72.7360  220.4360 C   0  0  0  0  0  0  0  0  0  0  0  0
  146.0580   73.0450  221.7690 C   0  0  0  0  0  0  0  0  0  0  0  0
  145.7700   74.1630  220.8260 C   0  0  0  0  0  0  0  0  0  0  0  0
  140.2110   71.6380  223.3440 C   0  0  0  0  0  0  0  0  0  0  0  0
  139.6250   70.4270  223.0530 C   0  0  0  0  0  0  0  0  0  0  0  0
  139.5550   69.5080  224.0900 C   0  0  0  0  0  0  0  0  0  0  0  0
  140.0510   69.7930  225.3590 C   0  0  0  0  0  0  0  0  0  0  0  0
  139.9870   68.8890  226.3980 C   0  0  0  0  0  0  0  0  0  0  0  0
  140.5070   69.2610  227.6280 C   0  0  0  0  0  0  0  0  0  0  0  0
  140.4510   68.1460  228.9930 Cl  0  0  0  0  0  0  0  0  0  0  0  0
  141.0820   70.4920  227.8570 C   0  0  0  0  0  0  0  0  0  0  0  0
  141.1380   71.3830  226.8080 C   0  0  0  0  0  0  0  0  0  0  0  0
  140.6210   71.0140  225.5860 C   0  0  0  0  0  0  0  0  0  0  0  0
  140.6840   71.8940  224.5800 N   0  0  0  0  0  0  0  0  0  0  0  0
  138.6970   73.7870  223.0740 H   0  0  0  0  0  0  0  0  0  0  0  0
  138.9886   74.3546  220.3817 H   0  0  0  0  0  0  0  0  0  0  0  0
  138.9458   75.6275  221.7640 H   0  0  0  0  0  0  0  0  0  0  0  0
  140.5380   76.8926  217.9695 H   0  0  0  0  0  0  0  0  0  0  0  0
  140.5120   77.7995  219.4438 H   0  0  0  0  0  0  0  0  0  0  0  0
  142.6679   77.8797  217.7112 H   0  0  0  0  0  0  0  0  0  0  0  0
  142.9378   78.0312  219.4575 H   0  0  0  0  0  0  0  0  0  0  0  0
  143.8937   75.9114  217.7399 H   0  0  0  0  0  0  0  0  0  0  0  0
  144.0346   75.9075  219.4673 H   0  0  0  0  0  0  0  0  0  0  0  0
  141.6920   74.8891  217.7117 H   0  0  0  0  0  0  0  0  0  0  0  0
  141.4914   73.1225  219.1379 H   0  0  0  0  0  0  0  0  0  0  0  0
  143.0112   73.2556  218.1611 H   0  0  0  0  0  0  0  0  0  0  0  0
  142.8230   73.9480  221.0440 H   0  0  0  0  0  0  0  0  0  0  0  0
  143.7065   71.8349  221.2253 H   0  0  0  0  0  0  0  0  0  0  0  0
  143.8753   71.7553  219.4283 H   0  0  0  0  0  0  0  0  0  0  0  0
  145.7555   72.0474  219.6264 H   0  0  0  0  0  0  0  0  0  0  0  0
  145.4485   72.9234  222.6766 H   0  0  0  0  0  0  0  0  0  0  0  0
  146.9494   72.7076  222.3182 H   0  0  0  0  0  0  0  0  0  0  0  0
  144.9460   74.8613  221.0340 H   0  0  0  0  0  0  0  0  0  0  0  0
  146.3546   74.9860  220.3890 H   0  0  0  0  0  0  0  0  0  0  0  0
  139.2327   70.1998  222.0507 H   0  0  0  0  0  0  0  0  0  0  0  0
  139.0945   68.5265  223.9041 H   0  0  0  0  0  0  0  0  0  0  0  0
  139.5344   67.8968  226.2544 H   0  0  0  0  0  0  0  0  0  0  0  0
  141.4838   70.7550  228.8466 H   0  0  0  0  0  0  0  0  0  0  0  0
  141.5899   72.3766  226.9446 H   0  0  0  0  0  0  0  0  0  0  0  0
  1  2  2  0
  2  3  1  0
  3  4  1  0
  4  5  1  0
  5  6  2  0
  5  7  1  0
  7  8  1  0
  8  9  1  0
  9 10  1  0
 10 11  1  0
 11 12  1  0
 12 13  1  0
 13 14  1  0
 14 15  1  0
 15 16  1  0
 16 17  1  0
  2 18  1  0
 18 19  2  0
 19 20  1  0
 20 21  2  0
 21 22  1  0
 22 23  2  0
 23 24  1  0
 23 25  1  0
 25 26  2  0
 26 27  1  0
 27 28  2  0
 11  7  1  0
 17 15  1  0
 28 18  1  0
 27 21  1  0
  3 29  1  0
  4 30  1  0
  4 31  1  0
  8 32  1  0
  8 33  1  0
  9 34  1  0
  9 35  1  0
 10 36  1  0
 10 37  1  0
 11 38  1  6
 12 39  1  0
 12 40  1  0
 13 41  1  0
 14 42  1  0
 14 43  1  0
 15 44  1  0
 16 45  1  0
 16 46  1  0
 17 47  1  0
 17 48  1  0
 19 49  1  0
 20 50  1  0
 22 51  1  0
 25 52  1  0
 26 53  1  0
M  END
>  <smiles>  (22) 
O=C(NCC(=O)N1CCC[C@H]1CNCC1CC1)c1ccc2cc(Cl)ccc2n1

>  <score_type>  (22) 
oracle

>  <origin>  (22) 
autodockgpu

>  <m_score__min__energy>  (22) 
-8.1199999999999992

>  <m_primary>  (22) 
energy

>  <rmsd>  (22) 
4.18990589343666

>  <m_score__min__rmsd>  (22) 
4.18990589343666

>  <meeko>  (22) 
{"free_energy": -7.24, "intermolecular_energy": -9.62, "internal_energy": -2.9, "cluster_size": 44, "cluster_id": 1, "rank_in_cluster": 34}

>  <energy>  (22) 
-7.58

>  <cluster_rmsd>  (22) 
1.54

>  <cluster>  (22) 
1

$$$$

     RDKit          3D

 53 56  0  0  0  0  0  0  0  0999 V2000
  139.6960   72.3930  220.7980 O   0  0  0  0  0  0  0  0  0  0  0  0
  139.6460   72.7220  221.9930 C   0  0  0  0  0  0  0  0  0  0  0  0
  139.4550   74.1070  222.3240 N   0  0  0  0  0  0  0  0  0  0  0  0
  139.3230   75.1160  221.3350 C   0  0  0  0  0  0  0  0  0  0  0  0
  140.2980   75.2200  220.2750 C   0  0  0  0  0  0  0  0  0  0  0  0
  139.7520   75.2350  219.0850 O   0  0  0  0  0  0  0  0  0  0  0  0
  141.6860   75.3120  220.2640 N   0  0  0  0  0  0  0  0  0  0  0  0
  142.7310   74.2570  220.3940 C   0  0  0  0  0  0  0  0  0  0  0  0
  143.5530   74.5450  219.1490 C   0  0  0  0  0  0  0  0  0  0  0  0
  143.3570   76.0280  218.8370 C   0  0  0  0  0  0  0  0  0  0  0  0
  142.5820   76.4630  220.0680 C   0  0  1  0  0  0  0  0  0  0  0  0
  141.9370   77.7660  220.0240 C   0  0  0  0  0  0  0  0  0  0  0  0
  142.0820   78.4640  221.2630 N   0  0  0  0  0  0  0  0  0  0  0  0
  141.3950   79.6960  221.3970 C   0  0  0  0  0  0  0  0  0  0  0  0
  141.3540   80.1320  222.8360 C   0  0  0  0  0  0  0  0  0  0  0  0
  142.6230   80.3060  223.5940 C   0  0  0  0  0  0  0  0  0  0  0  0
  141.7880   79.0980  223.8450 C   0  0  0  0  0  0  0  0  0  0  0  0
  139.7780   71.7280  223.0610 C   0  0  0  0  0  0  0  0  0  0  0  0
  139.4000   70.4280  222.8080 C   0  0  0  0  0  0  0  0  0  0  0  0
  139.5420   69.5280  223.8530 C   0  0  0  0  0  0  0  0  0  0  0  0
  140.0400   69.9160  225.0940 C   0  0  0  0  0  0  0  0  0  0  0  0
  140.1850   69.0310  226.1410 C   0  0  0  0  0  0  0  0  0  0  0  0
  140.6890   69.5080  227.3420 C   0  0  0  0  0  0  0  0  0  0  0  0
  140.8940   68.4220  228.7150 Cl  0  0  0  0  0  0  0  0  0  0  0  0
  141.0490   70.8230  227.5330 C   0  0  0  0  0  0  0  0  0  0  0  0
  140.8980   71.6940  226.4760 C   0  0  0  0  0  0  0  0  0  0  0  0
  140.3970   71.2200  225.2830 C   0  0  0  0  0  0  0  0  0  0  0  0
  140.2570   72.0820  224.2700 N   0  0  0  0  0  0  0  0  0  0  0  0
  139.4190   74.3270  223.3650 H   0  0  0  0  0  0  0  0  0  0  0  0
  138.3458   74.9630  220.8537 H   0  0  0  0  0  0  0  0  0  0  0  0
  139.4667   76.0470  221.9029 H   0  0  0  0  0  0  0  0  0  0  0  0
  143.3239   74.3806  221.3123 H   0  0  0  0  0  0  0  0  0  0  0  0
  142.3454   73.2294  220.4671 H   0  0  0  0  0  0  0  0  0  0  0  0
  144.6158   74.3329  219.3372 H   0  0  0  0  0  0  0  0  0  0  0  0
  143.2346   73.9143  218.3059 H   0  0  0  0  0  0  0  0  0  0  0  0
  144.3179   76.5568  218.7529 H   0  0  0  0  0  0  0  0  0  0  0  0
  142.8559   76.2353  217.8799 H   0  0  0  0  0  0  0  0  0  0  0  0
  143.2384   76.6723  220.9255 H   0  0  0  0  0  0  0  0  0  0  0  0
  142.3933   78.3639  219.2213 H   0  0  0  0  0  0  0  0  0  0  0  0
  140.8637   77.6139  219.8369 H   0  0  0  0  0  0  0  0  0  0  0  0
  142.9890   78.3740  221.7340 H   0  0  0  0  0  0  0  0  0  0  0  0
  141.9120   80.4635  220.8024 H   0  0  0  0  0  0  0  0  0  0  0  0
  140.3631   79.5646  221.0393 H   0  0  0  0  0  0  0  0  0  0  0  0
  140.4779   80.7761  222.6698 H   0  0  0  0  0  0  0  0  0  0  0  0
  143.5883   80.2065  223.0760 H   0  0  0  0  0  0  0  0  0  0  0  0
  143.0414   81.1015  224.2281 H   0  0  0  0  0  0  0  0  0  0  0  0
  142.1331   78.1095  223.5078 H   0  0  0  0  0  0  0  0  0  0  0  0
  141.3329   78.6343  224.7326 H   0  0  0  0  0  0  0  0  0  0  0  0
  139.0061   70.1200  221.8282 H   0  0  0  0  0  0  0  0  0  0  0  0
  139.2532   68.4781  223.6973 H   0  0  0  0  0  0  0  0  0  0  0  0
  139.9078   67.9726  226.0268 H   0  0  0  0  0  0  0  0  0  0  0  0
  141.4450   71.1677  228.4996 H   0  0  0  0  0  0  0  0  0  0  0  0
  141.1737   72.7535  226.5831 H   0  0  0  0  0  0  0  0  0  0  0  0
  1  2  2  0
  2  3  1  0
  3  4  1  0
  4  5  1  0
  5  6  2  0
  5  7  1  0
  7  8  1  0
  8  9  1  0
  9 10  1  0
 10 11  1  0
 11 12  1  0
 12 13  1  0
 13 14  1  0
 14 15  1  0
 15 16  1  0
 16 17  1  0
  2 18  1  0
 18 19  2  0
 19 20  1  0
 20 21  2  0
 21 22  1  0
 22 23  2  0
 23 24  1  0
 23 25  1  0
 25 26  2  0
 26 27  1  0
 27 28  2  0
 11  7  1  0
 17 15  1  0
 28 18  1  0
 27 21  1  0
  3 29  1  0
  4 30  1  0
  4 31  1  0
  8 32  1  0
  8 33  1  0
  9 34  1  0
  9 35  1  0
 10 36  1  0
 10 37  1  0
 11 38  1  1
 12 39  1  0
 12 40  1  0
 13 41  1  0
 14 42  1  0
 14 43  1  0
 15 44  1  0
 16 45  1  0
 16 46  1  0
 17 47  1  0
 17 48  1  0
 19 49  1  0
 20 50  1  0
 22 51  1  0
 25 52  1  0
 26 53  1  0
M  END
>  <smiles>  (23) 
O=C(NCC(=O)N1CCC[C@H]1CNCC1CC1)c1ccc2cc(Cl)ccc2n1

>  <score_type>  (23) 
oracle

>  <origin>  (23) 
autodockgpu

>  <m_score__min__energy>  (23) 
-8.1199999999999992

>  <m_primary>  (23) 
energy

>  <rmsd>  (23) 
2.6428187048733642

>  <m_score__min__rmsd>  (23) 
2.6428187048733642

>  <meeko>  (23) 
{"free_energy": -7.96, "intermolecular_energy": -10.35, "internal_energy": -1.62, "cluster_size": 44, "cluster_id": 1, "rank_in_cluster": 7}

>  <energy>  (23) 
-7.57

>  <cluster_rmsd>  (23) 
1.11

>  <cluster>  (23) 
1

$$$$

     RDKit          3D

 53 56  0  0  0  0  0  0  0  0999 V2000
  139.9860   72.1340  220.7530 O   0  0  0  0  0  0  0  0  0  0  0  0
  139.8660   72.4720  221.9410 C   0  0  0  0  0  0  0  0  0  0  0  0
  139.6660   73.8600  222.2500 N   0  0  0  0  0  0  0  0  0  0  0  0
  139.6010   74.8630  221.2480 C   0  0  0  0  0  0  0  0  0  0  0  0
  140.6260   75.8760  221.1720 C   0  0  0  0  0  0  0  0  0  0  0  0
  140.3250   76.9530  221.8550 O   0  0  0  0  0  0  0  0  0  0  0  0
  141.8600   75.9360  220.5310 N   0  0  0  0  0  0  0  0  0  0  0  0
  142.9040   74.8920  220.3320 C   0  0  0  0  0  0  0  0  0  0  0  0
  143.0740   74.9720  218.8240 C   0  0  0  0  0  0  0  0  0  0  0  0
  142.6870   76.3950  218.4230 C   0  0  0  0  0  0  0  0  0  0  0  0
  142.5170   77.0260  219.7920 C   0  0  1  0  0  0  0  0  0  0  0  0
  141.8570   78.3200  219.8530 C   0  0  0  0  0  0  0  0  0  0  0  0
  141.8490   78.8420  221.1840 N   0  0  0  0  0  0  0  0  0  0  0  0
  142.2030   80.2050  221.3480 C   0  0  0  0  0  0  0  0  0  0  0  0
  142.8100   80.4400  222.7030 C   0  0  0  0  0  0  0  0  0  0  0  0
  142.2180   79.7900  223.9040 C   0  0  0  0  0  0  0  0  0  0  0  0
  141.9700   81.2400  223.6680 C   0  0  0  0  0  0  0  0  0  0  0  0
  139.9270   71.4840  223.0200 C   0  0  0  0  0  0  0  0  0  0  0  0
  139.4830   70.2040  222.7750 C   0  0  0  0  0  0  0  0  0  0  0  0
  139.5590   69.3100  223.8320 C   0  0  0  0  0  0  0  0  0  0  0  0
  140.0580   69.6840  225.0770 C   0  0  0  0  0  0  0  0  0  0  0  0
  140.1380   68.8050  226.1360 C   0  0  0  0  0  0  0  0  0  0  0  0
  140.6480   69.2670  227.3390 C   0  0  0  0  0  0  0  0  0  0  0  0
  140.7720   68.1870  228.7280 Cl  0  0  0  0  0  0  0  0  0  0  0  0
  141.0760   70.5630  227.5220 C   0  0  0  0  0  0  0  0  0  0  0  0
  140.9900   71.4280  226.4540 C   0  0  0  0  0  0  0  0  0  0  0  0
  140.4830   70.9690  225.2580 C   0  0  0  0  0  0  0  0  0  0  0  0
  140.4060   71.8250  224.2340 N   0  0  0  0  0  0  0  0  0  0  0  0
  139.5690   74.0880  223.2850 H   0  0  0  0  0  0  0  0  0  0  0  0
  139.5961   74.3432  220.2786 H   0  0  0  0  0  0  0  0  0  0  0  0
  138.7014   75.4343  221.5208 H   0  0  0  0  0  0  0  0  0  0  0  0
  143.8357   75.1403  220.8615 H   0  0  0  0  0  0  0  0  0  0  0  0
  142.6413   73.8953  220.7162 H   0  0  0  0  0  0  0  0  0  0  0  0
  144.1192   74.7694  218.5474 H   0  0  0  0  0  0  0  0  0  0  0  0
  142.4469   74.2278  218.3112 H   0  0  0  0  0  0  0  0  0  0  0  0
  143.4838   76.8858  217.8448 H   0  0  0  0  0  0  0  0  0  0  0  0
  141.8040   76.4654  217.7708 H   0  0  0  0  0  0  0  0  0  0  0  0
  143.4741   77.3496  220.2271 H   0  0  0  0  0  0  0  0  0  0  0  0
  142.3891   79.0239  219.1962 H   0  0  0  0  0  0  0  0  0  0  0  0
  140.8145   78.1914  219.5265 H   0  0  0  0  0  0  0  0  0  0  0  0
  142.1130   78.1910  221.9310 H   0  0  0  0  0  0  0  0  0  0  0  0
  142.9321   80.4839  220.5730 H   0  0  0  0  0  0  0  0  0  0  0  0
  141.2944   80.8184  221.2577 H   0  0  0  0  0  0  0  0  0  0  0  0
  143.8299   80.4872  222.2937 H   0  0  0  0  0  0  0  0  0  0  0  0
  141.3966   79.0678  223.7868 H   0  0  0  0  0  0  0  0  0  0  0  0
  142.6207   79.2013  224.7414 H   0  0  0  0  0  0  0  0  0  0  0  0
  140.9692   81.5870  223.3713 H   0  0  0  0  0  0  0  0  0  0  0  0
  142.1148   82.1617  224.2506 H   0  0  0  0  0  0  0  0  0  0  0  0
  139.0887   69.9063  221.7922 H   0  0  0  0  0  0  0  0  0  0  0  0
  139.2153   68.2758  223.6828 H   0  0  0  0  0  0  0  0  0  0  0  0
  139.8051   67.7621  226.0288 H   0  0  0  0  0  0  0  0  0  0  0  0
  141.4743   70.8970  228.4914 H   0  0  0  0  0  0  0  0  0  0  0  0
  141.3218   72.4719  226.5545 H   0  0  0  0  0  0  0  0  0  0  0  0
  1  2  2  0
  2  3  1  0
  3  4  1  0
  4  5  1  0
  5  6  2  0
  5  7  1  0
  7  8  1  0
  8  9  1  0
  9 10  1  0
 10 11  1  0
 11 12  1  0
 12 13  1  0
 13 14  1  0
 14 15  1  0
 15 16  1  0
 16 17  1  0
  2 18  1  0
 18 19  2  0
 19 20  1  0
 20 21  2  0
 21 22  1  0
 22 23  2  0
 23 24  1  0
 23 25  1  0
 25 26  2  0
 26 27  1  0
 27 28  2  0
 11  7  1  0
 17 15  1  0
 28 18  1  0
 27 21  1  0
  3 29  1  0
  4 30  1  0
  4 31  1  0
  8 32  1  0
  8 33  1  0
  9 34  1  0
  9 35  1  0
 10 36  1  0
 10 37  1  0
 11 38  1  1
 12 39  1  0
 12 40  1  0
 13 41  1  0
 14 42  1  0
 14 43  1  0
 15 44  1  0
 16 45  1  0
 16 46  1  0
 17 47  1  0
 17 48  1  0
 19 49  1  0
 20 50  1  0
 22 51  1  0
 25 52  1  0
 26 53  1  0
M  END
>  <smiles>  (24) 
O=C(NCC(=O)N1CCC[C@H]1CNCC1CC1)c1ccc2cc(Cl)ccc2n1

>  <score_type>  (24) 
oracle

>  <origin>  (24) 
autodockgpu

>  <m_score__min__energy>  (24) 
-8.1199999999999992

>  <m_primary>  (24) 
energy

>  <rmsd>  (24) 
2.4234636043699354

>  <m_score__min__rmsd>  (24) 
2.4234636043699354

>  <meeko>  (24) 
{"free_energy": -8.03, "intermolecular_energy": -10.41, "internal_energy": -2.0, "cluster_size": 44, "cluster_id": 1, "rank_in_cluster": 5}

>  <energy>  (24) 
-7.56

>  <cluster_rmsd>  (24) 
0.71

>  <cluster>  (24) 
1

$$$$

     RDKit          3D

 53 56  0  0  0  0  0  0  0  0999 V2000
  138.6500   71.6190  220.7250 O   0  0  0  0  0  0  0  0  0  0  0  0
  138.8600   72.0640  221.8640 C   0  0  0  0  0  0  0  0  0  0  0  0
  138.8010   73.4830  222.0770 N   0  0  0  0  0  0  0  0  0  0  0  0
  138.5130   74.3990  221.0320 C   0  0  0  0  0  0  0  0  0  0  0  0
  139.3410   75.5680  220.8480 C   0  0  0  0  0  0  0  0  0  0  0  0
  138.6520   76.6260  220.4990 O   0  0  0  0  0  0  0  0  0  0  0  0
  140.7080   75.7950  220.9680 N   0  0  0  0  0  0  0  0  0  0  0  0
  141.8330   74.8470  221.2080 C   0  0  0  0  0  0  0  0  0  0  0  0
  142.7390   75.2130  220.0440 C   0  0  0  0  0  0  0  0  0  0  0  0
  142.4300   76.6690  219.7000 C   0  0  0  0  0  0  0  0  0  0  0  0
  141.5020   77.0280  220.8460 C   0  0  1  0  0  0  0  0  0  0  0  0
  140.7410   78.2610  220.7270 C   0  0  0  0  0  0  0  0  0  0  0  0
  140.0200   78.5490  221.9280 N   0  0  0  0  0  0  0  0  0  0  0  0
  140.7800   78.7740  223.1030 C   0  0  0  0  0  0  0  0  0  0  0  0
  141.3170   80.1790  223.1310 C   0  0  0  0  0  0  0  0  0  0  0  0
  142.5500   80.5170  222.3680 C   0  0  0  0  0  0  0  0  0  0  0  0
  142.6320   80.3620  223.8480 C   0  0  0  0  0  0  0  0  0  0  0  0
  139.1640   71.1700  222.9840 C   0  0  0  0  0  0  0  0  0  0  0  0
  138.8360   69.8370  222.8770 C   0  0  0  0  0  0  0  0  0  0  0  0
  139.1420   69.0350  223.9660 C   0  0  0  0  0  0  0  0  0  0  0  0
  139.7490   69.5480  225.1090 C   0  0  0  0  0  0  0  0  0  0  0  0
  140.0580   68.7620  226.1990 C   0  0  0  0  0  0  0  0  0  0  0  0
  140.6620   69.3610  227.2940 C   0  0  0  0  0  0  0  0  0  0  0  0
  141.0770   68.4050  228.7150 Cl  0  0  0  0  0  0  0  0  0  0  0  0
  140.9650   70.7040  227.3400 C   0  0  0  0  0  0  0  0  0  0  0  0
  140.6500   71.4750  226.2430 C   0  0  0  0  0  0  0  0  0  0  0  0
  140.0500   70.8800  225.1550 C   0  0  0  0  0  0  0  0  0  0  0  0
  139.7510   71.6460  224.1000 N   0  0  0  0  0  0  0  0  0  0  0  0
  138.9880   73.8040  223.0750 H   0  0  0  0  0  0  0  0  0  0  0  0
  138.5529   73.8303  220.0912 H   0  0  0  0  0  0  0  0  0  0  0  0
  137.5410   74.8214  221.3266 H   0  0  0  0  0  0  0  0  0  0  0  0
  142.3202   75.0286  222.1774 H   0  0  0  0  0  0  0  0  0  0  0  0
  141.5437   73.7868  221.2545 H   0  0  0  0  0  0  0  0  0  0  0  0
  143.7944   75.1063  220.3350 H   0  0  0  0  0  0  0  0  0  0  0  0
  142.5663   74.5534  219.1808 H   0  0  0  0  0  0  0  0  0  0  0  0
  143.3384   77.2893  219.7025 H   0  0  0  0  0  0  0  0  0  0  0  0
  142.0049   76.8248  218.6975 H   0  0  0  0  0  0  0  0  0  0  0  0
  142.0493   77.3023  221.7599 H   0  0  0  0  0  0  0  0  0  0  0  0
  141.4334   79.0898  220.5181 H   0  0  0  0  0  0  0  0  0  0  0  0
  140.0156   78.1416  219.9088 H   0  0  0  0  0  0  0  0  0  0  0  0
  139.1090   78.0910  222.0330 H   0  0  0  0  0  0  0  0  0  0  0  0
  140.1392   78.6152  223.9829 H   0  0  0  0  0  0  0  0  0  0  0  0
  141.6272   78.0724  223.1147 H   0  0  0  0  0  0  0  0  0  0  0  0
  140.3095   80.6185  223.1729 H   0  0  0  0  0  0  0  0  0  0  0  0
  143.0117   79.7642  221.7121 H   0  0  0  0  0  0  0  0  0  0  0  0
  142.8261   81.3102  221.6576 H   0  0  0  0  0  0  0  0  0  0  0  0
  143.1479   79.4937  224.2837 H   0  0  0  0  0  0  0  0  0  0  0  0
  142.9870   80.9879  224.6800 H   0  0  0  0  0  0  0  0  0  0  0  0
  138.3563   69.4296  221.9748 H   0  0  0  0  0  0  0  0  0  0  0  0
  138.8982   67.9631  223.9256 H   0  0  0  0  0  0  0  0  0  0  0  0
  139.8308   67.6857  226.1998 H   0  0  0  0  0  0  0  0  0  0  0  0
  141.4438   71.1471  228.2257 H   0  0  0  0  0  0  0  0  0  0  0  0
  140.8746   72.5518  226.2357 H   0  0  0  0  0  0  0  0  0  0  0  0
  1  2  2  0
  2  3  1  0
  3  4  1  0
  4  5  1  0
  5  6  2  0
  5  7  1  0
  7  8  1  0
  8  9  1  0
  9 10  1  0
 10 11  1  0
 11 12  1  0
 12 13  1  0
 13 14  1  0
 14 15  1  0
 15 16  1  0
 16 17  1  0
  2 18  1  0
 18 19  2  0
 19 20  1  0
 20 21  2  0
 21 22  1  0
 22 23  2  0
 23 24  1  0
 23 25  1  0
 25 26  2  0
 26 27  1  0
 27 28  2  0
 11  7  1  0
 17 15  1  0
 28 18  1  0
 27 21  1  0
  3 29  1  0
  4 30  1  0
  4 31  1  0
  8 32  1  0
  8 33  1  0
  9 34  1  0
  9 35  1  0
 10 36  1  0
 10 37  1  0
 11 38  1  1
 12 39  1  0
 12 40  1  0
 13 41  1  0
 14 42  1  0
 14 43  1  0
 15 44  1  0
 16 45  1  0
 16 46  1  0
 17 47  1  0
 17 48  1  0
 19 49  1  0
 20 50  1  0
 22 51  1  0
 25 52  1  0
 26 53  1  0
M  END
>  <smiles>  (25) 
O=C(NCC(=O)N1CCC[C@H]1CNCC1CC1)c1ccc2cc(Cl)ccc2n1

>  <score_type>  (25) 
oracle

>  <origin>  (25) 
autodockgpu

>  <m_score__min__energy>  (25) 
-8.1199999999999992

>  <m_primary>  (25) 
energy

>  <rmsd>  (25) 
2.3233864169266987

>  <m_score__min__rmsd>  (25) 
2.3233864169266987

>  <meeko>  (25) 
{"free_energy": -7.29, "intermolecular_energy": -9.68, "internal_energy": -2.11, "cluster_size": 44, "cluster_id": 1, "rank_in_cluster": 33}

>  <energy>  (25) 
-7.53

>  <cluster_rmsd>  (25) 
1.12

>  <cluster>  (25) 
1

$$$$

     RDKit          3D

 53 56  0  0  0  0  0  0  0  0999 V2000
  139.4200   71.6050  220.7690 O   0  0  0  0  0  0  0  0  0  0  0  0
  139.5220   72.0220  221.9330 C   0  0  0  0  0  0  0  0  0  0  0  0
  139.5280   73.4390  222.1640 N   0  0  0  0  0  0  0  0  0  0  0  0
  139.4230   74.3840  221.1100 C   0  0  0  0  0  0  0  0  0  0  0  0
  140.1860   75.6090  221.1590 C   0  0  0  0  0  0  0  0  0  0  0  0
  140.7570   75.8030  222.3230 O   0  0  0  0  0  0  0  0  0  0  0  0
  140.4370   76.6120  220.2290 N   0  0  0  0  0  0  0  0  0  0  0  0
  139.7170   77.8880  219.9570 C   0  0  0  0  0  0  0  0  0  0  0  0
  140.8710   78.8710  220.0580 C   0  0  0  0  0  0  0  0  0  0  0  0
  142.1350   78.0890  219.7000 C   0  0  0  0  0  0  0  0  0  0  0  0
  141.5210   76.7760  219.2470 C   0  0  1  0  0  0  0  0  0  0  0  0
  142.4150   75.6390  219.0960 C   0  0  0  0  0  0  0  0  0  0  0  0
  142.9820   75.2480  220.3480 N   0  0  0  0  0  0  0  0  0  0  0  0
  143.4920   73.9290  220.4450 C   0  0  0  0  0  0  0  0  0  0  0  0
  144.9530   73.8940  220.0920 C   0  0  0  0  0  0  0  0  0  0  0  0
  145.6500   72.5860  219.9510 C   0  0  0  0  0  0  0  0  0  0  0  0
  145.8780   73.4010  221.1780 C   0  0  0  0  0  0  0  0  0  0  0  0
  139.6360   71.0980  223.0630 C   0  0  0  0  0  0  0  0  0  0  0  0
  139.1730   69.8090  222.9160 C   0  0  0  0  0  0  0  0  0  0  0  0
  139.3020   68.9760  224.0180 C   0  0  0  0  0  0  0  0  0  0  0  0
  139.8690   69.4170  225.2110 C   0  0  0  0  0  0  0  0  0  0  0  0
  140.0010   68.6000  226.3130 C   0  0  0  0  0  0  0  0  0  0  0  0
  140.5780   69.1260  227.4580 C   0  0  0  0  0  0  0  0  0  0  0  0
  140.7710   68.1270  228.8980 Cl  0  0  0  0  0  0  0  0  0  0  0  0
  141.0220   70.4270  227.5430 C   0  0  0  0  0  0  0  0  0  0  0  0
  140.8820   71.2300  226.4330 C   0  0  0  0  0  0  0  0  0  0  0  0
  140.3090   70.7070  225.2940 C   0  0  0  0  0  0  0  0  0  0  0  0
  140.1810   71.5040  224.2280 N   0  0  0  0  0  0  0  0  0  0  0  0
  139.6160   73.7360  223.1830 H   0  0  0  0  0  0  0  0  0  0  0  0
  139.7172   73.8636  220.1866 H   0  0  0  0  0  0  0  0  0  0  0  0
  138.3821   74.7317  221.1854 H   0  0  0  0  0  0  0  0  0  0  0  0
  139.2623   77.8943  218.9554 H   0  0  0  0  0  0  0  0  0  0  0  0
  138.8725   78.0953  220.6306 H   0  0  0  0  0  0  0  0  0  0  0  0
  140.7254   79.7027  219.3529 H   0  0  0  0  0  0  0  0  0  0  0  0
  140.9409   79.3024  221.0674 H   0  0  0  0  0  0  0  0  0  0  0  0
  142.6992   78.5754  218.8906 H   0  0  0  0  0  0  0  0  0  0  0  0
  142.8673   77.9982  220.5157 H   0  0  0  0  0  0  0  0  0  0  0  0
  141.1784   76.8108  218.2023 H   0  0  0  0  0  0  0  0  0  0  0  0
  141.8492   74.7923  218.6800 H   0  0  0  0  0  0  0  0  0  0  0  0
  143.2342   75.9315  218.4227 H   0  0  0  0  0  0  0  0  0  0  0  0
  142.5560   75.6540  221.1880 H   0  0  0  0  0  0  0  0  0  0  0  0
  143.3612   73.5667  221.4754 H   0  0  0  0  0  0  0  0  0  0  0  0
  142.9436   73.2863  219.7405 H   0  0  0  0  0  0  0  0  0  0  0  0
  144.8710   74.7811  219.4468 H   0  0  0  0  0  0  0  0  0  0  0  0
  145.0757   71.6499  220.0143 H   0  0  0  0  0  0  0  0  0  0  0  0
  146.3041   72.1373  219.1889 H   0  0  0  0  0  0  0  0  0  0  0  0
  145.4678   73.0704  222.1436 H   0  0  0  0  0  0  0  0  0  0  0  0
  146.7616   73.8050  221.6939 H   0  0  0  0  0  0  0  0  0  0  0  0
  138.7247   69.4586  221.9746 H   0  0  0  0  0  0  0  0  0  0  0  0
  138.9462   67.9375  223.9473 H   0  0  0  0  0  0  0  0  0  0  0  0
  139.6567   67.5557  226.2845 H   0  0  0  0  0  0  0  0  0  0  0  0
  141.4743   70.8126  228.4686 H   0  0  0  0  0  0  0  0  0  0  0  0
  141.2232   72.2755  226.4552 H   0  0  0  0  0  0  0  0  0  0  0  0
  1  2  2  0
  2  3  1  0
  3  4  1  0
  4  5  1  0
  5  6  2  0
  5  7  1  0
  7  8  1  0
  8  9  1  0
  9 10  1  0
 10 11  1  0
 11 12  1  0
 12 13  1  0
 13 14  1  0
 14 15  1  0
 15 16  1  0
 16 17  1  0
  2 18  1  0
 18 19  2  0
 19 20  1  0
 20 21  2  0
 21 22  1  0
 22 23  2  0
 23 24  1  0
 23 25  1  0
 25 26  2  0
 26 27  1  0
 27 28  2  0
 11  7  1  0
 17 15  1  0
 28 18  1  0
 27 21  1  0
  3 29  1  0
  4 30  1  0
  4 31  1  0
  8 32  1  0
  8 33  1  0
  9 34  1  0
  9 35  1  0
 10 36  1  0
 10 37  1  0
 11 38  1  6
 12 39  1  0
 12 40  1  0
 13 41  1  0
 14 42  1  0
 14 43  1  0
 15 44  1  0
 16 45  1  0
 16 46  1  0
 17 47  1  0
 17 48  1  0
 19 49  1  0
 20 50  1  0
 22 51  1  0
 25 52  1  0
 26 53  1  0
M  END
>  <smiles>  (26) 
O=C(NCC(=O)N1CCC[C@H]1CNCC1CC1)c1ccc2cc(Cl)ccc2n1

>  <score_type>  (26) 
oracle

>  <origin>  (26) 
autodockgpu

>  <m_score__min__energy>  (26) 
-8.1199999999999992

>  <m_primary>  (26) 
energy

>  <rmsd>  (26) 
4.0365005119517665

>  <m_score__min__rmsd>  (26) 
4.0365005119517665

>  <meeko>  (26) 
{"free_energy": -7.58, "intermolecular_energy": -9.96, "internal_energy": -2.49, "cluster_size": 44, "cluster_id": 1, "rank_in_cluster": 22}

>  <energy>  (26) 
-7.49

>  <cluster_rmsd>  (26) 
1.7

>  <cluster>  (26) 
1

$$$$

     RDKit          3D

 53 56  0  0  0  0  0  0  0  0999 V2000
  139.2890   73.8310  222.3230 O   0  0  0  0  0  0  0  0  0  0  0  0
  140.1720   72.9600  222.3470 C   0  0  0  0  0  0  0  0  0  0  0  0
  141.2210   73.0060  221.3670 N   0  0  0  0  0  0  0  0  0  0  0  0
  141.2850   74.0120  220.3670 C   0  0  0  0  0  0  0  0  0  0  0  0
  141.6680   75.3580  220.7200 C   0  0  0  0  0  0  0  0  0  0  0  0
  141.4070   75.6470  221.9710 O   0  0  0  0  0  0  0  0  0  0  0  0
  142.2570   76.3990  220.0080 N   0  0  0  0  0  0  0  0  0  0  0  0
  143.3050   76.3800  218.9490 C   0  0  0  0  0  0  0  0  0  0  0  0
  142.5980   77.1730  217.8630 C   0  0  0  0  0  0  0  0  0  0  0  0
  141.6090   78.0940  218.5770 C   0  0  0  0  0  0  0  0  0  0  0  0
  142.0060   77.8490  220.0220 C   0  0  1  0  0  0  0  0  0  0  0  0
  141.0980   78.3230  221.0530 C   0  0  0  0  0  0  0  0  0  0  0  0
  141.7200   78.3250  222.3400 N   0  0  0  0  0  0  0  0  0  0  0  0
  142.6140   79.3880  222.6260 C   0  0  0  0  0  0  0  0  0  0  0  0
  141.9530   80.4230  223.4930 C   0  0  0  0  0  0  0  0  0  0  0  0
  140.4710   80.5730  223.4710 C   0  0  0  0  0  0  0  0  0  0  0  0
  141.3130   81.5780  222.7610 C   0  0  0  0  0  0  0  0  0  0  0  0
  140.1600   71.8950  223.3520 C   0  0  0  0  0  0  0  0  0  0  0  0
  139.6550   70.6610  223.0060 C   0  0  0  0  0  0  0  0  0  0  0  0
  139.6640   69.6890  223.9960 C   0  0  0  0  0  0  0  0  0  0  0  0
  140.1550   69.9450  225.2730 C   0  0  0  0  0  0  0  0  0  0  0  0
  140.1680   68.9890  226.2660 C   0  0  0  0  0  0  0  0  0  0  0  0
  140.6770   69.3350  227.5080 C   0  0  0  0  0  0  0  0  0  0  0  0
  140.7170   68.1530  228.8150 Cl  0  0  0  0  0  0  0  0  0  0  0  0
  141.1680   70.5900  227.7930 C   0  0  0  0  0  0  0  0  0  0  0  0
  141.1470   71.5340  226.7900 C   0  0  0  0  0  0  0  0  0  0  0  0
  140.6420   71.1900  225.5550 C   0  0  0  0  0  0  0  0  0  0  0  0
  140.6300   72.1210  224.5950 N   0  0  0  0  0  0  0  0  0  0  0  0
  141.9490   72.2340  221.4390 H   0  0  0  0  0  0  0  0  0  0  0  0
  142.0062   73.6643  219.6127 H   0  0  0  0  0  0  0  0  0  0  0  0
  140.2368   74.1221  220.0521 H   0  0  0  0  0  0  0  0  0  0  0  0
  144.2292   76.8760  219.2805 H   0  0  0  0  0  0  0  0  0  0  0  0
  143.6394   75.3767  218.6465 H   0  0  0  0  0  0  0  0  0  0  0  0
  143.3257   77.7667  217.2904 H   0  0  0  0  0  0  0  0  0  0  0  0
  142.0835   76.5079  217.1539 H   0  0  0  0  0  0  0  0  0  0  0  0
  141.7511   79.1459  218.2885 H   0  0  0  0  0  0  0  0  0  0  0  0
  140.5506   77.8978  218.3504 H   0  0  0  0  0  0  0  0  0  0  0  0
  142.8736   78.4525  220.3272 H   0  0  0  0  0  0  0  0  0  0  0  0
  140.7822   79.3476  220.8073 H   0  0  0  0  0  0  0  0  0  0  0  0
  140.2333   77.6441  221.0893 H   0  0  0  0  0  0  0  0  0  0  0  0
  141.9300   77.4070  222.7460 H   0  0  0  0  0  0  0  0  0  0  0  0
  143.4944   78.9876  223.1500 H   0  0  0  0  0  0  0  0  0  0  0  0
  142.9140   79.8607  221.6792 H   0  0  0  0  0  0  0  0  0  0  0  0
  142.6877   80.2900  224.3008 H   0  0  0  0  0  0  0  0  0  0  0  0
  139.8576   79.8662  222.8930 H   0  0  0  0  0  0  0  0  0  0  0  0
  139.6883   80.6271  224.2420 H   0  0  0  0  0  0  0  0  0  0  0  0
  141.3255   81.6087  221.6615 H   0  0  0  0  0  0  0  0  0  0  0  0
  141.4135   82.6730  222.7909 H   0  0  0  0  0  0  0  0  0  0  0  0
  139.2651   70.4570  221.9979 H   0  0  0  0  0  0  0  0  0  0  0  0
  139.2719   68.6875  223.7651 H   0  0  0  0  0  0  0  0  0  0  0  0
  139.7836   67.9758  226.0773 H   0  0  0  0  0  0  0  0  0  0  0  0
  141.5645   70.8309  228.7904 H   0  0  0  0  0  0  0  0  0  0  0  0
  141.5285   72.5494  226.9727 H   0  0  0  0  0  0  0  0  0  0  0  0
  1  2  2  0
  2  3  1  0
  3  4  1  0
  4  5  1  0
  5  6  2  0
  5  7  1  0
  7  8  1  0
  8  9  1  0
  9 10  1  0
 10 11  1  0
 11 12  1  0
 12 13  1  0
 13 14  1  0
 14 15  1  0
 15 16  1  0
 16 17  1  0
  2 18  1  0
 18 19  2  0
 19 20  1  0
 20 21  2  0
 21 22  1  0
 22 23  2  0
 23 24  1  0
 23 25  1  0
 25 26  2  0
 26 27  1  0
 27 28  2  0
 11  7  1  0
 17 15  1  0
 28 18  1  0
 27 21  1  0
  3 29  1  0
  4 30  1  0
  4 31  1  0
  8 32  1  0
  8 33  1  0
  9 34  1  0
  9 35  1  0
 10 36  1  0
 10 37  1  0
 11 38  1  1
 12 39  1  0
 12 40  1  0
 13 41  1  0
 14 42  1  0
 14 43  1  0
 15 44  1  0
 16 45  1  0
 16 46  1  0
 17 47  1  0
 17 48  1  0
 19 49  1  0
 20 50  1  0
 22 51  1  0
 25 52  1  0
 26 53  1  0
M  END
>  <smiles>  (27) 
O=C(NCC(=O)N1CCC[C@H]1CNCC1CC1)c1ccc2cc(Cl)ccc2n1

>  <score_type>  (27) 
oracle

>  <origin>  (27) 
autodockgpu

>  <m_score__min__energy>  (27) 
-8.1199999999999992

>  <m_primary>  (27) 
energy

>  <rmsd>  (27) 
2.48900136033241

>  <m_score__min__rmsd>  (27) 
2.48900136033241

>  <meeko>  (27) 
{"free_energy": -8.08, "intermolecular_energy": -10.46, "internal_energy": -1.81, "cluster_size": 44, "cluster_id": 1, "rank_in_cluster": 2}

>  <energy>  (27) 
-7.48

>  <cluster_rmsd>  (27) 
1.29

>  <cluster>  (27) 
1

$$$$

     RDKit          3D

 53 56  0  0  0  0  0  0  0  0999 V2000
  140.5900   72.2090  220.7780 O   0  0  0  0  0  0  0  0  0  0  0  0
  140.1910   72.5320  221.9080 C   0  0  0  0  0  0  0  0  0  0  0  0
  139.7810   73.8890  222.1370 N   0  0  0  0  0  0  0  0  0  0  0  0
  139.8160   74.8780  221.1190 C   0  0  0  0  0  0  0  0  0  0  0  0
  140.8660   75.8680  221.1100 C   0  0  0  0  0  0  0  0  0  0  0  0
  140.6830   76.8070  222.0050 O   0  0  0  0  0  0  0  0  0  0  0  0
  142.0220   76.0230  220.3530 N   0  0  0  0  0  0  0  0  0  0  0  0
  143.0940   75.0470  220.0060 C   0  0  0  0  0  0  0  0  0  0  0  0
  143.1060   75.1940  218.4930 C   0  0  0  0  0  0  0  0  0  0  0  0
  142.6060   76.6070  218.1950 C   0  0  0  0  0  0  0  0  0  0  0  0
  142.5440   77.1750  219.6010 C   0  0  1  0  0  0  0  0  0  0  0  0
  141.8270   78.4270  219.7840 C   0  0  0  0  0  0  0  0  0  0  0  0
  141.9090   78.8850  221.1350 N   0  0  0  0  0  0  0  0  0  0  0  0
  142.1570   80.2660  221.3370 C   0  0  0  0  0  0  0  0  0  0  0  0
  142.5960   80.5290  222.7510 C   0  0  0  0  0  0  0  0  0  0  0  0
  142.1600   79.6180  223.8450 C   0  0  0  0  0  0  0  0  0  0  0  0
  141.5080   80.9510  223.7070 C   0  0  0  0  0  0  0  0  0  0  0  0
  140.1350   71.5570  223.0000 C   0  0  0  0  0  0  0  0  0  0  0  0
  139.5860   70.3180  222.7560 C   0  0  0  0  0  0  0  0  0  0  0  0
  139.5540   69.4350  223.8250 C   0  0  0  0  0  0  0  0  0  0  0  0
  140.0500   69.7810  225.0790 C   0  0  0  0  0  0  0  0  0  0  0  0
  140.0230   68.9130  226.1500 C   0  0  0  0  0  0  0  0  0  0  0  0
  140.5400   69.3440  227.3620 C   0  0  0  0  0  0  0  0  0  0  0  0
  140.5300   68.2770  228.7650 Cl  0  0  0  0  0  0  0  0  0  0  0  0
  141.0760   70.6000  227.5420 C   0  0  0  0  0  0  0  0  0  0  0  0
  141.0960   71.4550  226.4620 C   0  0  0  0  0  0  0  0  0  0  0  0
  140.5820   71.0260  225.2580 C   0  0  0  0  0  0  0  0  0  0  0  0
  140.6090   71.8720  224.2220 N   0  0  0  0  0  0  0  0  0  0  0  0
  139.4480   74.1050  223.1240 H   0  0  0  0  0  0  0  0  0  0  0  0
  139.8752   74.3438  220.1593 H   0  0  0  0  0  0  0  0  0  0  0  0
  138.9105   75.4719  221.3125 H   0  0  0  0  0  0  0  0  0  0  0  0
  144.0603   75.3268  220.4509 H   0  0  0  0  0  0  0  0  0  0  0  0
  142.9238   74.0232  220.3704 H   0  0  0  0  0  0  0  0  0  0  0  0
  144.1270   75.0617  218.1056 H   0  0  0  0  0  0  0  0  0  0  0  0
  142.4703   74.4355  218.0127 H   0  0  0  0  0  0  0  0  0  0  0  0
  143.3127   77.1637  217.5620 H   0  0  0  0  0  0  0  0  0  0  0  0
  141.6585   76.6522  217.6380 H   0  0  0  0  0  0  0  0  0  0  0  0
  143.5226   77.5343  219.9521 H   0  0  0  0  0  0  0  0  0  0  0  0
  142.2632   79.1889  219.1212 H   0  0  0  0  0  0  0  0  0  0  0  0
  140.7678   78.2567  219.5411 H   0  0  0  0  0  0  0  0  0  0  0  0
  142.3050   78.2290  221.8160 H   0  0  0  0  0  0  0  0  0  0  0  0
  142.9479   80.5950  220.6469 H   0  0  0  0  0  0  0  0  0  0  0  0
  141.2272   80.8224  221.1475 H   0  0  0  0  0  0  0  0  0  0  0  0
  143.5766   80.9097  222.4295 H   0  0  0  0  0  0  0  0  0  0  0  0
  141.5956   78.7048  223.6050 H   0  0  0  0  0  0  0  0  0  0  0  0
  142.6738   79.0898  224.6617 H   0  0  0  0  0  0  0  0  0  0  0  0
  140.4665   81.0220  223.3603 H   0  0  0  0  0  0  0  0  0  0  0  0
  141.3436   81.8120  224.3715 H   0  0  0  0  0  0  0  0  0  0  0  0
  139.1936   70.0432  221.7658 H   0  0  0  0  0  0  0  0  0  0  0  0
  139.1246   68.4330  223.6779 H   0  0  0  0  0  0  0  0  0  0  0  0
  139.6012   67.9025  226.0452 H   0  0  0  0  0  0  0  0  0  0  0  0
  141.4759   70.9109  228.5184 H   0  0  0  0  0  0  0  0  0  0  0  0
  141.5167   72.4667  226.5597 H   0  0  0  0  0  0  0  0  0  0  0  0
  1  2  2  0
  2  3  1  0
  3  4  1  0
  4  5  1  0
  5  6  2  0
  5  7  1  0
  7  8  1  0
  8  9  1  0
  9 10  1  0
 10 11  1  0
 11 12  1  0
 12 13  1  0
 13 14  1  0
 14 15  1  0
 15 16  1  0
 16 17  1  0
  2 18  1  0
 18 19  2  0
 19 20  1  0
 20 21  2  0
 21 22  1  0
 22 23  2  0
 23 24  1  0
 23 25  1  0
 25 26  2  0
 26 27  1  0
 27 28  2  0
 11  7  1  0
 17 15  1  0
 28 18  1  0
 27 21  1  0
  3 29  1  0
  4 30  1  0
  4 31  1  0
  8 32  1  0
  8 33  1  0
  9 34  1  0
  9 35  1  0
 10 36  1  0
 10 37  1  0
 11 38  1  1
 12 39  1  0
 12 40  1  0
 13 41  1  0
 14 42  1  0
 14 43  1  0
 15 44  1  0
 16 45  1  0
 16 46  1  0
 17 47  1  0
 17 48  1  0
 19 49  1  0
 20 50  1  0
 22 51  1  0
 25 52  1  0
 26 53  1  0
M  END
>  <smiles>  (28) 
O=C(NCC(=O)N1CCC[C@H]1CNCC1CC1)c1ccc2cc(Cl)ccc2n1

>  <score_type>  (28) 
oracle

>  <origin>  (28) 
autodockgpu

>  <m_score__min__energy>  (28) 
-8.1199999999999992

>  <m_primary>  (28) 
energy

>  <rmsd>  (28) 
2.450255626448933

>  <m_score__min__rmsd>  (28) 
2.450255626448933

>  <meeko>  (28) 
{"free_energy": -8.12, "intermolecular_energy": -10.51, "internal_energy": -2.02, "cluster_size": 44, "cluster_id": 1, "rank_in_cluster": 1}

>  <energy>  (28) 
-7.48

>  <cluster_rmsd>  (28) 
1.2

>  <cluster>  (28) 
1

$$$$

     RDKit          3D

 53 56  0  0  0  0  0  0  0  0999 V2000
  139.5120   72.2330  220.8070 O   0  0  0  0  0  0  0  0  0  0  0  0
  139.5750   72.5790  221.9970 C   0  0  0  0  0  0  0  0  0  0  0  0
  139.4860   73.9750  222.3190 N   0  0  0  0  0  0  0  0  0  0  0  0
  139.3290   74.9780  221.3260 C   0  0  0  0  0  0  0  0  0  0  0  0
  140.2650   75.0630  220.2300 C   0  0  0  0  0  0  0  0  0  0  0  0
  139.7540   74.6530  219.0960 O   0  0  0  0  0  0  0  0  0  0  0  0
  141.5850   75.4910  220.1370 N   0  0  0  0  0  0  0  0  0  0  0  0
  142.8140   74.7650  219.7090 C   0  0  0  0  0  0  0  0  0  0  0  0
  143.3250   75.7160  218.6390 C   0  0  0  0  0  0  0  0  0  0  0  0
  142.8000   77.1030  219.0120 C   0  0  0  0  0  0  0  0  0  0  0  0
  142.1980   76.8080  220.3740 C   0  0  1  0  0  0  0  0  0  0  0  0
  141.3240   77.8170  220.9490 C   0  0  0  0  0  0  0  0  0  0  0  0
  141.2220   77.6750  222.3680 N   0  0  0  0  0  0  0  0  0  0  0  0
  140.8940   78.8340  223.1150 C   0  0  0  0  0  0  0  0  0  0  0  0
  141.7240   80.0070  222.6730 C   0  0  0  0  0  0  0  0  0  0  0  0
  143.1510   80.1030  223.0850 C   0  0  0  0  0  0  0  0  0  0  0  0
  142.1410   80.9620  223.7640 C   0  0  0  0  0  0  0  0  0  0  0  0
  139.7390   71.5920  223.0660 C   0  0  0  0  0  0  0  0  0  0  0  0
  139.3930   70.2820  222.8200 C   0  0  0  0  0  0  0  0  0  0  0  0
  139.5640   69.3900  223.8680 C   0  0  0  0  0  0  0  0  0  0  0  0
  140.0600   69.7940  225.1040 C   0  0  0  0  0  0  0  0  0  0  0  0
  140.2340   68.9170  226.1540 C   0  0  0  0  0  0  0  0  0  0  0  0
  140.7340   69.4110  227.3490 C   0  0  0  0  0  0  0  0  0  0  0  0
  140.9760   68.3350  228.7250 Cl  0  0  0  0  0  0  0  0  0  0  0  0
  141.0620   70.7350  227.5330 C   0  0  0  0  0  0  0  0  0  0  0  0
  140.8820   71.5980  226.4740 C   0  0  0  0  0  0  0  0  0  0  0  0
  140.3860   71.1080  225.2870 C   0  0  0  0  0  0  0  0  0  0  0  0
  140.2170   71.9620  224.2710 N   0  0  0  0  0  0  0  0  0  0  0  0
  139.5450   74.2110  223.3550 H   0  0  0  0  0  0  0  0  0  0  0  0
  138.3331   74.8320  220.8822 H   0  0  0  0  0  0  0  0  0  0  0  0
  139.5043   75.9117  221.8805 H   0  0  0  0  0  0  0  0  0  0  0  0
  143.5322   74.6564  220.5351 H   0  0  0  0  0  0  0  0  0  0  0  0
  142.6466   73.7324  219.3687 H   0  0  0  0  0  0  0  0  0  0  0  0
  144.4249   75.7165  218.6235 H   0  0  0  0  0  0  0  0  0  0  0  0
  142.9817   75.4141  217.6385 H   0  0  0  0  0  0  0  0  0  0  0  0
  143.6125   77.8416  219.0775 H   0  0  0  0  0  0  0  0  0  0  0  0
  142.1008   77.5415  218.2848 H   0  0  0  0  0  0  0  0  0  0  0  0
  142.9503   76.8156  221.1765 H   0  0  0  0  0  0  0  0  0  0  0  0
  141.7280   78.8136  220.7177 H   0  0  0  0  0  0  0  0  0  0  0  0
  140.3204   77.6912  220.5166 H   0  0  0  0  0  0  0  0  0  0  0  0
  141.8520   76.9930  222.8040 H   0  0  0  0  0  0  0  0  0  0  0  0
  139.8297   79.0692  222.9670 H   0  0  0  0  0  0  0  0  0  0  0  0
  141.0987   78.6379  224.1779 H   0  0  0  0  0  0  0  0  0  0  0  0
  141.2113   80.0691  221.7018 H   0  0  0  0  0  0  0  0  0  0  0  0
  143.6199   79.2721  223.6325 H   0  0  0  0  0  0  0  0  0  0  0  0
  144.0967   80.2930  222.5563 H   0  0  0  0  0  0  0  0  0  0  0  0
  141.8602   80.7622  224.8086 H   0  0  0  0  0  0  0  0  0  0  0  0
  142.0274   82.0416  223.9419 H   0  0  0  0  0  0  0  0  0  0  0  0
  139.0016   69.9601  221.8437 H   0  0  0  0  0  0  0  0  0  0  0  0
  139.3000   68.3327  223.7180 H   0  0  0  0  0  0  0  0  0  0  0  0
  139.9822   67.8517  226.0460 H   0  0  0  0  0  0  0  0  0  0  0  0
  141.4557   71.0931  228.4957 H   0  0  0  0  0  0  0  0  0  0  0  0
  141.1314   72.6645  226.5757 H   0  0  0  0  0  0  0  0  0  0  0  0
  1  2  2  0
  2  3  1  0
  3  4  1  0
  4  5  1  0
  5  6  2  0
  5  7  1  0
  7  8  1  0
  8  9  1  0
  9 10  1  0
 10 11  1  0
 11 12  1  0
 12 13  1  0
 13 14  1  0
 14 15  1  0
 15 16  1  0
 16 17  1  0
  2 18  1  0
 18 19  2  0
 19 20  1  0
 20 21  2  0
 21 22  1  0
 22 23  2  0
 23 24  1  0
 23 25  1  0
 25 26  2  0
 26 27  1  0
 27 28  2  0
 11  7  1  0
 17 15  1  0
 28 18  1  0
 27 21  1  0
  3 29  1  0
  4 30  1  0
  4 31  1  0
  8 32  1  0
  8 33  1  0
  9 34  1  0
  9 35  1  0
 10 36  1  0
 10 37  1  0
 11 38  1  1
 12 39  1  0
 12 40  1  0
 13 41  1  0
 14 42  1  0
 14 43  1  0
 15 44  1  0
 16 45  1  0
 16 46  1  0
 17 47  1  0
 17 48  1  0
 19 49  1  0
 20 50  1  0
 22 51  1  0
 25 52  1  0
 26 53  1  0
M  END
>  <smiles>  (29) 
O=C(NCC(=O)N1CCC[C@H]1CNCC1CC1)c1ccc2cc(Cl)ccc2n1

>  <score_type>  (29) 
oracle

>  <origin>  (29) 
autodockgpu

>  <m_score__min__energy>  (29) 
-8.1199999999999992

>  <m_primary>  (29) 
energy

>  <rmsd>  (29) 
2.4150384683538006

>  <m_score__min__rmsd>  (29) 
2.4150384683538006

>  <meeko>  (29) 
{"free_energy": -8.03, "intermolecular_energy": -10.42, "internal_energy": -1.64, "cluster_size": 44, "cluster_id": 1, "rank_in_cluster": 4}

>  <energy>  (29) 
-7.47

>  <cluster_rmsd>  (29) 
1.78

>  <cluster>  (29) 
1

$$$$

     RDKit          3D

 53 56  0  0  0  0  0  0  0  0999 V2000
  139.8280   74.0680  222.2420 O   0  0  0  0  0  0  0  0  0  0  0  0
  139.7090   72.8560  222.0040 C   0  0  0  0  0  0  0  0  0  0  0  0
  139.4710   72.4350  220.6520 N   0  0  0  0  0  0  0  0  0  0  0  0
  139.3630   73.3530  219.5750 C   0  0  0  0  0  0  0  0  0  0  0  0
  140.4890   74.1840  219.2190 C   0  0  0  0  0  0  0  0  0  0  0  0
  140.3130   74.8130  218.0830 O   0  0  0  0  0  0  0  0  0  0  0  0
  141.7080   74.4510  219.8340 N   0  0  0  0  0  0  0  0  0  0  0  0
  142.9570   73.6410  219.9070 C   0  0  0  0  0  0  0  0  0  0  0  0
  143.9620   74.6580  219.3940 C   0  0  0  0  0  0  0  0  0  0  0  0
  143.3860   76.0350  219.7230 C   0  0  0  0  0  0  0  0  0  0  0  0
  142.1880   75.6340  220.5640 C   0  0  1  0  0  0  0  0  0  0  0  0
  141.1910   76.6570  220.8360 C   0  0  0  0  0  0  0  0  0  0  0  0
  141.7770   77.8130  221.4390 N   0  0  0  0  0  0  0  0  0  0  0  0
  141.0090   79.0050  221.4380 C   0  0  0  0  0  0  0  0  0  0  0  0
  141.5130   79.9670  222.4780 C   0  0  0  0  0  0  0  0  0  0  0  0
  142.9010   79.8350  222.9990 C   0  0  0  0  0  0  0  0  0  0  0  0
  141.7620   79.3800  223.8460 C   0  0  0  0  0  0  0  0  0  0  0  0
  139.8080   71.8600  223.0730 C   0  0  0  0  0  0  0  0  0  0  0  0
  139.3540   70.5820  222.8340 C   0  0  0  0  0  0  0  0  0  0  0  0
  139.4680   69.6790  223.8800 C   0  0  0  0  0  0  0  0  0  0  0  0
  140.0120   70.0420  225.1090 C   0  0  0  0  0  0  0  0  0  0  0  0
  140.1300   69.1550  226.1570 C   0  0  0  0  0  0  0  0  0  0  0  0
  140.6840   69.6070  227.3450 C   0  0  0  0  0  0  0  0  0  0  0  0
  140.8570   68.5160  228.7190 Cl  0  0  0  0  0  0  0  0  0  0  0  0
  141.1190   70.9010  227.5220 C   0  0  0  0  0  0  0  0  0  0  0  0
  140.9950   71.7760  226.4650 C   0  0  0  0  0  0  0  0  0  0  0  0
  140.4440   71.3260  225.2850 C   0  0  0  0  0  0  0  0  0  0  0  0
  140.3310   72.1910  224.2710 N   0  0  0  0  0  0  0  0  0  0  0  0
  139.3800   71.3840  220.5100 H   0  0  0  0  0  0  0  0  0  0  0  0
  139.1070   72.7652  218.6812 H   0  0  0  0  0  0  0  0  0  0  0  0
  138.6175   74.0777  219.9342 H   0  0  0  0  0  0  0  0  0  0  0  0
  143.1817   73.3293  220.9377 H   0  0  0  0  0  0  0  0  0  0  0  0
  142.9287   72.6947  219.3468 H   0  0  0  0  0  0  0  0  0  0  0  0
  144.9317   74.5213  219.8951 H   0  0  0  0  0  0  0  0  0  0  0  0
  144.1302   74.5432  218.3130 H   0  0  0  0  0  0  0  0  0  0  0  0
  144.0981   76.6479  220.2952 H   0  0  0  0  0  0  0  0  0  0  0  0
  143.1465   76.6552  218.8467 H   0  0  0  0  0  0  0  0  0  0  0  0
  142.4582   75.4358  221.6117 H   0  0  0  0  0  0  0  0  0  0  0  0
  140.7132   76.9509  219.8898 H   0  0  0  0  0  0  0  0  0  0  0  0
  140.4514   76.2405  221.5356 H   0  0  0  0  0  0  0  0  0  0  0  0
  142.7950   77.9060  221.3540 H   0  0  0  0  0  0  0  0  0  0  0  0
  141.0776   79.4772  220.4469 H   0  0  0  0  0  0  0  0  0  0  0  0
  139.9642   78.7509  221.6702 H   0  0  0  0  0  0  0  0  0  0  0  0
  140.9409   80.8055  222.0542 H   0  0  0  0  0  0  0  0  0  0  0  0
  143.5840   79.0950  222.5563 H   0  0  0  0  0  0  0  0  0  0  0  0
  143.7415   80.5298  223.1429 H   0  0  0  0  0  0  0  0  0  0  0  0
  141.6009   78.3063  224.0230 H   0  0  0  0  0  0  0  0  0  0  0  0
  141.4108   79.5987  224.8652 H   0  0  0  0  0  0  0  0  0  0  0  0
  138.9234   70.2927  221.8640 H   0  0  0  0  0  0  0  0  0  0  0  0
  139.1186   68.6462  223.7346 H   0  0  0  0  0  0  0  0  0  0  0  0
  139.7927   68.1131  226.0535 H   0  0  0  0  0  0  0  0  0  0  0  0
  141.5527   71.2268  228.4790 H   0  0  0  0  0  0  0  0  0  0  0  0
  141.3311   72.8189  226.5617 H   0  0  0  0  0  0  0  0  0  0  0  0
  1  2  2  0
  2  3  1  0
  3  4  1  0
  4  5  1  0
  5  6  2  0
  5  7  1  0
  7  8  1  0
  8  9  1  0
  9 10  1  0
 10 11  1  0
 11 12  1  0
 12 13  1  0
 13 14  1  0
 14 15  1  0
 15 16  1  0
 16 17  1  0
  2 18  1  0
 18 19  2  0
 19 20  1  0
 20 21  2  0
 21 22  1  0
 22 23  2  0
 23 24  1  0
 23 25  1  0
 25 26  2  0
 26 27  1  0
 27 28  2  0
 11  7  1  0
 17 15  1  0
 28 18  1  0
 27 21  1  0
  3 29  1  0
  4 30  1  0
  4 31  1  0
  8 32  1  0
  8 33  1  0
  9 34  1  0
  9 35  1  0
 10 36  1  0
 10 37  1  0
 11 38  1  1
 12 39  1  0
 12 40  1  0
 13 41  1  0
 14 42  1  0
 14 43  1  0
 15 44  1  0
 16 45  1  0
 16 46  1  0
 17 47  1  0
 17 48  1  0
 19 49  1  0
 20 50  1  0
 22 51  1  0
 25 52  1  0
 26 53  1  0
M  END
>  <smiles>  (30) 
O=C(NCC(=O)N1CCC[C@H]1CNCC1CC1)c1ccc2cc(Cl)ccc2n1

>  <score_type>  (30) 
oracle

>  <origin>  (30) 
autodockgpu

>  <m_score__min__energy>  (30) 
-8.1199999999999992

>  <m_primary>  (30) 
energy

>  <rmsd>  (30) 
2.7911020195021674

>  <m_score__min__rmsd>  (30) 
2.7911020195021674

>  <meeko>  (30) 
{"free_energy": -7.72, "intermolecular_energy": -10.1, "internal_energy": -1.44, "cluster_size": 44, "cluster_id": 1, "rank_in_cluster": 14}

>  <energy>  (30) 
-7.37

>  <cluster_rmsd>  (30) 
1.49

>  <cluster>  (30) 
1

$$$$

     RDKit          3D

 53 56  0  0  0  0  0  0  0  0999 V2000
  138.4160   71.5850  221.2380 O   0  0  0  0  0  0  0  0  0  0  0  0
  138.9520   71.9820  222.2850 C   0  0  0  0  0  0  0  0  0  0  0  0
  139.2800   73.3740  222.4130 N   0  0  0  0  0  0  0  0  0  0  0  0
  139.0160   74.3170  221.3840 C   0  0  0  0  0  0  0  0  0  0  0  0
  139.3260   75.7120  221.5860 C   0  0  0  0  0  0  0  0  0  0  0  0
  140.3910   75.8910  222.3280 O   0  0  0  0  0  0  0  0  0  0  0  0
  138.7300   76.8920  221.1530 N   0  0  0  0  0  0  0  0  0  0  0  0
  137.2980   77.3010  221.1170 C   0  0  0  0  0  0  0  0  0  0  0  0
  137.3810   78.6200  221.8680 C   0  0  0  0  0  0  0  0  0  0  0  0
  138.8000   79.1460  221.6560 C   0  0  0  0  0  0  0  0  0  0  0  0
  139.3130   78.1430  220.6390 C   0  0  1  0  0  0  0  0  0  0  0  0
  140.7450   78.1170  220.3900 C   0  0  0  0  0  0  0  0  0  0  0  0
  141.4900   78.1980  221.6070 N   0  0  0  0  0  0  0  0  0  0  0  0
  142.1620   79.4170  221.8760 C   0  0  0  0  0  0  0  0  0  0  0  0
  141.9600   79.8340  223.3060 C   0  0  0  0  0  0  0  0  0  0  0  0
  141.4930   81.2130  223.6170 C   0  0  0  0  0  0  0  0  0  0  0  0
  142.9270   80.8680  223.8290 C   0  0  0  0  0  0  0  0  0  0  0  0
  139.2520   71.0580  223.3810 C   0  0  0  0  0  0  0  0  0  0  0  0
  138.9180   69.7300  223.2410 C   0  0  0  0  0  0  0  0  0  0  0  0
  139.2210   68.8990  224.3090 C   0  0  0  0  0  0  0  0  0  0  0  0
  139.8300   69.3800  225.4650 C   0  0  0  0  0  0  0  0  0  0  0  0
  140.1350   68.5650  226.5340 C   0  0  0  0  0  0  0  0  0  0  0  0
  140.7410   69.1330  227.6440 C   0  0  0  0  0  0  0  0  0  0  0  0
  141.1520   68.1390  229.0410 Cl  0  0  0  0  0  0  0  0  0  0  0  0
  141.0500   70.4730  227.7240 C   0  0  0  0  0  0  0  0  0  0  0  0
  140.7390   71.2730  226.6470 C   0  0  0  0  0  0  0  0  0  0  0  0
  140.1360   70.7090  225.5440 C   0  0  0  0  0  0  0  0  0  0  0  0
  139.8410   71.5030  224.5090 N   0  0  0  0  0  0  0  0  0  0  0  0
  139.7350   73.6540  223.3330 H   0  0  0  0  0  0  0  0  0  0  0  0
  139.5842   73.9903  220.5006 H   0  0  0  0  0  0  0  0  0  0  0  0
  137.9185   74.3102  221.3107 H   0  0  0  0  0  0  0  0  0  0  0  0
  136.9389   77.4399  220.0866 H   0  0  0  0  0  0  0  0  0  0  0  0
  136.5963   76.5688  221.5430 H   0  0  0  0  0  0  0  0  0  0  0  0
  136.6464   79.3336  221.4666 H   0  0  0  0  0  0  0  0  0  0  0  0
  137.1600   78.4858  222.9372 H   0  0  0  0  0  0  0  0  0  0  0  0
  138.7985   80.1695  221.2529 H   0  0  0  0  0  0  0  0  0  0  0  0
  139.4041   79.2222  222.5721 H   0  0  0  0  0  0  0  0  0  0  0  0
  139.0087   78.3931  219.6119 H   0  0  0  0  0  0  0  0  0  0  0  0
  141.0014   77.1790  219.8758 H   0  0  0  0  0  0  0  0  0  0  0  0
  141.0031   78.9874  219.7689 H   0  0  0  0  0  0  0  0  0  0  0  0
  141.9350   77.3320  221.9280 H   0  0  0  0  0  0  0  0  0  0  0  0
  143.2376   79.2850  221.6874 H   0  0  0  0  0  0  0  0  0  0  0  0
  141.7511   80.1983  221.2197 H   0  0  0  0  0  0  0  0  0  0  0  0
  141.6138   78.8331  223.6030 H   0  0  0  0  0  0  0  0  0  0  0  0
  141.2082   81.8920  222.7998 H   0  0  0  0  0  0  0  0  0  0  0  0
  140.6983   81.6353  224.2495 H   0  0  0  0  0  0  0  0  0  0  0  0
  143.6986   81.2865  223.1660 H   0  0  0  0  0  0  0  0  0  0  0  0
  143.6266   80.9248  224.6759 H   0  0  0  0  0  0  0  0  0  0  0  0
  138.4358   69.3478  222.3292 H   0  0  0  0  0  0  0  0  0  0  0  0
  138.9732   67.8294  224.2410 H   0  0  0  0  0  0  0  0  0  0  0  0
  139.9032   67.4900  226.5070 H   0  0  0  0  0  0  0  0  0  0  0  0
  141.5305   70.8913  228.6207 H   0  0  0  0  0  0  0  0  0  0  0  0
  140.9691   72.3485  226.6671 H   0  0  0  0  0  0  0  0  0  0  0  0
  1  2  2  0
  2  3  1  0
  3  4  1  0
  4  5  1  0
  5  6  2  0
  5  7  1  0
  7  8  1  0
  8  9  1  0
  9 10  1  0
 10 11  1  0
 11 12  1  0
 12 13  1  0
 13 14  1  0
 14 15  1  0
 15 16  1  0
 16 17  1  0
  2 18  1  0
 18 19  2  0
 19 20  1  0
 20 21  2  0
 21 22  1  0
 22 23  2  0
 23 24  1  0
 23 25  1  0
 25 26  2  0
 26 27  1  0
 27 28  2  0
 11  7  1  0
 17 15  1  0
 28 18  1  0
 27 21  1  0
  3 29  1  0
  4 30  1  0
  4 31  1  0
  8 32  1  0
  8 33  1  0
  9 34  1  0
  9 35  1  0
 10 36  1  0
 10 37  1  0
 11 38  1  6
 12 39  1  0
 12 40  1  0
 13 41  1  0
 14 42  1  0
 14 43  1  0
 15 44  1  0
 16 45  1  0
 16 46  1  0
 17 47  1  0
 17 48  1  0
 19 49  1  0
 20 50  1  0
 22 51  1  0
 25 52  1  0
 26 53  1  0
M  END
>  <smiles>  (31) 
O=C(NCC(=O)N1CCC[C@H]1CNCC1CC1)c1ccc2cc(Cl)ccc2n1

>  <score_type>  (31) 
oracle

>  <origin>  (31) 
autodockgpu

>  <m_score__min__energy>  (31) 
-8.1199999999999992

>  <m_primary>  (31) 
energy

>  <rmsd>  (31) 
2.6607111573611157

>  <m_score__min__rmsd>  (31) 
2.6607111573611157

>  <meeko>  (31) 
{"free_energy": -7.59, "intermolecular_energy": -9.98, "internal_energy": -2.39, "cluster_size": 44, "cluster_id": 1, "rank_in_cluster": 20}

>  <energy>  (31) 
-7.33

>  <cluster_rmsd>  (31) 
1.21

>  <cluster>  (31) 
1

$$$$

     RDKit          3D

 53 56  0  0  0  0  0  0  0  0999 V2000
  140.6870   72.3680  220.9260 O   0  0  0  0  0  0  0  0  0  0  0  0
  140.0760   72.5700  221.9870 C   0  0  0  0  0  0  0  0  0  0  0  0
  139.3660   73.8070  222.1550 N   0  0  0  0  0  0  0  0  0  0  0  0
  139.3380   74.8110  221.1520 C   0  0  0  0  0  0  0  0  0  0  0  0
  139.7620   76.1550  221.4630 C   0  0  0  0  0  0  0  0  0  0  0  0
  140.9160   76.1910  222.0820 O   0  0  0  0  0  0  0  0  0  0  0  0
  139.2000   77.4080  221.2370 N   0  0  0  0  0  0  0  0  0  0  0  0
  137.7760   77.8190  221.0800 C   0  0  0  0  0  0  0  0  0  0  0  0
  137.7020   78.9190  222.1270 C   0  0  0  0  0  0  0  0  0  0  0  0
  139.1190   79.4740  222.2680 C   0  0  0  0  0  0  0  0  0  0  0  0
  139.8110   78.7420  221.1330 C   0  0  1  0  0  0  0  0  0  0  0  0
  141.2640   78.7720  221.1090 C   0  0  0  0  0  0  0  0  0  0  0  0
  141.8130   78.6900  222.4260 N   0  0  0  0  0  0  0  0  0  0  0  0
  142.9530   79.4850  222.7050 C   0  0  0  0  0  0  0  0  0  0  0  0
  142.5670   80.7280  223.4590 C   0  0  0  0  0  0  0  0  0  0  0  0
  141.1540   80.9280  223.8850 C   0  0  0  0  0  0  0  0  0  0  0  0
  141.6760   81.6930  222.7170 C   0  0  0  0  0  0  0  0  0  0  0  0
  140.0700   71.5730  223.0600 C   0  0  0  0  0  0  0  0  0  0  0  0
  139.5740   70.3160  222.7970 C   0  0  0  0  0  0  0  0  0  0  0  0
  139.5880   69.4120  223.8480 C   0  0  0  0  0  0  0  0  0  0  0  0
  140.0780   69.7550  225.1060 C   0  0  0  0  0  0  0  0  0  0  0  0
  140.0960   68.8670  226.1600 C   0  0  0  0  0  0  0  0  0  0  0  0
  140.6020   69.2970  227.3760 C   0  0  0  0  0  0  0  0  0  0  0  0
  140.6490   68.2040  228.7590 Cl  0  0  0  0  0  0  0  0  0  0  0  0
  141.0850   70.5710  227.5770 C   0  0  0  0  0  0  0  0  0  0  0  0
  141.0590   71.4470  226.5140 C   0  0  0  0  0  0  0  0  0  0  0  0
  140.5560   71.0190  225.3050 C   0  0  0  0  0  0  0  0  0  0  0  0
  140.5390   71.8840  224.2860 N   0  0  0  0  0  0  0  0  0  0  0  0
  138.8610   73.9220  223.0840 H   0  0  0  0  0  0  0  0  0  0  0  0
  139.9796   74.4577  220.3313 H   0  0  0  0  0  0  0  0  0  0  0  0
  138.2647   74.9274  220.9413 H   0  0  0  0  0  0  0  0  0  0  0  0
  137.5708   78.2025  220.0697 H   0  0  0  0  0  0  0  0  0  0  0  0
  137.0431   77.0086  221.2067 H   0  0  0  0  0  0  0  0  0  0  0  0
  137.0136   79.7116  221.7985 H   0  0  0  0  0  0  0  0  0  0  0  0
  137.3268   78.5329  223.0863 H   0  0  0  0  0  0  0  0  0  0  0  0
  139.1452   80.5643  222.1249 H   0  0  0  0  0  0  0  0  0  0  0  0
  139.5754   79.3253  223.2578 H   0  0  0  0  0  0  0  0  0  0  0  0
  139.6555   79.2317  220.1604 H   0  0  0  0  0  0  0  0  0  0  0  0
  141.6291   77.9203  220.5162 H   0  0  0  0  0  0  0  0  0  0  0  0
  141.5815   79.7258  220.6623 H   0  0  0  0  0  0  0  0  0  0  0  0
  141.7450   77.7790  222.8930 H   0  0  0  0  0  0  0  0  0  0  0  0
  143.6604   78.9005  223.3116 H   0  0  0  0  0  0  0  0  0  0  0  0
  143.4177   79.7807  221.7529 H   0  0  0  0  0  0  0  0  0  0  0  0
  143.5297   80.7673  223.9897 H   0  0  0  0  0  0  0  0  0  0  0  0
  140.4165   80.1268  223.7296 H   0  0  0  0  0  0  0  0  0  0  0  0
  140.6631   81.2009  224.8308 H   0  0  0  0  0  0  0  0  0  0  0  0
  141.3288   81.4531  221.7012 H   0  0  0  0  0  0  0  0  0  0  0  0
  141.7343   82.7570  222.4439 H   0  0  0  0  0  0  0  0  0  0  0  0
  139.1866   70.0430  221.8043 H   0  0  0  0  0  0  0  0  0  0  0  0
  139.2013   68.3954  223.6839 H   0  0  0  0  0  0  0  0  0  0  0  0
  139.7176   67.8413  226.0386 H   0  0  0  0  0  0  0  0  0  0  0  0
  141.4795   70.8797  228.5563 H   0  0  0  0  0  0  0  0  0  0  0  0
  141.4348   72.4744  226.6291 H   0  0  0  0  0  0  0  0  0  0  0  0
  1  2  2  0
  2  3  1  0
  3  4  1  0
  4  5  1  0
  5  6  2  0
  5  7  1  0
  7  8  1  0
  8  9  1  0
  9 10  1  0
 10 11  1  0
 11 12  1  0
 12 13  1  0
 13 14  1  0
 14 15  1  0
 15 16  1  0
 16 17  1  0
  2 18  1  0
 18 19  2  0
 19 20  1  0
 20 21  2  0
 21 22  1  0
 22 23  2  0
 23 24  1  0
 23 25  1  0
 25 26  2  0
 26 27  1  0
 27 28  2  0
 11  7  1  0
 17 15  1  0
 28 18  1  0
 27 21  1  0
  3 29  1  0
  4 30  1  0
  4 31  1  0
  8 32  1  0
  8 33  1  0
  9 34  1  0
  9 35  1  0
 10 36  1  0
 10 37  1  0
 11 38  1  6
 12 39  1  0
 12 40  1  0
 13 41  1  0
 14 42  1  0
 14 43  1  0
 15 44  1  0
 16 45  1  0
 16 46  1  0
 17 47  1  0
 17 48  1  0
 19 49  1  0
 20 50  1  0
 22 51  1  0
 25 52  1  0
 26 53  1  0
M  END
>  <smiles>  (32) 
O=C(NCC(=O)N1CCC[C@H]1CNCC1CC1)c1ccc2cc(Cl)ccc2n1

>  <score_type>  (32) 
oracle

>  <origin>  (32) 
autodockgpu

>  <m_score__min__energy>  (32) 
-8.1199999999999992

>  <m_primary>  (32) 
energy

>  <rmsd>  (32) 
2.8113463110875014

>  <m_score__min__rmsd>  (32) 
2.8113463110875014

>  <meeko>  (32) 
{"free_energy": -7.65, "intermolecular_energy": -10.04, "internal_energy": -1.78, "cluster_size": 44, "cluster_id": 1, "rank_in_cluster": 19}

>  <energy>  (32) 
-7.31

>  <cluster_rmsd>  (32) 
1.62

>  <cluster>  (32) 
1

$$$$

     RDKit          3D

 53 56  0  0  0  0  0  0  0  0999 V2000
  141.5340   79.9100  218.2660 O   0  0  0  0  0  0  0  0  0  0  0  0
  142.0760   79.1760  219.1080 C   0  0  0  0  0  0  0  0  0  0  0  0
  142.1920   79.6400  220.4610 N   0  0  0  0  0  0  0  0  0  0  0  0
  141.7130   80.9110  220.8750 C   0  0  0  0  0  0  0  0  0  0  0  0
  141.1800   81.0840  222.2060 C   0  0  0  0  0  0  0  0  0  0  0  0
  141.7380   82.0790  222.8490 O   0  0  0  0  0  0  0  0  0  0  0  0
  140.2000   80.4160  222.9330 N   0  0  0  0  0  0  0  0  0  0  0  0
  138.8370   80.8490  223.3530 C   0  0  0  0  0  0  0  0  0  0  0  0
  138.0130   79.6960  222.8070 C   0  0  0  0  0  0  0  0  0  0  0  0
  138.9430   78.4840  222.7650 C   0  0  0  0  0  0  0  0  0  0  0  0
  140.1570   79.0500  223.4790 C   0  0  1  0  0  0  0  0  0  0  0  0
  141.3960   78.2940  223.3900 C   0  0  0  0  0  0  0  0  0  0  0  0
  141.4420   77.5000  222.2020 N   0  0  0  0  0  0  0  0  0  0  0  0
  140.8870   76.1980  222.2710 C   0  0  0  0  0  0  0  0  0  0  0  0
  140.3950   75.7540  220.9200 C   0  0  0  0  0  0  0  0  0  0  0  0
  139.2560   74.8010  220.8230 C   0  0  0  0  0  0  0  0  0  0  0  0
  140.6400   74.3050  220.5790 C   0  0  0  0  0  0  0  0  0  0  0  0
  142.5920   77.8550  218.7420 C   0  0  0  0  0  0  0  0  0  0  0  0
  142.5660   77.4750  217.4190 C   0  0  0  0  0  0  0  0  0  0  0  0
  143.0640   76.2140  217.1270 C   0  0  0  0  0  0  0  0  0  0  0  0
  143.5630   75.3740  218.1190 C   0  0  0  0  0  0  0  0  0  0  0  0
  144.0600   74.1180  217.8430 C   0  0  0  0  0  0  0  0  0  0  0  0
  144.5360   73.3510  218.8950 C   0  0  0  0  0  0  0  0  0  0  0  0
  145.1810   71.7370  218.6010 Cl  0  0  0  0  0  0  0  0  0  0  0  0
  144.5340   73.7890  220.2010 C   0  0  0  0  0  0  0  0  0  0  0  0
  144.0350   75.0460  220.4600 C   0  0  0  0  0  0  0  0  0  0  0  0
  143.5610   75.8080  219.4140 C   0  0  0  0  0  0  0  0  0  0  0  0
  143.0800   77.0260  219.6860 N   0  0  0  0  0  0  0  0  0  0  0  0
  142.6640   78.9670  221.1370 H   0  0  0  0  0  0  0  0  0  0  0  0
  142.5527   81.6145  220.7755 H   0  0  0  0  0  0  0  0  0  0  0  0
  140.8374   81.0735  220.2293 H   0  0  0  0  0  0  0  0  0  0  0  0
  138.7531   80.9285  224.4469 H   0  0  0  0  0  0  0  0  0  0  0  0
  138.5361   81.8441  222.9935 H   0  0  0  0  0  0  0  0  0  0  0  0
  137.1557   79.4952  223.4663 H   0  0  0  0  0  0  0  0  0  0  0  0
  137.6144   79.9280  221.8084 H   0  0  0  0  0  0  0  0  0  0  0  0
  138.5171   77.6251  223.3044 H   0  0  0  0  0  0  0  0  0  0  0  0
  139.1428   78.0912  221.7571 H   0  0  0  0  0  0  0  0  0  0  0  0
  140.0582   79.0071  224.5737 H   0  0  0  0  0  0  0  0  0  0  0  0
  142.2431   78.9957  223.3838 H   0  0  0  0  0  0  0  0  0  0  0  0
  141.4517   77.6200  224.2575 H   0  0  0  0  0  0  0  0  0  0  0  0
  142.2550   77.6370  221.5930 H   0  0  0  0  0  0  0  0  0  0  0  0
  141.6573   75.4959  222.6228 H   0  0  0  0  0  0  0  0  0  0  0  0
  140.0362   76.2141  222.9680 H   0  0  0  0  0  0  0  0  0  0  0  0
  140.6021   76.7338  220.4648 H   0  0  0  0  0  0  0  0  0  0  0  0
  138.7176   74.4967  221.7327 H   0  0  0  0  0  0  0  0  0  0  0  0
  138.3150   74.7769  220.2539 H   0  0  0  0  0  0  0  0  0  0  0  0
  141.1246   73.6409  221.3098 H   0  0  0  0  0  0  0  0  0  0  0  0
  141.1448   73.7700  219.7611 H   0  0  0  0  0  0  0  0  0  0  0  0
  142.1708   78.1370  216.6344 H   0  0  0  0  0  0  0  0  0  0  0  0
  143.0648   75.8679  216.0829 H   0  0  0  0  0  0  0  0  0  0  0  0
  144.0784   73.7336  216.8125 H   0  0  0  0  0  0  0  0  0  0  0  0
  144.9193   73.1539  221.0123 H   0  0  0  0  0  0  0  0  0  0  0  0
  144.0150   75.4367  221.4881 H   0  0  0  0  0  0  0  0  0  0  0  0
  1  2  2  0
  2  3  1  0
  3  4  1  0
  4  5  1  0
  5  6  2  0
  5  7  1  0
  7  8  1  0
  8  9  1  0
  9 10  1  0
 10 11  1  0
 11 12  1  0
 12 13  1  0
 13 14  1  0
 14 15  1  0
 15 16  1  0
 16 17  1  0
  2 18  1  0
 18 19  2  0
 19 20  1  0
 20 21  2  0
 21 22  1  0
 22 23  2  0
 23 24  1  0
 23 25  1  0
 25 26  2  0
 26 27  1  0
 27 28  2  0
 11  7  1  0
 17 15  1  0
 28 18  1  0
 27 21  1  0
  3 29  1  0
  4 30  1  0
  4 31  1  0
  8 32  1  0
  8 33  1  0
  9 34  1  0
  9 35  1  0
 10 36  1  0
 10 37  1  0
 11 38  1  1
 12 39  1  0
 12 40  1  0
 13 41  1  0
 14 42  1  0
 14 43  1  0
 15 44  1  0
 16 45  1  0
 16 46  1  0
 17 47  1  0
 17 48  1  0
 19 49  1  0
 20 50  1  0
 22 51  1  0
 25 52  1  0
 26 53  1  0
M  END
>  <smiles>  (33) 
O=C(NCC(=O)N1CCC[C@H]1CNCC1CC1)c1ccc2cc(Cl)ccc2n1

>  <score_type>  (33) 
oracle

>  <origin>  (33) 
autodockgpu

>  <m_score__min__energy>  (33) 
-8.1199999999999992

>  <m_primary>  (33) 
energy

>  <rmsd>  (33) 
8.048979868980405

>  <m_score__min__rmsd>  (33) 
8.048979868980405

>  <meeko>  (33) 
{"free_energy": -5.46, "intermolecular_energy": -7.85, "internal_energy": -3.96, "cluster_size": 2, "cluster_id": 6, "rank_in_cluster": 1}

>  <energy>  (33) 
-7.29

>  <cluster_rmsd>  (33) 
1.28

>  <cluster>  (33) 
1

$$$$

     RDKit          3D

 53 56  0  0  0  0  0  0  0  0999 V2000
  139.0430   72.0330  220.8400 O   0  0  0  0  0  0  0  0  0  0  0  0
  139.2810   72.4120  221.9980 C   0  0  0  0  0  0  0  0  0  0  0  0
  139.3470   73.8210  222.2670 N   0  0  0  0  0  0  0  0  0  0  0  0
  139.1510   74.8000  221.2570 C   0  0  0  0  0  0  0  0  0  0  0  0
  139.5870   76.1590  221.4750 C   0  0  0  0  0  0  0  0  0  0  0  0
  138.9130   76.7600  222.4240 O   0  0  0  0  0  0  0  0  0  0  0  0
  140.5700   76.9490  220.8880 N   0  0  0  0  0  0  0  0  0  0  0  0
  141.0030   77.0650  219.4670 C   0  0  0  0  0  0  0  0  0  0  0  0
  140.8830   78.5680  219.2760 C   0  0  0  0  0  0  0  0  0  0  0  0
  141.0700   79.1930  220.6580 C   0  0  0  0  0  0  0  0  0  0  0  0
  141.4670   77.9670  221.4590 C   0  0  1  0  0  0  0  0  0  0  0  0
  141.4510   78.0820  222.9080 C   0  0  0  0  0  0  0  0  0  0  0  0
  140.3030   78.8030  223.3640 N   0  0  0  0  0  0  0  0  0  0  0  0
  140.5120   80.1210  223.8410 C   0  0  0  0  0  0  0  0  0  0  0  0
  139.2290   80.9050  223.8260 C   0  0  0  0  0  0  0  0  0  0  0  0
  137.9240   80.1910  223.8660 C   0  0  0  0  0  0  0  0  0  0  0  0
  138.3940   80.7710  222.5760 C   0  0  0  0  0  0  0  0  0  0  0  0
  139.4950   71.4510  223.0820 C   0  0  0  0  0  0  0  0  0  0  0  0
  139.1160   70.1410  222.8930 C   0  0  0  0  0  0  0  0  0  0  0  0
  139.3370   69.2730  223.9520 C   0  0  0  0  0  0  0  0  0  0  0  0
  139.9110   69.7020  225.1460 C   0  0  0  0  0  0  0  0  0  0  0  0
  140.1350   68.8500  226.2060 C   0  0  0  0  0  0  0  0  0  0  0  0
  140.7120   69.3670  227.3560 C   0  0  0  0  0  0  0  0  0  0  0  0
  141.0200   68.3240  228.7440 Cl  0  0  0  0  0  0  0  0  0  0  0  0
  141.0690   70.6910  227.4850 C   0  0  0  0  0  0  0  0  0  0  0  0
  140.8380   71.5290  226.4160 C   0  0  0  0  0  0  0  0  0  0  0  0
  140.2650   71.0150  225.2730 C   0  0  0  0  0  0  0  0  0  0  0  0
  140.0490   71.8450  224.2460 N   0  0  0  0  0  0  0  0  0  0  0  0
  139.5530   74.0850  223.2770 H   0  0  0  0  0  0  0  0  0  0  0  0
  139.6737   74.4389  220.3590 H   0  0  0  0  0  0  0  0  0  0  0  0
  138.0562   74.8913  221.2022 H   0  0  0  0  0  0  0  0  0  0  0  0
  142.0368   76.7168  219.3256 H   0  0  0  0  0  0  0  0  0  0  0  0
  140.4226   76.4598  218.7551 H   0  0  0  0  0  0  0  0  0  0  0  0
  141.6614   78.9276  218.5870 H   0  0  0  0  0  0  0  0  0  0  0  0
  139.9087   78.8392  218.8434 H   0  0  0  0  0  0  0  0  0  0  0  0
  141.8651   79.9532  220.6566 H   0  0  0  0  0  0  0  0  0  0  0  0
  140.1905   79.7296  221.0433 H   0  0  0  0  0  0  0  0  0  0  0  0
  142.5366   77.7298  221.3608 H   0  0  0  0  0  0  0  0  0  0  0  0
  141.4370   77.0733  223.3465 H   0  0  0  0  0  0  0  0  0  0  0  0
  142.3507   78.6323  223.2205 H   0  0  0  0  0  0  0  0  0  0  0  0
  139.5650   78.2490  223.8110 H   0  0  0  0  0  0  0  0  0  0  0  0
  140.8943   80.0750  224.8714 H   0  0  0  0  0  0  0  0  0  0  0  0
  141.2386   80.6221  223.1845 H   0  0  0  0  0  0  0  0  0  0  0  0
  139.6621   81.7232  224.4201 H   0  0  0  0  0  0  0  0  0  0  0  0
  137.9010   79.0994  223.9994 H   0  0  0  0  0  0  0  0  0  0  0  0
  137.0087   80.2875  224.4685 H   0  0  0  0  0  0  0  0  0  0  0  0
  138.7231   80.1093  221.7613 H   0  0  0  0  0  0  0  0  0  0  0  0
  137.9773   81.4707  221.8366 H   0  0  0  0  0  0  0  0  0  0  0  0
  138.6615   69.8004  221.9510 H   0  0  0  0  0  0  0  0  0  0  0  0
  139.0509   68.2162  223.8457 H   0  0  0  0  0  0  0  0  0  0  0  0
  139.8628   67.7862  226.1413 H   0  0  0  0  0  0  0  0  0  0  0  0
  141.5244   71.0677  228.4127 H   0  0  0  0  0  0  0  0  0  0  0  0
  141.1073   72.5939  226.4741 H   0  0  0  0  0  0  0  0  0  0  0  0
  1  2  2  0
  2  3  1  0
  3  4  1  0
  4  5  1  0
  5  6  2  0
  5  7  1  0
  7  8  1  0
  8  9  1  0
  9 10  1  0
 10 11  1  0
 11 12  1  0
 12 13  1  0
 13 14  1  0
 14 15  1  0
 15 16  1  0
 16 17  1  0
  2 18  1  0
 18 19  2  0
 19 20  1  0
 20 21  2  0
 21 22  1  0
 22 23  2  0
 23 24  1  0
 23 25  1  0
 25 26  2  0
 26 27  1  0
 27 28  2  0
 11  7  1  0
 17 15  1  0
 28 18  1  0
 27 21  1  0
  3 29  1  0
  4 30  1  0
  4 31  1  0
  8 32  1  0
  8 33  1  0
  9 34  1  0
  9 35  1  0
 10 36  1  0
 10 37  1  0
 11 38  1  6
 12 39  1  0
 12 40  1  0
 13 41  1  0
 14 42  1  0
 14 43  1  0
 15 44  1  0
 16 45  1  0
 16 46  1  0
 17 47  1  0
 17 48  1  0
 19 49  1  0
 20 50  1  0
 22 51  1  0
 25 52  1  0
 26 53  1  0
M  END
>  <smiles>  (34) 
O=C(NCC(=O)N1CCC[C@H]1CNCC1CC1)c1ccc2cc(Cl)ccc2n1

>  <score_type>  (34) 
oracle

>  <origin>  (34) 
autodockgpu

>  <m_score__min__energy>  (34) 
-8.1199999999999992

>  <m_primary>  (34) 
energy

>  <rmsd>  (34) 
2.3928585169271073

>  <m_score__min__rmsd>  (34) 
2.3928585169271073

>  <meeko>  (34) 
{"free_energy": -6.76, "intermolecular_energy": -9.15, "internal_energy": -2.3, "cluster_size": 44, "cluster_id": 1, "rank_in_cluster": 42}

>  <energy>  (34) 
-7.24

>  <cluster_rmsd>  (34) 
1.83

>  <cluster>  (34) 
1

$$$$

     RDKit          3D

 53 56  0  0  0  0  0  0  0  0999 V2000
  138.9940   71.9210  220.7910 O   0  0  0  0  0  0  0  0  0  0  0  0
  139.2540   72.3020  221.9430 C   0  0  0  0  0  0  0  0  0  0  0  0
  139.3380   73.7110  222.2060 N   0  0  0  0  0  0  0  0  0  0  0  0
  139.1350   74.6880  221.1950 C   0  0  0  0  0  0  0  0  0  0  0  0
  139.0480   76.0850  221.5490 C   0  0  0  0  0  0  0  0  0  0  0  0
  138.8770   76.2720  222.8340 O   0  0  0  0  0  0  0  0  0  0  0  0
  139.1120   77.2610  220.8070 N   0  0  0  0  0  0  0  0  0  0  0  0
  138.1350   77.8640  219.8570 C   0  0  0  0  0  0  0  0  0  0  0  0
  138.0070   79.2550  220.4570 C   0  0  0  0  0  0  0  0  0  0  0  0
  139.3220   79.5300  221.1860 C   0  0  0  0  0  0  0  0  0  0  0  0
  140.1310   78.3210  220.7540 C   0  0  1  0  0  0  0  0  0  0  0  0
  141.3630   78.0500  221.4750 C   0  0  0  0  0  0  0  0  0  0  0  0
  141.1140   77.7790  222.8560 N   0  0  0  0  0  0  0  0  0  0  0  0
  141.7580   78.6090  223.8070 C   0  0  0  0  0  0  0  0  0  0  0  0
  141.9740   79.9900  223.2530 C   0  0  0  0  0  0  0  0  0  0  0  0
  143.3580   80.4920  223.0310 C   0  0  0  0  0  0  0  0  0  0  0  0
  142.5840   80.9890  224.2040 C   0  0  0  0  0  0  0  0  0  0  0  0
  139.4760   71.3430  223.0280 C   0  0  0  0  0  0  0  0  0  0  0  0
  139.1030   70.0310  222.8400 C   0  0  0  0  0  0  0  0  0  0  0  0
  139.3310   69.1660  223.8990 C   0  0  0  0  0  0  0  0  0  0  0  0
  139.9070   69.5980  225.0910 C   0  0  0  0  0  0  0  0  0  0  0  0
  140.1390   68.7480  226.1520 C   0  0  0  0  0  0  0  0  0  0  0  0
  140.7160   69.2690  227.2990 C   0  0  0  0  0  0  0  0  0  0  0  0
  141.0340   68.2290  228.6870 Cl  0  0  0  0  0  0  0  0  0  0  0  0
  141.0670   70.5950  227.4260 C   0  0  0  0  0  0  0  0  0  0  0  0
  140.8290   71.4300  226.3570 C   0  0  0  0  0  0  0  0  0  0  0  0
  140.2550   70.9130  225.2160 C   0  0  0  0  0  0  0  0  0  0  0  0
  140.0310   71.7410  224.1900 N   0  0  0  0  0  0  0  0  0  0  0  0
  139.5620   73.9770  223.2110 H   0  0  0  0  0  0  0  0  0  0  0  0
  139.9714   74.5912  220.4871 H   0  0  0  0  0  0  0  0  0  0  0  0
  138.1266   74.4586  220.8202 H   0  0  0  0  0  0  0  0  0  0  0  0
  138.5303   77.8968  218.8310 H   0  0  0  0  0  0  0  0  0  0  0  0
  137.1876   77.3142  219.7558 H   0  0  0  0  0  0  0  0  0  0  0  0
  137.8489   79.9994  219.6627 H   0  0  0  0  0  0  0  0  0  0  0  0
  137.1490   79.3175  221.1425 H   0  0  0  0  0  0  0  0  0  0  0  0
  139.7844   80.4699  220.8503 H   0  0  0  0  0  0  0  0  0  0  0  0
  139.2270   79.6546  222.2748 H   0  0  0  0  0  0  0  0  0  0  0  0
  140.5893   78.4547  219.7630 H   0  0  0  0  0  0  0  0  0  0  0  0
  141.8568   77.1772  221.0230 H   0  0  0  0  0  0  0  0  0  0  0  0
  142.0043   78.9413  221.4088 H   0  0  0  0  0  0  0  0  0  0  0  0
  140.9660   76.7960  223.1080 H   0  0  0  0  0  0  0  0  0  0  0  0
  141.1321   78.6764  224.7090 H   0  0  0  0  0  0  0  0  0  0  0  0
  142.7369   78.1706  224.0513 H   0  0  0  0  0  0  0  0  0  0  0  0
  141.0801   79.9291  222.6148 H   0  0  0  0  0  0  0  0  0  0  0  0
  144.2155   79.8205  223.1853 H   0  0  0  0  0  0  0  0  0  0  0  0
  143.8807   80.9717  222.1904 H   0  0  0  0  0  0  0  0  0  0  0  0
  142.8661   80.6804  225.2215 H   0  0  0  0  0  0  0  0  0  0  0  0
  142.2959   81.9794  224.5862 H   0  0  0  0  0  0  0  0  0  0  0  0
  138.6481   69.6874  221.8992 H   0  0  0  0  0  0  0  0  0  0  0  0
  139.0488   68.1079  223.7948 H   0  0  0  0  0  0  0  0  0  0  0  0
  139.8725   67.6826  226.0892 H   0  0  0  0  0  0  0  0  0  0  0  0
  141.5230   70.9749  228.3521 H   0  0  0  0  0  0  0  0  0  0  0  0
  141.0938   72.4962  226.4133 H   0  0  0  0  0  0  0  0  0  0  0  0
  1  2  2  0
  2  3  1  0
  3  4  1  0
  4  5  1  0
  5  6  2  0
  5  7  1  0
  7  8  1  0
  8  9  1  0
  9 10  1  0
 10 11  1  0
 11 12  1  0
 12 13  1  0
 13 14  1  0
 14 15  1  0
 15 16  1  0
 16 17  1  0
  2 18  1  0
 18 19  2  0
 19 20  1  0
 20 21  2  0
 21 22  1  0
 22 23  2  0
 23 24  1  0
 23 25  1  0
 25 26  2  0
 26 27  1  0
 27 28  2  0
 11  7  1  0
 17 15  1  0
 28 18  1  0
 27 21  1  0
  3 29  1  0
  4 30  1  0
  4 31  1  0
  8 32  1  0
  8 33  1  0
  9 34  1  0
  9 35  1  0
 10 36  1  0
 10 37  1  0
 11 38  1  6
 12 39  1  0
 12 40  1  0
 13 41  1  0
 14 42  1  0
 14 43  1  0
 15 44  1  0
 16 45  1  0
 16 46  1  0
 17 47  1  0
 17 48  1  0
 19 49  1  0
 20 50  1  0
 22 51  1  0
 25 52  1  0
 26 53  1  0
M  END
>  <smiles>  (35) 
O=C(NCC(=O)N1CCC[C@H]1CNCC1CC1)c1ccc2cc(Cl)ccc2n1

>  <score_type>  (35) 
oracle

>  <origin>  (35) 
autodockgpu

>  <m_score__min__energy>  (35) 
-8.1199999999999992

>  <m_primary>  (35) 
energy

>  <rmsd>  (35) 
2.6427619993495437

>  <m_score__min__rmsd>  (35) 
2.6427619993495437

>  <meeko>  (35) 
{"free_energy": -7.2, "intermolecular_energy": -9.59, "internal_energy": -2.5, "cluster_size": 44, "cluster_id": 1, "rank_in_cluster": 36}

>  <energy>  (35) 
-7.21

>  <cluster_rmsd>  (35) 
1.65

>  <cluster>  (35) 
1

$$$$

     RDKit          3D

 53 56  0  0  0  0  0  0  0  0999 V2000
  141.0720   72.7850  221.0100 O   0  0  0  0  0  0  0  0  0  0  0  0
  140.3890   73.0030  222.0230 C   0  0  0  0  0  0  0  0  0  0  0  0
  139.7280   74.2710  222.1530 N   0  0  0  0  0  0  0  0  0  0  0  0
  139.8270   75.2880  221.1670 C   0  0  0  0  0  0  0  0  0  0  0  0
  140.8800   76.2710  221.2470 C   0  0  0  0  0  0  0  0  0  0  0  0
  141.0550   76.7280  222.4620 O   0  0  0  0  0  0  0  0  0  0  0  0
  141.7410   76.8230  220.3030 N   0  0  0  0  0  0  0  0  0  0  0  0
  143.0280   76.3170  219.7490 C   0  0  0  0  0  0  0  0  0  0  0  0
  142.7240   76.3920  218.2620 C   0  0  0  0  0  0  0  0  0  0  0  0
  141.6780   77.4940  218.0930 C   0  0  0  0  0  0  0  0  0  0  0  0
  141.6440   78.0550  219.5030 C   0  0  1  0  0  0  0  0  0  0  0  0
  140.5450   78.9440  219.8420 C   0  0  0  0  0  0  0  0  0  0  0  0
  140.6430   79.4090  221.1900 N   0  0  0  0  0  0  0  0  0  0  0  0
  141.6130   80.4060  221.4620 C   0  0  0  0  0  0  0  0  0  0  0  0
  141.6920   80.6870  222.9370 C   0  0  0  0  0  0  0  0  0  0  0  0
  142.9850   80.5190  223.6550 C   0  0  0  0  0  0  0  0  0  0  0  0
  141.9240   79.4850  223.8200 C   0  0  0  0  0  0  0  0  0  0  0  0
  140.2500   71.9950  223.0760 C   0  0  0  0  0  0  0  0  0  0  0  0
  139.6480   70.7950  222.7720 C   0  0  0  0  0  0  0  0  0  0  0  0
  139.5400   69.8780  223.8060 C   0  0  0  0  0  0  0  0  0  0  0  0
  140.0130   70.1540  225.0860 C   0  0  0  0  0  0  0  0  0  0  0  0
  139.9090   69.2510  226.1230 C   0  0  0  0  0  0  0  0  0  0  0  0
  140.4080   69.6130  227.3650 C   0  0  0  0  0  0  0  0  0  0  0  0
  140.3020   68.5000  228.7270 Cl  0  0  0  0  0  0  0  0  0  0  0  0
  141.0010   70.8330  227.6060 C   0  0  0  0  0  0  0  0  0  0  0  0
  141.0960   71.7230  226.5600 C   0  0  0  0  0  0  0  0  0  0  0  0
  140.6000   71.3630  225.3260 C   0  0  0  0  0  0  0  0  0  0  0  0
  140.7010   72.2420  224.3230 N   0  0  0  0  0  0  0  0  0  0  0  0
  139.1560   74.3990  223.0410 H   0  0  0  0  0  0  0  0  0  0  0  0
  139.9396   74.7804  220.1976 H   0  0  0  0  0  0  0  0  0  0  0  0
  138.9146   75.8819  221.3243 H   0  0  0  0  0  0  0  0  0  0  0  0
  143.8737   76.9637  220.0257 H   0  0  0  0  0  0  0  0  0  0  0  0
  143.3285   75.3225  220.1105 H   0  0  0  0  0  0  0  0  0  0  0  0
  143.6353   76.6423  217.6991 H   0  0  0  0  0  0  0  0  0  0  0  0
  142.3551   75.4286  217.8802 H   0  0  0  0  0  0  0  0  0  0  0  0
  141.9986   78.2506  217.3617 H   0  0  0  0  0  0  0  0  0  0  0  0
  140.7054   77.1506  217.7108 H   0  0  0  0  0  0  0  0  0  0  0  0
  142.4537   78.7763  219.6877 H   0  0  0  0  0  0  0  0  0  0  0  0
  140.5632   79.8095  219.1633 H   0  0  0  0  0  0  0  0  0  0  0  0
  139.6039   78.3840  219.7380 H   0  0  0  0  0  0  0  0  0  0  0  0
  140.4520   78.7210  221.9250 H   0  0  0  0  0  0  0  0  0  0  0  0
  142.5951   80.0595  221.1080 H   0  0  0  0  0  0  0  0  0  0  0  0
  141.3227   81.3310  220.9423 H   0  0  0  0  0  0  0  0  0  0  0  0
  140.9643   81.5094  222.8722 H   0  0  0  0  0  0  0  0  0  0  0  0
  143.8982   80.2811  223.0898 H   0  0  0  0  0  0  0  0  0  0  0  0
  143.5712   81.1418  224.3468 H   0  0  0  0  0  0  0  0  0  0  0  0
  142.0510   78.4883  223.3724 H   0  0  0  0  0  0  0  0  0  0  0  0
  141.4014   79.0320  224.6754 H   0  0  0  0  0  0  0  0  0  0  0  0
  139.2724   70.5753  221.7617 H   0  0  0  0  0  0  0  0  0  0  0  0
  139.0671   68.9045  223.6095 H   0  0  0  0  0  0  0  0  0  0  0  0
  139.4415   68.2673  225.9686 H   0  0  0  0  0  0  0  0  0  0  0  0
  141.3869   71.0882  228.6040 H   0  0  0  0  0  0  0  0  0  0  0  0
  141.5617   72.7086  226.7075 H   0  0  0  0  0  0  0  0  0  0  0  0
  1  2  2  0
  2  3  1  0
  3  4  1  0
  4  5  1  0
  5  6  2  0
  5  7  1  0
  7  8  1  0
  8  9  1  0
  9 10  1  0
 10 11  1  0
 11 12  1  0
 12 13  1  0
 13 14  1  0
 14 15  1  0
 15 16  1  0
 16 17  1  0
  2 18  1  0
 18 19  2  0
 19 20  1  0
 20 21  2  0
 21 22  1  0
 22 23  2  0
 23 24  1  0
 23 25  1  0
 25 26  2  0
 26 27  1  0
 27 28  2  0
 11  7  1  0
 17 15  1  0
 28 18  1  0
 27 21  1  0
  3 29  1  0
  4 30  1  0
  4 31  1  0
  8 32  1  0
  8 33  1  0
  9 34  1  0
  9 35  1  0
 10 36  1  0
 10 37  1  0
 11 38  1  6
 12 39  1  0
 12 40  1  0
 13 41  1  0
 14 42  1  0
 14 43  1  0
 15 44  1  0
 16 45  1  0
 16 46  1  0
 17 47  1  0
 17 48  1  0
 19 49  1  0
 20 50  1  0
 22 51  1  0
 25 52  1  0
 26 53  1  0
M  END
>  <smiles>  (36) 
O=C(NCC(=O)N1CCC[C@H]1CNCC1CC1)c1ccc2cc(Cl)ccc2n1

>  <score_type>  (36) 
oracle

>  <origin>  (36) 
autodockgpu

>  <m_score__min__energy>  (36) 
-8.1199999999999992

>  <m_primary>  (36) 
energy

>  <rmsd>  (36) 
2.589265210372175

>  <m_score__min__rmsd>  (36) 
2.589265210372175

>  <meeko>  (36) 
{"free_energy": -7.71, "intermolecular_energy": -10.09, "internal_energy": -2.22, "cluster_size": 44, "cluster_id": 1, "rank_in_cluster": 16}

>  <energy>  (36) 
-7.2

>  <cluster_rmsd>  (36) 
1.65

>  <cluster>  (36) 
1

$$$$

     RDKit          3D

 53 56  0  0  0  0  0  0  0  0999 V2000
  140.1570   72.7440  220.7480 O   0  0  0  0  0  0  0  0  0  0  0  0
  139.9020   72.9900  221.9370 C   0  0  0  0  0  0  0  0  0  0  0  0
  139.5330   74.3280  222.3050 N   0  0  0  0  0  0  0  0  0  0  0  0
  139.4510   75.3840  221.3600 C   0  0  0  0  0  0  0  0  0  0  0  0
  139.0750   76.7090  221.7880 C   0  0  0  0  0  0  0  0  0  0  0  0
  137.8550   76.7600  222.2640 O   0  0  0  0  0  0  0  0  0  0  0  0
  139.7400   77.9310  221.8020 N   0  0  0  0  0  0  0  0  0  0  0  0
  139.5260   79.1450  222.6390 C   0  0  0  0  0  0  0  0  0  0  0  0
  140.9310   79.3410  223.1850 C   0  0  0  0  0  0  0  0  0  0  0  0
  141.8810   78.7260  222.1580 C   0  0  0  0  0  0  0  0  0  0  0  0
  140.9040   78.4110  221.0400 C   0  0  1  0  0  0  0  0  0  0  0  0
  141.3680   77.5360  219.9760 C   0  0  0  0  0  0  0  0  0  0  0  0
  142.2780   76.5500  220.4670 N   0  0  0  0  0  0  0  0  0  0  0  0
  142.5120   75.4170  219.6480 C   0  0  0  0  0  0  0  0  0  0  0  0
  143.1660   74.3140  220.4340 C   0  0  0  0  0  0  0  0  0  0  0  0
  144.6510   74.2000  220.4550 C   0  0  0  0  0  0  0  0  0  0  0  0
  143.8610   73.2520  219.6180 C   0  0  0  0  0  0  0  0  0  0  0  0
  139.9710   71.9440  222.9600 C   0  0  0  0  0  0  0  0  0  0  0  0
  139.5700   70.6680  222.6330 C   0  0  0  0  0  0  0  0  0  0  0  0
  139.6530   69.7170  223.6390 C   0  0  0  0  0  0  0  0  0  0  0  0
  140.1170   70.0320  224.9130 C   0  0  0  0  0  0  0  0  0  0  0  0
  140.2030   69.0970  225.9220 C   0  0  0  0  0  0  0  0  0  0  0  0
  140.6770   69.5030  227.1590 C   0  0  0  0  0  0  0  0  0  0  0  0
  140.8060   68.3500  228.4860 Cl  0  0  0  0  0  0  0  0  0  0  0  0
  141.0630   70.7980  227.4240 C   0  0  0  0  0  0  0  0  0  0  0  0
  140.9710   71.7210  226.4060 C   0  0  0  0  0  0  0  0  0  0  0  0
  140.5000   71.3170  225.1760 C   0  0  0  0  0  0  0  0  0  0  0  0
  140.4170   72.2280  224.2000 N   0  0  0  0  0  0  0  0  0  0  0  0
  139.3250   74.4770  223.3380 H   0  0  0  0  0  0  0  0  0  0  0  0
  140.4438   75.4708  220.8943 H   0  0  0  0  0  0  0  0  0  0  0  0
  138.6136   75.0804  220.7146 H   0  0  0  0  0  0  0  0  0  0  0  0
  139.1991   80.0045  222.0353 H   0  0  0  0  0  0  0  0  0  0  0  0
  138.7414   79.0477  223.4038 H   0  0  0  0  0  0  0  0  0  0  0  0
  141.1455   80.4128  223.3081 H   0  0  0  0  0  0  0  0  0  0  0  0
  141.0464   78.8661  224.1705 H   0  0  0  0  0  0  0  0  0  0  0  0
  142.6512   79.4423  221.8358 H   0  0  0  0  0  0  0  0  0  0  0  0
  142.4575   77.8630  222.5227 H   0  0  0  0  0  0  0  0  0  0  0  0
  140.6953   79.2854  220.4061 H   0  0  0  0  0  0  0  0  0  0  0  0
  140.5012   77.0297  219.5263 H   0  0  0  0  0  0  0  0  0  0  0  0
  141.8942   78.1496  219.2300 H   0  0  0  0  0  0  0  0  0  0  0  0
  142.2960   76.4120  221.4830 H   0  0  0  0  0  0  0  0  0  0  0  0
  141.5523   75.0557  219.2499 H   0  0  0  0  0  0  0  0  0  0  0  0
  143.1825   75.7090  218.8264 H   0  0  0  0  0  0  0  0  0  0  0  0
  142.3986   74.3493  221.2213 H   0  0  0  0  0  0  0  0  0  0  0  0
  145.2666   74.9739  219.9732 H   0  0  0  0  0  0  0  0  0  0  0  0
  145.4064   74.0873  221.2466 H   0  0  0  0  0  0  0  0  0  0  0  0
  143.8891   73.3299  218.5211 H   0  0  0  0  0  0  0  0  0  0  0  0
  143.7875   72.1575  219.5365 H   0  0  0  0  0  0  0  0  0  0  0  0
  139.2032   70.4162  221.6270 H   0  0  0  0  0  0  0  0  0  0  0  0
  139.3431   68.6837  223.4239 H   0  0  0  0  0  0  0  0  0  0  0  0
  139.9024   68.0531  225.7493 H   0  0  0  0  0  0  0  0  0  0  0  0
  141.4336   71.0865  228.4187 H   0  0  0  0  0  0  0  0  0  0  0  0
  141.2695   72.7665  226.5727 H   0  0  0  0  0  0  0  0  0  0  0  0
  1  2  2  0
  2  3  1  0
  3  4  1  0
  4  5  1  0
  5  6  2  0
  5  7  1  0
  7  8  1  0
  8  9  1  0
  9 10  1  0
 10 11  1  0
 11 12  1  0
 12 13  1  0
 13 14  1  0
 14 15  1  0
 15 16  1  0
 16 17  1  0
  2 18  1  0
 18 19  2  0
 19 20  1  0
 20 21  2  0
 21 22  1  0
 22 23  2  0
 23 24  1  0
 23 25  1  0
 25 26  2  0
 26 27  1  0
 27 28  2  0
 11  7  1  0
 17 15  1  0
 28 18  1  0
 27 21  1  0
  3 29  1  0
  4 30  1  0
  4 31  1  0
  8 32  1  0
  8 33  1  0
  9 34  1  0
  9 35  1  0
 10 36  1  0
 10 37  1  0
 11 38  1  6
 12 39  1  0
 12 40  1  0
 13 41  1  0
 14 42  1  0
 14 43  1  0
 15 44  1  0
 16 45  1  0
 16 46  1  0
 17 47  1  0
 17 48  1  0
 19 49  1  0
 20 50  1  0
 22 51  1  0
 25 52  1  0
 26 53  1  0
M  END
>  <smiles>  (37) 
O=C(NCC(=O)N1CCC[C@H]1CNCC1CC1)c1ccc2cc(Cl)ccc2n1

>  <score_type>  (37) 
oracle

>  <origin>  (37) 
autodockgpu

>  <m_score__min__energy>  (37) 
-8.1199999999999992

>  <m_primary>  (37) 
energy

>  <rmsd>  (37) 
4.236962590431411

>  <m_score__min__rmsd>  (37) 
4.236962590431411

>  <meeko>  (37) 
{"free_energy": -7.71, "intermolecular_energy": -10.1, "internal_energy": -1.84, "cluster_size": 44, "cluster_id": 1, "rank_in_cluster": 15}

>  <energy>  (37) 
-7.12

>  <cluster_rmsd>  (37) 
1.42

>  <cluster>  (37) 
1

$$$$

     RDKit          3D

 53 56  0  0  0  0  0  0  0  0999 V2000
  140.0100   72.2130  220.7910 O   0  0  0  0  0  0  0  0  0  0  0  0
  139.8810   72.5390  221.9820 C   0  0  0  0  0  0  0  0  0  0  0  0
  139.6770   73.9240  222.3030 N   0  0  0  0  0  0  0  0  0  0  0  0
  139.6190   74.9370  221.3100 C   0  0  0  0  0  0  0  0  0  0  0  0
  140.3730   76.1560  221.4770 C   0  0  0  0  0  0  0  0  0  0  0  0
  141.3620   76.0270  222.3270 O   0  0  0  0  0  0  0  0  0  0  0  0
  140.2670   77.4260  220.9180 N   0  0  0  0  0  0  0  0  0  0  0  0
  139.4050   78.5820  221.2930 C   0  0  0  0  0  0  0  0  0  0  0  0
  140.4620   79.6650  221.4360 C   0  0  0  0  0  0  0  0  0  0  0  0
  141.6200   79.2570  220.5250 C   0  0  0  0  0  0  0  0  0  0  0  0
  141.0010   78.0670  219.8150 C   0  0  1  0  0  0  0  0  0  0  0  0
  141.8930   77.2010  219.0620 C   0  0  0  0  0  0  0  0  0  0  0  0
  142.9200   76.6560  219.8940 N   0  0  0  0  0  0  0  0  0  0  0  0
  143.6500   75.5530  219.3840 C   0  0  0  0  0  0  0  0  0  0  0  0
  143.9510   74.5620  220.4740 C   0  0  0  0  0  0  0  0  0  0  0  0
  144.5830   73.2570  220.1350 C   0  0  0  0  0  0  0  0  0  0  0  0
  143.1280   73.2970  220.4540 C   0  0  0  0  0  0  0  0  0  0  0  0
  139.9340   71.5410  223.0520 C   0  0  0  0  0  0  0  0  0  0  0  0
  139.4740   70.2690  222.7970 C   0  0  0  0  0  0  0  0  0  0  0  0
  139.5440   69.3640  223.8460 C   0  0  0  0  0  0  0  0  0  0  0  0
  140.0510   69.7210  225.0920 C   0  0  0  0  0  0  0  0  0  0  0  0
  140.1250   68.8310  226.1420 C   0  0  0  0  0  0  0  0  0  0  0  0
  140.6460   69.2770  227.3480 C   0  0  0  0  0  0  0  0  0  0  0  0
  140.7630   68.1830  228.7260 Cl  0  0  0  0  0  0  0  0  0  0  0  0
  141.0900   70.5660  227.5410 C   0  0  0  0  0  0  0  0  0  0  0  0
  141.0100   71.4420  226.4810 C   0  0  0  0  0  0  0  0  0  0  0  0
  140.4920   70.9990  225.2830 C   0  0  0  0  0  0  0  0  0  0  0  0
  140.4220   71.8660  224.2660 N   0  0  0  0  0  0  0  0  0  0  0  0
  139.5720   74.1420  223.3390 H   0  0  0  0  0  0  0  0  0  0  0  0
  139.9597   74.4794  220.3695 H   0  0  0  0  0  0  0  0  0  0  0  0
  138.5742   75.2778  221.3577 H   0  0  0  0  0  0  0  0  0  0  0  0
  138.6785   78.8226  220.5029 H   0  0  0  0  0  0  0  0  0  0  0  0
  138.7805   78.4239  222.1846 H   0  0  0  0  0  0  0  0  0  0  0  0
  140.0554   80.6379  221.1227 H   0  0  0  0  0  0  0  0  0  0  0  0
  140.7916   79.7667  222.4805 H   0  0  0  0  0  0  0  0  0  0  0  0
  141.8850   80.0587  219.8200 H   0  0  0  0  0  0  0  0  0  0  0  0
  142.5632   79.0411  221.0483 H   0  0  0  0  0  0  0  0  0  0  0  0
  140.3672   78.3667  218.9674 H   0  0  0  0  0  0  0  0  0  0  0  0
  141.3086   76.3759  218.6287 H   0  0  0  0  0  0  0  0  0  0  0  0
  142.3701   77.7999  218.2723 H   0  0  0  0  0  0  0  0  0  0  0  0
  142.7520   76.6860  220.9050 H   0  0  0  0  0  0  0  0  0  0  0  0
  143.0563   75.0586  218.6010 H   0  0  0  0  0  0  0  0  0  0  0  0
  144.6003   75.9205  218.9693 H   0  0  0  0  0  0  0  0  0  0  0  0
  144.1919   75.3538  221.1986 H   0  0  0  0  0  0  0  0  0  0  0  0
  144.9123   73.0595  219.1042 H   0  0  0  0  0  0  0  0  0  0  0  0
  145.4436   72.6916  220.5220 H   0  0  0  0  0  0  0  0  0  0  0  0
  142.3847   73.1354  219.6594 H   0  0  0  0  0  0  0  0  0  0  0  0
  142.4715   72.7815  221.1704 H   0  0  0  0  0  0  0  0  0  0  0  0
  139.0720   69.9851  221.8132 H   0  0  0  0  0  0  0  0  0  0  0  0
  139.1887   68.3349  223.6885 H   0  0  0  0  0  0  0  0  0  0  0  0
  139.7796   67.7930  226.0266 H   0  0  0  0  0  0  0  0  0  0  0  0
  141.4961   70.8864  228.5118 H   0  0  0  0  0  0  0  0  0  0  0  0
  141.3548   72.4809  226.5891 H   0  0  0  0  0  0  0  0  0  0  0  0
  1  2  2  0
  2  3  1  0
  3  4  1  0
  4  5  1  0
  5  6  2  0
  5  7  1  0
  7  8  1  0
  8  9  1  0
  9 10  1  0
 10 11  1  0
 11 12  1  0
 12 13  1  0
 13 14  1  0
 14 15  1  0
 15 16  1  0
 16 17  1  0
  2 18  1  0
 18 19  2  0
 19 20  1  0
 20 21  2  0
 21 22  1  0
 22 23  2  0
 23 24  1  0
 23 25  1  0
 25 26  2  0
 26 27  1  0
 27 28  2  0
 11  7  1  0
 17 15  1  0
 28 18  1  0
 27 21  1  0
  3 29  1  0
  4 30  1  0
  4 31  1  0
  8 32  1  0
  8 33  1  0
  9 34  1  0
  9 35  1  0
 10 36  1  0
 10 37  1  0
 11 38  1  6
 12 39  1  0
 12 40  1  0
 13 41  1  0
 14 42  1  0
 14 43  1  0
 15 44  1  0
 16 45  1  0
 16 46  1  0
 17 47  1  0
 17 48  1  0
 19 49  1  0
 20 50  1  0
 22 51  1  0
 25 52  1  0
 26 53  1  0
M  END
>  <smiles>  (38) 
O=C(NCC(=O)N1CCC[C@H]1CNCC1CC1)c1ccc2cc(Cl)ccc2n1

>  <score_type>  (38) 
oracle

>  <origin>  (38) 
autodockgpu

>  <m_score__min__energy>  (38) 
-8.1199999999999992

>  <m_primary>  (38) 
energy

>  <rmsd>  (38) 
3.95629990912543

>  <m_score__min__rmsd>  (38) 
3.95629990912543

>  <meeko>  (38) 
{"free_energy": -7.33, "intermolecular_energy": -9.72, "internal_energy": -2.63, "cluster_size": 44, "cluster_id": 1, "rank_in_cluster": 31}

>  <energy>  (38) 
-7.1

>  <cluster_rmsd>  (38) 
1.42

>  <cluster>  (38) 
1

$$$$

     RDKit          3D

 53 56  0  0  0  0  0  0  0  0999 V2000
  138.7740   71.9330  220.6780 O   0  0  0  0  0  0  0  0  0  0  0  0
  139.0000   72.3520  221.8240 C   0  0  0  0  0  0  0  0  0  0  0  0
  138.9870   73.7680  222.0600 N   0  0  0  0  0  0  0  0  0  0  0  0
  138.7280   74.7100  221.0300 C   0  0  0  0  0  0  0  0  0  0  0  0
  139.7760   75.5970  220.5820 C   0  0  0  0  0  0  0  0  0  0  0  0
  139.3120   76.7160  220.0830 O   0  0  0  0  0  0  0  0  0  0  0  0
  141.1640   75.5050  220.5770 N   0  0  0  0  0  0  0  0  0  0  0  0
  142.0590   74.3170  220.6700 C   0  0  0  0  0  0  0  0  0  0  0  0
  142.9210   74.5390  219.4380 C   0  0  0  0  0  0  0  0  0  0  0  0
  142.9240   76.0460  219.1810 C   0  0  0  0  0  0  0  0  0  0  0  0
  142.2050   76.5340  220.4250 C   0  0  1  0  0  0  0  0  0  0  0  0
  141.7380   77.9110  220.4290 C   0  0  0  0  0  0  0  0  0  0  0  0
  142.1490   78.6010  221.6110 N   0  0  0  0  0  0  0  0  0  0  0  0
  141.1290   79.1430  222.4330 C   0  0  0  0  0  0  0  0  0  0  0  0
  141.7150   79.7770  223.6650 C   0  0  0  0  0  0  0  0  0  0  0  0
  141.8010   81.2600  223.7660 C   0  0  0  0  0  0  0  0  0  0  0  0
  143.0370   80.4800  223.4730 C   0  0  0  0  0  0  0  0  0  0  0  0
  139.2760   71.4300  222.9290 C   0  0  0  0  0  0  0  0  0  0  0  0
  138.9280   70.1050  222.7910 C   0  0  0  0  0  0  0  0  0  0  0  0
  139.2090   69.2770  223.8660 C   0  0  0  0  0  0  0  0  0  0  0  0
  139.8100   69.7560  225.0270 C   0  0  0  0  0  0  0  0  0  0  0  0
  140.0930   68.9440  226.1040 C   0  0  0  0  0  0  0  0  0  0  0  0
  140.6930   69.5100  227.2180 C   0  0  0  0  0  0  0  0  0  0  0  0
  141.0760   68.5190  228.6240 Cl  0  0  0  0  0  0  0  0  0  0  0  0
  141.0170   70.8470  227.2950 C   0  0  0  0  0  0  0  0  0  0  0  0
  140.7270   71.6450  226.2100 C   0  0  0  0  0  0  0  0  0  0  0  0
  140.1310   71.0820  225.1030 C   0  0  0  0  0  0  0  0  0  0  0  0
  139.8570   71.8740  224.0610 N   0  0  0  0  0  0  0  0  0  0  0  0
  139.1860   74.0670  223.0620 H   0  0  0  0  0  0  0  0  0  0  0  0
  138.3999   74.1366  220.1505 H   0  0  0  0  0  0  0  0  0  0  0  0
  137.9984   75.3928  221.4897 H   0  0  0  0  0  0  0  0  0  0  0  0
  142.6565   74.3273  221.5935 H   0  0  0  0  0  0  0  0  0  0  0  0
  141.5403   73.3476  220.7040 H   0  0  0  0  0  0  0  0  0  0  0  0
  143.9453   74.1819  219.6207 H   0  0  0  0  0  0  0  0  0  0  0  0
  142.5287   73.9868  218.5713 H   0  0  0  0  0  0  0  0  0  0  0  0
  143.9467   76.4463  219.1185 H   0  0  0  0  0  0  0  0  0  0  0  0
  142.4610   76.3523  218.2313 H   0  0  0  0  0  0  0  0  0  0  0  0
  142.8778   76.6235  221.2907 H   0  0  0  0  0  0  0  0  0  0  0  0
  142.1494   78.4303  219.5509 H   0  0  0  0  0  0  0  0  0  0  0  0
  140.6384   77.9021  220.3998 H   0  0  0  0  0  0  0  0  0  0  0  0
  143.0350   79.1140  221.5550 H   0  0  0  0  0  0  0  0  0  0  0  0
  140.5746   79.9044  221.8647 H   0  0  0  0  0  0  0  0  0  0  0  0
  140.4560   78.3295  222.7417 H   0  0  0  0  0  0  0  0  0  0  0  0
  141.3069   78.9965  224.3239 H   0  0  0  0  0  0  0  0  0  0  0  0
  141.3521   81.8891  222.9832 H   0  0  0  0  0  0  0  0  0  0  0  0
  141.5171   82.0002  224.5286 H   0  0  0  0  0  0  0  0  0  0  0  0
  143.4958   80.5285  222.4744 H   0  0  0  0  0  0  0  0  0  0  0  0
  144.0362   80.4012  223.9262 H   0  0  0  0  0  0  0  0  0  0  0  0
  138.4519   69.7238  221.8756 H   0  0  0  0  0  0  0  0  0  0  0  0
  138.9497   68.2100  223.8002 H   0  0  0  0  0  0  0  0  0  0  0  0
  139.8485   67.8718  226.0801 H   0  0  0  0  0  0  0  0  0  0  0  0
  141.4925   71.2643  228.1949 H   0  0  0  0  0  0  0  0  0  0  0  0
  140.9683   72.7181  226.2275 H   0  0  0  0  0  0  0  0  0  0  0  0
  1  2  2  0
  2  3  1  0
  3  4  1  0
  4  5  1  0
  5  6  2  0
  5  7  1  0
  7  8  1  0
  8  9  1  0
  9 10  1  0
 10 11  1  0
 11 12  1  0
 12 13  1  0
 13 14  1  0
 14 15  1  0
 15 16  1  0
 16 17  1  0
  2 18  1  0
 18 19  2  0
 19 20  1  0
 20 21  2  0
 21 22  1  0
 22 23  2  0
 23 24  1  0
 23 25  1  0
 25 26  2  0
 26 27  1  0
 27 28  2  0
 11  7  1  0
 17 15  1  0
 28 18  1  0
 27 21  1  0
  3 29  1  0
  4 30  1  0
  4 31  1  0
  8 32  1  0
  8 33  1  0
  9 34  1  0
  9 35  1  0
 10 36  1  0
 10 37  1  0
 11 38  1  1
 12 39  1  0
 12 40  1  0
 13 41  1  0
 14 42  1  0
 14 43  1  0
 15 44  1  0
 16 45  1  0
 16 46  1  0
 17 47  1  0
 17 48  1  0
 19 49  1  0
 20 50  1  0
 22 51  1  0
 25 52  1  0
 26 53  1  0
M  END
>  <smiles>  (39) 
O=C(NCC(=O)N1CCC[C@H]1CNCC1CC1)c1ccc2cc(Cl)ccc2n1

>  <score_type>  (39) 
oracle

>  <origin>  (39) 
autodockgpu

>  <m_score__min__energy>  (39) 
-8.1199999999999992

>  <m_primary>  (39) 
energy

>  <rmsd>  (39) 
2.282930067154011

>  <m_score__min__rmsd>  (39) 
2.282930067154011

>  <meeko>  (39) 
{"free_energy": -7.82, "intermolecular_energy": -10.21, "internal_energy": -1.49, "cluster_size": 44, "cluster_id": 1, "rank_in_cluster": 11}

>  <energy>  (39) 
-6.98

>  <cluster_rmsd>  (39) 
1.47

>  <cluster>  (39) 
1

$$$$

     RDKit          3D

 53 56  0  0  0  0  0  0  0  0999 V2000
  140.7990   72.4550  221.2110 O   0  0  0  0  0  0  0  0  0  0  0  0
  140.0250   72.5430  222.1770 C   0  0  0  0  0  0  0  0  0  0  0  0
  139.1110   73.6490  222.2350 N   0  0  0  0  0  0  0  0  0  0  0  0
  139.0600   74.6490  221.2290 C   0  0  0  0  0  0  0  0  0  0  0  0
  140.1330   75.6070  221.1070 C   0  0  0  0  0  0  0  0  0  0  0  0
  141.0100   75.5100  222.0760 O   0  0  0  0  0  0  0  0  0  0  0  0
  140.4240   76.5980  220.1750 N   0  0  0  0  0  0  0  0  0  0  0  0
  140.6860   76.5080  218.7110 C   0  0  0  0  0  0  0  0  0  0  0  0
  139.6710   77.5150  218.1970 C   0  0  0  0  0  0  0  0  0  0  0  0
  139.4450   78.5140  219.3320 C   0  0  0  0  0  0  0  0  0  0  0  0
  140.5150   78.0610  220.3090 C   0  0  1  0  0  0  0  0  0  0  0  0
  140.4400   78.5770  221.6660 C   0  0  0  0  0  0  0  0  0  0  0  0
  141.4010   77.9490  222.5190 N   0  0  0  0  0  0  0  0  0  0  0  0
  141.7790   78.6470  223.6930 C   0  0  0  0  0  0  0  0  0  0  0  0
  141.6100   80.1300  223.5120 C   0  0  0  0  0  0  0  0  0  0  0  0
  142.5050   80.8700  222.5810 C   0  0  0  0  0  0  0  0  0  0  0  0
  142.7290   80.9870  224.0490 C   0  0  0  0  0  0  0  0  0  0  0  0
  140.0320   71.5440  223.2480 C   0  0  0  0  0  0  0  0  0  0  0  0
  139.5370   70.2860  222.9860 C   0  0  0  0  0  0  0  0  0  0  0  0
  139.5640   69.3800  224.0350 C   0  0  0  0  0  0  0  0  0  0  0  0
  140.0630   69.7210  225.2890 C   0  0  0  0  0  0  0  0  0  0  0  0
  140.0940   68.8300  226.3400 C   0  0  0  0  0  0  0  0  0  0  0  0
  140.6100   69.2590  227.5530 C   0  0  0  0  0  0  0  0  0  0  0  0
  140.6730   68.1630  228.9320 Cl  0  0  0  0  0  0  0  0  0  0  0  0
  141.0910   70.5340  227.7530 C   0  0  0  0  0  0  0  0  0  0  0  0
  141.0530   71.4120  226.6920 C   0  0  0  0  0  0  0  0  0  0  0  0
  140.5400   70.9860  225.4870 C   0  0  0  0  0  0  0  0  0  0  0  0
  140.5110   71.8540  224.4690 N   0  0  0  0  0  0  0  0  0  0  0  0
  138.4720   73.6700  223.0860 H   0  0  0  0  0  0  0  0  0  0  0  0
  138.9910   74.1252  220.2642 H   0  0  0  0  0  0  0  0  0  0  0  0
  138.2024   75.2679  221.5317 H   0  0  0  0  0  0  0  0  0  0  0  0
  141.7159   76.8035  218.4620 H   0  0  0  0  0  0  0  0  0  0  0  0
  140.5919   75.4980  218.2854 H   0  0  0  0  0  0  0  0  0  0  0  0
  140.0628   78.0308  217.3080 H   0  0  0  0  0  0  0  0  0  0  0  0
  138.7318   77.0225  217.9050 H   0  0  0  0  0  0  0  0  0  0  0  0
  139.6086   79.5501  219.0008 H   0  0  0  0  0  0  0  0  0  0  0  0
  138.4235   78.5241  219.7399 H   0  0  0  0  0  0  0  0  0  0  0  0
  141.5059   78.4734  220.0682 H   0  0  0  0  0  0  0  0  0  0  0  0
  140.6318   79.6600  221.6478 H   0  0  0  0  0  0  0  0  0  0  0  0
  139.4359   78.3640  222.0614 H   0  0  0  0  0  0  0  0  0  0  0  0
  142.1150   77.3770  222.0570 H   0  0  0  0  0  0  0  0  0  0  0  0
  141.1488   78.3120  224.5301 H   0  0  0  0  0  0  0  0  0  0  0  0
  142.8382   78.4364  223.9020 H   0  0  0  0  0  0  0  0  0  0  0  0
  140.5173   80.0707  223.6239 H   0  0  0  0  0  0  0  0  0  0  0  0
  143.2254   80.3181  221.9594 H   0  0  0  0  0  0  0  0  0  0  0  0
  142.3456   81.5890  221.7639 H   0  0  0  0  0  0  0  0  0  0  0  0
  143.6098   80.5175  224.5114 H   0  0  0  0  0  0  0  0  0  0  0  0
  142.8001   81.8201  224.7638 H   0  0  0  0  0  0  0  0  0  0  0  0
  139.1410   70.0142  221.9964 H   0  0  0  0  0  0  0  0  0  0  0  0
  139.1800   68.3622  223.8717 H   0  0  0  0  0  0  0  0  0  0  0  0
  139.7183   67.8032  226.2192 H   0  0  0  0  0  0  0  0  0  0  0  0
  141.4930   70.8417  228.7296 H   0  0  0  0  0  0  0  0  0  0  0  0
  141.4275   72.4400  226.8059 H   0  0  0  0  0  0  0  0  0  0  0  0
  1  2  2  0
  2  3  1  0
  3  4  1  0
  4  5  1  0
  5  6  2  0
  5  7  1  0
  7  8  1  0
  8  9  1  0
  9 10  1  0
 10 11  1  0
 11 12  1  0
 12 13  1  0
 13 14  1  0
 14 15  1  0
 15 16  1  0
 16 17  1  0
  2 18  1  0
 18 19  2  0
 19 20  1  0
 20 21  2  0
 21 22  1  0
 22 23  2  0
 23 24  1  0
 23 25  1  0
 25 26  2  0
 26 27  1  0
 27 28  2  0
 11  7  1  0
 17 15  1  0
 28 18  1  0
 27 21  1  0
  3 29  1  0
  4 30  1  0
  4 31  1  0
  8 32  1  0
  8 33  1  0
  9 34  1  0
  9 35  1  0
 10 36  1  0
 10 37  1  0
 11 38  1  6
 12 39  1  0
 12 40  1  0
 13 41  1  0
 14 42  1  0
 14 43  1  0
 15 44  1  0
 16 45  1  0
 16 46  1  0
 17 47  1  0
 17 48  1  0
 19 49  1  0
 20 50  1  0
 22 51  1  0
 25 52  1  0
 26 53  1  0
M  END
>  <smiles>  (40) 
O=C(NCC(=O)N1CCC[C@H]1CNCC1CC1)c1ccc2cc(Cl)ccc2n1

>  <score_type>  (40) 
oracle

>  <origin>  (40) 
autodockgpu

>  <m_score__min__energy>  (40) 
-8.1199999999999992

>  <m_primary>  (40) 
energy

>  <rmsd>  (40) 
2.0330603022744

>  <m_score__min__rmsd>  (40) 
2.0330603022744

>  <meeko>  (40) 
{"free_energy": -7.97, "intermolecular_energy": -10.36, "internal_energy": -1.77, "cluster_size": 44, "cluster_id": 1, "rank_in_cluster": 6}

>  <energy>  (40) 
-6.88

>  <cluster_rmsd>  (40) 
1.3

>  <cluster>  (40) 
1

$$$$

     RDKit          3D

 53 56  0  0  0  0  0  0  0  0999 V2000
  139.6880   72.0340  220.8350 O   0  0  0  0  0  0  0  0  0  0  0  0
  139.6500   72.3850  222.0250 C   0  0  0  0  0  0  0  0  0  0  0  0
  139.4850   73.7770  222.3330 N   0  0  0  0  0  0  0  0  0  0  0  0
  139.3660   74.7720  221.3270 C   0  0  0  0  0  0  0  0  0  0  0  0
  140.3900   75.7780  221.1810 C   0  0  0  0  0  0  0  0  0  0  0  0
  141.5770   75.3470  221.5300 O   0  0  0  0  0  0  0  0  0  0  0  0
  140.3720   77.1000  220.7450 N   0  0  0  0  0  0  0  0  0  0  0  0
  139.5450   78.2580  221.1880 C   0  0  0  0  0  0  0  0  0  0  0  0
  140.6420   79.2660  221.4870 C   0  0  0  0  0  0  0  0  0  0  0  0
  141.8270   78.8890  220.5990 C   0  0  0  0  0  0  0  0  0  0  0  0
  141.1930   77.8040  219.7470 C   0  0  1  0  0  0  0  0  0  0  0  0
  142.0840   76.9690  218.9580 C   0  0  0  0  0  0  0  0  0  0  0  0
  143.1320   76.4170  219.7590 N   0  0  0  0  0  0  0  0  0  0  0  0
  143.7190   75.2070  219.3140 C   0  0  0  0  0  0  0  0  0  0  0  0
  144.1070   74.3400  220.4800 C   0  0  0  0  0  0  0  0  0  0  0  0
  145.5450   74.1480  220.8150 C   0  0  0  0  0  0  0  0  0  0  0  0
  144.8050   73.0490  220.1320 C   0  0  0  0  0  0  0  0  0  0  0  0
  139.7700   71.4060  223.1080 C   0  0  0  0  0  0  0  0  0  0  0  0
  139.3630   70.1110  222.8810 C   0  0  0  0  0  0  0  0  0  0  0  0
  139.4950   69.2260  223.9410 C   0  0  0  0  0  0  0  0  0  0  0  0
  140.0110   69.6240  225.1710 C   0  0  0  0  0  0  0  0  0  0  0  0
  140.1460   68.7550  226.2320 C   0  0  0  0  0  0  0  0  0  0  0  0
  140.6690   69.2420  227.4200 C   0  0  0  0  0  0  0  0  0  0  0  0
  140.8630   68.1760  228.8110 Cl  0  0  0  0  0  0  0  0  0  0  0  0
  141.0580   70.5530  227.5860 C   0  0  0  0  0  0  0  0  0  0  0  0
  140.9160   71.4080  226.5150 C   0  0  0  0  0  0  0  0  0  0  0  0
  140.3960   70.9240  225.3350 C   0  0  0  0  0  0  0  0  0  0  0  0
  140.2660   71.7710  224.3070 N   0  0  0  0  0  0  0  0  0  0  0  0
  139.4580   74.0160  223.3700 H   0  0  0  0  0  0  0  0  0  0  0  0
  139.3006   74.2437  220.3644 H   0  0  0  0  0  0  0  0  0  0  0  0
  138.4874   75.3510  221.6475 H   0  0  0  0  0  0  0  0  0  0  0  0
  138.8739   78.6094  220.3904 H   0  0  0  0  0  0  0  0  0  0  0  0
  138.8665   78.0486  222.0281 H   0  0  0  0  0  0  0  0  0  0  0  0
  140.2982   80.2839  221.2509 H   0  0  0  0  0  0  0  0  0  0  0  0
  140.9197   79.2497  222.5512 H   0  0  0  0  0  0  0  0  0  0  0  0
  142.1655   79.7396  219.9892 H   0  0  0  0  0  0  0  0  0  0  0  0
  142.7302   78.5775  221.1442 H   0  0  0  0  0  0  0  0  0  0  0  0
  140.6200   78.2140  218.9023 H   0  0  0  0  0  0  0  0  0  0  0  0
  141.5033   76.1472  218.5135 H   0  0  0  0  0  0  0  0  0  0  0  0
  142.5402   77.5941  218.1762 H   0  0  0  0  0  0  0  0  0  0  0  0
  143.0570   76.5640  220.7710 H   0  0  0  0  0  0  0  0  0  0  0  0
  142.9960   74.6650  218.6867 H   0  0  0  0  0  0  0  0  0  0  0  0
  144.6241   75.4462  218.7365 H   0  0  0  0  0  0  0  0  0  0  0  0
  143.2282   74.6466  221.0663 H   0  0  0  0  0  0  0  0  0  0  0  0
  146.3148   74.7123  220.2682 H   0  0  0  0  0  0  0  0  0  0  0  0
  146.1405   74.2225  221.7369 H   0  0  0  0  0  0  0  0  0  0  0  0
  145.0241   72.8065  219.0817 H   0  0  0  0  0  0  0  0  0  0  0  0
  144.6243   71.9837  220.3384 H   0  0  0  0  0  0  0  0  0  0  0  0
  138.9545   69.7944  221.9100 H   0  0  0  0  0  0  0  0  0  0  0  0
  139.1830   68.1799  223.8057 H   0  0  0  0  0  0  0  0  0  0  0  0
  139.8461   67.7008  226.1386 H   0  0  0  0  0  0  0  0  0  0  0  0
  141.4690   70.9061  228.5433 H   0  0  0  0  0  0  0  0  0  0  0  0
  141.2140   72.4633  226.6012 H   0  0  0  0  0  0  0  0  0  0  0  0
  1  2  2  0
  2  3  1  0
  3  4  1  0
  4  5  1  0
  5  6  2  0
  5  7  1  0
  7  8  1  0
  8  9  1  0
  9 10  1  0
 10 11  1  0
 11 12  1  0
 12 13  1  0
 13 14  1  0
 14 15  1  0
 15 16  1  0
 16 17  1  0
  2 18  1  0
 18 19  2  0
 19 20  1  0
 20 21  2  0
 21 22  1  0
 22 23  2  0
 23 24  1  0
 23 25  1  0
 25 26  2  0
 26 27  1  0
 27 28  2  0
 11  7  1  0
 17 15  1  0
 28 18  1  0
 27 21  1  0
  3 29  1  0
  4 30  1  0
  4 31  1  0
  8 32  1  0
  8 33  1  0
  9 34  1  0
  9 35  1  0
 10 36  1  0
 10 37  1  0
 11 38  1  6
 12 39  1  0
 12 40  1  0
 13 41  1  0
 14 42  1  0
 14 43  1  0
 15 44  1  0
 16 45  1  0
 16 46  1  0
 17 47  1  0
 17 48  1  0
 19 49  1  0
 20 50  1  0
 22 51  1  0
 25 52  1  0
 26 53  1  0
M  END
>  <smiles>  (41) 
O=C(NCC(=O)N1CCC[C@H]1CNCC1CC1)c1ccc2cc(Cl)ccc2n1

>  <score_type>  (41) 
oracle

>  <origin>  (41) 
autodockgpu

>  <m_score__min__energy>  (41) 
-8.1199999999999992

>  <m_primary>  (41) 
energy

>  <rmsd>  (41) 
3.9748247085642676

>  <m_score__min__rmsd>  (41) 
3.9748247085642676

>  <meeko>  (41) 
{"free_energy": -7.58, "intermolecular_energy": -9.97, "internal_energy": -2.23, "cluster_size": 44, "cluster_id": 1, "rank_in_cluster": 21}

>  <energy>  (41) 
-6.86

>  <cluster_rmsd>  (41) 
1.65

>  <cluster>  (41) 
1

$$$$

     RDKit          3D

 53 56  0  0  0  0  0  0  0  0999 V2000
  138.9050   71.6650  221.0690 O   0  0  0  0  0  0  0  0  0  0  0  0
  139.2950   72.0630  222.1770 C   0  0  0  0  0  0  0  0  0  0  0  0
  139.5620   73.4630  222.3570 N   0  0  0  0  0  0  0  0  0  0  0  0
  139.3990   74.4100  221.3130 C   0  0  0  0  0  0  0  0  0  0  0  0
  140.1490   75.6430  221.3320 C   0  0  0  0  0  0  0  0  0  0  0  0
  141.2420   75.5590  222.0510 O   0  0  0  0  0  0  0  0  0  0  0  0
  139.9510   76.8880  220.7430 N   0  0  0  0  0  0  0  0  0  0  0  0
  138.9590   77.9580  221.0450 C   0  0  0  0  0  0  0  0  0  0  0  0
  139.8940   79.1420  221.2260 C   0  0  0  0  0  0  0  0  0  0  0  0
  141.1380   78.8390  220.3920 C   0  0  0  0  0  0  0  0  0  0  0  0
  140.6820   77.5830  219.6720 C   0  0  1  0  0  0  0  0  0  0  0  0
  141.6980   76.8000  218.9890 C   0  0  0  0  0  0  0  0  0  0  0  0
  142.7930   76.4920  219.8540 N   0  0  0  0  0  0  0  0  0  0  0  0
  143.6920   75.4820  219.4300 C   0  0  0  0  0  0  0  0  0  0  0  0
  143.9270   74.4800  220.5260 C   0  0  0  0  0  0  0  0  0  0  0  0
  145.2290   73.7630  220.6090 C   0  0  0  0  0  0  0  0  0  0  0  0
  144.0350   73.0410  220.0860 C   0  0  0  0  0  0  0  0  0  0  0  0
  139.4860   71.1340  223.2940 C   0  0  0  0  0  0  0  0  0  0  0  0
  139.0680   69.8300  223.1510 C   0  0  0  0  0  0  0  0  0  0  0  0
  139.2690   68.9940  224.2390 C   0  0  0  0  0  0  0  0  0  0  0  0
  139.8610   69.4460  225.4150 C   0  0  0  0  0  0  0  0  0  0  0  0
  140.0640   68.6260  226.5030 C   0  0  0  0  0  0  0  0  0  0  0  0
  140.6610   69.1650  227.6330 C   0  0  0  0  0  0  0  0  0  0  0  0
  140.9450   68.1620  229.0550 Cl  0  0  0  0  0  0  0  0  0  0  0  0
  141.0570   70.4810  227.7140 C   0  0  0  0  0  0  0  0  0  0  0  0
  140.8460   71.2880  226.6170 C   0  0  0  0  0  0  0  0  0  0  0  0
  140.2530   70.7520  225.4950 C   0  0  0  0  0  0  0  0  0  0  0  0
  140.0560   71.5520  224.4410 N   0  0  0  0  0  0  0  0  0  0  0  0
  139.8920   73.7440  223.3290 H   0  0  0  0  0  0  0  0  0  0  0  0
  139.6570   73.8961  220.3753 H   0  0  0  0  0  0  0  0  0  0  0  0
  138.3588   74.7455  221.4369 H   0  0  0  0  0  0  0  0  0  0  0  0
  138.2600   78.1139  220.2101 H   0  0  0  0  0  0  0  0  0  0  0  0
  138.3018   77.7515  221.9026 H   0  0  0  0  0  0  0  0  0  0  0  0
  139.4127   80.0650  220.8703 H   0  0  0  0  0  0  0  0  0  0  0  0
  140.1499   79.2904  222.2855 H   0  0  0  0  0  0  0  0  0  0  0  0
  141.3638   79.6529  219.6873 H   0  0  0  0  0  0  0  0  0  0  0  0
  142.0655   78.7261  220.9726 H   0  0  0  0  0  0  0  0  0  0  0  0
  140.0724   77.8058  218.7839 H   0  0  0  0  0  0  0  0  0  0  0  0
  141.2473   75.8611  218.6351 H   0  0  0  0  0  0  0  0  0  0  0  0
  142.0813   77.3934  218.1458 H   0  0  0  0  0  0  0  0  0  0  0  0
  142.6160   76.5760  220.8610 H   0  0  0  0  0  0  0  0  0  0  0  0
  143.2685   74.9667  218.5553 H   0  0  0  0  0  0  0  0  0  0  0  0
  144.6523   75.9518  219.1707 H   0  0  0  0  0  0  0  0  0  0  0  0
  143.3339   75.0574  221.2505 H   0  0  0  0  0  0  0  0  0  0  0  0
  146.0478   74.0338  219.9261 H   0  0  0  0  0  0  0  0  0  0  0  0
  145.9567   73.5729  221.4117 H   0  0  0  0  0  0  0  0  0  0  0  0
  143.9697   72.7846  219.0183 H   0  0  0  0  0  0  0  0  0  0  0  0
  143.5149   72.1058  220.3405 H   0  0  0  0  0  0  0  0  0  0  0  0
  138.5995   69.4704  222.2230 H   0  0  0  0  0  0  0  0  0  0  0  0
  138.9514   67.9431  224.1707 H   0  0  0  0  0  0  0  0  0  0  0  0
  139.7600   67.5692  226.4763 H   0  0  0  0  0  0  0  0  0  0  0  0
  141.5274   70.8763  228.6264 H   0  0  0  0  0  0  0  0  0  0  0  0
  141.1470   72.3458  226.6370 H   0  0  0  0  0  0  0  0  0  0  0  0
  1  2  2  0
  2  3  1  0
  3  4  1  0
  4  5  1  0
  5  6  2  0
  5  7  1  0
  7  8  1  0
  8  9  1  0
  9 10  1  0
 10 11  1  0
 11 12  1  0
 12 13  1  0
 13 14  1  0
 14 15  1  0
 15 16  1  0
 16 17  1  0
  2 18  1  0
 18 19  2  0
 19 20  1  0
 20 21  2  0
 21 22  1  0
 22 23  2  0
 23 24  1  0
 23 25  1  0
 25 26  2  0
 26 27  1  0
 27 28  2  0
 11  7  1  0
 17 15  1  0
 28 18  1  0
 27 21  1  0
  3 29  1  0
  4 30  1  0
  4 31  1  0
  8 32  1  0
  8 33  1  0
  9 34  1  0
  9 35  1  0
 10 36  1  0
 10 37  1  0
 11 38  1  6
 12 39  1  0
 12 40  1  0
 13 41  1  0
 14 42  1  0
 14 43  1  0
 15 44  1  0
 16 45  1  0
 16 46  1  0
 17 47  1  0
 17 48  1  0
 19 49  1  0
 20 50  1  0
 22 51  1  0
 25 52  1  0
 26 53  1  0
M  END
>  <smiles>  (42) 
O=C(NCC(=O)N1CCC[C@H]1CNCC1CC1)c1ccc2cc(Cl)ccc2n1

>  <score_type>  (42) 
oracle

>  <origin>  (42) 
autodockgpu

>  <m_score__min__energy>  (42) 
-8.1199999999999992

>  <m_primary>  (42) 
energy

>  <rmsd>  (42) 
3.8314834771122186

>  <m_score__min__rmsd>  (42) 
3.8314834771122186

>  <meeko>  (42) 
{"free_energy": -7.12, "intermolecular_energy": -9.51, "internal_energy": -2.59, "cluster_size": 44, "cluster_id": 1, "rank_in_cluster": 37}

>  <energy>  (42) 
-6.76

>  <cluster_rmsd>  (42) 
1.6

>  <cluster>  (42) 
1

$$$$

     RDKit          3D

 53 56  0  0  0  0  0  0  0  0999 V2000
  139.5440   71.7190  220.9030 O   0  0  0  0  0  0  0  0  0  0  0  0
  139.5900   72.1140  222.0780 C   0  0  0  0  0  0  0  0  0  0  0  0
  139.4960   73.5220  222.3410 N   0  0  0  0  0  0  0  0  0  0  0  0
  139.3540   74.4830  221.3060 C   0  0  0  0  0  0  0  0  0  0  0  0
  140.3670   75.4940  221.1150 C   0  0  0  0  0  0  0  0  0  0  0  0
  140.7890   76.0070  222.2440 O   0  0  0  0  0  0  0  0  0  0  0  0
  140.9810   76.0250  219.9850 N   0  0  0  0  0  0  0  0  0  0  0  0
  141.1530   77.4380  219.5460 C   0  0  0  0  0  0  0  0  0  0  0  0
  142.6570   77.4670  219.3310 C   0  0  0  0  0  0  0  0  0  0  0  0
  143.0720   76.0340  219.0010 C   0  0  0  0  0  0  0  0  0  0  0  0
  141.7080   75.3780  218.8810 C   0  0  1  0  0  0  0  0  0  0  0  0
  141.6660   73.9250  218.8610 C   0  0  0  0  0  0  0  0  0  0  0  0
  142.3320   73.3660  219.9960 N   0  0  0  0  0  0  0  0  0  0  0  0
  143.0220   72.1430  219.8050 C   0  0  0  0  0  0  0  0  0  0  0  0
  144.4610   72.2700  220.2220 C   0  0  0  0  0  0  0  0  0  0  0  0
  144.9390   73.5240  220.8660 C   0  0  0  0  0  0  0  0  0  0  0  0
  145.2840   73.2630  219.4400 C   0  0  0  0  0  0  0  0  0  0  0  0
  139.7380   71.1720  223.1900 C   0  0  0  0  0  0  0  0  0  0  0  0
  139.3470   69.8640  223.0080 C   0  0  0  0  0  0  0  0  0  0  0  0
  139.5060   69.0150  224.0930 C   0  0  0  0  0  0  0  0  0  0  0  0
  140.0330   69.4590  225.3040 C   0  0  0  0  0  0  0  0  0  0  0  0
  140.1940   68.6250  226.3890 C   0  0  0  0  0  0  0  0  0  0  0  0
  140.7270   69.1560  227.5540 C   0  0  0  0  0  0  0  0  0  0  0  0
  140.9540   68.1370  228.9750 Cl  0  0  0  0  0  0  0  0  0  0  0  0
  141.0990   70.4760  227.6730 C   0  0  0  0  0  0  0  0  0  0  0  0
  140.9310   71.2960  226.5790 C   0  0  0  0  0  0  0  0  0  0  0  0
  140.4020   70.7680  225.4210 C   0  0  0  0  0  0  0  0  0  0  0  0
  140.2460   71.5810  224.3700 N   0  0  0  0  0  0  0  0  0  0  0  0
  139.5400   73.8000  223.3680 H   0  0  0  0  0  0  0  0  0  0  0  0
  139.2814   73.9239  220.3615 H   0  0  0  0  0  0  0  0  0  0  0  0
  138.4737   75.0635  221.6193 H   0  0  0  0  0  0  0  0  0  0  0  0
  140.6037   77.6462  218.6160 H   0  0  0  0  0  0  0  0  0  0  0  0
  140.7714   78.1915  220.2507 H   0  0  0  0  0  0  0  0  0  0  0  0
  142.9094   78.1381  218.4968 H   0  0  0  0  0  0  0  0  0  0  0  0
  143.1809   77.8389  220.2239 H   0  0  0  0  0  0  0  0  0  0  0  0
  143.6341   75.9801  218.0570 H   0  0  0  0  0  0  0  0  0  0  0  0
  143.7441   75.5681  219.7366 H   0  0  0  0  0  0  0  0  0  0  0  0
  141.2525   75.5330  217.8918 H   0  0  0  0  0  0  0  0  0  0  0  0
  140.6159   73.5976  218.8657 H   0  0  0  0  0  0  0  0  0  0  0  0
  142.1805   73.5773  217.9530 H   0  0  0  0  0  0  0  0  0  0  0  0
  141.8900   73.5230  220.9080 H   0  0  0  0  0  0  0  0  0  0  0  0
  142.5399   71.3592  220.4077 H   0  0  0  0  0  0  0  0  0  0  0  0
  142.9865   71.8817  218.7371 H   0  0  0  0  0  0  0  0  0  0  0  0
  144.5288   71.2065  220.4947 H   0  0  0  0  0  0  0  0  0  0  0  0
  144.2208   74.3178  221.1193 H   0  0  0  0  0  0  0  0  0  0  0  0
  145.5190   73.7552  221.7716 H   0  0  0  0  0  0  0  0  0  0  0  0
  144.8171   73.8588  218.6419 H   0  0  0  0  0  0  0  0  0  0  0  0
  146.2164   73.2177  218.8582 H   0  0  0  0  0  0  0  0  0  0  0  0
  138.9307   69.5115  222.0528 H   0  0  0  0  0  0  0  0  0  0  0  0
  139.2075   67.9608  223.9947 H   0  0  0  0  0  0  0  0  0  0  0  0
  139.9069   67.5646  226.3325 H   0  0  0  0  0  0  0  0  0  0  0  0
  141.5177   70.8642  228.6132 H   0  0  0  0  0  0  0  0  0  0  0  0
  141.2151   72.3575  226.6289 H   0  0  0  0  0  0  0  0  0  0  0  0
  1  2  2  0
  2  3  1  0
  3  4  1  0
  4  5  1  0
  5  6  2  0
  5  7  1  0
  7  8  1  0
  8  9  1  0
  9 10  1  0
 10 11  1  0
 11 12  1  0
 12 13  1  0
 13 14  1  0
 14 15  1  0
 15 16  1  0
 16 17  1  0
  2 18  1  0
 18 19  2  0
 19 20  1  0
 20 21  2  0
 21 22  1  0
 22 23  2  0
 23 24  1  0
 23 25  1  0
 25 26  2  0
 26 27  1  0
 27 28  2  0
 11  7  1  0
 17 15  1  0
 28 18  1  0
 27 21  1  0
  3 29  1  0
  4 30  1  0
  4 31  1  0
  8 32  1  0
  8 33  1  0
  9 34  1  0
  9 35  1  0
 10 36  1  0
 10 37  1  0
 11 38  1  6
 12 39  1  0
 12 40  1  0
 13 41  1  0
 14 42  1  0
 14 43  1  0
 15 44  1  0
 16 45  1  0
 16 46  1  0
 17 47  1  0
 17 48  1  0
 19 49  1  0
 20 50  1  0
 22 51  1  0
 25 52  1  0
 26 53  1  0
M  END
>  <smiles>  (43) 
O=C(NCC(=O)N1CCC[C@H]1CNCC1CC1)c1ccc2cc(Cl)ccc2n1

>  <score_type>  (43) 
oracle

>  <origin>  (43) 
autodockgpu

>  <m_score__min__energy>  (43) 
-8.1199999999999992

>  <m_primary>  (43) 
energy

>  <rmsd>  (43) 
4.097280044519955

>  <m_score__min__rmsd>  (43) 
4.097280044519955

>  <meeko>  (43) 
{"free_energy": -6.57, "intermolecular_energy": -8.96, "internal_energy": -2.29, "cluster_size": 44, "cluster_id": 1, "rank_in_cluster": 43}

>  <energy>  (43) 
-6.57

>  <cluster_rmsd>  (43) 
1.66

>  <cluster>  (43) 
1

$$$$

     RDKit          3D

 53 56  0  0  0  0  0  0  0  0999 V2000
  139.8610   73.8030  222.3340 O   0  0  0  0  0  0  0  0  0  0  0  0
  139.7360   72.5950  222.0800 C   0  0  0  0  0  0  0  0  0  0  0  0
  139.5130   72.1910  220.7190 N   0  0  0  0  0  0  0  0  0  0  0  0
  139.4280   73.1240  219.6520 C   0  0  0  0  0  0  0  0  0  0  0  0
  140.4850   74.0860  219.4480 C   0  0  0  0  0  0  0  0  0  0  0  0
  140.2670   74.8650  218.4170 O   0  0  0  0  0  0  0  0  0  0  0  0
  141.6730   74.3540  220.1210 N   0  0  0  0  0  0  0  0  0  0  0  0
  142.7000   73.4310  220.6810 C   0  0  0  0  0  0  0  0  0  0  0  0
  143.9470   73.9880  220.0150 C   0  0  0  0  0  0  0  0  0  0  0  0
  143.6620   75.4640  219.7350 C   0  0  0  0  0  0  0  0  0  0  0  0
  142.3350   75.6250  220.4540 C   0  0  1  0  0  0  0  0  0  0  0  0
  141.5690   76.8290  220.1780 C   0  0  0  0  0  0  0  0  0  0  0  0
  141.4390   77.6470  221.3430 N   0  0  0  0  0  0  0  0  0  0  0  0
  141.5130   79.0500  221.1620 C   0  0  0  0  0  0  0  0  0  0  0  0
  141.3650   79.7680  222.4750 C   0  0  0  0  0  0  0  0  0  0  0  0
  142.5750   80.1210  223.2670 C   0  0  0  0  0  0  0  0  0  0  0  0
  141.7330   78.9700  223.7020 C   0  0  0  0  0  0  0  0  0  0  0  0
  139.8110   71.5850  223.1370 C   0  0  0  0  0  0  0  0  0  0  0  0
  139.3450   70.3150  222.8780 C   0  0  0  0  0  0  0  0  0  0  0  0
  139.4380   69.3990  223.9150 C   0  0  0  0  0  0  0  0  0  0  0  0
  139.9720   69.7420  225.1540 C   0  0  0  0  0  0  0  0  0  0  0  0
  140.0670   68.8410  226.1930 C   0  0  0  0  0  0  0  0  0  0  0  0
  140.6130   69.2720  227.3920 C   0  0  0  0  0  0  0  0  0  0  0  0
  140.7590   68.1630  228.7550 Cl  0  0  0  0  0  0  0  0  0  0  0  0
  141.0620   70.5590  227.5900 C   0  0  0  0  0  0  0  0  0  0  0  0
  140.9590   71.4470  226.5410 C   0  0  0  0  0  0  0  0  0  0  0  0
  140.4160   71.0180  225.3500 C   0  0  0  0  0  0  0  0  0  0  0  0
  140.3240   71.8960  224.3450 N   0  0  0  0  0  0  0  0  0  0  0  0
  139.4150   71.1430  220.5630 H   0  0  0  0  0  0  0  0  0  0  0  0
  139.3480   72.5387  218.7241 H   0  0  0  0  0  0  0  0  0  0  0  0
  138.5674   73.7496  219.9313 H   0  0  0  0  0  0  0  0  0  0  0  0
  142.7570   73.5007  221.7773 H   0  0  0  0  0  0  0  0  0  0  0  0
  142.5134   72.3630  220.4952 H   0  0  0  0  0  0  0  0  0  0  0  0
  144.8135   73.8880  220.6852 H   0  0  0  0  0  0  0  0  0  0  0  0
  144.1821   73.4437  219.0884 H   0  0  0  0  0  0  0  0  0  0  0  0
  144.4380   76.1164  220.1618 H   0  0  0  0  0  0  0  0  0  0  0  0
  143.6441   75.7354  218.6692 H   0  0  0  0  0  0  0  0  0  0  0  0
  142.4596   75.7967  221.5333 H   0  0  0  0  0  0  0  0  0  0  0  0
  142.0797   77.4050  219.3922 H   0  0  0  0  0  0  0  0  0  0  0  0
  140.5617   76.5297  219.8529 H   0  0  0  0  0  0  0  0  0  0  0  0
  141.8170   77.2610  222.2150 H   0  0  0  0  0  0  0  0  0  0  0  0
  142.4872   79.3053  220.7195 H   0  0  0  0  0  0  0  0  0  0  0  0
  140.6953   79.3625  220.4959 H   0  0  0  0  0  0  0  0  0  0  0  0
  140.4981   80.3452  222.1208 H   0  0  0  0  0  0  0  0  0  0  0  0
  143.5758   79.9399  222.8480 H   0  0  0  0  0  0  0  0  0  0  0  0
  142.9404   81.0380  223.7523 H   0  0  0  0  0  0  0  0  0  0  0  0
  142.1091   77.9415  223.5985 H   0  0  0  0  0  0  0  0  0  0  0  0
  141.2188   78.6863  224.6321 H   0  0  0  0  0  0  0  0  0  0  0  0
  138.9214   70.0418  221.9003 H   0  0  0  0  0  0  0  0  0  0  0  0
  139.0794   68.3716  223.7539 H   0  0  0  0  0  0  0  0  0  0  0  0
  139.7179   67.8048  226.0734 H   0  0  0  0  0  0  0  0  0  0  0  0
  141.4894   70.8684  228.5552 H   0  0  0  0  0  0  0  0  0  0  0  0
  141.3059   72.4848  226.6534 H   0  0  0  0  0  0  0  0  0  0  0  0
  1  2  2  0
  2  3  1  0
  3  4  1  0
  4  5  1  0
  5  6  2  0
  5  7  1  0
  7  8  1  0
  8  9  1  0
  9 10  1  0
 10 11  1  0
 11 12  1  0
 12 13  1  0
 13 14  1  0
 14 15  1  0
 15 16  1  0
 16 17  1  0
  2 18  1  0
 18 19  2  0
 19 20  1  0
 20 21  2  0
 21 22  1  0
 22 23  2  0
 23 24  1  0
 23 25  1  0
 25 26  2  0
 26 27  1  0
 27 28  2  0
 11  7  1  0
 17 15  1  0
 28 18  1  0
 27 21  1  0
  3 29  1  0
  4 30  1  0
  4 31  1  0
  8 32  1  0
  8 33  1  0
  9 34  1  0
  9 35  1  0
 10 36  1  0
 10 37  1  0
 11 38  1  1
 12 39  1  0
 12 40  1  0
 13 41  1  0
 14 42  1  0
 14 43  1  0
 15 44  1  0
 16 45  1  0
 16 46  1  0
 17 47  1  0
 17 48  1  0
 19 49  1  0
 20 50  1  0
 22 51  1  0
 25 52  1  0
 26 53  1  0
M  END
>  <smiles>  (44) 
O=C(NCC(=O)N1CCC[C@H]1CNCC1CC1)c1ccc2cc(Cl)ccc2n1

>  <score_type>  (44) 
oracle

>  <origin>  (44) 
autodockgpu

>  <m_score__min__energy>  (44) 
-8.1199999999999992

>  <m_primary>  (44) 
energy

>  <rmsd>  (44) 
2.878753086568021

>  <m_score__min__rmsd>  (44) 
2.878753086568021

>  <meeko>  (44) 
{"free_energy": -7.95, "intermolecular_energy": -10.34, "internal_energy": -1.35, "cluster_size": 44, "cluster_id": 1, "rank_in_cluster": 8}

>  <energy>  (44) 
-6.28

>  <cluster_rmsd>  (44) 
1.83

>  <cluster>  (44) 
1

$$$$

     RDKit          3D

 53 56  0  0  0  0  0  0  0  0999 V2000
  139.2860   71.8420  220.7130 O   0  0  0  0  0  0  0  0  0  0  0  0
  139.4330   72.2280  221.8830 C   0  0  0  0  0  0  0  0  0  0  0  0
  139.4470   73.6380  222.1520 N   0  0  0  0  0  0  0  0  0  0  0  0
  139.3020   74.6110  221.1280 C   0  0  0  0  0  0  0  0  0  0  0  0
  139.4050   76.0150  221.4460 C   0  0  0  0  0  0  0  0  0  0  0  0
  139.5830   76.2320  222.7260 O   0  0  0  0  0  0  0  0  0  0  0  0
  139.3580   77.1720  220.6750 N   0  0  0  0  0  0  0  0  0  0  0  0
  138.3040   77.6840  219.7540 C   0  0  0  0  0  0  0  0  0  0  0  0
  138.1080   79.0790  220.3260 C   0  0  0  0  0  0  0  0  0  0  0  0
  139.4310   79.4600  220.9900 C   0  0  0  0  0  0  0  0  0  0  0  0
  140.3010   78.2960  220.5510 C   0  0  1  0  0  0  0  0  0  0  0  0
  141.5780   78.1260  221.2250 C   0  0  0  0  0  0  0  0  0  0  0  0
  141.4040   77.8030  222.6060 N   0  0  0  0  0  0  0  0  0  0  0  0
  141.4500   78.8740  223.5340 C   0  0  0  0  0  0  0  0  0  0  0  0
  142.1650   80.0590  222.9460 C   0  0  0  0  0  0  0  0  0  0  0  0
  143.4610   80.5060  223.5280 C   0  0  0  0  0  0  0  0  0  0  0  0
  142.2260   81.2870  223.8220 C   0  0  0  0  0  0  0  0  0  0  0  0
  139.5910   71.2730  222.9830 C   0  0  0  0  0  0  0  0  0  0  0  0
  139.1690   69.9750  222.8010 C   0  0  0  0  0  0  0  0  0  0  0  0
  139.3390   69.1140  223.8740 C   0  0  0  0  0  0  0  0  0  0  0  0
  139.9050   69.5360  225.0740 C   0  0  0  0  0  0  0  0  0  0  0  0
  140.0770   68.6900  226.1490 C   0  0  0  0  0  0  0  0  0  0  0  0
  140.6500   69.2000  227.3040 C   0  0  0  0  0  0  0  0  0  0  0  0
  140.8930   68.1640  228.7100 Cl  0  0  0  0  0  0  0  0  0  0  0  0
  141.0510   70.5120  227.4240 C   0  0  0  0  0  0  0  0  0  0  0  0
  140.8710   71.3440  226.3410 C   0  0  0  0  0  0  0  0  0  0  0  0
  140.3030   70.8370  225.1930 C   0  0  0  0  0  0  0  0  0  0  0  0
  140.1360   71.6620  224.1530 N   0  0  0  0  0  0  0  0  0  0  0  0
  139.5750   73.9080  223.1740 H   0  0  0  0  0  0  0  0  0  0  0  0
  140.0761   74.3982  220.3761 H   0  0  0  0  0  0  0  0  0  0  0  0
  138.2522   74.4983  220.8194 H   0  0  0  0  0  0  0  0  0  0  0  0
  138.6533   77.7157  218.7114 H   0  0  0  0  0  0  0  0  0  0  0  0
  137.3922   77.0704  219.7068 H   0  0  0  0  0  0  0  0  0  0  0  0
  137.8667   79.7899  219.5220 H   0  0  0  0  0  0  0  0  0  0  0  0
  137.2774   79.1026  221.0468 H   0  0  0  0  0  0  0  0  0  0  0  0
  139.8142   80.4194  220.6124 H   0  0  0  0  0  0  0  0  0  0  0  0
  139.3739   79.6067  222.0787 H   0  0  0  0  0  0  0  0  0  0  0  0
  140.7068   78.4334  219.5379 H   0  0  0  0  0  0  0  0  0  0  0  0
  142.1348   77.3133  220.7356 H   0  0  0  0  0  0  0  0  0  0  0  0
  142.1307   79.0748  221.1602 H   0  0  0  0  0  0  0  0  0  0  0  0
  141.7700   76.8950  222.9120 H   0  0  0  0  0  0  0  0  0  0  0  0
  140.4231   79.1669  223.7980 H   0  0  0  0  0  0  0  0  0  0  0  0
  141.9954   78.5416  224.4296 H   0  0  0  0  0  0  0  0  0  0  0  0
  141.8386   79.8148  221.9243 H   0  0  0  0  0  0  0  0  0  0  0  0
  143.9370   79.9142  224.3237 H   0  0  0  0  0  0  0  0  0  0  0  0
  144.4501   80.7514  223.1140 H   0  0  0  0  0  0  0  0  0  0  0  0
  141.7880   81.2669  224.8309 H   0  0  0  0  0  0  0  0  0  0  0  0
  141.9234   82.3390  223.7137 H   0  0  0  0  0  0  0  0  0  0  0  0
  138.7207   69.6391  221.8543 H   0  0  0  0  0  0  0  0  0  0  0  0
  139.0173   68.0668  223.7745 H   0  0  0  0  0  0  0  0  0  0  0  0
  139.7672   67.6361  226.0917 H   0  0  0  0  0  0  0  0  0  0  0  0
  141.5012   70.8842  228.3561 H   0  0  0  0  0  0  0  0  0  0  0  0
  141.1768   72.3994  226.3922 H   0  0  0  0  0  0  0  0  0  0  0  0
  1  2  2  0
  2  3  1  0
  3  4  1  0
  4  5  1  0
  5  6  2  0
  5  7  1  0
  7  8  1  0
  8  9  1  0
  9 10  1  0
 10 11  1  0
 11 12  1  0
 12 13  1  0
 13 14  1  0
 14 15  1  0
 15 16  1  0
 16 17  1  0
  2 18  1  0
 18 19  2  0
 19 20  1  0
 20 21  2  0
 21 22  1  0
 22 23  2  0
 23 24  1  0
 23 25  1  0
 25 26  2  0
 26 27  1  0
 27 28  2  0
 11  7  1  0
 17 15  1  0
 28 18  1  0
 27 21  1  0
  3 29  1  0
  4 30  1  0
  4 31  1  0
  8 32  1  0
  8 33  1  0
  9 34  1  0
  9 35  1  0
 10 36  1  0
 10 37  1  0
 11 38  1  6
 12 39  1  0
 12 40  1  0
 13 41  1  0
 14 42  1  0
 14 43  1  0
 15 44  1  0
 16 45  1  0
 16 46  1  0
 17 47  1  0
 17 48  1  0
 19 49  1  0
 20 50  1  0
 22 51  1  0
 25 52  1  0
 26 53  1  0
M  END
>  <smiles>  (45) 
O=C(NCC(=O)N1CCC[C@H]1CNCC1CC1)c1ccc2cc(Cl)ccc2n1

>  <score_type>  (45) 
oracle

>  <origin>  (45) 
autodockgpu

>  <m_score__min__energy>  (45) 
-8.1199999999999992

>  <m_primary>  (45) 
energy

>  <rmsd>  (45) 
2.5022208916467683

>  <m_score__min__rmsd>  (45) 
2.5022208916467683

>  <meeko>  (45) 
{"free_energy": -7.69, "intermolecular_energy": -10.07, "internal_energy": -2.14, "cluster_size": 44, "cluster_id": 1, "rank_in_cluster": 18}

>  <energy>  (45) 
-7.13

>  <cluster_rmsd>  (45) 
0.0

>  <cluster>  (45) 
2

$$$$

     RDKit          3D

 53 56  0  0  0  0  0  0  0  0999 V2000
  135.5120   76.1810  221.9210 O   0  0  0  0  0  0  0  0  0  0  0  0
  136.3870   75.8610  222.7410 C   0  0  0  0  0  0  0  0  0  0  0  0
  136.0810   74.8650  223.7290 N   0  0  0  0  0  0  0  0  0  0  0  0
  134.8130   74.2320  223.8060 C   0  0  0  0  0  0  0  0  0  0  0  0
  134.3870   73.6150  225.0390 C   0  0  0  0  0  0  0  0  0  0  0  0
  134.5970   74.3770  226.0840 O   0  0  0  0  0  0  0  0  0  0  0  0
  133.8000   72.3900  225.3390 N   0  0  0  0  0  0  0  0  0  0  0  0
  134.2240   71.0020  225.0030 C   0  0  0  0  0  0  0  0  0  0  0  0
  134.2150   70.3800  226.3900 C   0  0  0  0  0  0  0  0  0  0  0  0
  133.2010   71.1750  227.2110 C   0  0  0  0  0  0  0  0  0  0  0  0
  132.6030   72.0530  226.1270 C   0  0  1  0  0  0  0  0  0  0  0  0
  131.7890   73.1800  226.5530 C   0  0  0  0  0  0  0  0  0  0  0  0
  132.3950   73.8820  227.6410 N   0  0  0  0  0  0  0  0  0  0  0  0
  131.8860   75.1690  227.9470 C   0  0  0  0  0  0  0  0  0  0  0  0
  132.2430   76.1550  226.8690 C   0  0  0  0  0  0  0  0  0  0  0  0
  133.4860   76.9650  226.9870 C   0  0  0  0  0  0  0  0  0  0  0  0
  132.1700   77.6090  227.2620 C   0  0  0  0  0  0  0  0  0  0  0  0
  137.7140   76.4800  222.7150 C   0  0  0  0  0  0  0  0  0  0  0  0
  138.7900   75.7280  222.3010 C   0  0  0  0  0  0  0  0  0  0  0  0
  140.0240   76.3610  222.2980 C   0  0  0  0  0  0  0  0  0  0  0  0
  140.1700   77.6880  222.6930 C   0  0  0  0  0  0  0  0  0  0  0  0
  141.3900   78.3290  222.6960 C   0  0  0  0  0  0  0  0  0  0  0  0
  141.4390   79.6520  223.1060 C   0  0  0  0  0  0  0  0  0  0  0  0
  142.9740   80.5200  223.1310 Cl  0  0  0  0  0  0  0  0  0  0  0  0
  140.3250   80.3520  223.5110 C   0  0  0  0  0  0  0  0  0  0  0  0
  139.1130   79.6970  223.5020 C   0  0  0  0  0  0  0  0  0  0  0  0
  139.0640   78.3820  223.0940 C   0  0  0  0  0  0  0  0  0  0  0  0
  137.8780   77.7640  223.0940 N   0  0  0  0  0  0  0  0  0  0  0  0
  136.8710   74.6310  224.4030 H   0  0  0  0  0  0  0  0  0  0  0  0
  134.0615   74.9957  223.5572 H   0  0  0  0  0  0  0  0  0  0  0  0
  134.9148   73.3789  223.1190 H   0  0  0  0  0  0  0  0  0  0  0  0
  133.5080   70.5082  224.3295 H   0  0  0  0  0  0  0  0  0  0  0  0
  135.1822   70.9270  224.4679 H   0  0  0  0  0  0  0  0  0  0  0  0
  133.9133   69.3238  226.3316 H   0  0  0  0  0  0  0  0  0  0  0  0
  135.2141   70.4128  226.8489 H   0  0  0  0  0  0  0  0  0  0  0  0
  132.4444   70.5202  227.6679 H   0  0  0  0  0  0  0  0  0  0  0  0
  133.6276   71.7229  228.0641 H   0  0  0  0  0  0  0  0  0  0  0  0
  131.8180   71.5370  225.5547 H   0  0  0  0  0  0  0  0  0  0  0  0
  131.6646   73.8713  225.7065 H   0  0  0  0  0  0  0  0  0  0  0  0
  130.8154   72.7948  226.8901 H   0  0  0  0  0  0  0  0  0  0  0  0
  133.3980   73.7230  227.7840 H   0  0  0  0  0  0  0  0  0  0  0  0
  130.7910   75.1121  228.0353 H   0  0  0  0  0  0  0  0  0  0  0  0
  132.3297   75.5072  228.8950 H   0  0  0  0  0  0  0  0  0  0  0  0
  131.8304   75.5146  226.0755 H   0  0  0  0  0  0  0  0  0  0  0  0
  134.1866   76.7758  227.8137 H   0  0  0  0  0  0  0  0  0  0  0  0
  134.3304   77.1870  226.3179 H   0  0  0  0  0  0  0  0  0  0  0  0
  131.8974   77.8892  228.2902 H   0  0  0  0  0  0  0  0  0  0  0  0
  131.6397   78.4947  226.8821 H   0  0  0  0  0  0  0  0  0  0  0  0
  138.6770   74.6793  221.9887 H   0  0  0  0  0  0  0  0  0  0  0  0
  140.9124   75.7988  221.9744 H   0  0  0  0  0  0  0  0  0  0  0  0
  142.3032   77.8031  222.3805 H   0  0  0  0  0  0  0  0  0  0  0  0
  140.4002   81.4015  223.8318 H   0  0  0  0  0  0  0  0  0  0  0  0
  138.1963   80.2172  223.8165 H   0  0  0  0  0  0  0  0  0  0  0  0
  1  2  2  0
  2  3  1  0
  3  4  1  0
  4  5  1  0
  5  6  2  0
  5  7  1  0
  7  8  1  0
  8  9  1  0
  9 10  1  0
 10 11  1  0
 11 12  1  0
 12 13  1  0
 13 14  1  0
 14 15  1  0
 15 16  1  0
 16 17  1  0
  2 18  1  0
 18 19  2  0
 19 20  1  0
 20 21  2  0
 21 22  1  0
 22 23  2  0
 23 24  1  0
 23 25  1  0
 25 26  2  0
 26 27  1  0
 27 28  2  0
 11  7  1  0
 17 15  1  0
 28 18  1  0
 27 21  1  0
  3 29  1  0
  4 30  1  0
  4 31  1  0
  8 32  1  0
  8 33  1  0
  9 34  1  0
  9 35  1  0
 10 36  1  0
 10 37  1  0
 11 38  1  6
 12 39  1  0
 12 40  1  0
 13 41  1  0
 14 42  1  0
 14 43  1  0
 15 44  1  0
 16 45  1  0
 16 46  1  0
 17 47  1  0
 17 48  1  0
 19 49  1  0
 20 50  1  0
 22 51  1  0
 25 52  1  0
 26 53  1  0
M  END
>  <smiles>  (46) 
O=C(NCC(=O)N1CCC[C@H]1CNCC1CC1)c1ccc2cc(Cl)ccc2n1

>  <score_type>  (46) 
oracle

>  <origin>  (46) 
autodockgpu

>  <m_score__min__energy>  (46) 
-8.1199999999999992

>  <m_primary>  (46) 
energy

>  <rmsd>  (46) 
9.804047856757165

>  <m_score__min__rmsd>  (46) 
9.804047856757165

>  <meeko>  (46) 
{"free_energy": -6.82, "intermolecular_energy": -9.2, "internal_energy": -2.1, "cluster_size": 1, "cluster_id": 4, "rank_in_cluster": 1}

>  <energy>  (46) 
-6.94

>  <cluster_rmsd>  (46) 
0.0

>  <cluster>  (46) 
3

$$$$

     RDKit          3D

 53 56  0  0  0  0  0  0  0  0999 V2000
  138.7810   71.6830  220.8610 O   0  0  0  0  0  0  0  0  0  0  0  0
  139.1330   72.0860  221.9810 C   0  0  0  0  0  0  0  0  0  0  0  0
  139.3100   73.4960  222.1870 N   0  0  0  0  0  0  0  0  0  0  0  0
  139.0990   74.4490  221.1560 C   0  0  0  0  0  0  0  0  0  0  0  0
  139.2610   75.8570  221.4300 C   0  0  0  0  0  0  0  0  0  0  0  0
  139.9880   76.0850  222.4950 O   0  0  0  0  0  0  0  0  0  0  0  0
  138.8070   77.0090  220.7950 N   0  0  0  0  0  0  0  0  0  0  0  0
  137.4230   77.4700  220.4920 C   0  0  0  0  0  0  0  0  0  0  0  0
  137.4620   78.8550  221.1150 C   0  0  0  0  0  0  0  0  0  0  0  0
  138.9250   79.2980  221.0840 C   0  0  0  0  0  0  0  0  0  0  0  0
  139.5320   78.1750  220.2640 C   0  0  1  0  0  0  0  0  0  0  0  0
  140.9810   78.0650  220.2510 C   0  0  0  0  0  0  0  0  0  0  0  0
  141.5190   78.0680  221.5760 N   0  0  0  0  0  0  0  0  0  0  0  0
  142.2720   79.2030  221.9670 C   0  0  0  0  0  0  0  0  0  0  0  0
  141.8920   79.6450  223.3540 C   0  0  0  0  0  0  0  0  0  0  0  0
  140.5060   79.4210  223.8490 C   0  0  0  0  0  0  0  0  0  0  0  0
  140.9150   80.7920  223.4300 C   0  0  0  0  0  0  0  0  0  0  0  0
  139.3680   71.1520  223.0840 C   0  0  0  0  0  0  0  0  0  0  0  0
  138.9820   69.8380  222.9360 C   0  0  0  0  0  0  0  0  0  0  0  0
  139.2250   68.9970  224.0120 C   0  0  0  0  0  0  0  0  0  0  0  0
  139.8270   69.4540  225.1810 C   0  0  0  0  0  0  0  0  0  0  0  0
  140.0730   68.6290  226.2570 C   0  0  0  0  0  0  0  0  0  0  0  0
  140.6770   69.1720  227.3810 C   0  0  0  0  0  0  0  0  0  0  0  0
  141.0140   68.1640  228.7870 Cl  0  0  0  0  0  0  0  0  0  0  0  0
  141.0410   70.4980  227.4670 C   0  0  0  0  0  0  0  0  0  0  0  0
  140.7880   71.3090  226.3830 C   0  0  0  0  0  0  0  0  0  0  0  0
  140.1880   70.7690  225.2670 C   0  0  0  0  0  0  0  0  0  0  0  0
  139.9500   71.5730  224.2250 N   0  0  0  0  0  0  0  0  0  0  0  0
  139.6110   73.7810  223.1670 H   0  0  0  0  0  0  0  0  0  0  0  0
  139.8001   74.2005  220.3457 H   0  0  0  0  0  0  0  0  0  0  0  0
  138.0242   74.3554  220.9415 H   0  0  0  0  0  0  0  0  0  0  0  0
  137.2360   77.5150  219.4090 H   0  0  0  0  0  0  0  0  0  0  0  0
  136.6241   76.8151  220.8699 H   0  0  0  0  0  0  0  0  0  0  0  0
  136.8406   79.5519  220.5335 H   0  0  0  0  0  0  0  0  0  0  0  0
  137.0696   78.8426  222.1425 H   0  0  0  0  0  0  0  0  0  0  0  0
  139.0444   80.2733  220.5894 H   0  0  0  0  0  0  0  0  0  0  0  0
  139.3825   79.4442  222.0736 H   0  0  0  0  0  0  0  0  0  0  0  0
  139.4053   78.3297  219.1823 H   0  0  0  0  0  0  0  0  0  0  0  0
  141.2637   77.1260  219.7526 H   0  0  0  0  0  0  0  0  0  0  0  0
  141.3881   78.9328  219.7114 H   0  0  0  0  0  0  0  0  0  0  0  0
  141.8020   77.1580  221.9550 H   0  0  0  0  0  0  0  0  0  0  0  0
  143.3421   78.9490  221.9500 H   0  0  0  0  0  0  0  0  0  0  0  0
  142.0619   80.0239  221.2656 H   0  0  0  0  0  0  0  0  0  0  0  0
  142.8871   79.4078  223.7585 H   0  0  0  0  0  0  0  0  0  0  0  0
  139.7911   78.8516  223.2368 H   0  0  0  0  0  0  0  0  0  0  0  0
  140.0721   78.9894  224.7630 H   0  0  0  0  0  0  0  0  0  0  0  0
  140.5075   81.2312  222.5075 H   0  0  0  0  0  0  0  0  0  0  0  0
  140.9128   81.7857  223.9017 H   0  0  0  0  0  0  0  0  0  0  0  0
  138.5061   69.4748  222.0132 H   0  0  0  0  0  0  0  0  0  0  0  0
  138.9337   67.9388  223.9395 H   0  0  0  0  0  0  0  0  0  0  0  0
  139.7967   67.5647  226.2251 H   0  0  0  0  0  0  0  0  0  0  0  0
  141.5191   70.8968  228.3738 H   0  0  0  0  0  0  0  0  0  0  0  0
  141.0615   72.3741  226.4082 H   0  0  0  0  0  0  0  0  0  0  0  0
  1  2  2  0
  2  3  1  0
  3  4  1  0
  4  5  1  0
  5  6  2  0
  5  7  1  0
  7  8  1  0
  8  9  1  0
  9 10  1  0
 10 11  1  0
 11 12  1  0
 12 13  1  0
 13 14  1  0
 14 15  1  0
 15 16  1  0
 16 17  1  0
  2 18  1  0
 18 19  2  0
 19 20  1  0
 20 21  2  0
 21 22  1  0
 22 23  2  0
 23 24  1  0
 23 25  1  0
 25 26  2  0
 26 27  1  0
 27 28  2  0
 11  7  1  0
 17 15  1  0
 28 18  1  0
 27 21  1  0
  3 29  1  0
  4 30  1  0
  4 31  1  0
  8 32  1  0
  8 33  1  0
  9 34  1  0
  9 35  1  0
 10 36  1  0
 10 37  1  0
 11 38  1  6
 12 39  1  0
 12 40  1  0
 13 41  1  0
 14 42  1  0
 14 43  1  0
 15 44  1  0
 16 45  1  0
 16 46  1  0
 17 47  1  0
 17 48  1  0
 19 49  1  0
 20 50  1  0
 22 51  1  0
 25 52  1  0
 26 53  1  0
M  END
>  <smiles>  (47) 
O=C(NCC(=O)N1CCC[C@H]1CNCC1CC1)c1ccc2cc(Cl)ccc2n1

>  <score_type>  (47) 
oracle

>  <origin>  (47) 
autodockgpu

>  <m_score__min__energy>  (47) 
-8.1199999999999992

>  <m_primary>  (47) 
energy

>  <rmsd>  (47) 
2.4885678509361657

>  <m_score__min__rmsd>  (47) 
2.4885678509361657

>  <meeko>  (47) 
{"free_energy": -7.21, "intermolecular_energy": -9.6, "internal_energy": -2.64, "cluster_size": 44, "cluster_id": 1, "rank_in_cluster": 35}

>  <energy>  (47) 
-6.82

>  <cluster_rmsd>  (47) 
0.0

>  <cluster>  (47) 
4

$$$$

     RDKit          3D

 53 56  0  0  0  0  0  0  0  0999 V2000
  138.5750   71.6430  220.7230 O   0  0  0  0  0  0  0  0  0  0  0  0
  138.7670   72.0960  221.8620 C   0  0  0  0  0  0  0  0  0  0  0  0
  138.6750   73.5140  222.0690 N   0  0  0  0  0  0  0  0  0  0  0  0
  138.3760   74.4200  221.0180 C   0  0  0  0  0  0  0  0  0  0  0  0
  139.4440   75.0930  220.3190 C   0  0  0  0  0  0  0  0  0  0  0  0
  139.1080   75.4490  219.1030 O   0  0  0  0  0  0  0  0  0  0  0  0
  140.7440   75.4410  220.6730 N   0  0  0  0  0  0  0  0  0  0  0  0
  141.8570   74.6120  221.2160 C   0  0  0  0  0  0  0  0  0  0  0  0
  142.9500   74.9480  220.2140 C   0  0  0  0  0  0  0  0  0  0  0  0
  142.6230   76.3400  219.6730 C   0  0  0  0  0  0  0  0  0  0  0  0
  141.4670   76.7190  220.5800 C   0  0  1  0  0  0  0  0  0  0  0  0
  140.6680   77.8710  220.1960 C   0  0  0  0  0  0  0  0  0  0  0  0
  140.2430   78.6190  221.3380 N   0  0  0  0  0  0  0  0  0  0  0  0
  140.7980   79.9120  221.5090 C   0  0  0  0  0  0  0  0  0  0  0  0
  141.3560   80.0750  222.8970 C   0  0  0  0  0  0  0  0  0  0  0  0
  142.8060   79.8480  223.1440 C   0  0  0  0  0  0  0  0  0  0  0  0
  141.8260   78.8080  223.5660 C   0  0  0  0  0  0  0  0  0  0  0  0
  139.0810   71.2130  222.9880 C   0  0  0  0  0  0  0  0  0  0  0  0
  138.7360   69.8830  222.9050 C   0  0  0  0  0  0  0  0  0  0  0  0
  139.0540   69.0920  223.9980 C   0  0  0  0  0  0  0  0  0  0  0  0
  139.6880   69.6120  225.1230 C   0  0  0  0  0  0  0  0  0  0  0  0
  140.0080   68.8370  226.2170 C   0  0  0  0  0  0  0  0  0  0  0  0
  140.6390   69.4430  227.2920 C   0  0  0  0  0  0  0  0  0  0  0  0
  141.0710   68.5000  228.7180 Cl  0  0  0  0  0  0  0  0  0  0  0  0
  140.9590   70.7820  227.3150 C   0  0  0  0  0  0  0  0  0  0  0  0
  140.6320   71.5430  226.2140 C   0  0  0  0  0  0  0  0  0  0  0  0
  140.0050   70.9410  225.1450 C   0  0  0  0  0  0  0  0  0  0  0  0
  139.6950   71.6970  224.0860 N   0  0  0  0  0  0  0  0  0  0  0  0
  138.8480   73.8430  223.0660 H   0  0  0  0  0  0  0  0  0  0  0  0
  137.8094   73.8548  220.2633 H   0  0  0  0  0  0  0  0  0  0  0  0
  137.8546   75.2405  221.5327 H   0  0  0  0  0  0  0  0  0  0  0  0
  142.1317   74.9158  222.2369 H   0  0  0  0  0  0  0  0  0  0  0  0
  141.6312   73.5398  221.3130 H   0  0  0  0  0  0  0  0  0  0  0  0
  143.9322   74.9529  220.7092 H   0  0  0  0  0  0  0  0  0  0  0  0
  142.9927   74.2044  219.4046 H   0  0  0  0  0  0  0  0  0  0  0  0
  143.4720   77.0302  219.7859 H   0  0  0  0  0  0  0  0  0  0  0  0
  142.3946   76.3739  218.5975 H   0  0  0  0  0  0  0  0  0  0  0  0
  141.8058   77.1144  221.5490 H   0  0  0  0  0  0  0  0  0  0  0  0
  141.2701   78.5227  219.5459 H   0  0  0  0  0  0  0  0  0  0  0  0
  139.7732   77.5095  219.6681 H   0  0  0  0  0  0  0  0  0  0  0  0
  140.0310   78.0790  222.1830 H   0  0  0  0  0  0  0  0  0  0  0  0
  141.6055   80.0576  220.7764 H   0  0  0  0  0  0  0  0  0  0  0  0
  140.0047   80.6589  221.3581 H   0  0  0  0  0  0  0  0  0  0  0  0
  140.6691   80.9015  223.1318 H   0  0  0  0  0  0  0  0  0  0  0  0
  143.4817   79.6528  222.2982 H   0  0  0  0  0  0  0  0  0  0  0  0
  143.6010   80.4127  223.6530 H   0  0  0  0  0  0  0  0  0  0  0  0
  141.7741   77.8492  223.0293 H   0  0  0  0  0  0  0  0  0  0  0  0
  141.5941   78.2907  224.5087 H   0  0  0  0  0  0  0  0  0  0  0  0
  138.2342   69.4695  222.0177 H   0  0  0  0  0  0  0  0  0  0  0  0
  138.7980   68.0224  223.9758 H   0  0  0  0  0  0  0  0  0  0  0  0
  139.7684   67.7636  226.2364 H   0  0  0  0  0  0  0  0  0  0  0  0
  141.4602   71.2303  228.1855 H   0  0  0  0  0  0  0  0  0  0  0  0
  140.8684   72.6170  226.1888 H   0  0  0  0  0  0  0  0  0  0  0  0
  1  2  2  0
  2  3  1  0
  3  4  1  0
  4  5  1  0
  5  6  2  0
  5  7  1  0
  7  8  1  0
  8  9  1  0
  9 10  1  0
 10 11  1  0
 11 12  1  0
 12 13  1  0
 13 14  1  0
 14 15  1  0
 15 16  1  0
 16 17  1  0
  2 18  1  0
 18 19  2  0
 19 20  1  0
 20 21  2  0
 21 22  1  0
 22 23  2  0
 23 24  1  0
 23 25  1  0
 25 26  2  0
 26 27  1  0
 27 28  2  0
 11  7  1  0
 17 15  1  0
 28 18  1  0
 27 21  1  0
  3 29  1  0
  4 30  1  0
  4 31  1  0
  8 32  1  0
  8 33  1  0
  9 34  1  0
  9 35  1  0
 10 36  1  0
 10 37  1  0
 11 38  1  1
 12 39  1  0
 12 40  1  0
 13 41  1  0
 14 42  1  0
 14 43  1  0
 15 44  1  0
 16 45  1  0
 16 46  1  0
 17 47  1  0
 17 48  1  0
 19 49  1  0
 20 50  1  0
 22 51  1  0
 25 52  1  0
 26 53  1  0
M  END
>  <smiles>  (48) 
O=C(NCC(=O)N1CCC[C@H]1CNCC1CC1)c1ccc2cc(Cl)ccc2n1

>  <score_type>  (48) 
oracle

>  <origin>  (48) 
autodockgpu

>  <m_score__min__energy>  (48) 
-8.1199999999999992

>  <m_primary>  (48) 
energy

>  <rmsd>  (48) 
2.4335809089830804

>  <m_score__min__rmsd>  (48) 
2.4335809089830804

>  <meeko>  (48) 
{"free_energy": -6.88, "intermolecular_energy": -9.27, "internal_energy": -1.73, "cluster_size": 44, "cluster_id": 1, "rank_in_cluster": 40}

>  <energy>  (48) 
-6.75

>  <cluster_rmsd>  (48) 
0.0

>  <cluster>  (48) 
5

$$$$

     RDKit          3D

 53 56  0  0  0  0  0  0  0  0999 V2000
  138.8000   71.6620  220.9240 O   0  0  0  0  0  0  0  0  0  0  0  0
  139.1320   72.0670  222.0490 C   0  0  0  0  0  0  0  0  0  0  0  0
  139.2820   73.4800  222.2610 N   0  0  0  0  0  0  0  0  0  0  0  0
  139.0660   74.4330  221.2310 C   0  0  0  0  0  0  0  0  0  0  0  0
  139.5520   75.7830  221.3830 C   0  0  0  0  0  0  0  0  0  0  0  0
  138.8670   76.4710  222.2640 O   0  0  0  0  0  0  0  0  0  0  0  0
  140.5920   76.4940  220.7930 N   0  0  0  0  0  0  0  0  0  0  0  0
  141.1550   76.4260  219.4150 C   0  0  0  0  0  0  0  0  0  0  0  0
  141.0670   77.8910  219.0200 C   0  0  0  0  0  0  0  0  0  0  0  0
  141.1320   78.6910  220.3210 C   0  0  0  0  0  0  0  0  0  0  0  0
  141.4420   77.5800  221.3080 C   0  0  1  0  0  0  0  0  0  0  0  0
  141.2940   77.8820  222.7220 C   0  0  0  0  0  0  0  0  0  0  0  0
  140.2570   78.8400  222.9470 N   0  0  0  0  0  0  0  0  0  0  0  0
  140.5360   79.8970  223.8500 C   0  0  0  0  0  0  0  0  0  0  0  0
  141.5430   80.8480  223.2640 C   0  0  0  0  0  0  0  0  0  0  0  0
  142.9750   80.4510  223.1750 C   0  0  0  0  0  0  0  0  0  0  0  0
  142.5530   81.4110  224.2340 C   0  0  0  0  0  0  0  0  0  0  0  0
  139.3720   71.1340  223.1510 C   0  0  0  0  0  0  0  0  0  0  0  0
  138.9680   69.8250  223.0130 C   0  0  0  0  0  0  0  0  0  0  0  0
  139.2160   68.9840  224.0870 C   0  0  0  0  0  0  0  0  0  0  0  0
  139.8390   69.4370  225.2470 C   0  0  0  0  0  0  0  0  0  0  0  0
  140.0900   68.6120  226.3220 C   0  0  0  0  0  0  0  0  0  0  0  0
  140.7160   69.1510  227.4350 C   0  0  0  0  0  0  0  0  0  0  0  0
  141.0600   68.1430  228.8400 Cl  0  0  0  0  0  0  0  0  0  0  0  0
  141.0960   70.4730  227.5130 C   0  0  0  0  0  0  0  0  0  0  0  0
  140.8380   71.2840  226.4300 C   0  0  0  0  0  0  0  0  0  0  0  0
  140.2160   70.7470  225.3240 C   0  0  0  0  0  0  0  0  0  0  0  0
  139.9740   71.5520  224.2830 N   0  0  0  0  0  0  0  0  0  0  0  0
  139.5670   73.7660  223.2450 H   0  0  0  0  0  0  0  0  0  0  0  0
  139.5328   74.0281  220.3210 H   0  0  0  0  0  0  0  0  0  0  0  0
  137.9730   74.5570  221.2268 H   0  0  0  0  0  0  0  0  0  0  0  0
  142.1942   76.0654  219.4162 H   0  0  0  0  0  0  0  0  0  0  0  0
  140.6368   75.7319  218.7370 H   0  0  0  0  0  0  0  0  0  0  0  0
  141.9088   78.1601  218.3650 H   0  0  0  0  0  0  0  0  0  0  0  0
  140.1393   78.1010  218.4675 H   0  0  0  0  0  0  0  0  0  0  0  0
  141.9311   79.4465  220.2946 H   0  0  0  0  0  0  0  0  0  0  0  0
  140.2259   79.2709  220.5505 H   0  0  0  0  0  0  0  0  0  0  0  0
  142.5139   77.3350  221.3409 H   0  0  0  0  0  0  0  0  0  0  0  0
  141.0481   76.9555  223.2616 H   0  0  0  0  0  0  0  0  0  0  0  0
  142.2414   78.3069  223.0853 H   0  0  0  0  0  0  0  0  0  0  0  0
  139.2950   78.4880  222.9140 H   0  0  0  0  0  0  0  0  0  0  0  0
  139.6057   80.4436  224.0640 H   0  0  0  0  0  0  0  0  0  0  0  0
  140.9507   79.4703  224.7752 H   0  0  0  0  0  0  0  0  0  0  0  0
  140.8212   81.2429  222.5339 H   0  0  0  0  0  0  0  0  0  0  0  0
  143.2784   79.4302  223.4507 H   0  0  0  0  0  0  0  0  0  0  0  0
  143.7323   80.4644  222.3773 H   0  0  0  0  0  0  0  0  0  0  0  0
  142.5390   81.0977  225.2883 H   0  0  0  0  0  0  0  0  0  0  0  0
  142.8624   82.4212  224.5403 H   0  0  0  0  0  0  0  0  0  0  0  0
  138.4742   69.4652  222.0983 H   0  0  0  0  0  0  0  0  0  0  0  0
  138.9120   67.9289  224.0209 H   0  0  0  0  0  0  0  0  0  0  0  0
  139.8004   67.5511  226.2974 H   0  0  0  0  0  0  0  0  0  0  0  0
  141.5902   70.8687  228.4125 H   0  0  0  0  0  0  0  0  0  0  0  0
  141.1246   72.3459  226.4478 H   0  0  0  0  0  0  0  0  0  0  0  0
  1  2  2  0
  2  3  1  0
  3  4  1  0
  4  5  1  0
  5  6  2  0
  5  7  1  0
  7  8  1  0
  8  9  1  0
  9 10  1  0
 10 11  1  0
 11 12  1  0
 12 13  1  0
 13 14  1  0
 14 15  1  0
 15 16  1  0
 16 17  1  0
  2 18  1  0
 18 19  2  0
 19 20  1  0
 20 21  2  0
 21 22  1  0
 22 23  2  0
 23 24  1  0
 23 25  1  0
 25 26  2  0
 26 27  1  0
 27 28  2  0
 11  7  1  0
 17 15  1  0
 28 18  1  0
 27 21  1  0
  3 29  1  0
  4 30  1  0
  4 31  1  0
  8 32  1  0
  8 33  1  0
  9 34  1  0
  9 35  1  0
 10 36  1  0
 10 37  1  0
 11 38  1  1
 12 39  1  0
 12 40  1  0
 13 41  1  0
 14 42  1  0
 14 43  1  0
 15 44  1  0
 16 45  1  0
 16 46  1  0
 17 47  1  0
 17 48  1  0
 19 49  1  0
 20 50  1  0
 22 51  1  0
 25 52  1  0
 26 53  1  0
M  END
>  <smiles>  (49) 
O=C(NCC(=O)N1CCC[C@H]1CNCC1CC1)c1ccc2cc(Cl)ccc2n1

>  <score_type>  (49) 
oracle

>  <origin>  (49) 
autodockgpu

>  <m_score__min__energy>  (49) 
-8.1199999999999992

>  <m_primary>  (49) 
energy

>  <rmsd>  (49) 
2.2356756304381125

>  <m_score__min__rmsd>  (49) 
2.2356756304381125

>  <meeko>  (49) 
{"free_energy": -7.48, "intermolecular_energy": -9.87, "internal_energy": -2.1, "cluster_size": 44, "cluster_id": 1, "rank_in_cluster": 27}

>  <energy>  (49) 
-5.46

>  <cluster_rmsd>  (49) 
0.0

>  <cluster>  (49) 
6

$$$$

     RDKit          3D

 53 56  0  0  0  0  0  0  0  0999 V2000
  140.0910   72.2420  220.7450 O   0  0  0  0  0  0  0  0  0  0  0  0
  139.8670   72.5680  221.9210 C   0  0  0  0  0  0  0  0  0  0  0  0
  139.5470   73.9370  222.2120 N   0  0  0  0  0  0  0  0  0  0  0  0
  139.4790   74.9350  221.2040 C   0  0  0  0  0  0  0  0  0  0  0  0
  140.6410   75.7340  220.8990 C   0  0  0  0  0  0  0  0  0  0  0  0
  141.2110   76.2270  221.9710 O   0  0  0  0  0  0  0  0  0  0  0  0
  141.2740   76.0800  219.7090 N   0  0  0  0  0  0  0  0  0  0  0  0
  141.3280   77.3780  218.9790 C   0  0  0  0  0  0  0  0  0  0  0  0
  142.8330   77.5350  218.8320 C   0  0  0  0  0  0  0  0  0  0  0  0
  143.4160   76.1230  218.8440 C   0  0  0  0  0  0  0  0  0  0  0  0
  142.1400   75.3020  218.8080 C   0  0  1  0  0  0  0  0  0  0  0  0
  142.2500   73.8840  219.1070 C   0  0  0  0  0  0  0  0  0  0  0  0
  142.5790   73.6600  220.4800 N   0  0  0  0  0  0  0  0  0  0  0  0
  143.7660   72.9360  220.7530 C   0  0  0  0  0  0  0  0  0  0  0  0
  144.9610   73.8480  220.7530 C   0  0  0  0  0  0  0  0  0  0  0  0
  146.2250   73.4140  220.0970 C   0  0  0  0  0  0  0  0  0  0  0  0
  146.1340   73.3890  221.5840 C   0  0  0  0  0  0  0  0  0  0  0  0
  139.9240   71.5850  223.0050 C   0  0  0  0  0  0  0  0  0  0  0  0
  139.4830   70.3040  222.7640 C   0  0  0  0  0  0  0  0  0  0  0  0
  139.5560   69.4140  223.8250 C   0  0  0  0  0  0  0  0  0  0  0  0
  140.0490   69.7940  225.0700 C   0  0  0  0  0  0  0  0  0  0  0  0
  140.1260   68.9200  226.1330 C   0  0  0  0  0  0  0  0  0  0  0  0
  140.6310   69.3880  227.3370 C   0  0  0  0  0  0  0  0  0  0  0  0
  140.7500   68.3150  228.7300 Cl  0  0  0  0  0  0  0  0  0  0  0  0
  141.0570   70.6850  227.5160 C   0  0  0  0  0  0  0  0  0  0  0  0
  140.9730   71.5460  226.4430 C   0  0  0  0  0  0  0  0  0  0  0  0
  140.4710   71.0810  225.2470 C   0  0  0  0  0  0  0  0  0  0  0  0
  140.3980   71.9320  224.2190 N   0  0  0  0  0  0  0  0  0  0  0  0
  139.3630   74.1560  223.2370 H   0  0  0  0  0  0  0  0  0  0  0  0
  139.1905   74.4260  220.2725 H   0  0  0  0  0  0  0  0  0  0  0  0
  138.7717   75.6671  221.6210 H   0  0  0  0  0  0  0  0  0  0  0  0
  140.8263   77.3181  218.0019 H   0  0  0  0  0  0  0  0  0  0  0  0
  140.8217   78.2146  219.4828 H   0  0  0  0  0  0  0  0  0  0  0  0
  143.0724   78.0376  217.8833 H   0  0  0  0  0  0  0  0  0  0  0  0
  143.2518   78.1468  219.6446 H   0  0  0  0  0  0  0  0  0  0  0  0
  144.0457   75.9353  217.9618 H   0  0  0  0  0  0  0  0  0  0  0  0
  144.0791   75.9060  219.6944 H   0  0  0  0  0  0  0  0  0  0  0  0
  141.7425   75.1884  217.7886 H   0  0  0  0  0  0  0  0  0  0  0  0
  141.2888   73.3969  218.8861 H   0  0  0  0  0  0  0  0  0  0  0  0
  143.0552   73.4630  218.4870 H   0  0  0  0  0  0  0  0  0  0  0  0
  141.7900   73.5370  221.1230 H   0  0  0  0  0  0  0  0  0  0  0  0
  143.6776   72.4578  221.7397 H   0  0  0  0  0  0  0  0  0  0  0  0
  143.9030   72.1762  219.9695 H   0  0  0  0  0  0  0  0  0  0  0  0
  144.3371   74.7502  220.6704 H   0  0  0  0  0  0  0  0  0  0  0  0
  146.2535   72.4693  219.5342 H   0  0  0  0  0  0  0  0  0  0  0  0
  146.9158   73.8703  219.3728 H   0  0  0  0  0  0  0  0  0  0  0  0
  146.0893   72.4281  222.1175 H   0  0  0  0  0  0  0  0  0  0  0  0
  146.7213   73.8178  222.4093 H   0  0  0  0  0  0  0  0  0  0  0  0
  139.0929   70.0017  221.7809 H   0  0  0  0  0  0  0  0  0  0  0  0
  139.2147   68.3786  223.6786 H   0  0  0  0  0  0  0  0  0  0  0  0
  139.7949   67.8762  226.0289 H   0  0  0  0  0  0  0  0  0  0  0  0
  141.4521   71.0235  228.4852 H   0  0  0  0  0  0  0  0  0  0  0  0
  141.3025   72.5910  226.5402 H   0  0  0  0  0  0  0  0  0  0  0  0
  1  2  2  0
  2  3  1  0
  3  4  1  0
  4  5  1  0
  5  6  2  0
  5  7  1  0
  7  8  1  0
  8  9  1  0
  9 10  1  0
 10 11  1  0
 11 12  1  0
 12 13  1  0
 13 14  1  0
 14 15  1  0
 15 16  1  0
 16 17  1  0
  2 18  1  0
 18 19  2  0
 19 20  1  0
 20 21  2  0
 21 22  1  0
 22 23  2  0
 23 24  1  0
 23 25  1  0
 25 26  2  0
 26 27  1  0
 27 28  2  0
 11  7  1  0
 17 15  1  0
 28 18  1  0
 27 21  1  0
  3 29  1  0
  4 30  1  0
  4 31  1  0
  8 32  1  0
  8 33  1  0
  9 34  1  0
  9 35  1  0
 10 36  1  0
 10 37  1  0
 11 38  1  6
 12 39  1  0
 12 40  1  0
 13 41  1  0
 14 42  1  0
 14 43  1  0
 15 44  1  0
 16 45  1  0
 16 46  1  0
 17 47  1  0
 17 48  1  0
 19 49  1  0
 20 50  1  0
 22 51  1  0
 25 52  1  0
 26 53  1  0
M  END
>  <smiles>  (50) 
O=C(NCC(=O)N1CCC[C@H]1CNCC1CC1)c1ccc2cc(Cl)ccc2n1

>  <score_type>  (50) 
oracle

>  <origin>  (50) 
autodockgpu

>  <m_score__min__energy>  (50) 
-8.1199999999999992

>  <m_primary>  (50) 
energy

>  <rmsd>  (50) 
4.31848081751333

>  <m_score__min__rmsd>  (50) 
4.31848081751333

>  <meeko>  (50) 
{"free_energy": -7.31, "intermolecular_energy": -9.7, "internal_energy": -2.63, "cluster_size": 44, "cluster_id": 1, "rank_in_cluster": 32}

>  <energy>  (50) 
-5.45

>  <cluster_rmsd>  (50) 
1.39

>  <cluster>  (50) 
6

$$$$
