
     RDKit          3D

 47 49  0  0  0  0  0  0  0  0999 V2000
  141.7450   72.3190  221.3340 O   0  0  0  0  0  0  0  0  0  0  0  0
  140.8330   72.9110  221.9520 C   0  0  0  0  0  0  0  0  0  0  0  0
  139.9450   72.2500  222.8130 N   0  0  0  0  0  0  0  0  0  0  0  0
  139.9900   70.8330  223.0740 C   0  0  0  0  0  0  0  0  0  0  0  0
  139.0170   70.5550  224.1920 C   0  0  0  0  0  0  0  0  0  0  0  0
  137.9360   71.1620  224.1360 O   0  0  0  0  0  0  0  0  0  0  0  0
  139.4360   69.6440  225.1760 N   0  0  0  0  0  0  0  0  0  0  0  0
  139.0140   68.2320  225.1680 C   0  0  0  0  0  0  0  0  0  0  0  0
  139.9550   67.4060  226.0150 C   0  0  0  0  0  0  0  0  0  0  0  0
  140.0210   67.8850  227.4330 C   0  0  0  0  0  0  0  0  0  0  0  0
  139.6490   69.3830  227.4920 C   0  0  0  0  0  0  0  0  0  0  0  0
  140.3260   69.9950  226.3020 C   0  0  2  0  0  0  0  0  0  0  0  0
  140.6330   71.4330  226.3490 C   0  0  0  0  0  0  0  0  0  0  0  0
  141.0510   71.8930  227.7170 C   0  0  0  0  0  0  0  0  0  0  0  0
  141.7230   70.9650  228.4560 F   0  0  0  0  0  0  0  0  0  0  0  0
  139.9210   72.2670  228.4450 F   0  0  0  0  0  0  0  0  0  0  0  0
  141.8500   73.0210  227.5740 F   0  0  0  0  0  0  0  0  0  0  0  0
  140.7040   74.3700  221.7530 C   0  0  0  0  0  0  0  0  0  0  0  0
  141.6140   75.0730  220.9930 C   0  0  0  0  0  0  0  0  0  0  0  0
  141.4640   76.4450  220.8240 C   0  0  0  0  0  0  0  0  0  0  0  0
  140.3930   77.0910  221.4280 C   0  0  0  0  0  0  0  0  0  0  0  0
  140.1780   78.4480  221.3070 C   0  0  0  0  0  0  0  0  0  0  0  0
  139.1000   79.0460  221.9250 C   0  0  0  0  0  0  0  0  0  0  0  0
  138.8720   80.3780  221.8180 F   0  0  0  0  0  0  0  0  0  0  0  0
  138.2020   78.3230  222.6810 C   0  0  0  0  0  0  0  0  0  0  0  0
  138.4180   76.9750  222.7990 C   0  0  0  0  0  0  0  0  0  0  0  0
  139.4950   76.3650  222.1840 C   0  0  0  0  0  0  0  0  0  0  0  0
  139.6730   75.0390  222.3250 N   0  0  0  0  0  0  0  0  0  0  0  0
  139.2090   72.8360  223.2890 H   0  0  0  0  0  0  0  0  0  0  0  0
  139.6982   70.2742  222.1726 H   0  0  0  0  0  0  0  0  0  0  0  0
  141.0066   70.5193  223.3537 H   0  0  0  0  0  0  0  0  0  0  0  0
  137.9948   68.1542  225.5744 H   0  0  0  0  0  0  0  0  0  0  0  0
  139.0336   67.8553  224.1347 H   0  0  0  0  0  0  0  0  0  0  0  0
  139.6087   66.3619  226.0111 H   0  0  0  0  0  0  0  0  0  0  0  0
  140.9625   67.4996  225.5834 H   0  0  0  0  0  0  0  0  0  0  0  0
  139.3144   67.3079  228.0476 H   0  0  0  0  0  0  0  0  0  0  0  0
  141.0421   67.7468  227.8180 H   0  0  0  0  0  0  0  0  0  0  0  0
  138.5588   69.5140  227.4271 H   0  0  0  0  0  0  0  0  0  0  0  0
  139.9655   69.8518  228.4354 H   0  0  0  0  0  0  0  0  0  0  0  0
  141.3474   69.5940  226.2254 H   0  0  0  0  0  0  0  0  0  0  0  0
  141.4502   71.6415  225.6428 H   0  0  0  0  0  0  0  0  0  0  0  0
  139.7152   71.9773  226.0818 H   0  0  0  0  0  0  0  0  0  0  0  0
  142.4581   74.5491  220.5206 H   0  0  0  0  0  0  0  0  0  0  0  0
  142.1858   77.0127  220.2185 H   0  0  0  0  0  0  0  0  0  0  0  0
  140.8728   79.0589  220.7120 H   0  0  0  0  0  0  0  0  0  0  0  0
  137.3453   78.8094  223.1705 H   0  0  0  0  0  0  0  0  0  0  0  0
  137.7211   76.3669  223.3944 H   0  0  0  0  0  0  0  0  0  0  0  0
  1  2  2  0
  2  3  1  0
  3  4  1  0
  4  5  1  0
  5  6  2  0
  5  7  1  0
  7  8  1  0
  8  9  1  0
  9 10  1  0
 10 11  1  0
 11 12  1  0
 12 13  1  0
 13 14  1  0
 14 15  1  0
 14 16  1  0
 14 17  1  0
  2 18  1  0
 18 19  2  0
 19 20  1  0
 20 21  2  0
 21 22  1  0
 22 23  2  0
 23 24  1  0
 23 25  1  0
 25 26  2  0
 26 27  1  0
 27 28  2  0
 12  7  1  0
 28 18  1  0
 27 21  1  0
  3 29  1  0
  4 30  1  0
  4 31  1  0
  8 32  1  0
  8 33  1  0
  9 34  1  0
  9 35  1  0
 10 36  1  0
 10 37  1  0
 11 38  1  0
 11 39  1  0
 12 40  1  6
 13 41  1  0
 13 42  1  0
 19 43  1  0
 20 44  1  0
 22 45  1  0
 25 46  1  0
 26 47  1  0
M  END
>  <smiles>  (1) 
O=C(NCC(=O)N1CCCCC1CC(F)(F)F)c1ccc2cc(F)ccc2n1

>  <score_type>  (1) 
oracle

>  <origin>  (1) 
autodockgpu

>  <m_score__min__energy>  (1) 
-7.2599999999999998

>  <m_primary>  (1) 
energy

>  <rmsd>  (1) 
8.706389093068568

>  <m_score__min__rmsd>  (1) 
8.706389093068568

>  <meeko>  (1) 
{"free_energy": -6.96, "intermolecular_energy": -8.75, "internal_energy": -1.79, "cluster_size": 8, "cluster_id": 2, "rank_in_cluster": 7}

>  <energy>  (1) 
-7.26

>  <cluster_rmsd>  (1) 
0.0

>  <cluster>  (1) 
1

$$$$

     RDKit          3D

 47 49  0  0  0  0  0  0  0  0999 V2000
  141.2320   71.9040  221.2070 O   0  0  0  0  0  0  0  0  0  0  0  0
  140.4480   72.3500  222.0750 C   0  0  0  0  0  0  0  0  0  0  0  0
  139.7990   73.5860  221.9490 N   0  0  0  0  0  0  0  0  0  0  0  0
  139.9630   74.4650  220.8180 C   0  0  0  0  0  0  0  0  0  0  0  0
  141.0250   75.4700  221.1850 C   0  0  0  0  0  0  0  0  0  0  0  0
  141.0940   75.7750  222.3850 O   0  0  0  0  0  0  0  0  0  0  0  0
  141.8200   75.9540  220.1320 N   0  0  0  0  0  0  0  0  0  0  0  0
  141.4320   77.1300  219.3340 C   0  0  0  0  0  0  0  0  0  0  0  0
  142.6420   77.6970  218.6260 C   0  0  0  0  0  0  0  0  0  0  0  0
  143.3030   76.6970  217.7280 C   0  0  0  0  0  0  0  0  0  0  0  0
  142.9940   75.2680  218.2270 C   0  0  0  0  0  0  0  0  0  0  0  0
  143.1030   75.3480  219.7200 C   0  0  2  0  0  0  0  0  0  0  0  0
  143.4040   74.1110  220.4560 C   0  0  0  0  0  0  0  0  0  0  0  0
  144.8640   73.7620  220.4340 C   0  0  0  0  0  0  0  0  0  0  0  0
  145.3280   73.2970  219.2390 F   0  0  0  0  0  0  0  0  0  0  0  0
  145.1200   72.7780  221.3900 F   0  0  0  0  0  0  0  0  0  0  0  0
  145.5900   74.8920  220.7910 F   0  0  0  0  0  0  0  0  0  0  0  0
  140.2100   71.5210  223.2760 C   0  0  0  0  0  0  0  0  0  0  0  0
  139.5030   70.3390  223.2030 C   0  0  0  0  0  0  0  0  0  0  0  0
  139.2970   69.5830  224.3510 C   0  0  0  0  0  0  0  0  0  0  0  0
  139.8090   70.0310  225.5610 C   0  0  0  0  0  0  0  0  0  0  0  0
  139.6460   69.3360  226.7420 C   0  0  0  0  0  0  0  0  0  0  0  0
  140.1730   69.8210  227.9200 C   0  0  0  0  0  0  0  0  0  0  0  0
  140.0230   69.1530  229.0910 F   0  0  0  0  0  0  0  0  0  0  0  0
  140.8770   71.0060  227.9700 C   0  0  0  0  0  0  0  0  0  0  0  0
  141.0380   71.6930  226.7960 C   0  0  0  0  0  0  0  0  0  0  0  0
  140.5140   71.2170  225.6090 C   0  0  0  0  0  0  0  0  0  0  0  0
  140.6930   71.9220  224.4770 N   0  0  0  0  0  0  0  0  0  0  0  0
  139.1560   73.8750  222.7330 H   0  0  0  0  0  0  0  0  0  0  0  0
  140.2781   73.8889  219.9355 H   0  0  0  0  0  0  0  0  0  0  0  0
  139.0160   74.9688  220.5744 H   0  0  0  0  0  0  0  0  0  0  0  0
  140.6801   76.8322  218.5884 H   0  0  0  0  0  0  0  0  0  0  0  0
  141.0122   77.8968  220.0017 H   0  0  0  0  0  0  0  0  0  0  0  0
  142.3246   78.5589  218.0207 H   0  0  0  0  0  0  0  0  0  0  0  0
  143.3723   77.9892  219.3950 H   0  0  0  0  0  0  0  0  0  0  0  0
  142.9219   76.8172  216.7031 H   0  0  0  0  0  0  0  0  0  0  0  0
  144.3908   76.8601  217.7380 H   0  0  0  0  0  0  0  0  0  0  0  0
  141.9795   74.9650  217.9288 H   0  0  0  0  0  0  0  0  0  0  0  0
  143.6824   74.5231  217.8012 H   0  0  0  0  0  0  0  0  0  0  0  0
  143.9954   75.9351  219.9825 H   0  0  0  0  0  0  0  0  0  0  0  0
  143.0889   74.2388  221.5021 H   0  0  0  0  0  0  0  0  0  0  0  0
  142.8600   73.2916  219.9634 H   0  0  0  0  0  0  0  0  0  0  0  0
  139.1028   69.9952  222.2378 H   0  0  0  0  0  0  0  0  0  0  0  0
  138.7340   68.6393  224.3012 H   0  0  0  0  0  0  0  0  0  0  0  0
  139.0906   68.3865  226.7435 H   0  0  0  0  0  0  0  0  0  0  0  0
  141.2928   71.3845  228.9155 H   0  0  0  0  0  0  0  0  0  0  0  0
  141.5949   72.6416  226.7980 H   0  0  0  0  0  0  0  0  0  0  0  0
  1  2  2  0
  2  3  1  0
  3  4  1  0
  4  5  1  0
  5  6  2  0
  5  7  1  0
  7  8  1  0
  8  9  1  0
  9 10  1  0
 10 11  1  0
 11 12  1  0
 12 13  1  0
 13 14  1  0
 14 15  1  0
 14 16  1  0
 14 17  1  0
  2 18  1  0
 18 19  2  0
 19 20  1  0
 20 21  2  0
 21 22  1  0
 22 23  2  0
 23 24  1  0
 23 25  1  0
 25 26  2  0
 26 27  1  0
 27 28  2  0
 12  7  1  0
 28 18  1  0
 27 21  1  0
  3 29  1  0
  4 30  1  0
  4 31  1  0
  8 32  1  0
  8 33  1  0
  9 34  1  0
  9 35  1  0
 10 36  1  0
 10 37  1  0
 11 38  1  0
 11 39  1  0
 12 40  1  6
 13 41  1  0
 13 42  1  0
 19 43  1  0
 20 44  1  0
 22 45  1  0
 25 46  1  0
 26 47  1  0
M  END
>  <smiles>  (2) 
O=C(NCC(=O)N1CCCCC1CC(F)(F)F)c1ccc2cc(F)ccc2n1

>  <score_type>  (2) 
oracle

>  <origin>  (2) 
autodockgpu

>  <m_score__min__energy>  (2) 
-7.2599999999999998

>  <m_primary>  (2) 
energy

>  <rmsd>  (2) 
2.3954199656870134

>  <m_score__min__rmsd>  (2) 
2.3954199656870134

>  <meeko>  (2) 
{"free_energy": -7.1, "intermolecular_energy": -8.89, "internal_energy": -1.34, "cluster_size": 15, "cluster_id": 3, "rank_in_cluster": 1}

>  <energy>  (2) 
-7.22

>  <cluster_rmsd>  (2) 
1.47

>  <cluster>  (2) 
1

$$$$

     RDKit          3D

 47 49  0  0  0  0  0  0  0  0999 V2000
  141.1820   71.8660  221.1510 O   0  0  0  0  0  0  0  0  0  0  0  0
  140.4160   72.3140  222.0340 C   0  0  0  0  0  0  0  0  0  0  0  0
  139.7760   73.5570  221.9230 N   0  0  0  0  0  0  0  0  0  0  0  0
  139.9280   74.4390  220.7940 C   0  0  0  0  0  0  0  0  0  0  0  0
  140.9810   75.4540  221.1590 C   0  0  0  0  0  0  0  0  0  0  0  0
  141.0330   75.7770  222.3560 O   0  0  0  0  0  0  0  0  0  0  0  0
  141.7880   75.9260  220.1100 N   0  0  0  0  0  0  0  0  0  0  0  0
  141.4140   77.0990  219.3000 C   0  0  0  0  0  0  0  0  0  0  0  0
  142.6340   77.6540  218.6000 C   0  0  0  0  0  0  0  0  0  0  0  0
  143.2960   76.6430  217.7140 C   0  0  0  0  0  0  0  0  0  0  0  0
  142.9730   75.2200  218.2200 C   0  0  0  0  0  0  0  0  0  0  0  0
  143.0710   75.3100  219.7130 C   0  0  2  0  0  0  0  0  0  0  0  0
  143.3580   74.0750  220.4600 C   0  0  0  0  0  0  0  0  0  0  0  0
  144.8150   73.7150  220.4480 C   0  0  0  0  0  0  0  0  0  0  0  0
  145.6630   74.7260  220.7920 F   0  0  0  0  0  0  0  0  0  0  0  0
  145.1760   73.2870  219.1700 F   0  0  0  0  0  0  0  0  0  0  0  0
  145.0100   72.6490  221.3180 F   0  0  0  0  0  0  0  0  0  0  0  0
  140.1920   71.4830  223.2350 C   0  0  0  0  0  0  0  0  0  0  0  0
  139.4910   70.2980  223.1660 C   0  0  0  0  0  0  0  0  0  0  0  0
  139.2970   69.5380  224.3150 C   0  0  0  0  0  0  0  0  0  0  0  0
  139.8160   69.9880  225.5210 C   0  0  0  0  0  0  0  0  0  0  0  0
  139.6650   69.2910  226.7020 C   0  0  0  0  0  0  0  0  0  0  0  0
  140.1990   69.7770  227.8780 C   0  0  0  0  0  0  0  0  0  0  0  0
  140.0610   69.1070  229.0480 F   0  0  0  0  0  0  0  0  0  0  0  0
  140.8970   70.9650  227.9230 C   0  0  0  0  0  0  0  0  0  0  0  0
  141.0450   71.6550  226.7490 C   0  0  0  0  0  0  0  0  0  0  0  0
  140.5150   71.1780  225.5650 C   0  0  0  0  0  0  0  0  0  0  0  0
  140.6820   71.8850  224.4340 N   0  0  0  0  0  0  0  0  0  0  0  0
  139.1500   73.8490  222.7200 H   0  0  0  0  0  0  0  0  0  0  0  0
  140.2461   73.8675  219.9096 H   0  0  0  0  0  0  0  0  0  0  0  0
  138.9753   74.9340  220.5545 H   0  0  0  0  0  0  0  0  0  0  0  0
  140.6676   76.8003  218.5493 H   0  0  0  0  0  0  0  0  0  0  0  0
  140.9920   77.8727  219.9582 H   0  0  0  0  0  0  0  0  0  0  0  0
  142.3280   78.5143  217.9866 H   0  0  0  0  0  0  0  0  0  0  0  0
  143.3592   77.9468  219.3735 H   0  0  0  0  0  0  0  0  0  0  0  0
  142.9245   76.7588  216.6852 H   0  0  0  0  0  0  0  0  0  0  0  0
  144.3848   76.7987  217.7321 H   0  0  0  0  0  0  0  0  0  0  0  0
  141.9587   74.9221  217.9160 H   0  0  0  0  0  0  0  0  0  0  0  0
  143.6591   74.4672  217.8046 H   0  0  0  0  0  0  0  0  0  0  0  0
  143.9647   75.8936  219.9789 H   0  0  0  0  0  0  0  0  0  0  0  0
  143.0383   74.2128  221.5035 H   0  0  0  0  0  0  0  0  0  0  0  0
  142.8099   73.2563  219.9708 H   0  0  0  0  0  0  0  0  0  0  0  0
  139.0854   69.9536  222.2033 H   0  0  0  0  0  0  0  0  0  0  0  0
  138.7387   68.5914  224.2682 H   0  0  0  0  0  0  0  0  0  0  0  0
  139.1138   68.3391  226.7063 H   0  0  0  0  0  0  0  0  0  0  0  0
  141.3189   71.3442  228.8655 H   0  0  0  0  0  0  0  0  0  0  0  0
  141.5962   72.6069  226.7485 H   0  0  0  0  0  0  0  0  0  0  0  0
  1  2  2  0
  2  3  1  0
  3  4  1  0
  4  5  1  0
  5  6  2  0
  5  7  1  0
  7  8  1  0
  8  9  1  0
  9 10  1  0
 10 11  1  0
 11 12  1  0
 12 13  1  0
 13 14  1  0
 14 15  1  0
 14 16  1  0
 14 17  1  0
  2 18  1  0
 18 19  2  0
 19 20  1  0
 20 21  2  0
 21 22  1  0
 22 23  2  0
 23 24  1  0
 23 25  1  0
 25 26  2  0
 26 27  1  0
 27 28  2  0
 12  7  1  0
 28 18  1  0
 27 21  1  0
  3 29  1  0
  4 30  1  0
  4 31  1  0
  8 32  1  0
  8 33  1  0
  9 34  1  0
  9 35  1  0
 10 36  1  0
 10 37  1  0
 11 38  1  0
 11 39  1  0
 12 40  1  6
 13 41  1  0
 13 42  1  0
 19 43  1  0
 20 44  1  0
 22 45  1  0
 25 46  1  0
 26 47  1  0
M  END
>  <smiles>  (3) 
O=C(NCC(=O)N1CCCCC1CC(F)(F)F)c1ccc2cc(F)ccc2n1

>  <score_type>  (3) 
oracle

>  <origin>  (3) 
autodockgpu

>  <m_score__min__energy>  (3) 
-7.2599999999999998

>  <m_primary>  (3) 
energy

>  <rmsd>  (3) 
2.371157696566214

>  <m_score__min__rmsd>  (3) 
2.371157696566214

>  <meeko>  (3) 
{"free_energy": -7.08, "intermolecular_energy": -8.87, "internal_energy": -1.35, "cluster_size": 15, "cluster_id": 3, "rank_in_cluster": 2}

>  <energy>  (3) 
-7.18

>  <cluster_rmsd>  (3) 
1.5

>  <cluster>  (3) 
1

$$$$

     RDKit          3D

 47 49  0  0  0  0  0  0  0  0999 V2000
  140.9600   71.8140  221.2060 O   0  0  0  0  0  0  0  0  0  0  0  0
  140.2810   72.2490  222.1630 C   0  0  0  0  0  0  0  0  0  0  0  0
  139.6920   73.5220  222.1580 N   0  0  0  0  0  0  0  0  0  0  0  0
  139.8030   74.4520  221.0620 C   0  0  0  0  0  0  0  0  0  0  0  0
  139.5860   75.8330  221.6260 C   0  0  0  0  0  0  0  0  0  0  0  0
  139.0560   75.8870  222.7460 O   0  0  0  0  0  0  0  0  0  0  0  0
  140.0040   76.9090  220.8260 N   0  0  0  0  0  0  0  0  0  0  0  0
  139.7160   76.9710  219.3820 C   0  0  0  0  0  0  0  0  0  0  0  0
  139.8450   78.3950  218.8890 C   0  0  0  0  0  0  0  0  0  0  0  0
  141.2070   78.9670  219.1370 C   0  0  0  0  0  0  0  0  0  0  0  0
  141.8640   78.2410  220.3320 C   0  0  0  0  0  0  0  0  0  0  0  0
  140.7620   78.0720  221.3340 C   0  0  2  0  0  0  0  0  0  0  0  0
  141.1350   77.9250  222.7490 C   0  0  0  0  0  0  0  0  0  0  0  0
  141.3250   79.2450  223.4400 C   0  0  0  0  0  0  0  0  0  0  0  0
  142.1020   79.2040  224.5590 F   0  0  0  0  0  0  0  0  0  0  0  0
  140.0810   79.7540  223.8160 F   0  0  0  0  0  0  0  0  0  0  0  0
  141.8850   80.1360  222.5330 F   0  0  0  0  0  0  0  0  0  0  0  0
  140.1060   71.3700  223.3370 C   0  0  0  0  0  0  0  0  0  0  0  0
  139.5420   70.1170  223.2170 C   0  0  0  0  0  0  0  0  0  0  0  0
  139.3920   69.3140  224.3420 C   0  0  0  0  0  0  0  0  0  0  0  0
  139.8150   69.7870  225.5770 C   0  0  0  0  0  0  0  0  0  0  0  0
  139.6990   69.0490  226.7370 C   0  0  0  0  0  0  0  0  0  0  0  0
  140.1340   69.5610  227.9410 C   0  0  0  0  0  0  0  0  0  0  0  0
  140.0280   68.8520  229.0920 F   0  0  0  0  0  0  0  0  0  0  0  0
  140.6960   70.8170  228.0370 C   0  0  0  0  0  0  0  0  0  0  0  0
  140.8090   71.5470  226.8840 C   0  0  0  0  0  0  0  0  0  0  0  0
  140.3770   71.0440  225.6710 C   0  0  0  0  0  0  0  0  0  0  0  0
  140.5060   71.7930  224.5620 N   0  0  0  0  0  0  0  0  0  0  0  0
  139.1390   73.8000  223.0110 H   0  0  0  0  0  0  0  0  0  0  0  0
  140.8029   74.3828  220.6087 H   0  0  0  0  0  0  0  0  0  0  0  0
  139.0603   74.2273  220.2823 H   0  0  0  0  0  0  0  0  0  0  0  0
  140.4293   76.3322  218.8406 H   0  0  0  0  0  0  0  0  0  0  0  0
  138.6893   76.6189  219.2033 H   0  0  0  0  0  0  0  0  0  0  0  0
  139.6465   78.4131  217.8072 H   0  0  0  0  0  0  0  0  0  0  0  0
  139.1192   79.0077  219.4438 H   0  0  0  0  0  0  0  0  0  0  0  0
  141.8294   78.8328  218.2400 H   0  0  0  0  0  0  0  0  0  0  0  0
  141.1170   80.0392  219.3655 H   0  0  0  0  0  0  0  0  0  0  0  0
  142.2578   77.2621  220.0211 H   0  0  0  0  0  0  0  0  0  0  0  0
  142.7141   78.8054  220.7428 H   0  0  0  0  0  0  0  0  0  0  0  0
  140.1866   79.0076  221.3944 H   0  0  0  0  0  0  0  0  0  0  0  0
  140.3396   77.3686  223.2663 H   0  0  0  0  0  0  0  0  0  0  0  0
  142.0958   77.3906  222.7849 H   0  0  0  0  0  0  0  0  0  0  0  0
  139.2114   69.7536  222.2328 H   0  0  0  0  0  0  0  0  0  0  0  0
  138.9426   68.3138  224.2545 H   0  0  0  0  0  0  0  0  0  0  0  0
  139.2555   68.0430  226.7009 H   0  0  0  0  0  0  0  0  0  0  0  0
  141.0401   71.2167  229.0023 H   0  0  0  0  0  0  0  0  0  0  0  0
  141.2521   72.5530  226.9238 H   0  0  0  0  0  0  0  0  0  0  0  0
  1  2  2  0
  2  3  1  0
  3  4  1  0
  4  5  1  0
  5  6  2  0
  5  7  1  0
  7  8  1  0
  8  9  1  0
  9 10  1  0
 10 11  1  0
 11 12  1  0
 12 13  1  0
 13 14  1  0
 14 15  1  0
 14 16  1  0
 14 17  1  0
  2 18  1  0
 18 19  2  0
 19 20  1  0
 20 21  2  0
 21 22  1  0
 22 23  2  0
 23 24  1  0
 23 25  1  0
 25 26  2  0
 26 27  1  0
 27 28  2  0
 12  7  1  0
 28 18  1  0
 27 21  1  0
  3 29  1  0
  4 30  1  0
  4 31  1  0
  8 32  1  0
  8 33  1  0
  9 34  1  0
  9 35  1  0
 10 36  1  0
 10 37  1  0
 11 38  1  0
 11 39  1  0
 12 40  1  1
 13 41  1  0
 13 42  1  0
 19 43  1  0
 20 44  1  0
 22 45  1  0
 25 46  1  0
 26 47  1  0
M  END
>  <smiles>  (4) 
O=C(NCC(=O)N1CCCCC1CC(F)(F)F)c1ccc2cc(F)ccc2n1

>  <score_type>  (4) 
oracle

>  <origin>  (4) 
autodockgpu

>  <m_score__min__energy>  (4) 
-7.2599999999999998

>  <m_primary>  (4) 
energy

>  <rmsd>  (4) 
2.158247636431979

>  <m_score__min__rmsd>  (4) 
2.158247636431979

>  <meeko>  (4) 
{"free_energy": -6.75, "intermolecular_energy": -8.54, "internal_energy": -1.59, "cluster_size": 24, "cluster_id": 1, "rank_in_cluster": 18}

>  <energy>  (4) 
-7.08

>  <cluster_rmsd>  (4) 
1.5

>  <cluster>  (4) 
1

$$$$

     RDKit          3D

 47 49  0  0  0  0  0  0  0  0999 V2000
  139.0240   71.3070  221.0220 O   0  0  0  0  0  0  0  0  0  0  0  0
  139.6310   71.7840  222.0070 C   0  0  0  0  0  0  0  0  0  0  0  0
  140.2600   73.0360  221.9780 N   0  0  0  0  0  0  0  0  0  0  0  0
  140.2740   73.8990  220.8240 C   0  0  0  0  0  0  0  0  0  0  0  0
  141.1130   75.1010  221.1760 C   0  0  0  0  0  0  0  0  0  0  0  0
  141.0320   75.4970  222.3490 O   0  0  0  0  0  0  0  0  0  0  0  0
  141.8930   75.6460  220.1420 N   0  0  0  0  0  0  0  0  0  0  0  0
  141.4440   76.8020  219.3460 C   0  0  0  0  0  0  0  0  0  0  0  0
  142.6270   77.4530  218.6660 C   0  0  0  0  0  0  0  0  0  0  0  0
  143.3670   76.5050  217.7710 C   0  0  0  0  0  0  0  0  0  0  0  0
  143.1420   75.0550  218.2530 C   0  0  0  0  0  0  0  0  0  0  0  0
  143.2200   75.1280  219.7480 C   0  0  2  0  0  0  0  0  0  0  0  0
  143.5870   73.9060  220.4790 C   0  0  0  0  0  0  0  0  0  0  0  0
  145.0720   73.6860  220.5350 C   0  0  0  0  0  0  0  0  0  0  0  0
  145.8070   74.7930  220.8410 F   0  0  0  0  0  0  0  0  0  0  0  0
  145.5180   73.2200  219.2970 F   0  0  0  0  0  0  0  0  0  0  0  0
  145.3330   72.6970  221.4750 F   0  0  0  0  0  0  0  0  0  0  0  0
  139.6730   70.9750  223.2440 C   0  0  0  0  0  0  0  0  0  0  0  0
  139.1620   69.6950  223.2820 C   0  0  0  0  0  0  0  0  0  0  0  0
  139.2180   68.9610  224.4610 C   0  0  0  0  0  0  0  0  0  0  0  0
  139.7910   69.5300  225.5900 C   0  0  0  0  0  0  0  0  0  0  0  0
  139.8820   68.8650  226.7950 C   0  0  0  0  0  0  0  0  0  0  0  0
  140.4600   69.4720  227.8900 C   0  0  0  0  0  0  0  0  0  0  0  0
  140.5590   68.8350  229.0830 F   0  0  0  0  0  0  0  0  0  0  0  0
  140.9660   70.7540  227.8290 C   0  0  0  0  0  0  0  0  0  0  0  0
  140.8730   71.4120  226.6320 C   0  0  0  0  0  0  0  0  0  0  0  0
  140.2960   70.8140  225.5270 C   0  0  0  0  0  0  0  0  0  0  0  0
  140.2240   71.4940  224.3690 N   0  0  0  0  0  0  0  0  0  0  0  0
  140.7470   73.3510  222.8590 H   0  0  0  0  0  0  0  0  0  0  0  0
  140.7132   73.3716  219.9644 H   0  0  0  0  0  0  0  0  0  0  0  0
  139.2525   74.2024  220.5511 H   0  0  0  0  0  0  0  0  0  0  0  0
  140.7270   76.4629  218.5838 H   0  0  0  0  0  0  0  0  0  0  0  0
  140.9629   77.5336  220.0118 H   0  0  0  0  0  0  0  0  0  0  0  0
  142.2657   78.2987  218.0625 H   0  0  0  0  0  0  0  0  0  0  0  0
  143.3230   77.7846  219.4506 H   0  0  0  0  0  0  0  0  0  0  0  0
  142.9967   76.6099  216.7405 H   0  0  0  0  0  0  0  0  0  0  0  0
  144.4417   76.7375  217.8015 H   0  0  0  0  0  0  0  0  0  0  0  0
  142.1543   74.6904  217.9345 H   0  0  0  0  0  0  0  0  0  0  0  0
  143.8841   74.3598  217.8335 H   0  0  0  0  0  0  0  0  0  0  0  0
  144.0680   75.7689  220.0311 H   0  0  0  0  0  0  0  0  0  0  0  0
  143.2039   73.9829  221.5073 H   0  0  0  0  0  0  0  0  0  0  0  0
  143.1455   73.0533  219.9423 H   0  0  0  0  0  0  0  0  0  0  0  0
  138.7106   69.2552  222.3804 H   0  0  0  0  0  0  0  0  0  0  0  0
  138.8122   67.9393  224.4990 H   0  0  0  0  0  0  0  0  0  0  0  0
  139.4899   67.8411  226.8833 H   0  0  0  0  0  0  0  0  0  0  0  0
  141.4263   71.2290  228.7079 H   0  0  0  0  0  0  0  0  0  0  0  0
  141.2650   72.4363  226.5478 H   0  0  0  0  0  0  0  0  0  0  0  0
  1  2  2  0
  2  3  1  0
  3  4  1  0
  4  5  1  0
  5  6  2  0
  5  7  1  0
  7  8  1  0
  8  9  1  0
  9 10  1  0
 10 11  1  0
 11 12  1  0
 12 13  1  0
 13 14  1  0
 14 15  1  0
 14 16  1  0
 14 17  1  0
  2 18  1  0
 18 19  2  0
 19 20  1  0
 20 21  2  0
 21 22  1  0
 22 23  2  0
 23 24  1  0
 23 25  1  0
 25 26  2  0
 26 27  1  0
 27 28  2  0
 12  7  1  0
 28 18  1  0
 27 21  1  0
  3 29  1  0
  4 30  1  0
  4 31  1  0
  8 32  1  0
  8 33  1  0
  9 34  1  0
  9 35  1  0
 10 36  1  0
 10 37  1  0
 11 38  1  0
 11 39  1  0
 12 40  1  6
 13 41  1  0
 13 42  1  0
 19 43  1  0
 20 44  1  0
 22 45  1  0
 25 46  1  0
 26 47  1  0
M  END
>  <smiles>  (5) 
O=C(NCC(=O)N1CCCCC1CC(F)(F)F)c1ccc2cc(F)ccc2n1

>  <score_type>  (5) 
oracle

>  <origin>  (5) 
autodockgpu

>  <m_score__min__energy>  (5) 
-7.2599999999999998

>  <m_primary>  (5) 
energy

>  <rmsd>  (5) 
2.325974490565525

>  <m_score__min__rmsd>  (5) 
2.325974490565525

>  <meeko>  (5) 
{"free_energy": -6.38, "intermolecular_energy": -8.17, "internal_energy": -1.87, "cluster_size": 15, "cluster_id": 3, "rank_in_cluster": 15}

>  <energy>  (5) 
-6.97

>  <cluster_rmsd>  (5) 
1.52

>  <cluster>  (5) 
1

$$$$

     RDKit          3D

 47 49  0  0  0  0  0  0  0  0999 V2000
  141.2670   71.9280  221.3110 O   0  0  0  0  0  0  0  0  0  0  0  0
  140.4850   72.3540  222.1900 C   0  0  0  0  0  0  0  0  0  0  0  0
  139.8490   73.6000  222.1010 N   0  0  0  0  0  0  0  0  0  0  0  0
  140.0260   74.5130  221.0000 C   0  0  0  0  0  0  0  0  0  0  0  0
  139.8850   75.9090  221.5500 C   0  0  0  0  0  0  0  0  0  0  0  0
  139.5470   75.9930  222.7410 O   0  0  0  0  0  0  0  0  0  0  0  0
  140.1480   76.9640  220.6600 N   0  0  0  0  0  0  0  0  0  0  0  0
  139.7830   76.8960  219.2340 C   0  0  0  0  0  0  0  0  0  0  0  0
  139.7400   78.2880  218.6450 C   0  0  0  0  0  0  0  0  0  0  0  0
  141.0460   79.0090  218.7780 C   0  0  0  0  0  0  0  0  0  0  0  0
  141.8340   78.4360  219.9770 C   0  0  0  0  0  0  0  0  0  0  0  0
  140.8080   78.2280  221.0490 C   0  0  2  0  0  0  0  0  0  0  0  0
  141.2640   78.2170  222.4470 C   0  0  0  0  0  0  0  0  0  0  0  0
  141.8770   79.5230  222.8680 C   0  0  0  0  0  0  0  0  0  0  0  0
  141.4600   80.6100  222.1580 F   0  0  0  0  0  0  0  0  0  0  0  0
  143.2640   79.4470  222.7370 F   0  0  0  0  0  0  0  0  0  0  0  0
  141.5930   79.7270  224.2130 F   0  0  0  0  0  0  0  0  0  0  0  0
  140.2350   71.4900  223.3630 C   0  0  0  0  0  0  0  0  0  0  0  0
  139.5560   70.2960  223.2420 C   0  0  0  0  0  0  0  0  0  0  0  0
  139.3370   69.5060  224.3650 C   0  0  0  0  0  0  0  0  0  0  0  0
  139.8090   69.9340  225.5990 C   0  0  0  0  0  0  0  0  0  0  0  0
  139.6310   69.2060  226.7570 C   0  0  0  0  0  0  0  0  0  0  0  0
  140.1170   69.6710  227.9610 C   0  0  0  0  0  0  0  0  0  0  0  0
  139.9520   68.9710  229.1100 F   0  0  0  0  0  0  0  0  0  0  0  0
  140.7940   70.8690  228.0580 C   0  0  0  0  0  0  0  0  0  0  0  0
  140.9690   71.5890  226.9060 C   0  0  0  0  0  0  0  0  0  0  0  0
  140.4860   71.1330  225.6950 C   0  0  0  0  0  0  0  0  0  0  0  0
  140.6780   71.8710  224.5860 N   0  0  0  0  0  0  0  0  0  0  0  0
  139.2070   73.8710  222.8920 H   0  0  0  0  0  0  0  0  0  0  0  0
  141.0248   74.3813  220.5583 H   0  0  0  0  0  0  0  0  0  0  0  0
  139.2790   74.3261  220.2144 H   0  0  0  0  0  0  0  0  0  0  0  0
  140.5302   76.2951  218.6948 H   0  0  0  0  0  0  0  0  0  0  0  0
  138.7906   76.4316  219.1367 H   0  0  0  0  0  0  0  0  0  0  0  0
  139.4868   78.2113  217.5773 H   0  0  0  0  0  0  0  0  0  0  0  0
  138.9838   78.8621  219.2005 H   0  0  0  0  0  0  0  0  0  0  0  0
  141.6329   78.8765  217.8571 H   0  0  0  0  0  0  0  0  0  0  0  0
  140.8571   80.0800  218.9430 H   0  0  0  0  0  0  0  0  0  0  0  0
  142.3102   77.4819  219.7067 H   0  0  0  0  0  0  0  0  0  0  0  0
  142.6413   79.1091  220.3016 H   0  0  0  0  0  0  0  0  0  0  0  0
  140.1441   79.1044  221.0828 H   0  0  0  0  0  0  0  0  0  0  0  0
  140.4015   78.0076  223.0968 H   0  0  0  0  0  0  0  0  0  0  0  0
  142.0393   77.4420  222.5372 H   0  0  0  0  0  0  0  0  0  0  0  0
  139.1881   69.9689  222.2583 H   0  0  0  0  0  0  0  0  0  0  0  0
  138.7958   68.5524  224.2770 H   0  0  0  0  0  0  0  0  0  0  0  0
  139.0963   68.2454  226.7198 H   0  0  0  0  0  0  0  0  0  0  0  0
  141.1783   71.2319  229.0227 H   0  0  0  0  0  0  0  0  0  0  0  0
  141.5046   72.5490  226.9461 H   0  0  0  0  0  0  0  0  0  0  0  0
  1  2  2  0
  2  3  1  0
  3  4  1  0
  4  5  1  0
  5  6  2  0
  5  7  1  0
  7  8  1  0
  8  9  1  0
  9 10  1  0
 10 11  1  0
 11 12  1  0
 12 13  1  0
 13 14  1  0
 14 15  1  0
 14 16  1  0
 14 17  1  0
  2 18  1  0
 18 19  2  0
 19 20  1  0
 20 21  2  0
 21 22  1  0
 22 23  2  0
 23 24  1  0
 23 25  1  0
 25 26  2  0
 26 27  1  0
 27 28  2  0
 12  7  1  0
 28 18  1  0
 27 21  1  0
  3 29  1  0
  4 30  1  0
  4 31  1  0
  8 32  1  0
  8 33  1  0
  9 34  1  0
  9 35  1  0
 10 36  1  0
 10 37  1  0
 11 38  1  0
 11 39  1  0
 12 40  1  1
 13 41  1  0
 13 42  1  0
 19 43  1  0
 20 44  1  0
 22 45  1  0
 25 46  1  0
 26 47  1  0
M  END
>  <smiles>  (6) 
O=C(NCC(=O)N1CCCCC1CC(F)(F)F)c1ccc2cc(F)ccc2n1

>  <score_type>  (6) 
oracle

>  <origin>  (6) 
autodockgpu

>  <m_score__min__energy>  (6) 
-7.2599999999999998

>  <m_primary>  (6) 
energy

>  <rmsd>  (6) 
2.1562693296579605

>  <m_score__min__rmsd>  (6) 
2.1562693296579605

>  <meeko>  (6) 
{"free_energy": -6.82, "intermolecular_energy": -8.61, "internal_energy": -1.54, "cluster_size": 24, "cluster_id": 1, "rank_in_cluster": 10}

>  <energy>  (6) 
-6.84

>  <cluster_rmsd>  (6) 
1.56

>  <cluster>  (6) 
1

$$$$

     RDKit          3D

 47 49  0  0  0  0  0  0  0  0999 V2000
  140.2160   71.3780  220.9340 O   0  0  0  0  0  0  0  0  0  0  0  0
  139.9750   71.9800  222.0040 C   0  0  0  0  0  0  0  0  0  0  0  0
  139.8100   73.3710  222.0720 N   0  0  0  0  0  0  0  0  0  0  0  0
  139.8970   74.2440  220.9290 C   0  0  0  0  0  0  0  0  0  0  0  0
  140.7410   75.4260  221.3350 C   0  0  0  0  0  0  0  0  0  0  0  0
  140.5840   75.8340  222.4960 O   0  0  0  0  0  0  0  0  0  0  0  0
  141.6120   75.9390  220.3590 N   0  0  0  0  0  0  0  0  0  0  0  0
  141.2800   77.1330  219.5610 C   0  0  0  0  0  0  0  0  0  0  0  0
  142.5380   77.7220  218.9630 C   0  0  0  0  0  0  0  0  0  0  0  0
  143.2720   76.7470  218.0950 C   0  0  0  0  0  0  0  0  0  0  0  0
  142.9330   75.3050  218.5340 C   0  0  0  0  0  0  0  0  0  0  0  0
  142.9270   75.3490  220.0320 C   0  0  2  0  0  0  0  0  0  0  0  0
  143.1770   74.0950  220.7590 C   0  0  0  0  0  0  0  0  0  0  0  0
  144.5430   73.5310  220.4920 C   0  0  0  0  0  0  0  0  0  0  0  0
  145.5750   74.3960  220.7060 F   0  0  0  0  0  0  0  0  0  0  0  0
  144.6200   73.1130  219.1620 F   0  0  0  0  0  0  0  0  0  0  0  0
  144.7190   72.4110  221.2950 F   0  0  0  0  0  0  0  0  0  0  0  0
  139.8640   71.1720  223.2370 C   0  0  0  0  0  0  0  0  0  0  0  0
  139.2940   69.9170  223.2220 C   0  0  0  0  0  0  0  0  0  0  0  0
  139.2050   69.1810  224.3990 C   0  0  0  0  0  0  0  0  0  0  0  0
  139.6950   69.7260  225.5780 C   0  0  0  0  0  0  0  0  0  0  0  0
  139.6420   69.0580  226.7840 C   0  0  0  0  0  0  0  0  0  0  0  0
  140.1410   69.6390  227.9310 C   0  0  0  0  0  0  0  0  0  0  0  0
  140.0980   68.9990  229.1260 F   0  0  0  0  0  0  0  0  0  0  0  0
  140.7070   70.8970  227.9220 C   0  0  0  0  0  0  0  0  0  0  0  0
  140.7580   71.5570  226.7230 C   0  0  0  0  0  0  0  0  0  0  0  0
  140.2610   70.9850  225.5680 C   0  0  0  0  0  0  0  0  0  0  0  0
  140.3300   71.6660  224.4100 N   0  0  0  0  0  0  0  0  0  0  0  0
  139.6100   73.7860  223.0200 H   0  0  0  0  0  0  0  0  0  0  0  0
  140.3677   73.7162  220.0865 H   0  0  0  0  0  0  0  0  0  0  0  0
  138.8963   74.5698  220.6090 H   0  0  0  0  0  0  0  0  0  0  0  0
  140.5901   76.8503  218.7523 H   0  0  0  0  0  0  0  0  0  0  0  0
  140.8050   77.8817  220.2121 H   0  0  0  0  0  0  0  0  0  0  0  0
  142.2636   78.5974  218.3561 H   0  0  0  0  0  0  0  0  0  0  0  0
  143.2049   77.9980  219.7931 H   0  0  0  0  0  0  0  0  0  0  0  0
  142.9708   76.8910  217.0469 H   0  0  0  0  0  0  0  0  0  0  0  0
  144.3549   76.9137  218.1931 H   0  0  0  0  0  0  0  0  0  0  0  0
  141.9458   75.0061  218.1517 H   0  0  0  0  0  0  0  0  0  0  0  0
  143.6556   74.5729  218.1442 H   0  0  0  0  0  0  0  0  0  0  0  0
  143.7933   75.9332  220.3758 H   0  0  0  0  0  0  0  0  0  0  0  0
  143.0812   74.2888  221.8376 H   0  0  0  0  0  0  0  0  0  0  0  0
  142.4396   73.3570  220.4104 H   0  0  0  0  0  0  0  0  0  0  0  0
  138.9099   69.4980  222.2802 H   0  0  0  0  0  0  0  0  0  0  0  0
  138.7516   68.1788  224.3956 H   0  0  0  0  0  0  0  0  0  0  0  0
  139.1977   68.0528  226.8312 H   0  0  0  0  0  0  0  0  0  0  0  0
  141.1020   71.3524  228.8421 H   0  0  0  0  0  0  0  0  0  0  0  0
  141.2033   72.5619  226.6789 H   0  0  0  0  0  0  0  0  0  0  0  0
  1  2  2  0
  2  3  1  0
  3  4  1  0
  4  5  1  0
  5  6  2  0
  5  7  1  0
  7  8  1  0
  8  9  1  0
  9 10  1  0
 10 11  1  0
 11 12  1  0
 12 13  1  0
 13 14  1  0
 14 15  1  0
 14 16  1  0
 14 17  1  0
  2 18  1  0
 18 19  2  0
 19 20  1  0
 20 21  2  0
 21 22  1  0
 22 23  2  0
 23 24  1  0
 23 25  1  0
 25 26  2  0
 26 27  1  0
 27 28  2  0
 12  7  1  0
 28 18  1  0
 27 21  1  0
  3 29  1  0
  4 30  1  0
  4 31  1  0
  8 32  1  0
  8 33  1  0
  9 34  1  0
  9 35  1  0
 10 36  1  0
 10 37  1  0
 11 38  1  0
 11 39  1  0
 12 40  1  6
 13 41  1  0
 13 42  1  0
 19 43  1  0
 20 44  1  0
 22 45  1  0
 25 46  1  0
 26 47  1  0
M  END
>  <smiles>  (7) 
O=C(NCC(=O)N1CCCCC1CC(F)(F)F)c1ccc2cc(F)ccc2n1

>  <score_type>  (7) 
oracle

>  <origin>  (7) 
autodockgpu

>  <m_score__min__energy>  (7) 
-7.2599999999999998

>  <m_primary>  (7) 
energy

>  <rmsd>  (7) 
2.2982458375745964

>  <m_score__min__rmsd>  (7) 
2.2982458375745964

>  <meeko>  (7) 
{"free_energy": -6.68, "intermolecular_energy": -8.47, "internal_energy": -1.67, "cluster_size": 15, "cluster_id": 3, "rank_in_cluster": 12}

>  <energy>  (7) 
-6.84

>  <cluster_rmsd>  (7) 
1.47

>  <cluster>  (7) 
1

$$$$

     RDKit          3D

 47 49  0  0  0  0  0  0  0  0999 V2000
  140.1030   71.3760  220.9570 O   0  0  0  0  0  0  0  0  0  0  0  0
  139.9020   71.9600  222.0450 C   0  0  0  0  0  0  0  0  0  0  0  0
  139.7490   73.3500  222.1440 N   0  0  0  0  0  0  0  0  0  0  0  0
  139.8040   74.2440  221.0150 C   0  0  0  0  0  0  0  0  0  0  0  0
  140.5210   75.4910  221.4670 C   0  0  0  0  0  0  0  0  0  0  0  0
  140.3140   75.8420  222.6390 O   0  0  0  0  0  0  0  0  0  0  0  0
  141.3430   76.1210  220.5180 N   0  0  0  0  0  0  0  0  0  0  0  0
  140.9690   77.3950  219.8800 C   0  0  0  0  0  0  0  0  0  0  0  0
  142.1950   78.0610  219.2960 C   0  0  0  0  0  0  0  0  0  0  0  0
  142.8910   77.1990  218.2880 C   0  0  0  0  0  0  0  0  0  0  0  0
  142.5790   75.7130  218.5730 C   0  0  0  0  0  0  0  0  0  0  0  0
  142.6430   75.5840  220.0650 C   0  0  2  0  0  0  0  0  0  0  0  0
  142.9320   74.2570  220.6300 C   0  0  0  0  0  0  0  0  0  0  0  0
  144.3460   73.8160  220.3830 C   0  0  0  0  0  0  0  0  0  0  0  0
  144.7850   72.8080  221.1900 F   0  0  0  0  0  0  0  0  0  0  0  0
  145.2070   74.8990  220.5640 F   0  0  0  0  0  0  0  0  0  0  0  0
  144.4530   73.4120  219.0570 F   0  0  0  0  0  0  0  0  0  0  0  0
  139.8270   71.1300  223.2660 C   0  0  0  0  0  0  0  0  0  0  0  0
  139.2780   69.8660  223.2410 C   0  0  0  0  0  0  0  0  0  0  0  0
  139.2230   69.1100  224.4070 C   0  0  0  0  0  0  0  0  0  0  0  0
  139.7250   69.6430  225.5860 C   0  0  0  0  0  0  0  0  0  0  0  0
  139.7050   68.9550  226.7820 C   0  0  0  0  0  0  0  0  0  0  0  0
  140.2160   69.5260  227.9290 C   0  0  0  0  0  0  0  0  0  0  0  0
  140.2060   68.8660  229.1130 F   0  0  0  0  0  0  0  0  0  0  0  0
  140.7610   70.7930  227.9300 C   0  0  0  0  0  0  0  0  0  0  0  0
  140.7790   71.4730  226.7420 C   0  0  0  0  0  0  0  0  0  0  0  0
  140.2700   70.9110  225.5860 C   0  0  0  0  0  0  0  0  0  0  0  0
  140.3060   71.6130  224.4390 N   0  0  0  0  0  0  0  0  0  0  0  0
  139.5830   73.7500  223.1060 H   0  0  0  0  0  0  0  0  0  0  0  0
  140.3540   73.7723  220.1874 H   0  0  0  0  0  0  0  0  0  0  0  0
  138.7917   74.4839  220.6577 H   0  0  0  0  0  0  0  0  0  0  0  0
  140.2427   77.2008  219.0770 H   0  0  0  0  0  0  0  0  0  0  0  0
  140.5224   78.0591  220.6346 H   0  0  0  0  0  0  0  0  0  0  0  0
  141.8886   78.9977  218.8075 H   0  0  0  0  0  0  0  0  0  0  0  0
  142.8993   78.2462  220.1204 H   0  0  0  0  0  0  0  0  0  0  0  0
  142.5399   77.4597  217.2787 H   0  0  0  0  0  0  0  0  0  0  0  0
  143.9766   77.3635  218.3542 H   0  0  0  0  0  0  0  0  0  0  0  0
  141.5762   75.4507  218.2047 H   0  0  0  0  0  0  0  0  0  0  0  0
  143.2857   75.0377  218.0686 H   0  0  0  0  0  0  0  0  0  0  0  0
  143.5223   76.1323  220.4341 H   0  0  0  0  0  0  0  0  0  0  0  0
  142.7591   74.2918  221.7158 H   0  0  0  0  0  0  0  0  0  0  0  0
  142.2676   73.5337  220.1346 H   0  0  0  0  0  0  0  0  0  0  0  0
  138.8837   69.4556  222.2997 H   0  0  0  0  0  0  0  0  0  0  0  0
  138.7863   68.1005  224.3949 H   0  0  0  0  0  0  0  0  0  0  0  0
  139.2777   67.9421  226.8211 H   0  0  0  0  0  0  0  0  0  0  0  0
  141.1657   71.2399  228.8501 H   0  0  0  0  0  0  0  0  0  0  0  0
  141.2066   72.4859  226.7065 H   0  0  0  0  0  0  0  0  0  0  0  0
  1  2  2  0
  2  3  1  0
  3  4  1  0
  4  5  1  0
  5  6  2  0
  5  7  1  0
  7  8  1  0
  8  9  1  0
  9 10  1  0
 10 11  1  0
 11 12  1  0
 12 13  1  0
 13 14  1  0
 14 15  1  0
 14 16  1  0
 14 17  1  0
  2 18  1  0
 18 19  2  0
 19 20  1  0
 20 21  2  0
 21 22  1  0
 22 23  2  0
 23 24  1  0
 23 25  1  0
 25 26  2  0
 26 27  1  0
 27 28  2  0
 12  7  1  0
 28 18  1  0
 27 21  1  0
  3 29  1  0
  4 30  1  0
  4 31  1  0
  8 32  1  0
  8 33  1  0
  9 34  1  0
  9 35  1  0
 10 36  1  0
 10 37  1  0
 11 38  1  0
 11 39  1  0
 12 40  1  1
 13 41  1  0
 13 42  1  0
 19 43  1  0
 20 44  1  0
 22 45  1  0
 25 46  1  0
 26 47  1  0
M  END
>  <smiles>  (8) 
O=C(NCC(=O)N1CCCCC1CC(F)(F)F)c1ccc2cc(F)ccc2n1

>  <score_type>  (8) 
oracle

>  <origin>  (8) 
autodockgpu

>  <m_score__min__energy>  (8) 
-7.2599999999999998

>  <m_primary>  (8) 
energy

>  <rmsd>  (8) 
2.240805475260931

>  <m_score__min__rmsd>  (8) 
2.240805475260931

>  <meeko>  (8) 
{"free_energy": -6.73, "intermolecular_energy": -8.52, "internal_energy": -1.71, "cluster_size": 15, "cluster_id": 3, "rank_in_cluster": 9}

>  <energy>  (8) 
-6.83

>  <cluster_rmsd>  (8) 
1.28

>  <cluster>  (8) 
1

$$$$

     RDKit          3D

 47 49  0  0  0  0  0  0  0  0999 V2000
  141.6780   72.0960  221.1720 O   0  0  0  0  0  0  0  0  0  0  0  0
  140.8350   72.7940  221.7790 C   0  0  0  0  0  0  0  0  0  0  0  0
  139.8660   72.2440  222.6300 N   0  0  0  0  0  0  0  0  0  0  0  0
  139.7410   70.8320  222.8940 C   0  0  0  0  0  0  0  0  0  0  0  0
  138.9110   70.6840  224.1440 C   0  0  0  0  0  0  0  0  0  0  0  0
  137.9040   71.4050  224.2170 O   0  0  0  0  0  0  0  0  0  0  0  0
  139.3640   69.7510  225.0910 N   0  0  0  0  0  0  0  0  0  0  0  0
  139.0010   68.3250  225.0220 C   0  0  0  0  0  0  0  0  0  0  0  0
  139.9730   67.5030  225.8390 C   0  0  0  0  0  0  0  0  0  0  0  0
  140.0150   67.9250  227.2760 C   0  0  0  0  0  0  0  0  0  0  0  0
  139.5810   69.4030  227.3950 C   0  0  0  0  0  0  0  0  0  0  0  0
  140.2350   70.0920  226.2360 C   0  0  2  0  0  0  0  0  0  0  0  0
  140.4820   71.5380  226.3440 C   0  0  0  0  0  0  0  0  0  0  0  0
  141.0190   71.9360  227.6890 C   0  0  0  0  0  0  0  0  0  0  0  0
  141.9110   72.9670  227.6720 F   0  0  0  0  0  0  0  0  0  0  0  0
  141.6600   70.8420  228.2740 F   0  0  0  0  0  0  0  0  0  0  0  0
  139.9480   72.2790  228.5040 F   0  0  0  0  0  0  0  0  0  0  0  0
  140.8790   74.2570  221.5750 C   0  0  0  0  0  0  0  0  0  0  0  0
  141.8360   74.8400  220.7710 C   0  0  0  0  0  0  0  0  0  0  0  0
  141.8510   76.2200  220.6000 C   0  0  0  0  0  0  0  0  0  0  0  0
  140.8960   76.9950  221.2440 C   0  0  0  0  0  0  0  0  0  0  0  0
  140.8460   78.3680  221.1240 C   0  0  0  0  0  0  0  0  0  0  0  0
  139.8790   79.0960  221.7840 C   0  0  0  0  0  0  0  0  0  0  0  0
  139.8130   80.4470  221.6780 F   0  0  0  0  0  0  0  0  0  0  0  0
  138.9310   78.4920  222.5830 C   0  0  0  0  0  0  0  0  0  0  0  0
  138.9830   77.1280  222.7010 C   0  0  0  0  0  0  0  0  0  0  0  0
  139.9480   76.3880  222.0440 C   0  0  0  0  0  0  0  0  0  0  0  0
  139.9660   75.0500  222.1860 N   0  0  0  0  0  0  0  0  0  0  0  0
  139.1980   72.9130  223.0960 H   0  0  0  0  0  0  0  0  0  0  0  0
  139.2428   70.3334  222.0495 H   0  0  0  0  0  0  0  0  0  0  0  0
  140.7307   70.3702  223.0254 H   0  0  0  0  0  0  0  0  0  0  0  0
  137.9845   68.1883  225.4196 H   0  0  0  0  0  0  0  0  0  0  0  0
  139.0397   67.9931  223.9740 H   0  0  0  0  0  0  0  0  0  0  0  0
  139.6697   66.4468  225.7903 H   0  0  0  0  0  0  0  0  0  0  0  0
  140.9771   67.6554  225.4165 H   0  0  0  0  0  0  0  0  0  0  0  0
  139.3311   67.2943  227.8629 H   0  0  0  0  0  0  0  0  0  0  0  0
  141.0398   67.8132  227.6598 H   0  0  0  0  0  0  0  0  0  0  0  0
  138.4865   69.4913  227.3301 H   0  0  0  0  0  0  0  0  0  0  0  0
  139.8752   69.8445  228.3586 H   0  0  0  0  0  0  0  0  0  0  0  0
  141.2728   69.7379  226.1484 H   0  0  0  0  0  0  0  0  0  0  0  0
  141.2116   71.8288  225.5738 H   0  0  0  0  0  0  0  0  0  0  0  0
  139.5185   72.0506  226.2063 H   0  0  0  0  0  0  0  0  0  0  0  0
  142.5864   74.2142  220.2657 H   0  0  0  0  0  0  0  0  0  0  0  0
  142.6116   76.6926  219.9612 H   0  0  0  0  0  0  0  0  0  0  0  0
  141.5847   78.8872  220.4957 H   0  0  0  0  0  0  0  0  0  0  0  0
  138.1633   79.0821  223.1050 H   0  0  0  0  0  0  0  0  0  0  0  0
  138.2429   76.6121  223.3304 H   0  0  0  0  0  0  0  0  0  0  0  0
  1  2  2  0
  2  3  1  0
  3  4  1  0
  4  5  1  0
  5  6  2  0
  5  7  1  0
  7  8  1  0
  8  9  1  0
  9 10  1  0
 10 11  1  0
 11 12  1  0
 12 13  1  0
 13 14  1  0
 14 15  1  0
 14 16  1  0
 14 17  1  0
  2 18  1  0
 18 19  2  0
 19 20  1  0
 20 21  2  0
 21 22  1  0
 22 23  2  0
 23 24  1  0
 23 25  1  0
 25 26  2  0
 26 27  1  0
 27 28  2  0
 12  7  1  0
 28 18  1  0
 27 21  1  0
  3 29  1  0
  4 30  1  0
  4 31  1  0
  8 32  1  0
  8 33  1  0
  9 34  1  0
  9 35  1  0
 10 36  1  0
 10 37  1  0
 11 38  1  0
 11 39  1  0
 12 40  1  6
 13 41  1  0
 13 42  1  0
 19 43  1  0
 20 44  1  0
 22 45  1  0
 25 46  1  0
 26 47  1  0
M  END
>  <smiles>  (9) 
O=C(NCC(=O)N1CCCCC1CC(F)(F)F)c1ccc2cc(F)ccc2n1

>  <score_type>  (9) 
oracle

>  <origin>  (9) 
autodockgpu

>  <m_score__min__energy>  (9) 
-7.2599999999999998

>  <m_primary>  (9) 
energy

>  <rmsd>  (9) 
8.643739437222925

>  <m_score__min__rmsd>  (9) 
8.643739437222925

>  <meeko>  (9) 
{"free_energy": -7.0, "intermolecular_energy": -8.79, "internal_energy": -1.76, "cluster_size": 8, "cluster_id": 2, "rank_in_cluster": 6}

>  <energy>  (9) 
-6.83

>  <cluster_rmsd>  (9) 
1.33

>  <cluster>  (9) 
1

$$$$

     RDKit          3D

 47 49  0  0  0  0  0  0  0  0999 V2000
  141.4820   71.2960  221.0220 O   0  0  0  0  0  0  0  0  0  0  0  0
  140.8870   72.1810  221.6780 C   0  0  0  0  0  0  0  0  0  0  0  0
  139.9890   71.8850  222.7120 N   0  0  0  0  0  0  0  0  0  0  0  0
  139.6600   70.5450  223.1280 C   0  0  0  0  0  0  0  0  0  0  0  0
  139.2720   70.6110  224.5830 C   0  0  0  0  0  0  0  0  0  0  0  0
  138.4790   71.5130  224.8940 O   0  0  0  0  0  0  0  0  0  0  0  0
  139.8490   69.6510  225.4310 N   0  0  0  0  0  0  0  0  0  0  0  0
  139.3540   68.2640  225.4950 C   0  0  0  0  0  0  0  0  0  0  0  0
  140.4130   67.3650  226.0920 C   0  0  0  0  0  0  0  0  0  0  0  0
  140.8250   67.7970  227.4660 C   0  0  0  0  0  0  0  0  0  0  0  0
  140.5640   69.3110  227.6330 C   0  0  0  0  0  0  0  0  0  0  0  0
  140.9880   69.9220  226.3320 C   0  0  2  0  0  0  0  0  0  0  0  0
  141.3810   71.3390  226.3320 C   0  0  0  0  0  0  0  0  0  0  0  0
  141.1380   72.0090  227.6540 C   0  0  0  0  0  0  0  0  0  0  0  0
  141.8250   71.4760  228.7050 F   0  0  0  0  0  0  0  0  0  0  0  0
  139.7800   71.9380  227.9660 F   0  0  0  0  0  0  0  0  0  0  0  0
  141.4710   73.3520  227.5320 F   0  0  0  0  0  0  0  0  0  0  0  0
  141.1580   73.5920  221.3290 C   0  0  0  0  0  0  0  0  0  0  0  0
  142.0730   73.9260  220.3530 C   0  0  0  0  0  0  0  0  0  0  0  0
  142.3040   75.2630  220.0480 C   0  0  0  0  0  0  0  0  0  0  0  0
  141.6070   76.2470  220.7350 C   0  0  0  0  0  0  0  0  0  0  0  0
  141.7820   77.5930  220.4900 C   0  0  0  0  0  0  0  0  0  0  0  0
  141.0660   78.5350  221.1980 C   0  0  0  0  0  0  0  0  0  0  0  0
  141.2250   79.8630  220.9720 F   0  0  0  0  0  0  0  0  0  0  0  0
  140.1560   78.1780  222.1710 C   0  0  0  0  0  0  0  0  0  0  0  0
  139.9840   76.8400  222.4120 C   0  0  0  0  0  0  0  0  0  0  0  0
  140.6960   75.8870  221.7080 C   0  0  0  0  0  0  0  0  0  0  0  0
  140.4990   74.5840  221.9760 N   0  0  0  0  0  0  0  0  0  0  0  0
  139.5370   72.6990  223.2060 H   0  0  0  0  0  0  0  0  0  0  0  0
  138.8196   70.1610  222.5312 H   0  0  0  0  0  0  0  0  0  0  0  0
  140.5167   69.8704  222.9832 H   0  0  0  0  0  0  0  0  0  0  0  0
  138.4503   68.2281  226.1211 H   0  0  0  0  0  0  0  0  0  0  0  0
  139.1170   67.9175  224.4783 H   0  0  0  0  0  0  0  0  0  0  0  0
  140.0152   66.3410  226.1487 H   0  0  0  0  0  0  0  0  0  0  0  0
  141.3007   67.4191  225.4447 H   0  0  0  0  0  0  0  0  0  0  0  0
  140.2426   67.2402  228.2149 H   0  0  0  0  0  0  0  0  0  0  0  0
  141.8967   67.5931  227.6073 H   0  0  0  0  0  0  0  0  0  0  0  0
  139.4969   69.5013  227.8202 H   0  0  0  0  0  0  0  0  0  0  0  0
  141.1132   69.7338  228.4872 H   0  0  0  0  0  0  0  0  0  0  0  0
  141.9411   69.4707  226.0191 H   0  0  0  0  0  0  0  0  0  0  0  0
  142.4531   71.4066  226.0952 H   0  0  0  0  0  0  0  0  0  0  0  0
  140.7646   71.8542  225.5807 H   0  0  0  0  0  0  0  0  0  0  0  0
  142.6193   73.1362  219.8165 H   0  0  0  0  0  0  0  0  0  0  0  0
  143.0317   75.5378  219.2702 H   0  0  0  0  0  0  0  0  0  0  0  0
  142.4997   77.9181  219.7224 H   0  0  0  0  0  0  0  0  0  0  0  0
  139.5907   78.9372  222.7314 H   0  0  0  0  0  0  0  0  0  0  0  0
  139.2656   76.5182  223.1804 H   0  0  0  0  0  0  0  0  0  0  0  0
  1  2  2  0
  2  3  1  0
  3  4  1  0
  4  5  1  0
  5  6  2  0
  5  7  1  0
  7  8  1  0
  8  9  1  0
  9 10  1  0
 10 11  1  0
 11 12  1  0
 12 13  1  0
 13 14  1  0
 14 15  1  0
 14 16  1  0
 14 17  1  0
  2 18  1  0
 18 19  2  0
 19 20  1  0
 20 21  2  0
 21 22  1  0
 22 23  2  0
 23 24  1  0
 23 25  1  0
 25 26  2  0
 26 27  1  0
 27 28  2  0
 12  7  1  0
 28 18  1  0
 27 21  1  0
  3 29  1  0
  4 30  1  0
  4 31  1  0
  8 32  1  0
  8 33  1  0
  9 34  1  0
  9 35  1  0
 10 36  1  0
 10 37  1  0
 11 38  1  0
 11 39  1  0
 12 40  1  6
 13 41  1  0
 13 42  1  0
 19 43  1  0
 20 44  1  0
 22 45  1  0
 25 46  1  0
 26 47  1  0
M  END
>  <smiles>  (10) 
O=C(NCC(=O)N1CCCCC1CC(F)(F)F)c1ccc2cc(F)ccc2n1

>  <score_type>  (10) 
oracle

>  <origin>  (10) 
autodockgpu

>  <m_score__min__energy>  (10) 
-7.2599999999999998

>  <m_primary>  (10) 
energy

>  <rmsd>  (10) 
8.635975189336476

>  <m_score__min__rmsd>  (10) 
8.635975189336476

>  <meeko>  (10) 
{"free_energy": -6.89, "intermolecular_energy": -8.68, "internal_energy": -1.74, "cluster_size": 8, "cluster_id": 2, "rank_in_cluster": 8}

>  <energy>  (10) 
-6.82

>  <cluster_rmsd>  (10) 
1.31

>  <cluster>  (10) 
1

$$$$

     RDKit          3D

 47 49  0  0  0  0  0  0  0  0999 V2000
  140.2110   71.3550  220.9750 O   0  0  0  0  0  0  0  0  0  0  0  0
  139.9560   71.9450  222.0500 C   0  0  0  0  0  0  0  0  0  0  0  0
  139.7790   73.3330  222.1300 N   0  0  0  0  0  0  0  0  0  0  0  0
  139.8680   74.2190  220.9960 C   0  0  0  0  0  0  0  0  0  0  0  0
  140.5340   75.4850  221.4710 C   0  0  0  0  0  0  0  0  0  0  0  0
  140.3080   75.8120  222.6460 O   0  0  0  0  0  0  0  0  0  0  0  0
  141.3370   76.1600  220.5360 N   0  0  0  0  0  0  0  0  0  0  0  0
  140.9360   77.4470  219.9420 C   0  0  0  0  0  0  0  0  0  0  0  0
  142.1460   78.1530  219.3710 C   0  0  0  0  0  0  0  0  0  0  0  0
  142.8480   77.3350  218.3290 C   0  0  0  0  0  0  0  0  0  0  0  0
  142.5630   75.8360  218.5680 C   0  0  0  0  0  0  0  0  0  0  0  0
  142.6420   75.6600  220.0550 C   0  0  2  0  0  0  0  0  0  0  0  0
  142.9580   74.3210  220.5740 C   0  0  0  0  0  0  0  0  0  0  0  0
  144.3950   73.9390  220.3600 C   0  0  0  0  0  0  0  0  0  0  0  0
  145.3060   74.8600  220.7880 F   0  0  0  0  0  0  0  0  0  0  0  0
  144.6220   73.7320  218.9980 F   0  0  0  0  0  0  0  0  0  0  0  0
  144.6300   72.7350  221.0120 F   0  0  0  0  0  0  0  0  0  0  0  0
  139.8420   71.1240  223.2730 C   0  0  0  0  0  0  0  0  0  0  0  0
  139.2600   69.8740  223.2470 C   0  0  0  0  0  0  0  0  0  0  0  0
  139.1680   69.1270  224.4160 C   0  0  0  0  0  0  0  0  0  0  0  0
  139.6680   69.6520  225.5990 C   0  0  0  0  0  0  0  0  0  0  0  0
  139.6140   68.9720  226.7980 C   0  0  0  0  0  0  0  0  0  0  0  0
  140.1240   69.5350  227.9490 C   0  0  0  0  0  0  0  0  0  0  0  0
  140.0800   68.8820  229.1360 F   0  0  0  0  0  0  0  0  0  0  0  0
  140.7030   70.7860  227.9520 C   0  0  0  0  0  0  0  0  0  0  0  0
  140.7550   71.4600  226.7600 C   0  0  0  0  0  0  0  0  0  0  0  0
  140.2470   70.9060  225.6010 C   0  0  0  0  0  0  0  0  0  0  0  0
  140.3180   71.6000  224.4510 N   0  0  0  0  0  0  0  0  0  0  0  0
  139.5680   73.7380  223.0800 H   0  0  0  0  0  0  0  0  0  0  0  0
  140.4677   73.7534  220.2000 H   0  0  0  0  0  0  0  0  0  0  0  0
  138.8691   74.4326  220.5879 H   0  0  0  0  0  0  0  0  0  0  0  0
  140.2071   77.2659  219.1383 H   0  0  0  0  0  0  0  0  0  0  0  0
  140.4837   78.0786  220.7207 H   0  0  0  0  0  0  0  0  0  0  0  0
  141.8200   79.0999  218.9159 H   0  0  0  0  0  0  0  0  0  0  0  0
  142.8539   78.3238  220.1955 H   0  0  0  0  0  0  0  0  0  0  0  0
  142.4840   77.6223  217.3315 H   0  0  0  0  0  0  0  0  0  0  0  0
  143.9313   77.5153  218.3918 H   0  0  0  0  0  0  0  0  0  0  0  0
  141.5616   75.5690  218.1994 H   0  0  0  0  0  0  0  0  0  0  0  0
  143.2763   75.1892  218.0362 H   0  0  0  0  0  0  0  0  0  0  0  0
  143.5151   76.2111  220.4345 H   0  0  0  0  0  0  0  0  0  0  0  0
  142.7464   74.3033  221.6533 H   0  0  0  0  0  0  0  0  0  0  0  0
  142.3373   73.5976  220.0251 H   0  0  0  0  0  0  0  0  0  0  0  0
  138.8689   69.4684  222.3023 H   0  0  0  0  0  0  0  0  0  0  0  0
  138.7036   68.1299  224.4031 H   0  0  0  0  0  0  0  0  0  0  0  0
  139.1597   67.9709  226.8364 H   0  0  0  0  0  0  0  0  0  0  0  0
  141.1076   71.2261  228.8754 H   0  0  0  0  0  0  0  0  0  0  0  0
  141.2098   72.4610  226.7254 H   0  0  0  0  0  0  0  0  0  0  0  0
  1  2  2  0
  2  3  1  0
  3  4  1  0
  4  5  1  0
  5  6  2  0
  5  7  1  0
  7  8  1  0
  8  9  1  0
  9 10  1  0
 10 11  1  0
 11 12  1  0
 12 13  1  0
 13 14  1  0
 14 15  1  0
 14 16  1  0
 14 17  1  0
  2 18  1  0
 18 19  2  0
 19 20  1  0
 20 21  2  0
 21 22  1  0
 22 23  2  0
 23 24  1  0
 23 25  1  0
 25 26  2  0
 26 27  1  0
 27 28  2  0
 12  7  1  0
 28 18  1  0
 27 21  1  0
  3 29  1  0
  4 30  1  0
  4 31  1  0
  8 32  1  0
  8 33  1  0
  9 34  1  0
  9 35  1  0
 10 36  1  0
 10 37  1  0
 11 38  1  0
 11 39  1  0
 12 40  1  1
 13 41  1  0
 13 42  1  0
 19 43  1  0
 20 44  1  0
 22 45  1  0
 25 46  1  0
 26 47  1  0
M  END
>  <smiles>  (11) 
O=C(NCC(=O)N1CCCCC1CC(F)(F)F)c1ccc2cc(F)ccc2n1

>  <score_type>  (11) 
oracle

>  <origin>  (11) 
autodockgpu

>  <m_score__min__energy>  (11) 
-7.2599999999999998

>  <m_primary>  (11) 
energy

>  <rmsd>  (11) 
2.253916621546901

>  <m_score__min__rmsd>  (11) 
2.253916621546901

>  <meeko>  (11) 
{"free_energy": -6.75, "intermolecular_energy": -8.54, "internal_energy": -1.7, "cluster_size": 15, "cluster_id": 3, "rank_in_cluster": 7}

>  <energy>  (11) 
-6.81

>  <cluster_rmsd>  (11) 
1.26

>  <cluster>  (11) 
1

$$$$

     RDKit          3D

 47 49  0  0  0  0  0  0  0  0999 V2000
  140.1140   71.6010  220.9430 O   0  0  0  0  0  0  0  0  0  0  0  0
  139.9080   72.1830  222.0310 C   0  0  0  0  0  0  0  0  0  0  0  0
  139.7450   73.5720  222.1310 N   0  0  0  0  0  0  0  0  0  0  0  0
  139.7950   74.4670  221.0020 C   0  0  0  0  0  0  0  0  0  0  0  0
  140.6800   75.6250  221.3900 C   0  0  0  0  0  0  0  0  0  0  0  0
  140.6280   75.9750  222.5780 O   0  0  0  0  0  0  0  0  0  0  0  0
  141.4660   76.1820  220.3680 N   0  0  0  0  0  0  0  0  0  0  0  0
  141.0870   77.4280  219.6780 C   0  0  0  0  0  0  0  0  0  0  0  0
  142.2950   78.0320  218.9990 C   0  0  0  0  0  0  0  0  0  0  0  0
  142.9230   77.1000  218.0080 C   0  0  0  0  0  0  0  0  0  0  0  0
  142.5950   75.6400  218.3910 C   0  0  0  0  0  0  0  0  0  0  0  0
  142.7310   75.5920  219.8830 C   0  0  2  0  0  0  0  0  0  0  0  0
  143.0210   74.2920  220.5060 C   0  0  0  0  0  0  0  0  0  0  0  0
  144.4710   73.9130  220.4130 C   0  0  0  0  0  0  0  0  0  0  0  0
  145.3460   74.8810  220.8090 F   0  0  0  0  0  0  0  0  0  0  0  0
  144.7810   73.5890  219.0910 F   0  0  0  0  0  0  0  0  0  0  0  0
  144.6770   72.7760  221.1840 F   0  0  0  0  0  0  0  0  0  0  0  0
  139.8380   71.3520  223.2520 C   0  0  0  0  0  0  0  0  0  0  0  0
  139.2820   70.0900  223.2290 C   0  0  0  0  0  0  0  0  0  0  0  0
  139.2320   69.3330  224.3940 C   0  0  0  0  0  0  0  0  0  0  0  0
  139.7440   69.8630  225.5700 C   0  0  0  0  0  0  0  0  0  0  0  0
  139.7300   69.1730  226.7650 C   0  0  0  0  0  0  0  0  0  0  0  0
  140.2500   69.7400  227.9100 C   0  0  0  0  0  0  0  0  0  0  0  0
  140.2450   69.0790  229.0930 F   0  0  0  0  0  0  0  0  0  0  0  0
  140.8010   71.0050  227.9100 C   0  0  0  0  0  0  0  0  0  0  0  0
  140.8140   71.6870  226.7220 C   0  0  0  0  0  0  0  0  0  0  0  0
  140.2950   71.1280  225.5690 C   0  0  0  0  0  0  0  0  0  0  0  0
  140.3260   71.8310  224.4220 N   0  0  0  0  0  0  0  0  0  0  0  0
  139.5760   73.9700  223.0920 H   0  0  0  0  0  0  0  0  0  0  0  0
  140.2151   73.9479  220.1279 H   0  0  0  0  0  0  0  0  0  0  0  0
  138.7867   74.8178  220.7367 H   0  0  0  0  0  0  0  0  0  0  0  0
  140.3178   77.2069  218.9234 H   0  0  0  0  0  0  0  0  0  0  0  0
  140.6925   78.1429  220.4151 H   0  0  0  0  0  0  0  0  0  0  0  0
  141.9836   78.9472  218.4741 H   0  0  0  0  0  0  0  0  0  0  0  0
  143.0430   78.2459  219.7767 H   0  0  0  0  0  0  0  0  0  0  0  0
  142.5278   77.3128  217.0037 H   0  0  0  0  0  0  0  0  0  0  0  0
  144.0137   77.2428  218.0120 H   0  0  0  0  0  0  0  0  0  0  0  0
  141.5698   75.3814  218.0875 H   0  0  0  0  0  0  0  0  0  0  0  0
  143.2614   74.9215  217.8914 H   0  0  0  0  0  0  0  0  0  0  0  0
  143.6382   76.1400  220.1776 H   0  0  0  0  0  0  0  0  0  0  0  0
  142.7376   74.3400  221.5678 H   0  0  0  0  0  0  0  0  0  0  0  0
  142.4436   73.5286  219.9639 H   0  0  0  0  0  0  0  0  0  0  0  0
  138.8786   69.6830  222.2901 H   0  0  0  0  0  0  0  0  0  0  0  0
  138.7915   68.3251  224.3838 H   0  0  0  0  0  0  0  0  0  0  0  0
  139.3001   68.1613  226.8049 H   0  0  0  0  0  0  0  0  0  0  0  0
  141.2137   71.4485  228.8281 H   0  0  0  0  0  0  0  0  0  0  0  0
  141.2454   72.6982  226.6848 H   0  0  0  0  0  0  0  0  0  0  0  0
  1  2  2  0
  2  3  1  0
  3  4  1  0
  4  5  1  0
  5  6  2  0
  5  7  1  0
  7  8  1  0
  8  9  1  0
  9 10  1  0
 10 11  1  0
 11 12  1  0
 12 13  1  0
 13 14  1  0
 14 15  1  0
 14 16  1  0
 14 17  1  0
  2 18  1  0
 18 19  2  0
 19 20  1  0
 20 21  2  0
 21 22  1  0
 22 23  2  0
 23 24  1  0
 23 25  1  0
 25 26  2  0
 26 27  1  0
 27 28  2  0
 12  7  1  0
 28 18  1  0
 27 21  1  0
  3 29  1  0
  4 30  1  0
  4 31  1  0
  8 32  1  0
  8 33  1  0
  9 34  1  0
  9 35  1  0
 10 36  1  0
 10 37  1  0
 11 38  1  0
 11 39  1  0
 12 40  1  6
 13 41  1  0
 13 42  1  0
 19 43  1  0
 20 44  1  0
 22 45  1  0
 25 46  1  0
 26 47  1  0
M  END
>  <smiles>  (12) 
O=C(NCC(=O)N1CCCCC1CC(F)(F)F)c1ccc2cc(F)ccc2n1

>  <score_type>  (12) 
oracle

>  <origin>  (12) 
autodockgpu

>  <m_score__min__energy>  (12) 
-7.2599999999999998

>  <m_primary>  (12) 
energy

>  <rmsd>  (12) 
2.2620101454637416

>  <m_score__min__rmsd>  (12) 
2.2620101454637416

>  <meeko>  (12) 
{"free_energy": -6.76, "intermolecular_energy": -8.55, "internal_energy": -1.69, "cluster_size": 15, "cluster_id": 3, "rank_in_cluster": 5}

>  <energy>  (12) 
-6.81

>  <cluster_rmsd>  (12) 
1.34

>  <cluster>  (12) 
1

$$$$

     RDKit          3D

 47 49  0  0  0  0  0  0  0  0999 V2000
  141.6740   71.9660  221.1690 O   0  0  0  0  0  0  0  0  0  0  0  0
  140.8630   72.6710  221.8110 C   0  0  0  0  0  0  0  0  0  0  0  0
  139.9300   72.1300  222.7060 N   0  0  0  0  0  0  0  0  0  0  0  0
  139.8080   70.7210  222.9820 C   0  0  0  0  0  0  0  0  0  0  0  0
  138.9690   70.5810  224.2270 C   0  0  0  0  0  0  0  0  0  0  0  0
  137.9560   71.2950  224.2840 O   0  0  0  0  0  0  0  0  0  0  0  0
  139.4210   69.6610  225.1870 N   0  0  0  0  0  0  0  0  0  0  0  0
  138.9670   68.2590  225.2050 C   0  0  0  0  0  0  0  0  0  0  0  0
  139.9340   67.4120  226.0010 C   0  0  0  0  0  0  0  0  0  0  0  0
  140.0890   67.8900  227.4120 C   0  0  0  0  0  0  0  0  0  0  0  0
  139.7560   69.3960  227.4880 C   0  0  0  0  0  0  0  0  0  0  0  0
  140.3790   69.9920  226.2620 C   0  0  2  0  0  0  0  0  0  0  0  0
  140.7210   71.4220  226.2900 C   0  0  0  0  0  0  0  0  0  0  0  0
  141.0380   71.9170  227.6720 C   0  0  0  0  0  0  0  0  0  0  0  0
  139.9520   72.2290  228.4360 F   0  0  0  0  0  0  0  0  0  0  0  0
  141.8280   73.0650  227.5830 F   0  0  0  0  0  0  0  0  0  0  0  0
  141.7850   70.9440  228.3250 F   0  0  0  0  0  0  0  0  0  0  0  0
  140.9080   74.1330  221.6000 C   0  0  0  0  0  0  0  0  0  0  0  0
  141.8610   74.7110  220.7870 C   0  0  0  0  0  0  0  0  0  0  0  0
  141.8760   76.0900  220.6090 C   0  0  0  0  0  0  0  0  0  0  0  0
  140.9260   76.8690  221.2550 C   0  0  0  0  0  0  0  0  0  0  0  0
  140.8770   78.2420  221.1280 C   0  0  0  0  0  0  0  0  0  0  0  0
  139.9140   78.9750  221.7900 C   0  0  0  0  0  0  0  0  0  0  0  0
  139.8500   80.3240  221.6780 F   0  0  0  0  0  0  0  0  0  0  0  0
  138.9710   78.3750  222.5980 C   0  0  0  0  0  0  0  0  0  0  0  0
  139.0220   77.0120  222.7220 C   0  0  0  0  0  0  0  0  0  0  0  0
  139.9820   76.2670  222.0630 C   0  0  0  0  0  0  0  0  0  0  0  0
  139.9990   74.9300  222.2120 N   0  0  0  0  0  0  0  0  0  0  0  0
  139.2880   72.8060  223.2000 H   0  0  0  0  0  0  0  0  0  0  0  0
  139.3180   70.2128  222.1384 H   0  0  0  0  0  0  0  0  0  0  0  0
  140.7984   70.2642  223.1254 H   0  0  0  0  0  0  0  0  0  0  0  0
  137.9701   68.2049  225.6668 H   0  0  0  0  0  0  0  0  0  0  0  0
  138.9213   67.8812  224.1729 H   0  0  0  0  0  0  0  0  0  0  0  0
  139.5640   66.3762  226.0182 H   0  0  0  0  0  0  0  0  0  0  0  0
  140.9181   67.4823  225.5146 H   0  0  0  0  0  0  0  0  0  0  0  0
  139.4039   67.3301  228.0656 H   0  0  0  0  0  0  0  0  0  0  0  0
  141.1261   67.7280  227.7408 H   0  0  0  0  0  0  0  0  0  0  0  0
  138.6671   69.5521  227.4835 H   0  0  0  0  0  0  0  0  0  0  0  0
  140.1360   69.8577  228.4113 H   0  0  0  0  0  0  0  0  0  0  0  0
  141.3852   69.5676  226.1296 H   0  0  0  0  0  0  0  0  0  0  0  0
  141.5988   71.5862  225.6478 H   0  0  0  0  0  0  0  0  0  0  0  0
  139.8434   71.9798  225.9313 H   0  0  0  0  0  0  0  0  0  0  0  0
  142.6078   74.0820  220.2804 H   0  0  0  0  0  0  0  0  0  0  0  0
  142.6329   76.5587  219.9629 H   0  0  0  0  0  0  0  0  0  0  0  0
  141.6128   78.7570  220.4929 H   0  0  0  0  0  0  0  0  0  0  0  0
  138.2075   78.9682  223.1226 H   0  0  0  0  0  0  0  0  0  0  0  0
  138.2849   76.5003  223.3582 H   0  0  0  0  0  0  0  0  0  0  0  0
  1  2  2  0
  2  3  1  0
  3  4  1  0
  4  5  1  0
  5  6  2  0
  5  7  1  0
  7  8  1  0
  8  9  1  0
  9 10  1  0
 10 11  1  0
 11 12  1  0
 12 13  1  0
 13 14  1  0
 14 15  1  0
 14 16  1  0
 14 17  1  0
  2 18  1  0
 18 19  2  0
 19 20  1  0
 20 21  2  0
 21 22  1  0
 22 23  2  0
 23 24  1  0
 23 25  1  0
 25 26  2  0
 26 27  1  0
 27 28  2  0
 12  7  1  0
 28 18  1  0
 27 21  1  0
  3 29  1  0
  4 30  1  0
  4 31  1  0
  8 32  1  0
  8 33  1  0
  9 34  1  0
  9 35  1  0
 10 36  1  0
 10 37  1  0
 11 38  1  0
 11 39  1  0
 12 40  1  6
 13 41  1  0
 13 42  1  0
 19 43  1  0
 20 44  1  0
 22 45  1  0
 25 46  1  0
 26 47  1  0
M  END
>  <smiles>  (13) 
O=C(NCC(=O)N1CCCCC1CC(F)(F)F)c1ccc2cc(F)ccc2n1

>  <score_type>  (13) 
oracle

>  <origin>  (13) 
autodockgpu

>  <m_score__min__energy>  (13) 
-7.2599999999999998

>  <m_primary>  (13) 
energy

>  <rmsd>  (13) 
8.65247450070922

>  <m_score__min__rmsd>  (13) 
8.65247450070922

>  <meeko>  (13) 
{"free_energy": -7.06, "intermolecular_energy": -8.85, "internal_energy": -1.75, "cluster_size": 8, "cluster_id": 2, "rank_in_cluster": 4}

>  <energy>  (13) 
-6.8

>  <cluster_rmsd>  (13) 
1.31

>  <cluster>  (13) 
1

$$$$

     RDKit          3D

 47 49  0  0  0  0  0  0  0  0999 V2000
  140.1100   71.4870  220.9370 O   0  0  0  0  0  0  0  0  0  0  0  0
  139.9170   72.0680  222.0290 C   0  0  0  0  0  0  0  0  0  0  0  0
  139.7680   73.4580  222.1320 N   0  0  0  0  0  0  0  0  0  0  0  0
  139.8190   74.3550  221.0060 C   0  0  0  0  0  0  0  0  0  0  0  0
  140.6120   75.5640  221.4340 C   0  0  0  0  0  0  0  0  0  0  0  0
  140.4900   75.9020  222.6210 O   0  0  0  0  0  0  0  0  0  0  0  0
  141.4000   76.1790  220.4470 N   0  0  0  0  0  0  0  0  0  0  0  0
  141.0130   77.4520  219.8140 C   0  0  0  0  0  0  0  0  0  0  0  0
  142.2210   78.1010  219.1760 C   0  0  0  0  0  0  0  0  0  0  0  0
  142.8660   77.2240  218.1470 C   0  0  0  0  0  0  0  0  0  0  0  0
  142.5510   75.7440  218.4560 C   0  0  0  0  0  0  0  0  0  0  0  0
  142.6760   75.6260  219.9450 C   0  0  2  0  0  0  0  0  0  0  0  0
  142.9740   74.3000  220.5080 C   0  0  0  0  0  0  0  0  0  0  0  0
  144.4270   73.9360  220.3970 C   0  0  0  0  0  0  0  0  0  0  0  0
  145.2980   74.9120  220.7830 F   0  0  0  0  0  0  0  0  0  0  0  0
  144.7240   73.6150  219.0710 F   0  0  0  0  0  0  0  0  0  0  0  0
  144.6540   72.8000  221.1640 F   0  0  0  0  0  0  0  0  0  0  0  0
  139.8460   71.2350  223.2470 C   0  0  0  0  0  0  0  0  0  0  0  0
  139.3000   69.9690  223.2190 C   0  0  0  0  0  0  0  0  0  0  0  0
  139.2490   69.2100  224.3830 C   0  0  0  0  0  0  0  0  0  0  0  0
  139.7520   69.7410  225.5630 C   0  0  0  0  0  0  0  0  0  0  0  0
  139.7360   69.0500  226.7570 C   0  0  0  0  0  0  0  0  0  0  0  0
  140.2470   69.6190  227.9050 C   0  0  0  0  0  0  0  0  0  0  0  0
  140.2400   68.9560  229.0880 F   0  0  0  0  0  0  0  0  0  0  0  0
  140.7880   70.8880  227.9100 C   0  0  0  0  0  0  0  0  0  0  0  0
  140.8020   71.5710  226.7230 C   0  0  0  0  0  0  0  0  0  0  0  0
  140.2930   71.0110  225.5660 C   0  0  0  0  0  0  0  0  0  0  0  0
  140.3250   71.7160  224.4210 N   0  0  0  0  0  0  0  0  0  0  0  0
  139.6090   73.8550  223.0960 H   0  0  0  0  0  0  0  0  0  0  0  0
  140.3120   73.8632  220.1545 H   0  0  0  0  0  0  0  0  0  0  0  0
  138.8055   74.6444  220.6913 H   0  0  0  0  0  0  0  0  0  0  0  0
  140.2532   77.2589  219.0424 H   0  0  0  0  0  0  0  0  0  0  0  0
  140.6035   78.1264  220.5804 H   0  0  0  0  0  0  0  0  0  0  0  0
  141.9048   79.0375  218.6934 H   0  0  0  0  0  0  0  0  0  0  0  0
  142.9602   78.2850  219.9696 H   0  0  0  0  0  0  0  0  0  0  0  0
  142.4763   77.4809  217.1510 H   0  0  0  0  0  0  0  0  0  0  0  0
  143.9551   77.3774  218.1674 H   0  0  0  0  0  0  0  0  0  0  0  0
  141.5311   75.4895  218.1318 H   0  0  0  0  0  0  0  0  0  0  0  0
  143.2288   75.0573  217.9278 H   0  0  0  0  0  0  0  0  0  0  0  0
  143.5751   76.1683  220.2728 H   0  0  0  0  0  0  0  0  0  0  0  0
  142.6908   74.2973  221.5709 H   0  0  0  0  0  0  0  0  0  0  0  0
  142.4009   73.5583  219.9323 H   0  0  0  0  0  0  0  0  0  0  0  0
  138.9054   69.5601  222.2771 H   0  0  0  0  0  0  0  0  0  0  0  0
  138.8147   68.1995  224.3690 H   0  0  0  0  0  0  0  0  0  0  0  0
  139.3117   68.0358  226.7939 H   0  0  0  0  0  0  0  0  0  0  0  0
  141.1921   71.3337  228.8309 H   0  0  0  0  0  0  0  0  0  0  0  0
  141.2266   72.5852  226.6895 H   0  0  0  0  0  0  0  0  0  0  0  0
  1  2  2  0
  2  3  1  0
  3  4  1  0
  4  5  1  0
  5  6  2  0
  5  7  1  0
  7  8  1  0
  8  9  1  0
  9 10  1  0
 10 11  1  0
 11 12  1  0
 12 13  1  0
 13 14  1  0
 14 15  1  0
 14 16  1  0
 14 17  1  0
  2 18  1  0
 18 19  2  0
 19 20  1  0
 20 21  2  0
 21 22  1  0
 22 23  2  0
 23 24  1  0
 23 25  1  0
 25 26  2  0
 26 27  1  0
 27 28  2  0
 12  7  1  0
 28 18  1  0
 27 21  1  0
  3 29  1  0
  4 30  1  0
  4 31  1  0
  8 32  1  0
  8 33  1  0
  9 34  1  0
  9 35  1  0
 10 36  1  0
 10 37  1  0
 11 38  1  0
 11 39  1  0
 12 40  1  1
 13 41  1  0
 13 42  1  0
 19 43  1  0
 20 44  1  0
 22 45  1  0
 25 46  1  0
 26 47  1  0
M  END
>  <smiles>  (14) 
O=C(NCC(=O)N1CCCCC1CC(F)(F)F)c1ccc2cc(F)ccc2n1

>  <score_type>  (14) 
oracle

>  <origin>  (14) 
autodockgpu

>  <m_score__min__energy>  (14) 
-7.2599999999999998

>  <m_primary>  (14) 
energy

>  <rmsd>  (14) 
2.248004342321725

>  <m_score__min__rmsd>  (14) 
2.248004342321725

>  <meeko>  (14) 
{"free_energy": -6.73, "intermolecular_energy": -8.52, "internal_energy": -1.72, "cluster_size": 15, "cluster_id": 3, "rank_in_cluster": 10}

>  <energy>  (14) 
-6.8

>  <cluster_rmsd>  (14) 
1.28

>  <cluster>  (14) 
1

$$$$

     RDKit          3D

 47 49  0  0  0  0  0  0  0  0999 V2000
  141.4230   72.4750  221.6090 O   0  0  0  0  0  0  0  0  0  0  0  0
  140.4790   72.6700  222.4070 C   0  0  0  0  0  0  0  0  0  0  0  0
  139.6570   73.8040  222.3480 N   0  0  0  0  0  0  0  0  0  0  0  0
  139.8100   74.8540  221.3720 C   0  0  0  0  0  0  0  0  0  0  0  0
  139.3920   76.1420  222.0340 C   0  0  0  0  0  0  0  0  0  0  0  0
  138.4320   76.0660  222.8160 O   0  0  0  0  0  0  0  0  0  0  0  0
  140.1290   77.2890  221.6950 N   0  0  0  0  0  0  0  0  0  0  0  0
  141.3290   77.2260  220.8420 C   0  0  0  0  0  0  0  0  0  0  0  0
  141.6260   78.5920  220.2650 C   0  0  0  0  0  0  0  0  0  0  0  0
  141.8370   79.6300  221.3250 C   0  0  0  0  0  0  0  0  0  0  0  0
  141.1000   79.2090  222.6150 C   0  0  0  0  0  0  0  0  0  0  0  0
  139.7880   78.6540  222.1480 C   0  0  2  0  0  0  0  0  0  0  0  0
  138.6590   78.6690  223.0890 C   0  0  0  0  0  0  0  0  0  0  0  0
  138.2170   80.0600  223.4440 C   0  0  0  0  0  0  0  0  0  0  0  0
  138.8020   80.5840  224.5590 F   0  0  0  0  0  0  0  0  0  0  0  0
  136.8370   80.0680  223.6560 F   0  0  0  0  0  0  0  0  0  0  0  0
  138.4800   80.8920  222.3630 F   0  0  0  0  0  0  0  0  0  0  0  0
  140.2380   71.6490  223.4480 C   0  0  0  0  0  0  0  0  0  0  0  0
  139.5690   70.4780  223.1620 C   0  0  0  0  0  0  0  0  0  0  0  0
  139.3580   69.5370  224.1640 C   0  0  0  0  0  0  0  0  0  0  0  0
  139.8280   69.7920  225.4460 C   0  0  0  0  0  0  0  0  0  0  0  0
  139.6580   68.9080  226.4910 C   0  0  0  0  0  0  0  0  0  0  0  0
  140.1420   69.2050  227.7480 C   0  0  0  0  0  0  0  0  0  0  0  0
  139.9850   68.3500  228.7880 F   0  0  0  0  0  0  0  0  0  0  0  0
  140.8090   70.3830  228.0110 C   0  0  0  0  0  0  0  0  0  0  0  0
  140.9760   71.2590  226.9710 C   0  0  0  0  0  0  0  0  0  0  0  0
  140.4950   70.9720  225.7070 C   0  0  0  0  0  0  0  0  0  0  0  0
  140.6800   71.8590  224.7130 N   0  0  0  0  0  0  0  0  0  0  0  0
  138.8880   73.8800  223.0650 H   0  0  0  0  0  0  0  0  0  0  0  0
  140.8598   74.9191  221.0499 H   0  0  0  0  0  0  0  0  0  0  0  0
  139.1937   74.6538  220.4831 H   0  0  0  0  0  0  0  0  0  0  0  0
  142.1865   76.8905  221.4438 H   0  0  0  0  0  0  0  0  0  0  0  0
  141.1504   76.5178  220.0195 H   0  0  0  0  0  0  0  0  0  0  0  0
  142.5361   78.5251  219.6509 H   0  0  0  0  0  0  0  0  0  0  0  0
  140.7554   78.8982  219.6665 H   0  0  0  0  0  0  0  0  0  0  0  0
  142.9127   79.7276  221.5330 H   0  0  0  0  0  0  0  0  0  0  0  0
  141.4409   80.5950  220.9759 H   0  0  0  0  0  0  0  0  0  0  0  0
  141.6740   78.4419  223.1555 H   0  0  0  0  0  0  0  0  0  0  0  0
  140.9687   80.0516  223.3098 H   0  0  0  0  0  0  0  0  0  0  0  0
  139.3791   79.3116  221.3667 H   0  0  0  0  0  0  0  0  0  0  0  0
  137.8122   78.1371  222.6308 H   0  0  0  0  0  0  0  0  0  0  0  0
  138.9934   78.1805  224.0161 H   0  0  0  0  0  0  0  0  0  0  0  0
  139.2025   70.2882  222.1424 H   0  0  0  0  0  0  0  0  0  0  0  0
  138.8245   68.6006  223.9437 H   0  0  0  0  0  0  0  0  0  0  0  0
  139.1316   67.9573  226.3204 H   0  0  0  0  0  0  0  0  0  0  0  0
  141.1921   70.6104  229.0167 H   0  0  0  0  0  0  0  0  0  0  0  0
  141.5028   72.2088  227.1449 H   0  0  0  0  0  0  0  0  0  0  0  0
  1  2  2  0
  2  3  1  0
  3  4  1  0
  4  5  1  0
  5  6  2  0
  5  7  1  0
  7  8  1  0
  8  9  1  0
  9 10  1  0
 10 11  1  0
 11 12  1  0
 12 13  1  0
 13 14  1  0
 14 15  1  0
 14 16  1  0
 14 17  1  0
  2 18  1  0
 18 19  2  0
 19 20  1  0
 20 21  2  0
 21 22  1  0
 22 23  2  0
 23 24  1  0
 23 25  1  0
 25 26  2  0
 26 27  1  0
 27 28  2  0
 12  7  1  0
 28 18  1  0
 27 21  1  0
  3 29  1  0
  4 30  1  0
  4 31  1  0
  8 32  1  0
  8 33  1  0
  9 34  1  0
  9 35  1  0
 10 36  1  0
 10 37  1  0
 11 38  1  0
 11 39  1  0
 12 40  1  6
 13 41  1  0
 13 42  1  0
 19 43  1  0
 20 44  1  0
 22 45  1  0
 25 46  1  0
 26 47  1  0
M  END
>  <smiles>  (15) 
O=C(NCC(=O)N1CCCCC1CC(F)(F)F)c1ccc2cc(F)ccc2n1

>  <score_type>  (15) 
oracle

>  <origin>  (15) 
autodockgpu

>  <m_score__min__energy>  (15) 
-7.2599999999999998

>  <m_primary>  (15) 
energy

>  <rmsd>  (15) 
2.9168119795870933

>  <m_score__min__rmsd>  (15) 
2.9168119795870933

>  <meeko>  (15) 
{"free_energy": -7.08, "intermolecular_energy": -8.87, "internal_energy": -1.31, "cluster_size": 24, "cluster_id": 1, "rank_in_cluster": 4}

>  <energy>  (15) 
-6.76

>  <cluster_rmsd>  (15) 
1.48

>  <cluster>  (15) 
1

$$$$

     RDKit          3D

 47 49  0  0  0  0  0  0  0  0999 V2000
  141.5630   71.6770  220.9920 O   0  0  0  0  0  0  0  0  0  0  0  0
  140.8450   72.4820  221.6270 C   0  0  0  0  0  0  0  0  0  0  0  0
  139.8610   72.0680  222.5350 N   0  0  0  0  0  0  0  0  0  0  0  0
  139.5750   70.6860  222.8320 C   0  0  0  0  0  0  0  0  0  0  0  0
  138.8900   70.6510  224.1740 C   0  0  0  0  0  0  0  0  0  0  0  0
  137.9710   71.4680  224.3380 O   0  0  0  0  0  0  0  0  0  0  0  0
  139.3630   69.7010  225.0950 N   0  0  0  0  0  0  0  0  0  0  0  0
  139.0580   68.2650  224.9670 C   0  0  0  0  0  0  0  0  0  0  0  0
  140.0470   67.4530  225.7720 C   0  0  0  0  0  0  0  0  0  0  0  0
  140.0450   67.8220  227.2240 C   0  0  0  0  0  0  0  0  0  0  0  0
  139.5510   69.2760  227.3890 C   0  0  0  0  0  0  0  0  0  0  0  0
  140.1980   70.0330  226.2680 C   0  0  2  0  0  0  0  0  0  0  0  0
  140.3850   71.4820  226.4340 C   0  0  0  0  0  0  0  0  0  0  0  0
  140.9660   71.8430  227.7710 C   0  0  0  0  0  0  0  0  0  0  0  0
  141.6320   70.8340  228.4020 F   0  0  0  0  0  0  0  0  0  0  0  0
  139.9430   72.2630  228.6230 F   0  0  0  0  0  0  0  0  0  0  0  0
  141.8330   72.9150  227.5970 F   0  0  0  0  0  0  0  0  0  0  0  0
  141.0610   73.9250  221.3940 C   0  0  0  0  0  0  0  0  0  0  0  0
  142.0000   74.3730  220.4900 C   0  0  0  0  0  0  0  0  0  0  0  0
  142.1790   75.7380  220.2930 C   0  0  0  0  0  0  0  0  0  0  0  0
  141.4030   76.6350  221.0150 C   0  0  0  0  0  0  0  0  0  0  0  0
  141.5220   78.0020  220.8760 C   0  0  0  0  0  0  0  0  0  0  0  0
  140.7300   78.8550  221.6150 C   0  0  0  0  0  0  0  0  0  0  0  0
  140.8320   80.2020  221.4920 F   0  0  0  0  0  0  0  0  0  0  0  0
  139.7960   78.3850  222.5140 C   0  0  0  0  0  0  0  0  0  0  0  0
  139.6800   77.0270  222.6500 C   0  0  0  0  0  0  0  0  0  0  0  0
  140.4690   76.1620  221.9150 C   0  0  0  0  0  0  0  0  0  0  0  0
  140.3250   74.8350  222.0780 N   0  0  0  0  0  0  0  0  0  0  0  0
  139.3070   72.8210  223.0220 H   0  0  0  0  0  0  0  0  0  0  0  0
  138.9143   70.2637  222.0605 H   0  0  0  0  0  0  0  0  0  0  0  0
  140.5000   70.0910  222.8502 H   0  0  0  0  0  0  0  0  0  0  0  0
  138.0408   68.0739  225.3397 H   0  0  0  0  0  0  0  0  0  0  0  0
  139.1282   67.9737  223.9086 H   0  0  0  0  0  0  0  0  0  0  0  0
  139.7881   66.3880  225.6783 H   0  0  0  0  0  0  0  0  0  0  0  0
  141.0517   67.6614  225.3756 H   0  0  0  0  0  0  0  0  0  0  0  0
  139.3756   67.1435  227.7731 H   0  0  0  0  0  0  0  0  0  0  0  0
  141.0661   67.7358  227.6240 H   0  0  0  0  0  0  0  0  0  0  0  0
  138.4551   69.3241  227.3066 H   0  0  0  0  0  0  0  0  0  0  0  0
  139.8104   69.6922  228.3736 H   0  0  0  0  0  0  0  0  0  0  0  0
  141.2504   69.7232  226.1873 H   0  0  0  0  0  0  0  0  0  0  0  0
  141.0640   71.8415  225.6468 H   0  0  0  0  0  0  0  0  0  0  0  0
  139.3941   71.9546  226.3643 H   0  0  0  0  0  0  0  0  0  0  0  0
  142.6076   73.6511  219.9246 H   0  0  0  0  0  0  0  0  0  0  0  0
  142.9268   76.1029  219.5735 H   0  0  0  0  0  0  0  0  0  0  0  0
  142.2559   78.4157  220.1687 H   0  0  0  0  0  0  0  0  0  0  0  0
  139.1687   79.0737  223.0990 H   0  0  0  0  0  0  0  0  0  0  0  0
  138.9447   76.6167  223.3578 H   0  0  0  0  0  0  0  0  0  0  0  0
  1  2  2  0
  2  3  1  0
  3  4  1  0
  4  5  1  0
  5  6  2  0
  5  7  1  0
  7  8  1  0
  8  9  1  0
  9 10  1  0
 10 11  1  0
 11 12  1  0
 12 13  1  0
 13 14  1  0
 14 15  1  0
 14 16  1  0
 14 17  1  0
  2 18  1  0
 18 19  2  0
 19 20  1  0
 20 21  2  0
 21 22  1  0
 22 23  2  0
 23 24  1  0
 23 25  1  0
 25 26  2  0
 26 27  1  0
 27 28  2  0
 12  7  1  0
 28 18  1  0
 27 21  1  0
  3 29  1  0
  4 30  1  0
  4 31  1  0
  8 32  1  0
  8 33  1  0
  9 34  1  0
  9 35  1  0
 10 36  1  0
 10 37  1  0
 11 38  1  0
 11 39  1  0
 12 40  1  6
 13 41  1  0
 13 42  1  0
 19 43  1  0
 20 44  1  0
 22 45  1  0
 25 46  1  0
 26 47  1  0
M  END
>  <smiles>  (16) 
O=C(NCC(=O)N1CCCCC1CC(F)(F)F)c1ccc2cc(F)ccc2n1

>  <score_type>  (16) 
oracle

>  <origin>  (16) 
autodockgpu

>  <m_score__min__energy>  (16) 
-7.2599999999999998

>  <m_primary>  (16) 
energy

>  <rmsd>  (16) 
8.584867623127758

>  <m_score__min__rmsd>  (16) 
8.584867623127758

>  <meeko>  (16) 
{"free_energy": -7.09, "intermolecular_energy": -8.88, "internal_energy": -1.76, "cluster_size": 8, "cluster_id": 2, "rank_in_cluster": 2}

>  <energy>  (16) 
-6.76

>  <cluster_rmsd>  (16) 
1.31

>  <cluster>  (16) 
1

$$$$

     RDKit          3D

 47 49  0  0  0  0  0  0  0  0999 V2000
  140.0730   71.2740  220.8600 O   0  0  0  0  0  0  0  0  0  0  0  0
  139.9820   71.9080  221.9350 C   0  0  0  0  0  0  0  0  0  0  0  0
  139.9890   73.3080  221.9930 N   0  0  0  0  0  0  0  0  0  0  0  0
  140.1000   74.1570  220.8330 C   0  0  0  0  0  0  0  0  0  0  0  0
  140.9810   75.3200  221.2140 C   0  0  0  0  0  0  0  0  0  0  0  0
  140.9160   75.6870  222.3970 O   0  0  0  0  0  0  0  0  0  0  0  0
  141.7780   75.8630  220.1920 N   0  0  0  0  0  0  0  0  0  0  0  0
  141.3690   77.0550  219.4280 C   0  0  0  0  0  0  0  0  0  0  0  0
  142.5730   77.6810  218.7610 C   0  0  0  0  0  0  0  0  0  0  0  0
  143.2770   76.7320  217.8410 C   0  0  0  0  0  0  0  0  0  0  0  0
  143.0010   75.2780  218.2850 C   0  0  0  0  0  0  0  0  0  0  0  0
  143.0850   75.3090  219.7810 C   0  0  2  0  0  0  0  0  0  0  0  0
  143.4100   74.0560  220.4790 C   0  0  0  0  0  0  0  0  0  0  0  0
  144.8740   73.7260  220.4300 C   0  0  0  0  0  0  0  0  0  0  0  0
  145.3350   73.3310  219.2090 F   0  0  0  0  0  0  0  0  0  0  0  0
  145.1480   72.6970  221.3310 F   0  0  0  0  0  0  0  0  0  0  0  0
  145.5890   74.8450  220.8410 F   0  0  0  0  0  0  0  0  0  0  0  0
  139.8630   71.1270  223.1850 C   0  0  0  0  0  0  0  0  0  0  0  0
  139.2930   69.8720  223.1940 C   0  0  0  0  0  0  0  0  0  0  0  0
  139.1960   69.1630  224.3870 C   0  0  0  0  0  0  0  0  0  0  0  0
  139.6770   69.7340  225.5570 C   0  0  0  0  0  0  0  0  0  0  0  0
  139.6160   69.0940  226.7780 C   0  0  0  0  0  0  0  0  0  0  0  0
  140.1070   69.7010  227.9150 C   0  0  0  0  0  0  0  0  0  0  0  0
  140.0560   69.0880  229.1230 F   0  0  0  0  0  0  0  0  0  0  0  0
  140.6730   70.9580  227.8810 C   0  0  0  0  0  0  0  0  0  0  0  0
  140.7320   71.5910  226.6680 C   0  0  0  0  0  0  0  0  0  0  0  0
  140.2430   70.9930  225.5220 C   0  0  0  0  0  0  0  0  0  0  0  0
  140.3200   71.6480  224.3500 N   0  0  0  0  0  0  0  0  0  0  0  0
  139.9080   73.7520  222.9460 H   0  0  0  0  0  0  0  0  0  0  0  0
  140.5519   73.5991  219.9996 H   0  0  0  0  0  0  0  0  0  0  0  0
  139.1088   74.5076  220.5096 H   0  0  0  0  0  0  0  0  0  0  0  0
  140.6384   76.7620  218.6596 H   0  0  0  0  0  0  0  0  0  0  0  0
  140.9164   77.7857  220.1145 H   0  0  0  0  0  0  0  0  0  0  0  0
  142.2404   78.5540  218.1802 H   0  0  0  0  0  0  0  0  0  0  0  0
  143.2818   77.9676  219.5518 H   0  0  0  0  0  0  0  0  0  0  0  0
  142.9096   76.8772  216.8144 H   0  0  0  0  0  0  0  0  0  0  0  0
  144.3593   76.9251  217.8758 H   0  0  0  0  0  0  0  0  0  0  0  0
  142.0001   74.9575  217.9602 H   0  0  0  0  0  0  0  0  0  0  0  0
  143.7164   74.5678  217.8448 H   0  0  0  0  0  0  0  0  0  0  0  0
  143.9559   75.9116  220.0782 H   0  0  0  0  0  0  0  0  0  0  0  0
  143.1061   74.1511  221.5319 H   0  0  0  0  0  0  0  0  0  0  0  0
  142.8700   73.2437  219.9705 H   0  0  0  0  0  0  0  0  0  0  0  0
  138.9154   69.4318  222.2593 H   0  0  0  0  0  0  0  0  0  0  0  0
  138.7430   68.1607  224.4028 H   0  0  0  0  0  0  0  0  0  0  0  0
  139.1715   68.0901  226.8452 H   0  0  0  0  0  0  0  0  0  0  0  0
  141.0622   71.4340  228.7931 H   0  0  0  0  0  0  0  0  0  0  0  0
  141.1772   72.5949  226.6046 H   0  0  0  0  0  0  0  0  0  0  0  0
  1  2  2  0
  2  3  1  0
  3  4  1  0
  4  5  1  0
  5  6  2  0
  5  7  1  0
  7  8  1  0
  8  9  1  0
  9 10  1  0
 10 11  1  0
 11 12  1  0
 12 13  1  0
 13 14  1  0
 14 15  1  0
 14 16  1  0
 14 17  1  0
  2 18  1  0
 18 19  2  0
 19 20  1  0
 20 21  2  0
 21 22  1  0
 22 23  2  0
 23 24  1  0
 23 25  1  0
 25 26  2  0
 26 27  1  0
 27 28  2  0
 12  7  1  0
 28 18  1  0
 27 21  1  0
  3 29  1  0
  4 30  1  0
  4 31  1  0
  8 32  1  0
  8 33  1  0
  9 34  1  0
  9 35  1  0
 10 36  1  0
 10 37  1  0
 11 38  1  0
 11 39  1  0
 12 40  1  6
 13 41  1  0
 13 42  1  0
 19 43  1  0
 20 44  1  0
 22 45  1  0
 25 46  1  0
 26 47  1  0
M  END
>  <smiles>  (17) 
O=C(NCC(=O)N1CCCCC1CC(F)(F)F)c1ccc2cc(F)ccc2n1

>  <score_type>  (17) 
oracle

>  <origin>  (17) 
autodockgpu

>  <m_score__min__energy>  (17) 
-7.2599999999999998

>  <m_primary>  (17) 
energy

>  <rmsd>  (17) 
2.314666446874633

>  <m_score__min__rmsd>  (17) 
2.314666446874633

>  <meeko>  (17) 
{"free_energy": -6.65, "intermolecular_energy": -8.44, "internal_energy": -1.8, "cluster_size": 15, "cluster_id": 3, "rank_in_cluster": 14}

>  <energy>  (17) 
-6.75

>  <cluster_rmsd>  (17) 
1.18

>  <cluster>  (17) 
1

$$$$

     RDKit          3D

 47 49  0  0  0  0  0  0  0  0999 V2000
  140.9930   71.8760  221.2340 O   0  0  0  0  0  0  0  0  0  0  0  0
  140.4200   72.3570  222.2370 C   0  0  0  0  0  0  0  0  0  0  0  0
  139.9900   73.6900  222.2990 N   0  0  0  0  0  0  0  0  0  0  0  0
  140.1600   74.6370  221.2260 C   0  0  0  0  0  0  0  0  0  0  0  0
  139.6160   75.9580  221.7070 C   0  0  0  0  0  0  0  0  0  0  0  0
  138.9240   75.9200  222.7360 O   0  0  0  0  0  0  0  0  0  0  0  0
  139.9460   77.0890  220.9410 N   0  0  0  0  0  0  0  0  0  0  0  0
  139.4490   77.2780  219.5670 C   0  0  0  0  0  0  0  0  0  0  0  0
  139.5520   78.7350  219.1750 C   0  0  0  0  0  0  0  0  0  0  0  0
  140.9550   79.2540  219.2600 C   0  0  0  0  0  0  0  0  0  0  0  0
  141.7570   78.4160  220.2790 C   0  0  0  0  0  0  0  0  0  0  0  0
  140.8120   78.1870  221.4200 C   0  0  2  0  0  0  0  0  0  0  0  0
  141.3860   77.9130  222.7460 C   0  0  0  0  0  0  0  0  0  0  0  0
  141.5880   79.1590  223.5600 C   0  0  0  0  0  0  0  0  0  0  0  0
  142.6160   79.9560  223.1480 F   0  0  0  0  0  0  0  0  0  0  0  0
  141.8400   78.8100  224.8870 F   0  0  0  0  0  0  0  0  0  0  0  0
  140.4100   79.8940  223.5360 F   0  0  0  0  0  0  0  0  0  0  0  0
  140.1960   71.4640  223.3930 C   0  0  0  0  0  0  0  0  0  0  0  0
  139.5660   70.2460  223.2480 C   0  0  0  0  0  0  0  0  0  0  0  0
  139.3720   69.4290  224.3560 C   0  0  0  0  0  0  0  0  0  0  0  0
  139.8170   69.8550  225.6000 C   0  0  0  0  0  0  0  0  0  0  0  0
  139.6600   69.1020  226.7450 C   0  0  0  0  0  0  0  0  0  0  0  0
  140.1180   69.5660  227.9600 C   0  0  0  0  0  0  0  0  0  0  0  0
  139.9730   68.8400  229.0960 F   0  0  0  0  0  0  0  0  0  0  0  0
  140.7450   70.7880  228.0820 C   0  0  0  0  0  0  0  0  0  0  0  0
  140.9000   71.5340  226.9440 C   0  0  0  0  0  0  0  0  0  0  0  0
  140.4440   71.0790  225.7210 C   0  0  0  0  0  0  0  0  0  0  0  0
  140.6150   71.8420  224.6260 N   0  0  0  0  0  0  0  0  0  0  0  0
  139.5170   74.0030  223.1880 H   0  0  0  0  0  0  0  0  0  0  0  0
  141.2268   74.7369  220.9770 H   0  0  0  0  0  0  0  0  0  0  0  0
  139.6300   74.3023  220.3221 H   0  0  0  0  0  0  0  0  0  0  0  0
  140.0516   76.6712  218.8751 H   0  0  0  0  0  0  0  0  0  0  0  0
  138.3957   76.9647  219.5180 H   0  0  0  0  0  0  0  0  0  0  0  0
  139.1961   78.8480  218.1403 H   0  0  0  0  0  0  0  0  0  0  0  0
  138.9377   79.3150  219.8795 H   0  0  0  0  0  0  0  0  0  0  0  0
  141.4321   79.1828  218.2714 H   0  0  0  0  0  0  0  0  0  0  0  0
  140.9365   80.3046  219.5854 H   0  0  0  0  0  0  0  0  0  0  0  0
  142.0661   77.4585  219.8345 H   0  0  0  0  0  0  0  0  0  0  0  0
  142.6777   78.9252  220.6001 H   0  0  0  0  0  0  0  0  0  0  0  0
  140.2856   79.1269  221.6422 H   0  0  0  0  0  0  0  0  0  0  0  0
  140.7059   77.2426  223.2920 H   0  0  0  0  0  0  0  0  0  0  0  0
  142.3736   77.4538  222.5916 H   0  0  0  0  0  0  0  0  0  0  0  0
  139.2173   69.9211  222.2566 H   0  0  0  0  0  0  0  0  0  0  0  0
  138.8713   68.4555  224.2481 H   0  0  0  0  0  0  0  0  0  0  0  0
  139.1645   68.1216  226.6882 H   0  0  0  0  0  0  0  0  0  0  0  0
  141.1067   71.1497  229.0558 H   0  0  0  0  0  0  0  0  0  0  0  0
  141.3967   72.5136  227.0043 H   0  0  0  0  0  0  0  0  0  0  0  0
  1  2  2  0
  2  3  1  0
  3  4  1  0
  4  5  1  0
  5  6  2  0
  5  7  1  0
  7  8  1  0
  8  9  1  0
  9 10  1  0
 10 11  1  0
 11 12  1  0
 12 13  1  0
 13 14  1  0
 14 15  1  0
 14 16  1  0
 14 17  1  0
  2 18  1  0
 18 19  2  0
 19 20  1  0
 20 21  2  0
 21 22  1  0
 22 23  2  0
 23 24  1  0
 23 25  1  0
 25 26  2  0
 26 27  1  0
 27 28  2  0
 12  7  1  0
 28 18  1  0
 27 21  1  0
  3 29  1  0
  4 30  1  0
  4 31  1  0
  8 32  1  0
  8 33  1  0
  9 34  1  0
  9 35  1  0
 10 36  1  0
 10 37  1  0
 11 38  1  0
 11 39  1  0
 12 40  1  1
 13 41  1  0
 13 42  1  0
 19 43  1  0
 20 44  1  0
 22 45  1  0
 25 46  1  0
 26 47  1  0
M  END
>  <smiles>  (18) 
O=C(NCC(=O)N1CCCCC1CC(F)(F)F)c1ccc2cc(F)ccc2n1

>  <score_type>  (18) 
oracle

>  <origin>  (18) 
autodockgpu

>  <m_score__min__energy>  (18) 
-7.2599999999999998

>  <m_primary>  (18) 
energy

>  <rmsd>  (18) 
2.3292260664111066

>  <m_score__min__rmsd>  (18) 
2.3292260664111066

>  <meeko>  (18) 
{"free_energy": -6.66, "intermolecular_energy": -8.45, "internal_energy": -1.65, "cluster_size": 24, "cluster_id": 1, "rank_in_cluster": 22}

>  <energy>  (18) 
-6.75

>  <cluster_rmsd>  (18) 
1.32

>  <cluster>  (18) 
1

$$$$

     RDKit          3D

 47 49  0  0  0  0  0  0  0  0999 V2000
  141.2590   72.2610  221.3560 O   0  0  0  0  0  0  0  0  0  0  0  0
  140.4960   72.5920  222.2910 C   0  0  0  0  0  0  0  0  0  0  0  0
  139.8590   73.8400  222.3450 N   0  0  0  0  0  0  0  0  0  0  0  0
  140.0120   74.8610  221.3400 C   0  0  0  0  0  0  0  0  0  0  0  0
  139.5230   76.1550  221.9400 C   0  0  0  0  0  0  0  0  0  0  0  0
  138.5540   76.0650  222.7100 O   0  0  0  0  0  0  0  0  0  0  0  0
  140.2110   77.3200  221.5650 N   0  0  0  0  0  0  0  0  0  0  0  0
  141.3380   77.2940  220.6150 C   0  0  0  0  0  0  0  0  0  0  0  0
  141.5640   78.6760  220.0430 C   0  0  0  0  0  0  0  0  0  0  0  0
  141.8460   79.6970  221.1030 C   0  0  0  0  0  0  0  0  0  0  0  0
  141.2250   79.2390  222.4410 C   0  0  0  0  0  0  0  0  0  0  0  0
  139.8880   78.6700  222.0720 C   0  0  2  0  0  0  0  0  0  0  0  0
  138.8400   78.6480  223.1040 C   0  0  0  0  0  0  0  0  0  0  0  0
  138.2480   80.0040  223.3600 C   0  0  0  0  0  0  0  0  0  0  0  0
  138.7250   81.0020  222.5620 F   0  0  0  0  0  0  0  0  0  0  0  0
  138.4970   80.3760  224.6830 F   0  0  0  0  0  0  0  0  0  0  0  0
  136.8710   79.9180  223.2010 F   0  0  0  0  0  0  0  0  0  0  0  0
  140.2710   71.6110  223.3730 C   0  0  0  0  0  0  0  0  0  0  0  0
  139.6410   70.4090  223.1320 C   0  0  0  0  0  0  0  0  0  0  0  0
  139.4450   69.5070  224.1730 C   0  0  0  0  0  0  0  0  0  0  0  0
  139.8890   69.8340  225.4470 C   0  0  0  0  0  0  0  0  0  0  0  0
  139.7310   68.9930  226.5290 C   0  0  0  0  0  0  0  0  0  0  0  0
  140.1880   69.3600  227.7770 C   0  0  0  0  0  0  0  0  0  0  0  0
  140.0420   68.5470  228.8520 F   0  0  0  0  0  0  0  0  0  0  0  0
  140.8160   70.5680  227.9950 C   0  0  0  0  0  0  0  0  0  0  0  0
  140.9720   71.4010  226.9190 C   0  0  0  0  0  0  0  0  0  0  0  0
  140.5170   71.0440  225.6640 C   0  0  0  0  0  0  0  0  0  0  0  0
  140.6890   71.8910  224.6330 N   0  0  0  0  0  0  0  0  0  0  0  0
  139.2340   74.0260  223.1730 H   0  0  0  0  0  0  0  0  0  0  0  0
  141.0705   74.9539  221.0554 H   0  0  0  0  0  0  0  0  0  0  0  0
  139.4378   74.6083  220.4364 H   0  0  0  0  0  0  0  0  0  0  0  0
  142.2475   76.9628  221.1376 H   0  0  0  0  0  0  0  0  0  0  0  0
  141.1041   76.5979  219.7960 H   0  0  0  0  0  0  0  0  0  0  0  0
  142.4207   78.6369  219.3542 H   0  0  0  0  0  0  0  0  0  0  0  0
  140.6418   78.9781  219.5250 H   0  0  0  0  0  0  0  0  0  0  0  0
  142.9336   79.8090  221.2234 H   0  0  0  0  0  0  0  0  0  0  0  0
  141.4072   80.6615  220.8075 H   0  0  0  0  0  0  0  0  0  0  0  0
  141.8538   78.4721  222.9169 H   0  0  0  0  0  0  0  0  0  0  0  0
  141.1383   80.0658  223.1613 H   0  0  0  0  0  0  0  0  0  0  0  0
  139.4061   79.3347  221.3399 H   0  0  0  0  0  0  0  0  0  0  0  0
  138.0379   77.9704  222.7762 H   0  0  0  0  0  0  0  0  0  0  0  0
  139.3044   78.3068  224.0409 H   0  0  0  0  0  0  0  0  0  0  0  0
  139.2936   70.1631  222.1177 H   0  0  0  0  0  0  0  0  0  0  0  0
  138.9438   68.5454  223.9886 H   0  0  0  0  0  0  0  0  0  0  0  0
  139.2356   68.0201  226.3948 H   0  0  0  0  0  0  0  0  0  0  0  0
  141.1777   70.8517  228.9943 H   0  0  0  0  0  0  0  0  0  0  0  0
  141.4689   72.3727  227.0565 H   0  0  0  0  0  0  0  0  0  0  0  0
  1  2  2  0
  2  3  1  0
  3  4  1  0
  4  5  1  0
  5  6  2  0
  5  7  1  0
  7  8  1  0
  8  9  1  0
  9 10  1  0
 10 11  1  0
 11 12  1  0
 12 13  1  0
 13 14  1  0
 14 15  1  0
 14 16  1  0
 14 17  1  0
  2 18  1  0
 18 19  2  0
 19 20  1  0
 20 21  2  0
 21 22  1  0
 22 23  2  0
 23 24  1  0
 23 25  1  0
 25 26  2  0
 26 27  1  0
 27 28  2  0
 12  7  1  0
 28 18  1  0
 27 21  1  0
  3 29  1  0
  4 30  1  0
  4 31  1  0
  8 32  1  0
  8 33  1  0
  9 34  1  0
  9 35  1  0
 10 36  1  0
 10 37  1  0
 11 38  1  0
 11 39  1  0
 12 40  1  6
 13 41  1  0
 13 42  1  0
 19 43  1  0
 20 44  1  0
 22 45  1  0
 25 46  1  0
 26 47  1  0
M  END
>  <smiles>  (19) 
O=C(NCC(=O)N1CCCCC1CC(F)(F)F)c1ccc2cc(F)ccc2n1

>  <score_type>  (19) 
oracle

>  <origin>  (19) 
autodockgpu

>  <m_score__min__energy>  (19) 
-7.2599999999999998

>  <m_primary>  (19) 
energy

>  <rmsd>  (19) 
2.8789325426569605

>  <m_score__min__rmsd>  (19) 
2.8789325426569605

>  <meeko>  (19) 
{"free_energy": -6.97, "intermolecular_energy": -8.76, "internal_energy": -1.38, "cluster_size": 24, "cluster_id": 1, "rank_in_cluster": 5}

>  <energy>  (19) 
-6.75

>  <cluster_rmsd>  (19) 
1.78

>  <cluster>  (19) 
1

$$$$

     RDKit          3D

 47 49  0  0  0  0  0  0  0  0999 V2000
  140.8770   71.5860  221.1610 O   0  0  0  0  0  0  0  0  0  0  0  0
  140.3510   72.1060  222.1710 C   0  0  0  0  0  0  0  0  0  0  0  0
  139.9620   73.4530  222.2150 N   0  0  0  0  0  0  0  0  0  0  0  0
  140.1230   74.3690  221.1150 C   0  0  0  0  0  0  0  0  0  0  0  0
  139.6950   75.7310  221.6020 C   0  0  0  0  0  0  0  0  0  0  0  0
  139.0720   75.7540  222.6740 O   0  0  0  0  0  0  0  0  0  0  0  0
  140.0440   76.8240  220.7920 N   0  0  0  0  0  0  0  0  0  0  0  0
  139.7360   76.8640  219.3520 C   0  0  0  0  0  0  0  0  0  0  0  0
  139.7820   78.2910  218.8520 C   0  0  0  0  0  0  0  0  0  0  0  0
  141.1140   78.9370  219.0820 C   0  0  0  0  0  0  0  0  0  0  0  0
  141.8240   78.2520  220.2710 C   0  0  0  0  0  0  0  0  0  0  0  0
  140.7450   78.0280  221.2870 C   0  0  2  0  0  0  0  0  0  0  0  0
  141.1420   77.9080  222.6980 C   0  0  0  0  0  0  0  0  0  0  0  0
  141.5260   79.2250  223.3080 C   0  0  0  0  0  0  0  0  0  0  0  0
  140.5590   80.1850  223.2620 F   0  0  0  0  0  0  0  0  0  0  0  0
  142.6460   79.7320  222.6470 F   0  0  0  0  0  0  0  0  0  0  0  0
  141.8830   79.0080  224.6330 F   0  0  0  0  0  0  0  0  0  0  0  0
  140.1400   71.2480  223.3550 C   0  0  0  0  0  0  0  0  0  0  0  0
  139.5370   70.0130  223.2470 C   0  0  0  0  0  0  0  0  0  0  0  0
  139.3540   69.2290  224.3810 C   0  0  0  0  0  0  0  0  0  0  0  0
  139.7840   69.7040  225.6120 C   0  0  0  0  0  0  0  0  0  0  0  0
  139.6380   68.9850  226.7810 C   0  0  0  0  0  0  0  0  0  0  0  0
  140.0810   69.4990  227.9810 C   0  0  0  0  0  0  0  0  0  0  0  0
  139.9460   68.8070  229.1400 F   0  0  0  0  0  0  0  0  0  0  0  0
  140.6820   70.7370  228.0660 C   0  0  0  0  0  0  0  0  0  0  0  0
  140.8260   71.4480  226.9040 C   0  0  0  0  0  0  0  0  0  0  0  0
  140.3860   70.9440  225.6950 C   0  0  0  0  0  0  0  0  0  0  0  0
  140.5460   71.6740  224.5770 N   0  0  0  0  0  0  0  0  0  0  0  0
  139.5270   73.8000  223.1110 H   0  0  0  0  0  0  0  0  0  0  0  0
  141.1760   74.3959  220.7981 H   0  0  0  0  0  0  0  0  0  0  0  0
  139.5164   74.0543  220.2530 H   0  0  0  0  0  0  0  0  0  0  0  0
  140.4762   76.2622  218.8044 H   0  0  0  0  0  0  0  0  0  0  0  0
  138.7278   76.4562  219.1872 H   0  0  0  0  0  0  0  0  0  0  0  0
  139.5704   78.2935  217.7725 H   0  0  0  0  0  0  0  0  0  0  0  0
  139.0305   78.8660  219.4129 H   0  0  0  0  0  0  0  0  0  0  0  0
  141.7319   78.8337  218.1778 H   0  0  0  0  0  0  0  0  0  0  0  0
  140.9684   80.0035  219.3088 H   0  0  0  0  0  0  0  0  0  0  0  0
  142.2661   77.2945  219.9583 H   0  0  0  0  0  0  0  0  0  0  0  0
  142.6476   78.8627  220.6693 H   0  0  0  0  0  0  0  0  0  0  0  0
  140.1208   78.9315  221.3514 H   0  0  0  0  0  0  0  0  0  0  0  0
  140.2980   77.4901  223.2663 H   0  0  0  0  0  0  0  0  0  0  0  0
  142.0253   77.2537  222.7392 H   0  0  0  0  0  0  0  0  0  0  0  0
  139.2010   69.6482  222.2651 H   0  0  0  0  0  0  0  0  0  0  0  0
  138.8734   68.2426  224.3030 H   0  0  0  0  0  0  0  0  0  0  0  0
  139.1638   67.9928  226.7550 H   0  0  0  0  0  0  0  0  0  0  0  0
  141.0320   71.1378  229.0287 H   0  0  0  0  0  0  0  0  0  0  0  0
  141.3012   72.4396  226.9340 H   0  0  0  0  0  0  0  0  0  0  0  0
  1  2  2  0
  2  3  1  0
  3  4  1  0
  4  5  1  0
  5  6  2  0
  5  7  1  0
  7  8  1  0
  8  9  1  0
  9 10  1  0
 10 11  1  0
 11 12  1  0
 12 13  1  0
 13 14  1  0
 14 15  1  0
 14 16  1  0
 14 17  1  0
  2 18  1  0
 18 19  2  0
 19 20  1  0
 20 21  2  0
 21 22  1  0
 22 23  2  0
 23 24  1  0
 23 25  1  0
 25 26  2  0
 26 27  1  0
 27 28  2  0
 12  7  1  0
 28 18  1  0
 27 21  1  0
  3 29  1  0
  4 30  1  0
  4 31  1  0
  8 32  1  0
  8 33  1  0
  9 34  1  0
  9 35  1  0
 10 36  1  0
 10 37  1  0
 11 38  1  0
 11 39  1  0
 12 40  1  1
 13 41  1  0
 13 42  1  0
 19 43  1  0
 20 44  1  0
 22 45  1  0
 25 46  1  0
 26 47  1  0
M  END
>  <smiles>  (20) 
O=C(NCC(=O)N1CCCCC1CC(F)(F)F)c1ccc2cc(F)ccc2n1

>  <score_type>  (20) 
oracle

>  <origin>  (20) 
autodockgpu

>  <m_score__min__energy>  (20) 
-7.2599999999999998

>  <m_primary>  (20) 
energy

>  <rmsd>  (20) 
2.1521033162508068

>  <m_score__min__rmsd>  (20) 
2.1521033162508068

>  <meeko>  (20) 
{"free_energy": -6.75, "intermolecular_energy": -8.54, "internal_energy": -1.63, "cluster_size": 24, "cluster_id": 1, "rank_in_cluster": 20}

>  <energy>  (20) 
-6.75

>  <cluster_rmsd>  (20) 
1.33

>  <cluster>  (20) 
1

$$$$

     RDKit          3D

 47 49  0  0  0  0  0  0  0  0999 V2000
  140.9850   73.2220  220.9960 O   0  0  0  0  0  0  0  0  0  0  0  0
  140.2620   73.4830  221.9840 C   0  0  0  0  0  0  0  0  0  0  0  0
  139.7640   74.7680  222.2420 N   0  0  0  0  0  0  0  0  0  0  0  0
  140.0270   75.9120  221.4050 C   0  0  0  0  0  0  0  0  0  0  0  0
  139.5650   77.1320  222.1600 C   0  0  0  0  0  0  0  0  0  0  0  0
  138.5220   77.0020  222.8190 O   0  0  0  0  0  0  0  0  0  0  0  0
  140.3580   78.2850  222.0350 N   0  0  0  0  0  0  0  0  0  0  0  0
  141.4730   78.3690  221.0760 C   0  0  0  0  0  0  0  0  0  0  0  0
  141.8270   79.8170  220.8200 C   0  0  0  0  0  0  0  0  0  0  0  0
  142.2080   80.5450  222.0720 C   0  0  0  0  0  0  0  0  0  0  0  0
  141.5530   79.8580  223.2900 C   0  0  0  0  0  0  0  0  0  0  0  0
  140.1660   79.5110  222.8380 C   0  0  2  0  0  0  0  0  0  0  0  0
  139.1260   79.3530  223.8660 C   0  0  0  0  0  0  0  0  0  0  0  0
  138.1410   80.4870  223.8730 C   0  0  0  0  0  0  0  0  0  0  0  0
  136.9420   80.2120  223.2850 F   0  0  0  0  0  0  0  0  0  0  0  0
  138.6900   81.5820  223.2050 F   0  0  0  0  0  0  0  0  0  0  0  0
  137.9200   80.8670  225.1910 F   0  0  0  0  0  0  0  0  0  0  0  0
  139.9310   72.3750  222.9050 C   0  0  0  0  0  0  0  0  0  0  0  0
  138.8530   71.5480  222.6730 C   0  0  0  0  0  0  0  0  0  0  0  0
  138.5690   70.5140  223.5580 C   0  0  0  0  0  0  0  0  0  0  0  0
  139.3810   70.3290  224.6690 C   0  0  0  0  0  0  0  0  0  0  0  0
  139.1630   69.3270  225.5920 C   0  0  0  0  0  0  0  0  0  0  0  0
  139.9960   69.1820  226.6810 C   0  0  0  0  0  0  0  0  0  0  0  0
  139.7990   68.2030  227.5990 F   0  0  0  0  0  0  0  0  0  0  0  0
  141.0700   70.0210  226.8930 C   0  0  0  0  0  0  0  0  0  0  0  0
  141.2830   71.0160  225.9750 C   0  0  0  0  0  0  0  0  0  0  0  0
  140.4550   71.1700  224.8800 C   0  0  0  0  0  0  0  0  0  0  0  0
  140.6980   72.1600  224.0020 N   0  0  0  0  0  0  0  0  0  0  0  0
  139.1630   74.8890  223.1000 H   0  0  0  0  0  0  0  0  0  0  0  0
  141.1041   75.9849  221.1938 H   0  0  0  0  0  0  0  0  0  0  0  0
  139.4978   75.8233  220.4448 H   0  0  0  0  0  0  0  0  0  0  0  0
  142.3489   77.8474  221.4892 H   0  0  0  0  0  0  0  0  0  0  0  0
  141.1709   77.8982  220.1289 H   0  0  0  0  0  0  0  0  0  0  0  0
  142.6737   79.8544  220.1188 H   0  0  0  0  0  0  0  0  0  0  0  0
  140.9357   80.3103  220.4050 H   0  0  0  0  0  0  0  0  0  0  0  0
  143.3019   80.5284  222.1867 H   0  0  0  0  0  0  0  0  0  0  0  0
  141.8602   81.5867  222.0092 H   0  0  0  0  0  0  0  0  0  0  0  0
  142.1083   78.9497  223.5669 H   0  0  0  0  0  0  0  0  0  0  0  0
  141.5487   80.5067  224.1784 H   0  0  0  0  0  0  0  0  0  0  0  0
  139.7455   80.3640  222.2853 H   0  0  0  0  0  0  0  0  0  0  0  0
  138.5824   78.4158  223.6756 H   0  0  0  0  0  0  0  0  0  0  0  0
  139.6262   79.3412  224.8456 H   0  0  0  0  0  0  0  0  0  0  0  0
  138.2181   71.7059  221.7887 H   0  0  0  0  0  0  0  0  0  0  0  0
  137.7104   69.8498  223.3800 H   0  0  0  0  0  0  0  0  0  0  0  0
  138.3166   68.6373  225.4578 H   0  0  0  0  0  0  0  0  0  0  0  0
  141.7295   69.8964  227.7645 H   0  0  0  0  0  0  0  0  0  0  0  0
  142.1293   71.7051  226.1127 H   0  0  0  0  0  0  0  0  0  0  0  0
  1  2  2  0
  2  3  1  0
  3  4  1  0
  4  5  1  0
  5  6  2  0
  5  7  1  0
  7  8  1  0
  8  9  1  0
  9 10  1  0
 10 11  1  0
 11 12  1  0
 12 13  1  0
 13 14  1  0
 14 15  1  0
 14 16  1  0
 14 17  1  0
  2 18  1  0
 18 19  2  0
 19 20  1  0
 20 21  2  0
 21 22  1  0
 22 23  2  0
 23 24  1  0
 23 25  1  0
 25 26  2  0
 26 27  1  0
 27 28  2  0
 12  7  1  0
 28 18  1  0
 27 21  1  0
  3 29  1  0
  4 30  1  0
  4 31  1  0
  8 32  1  0
  8 33  1  0
  9 34  1  0
  9 35  1  0
 10 36  1  0
 10 37  1  0
 11 38  1  0
 11 39  1  0
 12 40  1  6
 13 41  1  0
 13 42  1  0
 19 43  1  0
 20 44  1  0
 22 45  1  0
 25 46  1  0
 26 47  1  0
M  END
>  <smiles>  (21) 
O=C(NCC(=O)N1CCCCC1CC(F)(F)F)c1ccc2cc(F)ccc2n1

>  <score_type>  (21) 
oracle

>  <origin>  (21) 
autodockgpu

>  <m_score__min__energy>  (21) 
-7.2599999999999998

>  <m_primary>  (21) 
energy

>  <rmsd>  (21) 
3.6640201503474574

>  <m_score__min__rmsd>  (21) 
3.6640201503474574

>  <meeko>  (21) 
{"free_energy": -6.75, "intermolecular_energy": -8.54, "internal_energy": -1.33, "cluster_size": 24, "cluster_id": 1, "rank_in_cluster": 19}

>  <energy>  (21) 
-6.73

>  <cluster_rmsd>  (21) 
1.34

>  <cluster>  (21) 
1

$$$$

     RDKit          3D

 47 49  0  0  0  0  0  0  0  0999 V2000
  141.3770   72.4390  221.6670 O   0  0  0  0  0  0  0  0  0  0  0  0
  140.4240   72.6380  222.4530 C   0  0  0  0  0  0  0  0  0  0  0  0
  139.5760   73.7500  222.3530 N   0  0  0  0  0  0  0  0  0  0  0  0
  139.7110   74.7710  221.3440 C   0  0  0  0  0  0  0  0  0  0  0  0
  139.2170   76.0620  221.9460 C   0  0  0  0  0  0  0  0  0  0  0  0
  138.1120   76.0120  222.5080 O   0  0  0  0  0  0  0  0  0  0  0  0
  140.0560   77.1800  221.8070 N   0  0  0  0  0  0  0  0  0  0  0  0
  141.3670   77.0980  221.1400 C   0  0  0  0  0  0  0  0  0  0  0  0
  141.8200   78.4780  220.7170 C   0  0  0  0  0  0  0  0  0  0  0  0
  141.9200   79.4280  221.8710 C   0  0  0  0  0  0  0  0  0  0  0  0
  140.9730   78.9700  223.0030 C   0  0  0  0  0  0  0  0  0  0  0  0
  139.7220   78.5310  222.3050 C   0  0  2  0  0  0  0  0  0  0  0  0
  138.4640   78.5540  223.0670 C   0  0  0  0  0  0  0  0  0  0  0  0
  138.0450   79.9440  223.4540 C   0  0  0  0  0  0  0  0  0  0  0  0
  136.7200   80.0870  223.7430 F   0  0  0  0  0  0  0  0  0  0  0  0
  138.3410   80.8240  222.4120 F   0  0  0  0  0  0  0  0  0  0  0  0
  138.7930   80.3350  224.5580 F   0  0  0  0  0  0  0  0  0  0  0  0
  140.2000   71.6460  223.5260 C   0  0  0  0  0  0  0  0  0  0  0  0
  139.5260   70.4680  223.2830 C   0  0  0  0  0  0  0  0  0  0  0  0
  139.3320   69.5550  224.3140 C   0  0  0  0  0  0  0  0  0  0  0  0
  139.8230   69.8450  225.5800 C   0  0  0  0  0  0  0  0  0  0  0  0
  139.6700   68.9900  226.6520 C   0  0  0  0  0  0  0  0  0  0  0  0
  140.1750   69.3210  227.8920 C   0  0  0  0  0  0  0  0  0  0  0  0
  140.0350   68.4950  228.9570 F   0  0  0  0  0  0  0  0  0  0  0  0
  140.8460   70.5060  228.1110 C   0  0  0  0  0  0  0  0  0  0  0  0
  140.9960   71.3530  227.0450 C   0  0  0  0  0  0  0  0  0  0  0  0
  140.4950   71.0310  225.7980 C   0  0  0  0  0  0  0  0  0  0  0  0
  140.6630   71.8900  224.7760 N   0  0  0  0  0  0  0  0  0  0  0  0
  138.8010   73.8310  223.0620 H   0  0  0  0  0  0  0  0  0  0  0  0
  140.7659   74.8722  221.0492 H   0  0  0  0  0  0  0  0  0  0  0  0
  139.1303   74.5117  220.4465 H   0  0  0  0  0  0  0  0  0  0  0  0
  142.1036   76.6703  221.8360 H   0  0  0  0  0  0  0  0  0  0  0  0
  141.2795   76.4582  220.2495 H   0  0  0  0  0  0  0  0  0  0  0  0
  142.8087   78.3945  220.2421 H   0  0  0  0  0  0  0  0  0  0  0  0
  141.0687   78.8772  220.0197 H   0  0  0  0  0  0  0  0  0  0  0  0
  142.9549   79.4439  222.2435 H   0  0  0  0  0  0  0  0  0  0  0  0
  141.6323   80.4367  221.5398 H   0  0  0  0  0  0  0  0  0  0  0  0
  141.4166   78.1344  223.5643 H   0  0  0  0  0  0  0  0  0  0  0  0
  140.7811   79.7711  223.7320 H   0  0  0  0  0  0  0  0  0  0  0  0
  139.4733   79.2631  221.5226 H   0  0  0  0  0  0  0  0  0  0  0  0
  137.6708   78.1064  222.4501 H   0  0  0  0  0  0  0  0  0  0  0  0
  138.6275   77.9862  223.9948 H   0  0  0  0  0  0  0  0  0  0  0  0
  139.1423   70.2507  222.2753 H   0  0  0  0  0  0  0  0  0  0  0  0
  138.7952   68.6130  224.1284 H   0  0  0  0  0  0  0  0  0  0  0  0
  139.1403   68.0355  226.5164 H   0  0  0  0  0  0  0  0  0  0  0  0
  141.2454   70.7611  229.1037 H   0  0  0  0  0  0  0  0  0  0  0  0
  141.5251   72.3073  227.1841 H   0  0  0  0  0  0  0  0  0  0  0  0
  1  2  2  0
  2  3  1  0
  3  4  1  0
  4  5  1  0
  5  6  2  0
  5  7  1  0
  7  8  1  0
  8  9  1  0
  9 10  1  0
 10 11  1  0
 11 12  1  0
 12 13  1  0
 13 14  1  0
 14 15  1  0
 14 16  1  0
 14 17  1  0
  2 18  1  0
 18 19  2  0
 19 20  1  0
 20 21  2  0
 21 22  1  0
 22 23  2  0
 23 24  1  0
 23 25  1  0
 25 26  2  0
 26 27  1  0
 27 28  2  0
 12  7  1  0
 28 18  1  0
 27 21  1  0
  3 29  1  0
  4 30  1  0
  4 31  1  0
  8 32  1  0
  8 33  1  0
  9 34  1  0
  9 35  1  0
 10 36  1  0
 10 37  1  0
 11 38  1  0
 11 39  1  0
 12 40  1  6
 13 41  1  0
 13 42  1  0
 19 43  1  0
 20 44  1  0
 22 45  1  0
 25 46  1  0
 26 47  1  0
M  END
>  <smiles>  (22) 
O=C(NCC(=O)N1CCCCC1CC(F)(F)F)c1ccc2cc(F)ccc2n1

>  <score_type>  (22) 
oracle

>  <origin>  (22) 
autodockgpu

>  <m_score__min__energy>  (22) 
-7.2599999999999998

>  <m_primary>  (22) 
energy

>  <rmsd>  (22) 
2.9779827145441584

>  <m_score__min__rmsd>  (22) 
2.9779827145441584

>  <meeko>  (22) 
{"free_energy": -7.22, "intermolecular_energy": -9.01, "internal_energy": -1.2, "cluster_size": 24, "cluster_id": 1, "rank_in_cluster": 2}

>  <energy>  (22) 
-6.66

>  <cluster_rmsd>  (22) 
1.28

>  <cluster>  (22) 
1

$$$$

     RDKit          3D

 47 49  0  0  0  0  0  0  0  0999 V2000
  140.1290   71.4010  220.9440 O   0  0  0  0  0  0  0  0  0  0  0  0
  139.9140   71.9840  222.0310 C   0  0  0  0  0  0  0  0  0  0  0  0
  139.7550   73.3730  222.1280 N   0  0  0  0  0  0  0  0  0  0  0  0
  139.8210   74.2680  221.0000 C   0  0  0  0  0  0  0  0  0  0  0  0
  140.5210   75.5200  221.4640 C   0  0  0  0  0  0  0  0  0  0  0  0
  140.3030   75.8630  222.6360 O   0  0  0  0  0  0  0  0  0  0  0  0
  141.3410   76.1650  220.5230 N   0  0  0  0  0  0  0  0  0  0  0  0
  140.9750   77.4580  219.9190 C   0  0  0  0  0  0  0  0  0  0  0  0
  142.2030   78.1260  219.3420 C   0  0  0  0  0  0  0  0  0  0  0  0
  142.8820   77.2810  218.3070 C   0  0  0  0  0  0  0  0  0  0  0  0
  142.5570   75.7920  218.5580 C   0  0  0  0  0  0  0  0  0  0  0  0
  142.6320   75.6260  220.0460 C   0  0  2  0  0  0  0  0  0  0  0  0
  142.9120   74.2830  220.5760 C   0  0  0  0  0  0  0  0  0  0  0  0
  144.3320   73.8530  220.3460 C   0  0  0  0  0  0  0  0  0  0  0  0
  144.7700   72.8490  221.1600 F   0  0  0  0  0  0  0  0  0  0  0  0
  145.1830   74.9430  220.5360 F   0  0  0  0  0  0  0  0  0  0  0  0
  144.4580   73.4480  219.0230 F   0  0  0  0  0  0  0  0  0  0  0  0
  139.8280   71.1530  223.2500 C   0  0  0  0  0  0  0  0  0  0  0  0
  139.2600   69.8970  223.2230 C   0  0  0  0  0  0  0  0  0  0  0  0
  139.1940   69.1400  224.3880 C   0  0  0  0  0  0  0  0  0  0  0  0
  139.7040   69.6640  225.5680 C   0  0  0  0  0  0  0  0  0  0  0  0
  139.6750   68.9740  226.7620 C   0  0  0  0  0  0  0  0  0  0  0  0
  140.1950   69.5360  227.9100 C   0  0  0  0  0  0  0  0  0  0  0  0
  140.1750   68.8740  229.0930 F   0  0  0  0  0  0  0  0  0  0  0  0
  140.7580   70.7940  227.9140 C   0  0  0  0  0  0  0  0  0  0  0  0
  140.7860   71.4760  226.7260 C   0  0  0  0  0  0  0  0  0  0  0  0
  140.2680   70.9240  225.5700 C   0  0  0  0  0  0  0  0  0  0  0  0
  140.3140   71.6270  224.4240 N   0  0  0  0  0  0  0  0  0  0  0  0
  139.5780   73.7720  223.0880 H   0  0  0  0  0  0  0  0  0  0  0  0
  140.3878   73.8009  220.1811 H   0  0  0  0  0  0  0  0  0  0  0  0
  138.8127   74.5002  220.6265 H   0  0  0  0  0  0  0  0  0  0  0  0
  140.2408   77.2906  219.1172 H   0  0  0  0  0  0  0  0  0  0  0  0
  140.5408   78.1079  220.6931 H   0  0  0  0  0  0  0  0  0  0  0  0
  141.9025   79.0775  218.8791 H   0  0  0  0  0  0  0  0  0  0  0  0
  142.9156   78.2844  220.1648 H   0  0  0  0  0  0  0  0  0  0  0  0
  142.5255   77.5699  217.3073 H   0  0  0  0  0  0  0  0  0  0  0  0
  143.9698   77.4325  218.3684 H   0  0  0  0  0  0  0  0  0  0  0  0
  141.5486   75.5490  218.1919 H   0  0  0  0  0  0  0  0  0  0  0  0
  143.2524   75.1220  218.0312 H   0  0  0  0  0  0  0  0  0  0  0  0
  143.5199   76.1562  220.4209 H   0  0  0  0  0  0  0  0  0  0  0  0
  142.7157   74.2840  221.6583 H   0  0  0  0  0  0  0  0  0  0  0  0
  142.2602   73.5739  220.0446 H   0  0  0  0  0  0  0  0  0  0  0  0
  138.8594   69.4940  222.2811 H   0  0  0  0  0  0  0  0  0  0  0  0
  138.7426   68.1370  224.3745 H   0  0  0  0  0  0  0  0  0  0  0  0
  139.2336   67.9671  226.7994 H   0  0  0  0  0  0  0  0  0  0  0  0
  141.1688   71.2333  228.8350 H   0  0  0  0  0  0  0  0  0  0  0  0
  141.2293   72.4821  226.6918 H   0  0  0  0  0  0  0  0  0  0  0  0
  1  2  2  0
  2  3  1  0
  3  4  1  0
  4  5  1  0
  5  6  2  0
  5  7  1  0
  7  8  1  0
  8  9  1  0
  9 10  1  0
 10 11  1  0
 11 12  1  0
 12 13  1  0
 13 14  1  0
 14 15  1  0
 14 16  1  0
 14 17  1  0
  2 18  1  0
 18 19  2  0
 19 20  1  0
 20 21  2  0
 21 22  1  0
 22 23  2  0
 23 24  1  0
 23 25  1  0
 25 26  2  0
 26 27  1  0
 27 28  2  0
 12  7  1  0
 28 18  1  0
 27 21  1  0
  3 29  1  0
  4 30  1  0
  4 31  1  0
  8 32  1  0
  8 33  1  0
  9 34  1  0
  9 35  1  0
 10 36  1  0
 10 37  1  0
 11 38  1  0
 11 39  1  0
 12 40  1  1
 13 41  1  0
 13 42  1  0
 19 43  1  0
 20 44  1  0
 22 45  1  0
 25 46  1  0
 26 47  1  0
M  END
>  <smiles>  (23) 
O=C(NCC(=O)N1CCCCC1CC(F)(F)F)c1ccc2cc(F)ccc2n1

>  <score_type>  (23) 
oracle

>  <origin>  (23) 
autodockgpu

>  <m_score__min__energy>  (23) 
-7.2599999999999998

>  <m_primary>  (23) 
energy

>  <rmsd>  (23) 
2.253978944386233

>  <m_score__min__rmsd>  (23) 
2.253978944386233

>  <meeko>  (23) 
{"free_energy": -6.75, "intermolecular_energy": -8.54, "internal_energy": -1.71, "cluster_size": 15, "cluster_id": 3, "rank_in_cluster": 8}

>  <energy>  (23) 
-6.64

>  <cluster_rmsd>  (23) 
1.3

>  <cluster>  (23) 
1

$$$$

     RDKit          3D

 47 49  0  0  0  0  0  0  0  0999 V2000
  139.5900   73.2730  222.7250 O   0  0  0  0  0  0  0  0  0  0  0  0
  140.1500   72.1590  222.6200 C   0  0  0  0  0  0  0  0  0  0  0  0
  140.8910   71.7850  221.4900 N   0  0  0  0  0  0  0  0  0  0  0  0
  141.0870   72.6360  220.3430 C   0  0  0  0  0  0  0  0  0  0  0  0
  142.0420   73.7280  220.7550 C   0  0  0  0  0  0  0  0  0  0  0  0
  141.5340   74.7150  221.3090 O   0  0  0  0  0  0  0  0  0  0  0  0
  143.4000   73.5130  220.4690 N   0  0  0  0  0  0  0  0  0  0  0  0
  144.0650   72.2250  220.7360 C   0  0  0  0  0  0  0  0  0  0  0  0
  145.3340   72.1190  219.9210 C   0  0  0  0  0  0  0  0  0  0  0  0
  146.2960   73.2310  220.2100 C   0  0  0  0  0  0  0  0  0  0  0  0
  145.5230   74.4620  220.7340 C   0  0  0  0  0  0  0  0  0  0  0  0
  144.2920   74.5360  219.8820 C   0  0  2  0  0  0  0  0  0  0  0  0
  143.6320   75.8420  219.7380 C   0  0  0  0  0  0  0  0  0  0  0  0
  143.1390   76.0920  218.3410 C   0  0  0  0  0  0  0  0  0  0  0  0
  141.8410   75.7380  218.1160 F   0  0  0  0  0  0  0  0  0  0  0  0
  143.9280   75.3790  217.4370 F   0  0  0  0  0  0  0  0  0  0  0  0
  143.2930   77.4430  218.0570 F   0  0  0  0  0  0  0  0  0  0  0  0
  140.0100   71.2110  223.7460 C   0  0  0  0  0  0  0  0  0  0  0  0
  139.3080   70.0320  223.6080 C   0  0  0  0  0  0  0  0  0  0  0  0
  139.1960   69.1620  224.6860 C   0  0  0  0  0  0  0  0  0  0  0  0
  139.7950   69.4950  225.8930 C   0  0  0  0  0  0  0  0  0  0  0  0
  139.7270   68.6840  227.0070 C   0  0  0  0  0  0  0  0  0  0  0  0
  140.3390   69.0560  228.1860 C   0  0  0  0  0  0  0  0  0  0  0  0
  140.2840   68.2730  229.2910 F   0  0  0  0  0  0  0  0  0  0  0  0
  141.0360   70.2410  228.3010 C   0  0  0  0  0  0  0  0  0  0  0  0
  141.1020   71.0440  227.1930 C   0  0  0  0  0  0  0  0  0  0  0  0
  140.4930   70.6810  226.0070 C   0  0  0  0  0  0  0  0  0  0  0  0
  140.5800   71.4980  224.9420 N   0  0  0  0  0  0  0  0  0  0  0  0
  141.3250   70.8250  221.4940 H   0  0  0  0  0  0  0  0  0  0  0  0
  141.5142   72.0557  219.5119 H   0  0  0  0  0  0  0  0  0  0  0  0
  140.1306   73.0612  220.0047 H   0  0  0  0  0  0  0  0  0  0  0  0
  144.3125   72.1578  221.8057 H   0  0  0  0  0  0  0  0  0  0  0  0
  143.3875   71.4044  220.4573 H   0  0  0  0  0  0  0  0  0  0  0  0
  145.8226   71.1609  220.1519 H   0  0  0  0  0  0  0  0  0  0  0  0
  145.0557   72.1853  218.8589 H   0  0  0  0  0  0  0  0  0  0  0  0
  147.0187   72.9014  220.9710 H   0  0  0  0  0  0  0  0  0  0  0  0
  146.8304   73.5008  219.2872 H   0  0  0  0  0  0  0  0  0  0  0  0
  145.2538   74.3283  221.7921 H   0  0  0  0  0  0  0  0  0  0  0  0
  146.1224   75.3826  220.6763 H   0  0  0  0  0  0  0  0  0  0  0  0
  144.5712   74.3582  218.8330 H   0  0  0  0  0  0  0  0  0  0  0  0
  142.7745   75.8806  220.4259 H   0  0  0  0  0  0  0  0  0  0  0  0
  144.3762   76.6177  219.9713 H   0  0  0  0  0  0  0  0  0  0  0  0
  138.8374   69.7805  222.6461 H   0  0  0  0  0  0  0  0  0  0  0  0
  138.6384   68.2193  224.5837 H   0  0  0  0  0  0  0  0  0  0  0  0
  139.1794   67.7314  226.9546 H   0  0  0  0  0  0  0  0  0  0  0  0
  141.5199   70.5299  229.2456 H   0  0  0  0  0  0  0  0  0  0  0  0
  141.6503   71.9960  227.2486 H   0  0  0  0  0  0  0  0  0  0  0  0
  1  2  2  0
  2  3  1  0
  3  4  1  0
  4  5  1  0
  5  6  2  0
  5  7  1  0
  7  8  1  0
  8  9  1  0
  9 10  1  0
 10 11  1  0
 11 12  1  0
 12 13  1  0
 13 14  1  0
 14 15  1  0
 14 16  1  0
 14 17  1  0
  2 18  1  0
 18 19  2  0
 19 20  1  0
 20 21  2  0
 21 22  1  0
 22 23  2  0
 23 24  1  0
 23 25  1  0
 25 26  2  0
 26 27  1  0
 27 28  2  0
 12  7  1  0
 28 18  1  0
 27 21  1  0
  3 29  1  0
  4 30  1  0
  4 31  1  0
  8 32  1  0
  8 33  1  0
  9 34  1  0
  9 35  1  0
 10 36  1  0
 10 37  1  0
 11 38  1  0
 11 39  1  0
 12 40  1  6
 13 41  1  0
 13 42  1  0
 19 43  1  0
 20 44  1  0
 22 45  1  0
 25 46  1  0
 26 47  1  0
M  END
>  <smiles>  (24) 
O=C(NCC(=O)N1CCCCC1CC(F)(F)F)c1ccc2cc(F)ccc2n1

>  <score_type>  (24) 
oracle

>  <origin>  (24) 
autodockgpu

>  <m_score__min__energy>  (24) 
-7.2599999999999998

>  <m_primary>  (24) 
energy

>  <rmsd>  (24) 
3.52263109824663

>  <m_score__min__rmsd>  (24) 
3.52263109824663

>  <meeko>  (24) 
{"free_energy": -6.97, "intermolecular_energy": -8.76, "internal_energy": -1.02, "cluster_size": 15, "cluster_id": 3, "rank_in_cluster": 3}

>  <energy>  (24) 
-6.52

>  <cluster_rmsd>  (24) 
1.44

>  <cluster>  (24) 
1

$$$$

     RDKit          3D

 47 49  0  0  0  0  0  0  0  0999 V2000
  138.0620   70.8100  221.7610 O   0  0  0  0  0  0  0  0  0  0  0  0
  138.7410   71.3070  222.6870 C   0  0  0  0  0  0  0  0  0  0  0  0
  139.1600   72.6450  222.6880 N   0  0  0  0  0  0  0  0  0  0  0  0
  138.8530   73.5800  221.6350 C   0  0  0  0  0  0  0  0  0  0  0  0
  139.5710   74.8660  221.9580 C   0  0  0  0  0  0  0  0  0  0  0  0
  140.8060   74.7910  222.0490 O   0  0  0  0  0  0  0  0  0  0  0  0
  138.7700   76.0080  222.1220 N   0  0  0  0  0  0  0  0  0  0  0  0
  137.2980   75.9450  222.0830 C   0  0  0  0  0  0  0  0  0  0  0  0
  136.7100   77.1730  222.7420 C   0  0  0  0  0  0  0  0  0  0  0  0
  137.1590   78.4450  222.0900 C   0  0  0  0  0  0  0  0  0  0  0  0
  138.5180   78.2170  221.3910 C   0  0  0  0  0  0  0  0  0  0  0  0
  139.3040   77.3680  222.3430 C   0  0  2  0  0  0  0  0  0  0  0  0
  140.7720   77.4160  222.2590 C   0  0  0  0  0  0  0  0  0  0  0  0
  141.3680   78.4970  223.1140 C   0  0  0  0  0  0  0  0  0  0  0  0
  142.0660   78.0550  224.1990 F   0  0  0  0  0  0  0  0  0  0  0  0
  140.3500   79.3280  223.5850 F   0  0  0  0  0  0  0  0  0  0  0  0
  142.2070   79.2700  222.3220 F   0  0  0  0  0  0  0  0  0  0  0  0
  139.1080   70.4280  223.8180 C   0  0  0  0  0  0  0  0  0  0  0  0
  138.8430   69.0750  223.7900 C   0  0  0  0  0  0  0  0  0  0  0  0
  139.2010   68.2760  224.8700 C   0  0  0  0  0  0  0  0  0  0  0  0
  139.8240   68.8550  225.9670 C   0  0  0  0  0  0  0  0  0  0  0  0
  140.2080   68.1280  227.0740 C   0  0  0  0  0  0  0  0  0  0  0  0
  140.8250   68.7470  228.1420 C   0  0  0  0  0  0  0  0  0  0  0  0
  141.2100   68.0500  229.2390 F   0  0  0  0  0  0  0  0  0  0  0  0
  141.0800   70.1020  228.1480 C   0  0  0  0  0  0  0  0  0  0  0  0
  140.6980   70.8210  227.0470 C   0  0  0  0  0  0  0  0  0  0  0  0
  140.0790   70.2120  225.9710 C   0  0  0  0  0  0  0  0  0  0  0  0
  139.7180   70.9530  224.9090 N   0  0  0  0  0  0  0  0  0  0  0  0
  139.7290   72.9710  223.5130 H   0  0  0  0  0  0  0  0  0  0  0  0
  139.2007   73.1866  220.6684 H   0  0  0  0  0  0  0  0  0  0  0  0
  137.7679   73.7457  221.5637 H   0  0  0  0  0  0  0  0  0  0  0  0
  136.9630   75.8976  221.0363 H   0  0  0  0  0  0  0  0  0  0  0  0
  136.9605   75.0485  222.6237 H   0  0  0  0  0  0  0  0  0  0  0  0
  135.6132   77.1142  222.6825 H   0  0  0  0  0  0  0  0  0  0  0  0
  137.0582   77.1914  223.7853 H   0  0  0  0  0  0  0  0  0  0  0  0
  136.4123   78.7582  221.3455 H   0  0  0  0  0  0  0  0  0  0  0  0
  137.2680   79.2287  222.8541 H   0  0  0  0  0  0  0  0  0  0  0  0
  138.3776   77.6954  220.4328 H   0  0  0  0  0  0  0  0  0  0  0  0
  139.0293   79.1635  221.1615 H   0  0  0  0  0  0  0  0  0  0  0  0
  139.1685   77.7569  223.3630 H   0  0  0  0  0  0  0  0  0  0  0  0
  141.1748   76.4463  222.5867 H   0  0  0  0  0  0  0  0  0  0  0  0
  141.0373   77.6356  221.2143 H   0  0  0  0  0  0  0  0  0  0  0  0
  138.3491   68.6285  222.9144 H   0  0  0  0  0  0  0  0  0  0  0  0
  138.9927   67.1960  224.8553 H   0  0  0  0  0  0  0  0  0  0  0  0
  140.0208   67.0445  227.1061 H   0  0  0  0  0  0  0  0  0  0  0  0
  141.5715   70.5868  229.0044 H   0  0  0  0  0  0  0  0  0  0  0  0
  140.8873   71.9042  227.0180 H   0  0  0  0  0  0  0  0  0  0  0  0
  1  2  2  0
  2  3  1  0
  3  4  1  0
  4  5  1  0
  5  6  2  0
  5  7  1  0
  7  8  1  0
  8  9  1  0
  9 10  1  0
 10 11  1  0
 11 12  1  0
 12 13  1  0
 13 14  1  0
 14 15  1  0
 14 16  1  0
 14 17  1  0
  2 18  1  0
 18 19  2  0
 19 20  1  0
 20 21  2  0
 21 22  1  0
 22 23  2  0
 23 24  1  0
 23 25  1  0
 25 26  2  0
 26 27  1  0
 27 28  2  0
 12  7  1  0
 28 18  1  0
 27 21  1  0
  3 29  1  0
  4 30  1  0
  4 31  1  0
  8 32  1  0
  8 33  1  0
  9 34  1  0
  9 35  1  0
 10 36  1  0
 10 37  1  0
 11 38  1  0
 11 39  1  0
 12 40  1  1
 13 41  1  0
 13 42  1  0
 19 43  1  0
 20 44  1  0
 22 45  1  0
 25 46  1  0
 26 47  1  0
M  END
>  <smiles>  (25) 
O=C(NCC(=O)N1CCCCC1CC(F)(F)F)c1ccc2cc(F)ccc2n1

>  <score_type>  (25) 
oracle

>  <origin>  (25) 
autodockgpu

>  <m_score__min__energy>  (25) 
-7.2599999999999998

>  <m_primary>  (25) 
energy

>  <rmsd>  (25) 
2.834422297376827

>  <m_score__min__rmsd>  (25) 
2.834422297376827

>  <meeko>  (25) 
{"free_energy": -6.83, "intermolecular_energy": -8.62, "internal_energy": -1.29, "cluster_size": 24, "cluster_id": 1, "rank_in_cluster": 9}

>  <energy>  (25) 
-7.14

>  <cluster_rmsd>  (25) 
0.0

>  <cluster>  (25) 
2

$$$$

     RDKit          3D

 47 49  0  0  0  0  0  0  0  0999 V2000
  140.3940   71.3410  221.0090 O   0  0  0  0  0  0  0  0  0  0  0  0
  140.0700   71.9120  222.0750 C   0  0  0  0  0  0  0  0  0  0  0  0
  139.8370   73.2920  222.1560 N   0  0  0  0  0  0  0  0  0  0  0  0
  139.9410   74.1900  221.0340 C   0  0  0  0  0  0  0  0  0  0  0  0
  140.0470   75.5870  221.5890 C   0  0  0  0  0  0  0  0  0  0  0  0
  139.5800   75.7580  222.7250 O   0  0  0  0  0  0  0  0  0  0  0  0
  140.6570   76.5460  220.7630 N   0  0  0  0  0  0  0  0  0  0  0  0
  141.5870   76.1720  219.6820 C   0  0  0  0  0  0  0  0  0  0  0  0
  141.7080   77.3050  218.6880 C   0  0  0  0  0  0  0  0  0  0  0  0
  142.1870   78.5750  219.3220 C   0  0  0  0  0  0  0  0  0  0  0  0
  141.8250   78.5730  220.8240 C   0  0  0  0  0  0  0  0  0  0  0  0
  140.4400   78.0020  220.8870 C   0  0  2  0  0  0  0  0  0  0  0  0
  139.6040   78.3500  222.0460 C   0  0  0  0  0  0  0  0  0  0  0  0
  140.3600   79.1010  223.1040 C   0  0  0  0  0  0  0  0  0  0  0  0
  139.6370   79.4150  224.2160 F   0  0  0  0  0  0  0  0  0  0  0  0
  140.8410   80.2970  222.5680 F   0  0  0  0  0  0  0  0  0  0  0  0
  141.4590   78.3380  223.4810 F   0  0  0  0  0  0  0  0  0  0  0  0
  139.9350   71.0770  223.2870 C   0  0  0  0  0  0  0  0  0  0  0  0
  139.3750   69.8180  223.2310 C   0  0  0  0  0  0  0  0  0  0  0  0
  139.2620   69.0570  224.3890 C   0  0  0  0  0  0  0  0  0  0  0  0
  139.7180   69.5800  225.5920 C   0  0  0  0  0  0  0  0  0  0  0  0
  139.6400   68.8860  226.7820 C   0  0  0  0  0  0  0  0  0  0  0  0
  140.1050   69.4470  227.9530 C   0  0  0  0  0  0  0  0  0  0  0  0
  140.0370   68.7810  229.1330 F   0  0  0  0  0  0  0  0  0  0  0  0
  140.6610   70.7080  227.9860 C   0  0  0  0  0  0  0  0  0  0  0  0
  140.7370   71.3940  226.8020 C   0  0  0  0  0  0  0  0  0  0  0  0
  140.2740   70.8430  225.6230 C   0  0  0  0  0  0  0  0  0  0  0  0
  140.3660   71.5490  224.4820 N   0  0  0  0  0  0  0  0  0  0  0  0
  139.5690   73.6800  223.0990 H   0  0  0  0  0  0  0  0  0  0  0  0
  140.8366   73.9509  220.4418 H   0  0  0  0  0  0  0  0  0  0  0  0
  139.0638   74.0967  220.3768 H   0  0  0  0  0  0  0  0  0  0  0  0
  142.5767   75.9569  220.1112 H   0  0  0  0  0  0  0  0  0  0  0  0
  141.2015   75.2798  219.1670 H   0  0  0  0  0  0  0  0  0  0  0  0
  142.4210   77.0115  217.9035 H   0  0  0  0  0  0  0  0  0  0  0  0
  140.7068   77.4949  218.2738 H   0  0  0  0  0  0  0  0  0  0  0  0
  143.2784   78.6518  219.2086 H   0  0  0  0  0  0  0  0  0  0  0  0
  141.7045   79.4330  218.8311 H   0  0  0  0  0  0  0  0  0  0  0  0
  142.5284   77.9452  221.3907 H   0  0  0  0  0  0  0  0  0  0  0  0
  141.8779   79.5799  221.2638 H   0  0  0  0  0  0  0  0  0  0  0  0
  139.8322   78.4476  220.0857 H   0  0  0  0  0  0  0  0  0  0  0  0
  138.7675   78.9754  221.7009 H   0  0  0  0  0  0  0  0  0  0  0  0
  139.2520   77.4095  222.4949 H   0  0  0  0  0  0  0  0  0  0  0  0
  139.0181   69.4163  222.2712 H   0  0  0  0  0  0  0  0  0  0  0  0
  138.8164   68.0519  224.3528 H   0  0  0  0  0  0  0  0  0  0  0  0
  139.2032   67.8766  226.7969 H   0  0  0  0  0  0  0  0  0  0  0  0
  141.0291   71.1462  228.9254 H   0  0  0  0  0  0  0  0  0  0  0  0
  141.1752   72.4029  226.7904 H   0  0  0  0  0  0  0  0  0  0  0  0
  1  2  2  0
  2  3  1  0
  3  4  1  0
  4  5  1  0
  5  6  2  0
  5  7  1  0
  7  8  1  0
  8  9  1  0
  9 10  1  0
 10 11  1  0
 11 12  1  0
 12 13  1  0
 13 14  1  0
 14 15  1  0
 14 16  1  0
 14 17  1  0
  2 18  1  0
 18 19  2  0
 19 20  1  0
 20 21  2  0
 21 22  1  0
 22 23  2  0
 23 24  1  0
 23 25  1  0
 25 26  2  0
 26 27  1  0
 27 28  2  0
 12  7  1  0
 28 18  1  0
 27 21  1  0
  3 29  1  0
  4 30  1  0
  4 31  1  0
  8 32  1  0
  8 33  1  0
  9 34  1  0
  9 35  1  0
 10 36  1  0
 10 37  1  0
 11 38  1  0
 11 39  1  0
 12 40  1  6
 13 41  1  0
 13 42  1  0
 19 43  1  0
 20 44  1  0
 22 45  1  0
 25 46  1  0
 26 47  1  0
M  END
>  <smiles>  (26) 
O=C(NCC(=O)N1CCCCC1CC(F)(F)F)c1ccc2cc(F)ccc2n1

>  <score_type>  (26) 
oracle

>  <origin>  (26) 
autodockgpu

>  <m_score__min__energy>  (26) 
-7.2599999999999998

>  <m_primary>  (26) 
energy

>  <rmsd>  (26) 
2.101065794870133

>  <m_score__min__rmsd>  (26) 
2.101065794870133

>  <meeko>  (26) 
{"free_energy": -6.76, "intermolecular_energy": -8.55, "internal_energy": -1.44, "cluster_size": 24, "cluster_id": 1, "rank_in_cluster": 15}

>  <energy>  (26) 
-7.09

>  <cluster_rmsd>  (26) 
0.21

>  <cluster>  (26) 
2

$$$$

     RDKit          3D

 47 49  0  0  0  0  0  0  0  0999 V2000
  141.5110   72.1430  221.5840 O   0  0  0  0  0  0  0  0  0  0  0  0
  140.5740   72.4670  222.3470 C   0  0  0  0  0  0  0  0  0  0  0  0
  139.8100   73.6280  222.1590 N   0  0  0  0  0  0  0  0  0  0  0  0
  140.0190   74.5580  221.0790 C   0  0  0  0  0  0  0  0  0  0  0  0
  139.6770   75.9310  221.6000 C   0  0  0  0  0  0  0  0  0  0  0  0
  139.1250   75.9700  222.7100 O   0  0  0  0  0  0  0  0  0  0  0  0
  140.0170   77.0170  220.7760 N   0  0  0  0  0  0  0  0  0  0  0  0
  139.6440   77.0680  219.3520 C   0  0  0  0  0  0  0  0  0  0  0  0
  139.7050   78.4940  218.8520 C   0  0  0  0  0  0  0  0  0  0  0  0
  141.0620   79.1040  219.0200 C   0  0  0  0  0  0  0  0  0  0  0  0
  141.8080   78.3990  220.1740 C   0  0  0  0  0  0  0  0  0  0  0  0
  140.7720   78.2010  221.2390 C   0  0  2  0  0  0  0  0  0  0  0  0
  141.2310   78.0670  222.6300 C   0  0  0  0  0  0  0  0  0  0  0  0
  141.7580   79.3550  223.1940 C   0  0  0  0  0  0  0  0  0  0  0  0
  140.9960   80.4550  222.9300 F   0  0  0  0  0  0  0  0  0  0  0  0
  143.0320   79.5990  222.6800 F   0  0  0  0  0  0  0  0  0  0  0  0
  141.8820   79.2120  224.5710 F   0  0  0  0  0  0  0  0  0  0  0  0
  140.2760   71.5760  223.4880 C   0  0  0  0  0  0  0  0  0  0  0  0
  139.5550   70.4130  223.3200 C   0  0  0  0  0  0  0  0  0  0  0  0
  139.2920   69.5960  224.4140 C   0  0  0  0  0  0  0  0  0  0  0  0
  139.7640   69.9650  225.6660 C   0  0  0  0  0  0  0  0  0  0  0  0
  139.5440   69.2070  226.7980 C   0  0  0  0  0  0  0  0  0  0  0  0
  140.0320   69.6140  228.0220 C   0  0  0  0  0  0  0  0  0  0  0  0
  139.8260   68.8830  229.1450 F   0  0  0  0  0  0  0  0  0  0  0  0
  140.7520   70.7810  228.1660 C   0  0  0  0  0  0  0  0  0  0  0  0
  140.9690   71.5320  227.0410 C   0  0  0  0  0  0  0  0  0  0  0  0
  140.4840   71.1340  225.8090 C   0  0  0  0  0  0  0  0  0  0  0  0
  140.7180   71.8990  224.7280 N   0  0  0  0  0  0  0  0  0  0  0  0
  139.0410   73.8160  222.8550 H   0  0  0  0  0  0  0  0  0  0  0  0
  141.0697   74.5289  220.7547 H   0  0  0  0  0  0  0  0  0  0  0  0
  139.3892   74.3004  220.2147 H   0  0  0  0  0  0  0  0  0  0  0  0
  140.3418   76.4478  218.7702 H   0  0  0  0  0  0  0  0  0  0  0  0
  138.6188   76.6874  219.2335 H   0  0  0  0  0  0  0  0  0  0  0  0
  139.4436   78.5045  217.7836 H   0  0  0  0  0  0  0  0  0  0  0  0
  138.9962   79.0874  219.4482 H   0  0  0  0  0  0  0  0  0  0  0  0
  141.6343   78.9860  218.0881 H   0  0  0  0  0  0  0  0  0  0  0  0
  140.9552   80.1736  219.2537 H   0  0  0  0  0  0  0  0  0  0  0  0
  142.2102   77.4310  219.8406 H   0  0  0  0  0  0  0  0  0  0  0  0
  142.6647   78.9877  220.5340 H   0  0  0  0  0  0  0  0  0  0  0  0
  140.1758   79.1206  221.3334 H   0  0  0  0  0  0  0  0  0  0  0  0
  140.3854   77.7320  223.2487 H   0  0  0  0  0  0  0  0  0  0  0  0
  142.0556   77.3390  222.6386 H   0  0  0  0  0  0  0  0  0  0  0  0
  139.1882   70.1317  222.3218 H   0  0  0  0  0  0  0  0  0  0  0  0
  138.7161   68.6672  224.2886 H   0  0  0  0  0  0  0  0  0  0  0  0
  138.9740   68.2692  226.7233 H   0  0  0  0  0  0  0  0  0  0  0  0
  141.1374   71.0969  229.1466 H   0  0  0  0  0  0  0  0  0  0  0  0
  141.5397   72.4691  227.1193 H   0  0  0  0  0  0  0  0  0  0  0  0
  1  2  2  0
  2  3  1  0
  3  4  1  0
  4  5  1  0
  5  6  2  0
  5  7  1  0
  7  8  1  0
  8  9  1  0
  9 10  1  0
 10 11  1  0
 11 12  1  0
 12 13  1  0
 13 14  1  0
 14 15  1  0
 14 16  1  0
 14 17  1  0
  2 18  1  0
 18 19  2  0
 19 20  1  0
 20 21  2  0
 21 22  1  0
 22 23  2  0
 23 24  1  0
 23 25  1  0
 25 26  2  0
 26 27  1  0
 27 28  2  0
 12  7  1  0
 28 18  1  0
 27 21  1  0
  3 29  1  0
  4 30  1  0
  4 31  1  0
  8 32  1  0
  8 33  1  0
  9 34  1  0
  9 35  1  0
 10 36  1  0
 10 37  1  0
 11 38  1  0
 11 39  1  0
 12 40  1  1
 13 41  1  0
 13 42  1  0
 19 43  1  0
 20 44  1  0
 22 45  1  0
 25 46  1  0
 26 47  1  0
M  END
>  <smiles>  (27) 
O=C(NCC(=O)N1CCCCC1CC(F)(F)F)c1ccc2cc(F)ccc2n1

>  <score_type>  (27) 
oracle

>  <origin>  (27) 
autodockgpu

>  <m_score__min__energy>  (27) 
-7.2599999999999998

>  <m_primary>  (27) 
energy

>  <rmsd>  (27) 
2.2644824244415425

>  <m_score__min__rmsd>  (27) 
2.2644824244415425

>  <meeko>  (27) 
{"free_energy": -6.83, "intermolecular_energy": -8.62, "internal_energy": -1.55, "cluster_size": 24, "cluster_id": 1, "rank_in_cluster": 8}

>  <energy>  (27) 
-7.07

>  <cluster_rmsd>  (27) 
0.49

>  <cluster>  (27) 
2

$$$$

     RDKit          3D

 47 49  0  0  0  0  0  0  0  0999 V2000
  140.0810   71.3840  220.9340 O   0  0  0  0  0  0  0  0  0  0  0  0
  139.8900   71.9650  222.0250 C   0  0  0  0  0  0  0  0  0  0  0  0
  139.7390   73.3550  222.1290 N   0  0  0  0  0  0  0  0  0  0  0  0
  139.7850   74.2520  221.0010 C   0  0  0  0  0  0  0  0  0  0  0  0
  140.4920   75.5040  221.4560 C   0  0  0  0  0  0  0  0  0  0  0  0
  140.2730   75.8580  222.6250 O   0  0  0  0  0  0  0  0  0  0  0  0
  141.3180   76.1360  220.5120 N   0  0  0  0  0  0  0  0  0  0  0  0
  140.9460   77.4100  219.8730 C   0  0  0  0  0  0  0  0  0  0  0  0
  142.1750   78.0780  219.2970 C   0  0  0  0  0  0  0  0  0  0  0  0
  142.8780   77.2170  218.2920 C   0  0  0  0  0  0  0  0  0  0  0  0
  142.5650   75.7310  218.5730 C   0  0  0  0  0  0  0  0  0  0  0  0
  142.6220   75.6010  220.0660 C   0  0  2  0  0  0  0  0  0  0  0  0
  142.9090   74.2740  220.6310 C   0  0  0  0  0  0  0  0  0  0  0  0
  144.3230   73.8320  220.3870 C   0  0  0  0  0  0  0  0  0  0  0  0
  144.7580   72.8190  221.1900 F   0  0  0  0  0  0  0  0  0  0  0  0
  145.1850   74.9130  220.5780 F   0  0  0  0  0  0  0  0  0  0  0  0
  144.4360   73.4350  219.0600 F   0  0  0  0  0  0  0  0  0  0  0  0
  139.8240   71.1320  223.2450 C   0  0  0  0  0  0  0  0  0  0  0  0
  139.2910   69.8610  223.2170 C   0  0  0  0  0  0  0  0  0  0  0  0
  139.2440   69.1030  224.3810 C   0  0  0  0  0  0  0  0  0  0  0  0
  139.7370   69.6400  225.5620 C   0  0  0  0  0  0  0  0  0  0  0  0
  139.7250   68.9500  226.7570 C   0  0  0  0  0  0  0  0  0  0  0  0
  140.2270   69.5260  227.9050 C   0  0  0  0  0  0  0  0  0  0  0  0
  140.2230   68.8640  229.0890 F   0  0  0  0  0  0  0  0  0  0  0  0
  140.7550   70.7990  227.9100 C   0  0  0  0  0  0  0  0  0  0  0  0
  140.7660   71.4820  226.7220 C   0  0  0  0  0  0  0  0  0  0  0  0
  140.2660   70.9160  225.5650 C   0  0  0  0  0  0  0  0  0  0  0  0
  140.2950   71.6190  224.4190 N   0  0  0  0  0  0  0  0  0  0  0  0
  139.5820   73.7520  223.0920 H   0  0  0  0  0  0  0  0  0  0  0  0
  140.3383   73.7869  220.1718 H   0  0  0  0  0  0  0  0  0  0  0  0
  138.7705   74.4838  220.6446 H   0  0  0  0  0  0  0  0  0  0  0  0
  140.2248   77.2156  219.0655 H   0  0  0  0  0  0  0  0  0  0  0  0
  140.4938   78.0729  220.6254 H   0  0  0  0  0  0  0  0  0  0  0  0
  141.8706   79.0149  218.8075 H   0  0  0  0  0  0  0  0  0  0  0  0
  142.8742   78.2634  220.1257 H   0  0  0  0  0  0  0  0  0  0  0  0
  142.5332   77.4788  217.2808 H   0  0  0  0  0  0  0  0  0  0  0  0
  143.9631   77.3818  218.3655 H   0  0  0  0  0  0  0  0  0  0  0  0
  141.5641   75.4689  218.1995 H   0  0  0  0  0  0  0  0  0  0  0  0
  143.2738   75.0561  218.0709 H   0  0  0  0  0  0  0  0  0  0  0  0
  143.4987   76.1498  220.4404 H   0  0  0  0  0  0  0  0  0  0  0  0
  142.7338   74.3086  221.7164 H   0  0  0  0  0  0  0  0  0  0  0  0
  142.2453   73.5514  220.1337 H   0  0  0  0  0  0  0  0  0  0  0  0
  138.9033   69.4472  222.2744 H   0  0  0  0  0  0  0  0  0  0  0  0
  138.8204   68.0879  224.3664 H   0  0  0  0  0  0  0  0  0  0  0  0
  139.3113   67.9314  226.7942 H   0  0  0  0  0  0  0  0  0  0  0  0
  141.1521   71.2493  228.8317 H   0  0  0  0  0  0  0  0  0  0  0  0
  141.1808   72.5003  226.6889 H   0  0  0  0  0  0  0  0  0  0  0  0
  1  2  2  0
  2  3  1  0
  3  4  1  0
  4  5  1  0
  5  6  2  0
  5  7  1  0
  7  8  1  0
  8  9  1  0
  9 10  1  0
 10 11  1  0
 11 12  1  0
 12 13  1  0
 13 14  1  0
 14 15  1  0
 14 16  1  0
 14 17  1  0
  2 18  1  0
 18 19  2  0
 19 20  1  0
 20 21  2  0
 21 22  1  0
 22 23  2  0
 23 24  1  0
 23 25  1  0
 25 26  2  0
 26 27  1  0
 27 28  2  0
 12  7  1  0
 28 18  1  0
 27 21  1  0
  3 29  1  0
  4 30  1  0
  4 31  1  0
  8 32  1  0
  8 33  1  0
  9 34  1  0
  9 35  1  0
 10 36  1  0
 10 37  1  0
 11 38  1  0
 11 39  1  0
 12 40  1  1
 13 41  1  0
 13 42  1  0
 19 43  1  0
 20 44  1  0
 22 45  1  0
 25 46  1  0
 26 47  1  0
M  END
>  <smiles>  (28) 
O=C(NCC(=O)N1CCCCC1CC(F)(F)F)c1ccc2cc(F)ccc2n1

>  <score_type>  (28) 
oracle

>  <origin>  (28) 
autodockgpu

>  <m_score__min__energy>  (28) 
-7.2599999999999998

>  <m_primary>  (28) 
energy

>  <rmsd>  (28) 
2.232900520236665

>  <m_score__min__rmsd>  (28) 
2.232900520236665

>  <meeko>  (28) 
{"free_energy": -6.72, "intermolecular_energy": -8.51, "internal_energy": -1.73, "cluster_size": 15, "cluster_id": 3, "rank_in_cluster": 11}

>  <energy>  (28) 
-7.06

>  <cluster_rmsd>  (28) 
0.31

>  <cluster>  (28) 
2

$$$$

     RDKit          3D

 47 49  0  0  0  0  0  0  0  0999 V2000
  139.4120   78.7780  219.6920 O   0  0  0  0  0  0  0  0  0  0  0  0
  140.6280   78.5650  219.8990 C   0  0  0  0  0  0  0  0  0  0  0  0
  141.5950   79.5790  219.8500 N   0  0  0  0  0  0  0  0  0  0  0  0
  141.2950   80.9580  219.5610 C   0  0  0  0  0  0  0  0  0  0  0  0
  141.2730   81.6950  220.8760 C   0  0  0  0  0  0  0  0  0  0  0  0
  141.0910   82.9200  220.8110 O   0  0  0  0  0  0  0  0  0  0  0  0
  141.4630   80.9190  222.0320 N   0  0  0  0  0  0  0  0  0  0  0  0
  142.8000   80.4940  222.4810 C   0  0  0  0  0  0  0  0  0  0  0  0
  142.7570   80.1080  223.9420 C   0  0  0  0  0  0  0  0  0  0  0  0
  141.7800   79.0050  224.2160 C   0  0  0  0  0  0  0  0  0  0  0  0
  140.6800   79.0070  223.1320 C   0  0  0  0  0  0  0  0  0  0  0  0
  140.3640   80.4550  222.9050 C   0  0  2  0  0  0  0  0  0  0  0  0
  139.0370   80.7940  222.3680 C   0  0  0  0  0  0  0  0  0  0  0  0
  137.9170   80.3370  223.2570 C   0  0  0  0  0  0  0  0  0  0  0  0
  136.7430   81.0130  223.0990 F   0  0  0  0  0  0  0  0  0  0  0  0
  138.2990   80.4740  224.5920 F   0  0  0  0  0  0  0  0  0  0  0  0
  137.6940   78.9850  223.0220 F   0  0  0  0  0  0  0  0  0  0  0  0
  141.0400   77.1790  220.2050 C   0  0  0  0  0  0  0  0  0  0  0  0
  140.1880   76.3020  220.8430 C   0  0  0  0  0  0  0  0  0  0  0  0
  140.6060   75.0040  221.1160 C   0  0  0  0  0  0  0  0  0  0  0  0
  141.8820   74.6080  220.7410 C   0  0  0  0  0  0  0  0  0  0  0  0
  142.3680   73.3390  220.9780 C   0  0  0  0  0  0  0  0  0  0  0  0
  143.6440   72.9910  220.5870 C   0  0  0  0  0  0  0  0  0  0  0  0
  144.1400   71.7490  220.8120 F   0  0  0  0  0  0  0  0  0  0  0  0
  144.4790   73.8850  219.9500 C   0  0  0  0  0  0  0  0  0  0  0  0
  143.9940   75.1440  219.7160 C   0  0  0  0  0  0  0  0  0  0  0  0
  142.7170   75.5040  220.1040 C   0  0  0  0  0  0  0  0  0  0  0  0
  142.2780   76.7520  219.8560 N   0  0  0  0  0  0  0  0  0  0  0  0
  142.5950   79.3010  220.0370 H   0  0  0  0  0  0  0  0  0  0  0  0
  142.0687   81.3823  218.9042 H   0  0  0  0  0  0  0  0  0  0  0  0
  140.3264   81.0473  219.0473 H   0  0  0  0  0  0  0  0  0  0  0  0
  143.1263   79.6288  221.8852 H   0  0  0  0  0  0  0  0  0  0  0  0
  143.5067   81.3265  222.3484 H   0  0  0  0  0  0  0  0  0  0  0  0
  143.7597   79.7753  224.2486 H   0  0  0  0  0  0  0  0  0  0  0  0
  142.4321   80.9912  224.5115 H   0  0  0  0  0  0  0  0  0  0  0  0
  142.3054   78.0387  224.2027 H   0  0  0  0  0  0  0  0  0  0  0  0
  141.3206   79.1605  225.2033 H   0  0  0  0  0  0  0  0  0  0  0  0
  141.0485   78.5416  222.2059 H   0  0  0  0  0  0  0  0  0  0  0  0
  139.7936   78.4334  223.4407 H   0  0  0  0  0  0  0  0  0  0  0  0
  140.3009   80.9647  223.8777 H   0  0  0  0  0  0  0  0  0  0  0  0
  138.9723   81.8862  222.2540 H   0  0  0  0  0  0  0  0  0  0  0  0
  138.9273   80.2765  221.4036 H   0  0  0  0  0  0  0  0  0  0  0  0
  139.1792   76.6287  221.1355 H   0  0  0  0  0  0  0  0  0  0  0  0
  139.9321   74.2985  221.6240 H   0  0  0  0  0  0  0  0  0  0  0  0
  141.7319   72.5976  221.4836 H   0  0  0  0  0  0  0  0  0  0  0  0
  145.4952   73.5978  219.6419 H   0  0  0  0  0  0  0  0  0  0  0  0
  144.6326   75.8828  219.2097 H   0  0  0  0  0  0  0  0  0  0  0  0
  1  2  2  0
  2  3  1  0
  3  4  1  0
  4  5  1  0
  5  6  2  0
  5  7  1  0
  7  8  1  0
  8  9  1  0
  9 10  1  0
 10 11  1  0
 11 12  1  0
 12 13  1  0
 13 14  1  0
 14 15  1  0
 14 16  1  0
 14 17  1  0
  2 18  1  0
 18 19  2  0
 19 20  1  0
 20 21  2  0
 21 22  1  0
 22 23  2  0
 23 24  1  0
 23 25  1  0
 25 26  2  0
 26 27  1  0
 27 28  2  0
 12  7  1  0
 28 18  1  0
 27 21  1  0
  3 29  1  0
  4 30  1  0
  4 31  1  0
  8 32  1  0
  8 33  1  0
  9 34  1  0
  9 35  1  0
 10 36  1  0
 10 37  1  0
 11 38  1  0
 11 39  1  0
 12 40  1  1
 13 41  1  0
 13 42  1  0
 19 43  1  0
 20 44  1  0
 22 45  1  0
 25 46  1  0
 26 47  1  0
M  END
>  <smiles>  (29) 
O=C(NCC(=O)N1CCCCC1CC(F)(F)F)c1ccc2cc(F)ccc2n1

>  <score_type>  (29) 
oracle

>  <origin>  (29) 
autodockgpu

>  <m_score__min__energy>  (29) 
-7.2599999999999998

>  <m_primary>  (29) 
energy

>  <rmsd>  (29) 
7.731767560105185

>  <m_score__min__rmsd>  (29) 
7.731767560105185

>  <meeko>  (29) 
{"free_energy": -5.23, "intermolecular_energy": -7.02, "internal_energy": -2.01, "cluster_size": 1, "cluster_id": 5, "rank_in_cluster": 1}

>  <energy>  (29) 
-7.03

>  <cluster_rmsd>  (29) 
0.39

>  <cluster>  (29) 
2

$$$$

     RDKit          3D

 47 49  0  0  0  0  0  0  0  0999 V2000
  141.1450   72.0590  221.2790 O   0  0  0  0  0  0  0  0  0  0  0  0
  140.4810   72.4680  222.2580 C   0  0  0  0  0  0  0  0  0  0  0  0
  139.9500   73.7640  222.3250 N   0  0  0  0  0  0  0  0  0  0  0  0
  140.1090   74.7500  221.2860 C   0  0  0  0  0  0  0  0  0  0  0  0
  139.6710   76.0750  221.8570 C   0  0  0  0  0  0  0  0  0  0  0  0
  138.7990   76.0260  222.7380 O   0  0  0  0  0  0  0  0  0  0  0  0
  140.2930   77.2200  221.3330 N   0  0  0  0  0  0  0  0  0  0  0  0
  141.2600   77.1490  220.2230 C   0  0  0  0  0  0  0  0  0  0  0  0
  141.3950   78.5040  219.5670 C   0  0  0  0  0  0  0  0  0  0  0  0
  141.8360   79.5660  220.5270 C   0  0  0  0  0  0  0  0  0  0  0  0
  141.4290   79.1670  221.9630 C   0  0  0  0  0  0  0  0  0  0  0  0
  140.0510   78.5910  221.8280 C   0  0  2  0  0  0  0  0  0  0  0  0
  139.1750   78.6170  223.0090 C   0  0  0  0  0  0  0  0  0  0  0  0
  138.7330   80.0050  223.3740 C   0  0  0  0  0  0  0  0  0  0  0  0
  137.5140   80.0810  223.9800 F   0  0  0  0  0  0  0  0  0  0  0  0
  138.6740   80.7900  222.2210 F   0  0  0  0  0  0  0  0  0  0  0  0
  139.6900   80.5630  224.2130 F   0  0  0  0  0  0  0  0  0  0  0  0
  140.2600   71.5310  223.3780 C   0  0  0  0  0  0  0  0  0  0  0  0
  139.6330   70.3180  223.1860 C   0  0  0  0  0  0  0  0  0  0  0  0
  139.4410   69.4580  224.2610 C   0  0  0  0  0  0  0  0  0  0  0  0
  139.8850   69.8350  225.5210 C   0  0  0  0  0  0  0  0  0  0  0  0
  139.7300   69.0370  226.6350 C   0  0  0  0  0  0  0  0  0  0  0  0
  140.1880   69.4540  227.8670 C   0  0  0  0  0  0  0  0  0  0  0  0
  140.0450   68.6840  228.9740 F   0  0  0  0  0  0  0  0  0  0  0  0
  140.8130   70.6720  228.0370 C   0  0  0  0  0  0  0  0  0  0  0  0
  140.9650   71.4620  226.9290 C   0  0  0  0  0  0  0  0  0  0  0  0
  140.5100   71.0550  225.6890 C   0  0  0  0  0  0  0  0  0  0  0  0
  140.6790   71.8600  224.6250 N   0  0  0  0  0  0  0  0  0  0  0  0
  139.4050   74.0170  223.1920 H   0  0  0  0  0  0  0  0  0  0  0  0
  141.1629   74.8035  220.9754 H   0  0  0  0  0  0  0  0  0  0  0  0
  139.5072   74.4874  220.4034 H   0  0  0  0  0  0  0  0  0  0  0  0
  142.2392   76.8338  220.6126 H   0  0  0  0  0  0  0  0  0  0  0  0
  140.9027   76.4218  219.4790 H   0  0  0  0  0  0  0  0  0  0  0  0
  142.1357   78.4313  218.7570 H   0  0  0  0  0  0  0  0  0  0  0  0
  140.4039   78.7901  219.1850 H   0  0  0  0  0  0  0  0  0  0  0  0
  142.9291   79.6769  220.4736 H   0  0  0  0  0  0  0  0  0  0  0  0
  141.3561   80.5199  220.2627 H   0  0  0  0  0  0  0  0  0  0  0  0
  142.1241   78.4167  222.3678 H   0  0  0  0  0  0  0  0  0  0  0  0
  141.4540   80.0231  222.6533 H   0  0  0  0  0  0  0  0  0  0  0  0
  139.4613   79.2280  221.1523 H   0  0  0  0  0  0  0  0  0  0  0  0
  138.2835   78.0079  222.7990 H   0  0  0  0  0  0  0  0  0  0  0  0
  139.7504   78.2183  223.8575 H   0  0  0  0  0  0  0  0  0  0  0  0
  139.2850   70.0311  222.1827 H   0  0  0  0  0  0  0  0  0  0  0  0
  138.9423   68.4885  224.1147 H   0  0  0  0  0  0  0  0  0  0  0  0
  139.2363   68.0586  226.5399 H   0  0  0  0  0  0  0  0  0  0  0  0
  141.1751   70.9958  229.0239 H   0  0  0  0  0  0  0  0  0  0  0  0
  141.4590   72.4399  227.0277 H   0  0  0  0  0  0  0  0  0  0  0  0
  1  2  2  0
  2  3  1  0
  3  4  1  0
  4  5  1  0
  5  6  2  0
  5  7  1  0
  7  8  1  0
  8  9  1  0
  9 10  1  0
 10 11  1  0
 11 12  1  0
 12 13  1  0
 13 14  1  0
 14 15  1  0
 14 16  1  0
 14 17  1  0
  2 18  1  0
 18 19  2  0
 19 20  1  0
 20 21  2  0
 21 22  1  0
 22 23  2  0
 23 24  1  0
 23 25  1  0
 25 26  2  0
 26 27  1  0
 27 28  2  0
 12  7  1  0
 28 18  1  0
 27 21  1  0
  3 29  1  0
  4 30  1  0
  4 31  1  0
  8 32  1  0
  8 33  1  0
  9 34  1  0
  9 35  1  0
 10 36  1  0
 10 37  1  0
 11 38  1  0
 11 39  1  0
 12 40  1  6
 13 41  1  0
 13 42  1  0
 19 43  1  0
 20 44  1  0
 22 45  1  0
 25 46  1  0
 26 47  1  0
M  END
>  <smiles>  (30) 
O=C(NCC(=O)N1CCCCC1CC(F)(F)F)c1ccc2cc(F)ccc2n1

>  <score_type>  (30) 
oracle

>  <origin>  (30) 
autodockgpu

>  <m_score__min__energy>  (30) 
-7.2599999999999998

>  <m_primary>  (30) 
energy

>  <rmsd>  (30) 
2.7005700608274905

>  <m_score__min__rmsd>  (30) 
2.7005700608274905

>  <meeko>  (30) 
{"free_energy": -6.84, "intermolecular_energy": -8.63, "internal_energy": -1.42, "cluster_size": 24, "cluster_id": 1, "rank_in_cluster": 7}

>  <energy>  (30) 
-7.0

>  <cluster_rmsd>  (30) 
0.33

>  <cluster>  (30) 
2

$$$$

     RDKit          3D

 47 49  0  0  0  0  0  0  0  0999 V2000
  141.5960   71.7490  221.3970 O   0  0  0  0  0  0  0  0  0  0  0  0
  140.7220   72.4540  221.9470 C   0  0  0  0  0  0  0  0  0  0  0  0
  139.7050   71.9160  222.7480 N   0  0  0  0  0  0  0  0  0  0  0  0
  139.5620   70.5080  223.0210 C   0  0  0  0  0  0  0  0  0  0  0  0
  138.8510   70.3800  224.3450 C   0  0  0  0  0  0  0  0  0  0  0  0
  137.8070   71.0390  224.4680 O   0  0  0  0  0  0  0  0  0  0  0  0
  139.4450   69.5340  225.2960 N   0  0  0  0  0  0  0  0  0  0  0  0
  139.1940   68.0820  225.3190 C   0  0  0  0  0  0  0  0  0  0  0  0
  140.2850   67.3800  226.0960 C   0  0  0  0  0  0  0  0  0  0  0  0
  140.3950   67.8760  227.5060 C   0  0  0  0  0  0  0  0  0  0  0  0
  139.8530   69.3200  227.5910 C   0  0  0  0  0  0  0  0  0  0  0  0
  140.3650   69.9980  226.3560 C   0  0  2  0  0  0  0  0  0  0  0  0
  140.5010   71.4620  226.3810 C   0  0  0  0  0  0  0  0  0  0  0  0
  141.0210   71.9750  227.6930 C   0  0  0  0  0  0  0  0  0  0  0  0
  141.8370   73.0640  227.6050 F   0  0  0  0  0  0  0  0  0  0  0  0
  141.7410   70.9650  228.3320 F   0  0  0  0  0  0  0  0  0  0  0  0
  139.9350   72.2900  228.5010 F   0  0  0  0  0  0  0  0  0  0  0  0
  140.7810   73.9150  221.7300 C   0  0  0  0  0  0  0  0  0  0  0  0
  141.7760   74.4860  220.9640 C   0  0  0  0  0  0  0  0  0  0  0  0
  141.8040   75.8640  220.7790 C   0  0  0  0  0  0  0  0  0  0  0  0
  140.8230   76.6490  221.3700 C   0  0  0  0  0  0  0  0  0  0  0  0
  140.7850   78.0210  221.2320 C   0  0  0  0  0  0  0  0  0  0  0  0
  139.7910   78.7600  221.8390 C   0  0  0  0  0  0  0  0  0  0  0  0
  139.7360   80.1090  221.7160 F   0  0  0  0  0  0  0  0  0  0  0  0
  138.8050   78.1680  222.6010 C   0  0  0  0  0  0  0  0  0  0  0  0
  138.8470   76.8050  222.7360 C   0  0  0  0  0  0  0  0  0  0  0  0
  139.8380   76.0540  222.1320 C   0  0  0  0  0  0  0  0  0  0  0  0
  139.8430   74.7180  222.2900 N   0  0  0  0  0  0  0  0  0  0  0  0
  139.0130   72.5920  223.1680 H   0  0  0  0  0  0  0  0  0  0  0  0
  138.9700   70.0285  222.2275 H   0  0  0  0  0  0  0  0  0  0  0  0
  140.5449   70.0155  223.0566 H   0  0  0  0  0  0  0  0  0  0  0  0
  138.2231   67.8879  225.7982 H   0  0  0  0  0  0  0  0  0  0  0  0
  139.1839   67.7013  224.2870 H   0  0  0  0  0  0  0  0  0  0  0  0
  140.0655   66.3023  226.1172 H   0  0  0  0  0  0  0  0  0  0  0  0
  141.2408   67.5881  225.5928 H   0  0  0  0  0  0  0  0  0  0  0  0
  139.8076   67.2248  228.1700 H   0  0  0  0  0  0  0  0  0  0  0  0
  141.4502   67.8629  227.8166 H   0  0  0  0  0  0  0  0  0  0  0  0
  138.7531   69.3202  227.6048 H   0  0  0  0  0  0  0  0  0  0  0  0
  140.1788   69.8310  228.5090 H   0  0  0  0  0  0  0  0  0  0  0  0
  141.4189   69.7206  226.2063 H   0  0  0  0  0  0  0  0  0  0  0  0
  141.1970   71.7641  225.5846 H   0  0  0  0  0  0  0  0  0  0  0  0
  139.4991   71.8906  226.2310 H   0  0  0  0  0  0  0  0  0  0  0  0
  142.5462   73.8522  220.5002 H   0  0  0  0  0  0  0  0  0  0  0  0
  142.5950   76.3272  220.1709 H   0  0  0  0  0  0  0  0  0  0  0  0
  141.5541   78.5302  220.6326 H   0  0  0  0  0  0  0  0  0  0  0  0
  138.0165   78.7662  223.0810 H   0  0  0  0  0  0  0  0  0  0  0  0
  138.0771   76.2986  223.3367 H   0  0  0  0  0  0  0  0  0  0  0  0
  1  2  2  0
  2  3  1  0
  3  4  1  0
  4  5  1  0
  5  6  2  0
  5  7  1  0
  7  8  1  0
  8  9  1  0
  9 10  1  0
 10 11  1  0
 11 12  1  0
 12 13  1  0
 13 14  1  0
 14 15  1  0
 14 16  1  0
 14 17  1  0
  2 18  1  0
 18 19  2  0
 19 20  1  0
 20 21  2  0
 21 22  1  0
 22 23  2  0
 23 24  1  0
 23 25  1  0
 25 26  2  0
 26 27  1  0
 27 28  2  0
 12  7  1  0
 28 18  1  0
 27 21  1  0
  3 29  1  0
  4 30  1  0
  4 31  1  0
  8 32  1  0
  8 33  1  0
  9 34  1  0
  9 35  1  0
 10 36  1  0
 10 37  1  0
 11 38  1  0
 11 39  1  0
 12 40  1  6
 13 41  1  0
 13 42  1  0
 19 43  1  0
 20 44  1  0
 22 45  1  0
 25 46  1  0
 26 47  1  0
M  END
>  <smiles>  (31) 
O=C(NCC(=O)N1CCCCC1CC(F)(F)F)c1ccc2cc(F)ccc2n1

>  <score_type>  (31) 
oracle

>  <origin>  (31) 
autodockgpu

>  <m_score__min__energy>  (31) 
-7.2599999999999998

>  <m_primary>  (31) 
energy

>  <rmsd>  (31) 
8.61547950024422

>  <m_score__min__rmsd>  (31) 
8.61547950024422

>  <meeko>  (31) 
{"free_energy": -7.07, "intermolecular_energy": -8.86, "internal_energy": -1.65, "cluster_size": 8, "cluster_id": 2, "rank_in_cluster": 3}

>  <energy>  (31) 
-6.96

>  <cluster_rmsd>  (31) 
0.64

>  <cluster>  (31) 
2

$$$$

     RDKit          3D

 47 49  0  0  0  0  0  0  0  0999 V2000
  139.8410   71.2830  220.9410 O   0  0  0  0  0  0  0  0  0  0  0  0
  139.7990   71.8570  222.0520 C   0  0  0  0  0  0  0  0  0  0  0  0
  139.7990   73.2520  222.1860 N   0  0  0  0  0  0  0  0  0  0  0  0
  139.8440   74.1640  221.0710 C   0  0  0  0  0  0  0  0  0  0  0  0
  139.6270   75.5520  221.6190 C   0  0  0  0  0  0  0  0  0  0  0  0
  139.1190   75.6170  222.7490 O   0  0  0  0  0  0  0  0  0  0  0  0
  140.0210   76.6200  220.7960 N   0  0  0  0  0  0  0  0  0  0  0  0
  139.7460   76.6370  219.3490 C   0  0  0  0  0  0  0  0  0  0  0  0
  139.8380   78.0520  218.8220 C   0  0  0  0  0  0  0  0  0  0  0  0
  141.1800   78.6700  219.0680 C   0  0  0  0  0  0  0  0  0  0  0  0
  141.8470   77.9930  220.2860 C   0  0  0  0  0  0  0  0  0  0  0  0
  140.7410   77.8160  221.2830 C   0  0  2  0  0  0  0  0  0  0  0  0
  141.1040   77.7150  222.7040 C   0  0  0  0  0  0  0  0  0  0  0  0
  141.4320   79.0470  223.3160 C   0  0  0  0  0  0  0  0  0  0  0  0
  140.4200   79.9600  223.2850 F   0  0  0  0  0  0  0  0  0  0  0  0
  142.5200   79.6080  222.6460 F   0  0  0  0  0  0  0  0  0  0  0  0
  141.8130   78.8400  224.6360 F   0  0  0  0  0  0  0  0  0  0  0  0
  139.7490   71.0090  223.2620 C   0  0  0  0  0  0  0  0  0  0  0  0
  139.2410   69.7280  223.2190 C   0  0  0  0  0  0  0  0  0  0  0  0
  139.2080   68.9550  224.3750 C   0  0  0  0  0  0  0  0  0  0  0  0
  139.6910   69.4890  225.5620 C   0  0  0  0  0  0  0  0  0  0  0  0
  139.6920   68.7850  226.7480 C   0  0  0  0  0  0  0  0  0  0  0  0
  140.1820   69.3560  227.9040 C   0  0  0  0  0  0  0  0  0  0  0  0
  140.1910   68.6810  229.0790 F   0  0  0  0  0  0  0  0  0  0  0  0
  140.6860   70.6400  227.9230 C   0  0  0  0  0  0  0  0  0  0  0  0
  140.6840   71.3360  226.7440 C   0  0  0  0  0  0  0  0  0  0  0  0
  140.1950   70.7740  225.5800 C   0  0  0  0  0  0  0  0  0  0  0  0
  140.2100   71.4910  224.4420 N   0  0  0  0  0  0  0  0  0  0  0  0
  139.7620   73.6430  223.1650 H   0  0  0  0  0  0  0  0  0  0  0  0
  140.8239   74.1040  220.5747 H   0  0  0  0  0  0  0  0  0  0  0  0
  139.0709   73.9122  220.3301 H   0  0  0  0  0  0  0  0  0  0  0  0
  140.4833   76.0064  218.8306 H   0  0  0  0  0  0  0  0  0  0  0  0
  138.7322   76.2497  219.1693 H   0  0  0  0  0  0  0  0  0  0  0  0
  139.6496   78.0377  217.7384 H   0  0  0  0  0  0  0  0  0  0  0  0
  139.0892   78.6563  219.3550 H   0  0  0  0  0  0  0  0  0  0  0  0
  141.8145   78.5328  218.1800 H   0  0  0  0  0  0  0  0  0  0  0  0
  141.0560   79.7442  219.2697 H   0  0  0  0  0  0  0  0  0  0  0  0
  142.2721   77.0188  220.0026 H   0  0  0  0  0  0  0  0  0  0  0  0
  142.6765   78.5921  220.6898 H   0  0  0  0  0  0  0  0  0  0  0  0
  140.1386   78.7358  221.3165 H   0  0  0  0  0  0  0  0  0  0  0  0
  140.2583   77.2746  223.2525 H   0  0  0  0  0  0  0  0  0  0  0  0
  142.0050   77.0877  222.7723 H   0  0  0  0  0  0  0  0  0  0  0  0
  138.8621   69.3176  222.2714 H   0  0  0  0  0  0  0  0  0  0  0  0
  138.8038   67.9323  224.3490 H   0  0  0  0  0  0  0  0  0  0  0  0
  139.2982   67.7582  226.7722 H   0  0  0  0  0  0  0  0  0  0  0  0
  141.0745   71.0874  228.8497 H   0  0  0  0  0  0  0  0  0  0  0  0
  141.0792   72.3623  226.7228 H   0  0  0  0  0  0  0  0  0  0  0  0
  1  2  2  0
  2  3  1  0
  3  4  1  0
  4  5  1  0
  5  6  2  0
  5  7  1  0
  7  8  1  0
  8  9  1  0
  9 10  1  0
 10 11  1  0
 11 12  1  0
 12 13  1  0
 13 14  1  0
 14 15  1  0
 14 16  1  0
 14 17  1  0
  2 18  1  0
 18 19  2  0
 19 20  1  0
 20 21  2  0
 21 22  1  0
 22 23  2  0
 23 24  1  0
 23 25  1  0
 25 26  2  0
 26 27  1  0
 27 28  2  0
 12  7  1  0
 28 18  1  0
 27 21  1  0
  3 29  1  0
  4 30  1  0
  4 31  1  0
  8 32  1  0
  8 33  1  0
  9 34  1  0
  9 35  1  0
 10 36  1  0
 10 37  1  0
 11 38  1  0
 11 39  1  0
 12 40  1  1
 13 41  1  0
 13 42  1  0
 19 43  1  0
 20 44  1  0
 22 45  1  0
 25 46  1  0
 26 47  1  0
M  END
>  <smiles>  (32) 
O=C(NCC(=O)N1CCCCC1CC(F)(F)F)c1ccc2cc(F)ccc2n1

>  <score_type>  (32) 
oracle

>  <origin>  (32) 
autodockgpu

>  <m_score__min__energy>  (32) 
-7.2599999999999998

>  <m_primary>  (32) 
energy

>  <rmsd>  (32) 
1.9838343186713954

>  <m_score__min__rmsd>  (32) 
1.9838343186713954

>  <meeko>  (32) 
{"free_energy": -6.52, "intermolecular_energy": -8.3, "internal_energy": -1.76, "cluster_size": 24, "cluster_id": 1, "rank_in_cluster": 24}

>  <energy>  (32) 
-6.89

>  <cluster_rmsd>  (32) 
0.65

>  <cluster>  (32) 
2

$$$$

     RDKit          3D

 47 49  0  0  0  0  0  0  0  0999 V2000
  140.6010   71.5220  221.0830 O   0  0  0  0  0  0  0  0  0  0  0  0
  140.1930   72.0670  222.1330 C   0  0  0  0  0  0  0  0  0  0  0  0
  139.8970   73.4350  222.2130 N   0  0  0  0  0  0  0  0  0  0  0  0
  140.0290   74.3490  221.1060 C   0  0  0  0  0  0  0  0  0  0  0  0
  139.7120   75.7280  221.6260 C   0  0  0  0  0  0  0  0  0  0  0  0
  139.1730   75.7780  222.7420 O   0  0  0  0  0  0  0  0  0  0  0  0
  140.0590   76.8060  220.7950 N   0  0  0  0  0  0  0  0  0  0  0  0
  139.7800   76.8030  219.3480 C   0  0  0  0  0  0  0  0  0  0  0  0
  139.8110   78.2160  218.8120 C   0  0  0  0  0  0  0  0  0  0  0  0
  141.1260   78.8920  219.0510 C   0  0  0  0  0  0  0  0  0  0  0  0
  141.8230   78.2520  220.2720 C   0  0  0  0  0  0  0  0  0  0  0  0
  140.7280   78.0350  221.2720 C   0  0  2  0  0  0  0  0  0  0  0  0
  141.0990   77.9590  222.6930 C   0  0  0  0  0  0  0  0  0  0  0  0
  141.7060   79.2340  223.2040 C   0  0  0  0  0  0  0  0  0  0  0  0
  142.9620   79.4980  222.7450 F   0  0  0  0  0  0  0  0  0  0  0  0
  141.7740   79.1880  224.5980 F   0  0  0  0  0  0  0  0  0  0  0  0
  140.8680   80.2870  222.8590 F   0  0  0  0  0  0  0  0  0  0  0  0
  140.0230   71.2130  223.3270 C   0  0  0  0  0  0  0  0  0  0  0  0
  139.4720   69.9530  223.2350 C   0  0  0  0  0  0  0  0  0  0  0  0
  139.3260   69.1740  224.3780 C   0  0  0  0  0  0  0  0  0  0  0  0
  139.7390   69.6810  225.6030 C   0  0  0  0  0  0  0  0  0  0  0  0
  139.6260   68.9700  226.7790 C   0  0  0  0  0  0  0  0  0  0  0  0
  140.0510   69.5160  227.9730 C   0  0  0  0  0  0  0  0  0  0  0  0
  139.9480   68.8320  229.1400 F   0  0  0  0  0  0  0  0  0  0  0  0
  140.5990   70.7790  228.0420 C   0  0  0  0  0  0  0  0  0  0  0  0
  140.7090   71.4830  226.8720 C   0  0  0  0  0  0  0  0  0  0  0  0
  140.2880   70.9470  225.6700 C   0  0  0  0  0  0  0  0  0  0  0  0
  140.4130   71.6700  224.5430 N   0  0  0  0  0  0  0  0  0  0  0  0
  139.5600   73.8010  223.1420 H   0  0  0  0  0  0  0  0  0  0  0  0
  141.0566   74.3209  220.7146 H   0  0  0  0  0  0  0  0  0  0  0  0
  139.3463   74.0735  220.2887 H   0  0  0  0  0  0  0  0  0  0  0  0
  140.5419   76.2008  218.8315 H   0  0  0  0  0  0  0  0  0  0  0  0
  138.7827   76.3728  219.1737 H   0  0  0  0  0  0  0  0  0  0  0  0
  139.6213   78.1865  217.7289 H   0  0  0  0  0  0  0  0  0  0  0  0
  139.0383   78.7916  219.3427 H   0  0  0  0  0  0  0  0  0  0  0  0
  141.7642   78.7759  218.1626 H   0  0  0  0  0  0  0  0  0  0  0  0
  140.9571   79.9614  219.2456 H   0  0  0  0  0  0  0  0  0  0  0  0
  142.2884   77.2948  219.9941 H   0  0  0  0  0  0  0  0  0  0  0  0
  142.6270   78.8884  220.6702 H   0  0  0  0  0  0  0  0  0  0  0  0
  140.0864   78.9280  221.3006 H   0  0  0  0  0  0  0  0  0  0  0  0
  140.1957   77.7392  223.2810 H   0  0  0  0  0  0  0  0  0  0  0  0
  141.8553   77.1670  222.7963 H   0  0  0  0  0  0  0  0  0  0  0  0
  139.1480   69.5638  222.2585 H   0  0  0  0  0  0  0  0  0  0  0  0
  138.8881   68.1671  224.3123 H   0  0  0  0  0  0  0  0  0  0  0  0
  139.1933   67.9588  226.7653 H   0  0  0  0  0  0  0  0  0  0  0  0
  140.9348   71.2048  228.9990 H   0  0  0  0  0  0  0  0  0  0  0  0
  141.1408   72.4945  226.8897 H   0  0  0  0  0  0  0  0  0  0  0  0
  1  2  2  0
  2  3  1  0
  3  4  1  0
  4  5  1  0
  5  6  2  0
  5  7  1  0
  7  8  1  0
  8  9  1  0
  9 10  1  0
 10 11  1  0
 11 12  1  0
 12 13  1  0
 13 14  1  0
 14 15  1  0
 14 16  1  0
 14 17  1  0
  2 18  1  0
 18 19  2  0
 19 20  1  0
 20 21  2  0
 21 22  1  0
 22 23  2  0
 23 24  1  0
 23 25  1  0
 25 26  2  0
 26 27  1  0
 27 28  2  0
 12  7  1  0
 28 18  1  0
 27 21  1  0
  3 29  1  0
  4 30  1  0
  4 31  1  0
  8 32  1  0
  8 33  1  0
  9 34  1  0
  9 35  1  0
 10 36  1  0
 10 37  1  0
 11 38  1  0
 11 39  1  0
 12 40  1  1
 13 41  1  0
 13 42  1  0
 19 43  1  0
 20 44  1  0
 22 45  1  0
 25 46  1  0
 26 47  1  0
M  END
>  <smiles>  (33) 
O=C(NCC(=O)N1CCCCC1CC(F)(F)F)c1ccc2cc(F)ccc2n1

>  <score_type>  (33) 
oracle

>  <origin>  (33) 
autodockgpu

>  <m_score__min__energy>  (33) 
-7.2599999999999998

>  <m_primary>  (33) 
energy

>  <rmsd>  (33) 
2.111574130542888

>  <m_score__min__rmsd>  (33) 
2.111574130542888

>  <meeko>  (33) 
{"free_energy": -6.73, "intermolecular_energy": -8.52, "internal_energy": -1.67, "cluster_size": 24, "cluster_id": 1, "rank_in_cluster": 21}

>  <energy>  (33) 
-7.1

>  <cluster_rmsd>  (33) 
0.0

>  <cluster>  (33) 
3

$$$$

     RDKit          3D

 47 49  0  0  0  0  0  0  0  0999 V2000
  141.3720   72.5000  221.8150 O   0  0  0  0  0  0  0  0  0  0  0  0
  140.3510   72.6000  222.5310 C   0  0  0  0  0  0  0  0  0  0  0  0
  139.3830   73.5960  222.3370 N   0  0  0  0  0  0  0  0  0  0  0  0
  139.4600   74.5980  221.3040 C   0  0  0  0  0  0  0  0  0  0  0  0
  140.1740   75.7890  221.8890 C   0  0  0  0  0  0  0  0  0  0  0  0
  141.3900   75.6510  222.0900 O   0  0  0  0  0  0  0  0  0  0  0  0
  139.3890   76.9260  222.1460 N   0  0  0  0  0  0  0  0  0  0  0  0
  137.9170   76.8920  222.0920 C   0  0  0  0  0  0  0  0  0  0  0  0
  137.3440   78.0670  222.8510 C   0  0  0  0  0  0  0  0  0  0  0  0
  137.8190   79.3830  222.3160 C   0  0  0  0  0  0  0  0  0  0  0  0
  139.1800   79.1950  221.6100 C   0  0  0  0  0  0  0  0  0  0  0  0
  139.9440   78.2520  222.4900 C   0  0  2  0  0  0  0  0  0  0  0  0
  141.4130   78.2830  222.4210 C   0  0  0  0  0  0  0  0  0  0  0  0
  141.9800   79.6380  222.7330 C   0  0  0  0  0  0  0  0  0  0  0  0
  143.3020   79.6460  223.0680 F   0  0  0  0  0  0  0  0  0  0  0  0
  141.2780   80.2000  223.8000 F   0  0  0  0  0  0  0  0  0  0  0  0
  141.7900   80.4580  221.6280 F   0  0  0  0  0  0  0  0  0  0  0  0
  140.1770   71.6180  223.6210 C   0  0  0  0  0  0  0  0  0  0  0  0
  139.5240   70.4210  223.4110 C   0  0  0  0  0  0  0  0  0  0  0  0
  139.3770   69.5180  224.4580 C   0  0  0  0  0  0  0  0  0  0  0  0
  139.8940   69.8350  225.7060 C   0  0  0  0  0  0  0  0  0  0  0  0
  139.7880   68.9920  226.7920 C   0  0  0  0  0  0  0  0  0  0  0  0
  140.3170   69.3500  228.0150 C   0  0  0  0  0  0  0  0  0  0  0  0
  140.2220   68.5340  229.0940 F   0  0  0  0  0  0  0  0  0  0  0  0
  140.9660   70.5520  228.2020 C   0  0  0  0  0  0  0  0  0  0  0  0
  141.0700   71.3880  227.1220 C   0  0  0  0  0  0  0  0  0  0  0  0
  140.5440   71.0390  225.8920 C   0  0  0  0  0  0  0  0  0  0  0  0
  140.6660   71.8880  224.8560 N   0  0  0  0  0  0  0  0  0  0  0  0
  138.5570   73.5990  222.9920 H   0  0  0  0  0  0  0  0  0  0  0  0
  140.0216   74.2081  220.4422 H   0  0  0  0  0  0  0  0  0  0  0  0
  138.4546   74.8780  220.9567 H   0  0  0  0  0  0  0  0  0  0  0  0
  137.5898   76.9416  221.0429 H   0  0  0  0  0  0  0  0  0  0  0  0
  137.5606   75.9578  222.5505 H   0  0  0  0  0  0  0  0  0  0  0  0
  136.2469   78.0323  222.7788 H   0  0  0  0  0  0  0  0  0  0  0  0
  137.6837   77.9884  223.8943 H   0  0  0  0  0  0  0  0  0  0  0  0
  137.0840   79.7723  221.5962 H   0  0  0  0  0  0  0  0  0  0  0  0
  137.9338   80.0949  223.1467 H   0  0  0  0  0  0  0  0  0  0  0  0
  139.0399   78.7622  220.6085 H   0  0  0  0  0  0  0  0  0  0  0  0
  139.7084   80.1493  221.4685 H   0  0  0  0  0  0  0  0  0  0  0  0
  139.8065   78.5511  223.5396 H   0  0  0  0  0  0  0  0  0  0  0  0
  141.8145   77.5585  223.1448 H   0  0  0  0  0  0  0  0  0  0  0  0
  141.7023   78.0315  221.3900 H   0  0  0  0  0  0  0  0  0  0  0  0
  139.1201   70.1813  222.4163 H   0  0  0  0  0  0  0  0  0  0  0  0
  138.8563   68.5623  224.2986 H   0  0  0  0  0  0  0  0  0  0  0  0
  139.2765   68.0243  226.6822 H   0  0  0  0  0  0  0  0  0  0  0  0
  141.3842   70.8290  229.1810 H   0  0  0  0  0  0  0  0  0  0  0  0
  141.5816   72.3552  227.2354 H   0  0  0  0  0  0  0  0  0  0  0  0
  1  2  2  0
  2  3  1  0
  3  4  1  0
  4  5  1  0
  5  6  2  0
  5  7  1  0
  7  8  1  0
  8  9  1  0
  9 10  1  0
 10 11  1  0
 11 12  1  0
 12 13  1  0
 13 14  1  0
 14 15  1  0
 14 16  1  0
 14 17  1  0
  2 18  1  0
 18 19  2  0
 19 20  1  0
 20 21  2  0
 21 22  1  0
 22 23  2  0
 23 24  1  0
 23 25  1  0
 25 26  2  0
 26 27  1  0
 27 28  2  0
 12  7  1  0
 28 18  1  0
 27 21  1  0
  3 29  1  0
  4 30  1  0
  4 31  1  0
  8 32  1  0
  8 33  1  0
  9 34  1  0
  9 35  1  0
 10 36  1  0
 10 37  1  0
 11 38  1  0
 11 39  1  0
 12 40  1  1
 13 41  1  0
 13 42  1  0
 19 43  1  0
 20 44  1  0
 22 45  1  0
 25 46  1  0
 26 47  1  0
M  END
>  <smiles>  (34) 
O=C(NCC(=O)N1CCCCC1CC(F)(F)F)c1ccc2cc(F)ccc2n1

>  <score_type>  (34) 
oracle

>  <origin>  (34) 
autodockgpu

>  <m_score__min__energy>  (34) 
-7.2599999999999998

>  <m_primary>  (34) 
energy

>  <rmsd>  (34) 
3.038289628971905

>  <m_score__min__rmsd>  (34) 
3.038289628971905

>  <meeko>  (34) 
{"free_energy": -7.26, "intermolecular_energy": -9.05, "internal_energy": -0.81, "cluster_size": 24, "cluster_id": 1, "rank_in_cluster": 1}

>  <energy>  (34) 
-7.08

>  <cluster_rmsd>  (34) 
0.08

>  <cluster>  (34) 
3

$$$$

     RDKit          3D

 47 49  0  0  0  0  0  0  0  0999 V2000
  141.1430   71.7600  221.2650 O   0  0  0  0  0  0  0  0  0  0  0  0
  140.5010   72.2370  222.2280 C   0  0  0  0  0  0  0  0  0  0  0  0
  140.0140   73.5510  222.2390 N   0  0  0  0  0  0  0  0  0  0  0  0
  140.1970   74.4820  221.1530 C   0  0  0  0  0  0  0  0  0  0  0  0
  139.8150   75.8470  221.6670 C   0  0  0  0  0  0  0  0  0  0  0  0
  139.2610   75.8750  222.7770 O   0  0  0  0  0  0  0  0  0  0  0  0
  140.1230   76.9380  220.8380 N   0  0  0  0  0  0  0  0  0  0  0  0
  139.8530   76.9230  219.3890 C   0  0  0  0  0  0  0  0  0  0  0  0
  139.8310   78.3370  218.8520 C   0  0  0  0  0  0  0  0  0  0  0  0
  141.1180   79.0640  219.0990 C   0  0  0  0  0  0  0  0  0  0  0  0
  141.8320   78.4520  220.3240 C   0  0  0  0  0  0  0  0  0  0  0  0
  140.7410   78.1920  221.3180 C   0  0  2  0  0  0  0  0  0  0  0  0
  141.1050   78.1310  222.7420 C   0  0  0  0  0  0  0  0  0  0  0  0
  141.9220   79.3120  223.1830 C   0  0  0  0  0  0  0  0  0  0  0  0
  143.2050   79.3300  222.7230 F   0  0  0  0  0  0  0  0  0  0  0  0
  141.9790   79.3400  224.5770 F   0  0  0  0  0  0  0  0  0  0  0  0
  141.2770   80.4700  222.7670 F   0  0  0  0  0  0  0  0  0  0  0  0
  140.2580   71.3600  223.3930 C   0  0  0  0  0  0  0  0  0  0  0  0
  139.5960   70.1580  223.2590 C   0  0  0  0  0  0  0  0  0  0  0  0
  139.3840   69.3560  224.3750 C   0  0  0  0  0  0  0  0  0  0  0  0
  139.8440   69.7800  225.6140 C   0  0  0  0  0  0  0  0  0  0  0  0
  139.6710   69.0400  226.7660 C   0  0  0  0  0  0  0  0  0  0  0  0
  140.1460   69.5020  227.9750 C   0  0  0  0  0  0  0  0  0  0  0  0
  139.9860   68.7890  229.1180 F   0  0  0  0  0  0  0  0  0  0  0  0
  140.8060   70.7080  228.0850 C   0  0  0  0  0  0  0  0  0  0  0  0
  140.9760   71.4400  226.9400 C   0  0  0  0  0  0  0  0  0  0  0  0
  140.5050   70.9870  225.7220 C   0  0  0  0  0  0  0  0  0  0  0  0
  140.6910   71.7360  224.6210 N   0  0  0  0  0  0  0  0  0  0  0  0
  139.4850   73.8620  223.0960 H   0  0  0  0  0  0  0  0  0  0  0  0
  141.2483   74.4817  220.8294 H   0  0  0  0  0  0  0  0  0  0  0  0
  139.5757   74.2019  220.2896 H   0  0  0  0  0  0  0  0  0  0  0  0
  140.6414   76.3513  218.8775 H   0  0  0  0  0  0  0  0  0  0  0  0
  138.8748   76.4532  219.2089 H   0  0  0  0  0  0  0  0  0  0  0  0
  139.6491   78.2999  217.7678 H   0  0  0  0  0  0  0  0  0  0  0  0
  139.0328   78.8820  219.3772 H   0  0  0  0  0  0  0  0  0  0  0  0
  141.7655   78.9728  218.2145 H   0  0  0  0  0  0  0  0  0  0  0  0
  140.9063   80.1260  219.2925 H   0  0  0  0  0  0  0  0  0  0  0  0
  142.3363   77.5139  220.0490 H   0  0  0  0  0  0  0  0  0  0  0  0
  142.6078   79.1198  220.7268 H   0  0  0  0  0  0  0  0  0  0  0  0
  140.0657   79.0600  221.3422 H   0  0  0  0  0  0  0  0  0  0  0  0
  140.1823   78.0985  223.3399 H   0  0  0  0  0  0  0  0  0  0  0  0
  141.7177   77.2295  222.8898 H   0  0  0  0  0  0  0  0  0  0  0  0
  139.2363   69.8341  222.2712 H   0  0  0  0  0  0  0  0  0  0  0  0
  138.8571   68.3954  224.2769 H   0  0  0  0  0  0  0  0  0  0  0  0
  139.1494   68.0727  226.7192 H   0  0  0  0  0  0  0  0  0  0  0  0
  141.1812   71.0679  229.0544 H   0  0  0  0  0  0  0  0  0  0  0  0
  141.4975   72.4072  226.9907 H   0  0  0  0  0  0  0  0  0  0  0  0
  1  2  2  0
  2  3  1  0
  3  4  1  0
  4  5  1  0
  5  6  2  0
  5  7  1  0
  7  8  1  0
  8  9  1  0
  9 10  1  0
 10 11  1  0
 11 12  1  0
 12 13  1  0
 13 14  1  0
 14 15  1  0
 14 16  1  0
 14 17  1  0
  2 18  1  0
 18 19  2  0
 19 20  1  0
 20 21  2  0
 21 22  1  0
 22 23  2  0
 23 24  1  0
 23 25  1  0
 25 26  2  0
 26 27  1  0
 27 28  2  0
 12  7  1  0
 28 18  1  0
 27 21  1  0
  3 29  1  0
  4 30  1  0
  4 31  1  0
  8 32  1  0
  8 33  1  0
  9 34  1  0
  9 35  1  0
 10 36  1  0
 10 37  1  0
 11 38  1  0
 11 39  1  0
 12 40  1  1
 13 41  1  0
 13 42  1  0
 19 43  1  0
 20 44  1  0
 22 45  1  0
 25 46  1  0
 26 47  1  0
M  END
>  <smiles>  (35) 
O=C(NCC(=O)N1CCCCC1CC(F)(F)F)c1ccc2cc(F)ccc2n1

>  <score_type>  (35) 
oracle

>  <origin>  (35) 
autodockgpu

>  <m_score__min__energy>  (35) 
-7.2599999999999998

>  <m_primary>  (35) 
energy

>  <rmsd>  (35) 
2.2360269347693214

>  <m_score__min__rmsd>  (35) 
2.2360269347693214

>  <meeko>  (35) 
{"free_energy": -6.8, "intermolecular_energy": -8.59, "internal_energy": -1.58, "cluster_size": 24, "cluster_id": 1, "rank_in_cluster": 14}

>  <energy>  (35) 
-6.97

>  <cluster_rmsd>  (35) 
1.95

>  <cluster>  (35) 
3

$$$$

     RDKit          3D

 47 49  0  0  0  0  0  0  0  0999 V2000
  141.3840   72.1180  221.5370 O   0  0  0  0  0  0  0  0  0  0  0  0
  140.5010   72.4470  222.3600 C   0  0  0  0  0  0  0  0  0  0  0  0
  139.7580   73.6300  222.2450 N   0  0  0  0  0  0  0  0  0  0  0  0
  139.9290   74.5830  221.1770 C   0  0  0  0  0  0  0  0  0  0  0  0
  139.5040   75.9280  221.7070 C   0  0  0  0  0  0  0  0  0  0  0  0
  138.8370   75.9150  222.7530 O   0  0  0  0  0  0  0  0  0  0  0  0
  139.9060   77.0510  220.9640 N   0  0  0  0  0  0  0  0  0  0  0  0
  139.4740   77.2640  219.5710 C   0  0  0  0  0  0  0  0  0  0  0  0
  139.6430   78.7180  219.1940 C   0  0  0  0  0  0  0  0  0  0  0  0
  141.0580   79.1880  219.3400 C   0  0  0  0  0  0  0  0  0  0  0  0
  141.7870   78.3170  220.3870 C   0  0  0  0  0  0  0  0  0  0  0  0
  140.7880   78.1160  221.4860 C   0  0  2  0  0  0  0  0  0  0  0  0
  141.2960   77.8150  222.8330 C   0  0  0  0  0  0  0  0  0  0  0  0
  141.5890   79.0530  223.6320 C   0  0  0  0  0  0  0  0  0  0  0  0
  142.6680   79.7710  223.2070 F   0  0  0  0  0  0  0  0  0  0  0  0
  141.8210   78.7010  224.9620 F   0  0  0  0  0  0  0  0  0  0  0  0
  140.4650   79.8690  223.6040 F   0  0  0  0  0  0  0  0  0  0  0  0
  140.2470   71.5340  223.4950 C   0  0  0  0  0  0  0  0  0  0  0  0
  139.5470   70.3580  223.3260 C   0  0  0  0  0  0  0  0  0  0  0  0
  139.3250   69.5200  224.4140 C   0  0  0  0  0  0  0  0  0  0  0  0
  139.8140   69.8840  225.6610 C   0  0  0  0  0  0  0  0  0  0  0  0
  139.6340   69.1060  226.7870 C   0  0  0  0  0  0  0  0  0  0  0  0
  140.1380   69.5080  228.0060 C   0  0  0  0  0  0  0  0  0  0  0  0
  139.9710   68.7580  229.1230 F   0  0  0  0  0  0  0  0  0  0  0  0
  140.8340   70.6890  228.1520 C   0  0  0  0  0  0  0  0  0  0  0  0
  141.0120   71.4590  227.0320 C   0  0  0  0  0  0  0  0  0  0  0  0
  140.5110   71.0660  225.8050 C   0  0  0  0  0  0  0  0  0  0  0  0
  140.7060   71.8510  224.7300 N   0  0  0  0  0  0  0  0  0  0  0  0
  139.0350   73.8200  222.9890 H   0  0  0  0  0  0  0  0  0  0  0  0
  140.9839   74.6163  220.8671 H   0  0  0  0  0  0  0  0  0  0  0  0
  139.3261   74.3003  220.3014 H   0  0  0  0  0  0  0  0  0  0  0  0
  140.0843   76.6406  218.9010 H   0  0  0  0  0  0  0  0  0  0  0  0
  138.4137   76.9870  219.4754 H   0  0  0  0  0  0  0  0  0  0  0  0
  139.3341   78.8490  218.1464 H   0  0  0  0  0  0  0  0  0  0  0  0
  139.0205   79.3148  219.8769 H   0  0  0  0  0  0  0  0  0  0  0  0
  141.5733   79.1049  218.3717 H   0  0  0  0  0  0  0  0  0  0  0  0
  141.0626   80.2373  219.6702 H   0  0  0  0  0  0  0  0  0  0  0  0
  142.0807   77.3513  219.9498 H   0  0  0  0  0  0  0  0  0  0  0  0
  142.7106   78.7920  220.7494 H   0  0  0  0  0  0  0  0  0  0  0  0
  140.2858   79.0727  221.6923 H   0  0  0  0  0  0  0  0  0  0  0  0
  140.5415   77.2206  223.3690 H   0  0  0  0  0  0  0  0  0  0  0  0
  142.2406   77.2635  222.7164 H   0  0  0  0  0  0  0  0  0  0  0  0
  139.1646   70.0828  222.3320 H   0  0  0  0  0  0  0  0  0  0  0  0
  138.7683   68.5797  224.2875 H   0  0  0  0  0  0  0  0  0  0  0  0
  139.0835   68.1567  226.7112 H   0  0  0  0  0  0  0  0  0  0  0  0
  141.2310   71.0013  229.1292 H   0  0  0  0  0  0  0  0  0  0  0  0
  141.5638   72.4073  227.1111 H   0  0  0  0  0  0  0  0  0  0  0  0
  1  2  2  0
  2  3  1  0
  3  4  1  0
  4  5  1  0
  5  6  2  0
  5  7  1  0
  7  8  1  0
  8  9  1  0
  9 10  1  0
 10 11  1  0
 11 12  1  0
 12 13  1  0
 13 14  1  0
 14 15  1  0
 14 16  1  0
 14 17  1  0
  2 18  1  0
 18 19  2  0
 19 20  1  0
 20 21  2  0
 21 22  1  0
 22 23  2  0
 23 24  1  0
 23 25  1  0
 25 26  2  0
 26 27  1  0
 27 28  2  0
 12  7  1  0
 28 18  1  0
 27 21  1  0
  3 29  1  0
  4 30  1  0
  4 31  1  0
  8 32  1  0
  8 33  1  0
  9 34  1  0
  9 35  1  0
 10 36  1  0
 10 37  1  0
 11 38  1  0
 11 39  1  0
 12 40  1  1
 13 41  1  0
 13 42  1  0
 19 43  1  0
 20 44  1  0
 22 45  1  0
 25 46  1  0
 26 47  1  0
M  END
>  <smiles>  (36) 
O=C(NCC(=O)N1CCCCC1CC(F)(F)F)c1ccc2cc(F)ccc2n1

>  <score_type>  (36) 
oracle

>  <origin>  (36) 
autodockgpu

>  <m_score__min__energy>  (36) 
-7.2599999999999998

>  <m_primary>  (36) 
energy

>  <rmsd>  (36) 
2.332707011351044

>  <m_score__min__rmsd>  (36) 
2.332707011351044

>  <meeko>  (36) 
{"free_energy": -6.81, "intermolecular_energy": -8.6, "internal_energy": -1.59, "cluster_size": 24, "cluster_id": 1, "rank_in_cluster": 11}

>  <energy>  (36) 
-6.77

>  <cluster_rmsd>  (36) 
1.81

>  <cluster>  (36) 
3

$$$$

     RDKit          3D

 47 49  0  0  0  0  0  0  0  0999 V2000
  138.3050   71.0530  221.5740 O   0  0  0  0  0  0  0  0  0  0  0  0
  138.9250   71.5330  222.5490 C   0  0  0  0  0  0  0  0  0  0  0  0
  139.3390   72.8710  222.6010 N   0  0  0  0  0  0  0  0  0  0  0  0
  139.0960   73.8260  221.5490 C   0  0  0  0  0  0  0  0  0  0  0  0
  139.7690   75.1130  221.9510 C   0  0  0  0  0  0  0  0  0  0  0  0
  140.9990   75.0580  222.1090 O   0  0  0  0  0  0  0  0  0  0  0  0
  138.9380   76.2350  222.1050 N   0  0  0  0  0  0  0  0  0  0  0  0
  137.4680   76.1300  222.0860 C   0  0  0  0  0  0  0  0  0  0  0  0
  136.8540   77.3520  222.7310 C   0  0  0  0  0  0  0  0  0  0  0  0
  137.2580   78.6240  222.0510 C   0  0  0  0  0  0  0  0  0  0  0  0
  138.6140   78.4230  221.3400 C   0  0  0  0  0  0  0  0  0  0  0  0
  139.4360   77.6130  222.2960 C   0  0  2  0  0  0  0  0  0  0  0  0
  140.9000   77.7020  222.1920 C   0  0  0  0  0  0  0  0  0  0  0  0
  141.5000   78.6250  223.2140 C   0  0  0  0  0  0  0  0  0  0  0  0
  142.1660   78.0050  224.2300 F   0  0  0  0  0  0  0  0  0  0  0  0
  140.4910   79.3980  223.7880 F   0  0  0  0  0  0  0  0  0  0  0  0
  142.3730   79.4890  222.5640 F   0  0  0  0  0  0  0  0  0  0  0  0
  139.2230   70.6330  223.6840 C   0  0  0  0  0  0  0  0  0  0  0  0
  138.8950   69.2950  223.6430 C   0  0  0  0  0  0  0  0  0  0  0  0
  139.1900   68.4750  224.7260 C   0  0  0  0  0  0  0  0  0  0  0  0
  139.8140   69.0190  225.8400 C   0  0  0  0  0  0  0  0  0  0  0  0
  140.1380   68.2710  226.9530 C   0  0  0  0  0  0  0  0  0  0  0  0
  140.7590   68.8560  228.0370 C   0  0  0  0  0  0  0  0  0  0  0  0
  141.0850   68.1370  229.1390 F   0  0  0  0  0  0  0  0  0  0  0  0
  141.0780   70.1970  228.0560 C   0  0  0  0  0  0  0  0  0  0  0  0
  140.7550   70.9380  226.9490 C   0  0  0  0  0  0  0  0  0  0  0  0
  140.1330   70.3630  225.8580 C   0  0  0  0  0  0  0  0  0  0  0  0
  139.8320   71.1250  224.7910 N   0  0  0  0  0  0  0  0  0  0  0  0
  139.8560   73.1830  223.4660 H   0  0  0  0  0  0  0  0  0  0  0  0
  139.5190   73.4593  220.6021 H   0  0  0  0  0  0  0  0  0  0  0  0
  138.0166   73.9791  221.4024 H   0  0  0  0  0  0  0  0  0  0  0  0
  137.1216   76.0548  221.0447 H   0  0  0  0  0  0  0  0  0  0  0  0
  137.1627   75.2340  222.6463 H   0  0  0  0  0  0  0  0  0  0  0  0
  135.7586   77.2612  222.6872 H   0  0  0  0  0  0  0  0  0  0  0  0
  137.2149   77.3989  223.7690 H   0  0  0  0  0  0  0  0  0  0  0  0
  136.4938   78.9018  221.3102 H   0  0  0  0  0  0  0  0  0  0  0  0
  137.3531   79.4243  222.7996 H   0  0  0  0  0  0  0  0  0  0  0  0
  138.4773   77.8814  220.3924 H   0  0  0  0  0  0  0  0  0  0  0  0
  139.0951   79.3798  221.0889 H   0  0  0  0  0  0  0  0  0  0  0  0
  139.3026   78.0147  223.3113 H   0  0  0  0  0  0  0  0  0  0  0  0
  141.3243   76.6971  222.3336 H   0  0  0  0  0  0  0  0  0  0  0  0
  141.1378   78.1084  221.1979 H   0  0  0  0  0  0  0  0  0  0  0  0
  138.4003   68.8764  222.7542 H   0  0  0  0  0  0  0  0  0  0  0  0
  138.9316   67.4061  224.7004 H   0  0  0  0  0  0  0  0  0  0  0  0
  139.8988   67.1976  226.9763 H   0  0  0  0  0  0  0  0  0  0  0  0
  141.5725   70.6545  228.9256 H   0  0  0  0  0  0  0  0  0  0  0  0
  140.9958   72.0111  226.9291 H   0  0  0  0  0  0  0  0  0  0  0  0
  1  2  2  0
  2  3  1  0
  3  4  1  0
  4  5  1  0
  5  6  2  0
  5  7  1  0
  7  8  1  0
  8  9  1  0
  9 10  1  0
 10 11  1  0
 11 12  1  0
 12 13  1  0
 13 14  1  0
 14 15  1  0
 14 16  1  0
 14 17  1  0
  2 18  1  0
 18 19  2  0
 19 20  1  0
 20 21  2  0
 21 22  1  0
 22 23  2  0
 23 24  1  0
 23 25  1  0
 25 26  2  0
 26 27  1  0
 27 28  2  0
 12  7  1  0
 28 18  1  0
 27 21  1  0
  3 29  1  0
  4 30  1  0
  4 31  1  0
  8 32  1  0
  8 33  1  0
  9 34  1  0
  9 35  1  0
 10 36  1  0
 10 37  1  0
 11 38  1  0
 11 39  1  0
 12 40  1  1
 13 41  1  0
 13 42  1  0
 19 43  1  0
 20 44  1  0
 22 45  1  0
 25 46  1  0
 26 47  1  0
M  END
>  <smiles>  (37) 
O=C(NCC(=O)N1CCCCC1CC(F)(F)F)c1ccc2cc(F)ccc2n1

>  <score_type>  (37) 
oracle

>  <origin>  (37) 
autodockgpu

>  <m_score__min__energy>  (37) 
-7.2599999999999998

>  <m_primary>  (37) 
energy

>  <rmsd>  (37) 
2.801400665275651

>  <m_score__min__rmsd>  (37) 
2.801400665275651

>  <meeko>  (37) 
{"free_energy": -6.75, "intermolecular_energy": -8.54, "internal_energy": -1.32, "cluster_size": 24, "cluster_id": 1, "rank_in_cluster": 17}

>  <energy>  (37) 
-6.76

>  <cluster_rmsd>  (37) 
0.47

>  <cluster>  (37) 
3

$$$$

     RDKit          3D

 47 49  0  0  0  0  0  0  0  0999 V2000
  140.1260   71.2950  220.8740 O   0  0  0  0  0  0  0  0  0  0  0  0
  139.9810   71.9300  221.9420 C   0  0  0  0  0  0  0  0  0  0  0  0
  139.9420   73.3310  221.9940 N   0  0  0  0  0  0  0  0  0  0  0  0
  140.0630   74.1780  220.8340 C   0  0  0  0  0  0  0  0  0  0  0  0
  141.0330   75.2780  221.1840 C   0  0  0  0  0  0  0  0  0  0  0  0
  141.0400   75.6410  222.3700 O   0  0  0  0  0  0  0  0  0  0  0  0
  141.8230   75.7740  220.1340 N   0  0  0  0  0  0  0  0  0  0  0  0
  141.4340   76.9620  219.3530 C   0  0  0  0  0  0  0  0  0  0  0  0
  142.6420   77.5350  218.6470 C   0  0  0  0  0  0  0  0  0  0  0  0
  143.2950   76.5450  217.7310 C   0  0  0  0  0  0  0  0  0  0  0  0
  142.9840   75.1110  218.2130 C   0  0  0  0  0  0  0  0  0  0  0  0
  143.1030   75.1710  219.7060 C   0  0  2  0  0  0  0  0  0  0  0  0
  143.4040   73.9230  220.4240 C   0  0  0  0  0  0  0  0  0  0  0  0
  144.8790   73.6860  220.5830 C   0  0  0  0  0  0  0  0  0  0  0  0
  145.2210   72.8360  221.5930 F   0  0  0  0  0  0  0  0  0  0  0  0
  145.5190   74.9020  220.8270 F   0  0  0  0  0  0  0  0  0  0  0  0
  145.3730   73.1850  219.3850 F   0  0  0  0  0  0  0  0  0  0  0  0
  139.8470   71.1510  223.1910 C   0  0  0  0  0  0  0  0  0  0  0  0
  139.2680   69.9000  223.1970 C   0  0  0  0  0  0  0  0  0  0  0  0
  139.1580   69.1920  224.3890 C   0  0  0  0  0  0  0  0  0  0  0  0
  139.6350   69.7600  225.5630 C   0  0  0  0  0  0  0  0  0  0  0  0
  139.5600   69.1200  226.7830 C   0  0  0  0  0  0  0  0  0  0  0  0
  140.0480   69.7240  227.9230 C   0  0  0  0  0  0  0  0  0  0  0  0
  139.9830   69.1120  229.1310 F   0  0  0  0  0  0  0  0  0  0  0  0
  140.6230   70.9770  227.8940 C   0  0  0  0  0  0  0  0  0  0  0  0
  140.6950   71.6100  226.6810 C   0  0  0  0  0  0  0  0  0  0  0  0
  140.2100   71.0140  225.5320 C   0  0  0  0  0  0  0  0  0  0  0  0
  140.3000   71.6690  224.3600 N   0  0  0  0  0  0  0  0  0  0  0  0
  139.8170   73.7750  222.9420 H   0  0  0  0  0  0  0  0  0  0  0  0
  140.4439   73.5969  219.9812 H   0  0  0  0  0  0  0  0  0  0  0  0
  139.0851   74.5951  220.5515 H   0  0  0  0  0  0  0  0  0  0  0  0
  140.6778   76.6760  218.6071 H   0  0  0  0  0  0  0  0  0  0  0  0
  141.0192   77.7210  220.0326 H   0  0  0  0  0  0  0  0  0  0  0  0
  142.3245   78.4065  218.0557 H   0  0  0  0  0  0  0  0  0  0  0  0
  143.3773   77.8140  219.4161 H   0  0  0  0  0  0  0  0  0  0  0  0
  142.9083   76.6802  216.7101 H   0  0  0  0  0  0  0  0  0  0  0  0
  144.3834   76.7045  217.7362 H   0  0  0  0  0  0  0  0  0  0  0  0
  141.9664   74.8157  217.9175 H   0  0  0  0  0  0  0  0  0  0  0  0
  143.6667   74.3693  217.7729 H   0  0  0  0  0  0  0  0  0  0  0  0
  143.9988   75.7522  219.9701 H   0  0  0  0  0  0  0  0  0  0  0  0
  142.9460   73.9726  221.4229 H   0  0  0  0  0  0  0  0  0  0  0  0
  142.9964   73.0917  219.8300 H   0  0  0  0  0  0  0  0  0  0  0  0
  138.8934   69.4622  222.2600 H   0  0  0  0  0  0  0  0  0  0  0  0
  138.6981   68.1928  224.4017 H   0  0  0  0  0  0  0  0  0  0  0  0
  139.1072   68.1196  226.8471 H   0  0  0  0  0  0  0  0  0  0  0  0
  141.0089   71.4499  228.8091 H   0  0  0  0  0  0  0  0  0  0  0  0
  141.1471   72.6110  226.6204 H   0  0  0  0  0  0  0  0  0  0  0  0
  1  2  2  0
  2  3  1  0
  3  4  1  0
  4  5  1  0
  5  6  2  0
  5  7  1  0
  7  8  1  0
  8  9  1  0
  9 10  1  0
 10 11  1  0
 11 12  1  0
 12 13  1  0
 13 14  1  0
 14 15  1  0
 14 16  1  0
 14 17  1  0
  2 18  1  0
 18 19  2  0
 19 20  1  0
 20 21  2  0
 21 22  1  0
 22 23  2  0
 23 24  1  0
 23 25  1  0
 25 26  2  0
 26 27  1  0
 27 28  2  0
 12  7  1  0
 28 18  1  0
 27 21  1  0
  3 29  1  0
  4 30  1  0
  4 31  1  0
  8 32  1  0
  8 33  1  0
  9 34  1  0
  9 35  1  0
 10 36  1  0
 10 37  1  0
 11 38  1  0
 11 39  1  0
 12 40  1  6
 13 41  1  0
 13 42  1  0
 19 43  1  0
 20 44  1  0
 22 45  1  0
 25 46  1  0
 26 47  1  0
M  END
>  <smiles>  (38) 
O=C(NCC(=O)N1CCCCC1CC(F)(F)F)c1ccc2cc(F)ccc2n1

>  <score_type>  (38) 
oracle

>  <origin>  (38) 
autodockgpu

>  <m_score__min__energy>  (38) 
-7.2599999999999998

>  <m_primary>  (38) 
energy

>  <rmsd>  (38) 
2.3197418742136384

>  <m_score__min__rmsd>  (38) 
2.3197418742136384

>  <meeko>  (38) 
{"free_energy": -6.67, "intermolecular_energy": -8.46, "internal_energy": -1.75, "cluster_size": 15, "cluster_id": 3, "rank_in_cluster": 13}

>  <energy>  (38) 
-6.76

>  <cluster_rmsd>  (38) 
1.81

>  <cluster>  (38) 
3

$$$$

     RDKit          3D

 47 49  0  0  0  0  0  0  0  0999 V2000
  141.2320   71.9850  221.3450 O   0  0  0  0  0  0  0  0  0  0  0  0
  140.5070   72.4200  222.2680 C   0  0  0  0  0  0  0  0  0  0  0  0
  139.9410   73.7020  222.2480 N   0  0  0  0  0  0  0  0  0  0  0  0
  140.1290   74.6440  221.1730 C   0  0  0  0  0  0  0  0  0  0  0  0
  139.4060   75.9100  221.5580 C   0  0  0  0  0  0  0  0  0  0  0  0
  138.5740   75.8050  222.4720 O   0  0  0  0  0  0  0  0  0  0  0  0
  139.7490   77.0700  220.8430 N   0  0  0  0  0  0  0  0  0  0  0  0
  139.2950   77.3010  219.4600 C   0  0  0  0  0  0  0  0  0  0  0  0
  139.3940   78.7720  219.1230 C   0  0  0  0  0  0  0  0  0  0  0  0
  140.7870   79.3020  219.2710 C   0  0  0  0  0  0  0  0  0  0  0  0
  141.5650   78.4370  220.2870 C   0  0  0  0  0  0  0  0  0  0  0  0
  140.5860   78.1590  221.3870 C   0  0  2  0  0  0  0  0  0  0  0  0
  141.1200   77.8460  222.7220 C   0  0  0  0  0  0  0  0  0  0  0  0
  141.4450   79.0750  223.5210 C   0  0  0  0  0  0  0  0  0  0  0  0
  141.8130   78.8420  224.8130 F   0  0  0  0  0  0  0  0  0  0  0  0
  140.3310   79.9160  223.5510 F   0  0  0  0  0  0  0  0  0  0  0  0
  142.4680   79.7580  222.8760 F   0  0  0  0  0  0  0  0  0  0  0  0
  140.2510   71.5280  223.4190 C   0  0  0  0  0  0  0  0  0  0  0  0
  139.5750   70.3360  223.2650 C   0  0  0  0  0  0  0  0  0  0  0  0
  139.3500   69.5190  224.3680 C   0  0  0  0  0  0  0  0  0  0  0  0
  139.8130   69.9180  225.6140 C   0  0  0  0  0  0  0  0  0  0  0  0
  139.6280   69.1630  226.7540 C   0  0  0  0  0  0  0  0  0  0  0  0
  140.1060   69.6000  227.9720 C   0  0  0  0  0  0  0  0  0  0  0  0
  139.9340   68.8720  229.1020 F   0  0  0  0  0  0  0  0  0  0  0  0
  140.7800   70.7960  228.1020 C   0  0  0  0  0  0  0  0  0  0  0  0
  140.9610   71.5440  226.9680 C   0  0  0  0  0  0  0  0  0  0  0  0
  140.4870   71.1160  225.7430 C   0  0  0  0  0  0  0  0  0  0  0  0
  140.6860   71.8800  224.6540 N   0  0  0  0  0  0  0  0  0  0  0  0
  139.3440   73.9790  223.0720 H   0  0  0  0  0  0  0  0  0  0  0  0
  141.2008   74.8492  221.0349 H   0  0  0  0  0  0  0  0  0  0  0  0
  139.7355   74.2416  220.2279 H   0  0  0  0  0  0  0  0  0  0  0  0
  139.9271   76.7252  218.7680 H   0  0  0  0  0  0  0  0  0  0  0  0
  138.2478   76.9780  219.3646 H   0  0  0  0  0  0  0  0  0  0  0  0
  139.0698   78.9180  218.0820 H   0  0  0  0  0  0  0  0  0  0  0  0
  138.7513   79.3202  219.8275 H   0  0  0  0  0  0  0  0  0  0  0  0
  141.2965   79.2696  218.2966 H   0  0  0  0  0  0  0  0  0  0  0  0
  140.7465   80.3407  219.6308 H   0  0  0  0  0  0  0  0  0  0  0  0
  141.8994   77.4987  219.8203 H   0  0  0  0  0  0  0  0  0  0  0  0
  142.4689   78.9440  220.6557 H   0  0  0  0  0  0  0  0  0  0  0  0
  140.0413   79.0850  221.6233 H   0  0  0  0  0  0  0  0  0  0  0  0
  140.3704   77.2576  223.2714 H   0  0  0  0  0  0  0  0  0  0  0  0
  142.0557   77.2851  222.5815 H   0  0  0  0  0  0  0  0  0  0  0  0
  139.2142   70.0317  222.2714 H   0  0  0  0  0  0  0  0  0  0  0  0
  138.8109   68.5669  224.2539 H   0  0  0  0  0  0  0  0  0  0  0  0
  139.0942   68.2033  226.6910 H   0  0  0  0  0  0  0  0  0  0  0  0
  141.1575   71.1363  229.0775 H   0  0  0  0  0  0  0  0  0  0  0  0
  141.4941   72.5039  227.0345 H   0  0  0  0  0  0  0  0  0  0  0  0
  1  2  2  0
  2  3  1  0
  3  4  1  0
  4  5  1  0
  5  6  2  0
  5  7  1  0
  7  8  1  0
  8  9  1  0
  9 10  1  0
 10 11  1  0
 11 12  1  0
 12 13  1  0
 13 14  1  0
 14 15  1  0
 14 16  1  0
 14 17  1  0
  2 18  1  0
 18 19  2  0
 19 20  1  0
 20 21  2  0
 21 22  1  0
 22 23  2  0
 23 24  1  0
 23 25  1  0
 25 26  2  0
 26 27  1  0
 27 28  2  0
 12  7  1  0
 28 18  1  0
 27 21  1  0
  3 29  1  0
  4 30  1  0
  4 31  1  0
  8 32  1  0
  8 33  1  0
  9 34  1  0
  9 35  1  0
 10 36  1  0
 10 37  1  0
 11 38  1  0
 11 39  1  0
 12 40  1  1
 13 41  1  0
 13 42  1  0
 19 43  1  0
 20 44  1  0
 22 45  1  0
 25 46  1  0
 26 47  1  0
M  END
>  <smiles>  (39) 
O=C(NCC(=O)N1CCCCC1CC(F)(F)F)c1ccc2cc(F)ccc2n1

>  <score_type>  (39) 
oracle

>  <origin>  (39) 
autodockgpu

>  <m_score__min__energy>  (39) 
-7.2599999999999998

>  <m_primary>  (39) 
energy

>  <rmsd>  (39) 
2.350394452212165

>  <m_score__min__rmsd>  (39) 
2.350394452212165

>  <meeko>  (39) 
{"free_energy": -6.64, "intermolecular_energy": -8.43, "internal_energy": -1.61, "cluster_size": 24, "cluster_id": 1, "rank_in_cluster": 23}

>  <energy>  (39) 
-6.75

>  <cluster_rmsd>  (39) 
0.6

>  <cluster>  (39) 
3

$$$$

     RDKit          3D

 47 49  0  0  0  0  0  0  0  0999 V2000
  140.9150   72.6160  221.0800 O   0  0  0  0  0  0  0  0  0  0  0  0
  140.2730   72.9040  222.1140 C   0  0  0  0  0  0  0  0  0  0  0  0
  139.7270   74.1760  222.3400 N   0  0  0  0  0  0  0  0  0  0  0  0
  139.8460   75.2740  221.4140 C   0  0  0  0  0  0  0  0  0  0  0  0
  139.5350   76.5370  222.1760 C   0  0  0  0  0  0  0  0  0  0  0  0
  138.6120   76.4610  223.0020 O   0  0  0  0  0  0  0  0  0  0  0  0
  140.3200   77.6620  221.8730 N   0  0  0  0  0  0  0  0  0  0  0  0
  141.4580   77.5950  220.9390 C   0  0  0  0  0  0  0  0  0  0  0  0
  141.8030   78.9820  220.4440 C   0  0  0  0  0  0  0  0  0  0  0  0
  142.1450   79.9210  221.5600 C   0  0  0  0  0  0  0  0  0  0  0  0
  141.4660   79.4460  222.8640 C   0  0  0  0  0  0  0  0  0  0  0  0
  140.0950   79.0050  222.4460 C   0  0  2  0  0  0  0  0  0  0  0  0
  139.0300   79.0130  223.4610 C   0  0  0  0  0  0  0  0  0  0  0  0
  138.3400   80.3420  223.5680 C   0  0  0  0  0  0  0  0  0  0  0  0
  139.0410   81.3980  223.0640 F   0  0  0  0  0  0  0  0  0  0  0  0
  138.0770   80.6200  224.9100 F   0  0  0  0  0  0  0  0  0  0  0  0
  137.1190   80.2570  222.9100 F   0  0  0  0  0  0  0  0  0  0  0  0
  140.0940   71.8440  223.1290 C   0  0  0  0  0  0  0  0  0  0  0  0
  139.5430   70.6240  222.8010 C   0  0  0  0  0  0  0  0  0  0  0  0
  139.3890   69.6470  223.7790 C   0  0  0  0  0  0  0  0  0  0  0  0
  139.7940   69.9170  225.0780 C   0  0  0  0  0  0  0  0  0  0  0  0
  139.6730   69.0000  226.1020 C   0  0  0  0  0  0  0  0  0  0  0  0
  140.0890   69.3140  227.3790 C   0  0  0  0  0  0  0  0  0  0  0  0
  139.9790   68.4260  228.3980 F   0  0  0  0  0  0  0  0  0  0  0  0
  140.6380   70.5420  227.6840 C   0  0  0  0  0  0  0  0  0  0  0  0
  140.7570   71.4500  226.6660 C   0  0  0  0  0  0  0  0  0  0  0  0
  140.3430   71.1470  225.3830 C   0  0  0  0  0  0  0  0  0  0  0  0
  140.4760   72.0670  224.4100 N   0  0  0  0  0  0  0  0  0  0  0  0
  139.2030   74.3220  223.2430 H   0  0  0  0  0  0  0  0  0  0  0  0
  140.8690   75.3187  221.0122 H   0  0  0  0  0  0  0  0  0  0  0  0
  139.1535   75.1480  220.5687 H   0  0  0  0  0  0  0  0  0  0  0  0
  142.3288   77.1656  221.4560 H   0  0  0  0  0  0  0  0  0  0  0  0
  141.1845   76.9630  220.0812 H   0  0  0  0  0  0  0  0  0  0  0  0
  142.6665   78.9100  219.7664 H   0  0  0  0  0  0  0  0  0  0  0  0
  140.9173   79.3831  219.9294 H   0  0  0  0  0  0  0  0  0  0  0  0
  143.2357   79.9399  221.7012 H   0  0  0  0  0  0  0  0  0  0  0  0
  141.7884   80.9310  221.3096 H   0  0  0  0  0  0  0  0  0  0  0  0
  142.0236   78.6081  223.3078 H   0  0  0  0  0  0  0  0  0  0  0  0
  141.4319   80.2387  223.6259 H   0  0  0  0  0  0  0  0  0  0  0  0
  139.6803   79.7426  221.7432 H   0  0  0  0  0  0  0  0  0  0  0  0
  138.2840   78.2499  223.1941 H   0  0  0  0  0  0  0  0  0  0  0  0
  139.4976   78.8027  224.4342 H   0  0  0  0  0  0  0  0  0  0  0  0
  139.2254   70.4232  221.7671 H   0  0  0  0  0  0  0  0  0  0  0  0
  138.9507   68.6706  223.5251 H   0  0  0  0  0  0  0  0  0  0  0  0
  139.2407   68.0093  225.8980 H   0  0  0  0  0  0  0  0  0  0  0  0
  140.9675   70.7826  228.7055 H   0  0  0  0  0  0  0  0  0  0  0  0
  141.1904   72.4395  226.8735 H   0  0  0  0  0  0  0  0  0  0  0  0
  1  2  2  0
  2  3  1  0
  3  4  1  0
  4  5  1  0
  5  6  2  0
  5  7  1  0
  7  8  1  0
  8  9  1  0
  9 10  1  0
 10 11  1  0
 11 12  1  0
 12 13  1  0
 13 14  1  0
 14 15  1  0
 14 16  1  0
 14 17  1  0
  2 18  1  0
 18 19  2  0
 19 20  1  0
 20 21  2  0
 21 22  1  0
 22 23  2  0
 23 24  1  0
 23 25  1  0
 25 26  2  0
 26 27  1  0
 27 28  2  0
 12  7  1  0
 28 18  1  0
 27 21  1  0
  3 29  1  0
  4 30  1  0
  4 31  1  0
  8 32  1  0
  8 33  1  0
  9 34  1  0
  9 35  1  0
 10 36  1  0
 10 37  1  0
 11 38  1  0
 11 39  1  0
 12 40  1  6
 13 41  1  0
 13 42  1  0
 19 43  1  0
 20 44  1  0
 22 45  1  0
 25 46  1  0
 26 47  1  0
M  END
>  <smiles>  (40) 
O=C(NCC(=O)N1CCCCC1CC(F)(F)F)c1ccc2cc(F)ccc2n1

>  <score_type>  (40) 
oracle

>  <origin>  (40) 
autodockgpu

>  <m_score__min__energy>  (40) 
-7.2599999999999998

>  <m_primary>  (40) 
energy

>  <rmsd>  (40) 
3.1304748454581452

>  <m_score__min__rmsd>  (40) 
3.1304748454581452

>  <meeko>  (40) 
{"free_energy": -6.84, "intermolecular_energy": -8.63, "internal_energy": -1.4, "cluster_size": 24, "cluster_id": 1, "rank_in_cluster": 6}

>  <energy>  (40) 
-6.75

>  <cluster_rmsd>  (40) 
0.6

>  <cluster>  (40) 
3

$$$$

     RDKit          3D

 47 49  0  0  0  0  0  0  0  0999 V2000
  141.3710   72.4360  221.5730 O   0  0  0  0  0  0  0  0  0  0  0  0
  140.4590   72.6670  222.3980 C   0  0  0  0  0  0  0  0  0  0  0  0
  139.6670   73.8230  222.3500 N   0  0  0  0  0  0  0  0  0  0  0  0
  139.8160   74.8550  221.3550 C   0  0  0  0  0  0  0  0  0  0  0  0
  139.3000   76.1360  221.9590 C   0  0  0  0  0  0  0  0  0  0  0  0
  138.2110   76.0600  222.5480 O   0  0  0  0  0  0  0  0  0  0  0  0
  140.1030   77.2770  221.7920 N   0  0  0  0  0  0  0  0  0  0  0  0
  141.3990   77.2280  221.0920 C   0  0  0  0  0  0  0  0  0  0  0  0
  141.8000   78.6170  220.6490 C   0  0  0  0  0  0  0  0  0  0  0  0
  141.9030   79.5770  221.7940 C   0  0  0  0  0  0  0  0  0  0  0  0
  140.9990   79.1010  222.9520 C   0  0  0  0  0  0  0  0  0  0  0  0
  139.7430   78.6210  222.2900 C   0  0  2  0  0  0  0  0  0  0  0  0
  138.5050   78.6140  223.0840 C   0  0  0  0  0  0  0  0  0  0  0  0
  138.0310   79.9950  223.4330 C   0  0  0  0  0  0  0  0  0  0  0  0
  138.2040   80.9290  222.4540 F   0  0  0  0  0  0  0  0  0  0  0  0
  138.7140   80.4480  224.5630 F   0  0  0  0  0  0  0  0  0  0  0  0
  136.6820   79.9270  223.7580 F   0  0  0  0  0  0  0  0  0  0  0  0
  140.2240   71.6670  223.4610 C   0  0  0  0  0  0  0  0  0  0  0  0
  139.5270   70.5040  223.2090 C   0  0  0  0  0  0  0  0  0  0  0  0
  139.3230   69.5830  224.2300 C   0  0  0  0  0  0  0  0  0  0  0  0
  139.8280   69.8490  225.4960 C   0  0  0  0  0  0  0  0  0  0  0  0
  139.6660   68.9850  226.5590 C   0  0  0  0  0  0  0  0  0  0  0  0
  140.1860   69.2920  227.7990 C   0  0  0  0  0  0  0  0  0  0  0  0
  140.0370   68.4550  228.8560 F   0  0  0  0  0  0  0  0  0  0  0  0
  140.8800   70.4610  228.0280 C   0  0  0  0  0  0  0  0  0  0  0  0
  141.0390   71.3170  226.9710 C   0  0  0  0  0  0  0  0  0  0  0  0
  140.5230   71.0200  225.7230 C   0  0  0  0  0  0  0  0  0  0  0  0
  140.7000   71.8880  224.7110 N   0  0  0  0  0  0  0  0  0  0  0  0
  138.9230   73.9290  223.0890 H   0  0  0  0  0  0  0  0  0  0  0  0
  140.8762   74.9667  221.0840 H   0  0  0  0  0  0  0  0  0  0  0  0
  139.2564   74.6009  220.4427 H   0  0  0  0  0  0  0  0  0  0  0  0
  142.1653   76.8269  221.7717 H   0  0  0  0  0  0  0  0  0  0  0  0
  141.3079   76.5793  220.2083 H   0  0  0  0  0  0  0  0  0  0  0  0
  142.7777   78.5590  220.1483 H   0  0  0  0  0  0  0  0  0  0  0  0
  141.0191   78.9896  219.9698 H   0  0  0  0  0  0  0  0  0  0  0  0
  142.9462   79.6241  222.1396 H   0  0  0  0  0  0  0  0  0  0  0  0
  141.5790   80.5751  221.4642 H   0  0  0  0  0  0  0  0  0  0  0  0
  141.4805   78.2827  223.5074 H   0  0  0  0  0  0  0  0  0  0  0  0
  140.8028   79.9022  223.6797 H   0  0  0  0  0  0  0  0  0  0  0  0
  139.4526   79.3399  221.5097 H   0  0  0  0  0  0  0  0  0  0  0  0
  137.7185   78.1082  222.5046 H   0  0  0  0  0  0  0  0  0  0  0  0
  138.7186   78.0886  224.0265 H   0  0  0  0  0  0  0  0  0  0  0  0
  139.1330   70.3054  222.2014 H   0  0  0  0  0  0  0  0  0  0  0  0
  138.7675   68.6534  224.0372 H   0  0  0  0  0  0  0  0  0  0  0  0
  139.1170   68.0425  226.4164 H   0  0  0  0  0  0  0  0  0  0  0  0
  141.2900   70.6969  229.0211 H   0  0  0  0  0  0  0  0  0  0  0  0
  141.5878   72.2590  227.1176 H   0  0  0  0  0  0  0  0  0  0  0  0
  1  2  2  0
  2  3  1  0
  3  4  1  0
  4  5  1  0
  5  6  2  0
  5  7  1  0
  7  8  1  0
  8  9  1  0
  9 10  1  0
 10 11  1  0
 11 12  1  0
 12 13  1  0
 13 14  1  0
 14 15  1  0
 14 16  1  0
 14 17  1  0
  2 18  1  0
 18 19  2  0
 19 20  1  0
 20 21  2  0
 21 22  1  0
 22 23  2  0
 23 24  1  0
 23 25  1  0
 25 26  2  0
 26 27  1  0
 27 28  2  0
 12  7  1  0
 28 18  1  0
 27 21  1  0
  3 29  1  0
  4 30  1  0
  4 31  1  0
  8 32  1  0
  8 33  1  0
  9 34  1  0
  9 35  1  0
 10 36  1  0
 10 37  1  0
 11 38  1  0
 11 39  1  0
 12 40  1  6
 13 41  1  0
 13 42  1  0
 19 43  1  0
 20 44  1  0
 22 45  1  0
 25 46  1  0
 26 47  1  0
M  END
>  <smiles>  (41) 
O=C(NCC(=O)N1CCCCC1CC(F)(F)F)c1ccc2cc(F)ccc2n1

>  <score_type>  (41) 
oracle

>  <origin>  (41) 
autodockgpu

>  <m_score__min__energy>  (41) 
-7.2599999999999998

>  <m_primary>  (41) 
energy

>  <rmsd>  (41) 
3.0076264893863853

>  <m_score__min__rmsd>  (41) 
3.0076264893863853

>  <meeko>  (41) 
{"free_energy": -7.18, "intermolecular_energy": -8.97, "internal_energy": -1.24, "cluster_size": 24, "cluster_id": 1, "rank_in_cluster": 3}

>  <energy>  (41) 
-6.73

>  <cluster_rmsd>  (41) 
0.6

>  <cluster>  (41) 
3

$$$$

     RDKit          3D

 47 49  0  0  0  0  0  0  0  0999 V2000
  141.1340   71.8290  221.2270 O   0  0  0  0  0  0  0  0  0  0  0  0
  140.4860   72.3060  222.1860 C   0  0  0  0  0  0  0  0  0  0  0  0
  139.9930   73.6190  222.1910 N   0  0  0  0  0  0  0  0  0  0  0  0
  140.1770   74.5470  221.1040 C   0  0  0  0  0  0  0  0  0  0  0  0
  139.8780   75.9250  221.6390 C   0  0  0  0  0  0  0  0  0  0  0  0
  139.4160   75.9740  222.7890 O   0  0  0  0  0  0  0  0  0  0  0  0
  140.1510   77.0030  220.7810 N   0  0  0  0  0  0  0  0  0  0  0  0
  139.8250   76.9650  219.3440 C   0  0  0  0  0  0  0  0  0  0  0  0
  139.7780   78.3690  218.7860 C   0  0  0  0  0  0  0  0  0  0  0  0
  141.0710   79.1040  218.9720 C   0  0  0  0  0  0  0  0  0  0  0  0
  141.8340   78.5130  220.1780 C   0  0  0  0  0  0  0  0  0  0  0  0
  140.7820   78.2660  221.2170 C   0  0  2  0  0  0  0  0  0  0  0  0
  141.2020   78.2290  222.6260 C   0  0  0  0  0  0  0  0  0  0  0  0
  141.3210   79.5970  223.2330 C   0  0  0  0  0  0  0  0  0  0  0  0
  141.6550   80.5890  222.3590 F   0  0  0  0  0  0  0  0  0  0  0  0
  142.2960   79.5770  224.2320 F   0  0  0  0  0  0  0  0  0  0  0  0
  140.1100   79.9160  223.8360 F   0  0  0  0  0  0  0  0  0  0  0  0
  140.2420   71.4320  223.3520 C   0  0  0  0  0  0  0  0  0  0  0  0
  139.5820   70.2290  223.2200 C   0  0  0  0  0  0  0  0  0  0  0  0
  139.3680   69.4280  224.3370 C   0  0  0  0  0  0  0  0  0  0  0  0
  139.8260   69.8550  225.5760 C   0  0  0  0  0  0  0  0  0  0  0  0
  139.6530   69.1180  226.7290 C   0  0  0  0  0  0  0  0  0  0  0  0
  140.1250   69.5830  227.9390 C   0  0  0  0  0  0  0  0  0  0  0  0
  139.9640   68.8730  229.0820 F   0  0  0  0  0  0  0  0  0  0  0  0
  140.7830   70.7900  228.0470 C   0  0  0  0  0  0  0  0  0  0  0  0
  140.9550   71.5200  226.9000 C   0  0  0  0  0  0  0  0  0  0  0  0
  140.4850   71.0640  225.6830 C   0  0  0  0  0  0  0  0  0  0  0  0
  140.6730   71.8110  224.5800 N   0  0  0  0  0  0  0  0  0  0  0  0
  139.4590   73.9300  223.0450 H   0  0  0  0  0  0  0  0  0  0  0  0
  141.2141   74.5007  220.7403 H   0  0  0  0  0  0  0  0  0  0  0  0
  139.5111   74.3013  220.2637 H   0  0  0  0  0  0  0  0  0  0  0  0
  140.5946   76.3871  218.8113 H   0  0  0  0  0  0  0  0  0  0  0  0
  138.8417   76.4906  219.2098 H   0  0  0  0  0  0  0  0  0  0  0  0
  139.5552   78.3138  217.7102 H   0  0  0  0  0  0  0  0  0  0  0  0
  138.9986   78.9201  219.3326 H   0  0  0  0  0  0  0  0  0  0  0  0
  141.6843   79.0012  218.0647 H   0  0  0  0  0  0  0  0  0  0  0  0
  140.8630   80.1682  219.1572 H   0  0  0  0  0  0  0  0  0  0  0  0
  142.3303   77.5719  219.8985 H   0  0  0  0  0  0  0  0  0  0  0  0
  142.6229   79.1886  220.5401 H   0  0  0  0  0  0  0  0  0  0  0  0
  140.1040   79.1314  221.2534 H   0  0  0  0  0  0  0  0  0  0  0  0
  140.4601   77.6534  223.1990 H   0  0  0  0  0  0  0  0  0  0  0  0
  142.1973   77.7621  222.6631 H   0  0  0  0  0  0  0  0  0  0  0  0
  139.2248   69.9027  222.2321 H   0  0  0  0  0  0  0  0  0  0  0  0
  138.8417   68.4670  224.2396 H   0  0  0  0  0  0  0  0  0  0  0  0
  139.1334   68.1496  226.6832 H   0  0  0  0  0  0  0  0  0  0  0  0
  141.1554   71.1529  229.0163 H   0  0  0  0  0  0  0  0  0  0  0  0
  141.4770   72.4870  226.9489 H   0  0  0  0  0  0  0  0  0  0  0  0
  1  2  2  0
  2  3  1  0
  3  4  1  0
  4  5  1  0
  5  6  2  0
  5  7  1  0
  7  8  1  0
  8  9  1  0
  9 10  1  0
 10 11  1  0
 11 12  1  0
 12 13  1  0
 13 14  1  0
 14 15  1  0
 14 16  1  0
 14 17  1  0
  2 18  1  0
 18 19  2  0
 19 20  1  0
 20 21  2  0
 21 22  1  0
 22 23  2  0
 23 24  1  0
 23 25  1  0
 25 26  2  0
 26 27  1  0
 27 28  2  0
 12  7  1  0
 28 18  1  0
 27 21  1  0
  3 29  1  0
  4 30  1  0
  4 31  1  0
  8 32  1  0
  8 33  1  0
  9 34  1  0
  9 35  1  0
 10 36  1  0
 10 37  1  0
 11 38  1  0
 11 39  1  0
 12 40  1  1
 13 41  1  0
 13 42  1  0
 19 43  1  0
 20 44  1  0
 22 45  1  0
 25 46  1  0
 26 47  1  0
M  END
>  <smiles>  (42) 
O=C(NCC(=O)N1CCCCC1CC(F)(F)F)c1ccc2cc(F)ccc2n1

>  <score_type>  (42) 
oracle

>  <origin>  (42) 
autodockgpu

>  <m_score__min__energy>  (42) 
-7.2599999999999998

>  <m_primary>  (42) 
energy

>  <rmsd>  (42) 
2.2224193859437635

>  <m_score__min__rmsd>  (42) 
2.2224193859437635

>  <meeko>  (42) 
{"free_energy": -6.76, "intermolecular_energy": -8.55, "internal_energy": -1.58, "cluster_size": 24, "cluster_id": 1, "rank_in_cluster": 16}

>  <energy>  (42) 
-6.73

>  <cluster_rmsd>  (42) 
0.53

>  <cluster>  (42) 
3

$$$$

     RDKit          3D

 47 49  0  0  0  0  0  0  0  0999 V2000
  139.9520   71.0540  221.1150 O   0  0  0  0  0  0  0  0  0  0  0  0
  139.8380   71.6230  222.2240 C   0  0  0  0  0  0  0  0  0  0  0  0
  139.7490   73.0160  222.3560 N   0  0  0  0  0  0  0  0  0  0  0  0
  139.7790   73.9300  221.2420 C   0  0  0  0  0  0  0  0  0  0  0  0
  141.0440   74.7410  221.3650 C   0  0  0  0  0  0  0  0  0  0  0  0
  140.9650   75.7720  222.0510 O   0  0  0  0  0  0  0  0  0  0  0  0
  142.1730   74.2480  220.6910 N   0  0  0  0  0  0  0  0  0  0  0  0
  142.6220   72.8520  220.8310 C   0  0  0  0  0  0  0  0  0  0  0  0
  143.5240   72.4800  219.6750 C   0  0  0  0  0  0  0  0  0  0  0  0
  144.7260   73.3690  219.5760 C   0  0  0  0  0  0  0  0  0  0  0  0
  144.4140   74.7360  220.2240 C   0  0  0  0  0  0  0  0  0  0  0  0
  143.0170   75.0600  219.7880 C   0  0  2  0  0  0  0  0  0  0  0  0
  142.6140   76.4740  219.7620 C   0  0  0  0  0  0  0  0  0  0  0  0
  142.7050   77.0780  218.3900 C   0  0  0  0  0  0  0  0  0  0  0  0
  142.9390   78.4220  218.3660 F   0  0  0  0  0  0  0  0  0  0  0  0
  141.5110   76.8520  217.7040 F   0  0  0  0  0  0  0  0  0  0  0  0
  143.7190   76.4320  217.6930 F   0  0  0  0  0  0  0  0  0  0  0  0
  139.7960   70.7720  223.4320 C   0  0  0  0  0  0  0  0  0  0  0  0
  139.2350   69.5130  223.4030 C   0  0  0  0  0  0  0  0  0  0  0  0
  139.2110   68.7370  224.5560 C   0  0  0  0  0  0  0  0  0  0  0  0
  139.7570   69.2450  225.7270 C   0  0  0  0  0  0  0  0  0  0  0  0
  139.7710   68.5360  226.9110 C   0  0  0  0  0  0  0  0  0  0  0  0
  140.3250   69.0820  228.0500 C   0  0  0  0  0  0  0  0  0  0  0  0
  140.3480   68.4010  229.2230 F   0  0  0  0  0  0  0  0  0  0  0  0
  140.8810   70.3440  228.0560 C   0  0  0  0  0  0  0  0  0  0  0  0
  140.8650   71.0450  226.8800 C   0  0  0  0  0  0  0  0  0  0  0  0
  140.3130   70.5080  225.7320 C   0  0  0  0  0  0  0  0  0  0  0  0
  140.3180   71.2300  224.5960 N   0  0  0  0  0  0  0  0  0  0  0  0
  139.6550   73.4020  223.3330 H   0  0  0  0  0  0  0  0  0  0  0  0
  139.7807   73.3702  220.2951 H   0  0  0  0  0  0  0  0  0  0  0  0
  138.8940   74.5833  221.2488 H   0  0  0  0  0  0  0  0  0  0  0  0
  143.1751   72.7402  221.7752 H   0  0  0  0  0  0  0  0  0  0  0  0
  141.7443   72.1889  220.8319 H   0  0  0  0  0  0  0  0  0  0  0  0
  143.8629   71.4425  219.8117 H   0  0  0  0  0  0  0  0  0  0  0  0
  142.9443   72.5972  218.7475 H   0  0  0  0  0  0  0  0  0  0  0  0
  145.5722   72.9002  220.0996 H   0  0  0  0  0  0  0  0  0  0  0  0
  144.9847   73.5171  218.5172 H   0  0  0  0  0  0  0  0  0  0  0  0
  144.4709   74.6665  221.3203 H   0  0  0  0  0  0  0  0  0  0  0  0
  145.1327   75.5116  219.9207 H   0  0  0  0  0  0  0  0  0  0  0  0
  142.9115   74.8226  218.7191 H   0  0  0  0  0  0  0  0  0  0  0  0
  141.5738   76.5498  220.1115 H   0  0  0  0  0  0  0  0  0  0  0  0
  143.3043   77.0280  220.4151 H   0  0  0  0  0  0  0  0  0  0  0  0
  138.8066   69.1228  222.4680 H   0  0  0  0  0  0  0  0  0  0  0  0
  138.7645   67.7318  224.5408 H   0  0  0  0  0  0  0  0  0  0  0  0
  139.3363   67.5262  226.9466 H   0  0  0  0  0  0  0  0  0  0  0  0
  141.3201   70.7707  228.9698 H   0  0  0  0  0  0  0  0  0  0  0  0
  141.2998   72.0549  226.8481 H   0  0  0  0  0  0  0  0  0  0  0  0
  1  2  2  0
  2  3  1  0
  3  4  1  0
  4  5  1  0
  5  6  2  0
  5  7  1  0
  7  8  1  0
  8  9  1  0
  9 10  1  0
 10 11  1  0
 11 12  1  0
 12 13  1  0
 13 14  1  0
 14 15  1  0
 14 16  1  0
 14 17  1  0
  2 18  1  0
 18 19  2  0
 19 20  1  0
 20 21  2  0
 21 22  1  0
 22 23  2  0
 23 24  1  0
 23 25  1  0
 25 26  2  0
 26 27  1  0
 27 28  2  0
 12  7  1  0
 28 18  1  0
 27 21  1  0
  3 29  1  0
  4 30  1  0
  4 31  1  0
  8 32  1  0
  8 33  1  0
  9 34  1  0
  9 35  1  0
 10 36  1  0
 10 37  1  0
 11 38  1  0
 11 39  1  0
 12 40  1  6
 13 41  1  0
 13 42  1  0
 19 43  1  0
 20 44  1  0
 22 45  1  0
 25 46  1  0
 26 47  1  0
M  END
>  <smiles>  (43) 
O=C(NCC(=O)N1CCCCC1CC(F)(F)F)c1ccc2cc(F)ccc2n1

>  <score_type>  (43) 
oracle

>  <origin>  (43) 
autodockgpu

>  <m_score__min__energy>  (43) 
-7.2599999999999998

>  <m_primary>  (43) 
energy

>  <rmsd>  (43) 
2.5554950864900277

>  <m_score__min__rmsd>  (43) 
2.5554950864900277

>  <meeko>  (43) 
{"free_energy": -6.76, "intermolecular_energy": -8.55, "internal_energy": -1.38, "cluster_size": 15, "cluster_id": 3, "rank_in_cluster": 6}

>  <energy>  (43) 
-6.72

>  <cluster_rmsd>  (43) 
0.61

>  <cluster>  (43) 
3

$$$$

     RDKit          3D

 47 49  0  0  0  0  0  0  0  0999 V2000
  135.5180   69.4310  224.3580 O   0  0  0  0  0  0  0  0  0  0  0  0
  135.7500   70.6440  224.5600 C   0  0  0  0  0  0  0  0  0  0  0  0
  136.8900   71.2920  224.0640 N   0  0  0  0  0  0  0  0  0  0  0  0
  137.9040   70.6370  223.2750 C   0  0  0  0  0  0  0  0  0  0  0  0
  139.2050   70.7620  224.0270 C   0  0  0  0  0  0  0  0  0  0  0  0
  139.9190   71.7290  223.7210 O   0  0  0  0  0  0  0  0  0  0  0  0
  139.4700   69.7740  224.9900 N   0  0  0  0  0  0  0  0  0  0  0  0
  139.0980   68.3630  224.7880 C   0  0  0  0  0  0  0  0  0  0  0  0
  139.8990   67.4780  225.7170 C   0  0  0  0  0  0  0  0  0  0  0  0
  139.7000   67.8320  227.1600 C   0  0  0  0  0  0  0  0  0  0  0  0
  139.2790   69.3140  227.2760 C   0  0  0  0  0  0  0  0  0  0  0  0
  140.1360   70.0380  226.2830 C   0  0  2  0  0  0  0  0  0  0  0  0
  140.3880   71.4700  226.5040 C   0  0  0  0  0  0  0  0  0  0  0  0
  140.9770   71.7540  227.8560 C   0  0  0  0  0  0  0  0  0  0  0  0
  141.9990   72.6560  227.8620 F   0  0  0  0  0  0  0  0  0  0  0  0
  141.4670   70.5680  228.4060 F   0  0  0  0  0  0  0  0  0  0  0  0
  139.9640   72.2150  228.6880 F   0  0  0  0  0  0  0  0  0  0  0  0
  134.7690   71.4070  225.3590 C   0  0  0  0  0  0  0  0  0  0  0  0
  133.8050   70.7690  226.1110 C   0  0  0  0  0  0  0  0  0  0  0  0
  132.8960   71.5160  226.8520 C   0  0  0  0  0  0  0  0  0  0  0  0
  132.9730   72.9020  226.8240 C   0  0  0  0  0  0  0  0  0  0  0  0
  132.1070   73.7110  227.5310 C   0  0  0  0  0  0  0  0  0  0  0  0
  132.2220   75.0840  227.4720 C   0  0  0  0  0  0  0  0  0  0  0  0
  131.3810   75.8950  228.1600 F   0  0  0  0  0  0  0  0  0  0  0  0
  133.1950   75.7010  226.7140 C   0  0  0  0  0  0  0  0  0  0  0  0
  134.0530   74.8950  226.0120 C   0  0  0  0  0  0  0  0  0  0  0  0
  133.9470   73.5180  226.0640 C   0  0  0  0  0  0  0  0  0  0  0  0
  134.8090   72.7630  225.3600 N   0  0  0  0  0  0  0  0  0  0  0  0
  136.9990   72.3160  224.2880 H   0  0  0  0  0  0  0  0  0  0  0  0
  137.6482   69.5759  223.1385 H   0  0  0  0  0  0  0  0  0  0  0  0
  137.9827   71.0987  222.2797 H   0  0  0  0  0  0  0  0  0  0  0  0
  138.0258   68.2354  224.9980 H   0  0  0  0  0  0  0  0  0  0  0  0
  139.3109   68.0793  223.7468 H   0  0  0  0  0  0  0  0  0  0  0  0
  139.5890   66.4337  225.5639 H   0  0  0  0  0  0  0  0  0  0  0  0
  140.9636   67.6224  225.4810 H   0  0  0  0  0  0  0  0  0  0  0  0
  138.9137   67.1933  227.5887 H   0  0  0  0  0  0  0  0  0  0  0  0
  140.6408   67.6752  227.7080 H   0  0  0  0  0  0  0  0  0  0  0  0
  138.2140   69.4342  227.0282 H   0  0  0  0  0  0  0  0  0  0  0  0
  139.4100   69.7026  228.2967 H   0  0  0  0  0  0  0  0  0  0  0  0
  141.1665   69.6605  226.3576 H   0  0  0  0  0  0  0  0  0  0  0  0
  141.0873   71.8270  225.7336 H   0  0  0  0  0  0  0  0  0  0  0  0
  139.4202   71.9897  226.4479 H   0  0  0  0  0  0  0  0  0  0  0  0
  133.7552   69.6702  226.1246 H   0  0  0  0  0  0  0  0  0  0  0  0
  132.1241   71.0142  227.4540 H   0  0  0  0  0  0  0  0  0  0  0  0
  131.3175   73.2564  228.1475 H   0  0  0  0  0  0  0  0  0  0  0  0
  133.2792   76.7971  226.6744 H   0  0  0  0  0  0  0  0  0  0  0  0
  134.8407   75.3527  225.3956 H   0  0  0  0  0  0  0  0  0  0  0  0
  1  2  2  0
  2  3  1  0
  3  4  1  0
  4  5  1  0
  5  6  2  0
  5  7  1  0
  7  8  1  0
  8  9  1  0
  9 10  1  0
 10 11  1  0
 11 12  1  0
 12 13  1  0
 13 14  1  0
 14 15  1  0
 14 16  1  0
 14 17  1  0
  2 18  1  0
 18 19  2  0
 19 20  1  0
 20 21  2  0
 21 22  1  0
 22 23  2  0
 23 24  1  0
 23 25  1  0
 25 26  2  0
 26 27  1  0
 27 28  2  0
 12  7  1  0
 28 18  1  0
 27 21  1  0
  3 29  1  0
  4 30  1  0
  4 31  1  0
  8 32  1  0
  8 33  1  0
  9 34  1  0
  9 35  1  0
 10 36  1  0
 10 37  1  0
 11 38  1  0
 11 39  1  0
 12 40  1  6
 13 41  1  0
 13 42  1  0
 19 43  1  0
 20 44  1  0
 22 45  1  0
 25 46  1  0
 26 47  1  0
M  END
>  <smiles>  (44) 
O=C(NCC(=O)N1CCCCC1CC(F)(F)F)c1ccc2cc(F)ccc2n1

>  <score_type>  (44) 
oracle

>  <origin>  (44) 
autodockgpu

>  <m_score__min__energy>  (44) 
-7.2599999999999998

>  <m_primary>  (44) 
energy

>  <rmsd>  (44) 
8.228161197291051

>  <m_score__min__rmsd>  (44) 
8.228161197291051

>  <meeko>  (44) 
{"free_energy": -7.04, "intermolecular_energy": -8.83, "internal_energy": -1.46, "cluster_size": 2, "cluster_id": 4, "rank_in_cluster": 2}

>  <energy>  (44) 
-6.68

>  <cluster_rmsd>  (44) 
0.45

>  <cluster>  (44) 
3

$$$$

     RDKit          3D

 47 49  0  0  0  0  0  0  0  0999 V2000
  141.8120   72.2110  221.2430 O   0  0  0  0  0  0  0  0  0  0  0  0
  140.9450   72.8900  221.8380 C   0  0  0  0  0  0  0  0  0  0  0  0
  139.9960   72.3210  222.6990 N   0  0  0  0  0  0  0  0  0  0  0  0
  139.9200   70.9110  222.9880 C   0  0  0  0  0  0  0  0  0  0  0  0
  139.0550   70.7530  224.2130 C   0  0  0  0  0  0  0  0  0  0  0  0
  138.0750   71.5090  224.2890 O   0  0  0  0  0  0  0  0  0  0  0  0
  139.4510   69.7710  225.1370 N   0  0  0  0  0  0  0  0  0  0  0  0
  138.8680   68.4180  225.1410 C   0  0  0  0  0  0  0  0  0  0  0  0
  139.7780   67.4650  225.8830 C   0  0  0  0  0  0  0  0  0  0  0  0
  140.0240   67.8920  227.2980 C   0  0  0  0  0  0  0  0  0  0  0  0
  139.8360   69.4200  227.4190 C   0  0  0  0  0  0  0  0  0  0  0  0
  140.4710   69.9860  226.1840 C   0  0  2  0  0  0  0  0  0  0  0  0
  140.9470   71.3770  226.2300 C   0  0  0  0  0  0  0  0  0  0  0  0
  141.1200   71.8850  227.6330 C   0  0  0  0  0  0  0  0  0  0  0  0
  141.7640   71.0330  228.4800 F   0  0  0  0  0  0  0  0  0  0  0  0
  139.8660   72.1520  228.1860 F   0  0  0  0  0  0  0  0  0  0  0  0
  141.8190   73.0850  227.5810 F   0  0  0  0  0  0  0  0  0  0  0  0
  140.9380   74.3500  221.6080 C   0  0  0  0  0  0  0  0  0  0  0  0
  141.8580   74.9490  220.7730 C   0  0  0  0  0  0  0  0  0  0  0  0
  141.8250   76.3250  220.5790 C   0  0  0  0  0  0  0  0  0  0  0  0
  140.8610   77.0800  221.2320 C   0  0  0  0  0  0  0  0  0  0  0  0
  140.7650   78.4490  221.0890 C   0  0  0  0  0  0  0  0  0  0  0  0
  139.7900   79.1590  221.7590 C   0  0  0  0  0  0  0  0  0  0  0  0
  139.6800   80.5040  221.6310 F   0  0  0  0  0  0  0  0  0  0  0  0
  138.8800   78.5390  222.5890 C   0  0  0  0  0  0  0  0  0  0  0  0
  138.9780   77.1790  222.7290 C   0  0  0  0  0  0  0  0  0  0  0  0
  139.9510   76.4580  222.0630 C   0  0  0  0  0  0  0  0  0  0  0  0
  140.0140   75.1250  222.2270 N   0  0  0  0  0  0  0  0  0  0  0  0
  139.3050   72.9750  223.1540 H   0  0  0  0  0  0  0  0  0  0  0  0
  139.4713   70.3757  222.1382 H   0  0  0  0  0  0  0  0  0  0  0  0
  140.9227   70.4933  223.1615 H   0  0  0  0  0  0  0  0  0  0  0  0
  137.8868   68.4456  225.6374 H   0  0  0  0  0  0  0  0  0  0  0  0
  138.7515   68.0719  224.1034 H   0  0  0  0  0  0  0  0  0  0  0  0
  139.3136   66.4679  225.8910 H   0  0  0  0  0  0  0  0  0  0  0  0
  140.7474   67.4552  225.3632 H   0  0  0  0  0  0  0  0  0  0  0  0
  139.3118   67.3819  227.9633 H   0  0  0  0  0  0  0  0  0  0  0  0
  141.0521   67.6269  227.5857 H   0  0  0  0  0  0  0  0  0  0  0  0
  138.7670   69.6766  227.4569 H   0  0  0  0  0  0  0  0  0  0  0  0
  140.2880   69.8213  228.3381 H   0  0  0  0  0  0  0  0  0  0  0  0
  141.4283   69.4739  226.0069 H   0  0  0  0  0  0  0  0  0  0  0  0
  141.9163   71.4344  225.7130 H   0  0  0  0  0  0  0  0  0  0  0  0
  140.1871   72.0043  225.7411 H   0  0  0  0  0  0  0  0  0  0  0  0
  142.6167   74.3387  220.2613 H   0  0  0  0  0  0  0  0  0  0  0  0
  142.5553   76.8103  219.9149 H   0  0  0  0  0  0  0  0  0  0  0  0
  141.4725   78.9794  220.4347 H   0  0  0  0  0  0  0  0  0  0  0  0
  138.1055   79.1135  223.1182 H   0  0  0  0  0  0  0  0  0  0  0  0
  138.2688   76.6515  223.3838 H   0  0  0  0  0  0  0  0  0  0  0  0
  1  2  2  0
  2  3  1  0
  3  4  1  0
  4  5  1  0
  5  6  2  0
  5  7  1  0
  7  8  1  0
  8  9  1  0
  9 10  1  0
 10 11  1  0
 11 12  1  0
 12 13  1  0
 13 14  1  0
 14 15  1  0
 14 16  1  0
 14 17  1  0
  2 18  1  0
 18 19  2  0
 19 20  1  0
 20 21  2  0
 21 22  1  0
 22 23  2  0
 23 24  1  0
 23 25  1  0
 25 26  2  0
 26 27  1  0
 27 28  2  0
 12  7  1  0
 28 18  1  0
 27 21  1  0
  3 29  1  0
  4 30  1  0
  4 31  1  0
  8 32  1  0
  8 33  1  0
  9 34  1  0
  9 35  1  0
 10 36  1  0
 10 37  1  0
 11 38  1  0
 11 39  1  0
 12 40  1  6
 13 41  1  0
 13 42  1  0
 19 43  1  0
 20 44  1  0
 22 45  1  0
 25 46  1  0
 26 47  1  0
M  END
>  <smiles>  (45) 
O=C(NCC(=O)N1CCCCC1CC(F)(F)F)c1ccc2cc(F)ccc2n1

>  <score_type>  (45) 
oracle

>  <origin>  (45) 
autodockgpu

>  <m_score__min__energy>  (45) 
-7.2599999999999998

>  <m_primary>  (45) 
energy

>  <rmsd>  (45) 
8.688728010828765

>  <m_score__min__rmsd>  (45) 
8.688728010828765

>  <meeko>  (45) 
{"free_energy": -7.03, "intermolecular_energy": -8.82, "internal_energy": -1.82, "cluster_size": 8, "cluster_id": 2, "rank_in_cluster": 5}

>  <energy>  (45) 
-6.67

>  <cluster_rmsd>  (45) 
0.4

>  <cluster>  (45) 
3

$$$$

     RDKit          3D

 47 49  0  0  0  0  0  0  0  0999 V2000
  140.9280   71.4670  221.1990 O   0  0  0  0  0  0  0  0  0  0  0  0
  140.3660   71.9790  222.1930 C   0  0  0  0  0  0  0  0  0  0  0  0
  139.9420   73.3150  222.2210 N   0  0  0  0  0  0  0  0  0  0  0  0
  140.1050   74.2300  221.1190 C   0  0  0  0  0  0  0  0  0  0  0  0
  139.7410   75.6040  221.6230 C   0  0  0  0  0  0  0  0  0  0  0  0
  139.1770   75.6470  222.7270 O   0  0  0  0  0  0  0  0  0  0  0  0
  140.0770   76.6860  220.7920 N   0  0  0  0  0  0  0  0  0  0  0  0
  139.8130   76.6720  219.3420 C   0  0  0  0  0  0  0  0  0  0  0  0
  139.8240   78.0840  218.8010 C   0  0  0  0  0  0  0  0  0  0  0  0
  141.1240   78.7850  219.0510 C   0  0  0  0  0  0  0  0  0  0  0  0
  141.8200   78.1610  220.2820 C   0  0  0  0  0  0  0  0  0  0  0  0
  140.7180   77.9280  221.2710 C   0  0  2  0  0  0  0  0  0  0  0  0
  141.0750   77.8630  222.6970 C   0  0  0  0  0  0  0  0  0  0  0  0
  141.6510   79.1520  223.2100 C   0  0  0  0  0  0  0  0  0  0  0  0
  140.8830   80.2560  222.9860 F   0  0  0  0  0  0  0  0  0  0  0  0
  142.8900   79.3770  222.6090 F   0  0  0  0  0  0  0  0  0  0  0  0
  141.8650   79.0220  224.5770 F   0  0  0  0  0  0  0  0  0  0  0  0
  140.1510   71.1210  223.3770 C   0  0  0  0  0  0  0  0  0  0  0  0
  139.5030   69.9080  223.2760 C   0  0  0  0  0  0  0  0  0  0  0  0
  139.3170   69.1250  224.4090 C   0  0  0  0  0  0  0  0  0  0  0  0
  139.7890   69.5780  225.6330 C   0  0  0  0  0  0  0  0  0  0  0  0
  139.6420   68.8580  226.8010 C   0  0  0  0  0  0  0  0  0  0  0  0
  140.1270   69.3490  227.9950 C   0  0  0  0  0  0  0  0  0  0  0  0
  139.9920   68.6560  229.1530 F   0  0  0  0  0  0  0  0  0  0  0  0
  140.7720   70.5650  228.0730 C   0  0  0  0  0  0  0  0  0  0  0  0
  140.9160   71.2780  226.9120 C   0  0  0  0  0  0  0  0  0  0  0  0
  140.4340   70.7960  225.7100 C   0  0  0  0  0  0  0  0  0  0  0  0
  140.5960   71.5270  224.5920 N   0  0  0  0  0  0  0  0  0  0  0  0
  139.4790   73.6560  223.1050 H   0  0  0  0  0  0  0  0  0  0  0  0
  141.1488   74.2201  220.7721 H   0  0  0  0  0  0  0  0  0  0  0  0
  139.4632   73.9414  220.2735 H   0  0  0  0  0  0  0  0  0  0  0  0
  140.5910   76.0818  218.8357 H   0  0  0  0  0  0  0  0  0  0  0  0
  138.8258   76.2227  219.1589 H   0  0  0  0  0  0  0  0  0  0  0  0
  139.6462   78.0473  217.7161 H   0  0  0  0  0  0  0  0  0  0  0  0
  139.0355   78.6471  219.3218 H   0  0  0  0  0  0  0  0  0  0  0  0
  141.7733   78.6778  218.1696 H   0  0  0  0  0  0  0  0  0  0  0  0
  140.9338   79.8518  219.2401 H   0  0  0  0  0  0  0  0  0  0  0  0
  142.3052   77.2113  220.0123 H   0  0  0  0  0  0  0  0  0  0  0  0
  142.6086   78.8126  220.6865 H   0  0  0  0  0  0  0  0  0  0  0  0
  140.0605   78.8097  221.2890 H   0  0  0  0  0  0  0  0  0  0  0  0
  140.1699   77.6270  223.2759 H   0  0  0  0  0  0  0  0  0  0  0  0
  141.8453   77.0862  222.8115 H   0  0  0  0  0  0  0  0  0  0  0  0
  139.1338   69.5605  222.2998 H   0  0  0  0  0  0  0  0  0  0  0  0
  138.8010   68.1562  224.3364 H   0  0  0  0  0  0  0  0  0  0  0  0
  139.1331   67.8830  226.7795 H   0  0  0  0  0  0  0  0  0  0  0  0
  141.1560   70.9478  229.0301 H   0  0  0  0  0  0  0  0  0  0  0  0
  141.4250   72.2528  226.9372 H   0  0  0  0  0  0  0  0  0  0  0  0
  1  2  2  0
  2  3  1  0
  3  4  1  0
  4  5  1  0
  5  6  2  0
  5  7  1  0
  7  8  1  0
  8  9  1  0
  9 10  1  0
 10 11  1  0
 11 12  1  0
 12 13  1  0
 13 14  1  0
 14 15  1  0
 14 16  1  0
 14 17  1  0
  2 18  1  0
 18 19  2  0
 19 20  1  0
 20 21  2  0
 21 22  1  0
 22 23  2  0
 23 24  1  0
 23 25  1  0
 25 26  2  0
 26 27  1  0
 27 28  2  0
 12  7  1  0
 28 18  1  0
 27 21  1  0
  3 29  1  0
  4 30  1  0
  4 31  1  0
  8 32  1  0
  8 33  1  0
  9 34  1  0
  9 35  1  0
 10 36  1  0
 10 37  1  0
 11 38  1  0
 11 39  1  0
 12 40  1  1
 13 41  1  0
 13 42  1  0
 19 43  1  0
 20 44  1  0
 22 45  1  0
 25 46  1  0
 26 47  1  0
M  END
>  <smiles>  (46) 
O=C(NCC(=O)N1CCCCC1CC(F)(F)F)c1ccc2cc(F)ccc2n1

>  <score_type>  (46) 
oracle

>  <origin>  (46) 
autodockgpu

>  <m_score__min__energy>  (46) 
-7.2599999999999998

>  <m_primary>  (46) 
energy

>  <rmsd>  (46) 
2.090620449696307

>  <m_score__min__rmsd>  (46) 
2.090620449696307

>  <meeko>  (46) 
{"free_energy": -6.81, "intermolecular_energy": -8.6, "internal_energy": -1.59, "cluster_size": 24, "cluster_id": 1, "rank_in_cluster": 12}

>  <energy>  (46) 
-6.65

>  <cluster_rmsd>  (46) 
0.41

>  <cluster>  (46) 
3

$$$$

     RDKit          3D

 47 49  0  0  0  0  0  0  0  0999 V2000
  141.6470   71.8850  221.0410 O   0  0  0  0  0  0  0  0  0  0  0  0
  140.9050   72.6550  221.6910 C   0  0  0  0  0  0  0  0  0  0  0  0
  139.9410   72.1940  222.5980 N   0  0  0  0  0  0  0  0  0  0  0  0
  139.7060   70.7990  222.8760 C   0  0  0  0  0  0  0  0  0  0  0  0
  138.9370   70.7260  224.1710 C   0  0  0  0  0  0  0  0  0  0  0  0
  137.9890   71.5170  224.2870 O   0  0  0  0  0  0  0  0  0  0  0  0
  139.3740   69.7730  225.1070 N   0  0  0  0  0  0  0  0  0  0  0  0
  138.9240   68.3710  225.0670 C   0  0  0  0  0  0  0  0  0  0  0  0
  139.8800   67.4980  225.8500 C   0  0  0  0  0  0  0  0  0  0  0  0
  140.0080   67.9270  227.2800 C   0  0  0  0  0  0  0  0  0  0  0  0
  139.6690   69.4290  227.4030 C   0  0  0  0  0  0  0  0  0  0  0  0
  140.3130   70.0690  226.2100 C   0  0  2  0  0  0  0  0  0  0  0  0
  140.6500   71.4980  226.2940 C   0  0  0  0  0  0  0  0  0  0  0  0
  141.0290   71.9250  227.6830 C   0  0  0  0  0  0  0  0  0  0  0  0
  141.7050   70.9890  228.4090 F   0  0  0  0  0  0  0  0  0  0  0  0
  139.8760   72.2520  228.3980 F   0  0  0  0  0  0  0  0  0  0  0  0
  141.8060   73.0730  227.5920 F   0  0  0  0  0  0  0  0  0  0  0  0
  141.0680   74.1090  221.4780 C   0  0  0  0  0  0  0  0  0  0  0  0
  142.0180   74.6040  220.6100 C   0  0  0  0  0  0  0  0  0  0  0  0
  142.1460   75.9770  220.4320 C   0  0  0  0  0  0  0  0  0  0  0  0
  141.3100   76.8340  221.1350 C   0  0  0  0  0  0  0  0  0  0  0  0
  141.3770   78.2060  221.0120 C   0  0  0  0  0  0  0  0  0  0  0  0
  140.5260   79.0190  221.7310 C   0  0  0  0  0  0  0  0  0  0  0  0
  140.5770   80.3690  221.6240 F   0  0  0  0  0  0  0  0  0  0  0  0
  139.5830   78.5010  222.5950 C   0  0  0  0  0  0  0  0  0  0  0  0
  139.5190   77.1380  222.7150 C   0  0  0  0  0  0  0  0  0  0  0  0
  140.3670   76.3140  221.9990 C   0  0  0  0  0  0  0  0  0  0  0  0
  140.2730   74.9810  222.1460 N   0  0  0  0  0  0  0  0  0  0  0  0
  139.3630   72.9200  223.0990 H   0  0  0  0  0  0  0  0  0  0  0  0
  139.1192   70.3463  222.0632 H   0  0  0  0  0  0  0  0  0  0  0  0
  140.6565   70.2510  222.9548 H   0  0  0  0  0  0  0  0  0  0  0  0
  137.9192   68.2982  225.5088 H   0  0  0  0  0  0  0  0  0  0  0  0
  138.8975   68.0300  224.0215 H   0  0  0  0  0  0  0  0  0  0  0  0
  139.5130   66.4614  225.8241 H   0  0  0  0  0  0  0  0  0  0  0  0
  140.8724   67.5872  225.3840 H   0  0  0  0  0  0  0  0  0  0  0  0
  139.3129   67.3428  227.9010 H   0  0  0  0  0  0  0  0  0  0  0  0
  141.0396   67.7563  227.6215 H   0  0  0  0  0  0  0  0  0  0  0  0
  138.5800   69.5827  227.3839 H   0  0  0  0  0  0  0  0  0  0  0  0
  140.0303   69.8588  228.3489 H   0  0  0  0  0  0  0  0  0  0  0  0
  141.3229   69.6525  226.0809 H   0  0  0  0  0  0  0  0  0  0  0  0
  141.4963   71.6999  225.6209 H   0  0  0  0  0  0  0  0  0  0  0  0
  139.7544   72.0674  226.0049 H   0  0  0  0  0  0  0  0  0  0  0  0
  142.6737   73.9137  220.0591 H   0  0  0  0  0  0  0  0  0  0  0  0
  142.9016   76.3799  219.7416 H   0  0  0  0  0  0  0  0  0  0  0  0
  142.1166   78.6564  220.3336 H   0  0  0  0  0  0  0  0  0  0  0  0
  138.9089   79.1571  223.1652 H   0  0  0  0  0  0  0  0  0  0  0  0
  138.7785   76.6905  223.3943 H   0  0  0  0  0  0  0  0  0  0  0  0
  1  2  2  0
  2  3  1  0
  3  4  1  0
  4  5  1  0
  5  6  2  0
  5  7  1  0
  7  8  1  0
  8  9  1  0
  9 10  1  0
 10 11  1  0
 11 12  1  0
 12 13  1  0
 13 14  1  0
 14 15  1  0
 14 16  1  0
 14 17  1  0
  2 18  1  0
 18 19  2  0
 19 20  1  0
 20 21  2  0
 21 22  1  0
 22 23  2  0
 23 24  1  0
 23 25  1  0
 25 26  2  0
 26 27  1  0
 27 28  2  0
 12  7  1  0
 28 18  1  0
 27 21  1  0
  3 29  1  0
  4 30  1  0
  4 31  1  0
  8 32  1  0
  8 33  1  0
  9 34  1  0
  9 35  1  0
 10 36  1  0
 10 37  1  0
 11 38  1  0
 11 39  1  0
 12 40  1  6
 13 41  1  0
 13 42  1  0
 19 43  1  0
 20 44  1  0
 22 45  1  0
 25 46  1  0
 26 47  1  0
M  END
>  <smiles>  (47) 
O=C(NCC(=O)N1CCCCC1CC(F)(F)F)c1ccc2cc(F)ccc2n1

>  <score_type>  (47) 
oracle

>  <origin>  (47) 
autodockgpu

>  <m_score__min__energy>  (47) 
-7.2599999999999998

>  <m_primary>  (47) 
energy

>  <rmsd>  (47) 
8.609424242487645

>  <m_score__min__rmsd>  (47) 
8.609424242487645

>  <meeko>  (47) 
{"free_energy": -7.14, "intermolecular_energy": -8.93, "internal_energy": -1.78, "cluster_size": 8, "cluster_id": 2, "rank_in_cluster": 1}

>  <energy>  (47) 
-6.38

>  <cluster_rmsd>  (47) 
0.7

>  <cluster>  (47) 
3

$$$$

     RDKit          3D

 47 49  0  0  0  0  0  0  0  0999 V2000
  135.4920   69.3560  224.5500 O   0  0  0  0  0  0  0  0  0  0  0  0
  135.7080   70.5850  224.6520 C   0  0  0  0  0  0  0  0  0  0  0  0
  136.8220   71.2100  224.0750 N   0  0  0  0  0  0  0  0  0  0  0  0
  137.8250   70.5130  223.3090 C   0  0  0  0  0  0  0  0  0  0  0  0
  139.1450   70.7240  224.0060 C   0  0  0  0  0  0  0  0  0  0  0  0
  139.7900   71.7250  223.6580 O   0  0  0  0  0  0  0  0  0  0  0  0
  139.5050   69.7680  224.9710 N   0  0  0  0  0  0  0  0  0  0  0  0
  139.0820   68.3600  224.8750 C   0  0  0  0  0  0  0  0  0  0  0  0
  139.9710   67.4930  225.7380 C   0  0  0  0  0  0  0  0  0  0  0  0
  139.9550   67.9080  227.1780 C   0  0  0  0  0  0  0  0  0  0  0  0
  139.5830   69.4040  227.2810 C   0  0  0  0  0  0  0  0  0  0  0  0
  140.3280   70.0660  226.1610 C   0  0  2  0  0  0  0  0  0  0  0  0
  140.6340   71.4990  226.2900 C   0  0  0  0  0  0  0  0  0  0  0  0
  141.0240   71.8860  227.6880 C   0  0  0  0  0  0  0  0  0  0  0  0
  139.9870   72.2500  228.4950 F   0  0  0  0  0  0  0  0  0  0  0  0
  141.9110   72.9620  227.6400 F   0  0  0  0  0  0  0  0  0  0  0  0
  141.6930   70.8160  228.2680 F   0  0  0  0  0  0  0  0  0  0  0  0
  134.7360   71.3910  225.4180 C   0  0  0  0  0  0  0  0  0  0  0  0
  133.7360   70.7970  226.1590 C   0  0  0  0  0  0  0  0  0  0  0  0
  132.8370   71.5840  226.8700 C   0  0  0  0  0  0  0  0  0  0  0  0
  132.9590   72.9660  226.8220 C   0  0  0  0  0  0  0  0  0  0  0  0
  132.1060   73.8130  227.4990 C   0  0  0  0  0  0  0  0  0  0  0  0
  132.2660   75.1810  227.4220 C   0  0  0  0  0  0  0  0  0  0  0  0
  131.4380   76.0290  228.0790 F   0  0  0  0  0  0  0  0  0  0  0  0
  133.2730   75.7540  226.6740 C   0  0  0  0  0  0  0  0  0  0  0  0
  134.1190   74.9110  226.0030 C   0  0  0  0  0  0  0  0  0  0  0  0
  133.9680   73.5390  226.0730 C   0  0  0  0  0  0  0  0  0  0  0  0
  134.8190   72.7450  225.3990 N   0  0  0  0  0  0  0  0  0  0  0  0
  136.9180   72.2500  224.2160 H   0  0  0  0  0  0  0  0  0  0  0  0
  137.5885   69.4396  223.2668 H   0  0  0  0  0  0  0  0  0  0  0  0
  137.8629   70.8935  222.2776 H   0  0  0  0  0  0  0  0  0  0  0  0
  138.0406   68.2683  225.2173 H   0  0  0  0  0  0  0  0  0  0  0  0
  139.1612   68.0297  223.8288 H   0  0  0  0  0  0  0  0  0  0  0  0
  139.6239   66.4516  225.6673 H   0  0  0  0  0  0  0  0  0  0  0  0
  141.0021   67.6018  225.3705 H   0  0  0  0  0  0  0  0  0  0  0  0
  139.2125   67.3075  227.7240 H   0  0  0  0  0  0  0  0  0  0  0  0
  140.9513   67.7479  227.6159 H   0  0  0  0  0  0  0  0  0  0  0  0
  138.4985   69.5422  227.1591 H   0  0  0  0  0  0  0  0  0  0  0  0
  139.8460   69.8291  228.2609 H   0  0  0  0  0  0  0  0  0  0  0  0
  141.3519   69.6655  226.1257 H   0  0  0  0  0  0  0  0  0  0  0  0
  141.4654   71.7435  225.6125 H   0  0  0  0  0  0  0  0  0  0  0  0
  139.7217   72.0575  226.0334 H   0  0  0  0  0  0  0  0  0  0  0  0
  133.6496   69.7008  226.1875 H   0  0  0  0  0  0  0  0  0  0  0  0
  132.0378   71.1167  227.4641 H   0  0  0  0  0  0  0  0  0  0  0  0
  131.2903   73.3934  228.1061 H   0  0  0  0  0  0  0  0  0  0  0  0
  133.3923   76.8461  226.6183 H   0  0  0  0  0  0  0  0  0  0  0  0
  134.9338   75.3340  225.3971 H   0  0  0  0  0  0  0  0  0  0  0  0
  1  2  2  0
  2  3  1  0
  3  4  1  0
  4  5  1  0
  5  6  2  0
  5  7  1  0
  7  8  1  0
  8  9  1  0
  9 10  1  0
 10 11  1  0
 11 12  1  0
 12 13  1  0
 13 14  1  0
 14 15  1  0
 14 16  1  0
 14 17  1  0
  2 18  1  0
 18 19  2  0
 19 20  1  0
 20 21  2  0
 21 22  1  0
 22 23  2  0
 23 24  1  0
 23 25  1  0
 25 26  2  0
 26 27  1  0
 27 28  2  0
 12  7  1  0
 28 18  1  0
 27 21  1  0
  3 29  1  0
  4 30  1  0
  4 31  1  0
  8 32  1  0
  8 33  1  0
  9 34  1  0
  9 35  1  0
 10 36  1  0
 10 37  1  0
 11 38  1  0
 11 39  1  0
 12 40  1  6
 13 41  1  0
 13 42  1  0
 19 43  1  0
 20 44  1  0
 22 45  1  0
 25 46  1  0
 26 47  1  0
M  END
>  <smiles>  (48) 
O=C(NCC(=O)N1CCCCC1CC(F)(F)F)c1ccc2cc(F)ccc2n1

>  <score_type>  (48) 
oracle

>  <origin>  (48) 
autodockgpu

>  <m_score__min__energy>  (48) 
-7.2599999999999998

>  <m_primary>  (48) 
energy

>  <rmsd>  (48) 
8.228918706873447

>  <m_score__min__rmsd>  (48) 
8.228918706873447

>  <meeko>  (48) 
{"free_energy": -7.05, "intermolecular_energy": -8.84, "internal_energy": -1.42, "cluster_size": 2, "cluster_id": 4, "rank_in_cluster": 1}

>  <energy>  (48) 
-7.05

>  <cluster_rmsd>  (48) 
0.0

>  <cluster>  (48) 
4

$$$$

     RDKit          3D

 47 49  0  0  0  0  0  0  0  0999 V2000
  141.3040   72.0290  221.3970 O   0  0  0  0  0  0  0  0  0  0  0  0
  140.4900   72.4140  222.2660 C   0  0  0  0  0  0  0  0  0  0  0  0
  139.8140   73.6400  222.1830 N   0  0  0  0  0  0  0  0  0  0  0  0
  139.9820   74.5750  221.1000 C   0  0  0  0  0  0  0  0  0  0  0  0
  139.6060   75.9380  221.6250 C   0  0  0  0  0  0  0  0  0  0  0  0
  138.9810   75.9550  222.6960 O   0  0  0  0  0  0  0  0  0  0  0  0
  139.9980   77.0400  220.8470 N   0  0  0  0  0  0  0  0  0  0  0  0
  139.7200   77.1190  219.4020 C   0  0  0  0  0  0  0  0  0  0  0  0
  139.8120   78.5540  218.9350 C   0  0  0  0  0  0  0  0  0  0  0  0
  141.1550   79.1610  219.2050 C   0  0  0  0  0  0  0  0  0  0  0  0
  141.8230   78.4330  220.3920 C   0  0  0  0  0  0  0  0  0  0  0  0
  140.7190   78.2140  221.3820 C   0  0  2  0  0  0  0  0  0  0  0  0
  141.0850   78.0520  222.7980 C   0  0  0  0  0  0  0  0  0  0  0  0
  141.0880   79.3530  223.5490 C   0  0  0  0  0  0  0  0  0  0  0  0
  139.9330   79.6360  224.2160 F   0  0  0  0  0  0  0  0  0  0  0  0
  141.3210   80.4010  222.6580 F   0  0  0  0  0  0  0  0  0  0  0  0
  142.1400   79.3320  224.4560 F   0  0  0  0  0  0  0  0  0  0  0  0
  140.2460   71.5240  223.4200 C   0  0  0  0  0  0  0  0  0  0  0  0
  139.5790   70.3260  223.2730 C   0  0  0  0  0  0  0  0  0  0  0  0
  139.3650   69.5100  224.3790 C   0  0  0  0  0  0  0  0  0  0  0  0
  139.8300   69.9170  225.6220 C   0  0  0  0  0  0  0  0  0  0  0  0
  139.6560   69.1630  226.7650 C   0  0  0  0  0  0  0  0  0  0  0  0
  140.1350   69.6080  227.9790 C   0  0  0  0  0  0  0  0  0  0  0  0
  139.9740   68.8820  229.1130 F   0  0  0  0  0  0  0  0  0  0  0  0
  140.8000   70.8100  228.1030 C   0  0  0  0  0  0  0  0  0  0  0  0
  140.9710   71.5560  226.9670 C   0  0  0  0  0  0  0  0  0  0  0  0
  140.4950   71.1200  225.7440 C   0  0  0  0  0  0  0  0  0  0  0  0
  140.6830   71.8830  224.6520 N   0  0  0  0  0  0  0  0  0  0  0  0
  139.1480   73.8760  222.9650 H   0  0  0  0  0  0  0  0  0  0  0  0
  141.0290   74.5768  220.7626 H   0  0  0  0  0  0  0  0  0  0  0  0
  139.3494   74.2983  220.2437 H   0  0  0  0  0  0  0  0  0  0  0  0
  140.4557   76.5104  218.8558 H   0  0  0  0  0  0  0  0  0  0  0  0
  138.7053   76.7408  219.2085 H   0  0  0  0  0  0  0  0  0  0  0  0
  139.6222   78.5852  217.8519 H   0  0  0  0  0  0  0  0  0  0  0  0
  139.0642   79.1357  219.4939 H   0  0  0  0  0  0  0  0  0  0  0  0
  141.7883   79.0613  218.3111 H   0  0  0  0  0  0  0  0  0  0  0  0
  141.0318   80.2258  219.4519 H   0  0  0  0  0  0  0  0  0  0  0  0
  142.2474   77.4717  220.0669 H   0  0  0  0  0  0  0  0  0  0  0  0
  142.6530   79.0144  220.8198 H   0  0  0  0  0  0  0  0  0  0  0  0
  140.1170   79.1318  221.4548 H   0  0  0  0  0  0  0  0  0  0  0  0
  140.3614   77.3732  223.2730 H   0  0  0  0  0  0  0  0  0  0  0  0
  142.1069   77.6463  222.8325 H   0  0  0  0  0  0  0  0  0  0  0  0
  139.2164   70.0159  222.2818 H   0  0  0  0  0  0  0  0  0  0  0  0
  138.8334   68.5532  224.2699 H   0  0  0  0  0  0  0  0  0  0  0  0
  139.1305   68.1984  226.7069 H   0  0  0  0  0  0  0  0  0  0  0  0
  141.1783   71.1560  229.0762 H   0  0  0  0  0  0  0  0  0  0  0  0
  141.4969   72.5202  227.0287 H   0  0  0  0  0  0  0  0  0  0  0  0
  1  2  2  0
  2  3  1  0
  3  4  1  0
  4  5  1  0
  5  6  2  0
  5  7  1  0
  7  8  1  0
  8  9  1  0
  9 10  1  0
 10 11  1  0
 11 12  1  0
 12 13  1  0
 13 14  1  0
 14 15  1  0
 14 16  1  0
 14 17  1  0
  2 18  1  0
 18 19  2  0
 19 20  1  0
 20 21  2  0
 21 22  1  0
 22 23  2  0
 23 24  1  0
 23 25  1  0
 25 26  2  0
 26 27  1  0
 27 28  2  0
 12  7  1  0
 28 18  1  0
 27 21  1  0
  3 29  1  0
  4 30  1  0
  4 31  1  0
  8 32  1  0
  8 33  1  0
  9 34  1  0
  9 35  1  0
 10 36  1  0
 10 37  1  0
 11 38  1  0
 11 39  1  0
 12 40  1  1
 13 41  1  0
 13 42  1  0
 19 43  1  0
 20 44  1  0
 22 45  1  0
 25 46  1  0
 26 47  1  0
M  END
>  <smiles>  (49) 
O=C(NCC(=O)N1CCCCC1CC(F)(F)F)c1ccc2cc(F)ccc2n1

>  <score_type>  (49) 
oracle

>  <origin>  (49) 
autodockgpu

>  <m_score__min__energy>  (49) 
-7.2599999999999998

>  <m_primary>  (49) 
energy

>  <rmsd>  (49) 
2.2854470882314164

>  <m_score__min__rmsd>  (49) 
2.2854470882314164

>  <meeko>  (49) 
{"free_energy": -6.8, "intermolecular_energy": -8.59, "internal_energy": -1.58, "cluster_size": 24, "cluster_id": 1, "rank_in_cluster": 13}

>  <energy>  (49) 
-7.04

>  <cluster_rmsd>  (49) 
0.18

>  <cluster>  (49) 
4

$$$$

     RDKit          3D

 47 49  0  0  0  0  0  0  0  0999 V2000
  140.0960   71.0600  221.1370 O   0  0  0  0  0  0  0  0  0  0  0  0
  139.9040   71.6390  222.2300 C   0  0  0  0  0  0  0  0  0  0  0  0
  139.7550   73.0290  222.3380 N   0  0  0  0  0  0  0  0  0  0  0  0
  139.8060   73.9290  221.2130 C   0  0  0  0  0  0  0  0  0  0  0  0
  141.0660   74.7440  221.3500 C   0  0  0  0  0  0  0  0  0  0  0  0
  140.9790   75.7680  222.0460 O   0  0  0  0  0  0  0  0  0  0  0  0
  142.2020   74.2620  220.6780 N   0  0  0  0  0  0  0  0  0  0  0  0
  142.6700   72.8720  220.8280 C   0  0  0  0  0  0  0  0  0  0  0  0
  143.5760   72.5050  219.6740 C   0  0  0  0  0  0  0  0  0  0  0  0
  144.7650   73.4090  219.5660 C   0  0  0  0  0  0  0  0  0  0  0  0
  144.4350   74.7770  220.2050 C   0  0  0  0  0  0  0  0  0  0  0  0
  143.0330   75.0780  219.7690 C   0  0  2  0  0  0  0  0  0  0  0  0
  142.6100   76.4860  219.7330 C   0  0  0  0  0  0  0  0  0  0  0  0
  142.6500   77.0690  218.3490 C   0  0  0  0  0  0  0  0  0  0  0  0
  141.5060   76.9100  217.6240 F   0  0  0  0  0  0  0  0  0  0  0  0
  143.6860   76.4770  217.6260 F   0  0  0  0  0  0  0  0  0  0  0  0
  142.9330   78.4250  218.4530 F   0  0  0  0  0  0  0  0  0  0  0  0
  139.8340   70.8030  223.4470 C   0  0  0  0  0  0  0  0  0  0  0  0
  139.2680   69.5450  223.4210 C   0  0  0  0  0  0  0  0  0  0  0  0
  139.2190   68.7830  224.5830 C   0  0  0  0  0  0  0  0  0  0  0  0
  139.7420   69.3030  225.7590 C   0  0  0  0  0  0  0  0  0  0  0  0
  139.7290   68.6080  226.9510 C   0  0  0  0  0  0  0  0  0  0  0  0
  140.2610   69.1650  228.0950 C   0  0  0  0  0  0  0  0  0  0  0  0
  140.2570   68.4980  229.2750 F   0  0  0  0  0  0  0  0  0  0  0  0
  140.8210   70.4250  228.0970 C   0  0  0  0  0  0  0  0  0  0  0  0
  140.8330   71.1130  226.9120 C   0  0  0  0  0  0  0  0  0  0  0  0
  140.3030   70.5640  225.7600 C   0  0  0  0  0  0  0  0  0  0  0  0
  140.3330   71.2720  224.6170 N   0  0  0  0  0  0  0  0  0  0  0  0
  139.5970   73.4240  223.3020 H   0  0  0  0  0  0  0  0  0  0  0  0
  139.8276   73.3570  220.2737 H   0  0  0  0  0  0  0  0  0  0  0  0
  138.9200   74.5806  221.1943 H   0  0  0  0  0  0  0  0  0  0  0  0
  143.2252   72.7743  221.7726 H   0  0  0  0  0  0  0  0  0  0  0  0
  141.8016   72.1969  220.8347 H   0  0  0  0  0  0  0  0  0  0  0  0
  143.9296   71.4734  219.8178 H   0  0  0  0  0  0  0  0  0  0  0  0
  142.9933   72.6083  218.7467 H   0  0  0  0  0  0  0  0  0  0  0  0
  145.6186   72.9558  220.0914 H   0  0  0  0  0  0  0  0  0  0  0  0
  145.0199   73.5527  218.5056 H   0  0  0  0  0  0  0  0  0  0  0  0
  144.4947   74.7164  221.3017 H   0  0  0  0  0  0  0  0  0  0  0  0
  145.1423   75.5603  219.8950 H   0  0  0  0  0  0  0  0  0  0  0  0
  142.9298   74.8308  218.7021 H   0  0  0  0  0  0  0  0  0  0  0  0
  141.5802   76.5537  220.1136 H   0  0  0  0  0  0  0  0  0  0  0  0
  143.3127   77.0597  220.3552 H   0  0  0  0  0  0  0  0  0  0  0  0
  138.8562   69.1455  222.4825 H   0  0  0  0  0  0  0  0  0  0  0  0
  138.7705   67.7787  224.5705 H   0  0  0  0  0  0  0  0  0  0  0  0
  139.2901   67.6001  226.9891 H   0  0  0  0  0  0  0  0  0  0  0  0
  141.2421   70.8613  229.0148 H   0  0  0  0  0  0  0  0  0  0  0  0
  141.2726   72.1207  226.8772 H   0  0  0  0  0  0  0  0  0  0  0  0
  1  2  2  0
  2  3  1  0
  3  4  1  0
  4  5  1  0
  5  6  2  0
  5  7  1  0
  7  8  1  0
  8  9  1  0
  9 10  1  0
 10 11  1  0
 11 12  1  0
 12 13  1  0
 13 14  1  0
 14 15  1  0
 14 16  1  0
 14 17  1  0
  2 18  1  0
 18 19  2  0
 19 20  1  0
 20 21  2  0
 21 22  1  0
 22 23  2  0
 23 24  1  0
 23 25  1  0
 25 26  2  0
 26 27  1  0
 27 28  2  0
 12  7  1  0
 28 18  1  0
 27 21  1  0
  3 29  1  0
  4 30  1  0
  4 31  1  0
  8 32  1  0
  8 33  1  0
  9 34  1  0
  9 35  1  0
 10 36  1  0
 10 37  1  0
 11 38  1  0
 11 39  1  0
 12 40  1  6
 13 41  1  0
 13 42  1  0
 19 43  1  0
 20 44  1  0
 22 45  1  0
 25 46  1  0
 26 47  1  0
M  END
>  <smiles>  (50) 
O=C(NCC(=O)N1CCCCC1CC(F)(F)F)c1ccc2cc(F)ccc2n1

>  <score_type>  (50) 
oracle

>  <origin>  (50) 
autodockgpu

>  <m_score__min__energy>  (50) 
-7.2599999999999998

>  <m_primary>  (50) 
energy

>  <rmsd>  (50) 
2.567711468580131

>  <m_score__min__rmsd>  (50) 
2.567711468580131

>  <meeko>  (50) 
{"free_energy": -6.77, "intermolecular_energy": -8.56, "internal_energy": -1.36, "cluster_size": 15, "cluster_id": 3, "rank_in_cluster": 4}

>  <energy>  (50) 
-5.23

>  <cluster_rmsd>  (50) 
0.0

>  <cluster>  (50) 
5

$$$$

     RDKit          3D

 47 49  0  0  0  0  0  0  0  0999 V2000
  141.1130   72.0950  221.4530 O   0  0  0  0  0  0  0  0  0  0  0  0
  140.3350   72.3880  222.3980 C   0  0  0  0  0  0  0  0  0  0  0  0
  139.5670   73.6060  222.2510 N   0  0  0  0  0  0  0  0  0  0  0  0
  139.6440   74.4540  221.1370 C   0  0  0  0  0  0  0  0  0  0  0  0
  139.3000   75.8650  221.1860 C   0  0  0  0  0  0  0  0  0  0  0  0
  138.5290   76.2220  220.1890 O   0  0  0  0  0  0  0  0  0  0  0  0
  139.6340   76.8860  222.0810 N   0  0  0  0  0  0  0  0  0  0  0  0
  141.0300   77.0290  222.4580 C   0  0  0  0  0  0  0  0  0  0  0  0
  141.3600   78.5130  222.5570 C   0  0  0  0  0  0  0  0  0  0  0  0
  140.4170   79.1230  223.5600 C   0  0  0  0  0  0  0  0  0  0  0  0
  139.0510   79.1380  222.8810 C   0  0  0  0  0  0  0  0  0  0  0  0
  138.6090   77.7160  222.6610 C   0  0  1  0  0  0  0  0  0  0  0  0
  137.2420   77.6210  222.1130 C   0  0  0  0  0  0  0  0  0  0  0  0
  136.3890   76.6370  222.9540 C   0  0  0  0  0  0  0  0  0  0  0  0
  137.1290   75.6350  223.4860 F   0  0  0  0  0  0  0  0  0  0  0  0
  135.5630   76.0300  221.9880 F   0  0  0  0  0  0  0  0  0  0  0  0
  135.5320   77.2760  223.7950 F   0  0  0  0  0  0  0  0  0  0  0  0
  140.1990   71.5510  223.5930 C   0  0  0  0  0  0  0  0  0  0  0  0
  139.5280   70.3570  223.4500 C   0  0  0  0  0  0  0  0  0  0  0  0
  139.3610   69.5160  224.5360 C   0  0  0  0  0  0  0  0  0  0  0  0
  139.8730   69.8880  225.7580 C   0  0  0  0  0  0  0  0  0  0  0  0
  139.6970   69.0400  226.8210 C   0  0  0  0  0  0  0  0  0  0  0  0
  140.1940   69.3750  228.0580 C   0  0  0  0  0  0  0  0  0  0  0  0
  140.0120   68.5320  229.0900 F   0  0  0  0  0  0  0  0  0  0  0  0
  140.8700   70.5860  228.1890 C   0  0  0  0  0  0  0  0  0  0  0  0
  141.0390   71.4340  227.0940 C   0  0  0  0  0  0  0  0  0  0  0  0
  140.5390   71.0910  225.8620 C   0  0  0  0  0  0  0  0  0  0  0  0
  140.6880   71.8900  224.7890 N   0  0  0  0  0  0  0  0  0  0  0  0
  138.9310   73.7930  223.0860 H   0  0  0  0  0  0  0  0  0  0  0  0
  140.6885   74.4094  220.7950 H   0  0  0  0  0  0  0  0  0  0  0  0
  138.8381   74.0551  220.5034 H   0  0  0  0  0  0  0  0  0  0  0  0
  141.2019   76.5459  223.4312 H   0  0  0  0  0  0  0  0  0  0  0  0
  141.6726   76.5518  221.7034 H   0  0  0  0  0  0  0  0  0  0  0  0
  142.3997   78.6446  222.8913 H   0  0  0  0  0  0  0  0  0  0  0  0
  141.2492   78.9997  221.5768 H   0  0  0  0  0  0  0  0  0  0  0  0
  140.3841   78.5146  224.4758 H   0  0  0  0  0  0  0  0  0  0  0  0
  140.7356   80.1332  223.8568 H   0  0  0  0  0  0  0  0  0  0  0  0
  138.3238   79.6571  223.5226 H   0  0  0  0  0  0  0  0  0  0  0  0
  139.1157   79.6650  221.9176 H   0  0  0  0  0  0  0  0  0  0  0  0
  138.4856   77.2393  223.6446 H   0  0  0  0  0  0  0  0  0  0  0  0
  136.7733   78.6159  222.1339 H   0  0  0  0  0  0  0  0  0  0  0  0
  137.2975   77.2506  221.0787 H   0  0  0  0  0  0  0  0  0  0  0  0
  139.1230   70.0706  222.4682 H   0  0  0  0  0  0  0  0  0  0  0  0
  138.8255   68.5617  224.4239 H   0  0  0  0  0  0  0  0  0  0  0  0
  139.1578   68.0911  226.6838 H   0  0  0  0  0  0  0  0  0  0  0  0
  141.2760   70.8776  229.1689 H   0  0  0  0  0  0  0  0  0  0  0  0
  141.5772   72.3852  227.2187 H   0  0  0  0  0  0  0  0  0  0  0  0
  1  2  2  0
  2  3  1  0
  3  4  1  0
  4  5  1  0
  5  6  2  0
  5  7  1  0
  7  8  1  0
  8  9  1  0
  9 10  1  0
 10 11  1  0
 11 12  1  0
 12 13  1  0
 13 14  1  0
 14 15  1  0
 14 16  1  0
 14 17  1  0
  2 18  1  0
 18 19  2  0
 19 20  1  0
 20 21  2  0
 21 22  1  0
 22 23  2  0
 23 24  1  0
 23 25  1  0
 25 26  2  0
 26 27  1  0
 27 28  2  0
 12  7  1  0
 28 18  1  0
 27 21  1  0
  3 29  1  0
  4 30  1  0
  4 31  1  0
  8 32  1  0
  8 33  1  0
  9 34  1  0
  9 35  1  0
 10 36  1  0
 10 37  1  0
 11 38  1  0
 11 39  1  0
 12 40  1  1
 13 41  1  0
 13 42  1  0
 19 43  1  0
 20 44  1  0
 22 45  1  0
 25 46  1  0
 26 47  1  0
M  END
>  <smiles>  (51) 
O=C(NCC(=O)N1CCCCC1CC(F)(F)F)c1ccc2cc(F)ccc2n1

>  <score_type>  (51) 
oracle

>  <origin>  (51) 
autodockgpu

>  <m_score__min__energy>  (51) 
-7.0999999999999996

>  <m_primary>  (51) 
energy

>  <rmsd>  (51) 
3.2782792731154173

>  <m_score__min__rmsd>  (51) 
3.2782792731154173

>  <meeko>  (51) 
{"free_energy": -6.78, "intermolecular_energy": -8.57, "internal_energy": -0.9, "cluster_size": 2, "cluster_id": 5, "rank_in_cluster": 1}

>  <energy>  (51) 
-7.1

>  <cluster_rmsd>  (51) 
0.0

>  <cluster>  (51) 
1

$$$$

     RDKit          3D

 47 49  0  0  0  0  0  0  0  0999 V2000
  141.5470   72.9050  220.7890 O   0  0  0  0  0  0  0  0  0  0  0  0
  140.9360   73.7150  221.5330 C   0  0  0  0  0  0  0  0  0  0  0  0
  140.0190   73.1440  222.4980 N   0  0  0  0  0  0  0  0  0  0  0  0
  139.7860   71.7680  222.6410 C   0  0  0  0  0  0  0  0  0  0  0  0
  139.2590   71.1740  223.8570 C   0  0  0  0  0  0  0  0  0  0  0  0
  138.0200   71.5320  224.0880 O   0  0  0  0  0  0  0  0  0  0  0  0
  139.8190   70.3090  224.8030 N   0  0  0  0  0  0  0  0  0  0  0  0
  140.8830   70.8230  225.6470 C   0  0  0  0  0  0  0  0  0  0  0  0
  140.7060   70.2640  227.0530 C   0  0  0  0  0  0  0  0  0  0  0  0
  140.7140   68.7630  226.9500 C   0  0  0  0  0  0  0  0  0  0  0  0
  139.3940   68.3900  226.2830 C   0  0  0  0  0  0  0  0  0  0  0  0
  139.3960   68.9330  224.8790 C   0  0  1  0  0  0  0  0  0  0  0  0
  138.2060   68.5260  224.1070 C   0  0  0  0  0  0  0  0  0  0  0  0
  138.6280   67.7450  222.8360 C   0  0  0  0  0  0  0  0  0  0  0  0
  139.2880   68.5220  221.9460 F   0  0  0  0  0  0  0  0  0  0  0  0
  137.3930   67.4340  222.2320 F   0  0  0  0  0  0  0  0  0  0  0  0
  139.1870   66.5390  223.1270 F   0  0  0  0  0  0  0  0  0  0  0  0
  141.1280   75.1650  221.4450 C   0  0  0  0  0  0  0  0  0  0  0  0
  141.8530   75.6370  220.3720 C   0  0  0  0  0  0  0  0  0  0  0  0
  142.0740   76.9940  220.2240 C   0  0  0  0  0  0  0  0  0  0  0  0
  141.5630   77.8650  221.1600 C   0  0  0  0  0  0  0  0  0  0  0  0
  141.7930   79.2060  220.9940 C   0  0  0  0  0  0  0  0  0  0  0  0
  141.2990   80.1070  221.9060 C   0  0  0  0  0  0  0  0  0  0  0  0
  141.5350   81.4200  221.7290 F   0  0  0  0  0  0  0  0  0  0  0  0
  140.5690   79.6160  222.9860 C   0  0  0  0  0  0  0  0  0  0  0  0
  140.3450   78.2470  223.1360 C   0  0  0  0  0  0  0  0  0  0  0  0
  140.8430   77.3530  222.2190 C   0  0  0  0  0  0  0  0  0  0  0  0
  140.6410   76.0280  222.3390 N   0  0  0  0  0  0  0  0  0  0  0  0
  139.5360   73.8840  223.0930 H   0  0  0  0  0  0  0  0  0  0  0  0
  139.0810   71.4960  221.8416 H   0  0  0  0  0  0  0  0  0  0  0  0
  140.8116   71.3705  222.6305 H   0  0  0  0  0  0  0  0  0  0  0  0
  141.8579   70.5105  225.2447 H   0  0  0  0  0  0  0  0  0  0  0  0
  140.8421   71.9219  225.6733 H   0  0  0  0  0  0  0  0  0  0  0  0
  141.5319   70.6002  227.6971 H   0  0  0  0  0  0  0  0  0  0  0  0
  139.7611   70.6161  227.4926 H   0  0  0  0  0  0  0  0  0  0  0  0
  141.5627   68.4248  226.3374 H   0  0  0  0  0  0  0  0  0  0  0  0
  140.8197   68.2881  227.9366 H   0  0  0  0  0  0  0  0  0  0  0  0
  139.2881   67.2954  226.2570 H   0  0  0  0  0  0  0  0  0  0  0  0
  138.5528   68.8156  226.8497 H   0  0  0  0  0  0  0  0  0  0  0  0
  140.2017   68.4348  224.3200 H   0  0  0  0  0  0  0  0  0  0  0  0
  137.5701   67.8829  224.7332 H   0  0  0  0  0  0  0  0  0  0  0  0
  137.6513   69.4266  223.8049 H   0  0  0  0  0  0  0  0  0  0  0  0
  142.2572   74.9318  219.6308 H   0  0  0  0  0  0  0  0  0  0  0  0
  142.6516   77.3734  219.3681 H   0  0  0  0  0  0  0  0  0  0  0  0
  142.3736   79.5611  220.1298 H   0  0  0  0  0  0  0  0  0  0  0  0
  140.1637   80.3169  223.7306 H   0  0  0  0  0  0  0  0  0  0  0  0
  139.7648   77.8803  223.9956 H   0  0  0  0  0  0  0  0  0  0  0  0
  1  2  2  0
  2  3  1  0
  3  4  1  0
  4  5  1  0
  5  6  2  0
  5  7  1  0
  7  8  1  0
  8  9  1  0
  9 10  1  0
 10 11  1  0
 11 12  1  0
 12 13  1  0
 13 14  1  0
 14 15  1  0
 14 16  1  0
 14 17  1  0
  2 18  1  0
 18 19  2  0
 19 20  1  0
 20 21  2  0
 21 22  1  0
 22 23  2  0
 23 24  1  0
 23 25  1  0
 25 26  2  0
 26 27  1  0
 27 28  2  0
 12  7  1  0
 28 18  1  0
 27 21  1  0
  3 29  1  0
  4 30  1  0
  4 31  1  0
  8 32  1  0
  8 33  1  0
  9 34  1  0
  9 35  1  0
 10 36  1  0
 10 37  1  0
 11 38  1  0
 11 39  1  0
 12 40  1  6
 13 41  1  0
 13 42  1  0
 19 43  1  0
 20 44  1  0
 22 45  1  0
 25 46  1  0
 26 47  1  0
M  END
>  <smiles>  (52) 
O=C(NCC(=O)N1CCCCC1CC(F)(F)F)c1ccc2cc(F)ccc2n1

>  <score_type>  (52) 
oracle

>  <origin>  (52) 
autodockgpu

>  <m_score__min__energy>  (52) 
-7.0999999999999996

>  <m_primary>  (52) 
energy

>  <rmsd>  (52) 
8.912855295435316

>  <m_score__min__rmsd>  (52) 
8.912855295435316

>  <meeko>  (52) 
{"free_energy": -6.56, "intermolecular_energy": -8.35, "internal_energy": -1.19, "cluster_size": 2, "cluster_id": 7, "rank_in_cluster": 2}

>  <energy>  (52) 
-7.07

>  <cluster_rmsd>  (52) 
1.48

>  <cluster>  (52) 
1

$$$$

     RDKit          3D

 47 49  0  0  0  0  0  0  0  0999 V2000
  140.5280   71.3310  221.4190 O   0  0  0  0  0  0  0  0  0  0  0  0
  140.0900   71.7710  222.5140 C   0  0  0  0  0  0  0  0  0  0  0  0
  139.5860   73.1280  222.5120 N   0  0  0  0  0  0  0  0  0  0  0  0
  139.5600   73.9540  221.3790 C   0  0  0  0  0  0  0  0  0  0  0  0
  140.4450   75.0940  221.2070 C   0  0  0  0  0  0  0  0  0  0  0  0
  140.3640   75.9400  222.2030 O   0  0  0  0  0  0  0  0  0  0  0  0
  141.3440   75.4440  220.1950 N   0  0  0  0  0  0  0  0  0  0  0  0
  141.0510   76.6270  219.4040 C   0  0  0  0  0  0  0  0  0  0  0  0
  142.3550   77.3640  219.1240 C   0  0  0  0  0  0  0  0  0  0  0  0
  143.2780   76.4050  218.4220 C   0  0  0  0  0  0  0  0  0  0  0  0
  143.6990   75.3910  219.4810 C   0  0  0  0  0  0  0  0  0  0  0  0
  142.4840   74.6100  219.9060 C   0  0  1  0  0  0  0  0  0  0  0  0
  142.8060   73.5210  220.8480 C   0  0  0  0  0  0  0  0  0  0  0  0
  143.8520   72.5600  220.2260 C   0  0  0  0  0  0  0  0  0  0  0  0
  145.1150   73.0390  220.3210 F   0  0  0  0  0  0  0  0  0  0  0  0
  143.5330   72.5890  218.8550 F   0  0  0  0  0  0  0  0  0  0  0  0
  143.6600   71.2670  220.6020 F   0  0  0  0  0  0  0  0  0  0  0  0
  140.0830   70.9670  223.7390 C   0  0  0  0  0  0  0  0  0  0  0  0
  139.5470   69.7010  223.6550 C   0  0  0  0  0  0  0  0  0  0  0  0
  139.5060   68.8850  224.7710 C   0  0  0  0  0  0  0  0  0  0  0  0
  140.0070   69.3550  225.9650 C   0  0  0  0  0  0  0  0  0  0  0  0
  139.9570   68.5300  227.0590 C   0  0  0  0  0  0  0  0  0  0  0  0
  140.4480   68.9610  228.2680 C   0  0  0  0  0  0  0  0  0  0  0  0
  140.3910   68.1410  229.3320 F   0  0  0  0  0  0  0  0  0  0  0  0
  140.9860   70.2450  228.3390 C   0  0  0  0  0  0  0  0  0  0  0  0
  141.0270   71.0670  227.2130 C   0  0  0  0  0  0  0  0  0  0  0  0
  140.5350   70.6280  226.0090 C   0  0  0  0  0  0  0  0  0  0  0  0
  140.5630   71.4000  224.9070 N   0  0  0  0  0  0  0  0  0  0  0  0
  139.2320   73.4360  223.4690 H   0  0  0  0  0  0  0  0  0  0  0  0
  139.7464   73.2939  220.5191 H   0  0  0  0  0  0  0  0  0  0  0  0
  138.5844   74.4495  221.4918 H   0  0  0  0  0  0  0  0  0  0  0  0
  140.5824   76.3302  218.4541 H   0  0  0  0  0  0  0  0  0  0  0  0
  140.3606   77.2835  219.9539 H   0  0  0  0  0  0  0  0  0  0  0  0
  142.1624   78.2366  218.4826 H   0  0  0  0  0  0  0  0  0  0  0  0
  142.8072   77.7189  220.0618 H   0  0  0  0  0  0  0  0  0  0  0  0
  142.7535   75.9022  217.5961 H   0  0  0  0  0  0  0  0  0  0  0  0
  144.1456   76.9212  217.9852 H   0  0  0  0  0  0  0  0  0  0  0  0
  144.4513   74.7071  219.0612 H   0  0  0  0  0  0  0  0  0  0  0  0
  144.1346   75.9104  220.3473 H   0  0  0  0  0  0  0  0  0  0  0  0
  142.1169   74.0479  219.0347 H   0  0  0  0  0  0  0  0  0  0  0  0
  143.2150   73.9517  221.7739 H   0  0  0  0  0  0  0  0  0  0  0  0
  141.8881   72.9558  221.0673 H   0  0  0  0  0  0  0  0  0  0  0  0
  139.1497   69.3372  222.6959 H   0  0  0  0  0  0  0  0  0  0  0  0
  139.0787   67.8735  224.7059 H   0  0  0  0  0  0  0  0  0  0  0  0
  139.5238   67.5229  226.9689 H   0  0  0  0  0  0  0  0  0  0  0  0
  141.3834   70.6148  229.2957 H   0  0  0  0  0  0  0  0  0  0  0  0
  141.4575   72.0763  227.2904 H   0  0  0  0  0  0  0  0  0  0  0  0
  1  2  2  0
  2  3  1  0
  3  4  1  0
  4  5  1  0
  5  6  2  0
  5  7  1  0
  7  8  1  0
  8  9  1  0
  9 10  1  0
 10 11  1  0
 11 12  1  0
 12 13  1  0
 13 14  1  0
 14 15  1  0
 14 16  1  0
 14 17  1  0
  2 18  1  0
 18 19  2  0
 19 20  1  0
 20 21  2  0
 21 22  1  0
 22 23  2  0
 23 24  1  0
 23 25  1  0
 25 26  2  0
 26 27  1  0
 27 28  2  0
 12  7  1  0
 28 18  1  0
 27 21  1  0
  3 29  1  0
  4 30  1  0
  4 31  1  0
  8 32  1  0
  8 33  1  0
  9 34  1  0
  9 35  1  0
 10 36  1  0
 10 37  1  0
 11 38  1  0
 11 39  1  0
 12 40  1  6
 13 41  1  0
 13 42  1  0
 19 43  1  0
 20 44  1  0
 22 45  1  0
 25 46  1  0
 26 47  1  0
M  END
>  <smiles>  (53) 
O=C(NCC(=O)N1CCCCC1CC(F)(F)F)c1ccc2cc(F)ccc2n1

>  <score_type>  (53) 
oracle

>  <origin>  (53) 
autodockgpu

>  <m_score__min__energy>  (53) 
-7.0999999999999996

>  <m_primary>  (53) 
energy

>  <rmsd>  (53) 
2.268508961387306

>  <m_score__min__rmsd>  (53) 
2.268508961387306

>  <meeko>  (53) 
{"free_energy": -6.68, "intermolecular_energy": -8.47, "internal_energy": -1.21, "cluster_size": 14, "cluster_id": 2, "rank_in_cluster": 9}

>  <energy>  (53) 
-6.87

>  <cluster_rmsd>  (53) 
1.92

>  <cluster>  (53) 
1

$$$$

     RDKit          3D

 47 49  0  0  0  0  0  0  0  0999 V2000
  140.2950   73.5660  222.3270 O   0  0  0  0  0  0  0  0  0  0  0  0
  140.3360   72.3080  222.3120 C   0  0  0  0  0  0  0  0  0  0  0  0
  140.5080   71.6820  221.0180 N   0  0  0  0  0  0  0  0  0  0  0  0
  140.6290   72.3890  219.8130 C   0  0  0  0  0  0  0  0  0  0  0  0
  141.9100   72.7450  219.2250 C   0  0  0  0  0  0  0  0  0  0  0  0
  142.6600   71.6950  218.9980 O   0  0  0  0  0  0  0  0  0  0  0  0
  142.4740   73.9730  218.8670 N   0  0  0  0  0  0  0  0  0  0  0  0
  141.8590   74.7120  217.7780 C   0  0  0  0  0  0  0  0  0  0  0  0
  141.8810   76.1970  218.1200 C   0  0  0  0  0  0  0  0  0  0  0  0
  143.3150   76.5870  218.3550 C   0  0  0  0  0  0  0  0  0  0  0  0
  143.7040   75.9420  219.6820 C   0  0  0  0  0  0  0  0  0  0  0  0
  143.6710   74.4460  219.5150 C   0  0  1  0  0  0  0  0  0  0  0  0
  144.1450   73.7280  220.7130 C   0  0  0  0  0  0  0  0  0  0  0  0
  145.5340   73.0910  220.4480 C   0  0  0  0  0  0  0  0  0  0  0  0
  146.4460   73.4300  221.3900 F   0  0  0  0  0  0  0  0  0  0  0  0
  145.9520   73.7270  219.2630 F   0  0  0  0  0  0  0  0  0  0  0  0
  145.4490   71.7720  220.1260 F   0  0  0  0  0  0  0  0  0  0  0  0
  140.2190   71.5010  223.5290 C   0  0  0  0  0  0  0  0  0  0  0  0
  139.5790   70.2870  223.4170 C   0  0  0  0  0  0  0  0  0  0  0  0
  139.4310   69.4710  224.5250 C   0  0  0  0  0  0  0  0  0  0  0  0
  139.9310   69.8900  225.7380 C   0  0  0  0  0  0  0  0  0  0  0  0
  139.7740   69.0670  226.8230 C   0  0  0  0  0  0  0  0  0  0  0  0
  140.2590   69.4480  228.0510 C   0  0  0  0  0  0  0  0  0  0  0  0
  140.0960   68.6290  229.1060 F   0  0  0  0  0  0  0  0  0  0  0  0
  140.9030   70.6790  228.1500 C   0  0  0  0  0  0  0  0  0  0  0  0
  141.0530   71.5010  227.0330 C   0  0  0  0  0  0  0  0  0  0  0  0
  140.5650   71.1130  225.8100 C   0  0  0  0  0  0  0  0  0  0  0  0
  140.6960   71.8860  224.7150 N   0  0  0  0  0  0  0  0  0  0  0  0
  140.5340   70.6180  221.0770 H   0  0  0  0  0  0  0  0  0  0  0  0
  140.1056   71.7871  219.0556 H   0  0  0  0  0  0  0  0  0  0  0  0
  140.2383   73.3766  220.0993 H   0  0  0  0  0  0  0  0  0  0  0  0
  142.4214   74.5380  216.8488 H   0  0  0  0  0  0  0  0  0  0  0  0
  140.8212   74.3758  217.6366 H   0  0  0  0  0  0  0  0  0  0  0  0
  141.4652   76.7806  217.2854 H   0  0  0  0  0  0  0  0  0  0  0  0
  141.2740   76.3969  219.0153 H   0  0  0  0  0  0  0  0  0  0  0  0
  143.9536   76.2094  217.5428 H   0  0  0  0  0  0  0  0  0  0  0  0
  143.4404   77.6795  218.3815 H   0  0  0  0  0  0  0  0  0  0  0  0
  144.7175   76.2612  219.9665 H   0  0  0  0  0  0  0  0  0  0  0  0
  143.0004   76.2484  220.4701 H   0  0  0  0  0  0  0  0  0  0  0  0
  144.4341   74.1665  218.7737 H   0  0  0  0  0  0  0  0  0  0  0  0
  144.2249   74.4355  221.5515 H   0  0  0  0  0  0  0  0  0  0  0  0
  143.4279   72.9306  220.9578 H   0  0  0  0  0  0  0  0  0  0  0  0
  139.1836   69.9643  222.4426 H   0  0  0  0  0  0  0  0  0  0  0  0
  138.9207   68.5004  224.4380 H   0  0  0  0  0  0  0  0  0  0  0  0
  139.2596   68.1012  226.7106 H   0  0  0  0  0  0  0  0  0  0  0  0
  141.2988   71.0075  229.1223 H   0  0  0  0  0  0  0  0  0  0  0  0
  141.5668   72.4685  227.1331 H   0  0  0  0  0  0  0  0  0  0  0  0
  1  2  2  0
  2  3  1  0
  3  4  1  0
  4  5  1  0
  5  6  2  0
  5  7  1  0
  7  8  1  0
  8  9  1  0
  9 10  1  0
 10 11  1  0
 11 12  1  0
 12 13  1  0
 13 14  1  0
 14 15  1  0
 14 16  1  0
 14 17  1  0
  2 18  1  0
 18 19  2  0
 19 20  1  0
 20 21  2  0
 21 22  1  0
 22 23  2  0
 23 24  1  0
 23 25  1  0
 25 26  2  0
 26 27  1  0
 27 28  2  0
 12  7  1  0
 28 18  1  0
 27 21  1  0
  3 29  1  0
  4 30  1  0
  4 31  1  0
  8 32  1  0
  8 33  1  0
  9 34  1  0
  9 35  1  0
 10 36  1  0
 10 37  1  0
 11 38  1  0
 11 39  1  0
 12 40  1  6
 13 41  1  0
 13 42  1  0
 19 43  1  0
 20 44  1  0
 22 45  1  0
 25 46  1  0
 26 47  1  0
M  END
>  <smiles>  (54) 
O=C(NCC(=O)N1CCCCC1CC(F)(F)F)c1ccc2cc(F)ccc2n1

>  <score_type>  (54) 
oracle

>  <origin>  (54) 
autodockgpu

>  <m_score__min__energy>  (54) 
-7.0999999999999996

>  <m_primary>  (54) 
energy

>  <rmsd>  (54) 
2.7891894670621236

>  <m_score__min__rmsd>  (54) 
2.7891894670621236

>  <meeko>  (54) 
{"free_energy": -6.57, "intermolecular_energy": -8.36, "internal_energy": -1.07, "cluster_size": 14, "cluster_id": 2, "rank_in_cluster": 13}

>  <energy>  (54) 
-6.67

>  <cluster_rmsd>  (54) 
0.96

>  <cluster>  (54) 
1

$$$$

     RDKit          3D

 47 49  0  0  0  0  0  0  0  0999 V2000
  140.3330   73.0220  222.6190 O   0  0  0  0  0  0  0  0  0  0  0  0
  140.3240   71.7740  222.7780 C   0  0  0  0  0  0  0  0  0  0  0  0
  140.2380   70.9680  221.5780 N   0  0  0  0  0  0  0  0  0  0  0  0
  140.1690   71.4970  220.2810 C   0  0  0  0  0  0  0  0  0  0  0  0
  141.2730   72.2000  219.6490 C   0  0  0  0  0  0  0  0  0  0  0  0
  141.0980   72.3420  218.3590 O   0  0  0  0  0  0  0  0  0  0  0  0
  142.4590   72.7410  220.1560 N   0  0  0  0  0  0  0  0  0  0  0  0
  143.5390   71.8250  220.4780 C   0  0  0  0  0  0  0  0  0  0  0  0
  144.8620   72.4680  220.0790 C   0  0  0  0  0  0  0  0  0  0  0  0
  144.9690   73.7790  220.8100 C   0  0  0  0  0  0  0  0  0  0  0  0
  143.9470   74.7010  220.1510 C   0  0  0  0  0  0  0  0  0  0  0  0
  142.5690   74.1540  220.4150 C   0  0  1  0  0  0  0  0  0  0  0  0
  141.4990   75.0390  219.9160 C   0  0  0  0  0  0  0  0  0  0  0  0
  141.1250   76.0930  220.9890 C   0  0  0  0  0  0  0  0  0  0  0  0
  141.1050   75.5750  222.2390 F   0  0  0  0  0  0  0  0  0  0  0  0
  139.7850   76.3980  220.6790 F   0  0  0  0  0  0  0  0  0  0  0  0
  141.7960   77.2650  220.8250 F   0  0  0  0  0  0  0  0  0  0  0  0
  140.3950   71.1480  224.1010 C   0  0  0  0  0  0  0  0  0  0  0  0
  140.9420   71.8960  225.1200 C   0  0  0  0  0  0  0  0  0  0  0  0
  141.0410   71.3700  226.3960 C   0  0  0  0  0  0  0  0  0  0  0  0
  140.5870   70.0920  226.6320 C   0  0  0  0  0  0  0  0  0  0  0  0
  140.6950   69.5890  227.9030 C   0  0  0  0  0  0  0  0  0  0  0  0
  140.2520   68.3180  228.1800 C   0  0  0  0  0  0  0  0  0  0  0  0
  140.3650   67.8390  229.4320 F   0  0  0  0  0  0  0  0  0  0  0  0
  139.7020   67.5720  227.1400 C   0  0  0  0  0  0  0  0  0  0  0  0
  139.6010   68.1030  225.8540 C   0  0  0  0  0  0  0  0  0  0  0  0
  140.0460   69.3740  225.5860 C   0  0  0  0  0  0  0  0  0  0  0  0
  139.9600   69.9110  224.3540 N   0  0  0  0  0  0  0  0  0  0  0  0
  140.2340   69.9230  221.7840 H   0  0  0  0  0  0  0  0  0  0  0  0
  139.9332   70.6492  219.6210 H   0  0  0  0  0  0  0  0  0  0  0  0
  139.4410   72.3105  220.4157 H   0  0  0  0  0  0  0  0  0  0  0  0
  143.5391   71.6184  221.5584 H   0  0  0  0  0  0  0  0  0  0  0  0
  143.4029   70.8794  219.9327 H   0  0  0  0  0  0  0  0  0  0  0  0
  145.6984   71.8117  220.3614 H   0  0  0  0  0  0  0  0  0  0  0  0
  144.9017   72.6276  218.9914 H   0  0  0  0  0  0  0  0  0  0  0  0
  144.7336   73.6445  221.8761 H   0  0  0  0  0  0  0  0  0  0  0  0
  145.9863   74.1938  220.7551 H   0  0  0  0  0  0  0  0  0  0  0  0
  144.0321   75.7124  220.5750 H   0  0  0  0  0  0  0  0  0  0  0  0
  144.1303   74.7533  219.0676 H   0  0  0  0  0  0  0  0  0  0  0  0
  142.3913   74.1817  221.5002 H   0  0  0  0  0  0  0  0  0  0  0  0
  141.8481   75.5537  219.0087 H   0  0  0  0  0  0  0  0  0  0  0  0
  140.6108   74.4314  219.6880 H   0  0  0  0  0  0  0  0  0  0  0  0
  141.3017   72.9158  224.9186 H   0  0  0  0  0  0  0  0  0  0  0  0
  141.4770   71.9656  227.2116 H   0  0  0  0  0  0  0  0  0  0  0  0
  141.1366   70.2033  228.7015 H   0  0  0  0  0  0  0  0  0  0  0  0
  139.3426   66.5509  227.3354 H   0  0  0  0  0  0  0  0  0  0  0  0
  139.1609   67.4981  225.0475 H   0  0  0  0  0  0  0  0  0  0  0  0
  1  2  2  0
  2  3  1  0
  3  4  1  0
  4  5  1  0
  5  6  2  0
  5  7  1  0
  7  8  1  0
  8  9  1  0
  9 10  1  0
 10 11  1  0
 11 12  1  0
 12 13  1  0
 13 14  1  0
 14 15  1  0
 14 16  1  0
 14 17  1  0
  2 18  1  0
 18 19  2  0
 19 20  1  0
 20 21  2  0
 21 22  1  0
 22 23  2  0
 23 24  1  0
 23 25  1  0
 25 26  2  0
 26 27  1  0
 27 28  2  0
 12  7  1  0
 28 18  1  0
 27 21  1  0
  3 29  1  0
  4 30  1  0
  4 31  1  0
  8 32  1  0
  8 33  1  0
  9 34  1  0
  9 35  1  0
 10 36  1  0
 10 37  1  0
 11 38  1  0
 11 39  1  0
 12 40  1  1
 13 41  1  0
 13 42  1  0
 19 43  1  0
 20 44  1  0
 22 45  1  0
 25 46  1  0
 26 47  1  0
M  END
>  <smiles>  (55) 
O=C(NCC(=O)N1CCCCC1CC(F)(F)F)c1ccc2cc(F)ccc2n1

>  <score_type>  (55) 
oracle

>  <origin>  (55) 
autodockgpu

>  <m_score__min__energy>  (55) 
-7.0999999999999996

>  <m_primary>  (55) 
energy

>  <rmsd>  (55) 
3.9957796128883016

>  <m_score__min__rmsd>  (55) 
3.9957796128883016

>  <meeko>  (55) 
{"free_energy": -6.42, "intermolecular_energy": -8.21, "internal_energy": -1.53, "cluster_size": 18, "cluster_id": 6, "rank_in_cluster": 14}

>  <energy>  (55) 
-7.08

>  <cluster_rmsd>  (55) 
0.0

>  <cluster>  (55) 
2

$$$$

     RDKit          3D

 47 49  0  0  0  0  0  0  0  0999 V2000
  140.9040   71.5170  221.4420 O   0  0  0  0  0  0  0  0  0  0  0  0
  140.3080   71.9200  222.4750 C   0  0  0  0  0  0  0  0  0  0  0  0
  139.7140   73.2390  222.4080 N   0  0  0  0  0  0  0  0  0  0  0  0
  139.7680   74.0680  221.2790 C   0  0  0  0  0  0  0  0  0  0  0  0
  140.6070   75.2520  221.2010 C   0  0  0  0  0  0  0  0  0  0  0  0
  140.6530   75.9020  222.3370 O   0  0  0  0  0  0  0  0  0  0  0  0
  141.3560   75.8100  220.1600 N   0  0  0  0  0  0  0  0  0  0  0  0
  140.7930   76.9470  219.4530 C   0  0  0  0  0  0  0  0  0  0  0  0
  141.9130   77.9310  219.1390 C   0  0  0  0  0  0  0  0  0  0  0  0
  142.9510   77.1970  218.3350 C   0  0  0  0  0  0  0  0  0  0  0  0
  143.6250   76.2390  219.3120 C   0  0  0  0  0  0  0  0  0  0  0  0
  142.6100   75.2220  219.7620 C   0  0  1  0  0  0  0  0  0  0  0  0
  143.1930   74.1760  220.6230 C   0  0  0  0  0  0  0  0  0  0  0  0
  144.6260   73.8220  220.1490 C   0  0  0  0  0  0  0  0  0  0  0  0
  144.7110   73.7020  218.8030 F   0  0  0  0  0  0  0  0  0  0  0  0
  144.8190   72.5240  220.6620 F   0  0  0  0  0  0  0  0  0  0  0  0
  145.5790   74.5820  220.7550 F   0  0  0  0  0  0  0  0  0  0  0  0
  140.2080   71.1100  223.6920 C   0  0  0  0  0  0  0  0  0  0  0  0
  139.5840   69.8860  223.5820 C   0  0  0  0  0  0  0  0  0  0  0  0
  139.4540   69.0680  224.6900 C   0  0  0  0  0  0  0  0  0  0  0  0
  139.9540   69.4920  225.9000 C   0  0  0  0  0  0  0  0  0  0  0  0
  139.8140   68.6660  226.9860 C   0  0  0  0  0  0  0  0  0  0  0  0
  140.3010   69.0520  228.2110 C   0  0  0  0  0  0  0  0  0  0  0  0
  140.1550   68.2300  229.2660 F   0  0  0  0  0  0  0  0  0  0  0  0
  140.9280   70.2920  228.3080 C   0  0  0  0  0  0  0  0  0  0  0  0
  141.0600   71.1180  227.1920 C   0  0  0  0  0  0  0  0  0  0  0  0
  140.5710   70.7230  225.9700 C   0  0  0  0  0  0  0  0  0  0  0  0
  140.6850   71.4990  224.8760 N   0  0  0  0  0  0  0  0  0  0  0  0
  139.2270   73.5160  223.3150 H   0  0  0  0  0  0  0  0  0  0  0  0
  140.0785   73.4221  220.4445 H   0  0  0  0  0  0  0  0  0  0  0  0
  138.7623   74.5136  221.2874 H   0  0  0  0  0  0  0  0  0  0  0  0
  140.3263   76.6065  218.5169 H   0  0  0  0  0  0  0  0  0  0  0  0
  140.0294   77.4351  220.0765 H   0  0  0  0  0  0  0  0  0  0  0  0
  141.5172   78.7768  218.5576 H   0  0  0  0  0  0  0  0  0  0  0  0
  142.3515   78.3263  220.0672 H   0  0  0  0  0  0  0  0  0  0  0  0
  142.4768   76.6382  217.5147 H   0  0  0  0  0  0  0  0  0  0  0  0
  143.6748   77.8876  217.8776 H   0  0  0  0  0  0  0  0  0  0  0  0
  144.4638   75.7306  218.8140 H   0  0  0  0  0  0  0  0  0  0  0  0
  144.0108   76.7951  220.1791 H   0  0  0  0  0  0  0  0  0  0  0  0
  142.2984   74.6366  218.8844 H   0  0  0  0  0  0  0  0  0  0  0  0
  143.2341   74.5413  221.6597 H   0  0  0  0  0  0  0  0  0  0  0  0
  142.5651   73.2748  220.5643 H   0  0  0  0  0  0  0  0  0  0  0  0
  139.1879   69.5583  222.6095 H   0  0  0  0  0  0  0  0  0  0  0  0
  138.9569   68.0904  224.6049 H   0  0  0  0  0  0  0  0  0  0  0  0
  139.3114   67.6938  226.8759 H   0  0  0  0  0  0  0  0  0  0  0  0
  141.3247   70.6245  229.2786 H   0  0  0  0  0  0  0  0  0  0  0  0
  141.5594   72.0931  227.2907 H   0  0  0  0  0  0  0  0  0  0  0  0
  1  2  2  0
  2  3  1  0
  3  4  1  0
  4  5  1  0
  5  6  2  0
  5  7  1  0
  7  8  1  0
  8  9  1  0
  9 10  1  0
 10 11  1  0
 11 12  1  0
 12 13  1  0
 13 14  1  0
 14 15  1  0
 14 16  1  0
 14 17  1  0
  2 18  1  0
 18 19  2  0
 19 20  1  0
 20 21  2  0
 21 22  1  0
 22 23  2  0
 23 24  1  0
 23 25  1  0
 25 26  2  0
 26 27  1  0
 27 28  2  0
 12  7  1  0
 28 18  1  0
 27 21  1  0
  3 29  1  0
  4 30  1  0
  4 31  1  0
  8 32  1  0
  8 33  1  0
  9 34  1  0
  9 35  1  0
 10 36  1  0
 10 37  1  0
 11 38  1  0
 11 39  1  0
 12 40  1  6
 13 41  1  0
 13 42  1  0
 19 43  1  0
 20 44  1  0
 22 45  1  0
 25 46  1  0
 26 47  1  0
M  END
>  <smiles>  (56) 
O=C(NCC(=O)N1CCCCC1CC(F)(F)F)c1ccc2cc(F)ccc2n1

>  <score_type>  (56) 
oracle

>  <origin>  (56) 
autodockgpu

>  <m_score__min__energy>  (56) 
-7.0999999999999996

>  <m_primary>  (56) 
energy

>  <rmsd>  (56) 
2.2124314296914624

>  <m_score__min__rmsd>  (56) 
2.2124314296914624

>  <meeko>  (56) 
{"free_energy": -7.01, "intermolecular_energy": -8.8, "internal_energy": -1.08, "cluster_size": 14, "cluster_id": 2, "rank_in_cluster": 3}

>  <energy>  (56) 
-7.08

>  <cluster_rmsd>  (56) 
0.13

>  <cluster>  (56) 
2

$$$$

     RDKit          3D

 47 49  0  0  0  0  0  0  0  0999 V2000
  140.3520   73.3860  222.4520 O   0  0  0  0  0  0  0  0  0  0  0  0
  140.2550   72.1310  222.4420 C   0  0  0  0  0  0  0  0  0  0  0  0
  140.2310   71.4930  221.1420 N   0  0  0  0  0  0  0  0  0  0  0  0
  140.3100   72.1870  219.9260 C   0  0  0  0  0  0  0  0  0  0  0  0
  141.5580   72.6890  219.3760 C   0  0  0  0  0  0  0  0  0  0  0  0
  141.5290   72.7660  218.0690 O   0  0  0  0  0  0  0  0  0  0  0  0
  142.7550   73.0940  219.9740 N   0  0  0  0  0  0  0  0  0  0  0  0
  143.6980   72.0640  220.3740 C   0  0  0  0  0  0  0  0  0  0  0  0
  145.1110   72.5530  220.0800 C   0  0  0  0  0  0  0  0  0  0  0  0
  145.3080   73.8470  220.8220 C   0  0  0  0  0  0  0  0  0  0  0  0
  144.4500   74.8740  220.0910 C   0  0  0  0  0  0  0  0  0  0  0  0
  143.0030   74.4880  220.2460 C   0  0  1  0  0  0  0  0  0  0  0  0
  142.0820   75.4850  219.6690 C   0  0  0  0  0  0  0  0  0  0  0  0
  141.3780   76.2860  220.7950 C   0  0  0  0  0  0  0  0  0  0  0  0
  141.4530   75.6650  221.9960 F   0  0  0  0  0  0  0  0  0  0  0  0
  140.0210   76.2340  220.4210 F   0  0  0  0  0  0  0  0  0  0  0  0
  141.6970   77.6090  220.7710 F   0  0  0  0  0  0  0  0  0  0  0  0
  140.1700   71.3370  223.6710 C   0  0  0  0  0  0  0  0  0  0  0  0
  139.5400   70.1150  223.5870 C   0  0  0  0  0  0  0  0  0  0  0  0
  139.4230   69.3120  224.7070 C   0  0  0  0  0  0  0  0  0  0  0  0
  139.9430   69.7500  225.9040 C   0  0  0  0  0  0  0  0  0  0  0  0
  139.8170   68.9390  227.0020 C   0  0  0  0  0  0  0  0  0  0  0  0
  140.3230   69.3390  228.2150 C   0  0  0  0  0  0  0  0  0  0  0  0
  140.1900   68.5310  229.2830 F   0  0  0  0  0  0  0  0  0  0  0  0
  140.9570   70.5770  228.2860 C   0  0  0  0  0  0  0  0  0  0  0  0
  141.0760   71.3870  227.1570 C   0  0  0  0  0  0  0  0  0  0  0  0
  140.5670   70.9790  225.9480 C   0  0  0  0  0  0  0  0  0  0  0  0
  140.6680   71.7400  224.8430 N   0  0  0  0  0  0  0  0  0  0  0  0
  140.1470   70.4330  221.2060 H   0  0  0  0  0  0  0  0  0  0  0  0
  139.8948   71.5104  219.1645 H   0  0  0  0  0  0  0  0  0  0  0  0
  139.7895   73.1234  220.1753 H   0  0  0  0  0  0  0  0  0  0  0  0
  143.5923   71.8635  221.4504 H   0  0  0  0  0  0  0  0  0  0  0  0
  143.4989   71.1371  219.8161 H   0  0  0  0  0  0  0  0  0  0  0  0
  145.8445   71.8085  220.4230 H   0  0  0  0  0  0  0  0  0  0  0  0
  145.2512   72.7021  218.9992 H   0  0  0  0  0  0  0  0  0  0  0  0
  144.9781   73.7448  221.8664 H   0  0  0  0  0  0  0  0  0  0  0  0
  146.3666   74.1448  220.8466 H   0  0  0  0  0  0  0  0  0  0  0  0
  144.6160   75.8714  220.5242 H   0  0  0  0  0  0  0  0  0  0  0  0
  144.7203   74.8993  219.0250 H   0  0  0  0  0  0  0  0  0  0  0  0
  142.7455   74.5419  221.3141 H   0  0  0  0  0  0  0  0  0  0  0  0
  142.6511   76.1784  219.0323 H   0  0  0  0  0  0  0  0  0  0  0  0
  141.3195   74.9631  219.0721 H   0  0  0  0  0  0  0  0  0  0  0  0
  139.1281   69.7763  222.6249 H   0  0  0  0  0  0  0  0  0  0  0  0
  138.9207   68.3355  224.6421 H   0  0  0  0  0  0  0  0  0  0  0  0
  139.3102   67.9669  226.9117 H   0  0  0  0  0  0  0  0  0  0  0  0
  141.3696   70.9207  229.2460 H   0  0  0  0  0  0  0  0  0  0  0  0
  141.5817   72.3607  227.2352 H   0  0  0  0  0  0  0  0  0  0  0  0
  1  2  2  0
  2  3  1  0
  3  4  1  0
  4  5  1  0
  5  6  2  0
  5  7  1  0
  7  8  1  0
  8  9  1  0
  9 10  1  0
 10 11  1  0
 11 12  1  0
 12 13  1  0
 13 14  1  0
 14 15  1  0
 14 16  1  0
 14 17  1  0
  2 18  1  0
 18 19  2  0
 19 20  1  0
 20 21  2  0
 21 22  1  0
 22 23  2  0
 23 24  1  0
 23 25  1  0
 25 26  2  0
 26 27  1  0
 27 28  2  0
 12  7  1  0
 28 18  1  0
 27 21  1  0
  3 29  1  0
  4 30  1  0
  4 31  1  0
  8 32  1  0
  8 33  1  0
  9 34  1  0
  9 35  1  0
 10 36  1  0
 10 37  1  0
 11 38  1  0
 11 39  1  0
 12 40  1  1
 13 41  1  0
 13 42  1  0
 19 43  1  0
 20 44  1  0
 22 45  1  0
 25 46  1  0
 26 47  1  0
M  END
>  <smiles>  (57) 
O=C(NCC(=O)N1CCCCC1CC(F)(F)F)c1ccc2cc(F)ccc2n1

>  <score_type>  (57) 
oracle

>  <origin>  (57) 
autodockgpu

>  <m_score__min__energy>  (57) 
-7.0999999999999996

>  <m_primary>  (57) 
energy

>  <rmsd>  (57) 
3.309546523515872

>  <m_score__min__rmsd>  (57) 
3.309546523515872

>  <meeko>  (57) 
{"free_energy": -6.68, "intermolecular_energy": -8.47, "internal_energy": -1.24, "cluster_size": 18, "cluster_id": 6, "rank_in_cluster": 7}

>  <energy>  (57) 
-7.01

>  <cluster_rmsd>  (57) 
0.24

>  <cluster>  (57) 
2

$$$$

     RDKit          3D

 47 49  0  0  0  0  0  0  0  0999 V2000
  140.9230   71.9430  221.2990 O   0  0  0  0  0  0  0  0  0  0  0  0
  140.4020   72.3830  222.3570 C   0  0  0  0  0  0  0  0  0  0  0  0
  139.9600   73.7620  222.3370 N   0  0  0  0  0  0  0  0  0  0  0  0
  140.0790   74.6080  221.2250 C   0  0  0  0  0  0  0  0  0  0  0  0
  139.4410   75.9120  221.1460 C   0  0  0  0  0  0  0  0  0  0  0  0
  138.2380   75.8450  220.6310 O   0  0  0  0  0  0  0  0  0  0  0  0
  139.8670   77.1930  221.5100 N   0  0  0  0  0  0  0  0  0  0  0  0
  139.0320   77.9530  222.4230 C   0  0  0  0  0  0  0  0  0  0  0  0
  139.9300   78.7180  223.3870 C   0  0  0  0  0  0  0  0  0  0  0  0
  140.8410   79.5890  222.5640 C   0  0  0  0  0  0  0  0  0  0  0  0
  141.8240   78.6360  221.8920 C   0  0  0  0  0  0  0  0  0  0  0  0
  141.0610   77.7590  220.9340 C   0  0  1  0  0  0  0  0  0  0  0  0
  141.9410   76.8760  220.1450 C   0  0  0  0  0  0  0  0  0  0  0  0
  142.2760   77.5280  218.7780 C   0  0  0  0  0  0  0  0  0  0  0  0
  142.3360   78.8790  218.8500 F   0  0  0  0  0  0  0  0  0  0  0  0
  141.1380   77.2360  218.0010 F   0  0  0  0  0  0  0  0  0  0  0  0
  143.3030   76.9040  218.1410 F   0  0  0  0  0  0  0  0  0  0  0  0
  140.2420   71.5590  223.5580 C   0  0  0  0  0  0  0  0  0  0  0  0
  139.5610   70.3700  223.4170 C   0  0  0  0  0  0  0  0  0  0  0  0
  139.3720   69.5410  224.5080 C   0  0  0  0  0  0  0  0  0  0  0  0
  139.8720   69.9190  225.7340 C   0  0  0  0  0  0  0  0  0  0  0  0
  139.6740   69.0830  226.8020 C   0  0  0  0  0  0  0  0  0  0  0  0
  140.1580   69.4240  228.0420 C   0  0  0  0  0  0  0  0  0  0  0  0
  139.9550   68.5930  229.0800 F   0  0  0  0  0  0  0  0  0  0  0  0
  140.8440   70.6300  228.1710 C   0  0  0  0  0  0  0  0  0  0  0  0
  141.0360   71.4670  227.0700 C   0  0  0  0  0  0  0  0  0  0  0  0
  140.5480   71.1170  225.8350 C   0  0  0  0  0  0  0  0  0  0  0  0
  140.7190   71.9050  224.7570 N   0  0  0  0  0  0  0  0  0  0  0  0
  139.5300   74.0690  223.2630 H   0  0  0  0  0  0  0  0  0  0  0  0
  141.1563   74.7904  221.0979 H   0  0  0  0  0  0  0  0  0  0  0  0
  139.5210   74.0454  220.4620 H   0  0  0  0  0  0  0  0  0  0  0  0
  138.4117   78.6613  221.8543 H   0  0  0  0  0  0  0  0  0  0  0  0
  138.3752   77.2720  222.9841 H   0  0  0  0  0  0  0  0  0  0  0  0
  139.3181   79.3412  224.0557 H   0  0  0  0  0  0  0  0  0  0  0  0
  140.5152   78.0219  224.0058 H   0  0  0  0  0  0  0  0  0  0  0  0
  140.2640   80.1413  221.8077 H   0  0  0  0  0  0  0  0  0  0  0  0
  141.3582   80.3364  223.1836 H   0  0  0  0  0  0  0  0  0  0  0  0
  142.5831   79.2125  221.3430 H   0  0  0  0  0  0  0  0  0  0  0  0
  142.3271   78.0175  222.6499 H   0  0  0  0  0  0  0  0  0  0  0  0
  140.6309   78.3994  220.1498 H   0  0  0  0  0  0  0  0  0  0  0  0
  142.8735   76.7022  220.7019 H   0  0  0  0  0  0  0  0  0  0  0  0
  141.4231   75.9219  219.9679 H   0  0  0  0  0  0  0  0  0  0  0  0
  139.1658   70.0785  222.4327 H   0  0  0  0  0  0  0  0  0  0  0  0
  138.8287   68.5910  224.3975 H   0  0  0  0  0  0  0  0  0  0  0  0
  139.1271   68.1383  226.6663 H   0  0  0  0  0  0  0  0  0  0  0  0
  141.2397   70.9267  229.1536 H   0  0  0  0  0  0  0  0  0  0  0  0
  141.5822   72.4139  227.1928 H   0  0  0  0  0  0  0  0  0  0  0  0
  1  2  2  0
  2  3  1  0
  3  4  1  0
  4  5  1  0
  5  6  2  0
  5  7  1  0
  7  8  1  0
  8  9  1  0
  9 10  1  0
 10 11  1  0
 11 12  1  0
 12 13  1  0
 13 14  1  0
 14 15  1  0
 14 16  1  0
 14 17  1  0
  2 18  1  0
 18 19  2  0
 19 20  1  0
 20 21  2  0
 21 22  1  0
 22 23  2  0
 23 24  1  0
 23 25  1  0
 25 26  2  0
 26 27  1  0
 27 28  2  0
 12  7  1  0
 28 18  1  0
 27 21  1  0
  3 29  1  0
  4 30  1  0
  4 31  1  0
  8 32  1  0
  8 33  1  0
  9 34  1  0
  9 35  1  0
 10 36  1  0
 10 37  1  0
 11 38  1  0
 11 39  1  0
 12 40  1  6
 13 41  1  0
 13 42  1  0
 19 43  1  0
 20 44  1  0
 22 45  1  0
 25 46  1  0
 26 47  1  0
M  END
>  <smiles>  (58) 
O=C(NCC(=O)N1CCCCC1CC(F)(F)F)c1ccc2cc(F)ccc2n1

>  <score_type>  (58) 
oracle

>  <origin>  (58) 
autodockgpu

>  <m_score__min__energy>  (58) 
-7.0999999999999996

>  <m_primary>  (58) 
energy

>  <rmsd>  (58) 
3.006485850085745

>  <m_score__min__rmsd>  (58) 
3.006485850085745

>  <meeko>  (58) 
{"free_energy": -6.64, "intermolecular_energy": -8.43, "internal_energy": -0.87, "cluster_size": 5, "cluster_id": 3, "rank_in_cluster": 2}

>  <energy>  (58) 
-6.98

>  <cluster_rmsd>  (58) 
0.37

>  <cluster>  (58) 
2

$$$$

     RDKit          3D

 47 49  0  0  0  0  0  0  0  0999 V2000
  140.4110   73.4400  222.3310 O   0  0  0  0  0  0  0  0  0  0  0  0
  140.3530   72.1830  222.3590 C   0  0  0  0  0  0  0  0  0  0  0  0
  140.4570   71.5010  221.0870 N   0  0  0  0  0  0  0  0  0  0  0  0
  140.6170   72.1540  219.8560 C   0  0  0  0  0  0  0  0  0  0  0  0
  141.9040   72.6090  219.3590 C   0  0  0  0  0  0  0  0  0  0  0  0
  141.8860   72.8370  218.0690 O   0  0  0  0  0  0  0  0  0  0  0  0
  143.1300   72.8410  219.9910 N   0  0  0  0  0  0  0  0  0  0  0  0
  144.0560   71.7280  220.1080 C   0  0  0  0  0  0  0  0  0  0  0  0
  145.4720   72.2440  219.8850 C   0  0  0  0  0  0  0  0  0  0  0  0
  145.7270   73.3270  220.8980 C   0  0  0  0  0  0  0  0  0  0  0  0
  144.8750   74.5130  220.4550 C   0  0  0  0  0  0  0  0  0  0  0  0
  143.4240   74.1280  220.5690 C   0  0  1  0  0  0  0  0  0  0  0  0
  142.5120   75.2500  220.2720 C   0  0  0  0  0  0  0  0  0  0  0  0
  142.9390   75.9620  218.9630 C   0  0  0  0  0  0  0  0  0  0  0  0
  143.6970   77.0600  219.1940 F   0  0  0  0  0  0  0  0  0  0  0  0
  141.7180   76.4410  218.4500 F   0  0  0  0  0  0  0  0  0  0  0  0
  143.3960   75.0930  218.0220 F   0  0  0  0  0  0  0  0  0  0  0  0
  140.1890   71.4310  223.6060 C   0  0  0  0  0  0  0  0  0  0  0  0
  139.5130   70.2330  223.5310 C   0  0  0  0  0  0  0  0  0  0  0  0
  139.3200   69.4680  224.6680 C   0  0  0  0  0  0  0  0  0  0  0  0
  139.8120   69.9200  225.8720 C   0  0  0  0  0  0  0  0  0  0  0  0
  139.6100   69.1480  226.9860 C   0  0  0  0  0  0  0  0  0  0  0  0
  140.0860   69.5630  228.2070 C   0  0  0  0  0  0  0  0  0  0  0  0
  139.8790   68.7930  229.2910 F   0  0  0  0  0  0  0  0  0  0  0  0
  140.7670   70.7770  228.2680 C   0  0  0  0  0  0  0  0  0  0  0  0
  140.9620   71.5470  227.1220 C   0  0  0  0  0  0  0  0  0  0  0  0
  140.4830   71.1240  225.9060 C   0  0  0  0  0  0  0  0  0  0  0  0
  140.6570   71.8480  224.7850 N   0  0  0  0  0  0  0  0  0  0  0  0
  140.4000   70.4410  221.1830 H   0  0  0  0  0  0  0  0  0  0  0  0
  140.2260   71.4633  219.0944 H   0  0  0  0  0  0  0  0  0  0  0  0
  140.1071   73.1096  220.0481 H   0  0  0  0  0  0  0  0  0  0  0  0
  143.9774   71.2852  221.1119 H   0  0  0  0  0  0  0  0  0  0  0  0
  143.8150   70.9600  219.3583 H   0  0  0  0  0  0  0  0  0  0  0  0
  146.1949   71.4260  220.0205 H   0  0  0  0  0  0  0  0  0  0  0  0
  145.5834   72.6368  218.8636 H   0  0  0  0  0  0  0  0  0  0  0  0
  145.4265   72.9922  221.9018 H   0  0  0  0  0  0  0  0  0  0  0  0
  146.7937   73.5902  220.9523 H   0  0  0  0  0  0  0  0  0  0  0  0
  145.0808   75.3794  221.1007 H   0  0  0  0  0  0  0  0  0  0  0  0
  145.1133   74.7806  219.4150 H   0  0  0  0  0  0  0  0  0  0  0  0
  143.2021   73.9360  221.6291 H   0  0  0  0  0  0  0  0  0  0  0  0
  141.4882   74.8642  220.1573 H   0  0  0  0  0  0  0  0  0  0  0  0
  142.5534   75.9722  221.1007 H   0  0  0  0  0  0  0  0  0  0  0  0
  139.1249   69.8829  222.5631 H   0  0  0  0  0  0  0  0  0  0  0  0
  138.7805   68.5111  224.6106 H   0  0  0  0  0  0  0  0  0  0  0  0
  139.0664   68.1953  226.9031 H   0  0  0  0  0  0  0  0  0  0  0  0
  141.1561   71.1329  229.2334 H   0  0  0  0  0  0  0  0  0  0  0  0
  141.5042   72.5015  227.1923 H   0  0  0  0  0  0  0  0  0  0  0  0
  1  2  2  0
  2  3  1  0
  3  4  1  0
  4  5  1  0
  5  6  2  0
  5  7  1  0
  7  8  1  0
  8  9  1  0
  9 10  1  0
 10 11  1  0
 11 12  1  0
 12 13  1  0
 13 14  1  0
 14 15  1  0
 14 16  1  0
 14 17  1  0
  2 18  1  0
 18 19  2  0
 19 20  1  0
 20 21  2  0
 21 22  1  0
 22 23  2  0
 23 24  1  0
 23 25  1  0
 25 26  2  0
 26 27  1  0
 27 28  2  0
 12  7  1  0
 28 18  1  0
 27 21  1  0
  3 29  1  0
  4 30  1  0
  4 31  1  0
  8 32  1  0
  8 33  1  0
  9 34  1  0
  9 35  1  0
 10 36  1  0
 10 37  1  0
 11 38  1  0
 11 39  1  0
 12 40  1  1
 13 41  1  0
 13 42  1  0
 19 43  1  0
 20 44  1  0
 22 45  1  0
 25 46  1  0
 26 47  1  0
M  END
>  <smiles>  (59) 
O=C(NCC(=O)N1CCCCC1CC(F)(F)F)c1ccc2cc(F)ccc2n1

>  <score_type>  (59) 
oracle

>  <origin>  (59) 
autodockgpu

>  <m_score__min__energy>  (59) 
-7.0999999999999996

>  <m_primary>  (59) 
energy

>  <rmsd>  (59) 
3.5767320171334807

>  <m_score__min__rmsd>  (59) 
3.5767320171334807

>  <meeko>  (59) 
{"free_energy": -6.7, "intermolecular_energy": -8.49, "internal_energy": -1.2, "cluster_size": 14, "cluster_id": 2, "rank_in_cluster": 7}

>  <energy>  (59) 
-6.96

>  <cluster_rmsd>  (59) 
0.15

>  <cluster>  (59) 
2

$$$$

     RDKit          3D

 47 49  0  0  0  0  0  0  0  0999 V2000
  141.4560   72.4440  221.4040 O   0  0  0  0  0  0  0  0  0  0  0  0
  140.7270   73.3630  221.8580 C   0  0  0  0  0  0  0  0  0  0  0  0
  139.6250   72.9570  222.7060 N   0  0  0  0  0  0  0  0  0  0  0  0
  139.3390   71.6250  223.0370 C   0  0  0  0  0  0  0  0  0  0  0  0
  140.1320   70.8510  223.9770 C   0  0  0  0  0  0  0  0  0  0  0  0
  141.3920   71.2070  223.9720 O   0  0  0  0  0  0  0  0  0  0  0  0
  139.8020   69.8210  224.8640 N   0  0  0  0  0  0  0  0  0  0  0  0
  139.0360   68.7010  224.3500 C   0  0  0  0  0  0  0  0  0  0  0  0
  139.5560   67.4180  224.9870 C   0  0  0  0  0  0  0  0  0  0  0  0
  139.4390   67.5710  226.4790 C   0  0  0  0  0  0  0  0  0  0  0  0
  140.5080   68.5870  226.8720 C   0  0  0  0  0  0  0  0  0  0  0  0
  140.1550   69.9160  226.2590 C   0  0  1  0  0  0  0  0  0  0  0  0
  141.0680   70.9970  226.6760 C   0  0  0  0  0  0  0  0  0  0  0  0
  140.9790   71.2190  228.2080 C   0  0  0  0  0  0  0  0  0  0  0  0
  141.7540   72.2470  228.6270 F   0  0  0  0  0  0  0  0  0  0  0  0
  141.5730   70.0540  228.7310 F   0  0  0  0  0  0  0  0  0  0  0  0
  139.6980   71.1930  228.6650 F   0  0  0  0  0  0  0  0  0  0  0  0
  140.9640   74.7780  221.5580 C   0  0  0  0  0  0  0  0  0  0  0  0
  141.7270   75.0640  220.4480 C   0  0  0  0  0  0  0  0  0  0  0  0
  141.9920   76.3770  220.1030 C   0  0  0  0  0  0  0  0  0  0  0  0
  141.4850   77.3910  220.8830 C   0  0  0  0  0  0  0  0  0  0  0  0
  141.7590   78.6860  220.5240 C   0  0  0  0  0  0  0  0  0  0  0  0
  141.2700   79.7270  221.2770 C   0  0  0  0  0  0  0  0  0  0  0  0
  141.5490   80.9910  220.9110 F   0  0  0  0  0  0  0  0  0  0  0  0
  140.5010   79.4230  222.3980 C   0  0  0  0  0  0  0  0  0  0  0  0
  140.2330   78.0990  222.7450 C   0  0  0  0  0  0  0  0  0  0  0  0
  140.7250   77.0640  221.9870 C   0  0  0  0  0  0  0  0  0  0  0  0
  140.4820   75.7780  222.2990 N   0  0  0  0  0  0  0  0  0  0  0  0
  139.0490   73.7830  223.0540 H   0  0  0  0  0  0  0  0  0  0  0  0
  138.3139   71.6263  223.4359 H   0  0  0  0  0  0  0  0  0  0  0  0
  139.5622   71.1123  222.0897 H   0  0  0  0  0  0  0  0  0  0  0  0
  137.9731   68.8338  224.6004 H   0  0  0  0  0  0  0  0  0  0  0  0
  139.1422   68.6455  223.2565 H   0  0  0  0  0  0  0  0  0  0  0  0
  138.9545   66.5611  224.6495 H   0  0  0  0  0  0  0  0  0  0  0  0
  140.6022   67.2397  224.6978 H   0  0  0  0  0  0  0  0  0  0  0  0
  138.4392   67.9412  226.7499 H   0  0  0  0  0  0  0  0  0  0  0  0
  139.5782   66.6117  226.9989 H   0  0  0  0  0  0  0  0  0  0  0  0
  140.5444   68.6819  227.9673 H   0  0  0  0  0  0  0  0  0  0  0  0
  141.4927   68.2558  226.5105 H   0  0  0  0  0  0  0  0  0  0  0  0
  139.2025   70.2538  226.6933 H   0  0  0  0  0  0  0  0  0  0  0  0
  142.0994   70.7235  226.4087 H   0  0  0  0  0  0  0  0  0  0  0  0
  140.7783   71.9262  226.1634 H   0  0  0  0  0  0  0  0  0  0  0  0
  142.1275   74.2447  219.8329 H   0  0  0  0  0  0  0  0  0  0  0  0
  142.6005   76.6078  219.2161 H   0  0  0  0  0  0  0  0  0  0  0  0
  142.3704   78.8918  219.6330 H   0  0  0  0  0  0  0  0  0  0  0  0
  140.0997   80.2382  223.0179 H   0  0  0  0  0  0  0  0  0  0  0  0
  139.6222   77.8814  223.6336 H   0  0  0  0  0  0  0  0  0  0  0  0
  1  2  2  0
  2  3  1  0
  3  4  1  0
  4  5  1  0
  5  6  2  0
  5  7  1  0
  7  8  1  0
  8  9  1  0
  9 10  1  0
 10 11  1  0
 11 12  1  0
 12 13  1  0
 13 14  1  0
 14 15  1  0
 14 16  1  0
 14 17  1  0
  2 18  1  0
 18 19  2  0
 19 20  1  0
 20 21  2  0
 21 22  1  0
 22 23  2  0
 23 24  1  0
 23 25  1  0
 25 26  2  0
 26 27  1  0
 27 28  2  0
 12  7  1  0
 28 18  1  0
 27 21  1  0
  3 29  1  0
  4 30  1  0
  4 31  1  0
  8 32  1  0
  8 33  1  0
  9 34  1  0
  9 35  1  0
 10 36  1  0
 10 37  1  0
 11 38  1  0
 11 39  1  0
 12 40  1  1
 13 41  1  0
 13 42  1  0
 19 43  1  0
 20 44  1  0
 22 45  1  0
 25 46  1  0
 26 47  1  0
M  END
>  <smiles>  (60) 
O=C(NCC(=O)N1CCCCC1CC(F)(F)F)c1ccc2cc(F)ccc2n1

>  <score_type>  (60) 
oracle

>  <origin>  (60) 
autodockgpu

>  <m_score__min__energy>  (60) 
-7.0999999999999996

>  <m_primary>  (60) 
energy

>  <rmsd>  (60) 
8.801817041509185

>  <m_score__min__rmsd>  (60) 
8.801817041509185

>  <meeko>  (60) 
{"free_energy": -6.67, "intermolecular_energy": -8.46, "internal_energy": -0.9, "cluster_size": 4, "cluster_id": 1, "rank_in_cluster": 4}

>  <energy>  (60) 
-6.94

>  <cluster_rmsd>  (60) 
0.33

>  <cluster>  (60) 
2

$$$$

     RDKit          3D

 47 49  0  0  0  0  0  0  0  0999 V2000
  140.7030   73.0120  222.7350 O   0  0  0  0  0  0  0  0  0  0  0  0
  140.3950   71.8040  222.9090 C   0  0  0  0  0  0  0  0  0  0  0  0
  139.9610   71.0700  221.7390 N   0  0  0  0  0  0  0  0  0  0  0  0
  139.8720   71.6230  220.4530 C   0  0  0  0  0  0  0  0  0  0  0  0
  141.0260   72.1050  219.7130 C   0  0  0  0  0  0  0  0  0  0  0  0
  140.9130   71.8920  218.4260 O   0  0  0  0  0  0  0  0  0  0  0  0
  142.2060   72.7380  220.1150 N   0  0  0  0  0  0  0  0  0  0  0  0
  143.3720   71.9070  220.3640 C   0  0  0  0  0  0  0  0  0  0  0  0
  144.6090   72.6340  219.8510 C   0  0  0  0  0  0  0  0  0  0  0  0
  144.6780   73.9640  220.5510 C   0  0  0  0  0  0  0  0  0  0  0  0
  143.5440   74.7970  219.9620 C   0  0  0  0  0  0  0  0  0  0  0  0
  142.2340   74.1600  220.3430 C   0  0  1  0  0  0  0  0  0  0  0  0
  141.0670   74.9570  219.9180 C   0  0  0  0  0  0  0  0  0  0  0  0
  140.4410   75.6900  221.1320 C   0  0  0  0  0  0  0  0  0  0  0  0
  140.3180   77.0220  220.9260 F   0  0  0  0  0  0  0  0  0  0  0  0
  141.4240   75.5460  222.1310 F   0  0  0  0  0  0  0  0  0  0  0  0
  139.3480   75.0450  221.6230 F   0  0  0  0  0  0  0  0  0  0  0  0
  140.4640   71.1550  224.2210 C   0  0  0  0  0  0  0  0  0  0  0  0
  140.9980   71.8910  225.2570 C   0  0  0  0  0  0  0  0  0  0  0  0
  141.0950   71.3430  226.5240 C   0  0  0  0  0  0  0  0  0  0  0  0
  140.6530   70.0560  226.7340 C   0  0  0  0  0  0  0  0  0  0  0  0
  140.7580   69.5320  227.9970 C   0  0  0  0  0  0  0  0  0  0  0  0
  140.3280   68.2520  228.2480 C   0  0  0  0  0  0  0  0  0  0  0  0
  140.4390   67.7520  229.4930 F   0  0  0  0  0  0  0  0  0  0  0  0
  139.7920   67.5190  227.1920 C   0  0  0  0  0  0  0  0  0  0  0  0
  139.6930   68.0710  225.9150 C   0  0  0  0  0  0  0  0  0  0  0  0
  140.1260   69.3520  225.6720 C   0  0  0  0  0  0  0  0  0  0  0  0
  140.0420   69.9100  224.4500 N   0  0  0  0  0  0  0  0  0  0  0  0
  139.7160   70.0560  221.9570 H   0  0  0  0  0  0  0  0  0  0  0  0
  139.4105   70.8488  219.8224 H   0  0  0  0  0  0  0  0  0  0  0  0
  139.3355   72.5616  220.6559 H   0  0  0  0  0  0  0  0  0  0  0  0
  143.4719   71.7235  221.4440 H   0  0  0  0  0  0  0  0  0  0  0  0
  143.2624   70.9428  219.8461 H   0  0  0  0  0  0  0  0  0  0  0  0
  145.5104   72.0448  220.0754 H   0  0  0  0  0  0  0  0  0  0  0  0
  144.5510   72.7735  218.7614 H   0  0  0  0  0  0  0  0  0  0  0  0
  144.5373   73.8354  221.6344 H   0  0  0  0  0  0  0  0  0  0  0  0
  145.6552   74.4485  220.4088 H   0  0  0  0  0  0  0  0  0  0  0  0
  143.5890   75.8205  220.3625 H   0  0  0  0  0  0  0  0  0  0  0  0
  143.6376   74.8392  218.8668 H   0  0  0  0  0  0  0  0  0  0  0  0
  142.1403   74.1977  221.4384 H   0  0  0  0  0  0  0  0  0  0  0  0
  141.3875   75.6995  219.1724 H   0  0  0  0  0  0  0  0  0  0  0  0
  140.3149   74.2831  219.4819 H   0  0  0  0  0  0  0  0  0  0  0  0
  141.3484   72.9179  225.0759 H   0  0  0  0  0  0  0  0  0  0  0  0
  141.5199   71.9282  227.3529 H   0  0  0  0  0  0  0  0  0  0  0  0
  141.1868   70.1371  228.8094 H   0  0  0  0  0  0  0  0  0  0  0  0
  139.4421   66.4910  227.3675 H   0  0  0  0  0  0  0  0  0  0  0  0
  139.2645   67.4756  225.0953 H   0  0  0  0  0  0  0  0  0  0  0  0
  1  2  2  0
  2  3  1  0
  3  4  1  0
  4  5  1  0
  5  6  2  0
  5  7  1  0
  7  8  1  0
  8  9  1  0
  9 10  1  0
 10 11  1  0
 11 12  1  0
 12 13  1  0
 13 14  1  0
 14 15  1  0
 14 16  1  0
 14 17  1  0
  2 18  1  0
 18 19  2  0
 19 20  1  0
 20 21  2  0
 21 22  1  0
 22 23  2  0
 23 24  1  0
 23 25  1  0
 25 26  2  0
 26 27  1  0
 27 28  2  0
 12  7  1  0
 28 18  1  0
 27 21  1  0
  3 29  1  0
  4 30  1  0
  4 31  1  0
  8 32  1  0
  8 33  1  0
  9 34  1  0
  9 35  1  0
 10 36  1  0
 10 37  1  0
 11 38  1  0
 11 39  1  0
 12 40  1  1
 13 41  1  0
 13 42  1  0
 19 43  1  0
 20 44  1  0
 22 45  1  0
 25 46  1  0
 26 47  1  0
M  END
>  <smiles>  (61) 
O=C(NCC(=O)N1CCCCC1CC(F)(F)F)c1ccc2cc(F)ccc2n1

>  <score_type>  (61) 
oracle

>  <origin>  (61) 
autodockgpu

>  <m_score__min__energy>  (61) 
-7.0999999999999996

>  <m_primary>  (61) 
energy

>  <rmsd>  (61) 
3.8958032503888744

>  <m_score__min__rmsd>  (61) 
3.8958032503888744

>  <meeko>  (61) 
{"free_energy": -6.15, "intermolecular_energy": -7.94, "internal_energy": -1.63, "cluster_size": 18, "cluster_id": 6, "rank_in_cluster": 18}

>  <energy>  (61) 
-6.7

>  <cluster_rmsd>  (61) 
1.95

>  <cluster>  (61) 
2

$$$$

     RDKit          3D

 47 49  0  0  0  0  0  0  0  0999 V2000
  141.3500   72.0170  221.7050 O   0  0  0  0  0  0  0  0  0  0  0  0
  140.4470   72.1950  222.5630 C   0  0  0  0  0  0  0  0  0  0  0  0
  139.5430   73.3030  222.3310 N   0  0  0  0  0  0  0  0  0  0  0  0
  139.6220   74.1630  221.2260 C   0  0  0  0  0  0  0  0  0  0  0  0
  140.4560   75.3530  221.2040 C   0  0  0  0  0  0  0  0  0  0  0  0
  140.4370   75.9940  222.3460 O   0  0  0  0  0  0  0  0  0  0  0  0
  141.2560   75.9250  220.2090 N   0  0  0  0  0  0  0  0  0  0  0  0
  140.7360   77.0820  219.5010 C   0  0  0  0  0  0  0  0  0  0  0  0
  141.8790   78.0600  219.2590 C   0  0  0  0  0  0  0  0  0  0  0  0
  142.9450   77.3320  218.4860 C   0  0  0  0  0  0  0  0  0  0  0  0
  143.5650   76.3460  219.4710 C   0  0  0  0  0  0  0  0  0  0  0  0
  142.5210   75.3320  219.8550 C   0  0  1  0  0  0  0  0  0  0  0  0
  143.0550   74.2610  220.7190 C   0  0  0  0  0  0  0  0  0  0  0  0
  144.4620   73.8270  220.2330 C   0  0  0  0  0  0  0  0  0  0  0  0
  144.5270   73.6930  218.8880 F   0  0  0  0  0  0  0  0  0  0  0  0
  144.5880   72.5240  220.7550 F   0  0  0  0  0  0  0  0  0  0  0  0
  145.4600   74.5380  220.8250 F   0  0  0  0  0  0  0  0  0  0  0  0
  140.2990   71.3380  223.7420 C   0  0  0  0  0  0  0  0  0  0  0  0
  139.6450   70.1380  223.5670 C   0  0  0  0  0  0  0  0  0  0  0  0
  139.4690   69.2780  224.6360 C   0  0  0  0  0  0  0  0  0  0  0  0
  139.9550   69.6350  225.8730 C   0  0  0  0  0  0  0  0  0  0  0  0
  139.7710   68.7680  226.9190 C   0  0  0  0  0  0  0  0  0  0  0  0
  140.2420   69.0880  228.1700 C   0  0  0  0  0  0  0  0  0  0  0  0
  140.0520   68.2270  229.1850 F   0  0  0  0  0  0  0  0  0  0  0  0
  140.9010   70.3050  228.3320 C   0  0  0  0  0  0  0  0  0  0  0  0
  141.0800   71.1720  227.2540 C   0  0  0  0  0  0  0  0  0  0  0  0
  140.6050   70.8450  226.0080 C   0  0  0  0  0  0  0  0  0  0  0  0
  140.7630   71.6630  224.9510 N   0  0  0  0  0  0  0  0  0  0  0  0
  138.8050   73.3970  223.0940 H   0  0  0  0  0  0  0  0  0  0  0  0
  139.9588   73.5420  220.3829 H   0  0  0  0  0  0  0  0  0  0  0  0
  138.6136   74.6024  221.2183 H   0  0  0  0  0  0  0  0  0  0  0  0
  140.3091   76.7657  218.5378 H   0  0  0  0  0  0  0  0  0  0  0  0
  139.9491   77.5652  220.0988 H   0  0  0  0  0  0  0  0  0  0  0  0
  141.5183   78.9224  218.6793 H   0  0  0  0  0  0  0  0  0  0  0  0
  142.2794   78.4301  220.2143 H   0  0  0  0  0  0  0  0  0  0  0  0
  142.5026   76.7960  217.6333 H   0  0  0  0  0  0  0  0  0  0  0  0
  143.6953   78.0243  218.0765 H   0  0  0  0  0  0  0  0  0  0  0  0
  144.4192   75.8383  218.9993 H   0  0  0  0  0  0  0  0  0  0  0  0
  143.9182   76.8797  220.3656 H   0  0  0  0  0  0  0  0  0  0  0  0
  142.2425   74.7684  218.9523 H   0  0  0  0  0  0  0  0  0  0  0  0
  143.1264   74.6306  221.7526 H   0  0  0  0  0  0  0  0  0  0  0  0
  142.3785   73.3948  220.6737 H   0  0  0  0  0  0  0  0  0  0  0  0
  139.2614   69.8628  222.5735 H   0  0  0  0  0  0  0  0  0  0  0  0
  138.9465   68.3197  224.4989 H   0  0  0  0  0  0  0  0  0  0  0  0
  139.2458   67.8152  226.7569 H   0  0  0  0  0  0  0  0  0  0  0  0
  141.2854   70.5859  229.3236 H   0  0  0  0  0  0  0  0  0  0  0  0
  141.6064   72.1262  227.4035 H   0  0  0  0  0  0  0  0  0  0  0  0
  1  2  2  0
  2  3  1  0
  3  4  1  0
  4  5  1  0
  5  6  2  0
  5  7  1  0
  7  8  1  0
  8  9  1  0
  9 10  1  0
 10 11  1  0
 11 12  1  0
 12 13  1  0
 13 14  1  0
 14 15  1  0
 14 16  1  0
 14 17  1  0
  2 18  1  0
 18 19  2  0
 19 20  1  0
 20 21  2  0
 21 22  1  0
 22 23  2  0
 23 24  1  0
 23 25  1  0
 25 26  2  0
 26 27  1  0
 27 28  2  0
 12  7  1  0
 28 18  1  0
 27 21  1  0
  3 29  1  0
  4 30  1  0
  4 31  1  0
  8 32  1  0
  8 33  1  0
  9 34  1  0
  9 35  1  0
 10 36  1  0
 10 37  1  0
 11 38  1  0
 11 39  1  0
 12 40  1  6
 13 41  1  0
 13 42  1  0
 19 43  1  0
 20 44  1  0
 22 45  1  0
 25 46  1  0
 26 47  1  0
M  END
>  <smiles>  (62) 
O=C(NCC(=O)N1CCCCC1CC(F)(F)F)c1ccc2cc(F)ccc2n1

>  <score_type>  (62) 
oracle

>  <origin>  (62) 
autodockgpu

>  <m_score__min__energy>  (62) 
-7.0999999999999996

>  <m_primary>  (62) 
energy

>  <rmsd>  (62) 
2.247203913979348

>  <m_score__min__rmsd>  (62) 
2.247203913979348

>  <meeko>  (62) 
{"free_energy": -7.08, "intermolecular_energy": -8.87, "internal_energy": -1.09, "cluster_size": 14, "cluster_id": 2, "rank_in_cluster": 1}

>  <energy>  (62) 
-6.69

>  <cluster_rmsd>  (62) 
1.93

>  <cluster>  (62) 
2

$$$$

     RDKit          3D

 47 49  0  0  0  0  0  0  0  0999 V2000
  134.6850   68.4450  225.5580 O   0  0  0  0  0  0  0  0  0  0  0  0
  135.0060   69.6610  225.4980 C   0  0  0  0  0  0  0  0  0  0  0  0
  136.3340   69.9560  225.0010 N   0  0  0  0  0  0  0  0  0  0  0  0
  137.2540   68.9810  224.5930 C   0  0  0  0  0  0  0  0  0  0  0  0
  138.5950   68.8730  225.1430 C   0  0  0  0  0  0  0  0  0  0  0  0
  139.1740   67.7430  224.8220 O   0  0  0  0  0  0  0  0  0  0  0  0
  139.3610   69.7350  225.9340 N   0  0  0  0  0  0  0  0  0  0  0  0
  139.2750   69.5890  227.3770 C   0  0  0  0  0  0  0  0  0  0  0  0
  140.6620   69.7980  227.9730 C   0  0  0  0  0  0  0  0  0  0  0  0
  141.1370   71.1620  227.5500 C   0  0  0  0  0  0  0  0  0  0  0  0
  141.4390   71.0470  226.0590 C   0  0  0  0  0  0  0  0  0  0  0  0
  140.1490   70.7780  225.3290 C   0  0  1  0  0  0  0  0  0  0  0  0
  140.3160   70.7650  223.8630 C   0  0  0  0  0  0  0  0  0  0  0  0
  139.1450   71.5170  223.1790 C   0  0  0  0  0  0  0  0  0  0  0  0
  138.8070   70.9720  221.9860 F   0  0  0  0  0  0  0  0  0  0  0  0
  139.7070   72.7740  222.8810 F   0  0  0  0  0  0  0  0  0  0  0  0
  138.1250   71.7850  224.0390 F   0  0  0  0  0  0  0  0  0  0  0  0
  134.0980   70.7360  225.9060 C   0  0  0  0  0  0  0  0  0  0  0  0
  132.8720   70.3640  226.4120 C   0  0  0  0  0  0  0  0  0  0  0  0
  131.9630   71.3250  226.8170 C   0  0  0  0  0  0  0  0  0  0  0  0
  132.3000   72.6560  226.7070 C   0  0  0  0  0  0  0  0  0  0  0  0
  131.3860   73.5930  227.1130 C   0  0  0  0  0  0  0  0  0  0  0  0
  131.6840   74.9310  227.0200 C   0  0  0  0  0  0  0  0  0  0  0  0
  130.7750   75.8370  227.4230 F   0  0  0  0  0  0  0  0  0  0  0  0
  132.9260   75.2930  226.5050 C   0  0  0  0  0  0  0  0  0  0  0  0
  133.8430   74.3240  226.0980 C   0  0  0  0  0  0  0  0  0  0  0  0
  133.5370   72.9880  226.1940 C   0  0  0  0  0  0  0  0  0  0  0  0
  134.4020   72.0320  225.8090 N   0  0  0  0  0  0  0  0  0  0  0  0
  136.5400   71.0020  224.9780 H   0  0  0  0  0  0  0  0  0  0  0  0
  136.7706   68.0113  224.7827 H   0  0  0  0  0  0  0  0  0  0  0  0
  137.4663   69.2995  223.5618 H   0  0  0  0  0  0  0  0  0  0  0  0
  138.5804   70.3386  227.7841 H   0  0  0  0  0  0  0  0  0  0  0  0
  138.9057   68.5844  227.6306 H   0  0  0  0  0  0  0  0  0  0  0  0
  140.6113   69.7419  229.0704 H   0  0  0  0  0  0  0  0  0  0  0  0
  141.3556   69.0204  227.6206 H   0  0  0  0  0  0  0  0  0  0  0  0
  140.3531   71.9133  227.7262 H   0  0  0  0  0  0  0  0  0  0  0  0
  142.0216   71.4802  228.1212 H   0  0  0  0  0  0  0  0  0  0  0  0
  141.8814   71.9866  225.6965 H   0  0  0  0  0  0  0  0  0  0  0  0
  142.1507   70.2274  225.8809 H   0  0  0  0  0  0  0  0  0  0  0  0
  139.4876   71.6459  225.4682 H   0  0  0  0  0  0  0  0  0  0  0  0
  141.2645   71.2570  223.6019 H   0  0  0  0  0  0  0  0  0  0  0  0
  140.3227   69.7219  223.5138 H   0  0  0  0  0  0  0  0  0  0  0  0
  132.6145   69.2977  226.4944 H   0  0  0  0  0  0  0  0  0  0  0  0
  130.9836   71.0300  227.2217 H   0  0  0  0  0  0  0  0  0  0  0  0
  130.4127   73.2735  227.5138 H   0  0  0  0  0  0  0  0  0  0  0  0
  133.1876   76.3579  226.4179 H   0  0  0  0  0  0  0  0  0  0  0  0
  134.8197   74.6321  225.6967 H   0  0  0  0  0  0  0  0  0  0  0  0
  1  2  2  0
  2  3  1  0
  3  4  1  0
  4  5  1  0
  5  6  2  0
  5  7  1  0
  7  8  1  0
  8  9  1  0
  9 10  1  0
 10 11  1  0
 11 12  1  0
 12 13  1  0
 13 14  1  0
 14 15  1  0
 14 16  1  0
 14 17  1  0
  2 18  1  0
 18 19  2  0
 19 20  1  0
 20 21  2  0
 21 22  1  0
 22 23  2  0
 23 24  1  0
 23 25  1  0
 25 26  2  0
 26 27  1  0
 27 28  2  0
 12  7  1  0
 28 18  1  0
 27 21  1  0
  3 29  1  0
  4 30  1  0
  4 31  1  0
  8 32  1  0
  8 33  1  0
  9 34  1  0
  9 35  1  0
 10 36  1  0
 10 37  1  0
 11 38  1  0
 11 39  1  0
 12 40  1  6
 13 41  1  0
 13 42  1  0
 19 43  1  0
 20 44  1  0
 22 45  1  0
 25 46  1  0
 26 47  1  0
M  END
>  <smiles>  (63) 
O=C(NCC(=O)N1CCCCC1CC(F)(F)F)c1ccc2cc(F)ccc2n1

>  <score_type>  (63) 
oracle

>  <origin>  (63) 
autodockgpu

>  <m_score__min__energy>  (63) 
-7.0999999999999996

>  <m_primary>  (63) 
energy

>  <rmsd>  (63) 
8.642215502415546

>  <m_score__min__rmsd>  (63) 
8.642215502415546

>  <meeko>  (63) 
{"free_energy": -6.4, "intermolecular_energy": -8.19, "internal_energy": -1.33, "cluster_size": 3, "cluster_id": 8, "rank_in_cluster": 1}

>  <energy>  (63) 
-6.68

>  <cluster_rmsd>  (63) 
0.72

>  <cluster>  (63) 
2

$$$$

     RDKit          3D

 47 49  0  0  0  0  0  0  0  0999 V2000
  140.0060   73.4190  222.3650 O   0  0  0  0  0  0  0  0  0  0  0  0
  140.1940   72.1750  222.4040 C   0  0  0  0  0  0  0  0  0  0  0  0
  140.5420   71.5330  221.1530 N   0  0  0  0  0  0  0  0  0  0  0  0
  140.6760   72.2120  219.9330 C   0  0  0  0  0  0  0  0  0  0  0  0
  141.9540   72.6670  219.4140 C   0  0  0  0  0  0  0  0  0  0  0  0
  141.9020   72.9370  218.1330 O   0  0  0  0  0  0  0  0  0  0  0  0
  143.2010   72.8640  220.0170 N   0  0  0  0  0  0  0  0  0  0  0  0
  144.1120   71.7350  220.0780 C   0  0  0  0  0  0  0  0  0  0  0  0
  145.5290   72.2370  219.8290 C   0  0  0  0  0  0  0  0  0  0  0  0
  145.8290   73.2870  220.8640 C   0  0  0  0  0  0  0  0  0  0  0  0
  144.9830   74.4970  220.4770 C   0  0  0  0  0  0  0  0  0  0  0  0
  143.5300   74.1310  220.6210 C   0  0  1  0  0  0  0  0  0  0  0  0
  142.6280   75.2730  220.3800 C   0  0  0  0  0  0  0  0  0  0  0  0
  142.8790   75.8740  218.9730 C   0  0  0  0  0  0  0  0  0  0  0  0
  143.5960   75.0460  218.1770 F   0  0  0  0  0  0  0  0  0  0  0  0
  143.7210   76.9710  219.2430 F   0  0  0  0  0  0  0  0  0  0  0  0
  141.7570   76.4200  218.4320 F   0  0  0  0  0  0  0  0  0  0  0  0
  140.0740   71.3990  223.6410 C   0  0  0  0  0  0  0  0  0  0  0  0
  139.3540   70.2260  223.5770 C   0  0  0  0  0  0  0  0  0  0  0  0
  139.1990   69.4410  224.7060 C   0  0  0  0  0  0  0  0  0  0  0  0
  139.7710   69.8470  225.8900 C   0  0  0  0  0  0  0  0  0  0  0  0
  139.6050   69.0550  226.9970 C   0  0  0  0  0  0  0  0  0  0  0  0
  140.1610   69.4250  228.1980 C   0  0  0  0  0  0  0  0  0  0  0  0
  139.9890   68.6370  229.2740 F   0  0  0  0  0  0  0  0  0  0  0  0
  140.8850   70.6150  228.2480 C   0  0  0  0  0  0  0  0  0  0  0  0
  141.0430   71.4060  227.1100 C   0  0  0  0  0  0  0  0  0  0  0  0
  140.4840   71.0280  225.9140 C   0  0  0  0  0  0  0  0  0  0  0  0
  140.6200   71.7720  224.8000 N   0  0  0  0  0  0  0  0  0  0  0  0
  140.6860   70.4820  221.2570 H   0  0  0  0  0  0  0  0  0  0  0  0
  140.2597   71.5418  219.1666 H   0  0  0  0  0  0  0  0  0  0  0  0
  140.1791   73.1671  220.1586 H   0  0  0  0  0  0  0  0  0  0  0  0
  144.0546   71.2662  221.0715 H   0  0  0  0  0  0  0  0  0  0  0  0
  143.8384   70.9909  219.3155 H   0  0  0  0  0  0  0  0  0  0  0  0
  146.2430   71.4053  219.9208 H   0  0  0  0  0  0  0  0  0  0  0  0
  145.6173   72.6571  218.8162 H   0  0  0  0  0  0  0  0  0  0  0  0
  145.5512   72.9288  221.8663 H   0  0  0  0  0  0  0  0  0  0  0  0
  146.9007   73.5328  220.8963 H   0  0  0  0  0  0  0  0  0  0  0  0
  145.2199   75.3424  221.1397 H   0  0  0  0  0  0  0  0  0  0  0  0
  145.1965   74.7889  219.4381 H   0  0  0  0  0  0  0  0  0  0  0  0
  143.3336   73.9144  221.6814 H   0  0  0  0  0  0  0  0  0  0  0  0
  141.5847   74.9310  220.4469 H   0  0  0  0  0  0  0  0  0  0  0  0
  142.8222   76.0465  221.1377 H   0  0  0  0  0  0  0  0  0  0  0  0
  138.9008   69.9124  222.6250 H   0  0  0  0  0  0  0  0  0  0  0  0
  138.6254   68.5036  224.6576 H   0  0  0  0  0  0  0  0  0  0  0  0
  139.0262   68.1225  226.9236 H   0  0  0  0  0  0  0  0  0  0  0  0
  141.3380   70.9348  229.1980 H   0  0  0  0  0  0  0  0  0  0  0  0
  141.6202   72.3404  227.1711 H   0  0  0  0  0  0  0  0  0  0  0  0
  1  2  2  0
  2  3  1  0
  3  4  1  0
  4  5  1  0
  5  6  2  0
  5  7  1  0
  7  8  1  0
  8  9  1  0
  9 10  1  0
 10 11  1  0
 11 12  1  0
 12 13  1  0
 13 14  1  0
 14 15  1  0
 14 16  1  0
 14 17  1  0
  2 18  1  0
 18 19  2  0
 19 20  1  0
 20 21  2  0
 21 22  1  0
 22 23  2  0
 23 24  1  0
 23 25  1  0
 25 26  2  0
 26 27  1  0
 27 28  2  0
 12  7  1  0
 28 18  1  0
 27 21  1  0
  3 29  1  0
  4 30  1  0
  4 31  1  0
  8 32  1  0
  8 33  1  0
  9 34  1  0
  9 35  1  0
 10 36  1  0
 10 37  1  0
 11 38  1  0
 11 39  1  0
 12 40  1  1
 13 41  1  0
 13 42  1  0
 19 43  1  0
 20 44  1  0
 22 45  1  0
 25 46  1  0
 26 47  1  0
M  END
>  <smiles>  (64) 
O=C(NCC(=O)N1CCCCC1CC(F)(F)F)c1ccc2cc(F)ccc2n1

>  <score_type>  (64) 
oracle

>  <origin>  (64) 
autodockgpu

>  <m_score__min__energy>  (64) 
-7.0999999999999996

>  <m_primary>  (64) 
energy

>  <rmsd>  (64) 
3.5903440901115844

>  <m_score__min__rmsd>  (64) 
3.5903440901115844

>  <meeko>  (64) 
{"free_energy": -6.69, "intermolecular_energy": -8.48, "internal_energy": -1.1, "cluster_size": 14, "cluster_id": 2, "rank_in_cluster": 8}

>  <energy>  (64) 
-6.67

>  <cluster_rmsd>  (64) 
1.96

>  <cluster>  (64) 
2

$$$$

     RDKit          3D

 47 49  0  0  0  0  0  0  0  0999 V2000
  140.1940   73.3710  222.6450 O   0  0  0  0  0  0  0  0  0  0  0  0
  140.1560   72.1150  222.5770 C   0  0  0  0  0  0  0  0  0  0  0  0
  140.1610   71.5370  221.2490 N   0  0  0  0  0  0  0  0  0  0  0  0
  140.2050   72.2900  220.0660 C   0  0  0  0  0  0  0  0  0  0  0  0
  141.4420   72.7830  219.4840 C   0  0  0  0  0  0  0  0  0  0  0  0
  141.3700   72.8870  218.1800 O   0  0  0  0  0  0  0  0  0  0  0  0
  142.6660   73.1580  220.0490 N   0  0  0  0  0  0  0  0  0  0  0  0
  143.5890   72.1040  220.4290 C   0  0  0  0  0  0  0  0  0  0  0  0
  145.0070   72.5530  220.0950 C   0  0  0  0  0  0  0  0  0  0  0  0
  145.2590   73.8440  220.8260 C   0  0  0  0  0  0  0  0  0  0  0  0
  144.4110   74.8920  220.1130 C   0  0  0  0  0  0  0  0  0  0  0  0
  142.9580   74.5450  220.3070 C   0  0  1  0  0  0  0  0  0  0  0  0
  142.0490   75.5650  219.7510 C   0  0  0  0  0  0  0  0  0  0  0  0
  141.1860   76.1920  220.8760 C   0  0  0  0  0  0  0  0  0  0  0  0
  141.4150   75.6210  222.0830 F   0  0  0  0  0  0  0  0  0  0  0  0
  139.8770   75.8180  220.5170 F   0  0  0  0  0  0  0  0  0  0  0  0
  141.1840   77.5520  220.8350 F   0  0  0  0  0  0  0  0  0  0  0  0
  140.1100   71.2620  223.7680 C   0  0  0  0  0  0  0  0  0  0  0  0
  139.5090   70.0300  223.6340 C   0  0  0  0  0  0  0  0  0  0  0  0
  139.4290   69.1720  224.7160 C   0  0  0  0  0  0  0  0  0  0  0  0
  139.9570   69.5650  225.9260 C   0  0  0  0  0  0  0  0  0  0  0  0
  139.8680   68.7000  226.9850 C   0  0  0  0  0  0  0  0  0  0  0  0
  140.3830   69.0550  228.2090 C   0  0  0  0  0  0  0  0  0  0  0  0
  140.2870   68.1950  229.2390 F   0  0  0  0  0  0  0  0  0  0  0  0
  140.9870   70.3050  228.3300 C   0  0  0  0  0  0  0  0  0  0  0  0
  141.0690   71.1700  227.2390 C   0  0  0  0  0  0  0  0  0  0  0  0
  140.5510   70.8070  226.0190 C   0  0  0  0  0  0  0  0  0  0  0  0
  140.6160   71.6220  224.9500 N   0  0  0  0  0  0  0  0  0  0  0  0
  140.1270   70.4720  221.2640 H   0  0  0  0  0  0  0  0  0  0  0  0
  139.7346   71.6654  219.2923 H   0  0  0  0  0  0  0  0  0  0  0  0
  139.7249   73.2268  220.3851 H   0  0  0  0  0  0  0  0  0  0  0  0
  143.5064   71.9110  221.5088 H   0  0  0  0  0  0  0  0  0  0  0  0
  143.3494   71.1804  219.8818 H   0  0  0  0  0  0  0  0  0  0  0  0
  145.7289   71.7899  220.4215 H   0  0  0  0  0  0  0  0  0  0  0  0
  145.1223   72.6942  219.0102 H   0  0  0  0  0  0  0  0  0  0  0  0
  144.9537   73.7548  221.8790 H   0  0  0  0  0  0  0  0  0  0  0  0
  146.3258   74.1123  220.8217 H   0  0  0  0  0  0  0  0  0  0  0  0
  144.6149   75.8859  220.5380 H   0  0  0  0  0  0  0  0  0  0  0  0
  144.6545   74.9073  219.0404 H   0  0  0  0  0  0  0  0  0  0  0  0
  142.7296   74.6091  221.3811 H   0  0  0  0  0  0  0  0  0  0  0  0
  142.6429   76.3545  219.2673 H   0  0  0  0  0  0  0  0  0  0  0  0
  141.3843   75.0875  219.0160 H   0  0  0  0  0  0  0  0  0  0  0  0
  139.0910   69.7272  222.6626 H   0  0  0  0  0  0  0  0  0  0  0  0
  138.9494   68.1876  224.6114 H   0  0  0  0  0  0  0  0  0  0  0  0
  139.3840   67.7207  226.8555 H   0  0  0  0  0  0  0  0  0  0  0  0
  141.4049   70.6138  229.2995 H   0  0  0  0  0  0  0  0  0  0  0  0
  141.5524   72.1511  227.3561 H   0  0  0  0  0  0  0  0  0  0  0  0
  1  2  2  0
  2  3  1  0
  3  4  1  0
  4  5  1  0
  5  6  2  0
  5  7  1  0
  7  8  1  0
  8  9  1  0
  9 10  1  0
 10 11  1  0
 11 12  1  0
 12 13  1  0
 13 14  1  0
 14 15  1  0
 14 16  1  0
 14 17  1  0
  2 18  1  0
 18 19  2  0
 19 20  1  0
 20 21  2  0
 21 22  1  0
 22 23  2  0
 23 24  1  0
 23 25  1  0
 25 26  2  0
 26 27  1  0
 27 28  2  0
 12  7  1  0
 28 18  1  0
 27 21  1  0
  3 29  1  0
  4 30  1  0
  4 31  1  0
  8 32  1  0
  8 33  1  0
  9 34  1  0
  9 35  1  0
 10 36  1  0
 10 37  1  0
 11 38  1  0
 11 39  1  0
 12 40  1  1
 13 41  1  0
 13 42  1  0
 19 43  1  0
 20 44  1  0
 22 45  1  0
 25 46  1  0
 26 47  1  0
M  END
>  <smiles>  (65) 
O=C(NCC(=O)N1CCCCC1CC(F)(F)F)c1ccc2cc(F)ccc2n1

>  <score_type>  (65) 
oracle

>  <origin>  (65) 
autodockgpu

>  <m_score__min__energy>  (65) 
-7.0999999999999996

>  <m_primary>  (65) 
energy

>  <rmsd>  (65) 
3.243767204438099

>  <m_score__min__rmsd>  (65) 
3.243767204438099

>  <meeko>  (65) 
{"free_energy": -6.71, "intermolecular_energy": -8.5, "internal_energy": -1.24, "cluster_size": 18, "cluster_id": 6, "rank_in_cluster": 4}

>  <energy>  (65) 
-6.59

>  <cluster_rmsd>  (65) 
0.66

>  <cluster>  (65) 
2

$$$$

     RDKit          3D

 47 49  0  0  0  0  0  0  0  0999 V2000
  134.3050   69.2180  226.4430 O   0  0  0  0  0  0  0  0  0  0  0  0
  134.6200   70.3520  225.9950 C   0  0  0  0  0  0  0  0  0  0  0  0
  135.7220   70.3950  225.0560 N   0  0  0  0  0  0  0  0  0  0  0  0
  136.4350   69.2650  224.6310 C   0  0  0  0  0  0  0  0  0  0  0  0
  137.8770   69.1400  224.7630 C   0  0  0  0  0  0  0  0  0  0  0  0
  138.3430   68.0910  224.1320 O   0  0  0  0  0  0  0  0  0  0  0  0
  138.8340   69.9150  225.4260 N   0  0  0  0  0  0  0  0  0  0  0  0
  139.3190   69.4440  226.7110 C   0  0  0  0  0  0  0  0  0  0  0  0
  140.8130   69.7310  226.8050 C   0  0  0  0  0  0  0  0  0  0  0  0
  141.0030   71.2120  226.6150 C   0  0  0  0  0  0  0  0  0  0  0  0
  140.7140   71.4760  225.1400 C   0  0  0  0  0  0  0  0  0  0  0  0
  139.2620   71.1760  224.8760 C   0  0  1  0  0  0  0  0  0  0  0  0
  138.8520   71.5130  223.4990 C   0  0  0  0  0  0  0  0  0  0  0  0
  139.8450   70.9040  222.4750 C   0  0  0  0  0  0  0  0  0  0  0  0
  140.9950   71.6120  222.3850 F   0  0  0  0  0  0  0  0  0  0  0  0
  139.1840   71.0890  221.2450 F   0  0  0  0  0  0  0  0  0  0  0  0
  139.9670   69.5550  222.6060 F   0  0  0  0  0  0  0  0  0  0  0  0
  133.9200   71.5770  226.3920 C   0  0  0  0  0  0  0  0  0  0  0  0
  132.7760   71.4300  227.1450 C   0  0  0  0  0  0  0  0  0  0  0  0
  132.0640   72.5420  227.5560 C   0  0  0  0  0  0  0  0  0  0  0  0
  132.5120   73.7950  227.2020 C   0  0  0  0  0  0  0  0  0  0  0  0
  131.7920   74.8840  227.6190 C   0  0  0  0  0  0  0  0  0  0  0  0
  132.2060   76.1510  227.2870 C   0  0  0  0  0  0  0  0  0  0  0  0
  131.4870   77.2090  227.7030 F   0  0  0  0  0  0  0  0  0  0  0  0
  133.3640   76.2850  226.5240 C   0  0  0  0  0  0  0  0  0  0  0  0
  134.0830   75.1640  226.1100 C   0  0  0  0  0  0  0  0  0  0  0  0
  133.6610   73.9010  226.4470 C   0  0  0  0  0  0  0  0  0  0  0  0
  134.3360   72.8010  226.0620 N   0  0  0  0  0  0  0  0  0  0  0  0
  135.9350   71.3830  224.7190 H   0  0  0  0  0  0  0  0  0  0  0  0
  136.0061   68.4130  225.1789 H   0  0  0  0  0  0  0  0  0  0  0  0
  136.3203   69.3319  223.5390 H   0  0  0  0  0  0  0  0  0  0  0  0
  138.7899   69.9677  227.5208 H   0  0  0  0  0  0  0  0  0  0  0  0
  139.1385   68.3631  226.8062 H   0  0  0  0  0  0  0  0  0  0  0  0
  141.1922   69.4274  227.7919 H   0  0  0  0  0  0  0  0  0  0  0  0
  141.3642   69.1684  226.0371 H   0  0  0  0  0  0  0  0  0  0  0  0
  140.3024   71.7738  227.2503 H   0  0  0  0  0  0  0  0  0  0  0  0
  142.0176   71.5318  226.8949 H   0  0  0  0  0  0  0  0  0  0  0  0
  140.9241   72.5295  224.9036 H   0  0  0  0  0  0  0  0  0  0  0  0
  141.3511   70.8369  224.5110 H   0  0  0  0  0  0  0  0  0  0  0  0
  138.6524   71.8771  225.4649 H   0  0  0  0  0  0  0  0  0  0  0  0
  137.8457   71.1103  223.3116 H   0  0  0  0  0  0  0  0  0  0  0  0
  138.8484   72.6071  223.3854 H   0  0  0  0  0  0  0  0  0  0  0  0
  132.4273   70.4238  227.4206 H   0  0  0  0  0  0  0  0  0  0  0  0
  131.1508   72.4269  228.1584 H   0  0  0  0  0  0  0  0  0  0  0  0
  130.8816   74.7433  228.2202 H   0  0  0  0  0  0  0  0  0  0  0  0
  133.7161   77.2889  226.2443 H   0  0  0  0  0  0  0  0  0  0  0  0
  134.9952   75.2923  225.5088 H   0  0  0  0  0  0  0  0  0  0  0  0
  1  2  2  0
  2  3  1  0
  3  4  1  0
  4  5  1  0
  5  6  2  0
  5  7  1  0
  7  8  1  0
  8  9  1  0
  9 10  1  0
 10 11  1  0
 11 12  1  0
 12 13  1  0
 13 14  1  0
 14 15  1  0
 14 16  1  0
 14 17  1  0
  2 18  1  0
 18 19  2  0
 19 20  1  0
 20 21  2  0
 21 22  1  0
 22 23  2  0
 23 24  1  0
 23 25  1  0
 25 26  2  0
 26 27  1  0
 27 28  2  0
 12  7  1  0
 28 18  1  0
 27 21  1  0
  3 29  1  0
  4 30  1  0
  4 31  1  0
  8 32  1  0
  8 33  1  0
  9 34  1  0
  9 35  1  0
 10 36  1  0
 10 37  1  0
 11 38  1  0
 11 39  1  0
 12 40  1  1
 13 41  1  0
 13 42  1  0
 19 43  1  0
 20 44  1  0
 22 45  1  0
 25 46  1  0
 26 47  1  0
M  END
>  <smiles>  (66) 
O=C(NCC(=O)N1CCCCC1CC(F)(F)F)c1ccc2cc(F)ccc2n1

>  <score_type>  (66) 
oracle

>  <origin>  (66) 
autodockgpu

>  <m_score__min__energy>  (66) 
-7.0999999999999996

>  <m_primary>  (66) 
energy

>  <rmsd>  (66) 
8.602652593948951

>  <m_score__min__rmsd>  (66) 
8.602652593948951

>  <meeko>  (66) 
{"free_energy": -6.24, "intermolecular_energy": -8.03, "internal_energy": -1.27, "cluster_size": 3, "cluster_id": 8, "rank_in_cluster": 3}

>  <energy>  (66) 
-6.59

>  <cluster_rmsd>  (66) 
1.63

>  <cluster>  (66) 
2

$$$$

     RDKit          3D

 47 49  0  0  0  0  0  0  0  0999 V2000
  141.7040   72.3580  221.2150 O   0  0  0  0  0  0  0  0  0  0  0  0
  141.0560   73.2590  221.8080 C   0  0  0  0  0  0  0  0  0  0  0  0
  140.1350   72.8240  222.8370 N   0  0  0  0  0  0  0  0  0  0  0  0
  139.9350   71.4830  223.1960 C   0  0  0  0  0  0  0  0  0  0  0  0
  139.5190   71.0700  224.5260 C   0  0  0  0  0  0  0  0  0  0  0  0
  138.2590   70.7140  224.5630 O   0  0  0  0  0  0  0  0  0  0  0  0
  140.2010   70.9860  225.7440 N   0  0  0  0  0  0  0  0  0  0  0  0
  141.1300   72.0510  226.0770 C   0  0  0  0  0  0  0  0  0  0  0  0
  141.0190   72.3480  227.5670 C   0  0  0  0  0  0  0  0  0  0  0  0
  141.3050   71.0700  228.3080 C   0  0  0  0  0  0  0  0  0  0  0  0
  140.0940   70.1750  228.0640 C   0  0  0  0  0  0  0  0  0  0  0  0
  140.0360   69.8370  226.5980 C   0  0  1  0  0  0  0  0  0  0  0  0
  138.9630   68.8770  226.2760 C   0  0  0  0  0  0  0  0  0  0  0  0
  139.5590   67.4740  225.9940 C   0  0  0  0  0  0  0  0  0  0  0  0
  139.2930   67.0420  224.7380 F   0  0  0  0  0  0  0  0  0  0  0  0
  138.8180   66.6370  226.8510 F   0  0  0  0  0  0  0  0  0  0  0  0
  140.8460   67.3590  226.4200 F   0  0  0  0  0  0  0  0  0  0  0  0
  141.2120   74.6810  221.4900 C   0  0  0  0  0  0  0  0  0  0  0  0
  141.9310   74.9950  220.3580 C   0  0  0  0  0  0  0  0  0  0  0  0
  142.1190   76.3160  219.9950 C   0  0  0  0  0  0  0  0  0  0  0  0
  141.5790   77.3110  220.7780 C   0  0  0  0  0  0  0  0  0  0  0  0
  141.7760   78.6140  220.4010 C   0  0  0  0  0  0  0  0  0  0  0  0
  141.2530   79.6360  221.1560 C   0  0  0  0  0  0  0  0  0  0  0  0
  141.4560   80.9090  220.7730 F   0  0  0  0  0  0  0  0  0  0  0  0
  140.5290   79.3040  222.2990 C   0  0  0  0  0  0  0  0  0  0  0  0
  140.3390   77.9720  222.6650 C   0  0  0  0  0  0  0  0  0  0  0  0
  140.8650   76.9570  221.9040 C   0  0  0  0  0  0  0  0  0  0  0  0
  140.6970   75.6620  222.2340 N   0  0  0  0  0  0  0  0  0  0  0  0
  139.6190   73.6360  223.2970 H   0  0  0  0  0  0  0  0  0  0  0  0
  139.1704   71.0962  222.5063 H   0  0  0  0  0  0  0  0  0  0  0  0
  140.9620   71.0908  223.1567 H   0  0  0  0  0  0  0  0  0  0  0  0
  142.1562   71.7352  225.8380 H   0  0  0  0  0  0  0  0  0  0  0  0
  140.8893   72.9535  225.4960 H   0  0  0  0  0  0  0  0  0  0  0  0
  141.7508   73.1184  227.8515 H   0  0  0  0  0  0  0  0  0  0  0  0
  140.0136   72.7205  227.8129 H   0  0  0  0  0  0  0  0  0  0  0  0
  142.2177   70.5959  227.9179 H   0  0  0  0  0  0  0  0  0  0  0  0
  141.4692   71.2493  229.3808 H   0  0  0  0  0  0  0  0  0  0  0  0
  140.1904   69.2516  228.6539 H   0  0  0  0  0  0  0  0  0  0  0  0
  139.1738   70.6960  228.3669 H   0  0  0  0  0  0  0  0  0  0  0  0
  140.9347   69.2562  226.3432 H   0  0  0  0  0  0  0  0  0  0  0  0
  138.2683   68.8113  227.1264 H   0  0  0  0  0  0  0  0  0  0  0  0
  138.4306   69.2252  225.3786 H   0  0  0  0  0  0  0  0  0  0  0  0
  142.3576   74.1913  219.7399 H   0  0  0  0  0  0  0  0  0  0  0  0
  142.6932   76.5687  219.0914 H   0  0  0  0  0  0  0  0  0  0  0  0
  142.3535   78.8418  219.4929 H   0  0  0  0  0  0  0  0  0  0  0  0
  140.1013   80.1038  222.9214 H   0  0  0  0  0  0  0  0  0  0  0  0
  139.7629   77.7322  223.5709 H   0  0  0  0  0  0  0  0  0  0  0  0
  1  2  2  0
  2  3  1  0
  3  4  1  0
  4  5  1  0
  5  6  2  0
  5  7  1  0
  7  8  1  0
  8  9  1  0
  9 10  1  0
 10 11  1  0
 11 12  1  0
 12 13  1  0
 13 14  1  0
 14 15  1  0
 14 16  1  0
 14 17  1  0
  2 18  1  0
 18 19  2  0
 19 20  1  0
 20 21  2  0
 21 22  1  0
 22 23  2  0
 23 24  1  0
 23 25  1  0
 25 26  2  0
 26 27  1  0
 27 28  2  0
 12  7  1  0
 28 18  1  0
 27 21  1  0
  3 29  1  0
  4 30  1  0
  4 31  1  0
  8 32  1  0
  8 33  1  0
  9 34  1  0
  9 35  1  0
 10 36  1  0
 10 37  1  0
 11 38  1  0
 11 39  1  0
 12 40  1  6
 13 41  1  0
 13 42  1  0
 19 43  1  0
 20 44  1  0
 22 45  1  0
 25 46  1  0
 26 47  1  0
M  END
>  <smiles>  (67) 
O=C(NCC(=O)N1CCCCC1CC(F)(F)F)c1ccc2cc(F)ccc2n1

>  <score_type>  (67) 
oracle

>  <origin>  (67) 
autodockgpu

>  <m_score__min__energy>  (67) 
-7.0999999999999996

>  <m_primary>  (67) 
energy

>  <rmsd>  (67) 
8.911091418370841

>  <m_score__min__rmsd>  (67) 
8.911091418370841

>  <meeko>  (67) 
{"free_energy": -6.87, "intermolecular_energy": -8.66, "internal_energy": -0.97, "cluster_size": 4, "cluster_id": 1, "rank_in_cluster": 3}

>  <energy>  (67) 
-6.57

>  <cluster_rmsd>  (67) 
1.58

>  <cluster>  (67) 
2

$$$$

     RDKit          3D

 47 49  0  0  0  0  0  0  0  0999 V2000
  140.6340   73.0180  222.7310 O   0  0  0  0  0  0  0  0  0  0  0  0
  140.4370   71.7850  222.8900 C   0  0  0  0  0  0  0  0  0  0  0  0
  140.1490   71.0150  221.6980 N   0  0  0  0  0  0  0  0  0  0  0  0
  140.0800   71.5620  220.4080 C   0  0  0  0  0  0  0  0  0  0  0  0
  141.2210   72.1640  219.7380 C   0  0  0  0  0  0  0  0  0  0  0  0
  141.0790   72.1830  218.4360 O   0  0  0  0  0  0  0  0  0  0  0  0
  142.4140   72.7120  220.2190 N   0  0  0  0  0  0  0  0  0  0  0  0
  143.4990   71.8020  220.5410 C   0  0  0  0  0  0  0  0  0  0  0  0
  144.8160   72.4400  220.1130 C   0  0  0  0  0  0  0  0  0  0  0  0
  144.9320   73.7620  220.8210 C   0  0  0  0  0  0  0  0  0  0  0  0
  143.9000   74.6730  220.1610 C   0  0  0  0  0  0  0  0  0  0  0  0
  142.5270   74.1300  220.4530 C   0  0  1  0  0  0  0  0  0  0  0  0
  141.4490   75.0060  219.9540 C   0  0  0  0  0  0  0  0  0  0  0  0
  140.7900   75.7750  221.1290 C   0  0  0  0  0  0  0  0  0  0  0  0
  141.4370   75.5810  222.3020 F   0  0  0  0  0  0  0  0  0  0  0  0
  139.5440   75.1320  221.2670 F   0  0  0  0  0  0  0  0  0  0  0  0
  140.4860   77.0600  220.8040 F   0  0  0  0  0  0  0  0  0  0  0  0
  140.4930   71.1420  224.2050 C   0  0  0  0  0  0  0  0  0  0  0  0
  141.0130   71.8830  225.2440 C   0  0  0  0  0  0  0  0  0  0  0  0
  141.0970   71.3410  226.5140 C   0  0  0  0  0  0  0  0  0  0  0  0
  140.6560   70.0540  226.7250 C   0  0  0  0  0  0  0  0  0  0  0  0
  140.7480   69.5350  227.9910 C   0  0  0  0  0  0  0  0  0  0  0  0
  140.3170   68.2550  228.2430 C   0  0  0  0  0  0  0  0  0  0  0  0
  140.4150   67.7610  229.4900 F   0  0  0  0  0  0  0  0  0  0  0  0
  139.7950   67.5170  227.1830 C   0  0  0  0  0  0  0  0  0  0  0  0
  139.7090   68.0630  225.9030 C   0  0  0  0  0  0  0  0  0  0  0  0
  140.1420   69.3440  225.6600 C   0  0  0  0  0  0  0  0  0  0  0  0
  140.0710   69.8960  224.4340 N   0  0  0  0  0  0  0  0  0  0  0  0
  139.9920   69.9810  221.9040 H   0  0  0  0  0  0  0  0  0  0  0  0
  139.7394   70.7474  219.7520 H   0  0  0  0  0  0  0  0  0  0  0  0
  139.4379   72.4391  220.5767 H   0  0  0  0  0  0  0  0  0  0  0  0
  143.5142   71.6130  221.6245 H   0  0  0  0  0  0  0  0  0  0  0  0
  143.3563   70.8474  220.0134 H   0  0  0  0  0  0  0  0  0  0  0  0
  145.6570   71.7890  220.3939 H   0  0  0  0  0  0  0  0  0  0  0  0
  144.8400   72.5823  219.0225 H   0  0  0  0  0  0  0  0  0  0  0  0
  144.7113   73.6446  221.8922 H   0  0  0  0  0  0  0  0  0  0  0  0
  145.9482   74.1764  220.7456 H   0  0  0  0  0  0  0  0  0  0  0  0
  143.9903   75.6913  220.5671 H   0  0  0  0  0  0  0  0  0  0  0  0
  144.0682   74.7077  219.0745 H   0  0  0  0  0  0  0  0  0  0  0  0
  142.3650   74.1759  221.5400 H   0  0  0  0  0  0  0  0  0  0  0  0
  141.8704   75.7281  219.2392 H   0  0  0  0  0  0  0  0  0  0  0  0
  140.6858   74.3868  219.4600 H   0  0  0  0  0  0  0  0  0  0  0  0
  141.3628   72.9100  225.0627 H   0  0  0  0  0  0  0  0  0  0  0  0
  141.5110   71.9310  227.3450 H   0  0  0  0  0  0  0  0  0  0  0  0
  141.1672   70.1440  228.8055 H   0  0  0  0  0  0  0  0  0  0  0  0
  139.4457   66.4888  227.3584 H   0  0  0  0  0  0  0  0  0  0  0  0
  139.2911   67.4633  225.0810 H   0  0  0  0  0  0  0  0  0  0  0  0
  1  2  2  0
  2  3  1  0
  3  4  1  0
  4  5  1  0
  5  6  2  0
  5  7  1  0
  7  8  1  0
  8  9  1  0
  9 10  1  0
 10 11  1  0
 11 12  1  0
 12 13  1  0
 13 14  1  0
 14 15  1  0
 14 16  1  0
 14 17  1  0
  2 18  1  0
 18 19  2  0
 19 20  1  0
 20 21  2  0
 21 22  1  0
 22 23  2  0
 23 24  1  0
 23 25  1  0
 25 26  2  0
 26 27  1  0
 27 28  2  0
 12  7  1  0
 28 18  1  0
 27 21  1  0
  3 29  1  0
  4 30  1  0
  4 31  1  0
  8 32  1  0
  8 33  1  0
  9 34  1  0
  9 35  1  0
 10 36  1  0
 10 37  1  0
 11 38  1  0
 11 39  1  0
 12 40  1  1
 13 41  1  0
 13 42  1  0
 19 43  1  0
 20 44  1  0
 22 45  1  0
 25 46  1  0
 26 47  1  0
M  END
>  <smiles>  (68) 
O=C(NCC(=O)N1CCCCC1CC(F)(F)F)c1ccc2cc(F)ccc2n1

>  <score_type>  (68) 
oracle

>  <origin>  (68) 
autodockgpu

>  <m_score__min__energy>  (68) 
-7.0999999999999996

>  <m_primary>  (68) 
energy

>  <rmsd>  (68) 
3.9986222324399994

>  <m_score__min__rmsd>  (68) 
3.9986222324399994

>  <meeko>  (68) 
{"free_energy": -6.32, "intermolecular_energy": -8.11, "internal_energy": -1.64, "cluster_size": 18, "cluster_id": 6, "rank_in_cluster": 16}

>  <energy>  (68) 
-6.37

>  <cluster_rmsd>  (68) 
1.12

>  <cluster>  (68) 
2

$$$$

     RDKit          3D

 47 49  0  0  0  0  0  0  0  0999 V2000
  141.4760   71.7540  221.3010 O   0  0  0  0  0  0  0  0  0  0  0  0
  140.7950   72.6780  221.8170 C   0  0  0  0  0  0  0  0  0  0  0  0
  139.7620   72.2790  222.7500 N   0  0  0  0  0  0  0  0  0  0  0  0
  139.4910   70.9470  223.0990 C   0  0  0  0  0  0  0  0  0  0  0  0
  138.9020   70.5630  224.3700 C   0  0  0  0  0  0  0  0  0  0  0  0
  137.7510   71.1510  224.5820 O   0  0  0  0  0  0  0  0  0  0  0  0
  139.3310   69.7010  225.3850 N   0  0  0  0  0  0  0  0  0  0  0  0
  138.8090   68.3460  225.3900 C   0  0  0  0  0  0  0  0  0  0  0  0
  139.9260   67.3940  225.8000 C   0  0  0  0  0  0  0  0  0  0  0  0
  140.4270   67.8330  227.1490 C   0  0  0  0  0  0  0  0  0  0  0  0
  141.1830   69.1340  226.9020 C   0  0  0  0  0  0  0  0  0  0  0  0
  140.2040   70.1760  226.4290 C   0  0  1  0  0  0  0  0  0  0  0  0
  140.8190   71.5080  226.2710 C   0  0  0  0  0  0  0  0  0  0  0  0
  140.9920   72.1900  227.6530 C   0  0  0  0  0  0  0  0  0  0  0  0
  141.7210   73.3290  227.5800 F   0  0  0  0  0  0  0  0  0  0  0  0
  141.7870   71.2710  228.3630 F   0  0  0  0  0  0  0  0  0  0  0  0
  139.8260   72.2560  228.3510 F   0  0  0  0  0  0  0  0  0  0  0  0
  141.0200   74.0920  221.5030 C   0  0  0  0  0  0  0  0  0  0  0  0
  141.9380   74.3770  220.5170 C   0  0  0  0  0  0  0  0  0  0  0  0
  142.2020   75.6890  220.1670 C   0  0  0  0  0  0  0  0  0  0  0  0
  141.5360   76.7040  220.8170 C   0  0  0  0  0  0  0  0  0  0  0  0
  141.8120   77.9970  220.4560 C   0  0  0  0  0  0  0  0  0  0  0  0
  141.1670   79.0380  221.0800 C   0  0  0  0  0  0  0  0  0  0  0  0
  141.4500   80.3010  220.7140 F   0  0  0  0  0  0  0  0  0  0  0  0
  140.2420   78.7350  222.0770 C   0  0  0  0  0  0  0  0  0  0  0  0
  139.9750   77.4120  222.4290 C   0  0  0  0  0  0  0  0  0  0  0  0
  140.6240   76.3780  221.7990 C   0  0  0  0  0  0  0  0  0  0  0  0
  140.3860   75.0920  222.1190 N   0  0  0  0  0  0  0  0  0  0  0  0
  139.2240   73.1090  223.1470 H   0  0  0  0  0  0  0  0  0  0  0  0
  138.8123   70.5633  222.3231 H   0  0  0  0  0  0  0  0  0  0  0  0
  140.5066   70.5357  223.1958 H   0  0  0  0  0  0  0  0  0  0  0  0
  137.9779   68.2721  226.1068 H   0  0  0  0  0  0  0  0  0  0  0  0
  138.4408   68.0824  224.3875 H   0  0  0  0  0  0  0  0  0  0  0  0
  139.5392   66.3660  225.8601 H   0  0  0  0  0  0  0  0  0  0  0  0
  140.7404   67.4135  225.0608 H   0  0  0  0  0  0  0  0  0  0  0  0
  139.5841   68.0030  227.8350 H   0  0  0  0  0  0  0  0  0  0  0  0
  141.0700   67.0702  227.6124 H   0  0  0  0  0  0  0  0  0  0  0  0
  141.6588   69.4691  227.8354 H   0  0  0  0  0  0  0  0  0  0  0  0
  141.9620   68.9774  226.1413 H   0  0  0  0  0  0  0  0  0  0  0  0
  139.4825   70.3618  227.2382 H   0  0  0  0  0  0  0  0  0  0  0  0
  141.8045   71.3982  225.7949 H   0  0  0  0  0  0  0  0  0  0  0  0
  140.1644   72.1316  225.6444 H   0  0  0  0  0  0  0  0  0  0  0  0
  142.4639   73.5575  220.0052 H   0  0  0  0  0  0  0  0  0  0  0  0
  142.9347   75.9186  219.3794 H   0  0  0  0  0  0  0  0  0  0  0  0
  142.5501   78.2017  219.6665 H   0  0  0  0  0  0  0  0  0  0  0  0
  139.7149   79.5506  222.5937 H   0  0  0  0  0  0  0  0  0  0  0  0
  139.2391   77.1949  223.2172 H   0  0  0  0  0  0  0  0  0  0  0  0
  1  2  2  0
  2  3  1  0
  3  4  1  0
  4  5  1  0
  5  6  2  0
  5  7  1  0
  7  8  1  0
  8  9  1  0
  9 10  1  0
 10 11  1  0
 11 12  1  0
 12 13  1  0
 13 14  1  0
 14 15  1  0
 14 16  1  0
 14 17  1  0
  2 18  1  0
 18 19  2  0
 19 20  1  0
 20 21  2  0
 21 22  1  0
 22 23  2  0
 23 24  1  0
 23 25  1  0
 25 26  2  0
 26 27  1  0
 27 28  2  0
 12  7  1  0
 28 18  1  0
 27 21  1  0
  3 29  1  0
  4 30  1  0
  4 31  1  0
  8 32  1  0
  8 33  1  0
  9 34  1  0
  9 35  1  0
 10 36  1  0
 10 37  1  0
 11 38  1  0
 11 39  1  0
 12 40  1  1
 13 41  1  0
 13 42  1  0
 19 43  1  0
 20 44  1  0
 22 45  1  0
 25 46  1  0
 26 47  1  0
M  END
>  <smiles>  (69) 
O=C(NCC(=O)N1CCCCC1CC(F)(F)F)c1ccc2cc(F)ccc2n1

>  <score_type>  (69) 
oracle

>  <origin>  (69) 
autodockgpu

>  <m_score__min__energy>  (69) 
-7.0999999999999996

>  <m_primary>  (69) 
energy

>  <rmsd>  (69) 
8.732387394388763

>  <m_score__min__rmsd>  (69) 
8.732387394388763

>  <meeko>  (69) 
{"free_energy": -7.1, "intermolecular_energy": -8.89, "internal_energy": -1.17, "cluster_size": 4, "cluster_id": 1, "rank_in_cluster": 1}

>  <energy>  (69) 
-6.88

>  <cluster_rmsd>  (69) 
0.0

>  <cluster>  (69) 
3

$$$$

     RDKit          3D

 47 49  0  0  0  0  0  0  0  0999 V2000
  140.2960   73.4530  222.3730 O   0  0  0  0  0  0  0  0  0  0  0  0
  140.2090   72.1980  222.3520 C   0  0  0  0  0  0  0  0  0  0  0  0
  140.1720   71.5720  221.0460 N   0  0  0  0  0  0  0  0  0  0  0  0
  140.2280   72.2780  219.8360 C   0  0  0  0  0  0  0  0  0  0  0  0
  141.4380   72.9140  219.3420 C   0  0  0  0  0  0  0  0  0  0  0  0
  141.3430   73.2480  218.0790 O   0  0  0  0  0  0  0  0  0  0  0  0
  142.6560   73.2280  219.9550 N   0  0  0  0  0  0  0  0  0  0  0  0
  143.5290   72.1300  220.3320 C   0  0  0  0  0  0  0  0  0  0  0  0
  144.9710   72.5360  220.0560 C   0  0  0  0  0  0  0  0  0  0  0  0
  145.2460   73.7950  220.8330 C   0  0  0  0  0  0  0  0  0  0  0  0
  144.4590   74.8930  220.1250 C   0  0  0  0  0  0  0  0  0  0  0  0
  142.9890   74.5950  220.2640 C   0  0  1  0  0  0  0  0  0  0  0  0
  142.1350   75.6640  219.7110 C   0  0  0  0  0  0  0  0  0  0  0  0
  141.2420   76.2720  220.8220 C   0  0  0  0  0  0  0  0  0  0  0  0
  141.4410   75.6850  222.0260 F   0  0  0  0  0  0  0  0  0  0  0  0
  139.9430   75.8990  220.4240 F   0  0  0  0  0  0  0  0  0  0  0  0
  141.2360   77.6320  220.8000 F   0  0  0  0  0  0  0  0  0  0  0  0
  140.1470   71.3920  223.5740 C   0  0  0  0  0  0  0  0  0  0  0  0
  139.5360   70.1610  223.4840 C   0  0  0  0  0  0  0  0  0  0  0  0
  139.4410   69.3460  224.5980 C   0  0  0  0  0  0  0  0  0  0  0  0
  139.9650   69.7810  225.7950 C   0  0  0  0  0  0  0  0  0  0  0  0
  139.8610   68.9580  226.8860 C   0  0  0  0  0  0  0  0  0  0  0  0
  140.3710   69.3560  228.0990 C   0  0  0  0  0  0  0  0  0  0  0  0
  140.2600   68.5370  229.1600 F   0  0  0  0  0  0  0  0  0  0  0  0
  140.9860   70.6040  228.1760 C   0  0  0  0  0  0  0  0  0  0  0  0
  141.0820   71.4250  227.0530 C   0  0  0  0  0  0  0  0  0  0  0  0
  140.5690   71.0200  225.8450 C   0  0  0  0  0  0  0  0  0  0  0  0
  140.6480   71.7920  224.7450 N   0  0  0  0  0  0  0  0  0  0  0  0
  140.0970   70.5100  221.1020 H   0  0  0  0  0  0  0  0  0  0  0  0
  139.9208   71.5658  219.0560 H   0  0  0  0  0  0  0  0  0  0  0  0
  139.5995   73.1516  220.0637 H   0  0  0  0  0  0  0  0  0  0  0  0
  143.4050   71.9092  221.4025 H   0  0  0  0  0  0  0  0  0  0  0  0
  143.2745   71.2319  219.7501 H   0  0  0  0  0  0  0  0  0  0  0  0
  145.6542   71.7377  220.3813 H   0  0  0  0  0  0  0  0  0  0  0  0
  145.1256   72.7046  218.9800 H   0  0  0  0  0  0  0  0  0  0  0  0
  144.9042   73.6870  221.8729 H   0  0  0  0  0  0  0  0  0  0  0  0
  146.3213   74.0239  220.8704 H   0  0  0  0  0  0  0  0  0  0  0  0
  144.6851   75.8665  220.5846 H   0  0  0  0  0  0  0  0  0  0  0  0
  144.7367   74.9288  219.0612 H   0  0  0  0  0  0  0  0  0  0  0  0
  142.7288   74.6370  221.3320 H   0  0  0  0  0  0  0  0  0  0  0  0
  142.7723   76.4534  219.2858 H   0  0  0  0  0  0  0  0  0  0  0  0
  141.4900   75.2365  218.9292 H   0  0  0  0  0  0  0  0  0  0  0  0
  139.1217   69.8243  222.5222 H   0  0  0  0  0  0  0  0  0  0  0  0
  138.9529   68.3627  224.5285 H   0  0  0  0  0  0  0  0  0  0  0  0
  139.3692   67.9786  226.7910 H   0  0  0  0  0  0  0  0  0  0  0  0
  141.4013   70.9461  229.1354 H   0  0  0  0  0  0  0  0  0  0  0  0
  141.5730   72.4059  227.1353 H   0  0  0  0  0  0  0  0  0  0  0  0
  1  2  2  0
  2  3  1  0
  3  4  1  0
  4  5  1  0
  5  6  2  0
  5  7  1  0
  7  8  1  0
  8  9  1  0
  9 10  1  0
 10 11  1  0
 11 12  1  0
 12 13  1  0
 13 14  1  0
 14 15  1  0
 14 16  1  0
 14 17  1  0
  2 18  1  0
 18 19  2  0
 19 20  1  0
 20 21  2  0
 21 22  1  0
 22 23  2  0
 23 24  1  0
 23 25  1  0
 25 26  2  0
 26 27  1  0
 27 28  2  0
 12  7  1  0
 28 18  1  0
 27 21  1  0
  3 29  1  0
  4 30  1  0
  4 31  1  0
  8 32  1  0
  8 33  1  0
  9 34  1  0
  9 35  1  0
 10 36  1  0
 10 37  1  0
 11 38  1  0
 11 39  1  0
 12 40  1  1
 13 41  1  0
 13 42  1  0
 19 43  1  0
 20 44  1  0
 22 45  1  0
 25 46  1  0
 26 47  1  0
M  END
>  <smiles>  (70) 
O=C(NCC(=O)N1CCCCC1CC(F)(F)F)c1ccc2cc(F)ccc2n1

>  <score_type>  (70) 
oracle

>  <origin>  (70) 
autodockgpu

>  <m_score__min__energy>  (70) 
-7.0999999999999996

>  <m_primary>  (70) 
energy

>  <rmsd>  (70) 
3.228539037993727

>  <m_score__min__rmsd>  (70) 
3.228539037993727

>  <meeko>  (70) 
{"free_energy": -6.68, "intermolecular_energy": -8.47, "internal_energy": -1.27, "cluster_size": 18, "cluster_id": 6, "rank_in_cluster": 8}

>  <energy>  (70) 
-6.64

>  <cluster_rmsd>  (70) 
1.99

>  <cluster>  (70) 
3

$$$$

     RDKit          3D

 47 49  0  0  0  0  0  0  0  0999 V2000
  134.6610   68.4530  225.5190 O   0  0  0  0  0  0  0  0  0  0  0  0
  134.9970   69.6660  225.4790 C   0  0  0  0  0  0  0  0  0  0  0  0
  136.3340   69.9520  225.0020 N   0  0  0  0  0  0  0  0  0  0  0  0
  137.2490   68.9710  224.5920 C   0  0  0  0  0  0  0  0  0  0  0  0
  138.5990   68.8720  225.1200 C   0  0  0  0  0  0  0  0  0  0  0  0
  139.1900   67.7590  224.7660 O   0  0  0  0  0  0  0  0  0  0  0  0
  139.3630   69.7290  225.9190 N   0  0  0  0  0  0  0  0  0  0  0  0
  139.2740   69.5730  227.3610 C   0  0  0  0  0  0  0  0  0  0  0  0
  140.6600   69.7780  227.9610 C   0  0  0  0  0  0  0  0  0  0  0  0
  141.1360   71.1450  227.5480 C   0  0  0  0  0  0  0  0  0  0  0  0
  141.4400   71.0400  226.0570 C   0  0  0  0  0  0  0  0  0  0  0  0
  140.1520   70.7770  225.3230 C   0  0  1  0  0  0  0  0  0  0  0  0
  140.3220   70.7740  223.8570 C   0  0  0  0  0  0  0  0  0  0  0  0
  139.1540   71.5330  223.1760 C   0  0  0  0  0  0  0  0  0  0  0  0
  139.5000   72.7870  222.8020 F   0  0  0  0  0  0  0  0  0  0  0  0
  138.2240   71.6880  224.2230 F   0  0  0  0  0  0  0  0  0  0  0  0
  138.5110   70.7740  222.2480 F   0  0  0  0  0  0  0  0  0  0  0  0
  134.0960   70.7460  225.8890 C   0  0  0  0  0  0  0  0  0  0  0  0
  132.8650   70.3810  226.3880 C   0  0  0  0  0  0  0  0  0  0  0  0
  131.9630   71.3470  226.7950 C   0  0  0  0  0  0  0  0  0  0  0  0
  132.3120   72.6760  226.6940 C   0  0  0  0  0  0  0  0  0  0  0  0
  131.4030   73.6180  227.1030 C   0  0  0  0  0  0  0  0  0  0  0  0
  131.7130   74.9540  227.0190 C   0  0  0  0  0  0  0  0  0  0  0  0
  130.8100   75.8660  227.4240 F   0  0  0  0  0  0  0  0  0  0  0  0
  132.9610   75.3090  226.5120 C   0  0  0  0  0  0  0  0  0  0  0  0
  133.8710   74.3340  226.1020 C   0  0  0  0  0  0  0  0  0  0  0  0
  133.5530   73.0010  226.1890 C   0  0  0  0  0  0  0  0  0  0  0  0
  134.4120   72.0400  225.8010 N   0  0  0  0  0  0  0  0  0  0  0  0
  136.5530   70.9960  224.9940 H   0  0  0  0  0  0  0  0  0  0  0  0
  136.7700   68.0037  224.8040 H   0  0  0  0  0  0  0  0  0  0  0  0
  137.4432   69.2749  223.5528 H   0  0  0  0  0  0  0  0  0  0  0  0
  138.5786   70.3197  227.7719 H   0  0  0  0  0  0  0  0  0  0  0  0
  138.9041   68.5667  227.6070 H   0  0  0  0  0  0  0  0  0  0  0  0
  140.6072   69.7146  229.0579 H   0  0  0  0  0  0  0  0  0  0  0  0
  141.3542   69.0027  227.6046 H   0  0  0  0  0  0  0  0  0  0  0  0
  140.3520   71.8953  227.7282 H   0  0  0  0  0  0  0  0  0  0  0  0
  142.0198   71.4592  228.1226 H   0  0  0  0  0  0  0  0  0  0  0  0
  141.8836   71.9818  225.7018 H   0  0  0  0  0  0  0  0  0  0  0  0
  142.1512   70.2209  225.8746 H   0  0  0  0  0  0  0  0  0  0  0  0
  139.4906   71.6441  225.4671 H   0  0  0  0  0  0  0  0  0  0  0  0
  141.2720   71.2660  223.6013 H   0  0  0  0  0  0  0  0  0  0  0  0
  140.3274   69.7334  223.5005 H   0  0  0  0  0  0  0  0  0  0  0  0
  132.5983   69.3165  226.4631 H   0  0  0  0  0  0  0  0  0  0  0  0
  130.9796   71.0580  227.1942 H   0  0  0  0  0  0  0  0  0  0  0  0
  130.4257   73.3040  227.4983 H   0  0  0  0  0  0  0  0  0  0  0  0
  133.2326   76.3721  226.4338 H   0  0  0  0  0  0  0  0  0  0  0  0
  134.8517   74.6358  225.7056 H   0  0  0  0  0  0  0  0  0  0  0  0
  1  2  2  0
  2  3  1  0
  3  4  1  0
  4  5  1  0
  5  6  2  0
  5  7  1  0
  7  8  1  0
  8  9  1  0
  9 10  1  0
 10 11  1  0
 11 12  1  0
 12 13  1  0
 13 14  1  0
 14 15  1  0
 14 16  1  0
 14 17  1  0
  2 18  1  0
 18 19  2  0
 19 20  1  0
 20 21  2  0
 21 22  1  0
 22 23  2  0
 23 24  1  0
 23 25  1  0
 25 26  2  0
 26 27  1  0
 27 28  2  0
 12  7  1  0
 28 18  1  0
 27 21  1  0
  3 29  1  0
  4 30  1  0
  4 31  1  0
  8 32  1  0
  8 33  1  0
  9 34  1  0
  9 35  1  0
 10 36  1  0
 10 37  1  0
 11 38  1  0
 11 39  1  0
 12 40  1  6
 13 41  1  0
 13 42  1  0
 19 43  1  0
 20 44  1  0
 22 45  1  0
 25 46  1  0
 26 47  1  0
M  END
>  <smiles>  (71) 
O=C(NCC(=O)N1CCCCC1CC(F)(F)F)c1ccc2cc(F)ccc2n1

>  <score_type>  (71) 
oracle

>  <origin>  (71) 
autodockgpu

>  <m_score__min__energy>  (71) 
-7.0999999999999996

>  <m_primary>  (71) 
energy

>  <rmsd>  (71) 
8.636163802416103

>  <m_score__min__rmsd>  (71) 
8.636163802416103

>  <meeko>  (71) 
{"free_energy": -6.38, "intermolecular_energy": -8.17, "internal_energy": -1.33, "cluster_size": 3, "cluster_id": 8, "rank_in_cluster": 2}

>  <energy>  (71) 
-6.54

>  <cluster_rmsd>  (71) 
1.96

>  <cluster>  (71) 
3

$$$$

     RDKit          3D

 47 49  0  0  0  0  0  0  0  0999 V2000
  140.4090   70.9980  221.6380 O   0  0  0  0  0  0  0  0  0  0  0  0
  140.0720   71.6320  222.6710 C   0  0  0  0  0  0  0  0  0  0  0  0
  139.5520   72.9690  222.4700 N   0  0  0  0  0  0  0  0  0  0  0  0
  139.4090   73.5750  221.2130 C   0  0  0  0  0  0  0  0  0  0  0  0
  140.4910   73.6690  220.2490 C   0  0  0  0  0  0  0  0  0  0  0  0
  140.0780   73.4810  219.0200 O   0  0  0  0  0  0  0  0  0  0  0  0
  141.8600   73.9170  220.3890 N   0  0  0  0  0  0  0  0  0  0  0  0
  142.7460   72.7760  220.5380 C   0  0  0  0  0  0  0  0  0  0  0  0
  144.0290   73.0470  219.7620 C   0  0  0  0  0  0  0  0  0  0  0  0
  144.6220   74.3220  220.2970 C   0  0  0  0  0  0  0  0  0  0  0  0
  143.7050   75.4390  219.8090 C   0  0  0  0  0  0  0  0  0  0  0  0
  142.3560   75.2680  220.4570 C   0  0  1  0  0  0  0  0  0  0  0  0
  141.4270   76.3690  220.1390 C   0  0  0  0  0  0  0  0  0  0  0  0
  140.7710   76.9150  221.4330 C   0  0  0  0  0  0  0  0  0  0  0  0
  141.3880   78.0270  221.8970 F   0  0  0  0  0  0  0  0  0  0  0  0
  141.0420   75.9040  222.3760 F   0  0  0  0  0  0  0  0  0  0  0  0
  139.4130   76.9590  221.3510 F   0  0  0  0  0  0  0  0  0  0  0  0
  140.1900   71.0650  224.0170 C   0  0  0  0  0  0  0  0  0  0  0  0
  140.7060   71.8820  224.9990 C   0  0  0  0  0  0  0  0  0  0  0  0
  140.8470   71.4150  226.2930 C   0  0  0  0  0  0  0  0  0  0  0  0
  140.4660   70.1240  226.5860 C   0  0  0  0  0  0  0  0  0  0  0  0
  140.6140   69.6800  227.8740 C   0  0  0  0  0  0  0  0  0  0  0  0
  140.2440   68.3990  228.2070 C   0  0  0  0  0  0  0  0  0  0  0  0
  140.3960   67.9790  229.4760 F   0  0  0  0  0  0  0  0  0  0  0  0
  139.7240   67.5840  227.2040 C   0  0  0  0  0  0  0  0  0  0  0  0
  139.5820   68.0550  225.8990 C   0  0  0  0  0  0  0  0  0  0  0  0
  139.9540   69.3370  225.5760 C   0  0  0  0  0  0  0  0  0  0  0  0
  139.8270   69.8180  224.3250 N   0  0  0  0  0  0  0  0  0  0  0  0
  139.2870   73.4480  223.3840 H   0  0  0  0  0  0  0  0  0  0  0  0
  138.5985   73.0312  220.7057 H   0  0  0  0  0  0  0  0  0  0  0  0
  139.2740   74.6301  221.4933 H   0  0  0  0  0  0  0  0  0  0  0  0
  142.9818   72.6273  221.6021 H   0  0  0  0  0  0  0  0  0  0  0  0
  142.2579   71.8701  220.1492 H   0  0  0  0  0  0  0  0  0  0  0  0
  144.7358   72.2161  219.9034 H   0  0  0  0  0  0  0  0  0  0  0  0
  143.8183   73.1399  218.6864 H   0  0  0  0  0  0  0  0  0  0  0  0
  144.6493   74.3007  221.3965 H   0  0  0  0  0  0  0  0  0  0  0  0
  145.6565   74.4654  219.9516 H   0  0  0  0  0  0  0  0  0  0  0  0
  144.1290   76.4152  220.0871 H   0  0  0  0  0  0  0  0  0  0  0  0
  143.6056   75.3936  218.7144 H   0  0  0  0  0  0  0  0  0  0  0  0
  142.4789   75.3900  221.5433 H   0  0  0  0  0  0  0  0  0  0  0  0
  141.9820   77.1798  219.6444 H   0  0  0  0  0  0  0  0  0  0  0  0
  140.6385   75.9887  219.4729 H   0  0  0  0  0  0  0  0  0  0  0  0
  141.0073   72.9108  224.7526 H   0  0  0  0  0  0  0  0  0  0  0  0
  141.2582   72.0662  227.0784 H   0  0  0  0  0  0  0  0  0  0  0  0
  141.0292   70.3494  228.6418 H   0  0  0  0  0  0  0  0  0  0  0  0
  139.4211   66.5543  227.4447 H   0  0  0  0  0  0  0  0  0  0  0  0
  139.1689   67.3946  225.1224 H   0  0  0  0  0  0  0  0  0  0  0  0
  1  2  2  0
  2  3  1  0
  3  4  1  0
  4  5  1  0
  5  6  2  0
  5  7  1  0
  7  8  1  0
  8  9  1  0
  9 10  1  0
 10 11  1  0
 11 12  1  0
 12 13  1  0
 13 14  1  0
 14 15  1  0
 14 16  1  0
 14 17  1  0
  2 18  1  0
 18 19  2  0
 19 20  1  0
 20 21  2  0
 21 22  1  0
 22 23  2  0
 23 24  1  0
 23 25  1  0
 25 26  2  0
 26 27  1  0
 27 28  2  0
 12  7  1  0
 28 18  1  0
 27 21  1  0
  3 29  1  0
  4 30  1  0
  4 31  1  0
  8 32  1  0
  8 33  1  0
  9 34  1  0
  9 35  1  0
 10 36  1  0
 10 37  1  0
 11 38  1  0
 11 39  1  0
 12 40  1  1
 13 41  1  0
 13 42  1  0
 19 43  1  0
 20 44  1  0
 22 45  1  0
 25 46  1  0
 26 47  1  0
M  END
>  <smiles>  (72) 
O=C(NCC(=O)N1CCCCC1CC(F)(F)F)c1ccc2cc(F)ccc2n1

>  <score_type>  (72) 
oracle

>  <origin>  (72) 
autodockgpu

>  <m_score__min__energy>  (72) 
-7.0999999999999996

>  <m_primary>  (72) 
energy

>  <rmsd>  (72) 
3.371576818260856

>  <m_score__min__rmsd>  (72) 
3.371576818260856

>  <meeko>  (72) 
{"free_energy": -6.54, "intermolecular_energy": -8.33, "internal_energy": -1.19, "cluster_size": 5, "cluster_id": 3, "rank_in_cluster": 3}

>  <energy>  (72) 
-6.44

>  <cluster_rmsd>  (72) 
1.78

>  <cluster>  (72) 
3

$$$$

     RDKit          3D

 47 49  0  0  0  0  0  0  0  0999 V2000
  140.3500   73.0470  222.7450 O   0  0  0  0  0  0  0  0  0  0  0  0
  140.3730   71.7960  222.8860 C   0  0  0  0  0  0  0  0  0  0  0  0
  140.3380   71.0070  221.6720 N   0  0  0  0  0  0  0  0  0  0  0  0
  140.2840   71.5520  220.3820 C   0  0  0  0  0  0  0  0  0  0  0  0
  141.4320   72.1510  219.7230 C   0  0  0  0  0  0  0  0  0  0  0  0
  141.3260   72.1220  218.4180 O   0  0  0  0  0  0  0  0  0  0  0  0
  142.6010   72.7390  220.2170 N   0  0  0  0  0  0  0  0  0  0  0  0
  143.7020   71.8630  220.5760 C   0  0  0  0  0  0  0  0  0  0  0  0
  145.0100   72.5260  220.1620 C   0  0  0  0  0  0  0  0  0  0  0  0
  145.0790   73.8640  220.8480 C   0  0  0  0  0  0  0  0  0  0  0  0
  144.0380   74.7350  220.1520 C   0  0  0  0  0  0  0  0  0  0  0  0
  142.6730   74.1630  220.4270 C   0  0  1  0  0  0  0  0  0  0  0  0
  141.5840   75.0030  219.8920 C   0  0  0  0  0  0  0  0  0  0  0  0
  140.9030   75.7980  221.0350 C   0  0  0  0  0  0  0  0  0  0  0  0
  141.4360   75.5200  222.2480 F   0  0  0  0  0  0  0  0  0  0  0  0
  139.5990   75.2670  221.0580 F   0  0  0  0  0  0  0  0  0  0  0  0
  140.7380   77.1140  220.7280 F   0  0  0  0  0  0  0  0  0  0  0  0
  140.4310   71.1530  224.2010 C   0  0  0  0  0  0  0  0  0  0  0  0
  140.9360   71.9010  225.2430 C   0  0  0  0  0  0  0  0  0  0  0  0
  141.0210   71.3590  226.5130 C   0  0  0  0  0  0  0  0  0  0  0  0
  140.5960   70.0660  226.7210 C   0  0  0  0  0  0  0  0  0  0  0  0
  140.6890   69.5480  227.9870 C   0  0  0  0  0  0  0  0  0  0  0  0
  140.2750   68.2610  228.2360 C   0  0  0  0  0  0  0  0  0  0  0  0
  140.3730   67.7680  229.4830 F   0  0  0  0  0  0  0  0  0  0  0  0
  139.7680   67.5170  227.1730 C   0  0  0  0  0  0  0  0  0  0  0  0
  139.6810   68.0630  225.8920 C   0  0  0  0  0  0  0  0  0  0  0  0
  140.0980   69.3500  225.6520 C   0  0  0  0  0  0  0  0  0  0  0  0
  140.0250   69.9020  224.4270 N   0  0  0  0  0  0  0  0  0  0  0  0
  140.3590   69.9580  221.8640 H   0  0  0  0  0  0  0  0  0  0  0  0
  139.9488   70.7371  219.7235 H   0  0  0  0  0  0  0  0  0  0  0  0
  139.6422   72.4307  220.5433 H   0  0  0  0  0  0  0  0  0  0  0  0
  143.7008   71.6937  221.6629 H   0  0  0  0  0  0  0  0  0  0  0  0
  143.5936   70.8960  220.0631 H   0  0  0  0  0  0  0  0  0  0  0  0
  145.8613   71.9017  220.4711 H   0  0  0  0  0  0  0  0  0  0  0  0
  145.0519   72.6492  219.0697 H   0  0  0  0  0  0  0  0  0  0  0  0
  144.8406   73.7604  221.9168 H   0  0  0  0  0  0  0  0  0  0  0  0
  146.0856   74.3029  220.7845 H   0  0  0  0  0  0  0  0  0  0  0  0
  144.0946   75.7625  220.5407 H   0  0  0  0  0  0  0  0  0  0  0  0
  144.2268   74.7535  219.0685 H   0  0  0  0  0  0  0  0  0  0  0  0
  142.4868   74.2239  221.5094 H   0  0  0  0  0  0  0  0  0  0  0  0
  141.9983   75.7085  219.1568 H   0  0  0  0  0  0  0  0  0  0  0  0
  140.8354   74.3544  219.4135 H   0  0  0  0  0  0  0  0  0  0  0  0
  141.2727   72.9328  225.0640 H   0  0  0  0  0  0  0  0  0  0  0  0
  141.4232   71.9537  227.3464 H   0  0  0  0  0  0  0  0  0  0  0  0
  141.0951   70.1626  228.8039 H   0  0  0  0  0  0  0  0  0  0  0  0
  139.4314   66.4842  227.3461 H   0  0  0  0  0  0  0  0  0  0  0  0
  139.2753   67.4583  225.0676 H   0  0  0  0  0  0  0  0  0  0  0  0
  1  2  2  0
  2  3  1  0
  3  4  1  0
  4  5  1  0
  5  6  2  0
  5  7  1  0
  7  8  1  0
  8  9  1  0
  9 10  1  0
 10 11  1  0
 11 12  1  0
 12 13  1  0
 13 14  1  0
 14 15  1  0
 14 16  1  0
 14 17  1  0
  2 18  1  0
 18 19  2  0
 19 20  1  0
 20 21  2  0
 21 22  1  0
 22 23  2  0
 23 24  1  0
 23 25  1  0
 25 26  2  0
 26 27  1  0
 27 28  2  0
 12  7  1  0
 28 18  1  0
 27 21  1  0
  3 29  1  0
  4 30  1  0
  4 31  1  0
  8 32  1  0
  8 33  1  0
  9 34  1  0
  9 35  1  0
 10 36  1  0
 10 37  1  0
 11 38  1  0
 11 39  1  0
 12 40  1  1
 13 41  1  0
 13 42  1  0
 19 43  1  0
 20 44  1  0
 22 45  1  0
 25 46  1  0
 26 47  1  0
M  END
>  <smiles>  (73) 
O=C(NCC(=O)N1CCCCC1CC(F)(F)F)c1ccc2cc(F)ccc2n1

>  <score_type>  (73) 
oracle

>  <origin>  (73) 
autodockgpu

>  <m_score__min__energy>  (73) 
-7.0999999999999996

>  <m_primary>  (73) 
energy

>  <rmsd>  (73) 
4.050355773580638

>  <m_score__min__rmsd>  (73) 
4.050355773580638

>  <meeko>  (73) 
{"free_energy": -6.43, "intermolecular_energy": -8.22, "internal_energy": -1.55, "cluster_size": 18, "cluster_id": 6, "rank_in_cluster": 12}

>  <energy>  (73) 
-6.28

>  <cluster_rmsd>  (73) 
1.72

>  <cluster>  (73) 
3

$$$$

     RDKit          3D

 47 49  0  0  0  0  0  0  0  0999 V2000
  140.7930   71.5050  221.4350 O   0  0  0  0  0  0  0  0  0  0  0  0
  140.2630   71.9080  222.5030 C   0  0  0  0  0  0  0  0  0  0  0  0
  139.7020   73.2420  222.4850 N   0  0  0  0  0  0  0  0  0  0  0  0
  139.7170   74.0860  221.3640 C   0  0  0  0  0  0  0  0  0  0  0  0
  140.6140   75.2220  221.2370 C   0  0  0  0  0  0  0  0  0  0  0  0
  140.6790   75.9270  222.3390 O   0  0  0  0  0  0  0  0  0  0  0  0
  141.4000   75.6890  220.1790 N   0  0  0  0  0  0  0  0  0  0  0  0
  140.8790   76.7820  219.3770 C   0  0  0  0  0  0  0  0  0  0  0  0
  142.0270   77.7200  219.0230 C   0  0  0  0  0  0  0  0  0  0  0  0
  143.0700   76.9100  218.3020 C   0  0  0  0  0  0  0  0  0  0  0  0
  143.6980   76.0120  219.3630 C   0  0  0  0  0  0  0  0  0  0  0  0
  142.6510   75.0510  219.8590 C   0  0  1  0  0  0  0  0  0  0  0  0
  143.1910   74.0590  220.8090 C   0  0  0  0  0  0  0  0  0  0  0  0
  144.5970   73.5870  220.3570 C   0  0  0  0  0  0  0  0  0  0  0  0
  144.6490   73.3110  219.0320 F   0  0  0  0  0  0  0  0  0  0  0  0
  144.7400   72.3470  221.0110 F   0  0  0  0  0  0  0  0  0  0  0  0
  145.5950   74.3640  220.8580 F   0  0  0  0  0  0  0  0  0  0  0  0
  140.2070   71.0840  223.7130 C   0  0  0  0  0  0  0  0  0  0  0  0
  139.6420   69.8330  223.5950 C   0  0  0  0  0  0  0  0  0  0  0  0
  139.5550   69.0000  224.6960 C   0  0  0  0  0  0  0  0  0  0  0  0
  140.0400   69.4370  225.9080 C   0  0  0  0  0  0  0  0  0  0  0  0
  139.9440   68.5960  226.9870 C   0  0  0  0  0  0  0  0  0  0  0  0
  140.4170   68.9950  228.2140 C   0  0  0  0  0  0  0  0  0  0  0  0
  140.3150   68.1580  229.2620 F   0  0  0  0  0  0  0  0  0  0  0  0
  140.9860   70.2620  228.3190 C   0  0  0  0  0  0  0  0  0  0  0  0
  141.0740   71.1020  227.2090 C   0  0  0  0  0  0  0  0  0  0  0  0
  140.5990   70.6960  225.9870 C   0  0  0  0  0  0  0  0  0  0  0  0
  140.6710   71.4850  224.8990 N   0  0  0  0  0  0  0  0  0  0  0  0
  139.2710   73.5190  223.4190 H   0  0  0  0  0  0  0  0  0  0  0  0
  139.9259   73.4377  220.5002 H   0  0  0  0  0  0  0  0  0  0  0  0
  138.7417   74.5867  221.4544 H   0  0  0  0  0  0  0  0  0  0  0  0
  140.4295   76.3833  218.4556 H   0  0  0  0  0  0  0  0  0  0  0  0
  140.1101   77.3283  219.9430 H   0  0  0  0  0  0  0  0  0  0  0  0
  141.6636   78.5286  218.3717 H   0  0  0  0  0  0  0  0  0  0  0  0
  142.4498   78.1735  219.9316 H   0  0  0  0  0  0  0  0  0  0  0  0
  142.6056   76.3028  217.5110 H   0  0  0  0  0  0  0  0  0  0  0  0
  143.8198   77.5518  217.8164 H   0  0  0  0  0  0  0  0  0  0  0  0
  144.5374   75.4520  218.9251 H   0  0  0  0  0  0  0  0  0  0  0  0
  144.0738   76.6222  220.1975 H   0  0  0  0  0  0  0  0  0  0  0  0
  142.3486   74.4094  219.0182 H   0  0  0  0  0  0  0  0  0  0  0  0
  143.2655   74.5160  221.8068 H   0  0  0  0  0  0  0  0  0  0  0  0
  142.5162   73.1908  220.8402 H   0  0  0  0  0  0  0  0  0  0  0  0
  139.2584   69.4951  222.6210 H   0  0  0  0  0  0  0  0  0  0  0  0
  139.1039   68.0009  224.6042 H   0  0  0  0  0  0  0  0  0  0  0  0
  139.4882   67.6017  226.8703 H   0  0  0  0  0  0  0  0  0  0  0  0
  141.3712   70.6048  229.2906 H   0  0  0  0  0  0  0  0  0  0  0  0
  141.5280   72.0984  227.3139 H   0  0  0  0  0  0  0  0  0  0  0  0
  1  2  2  0
  2  3  1  0
  3  4  1  0
  4  5  1  0
  5  6  2  0
  5  7  1  0
  7  8  1  0
  8  9  1  0
  9 10  1  0
 10 11  1  0
 11 12  1  0
 12 13  1  0
 13 14  1  0
 14 15  1  0
 14 16  1  0
 14 17  1  0
  2 18  1  0
 18 19  2  0
 19 20  1  0
 20 21  2  0
 21 22  1  0
 22 23  2  0
 23 24  1  0
 23 25  1  0
 25 26  2  0
 26 27  1  0
 27 28  2  0
 12  7  1  0
 28 18  1  0
 27 21  1  0
  3 29  1  0
  4 30  1  0
  4 31  1  0
  8 32  1  0
  8 33  1  0
  9 34  1  0
  9 35  1  0
 10 36  1  0
 10 37  1  0
 11 38  1  0
 11 39  1  0
 12 40  1  6
 13 41  1  0
 13 42  1  0
 19 43  1  0
 20 44  1  0
 22 45  1  0
 25 46  1  0
 26 47  1  0
M  END
>  <smiles>  (74) 
O=C(NCC(=O)N1CCCCC1CC(F)(F)F)c1ccc2cc(F)ccc2n1

>  <score_type>  (74) 
oracle

>  <origin>  (74) 
autodockgpu

>  <m_score__min__energy>  (74) 
-7.0999999999999996

>  <m_primary>  (74) 
energy

>  <rmsd>  (74) 
2.2183765814248004

>  <m_score__min__rmsd>  (74) 
2.2183765814248004

>  <meeko>  (74) 
{"free_energy": -6.94, "intermolecular_energy": -8.73, "internal_energy": -1.13, "cluster_size": 14, "cluster_id": 2, "rank_in_cluster": 6}

>  <energy>  (74) 
-6.82

>  <cluster_rmsd>  (74) 
0.0

>  <cluster>  (74) 
4

$$$$

     RDKit          3D

 47 49  0  0  0  0  0  0  0  0999 V2000
  140.2900   73.0330  222.7200 O   0  0  0  0  0  0  0  0  0  0  0  0
  140.3070   71.7830  222.8630 C   0  0  0  0  0  0  0  0  0  0  0  0
  140.2480   70.9910  221.6520 N   0  0  0  0  0  0  0  0  0  0  0  0
  140.1750   71.5350  220.3610 C   0  0  0  0  0  0  0  0  0  0  0  0
  141.2820   72.2340  219.7300 C   0  0  0  0  0  0  0  0  0  0  0  0
  141.0940   72.4010  218.4450 O   0  0  0  0  0  0  0  0  0  0  0  0
  142.4810   72.7490  220.2330 N   0  0  0  0  0  0  0  0  0  0  0  0
  143.5350   71.8090  220.5710 C   0  0  0  0  0  0  0  0  0  0  0  0
  144.8760   72.4110  220.1670 C   0  0  0  0  0  0  0  0  0  0  0  0
  145.0160   73.7280  220.8810 C   0  0  0  0  0  0  0  0  0  0  0  0
  144.0210   74.6680  220.2060 C   0  0  0  0  0  0  0  0  0  0  0  0
  142.6280   74.1620  220.4720 C   0  0  1  0  0  0  0  0  0  0  0  0
  141.5840   75.0690  219.9580 C   0  0  0  0  0  0  0  0  0  0  0  0
  140.7780   75.6860  221.1290 C   0  0  0  0  0  0  0  0  0  0  0  0
  139.4660   75.3520  221.0880 F   0  0  0  0  0  0  0  0  0  0  0  0
  140.8300   77.0670  220.8570 F   0  0  0  0  0  0  0  0  0  0  0  0
  141.4070   75.5420  222.3270 F   0  0  0  0  0  0  0  0  0  0  0  0
  140.3840   71.1420  224.1790 C   0  0  0  0  0  0  0  0  0  0  0  0
  140.9090   71.8880  225.2100 C   0  0  0  0  0  0  0  0  0  0  0  0
  141.0120   71.3480  226.4800 C   0  0  0  0  0  0  0  0  0  0  0  0
  140.5840   70.0570  226.6970 C   0  0  0  0  0  0  0  0  0  0  0  0
  140.6950   69.5410  227.9620 C   0  0  0  0  0  0  0  0  0  0  0  0
  140.2780   68.2570  228.2200 C   0  0  0  0  0  0  0  0  0  0  0  0
  140.3940   67.7650  229.4670 F   0  0  0  0  0  0  0  0  0  0  0  0
  139.7490   67.5140  227.1670 C   0  0  0  0  0  0  0  0  0  0  0  0
  139.6450   68.0580  225.8870 C   0  0  0  0  0  0  0  0  0  0  0  0
  140.0640   69.3420  225.6380 C   0  0  0  0  0  0  0  0  0  0  0  0
  139.9740   69.8930  224.4130 N   0  0  0  0  0  0  0  0  0  0  0  0
  140.2660   69.9430  221.8450 H   0  0  0  0  0  0  0  0  0  0  0  0
  139.9265   70.6969  219.6933 H   0  0  0  0  0  0  0  0  0  0  0  0
  139.4554   72.3537  220.5090 H   0  0  0  0  0  0  0  0  0  0  0  0
  143.5267   71.6175  221.6542 H   0  0  0  0  0  0  0  0  0  0  0  0
  143.3751   70.8598  220.0386 H   0  0  0  0  0  0  0  0  0  0  0  0
  145.6938   71.7363  220.4603 H   0  0  0  0  0  0  0  0  0  0  0  0
  144.9227   72.5549  219.0775 H   0  0  0  0  0  0  0  0  0  0  0  0
  144.7737   73.6141  221.9479 H   0  0  0  0  0  0  0  0  0  0  0  0
  146.0443   74.1146  220.8244 H   0  0  0  0  0  0  0  0  0  0  0  0
  144.1318   75.6824  220.6168 H   0  0  0  0  0  0  0  0  0  0  0  0
  144.2092   74.7005  219.1227 H   0  0  0  0  0  0  0  0  0  0  0  0
  142.4469   74.2091  221.5560 H   0  0  0  0  0  0  0  0  0  0  0  0
  142.0579   75.8759  219.3797 H   0  0  0  0  0  0  0  0  0  0  0  0
  140.8983   74.4958  219.3167 H   0  0  0  0  0  0  0  0  0  0  0  0
  141.2481   72.9177  225.0236 H   0  0  0  0  0  0  0  0  0  0  0  0
  141.4304   71.9423  227.3057 H   0  0  0  0  0  0  0  0  0  0  0  0
  141.1180   70.1547  228.7710 H   0  0  0  0  0  0  0  0  0  0  0  0
  139.4085   66.4837  227.3476 H   0  0  0  0  0  0  0  0  0  0  0  0
  139.2239   67.4536  225.0701 H   0  0  0  0  0  0  0  0  0  0  0  0
  1  2  2  0
  2  3  1  0
  3  4  1  0
  4  5  1  0
  5  6  2  0
  5  7  1  0
  7  8  1  0
  8  9  1  0
  9 10  1  0
 10 11  1  0
 11 12  1  0
 12 13  1  0
 13 14  1  0
 14 15  1  0
 14 16  1  0
 14 17  1  0
  2 18  1  0
 18 19  2  0
 19 20  1  0
 20 21  2  0
 21 22  1  0
 22 23  2  0
 23 24  1  0
 23 25  1  0
 25 26  2  0
 26 27  1  0
 27 28  2  0
 12  7  1  0
 28 18  1  0
 27 21  1  0
  3 29  1  0
  4 30  1  0
  4 31  1  0
  8 32  1  0
  8 33  1  0
  9 34  1  0
  9 35  1  0
 10 36  1  0
 10 37  1  0
 11 38  1  0
 11 39  1  0
 12 40  1  1
 13 41  1  0
 13 42  1  0
 19 43  1  0
 20 44  1  0
 22 45  1  0
 25 46  1  0
 26 47  1  0
M  END
>  <smiles>  (75) 
O=C(NCC(=O)N1CCCCC1CC(F)(F)F)c1ccc2cc(F)ccc2n1

>  <score_type>  (75) 
oracle

>  <origin>  (75) 
autodockgpu

>  <m_score__min__energy>  (75) 
-7.0999999999999996

>  <m_primary>  (75) 
energy

>  <rmsd>  (75) 
4.008484243162081

>  <m_score__min__rmsd>  (75) 
4.008484243162081

>  <meeko>  (75) 
{"free_energy": -6.43, "intermolecular_energy": -8.22, "internal_energy": -1.58, "cluster_size": 18, "cluster_id": 6, "rank_in_cluster": 13}

>  <energy>  (75) 
-6.78

>  <cluster_rmsd>  (75) 
0.0

>  <cluster>  (75) 
5

$$$$

     RDKit          3D

 47 49  0  0  0  0  0  0  0  0999 V2000
  141.3660   72.1480  221.7580 O   0  0  0  0  0  0  0  0  0  0  0  0
  140.4300   72.2810  222.5880 C   0  0  0  0  0  0  0  0  0  0  0  0
  139.4970   73.3610  222.3460 N   0  0  0  0  0  0  0  0  0  0  0  0
  139.5810   74.2430  221.2590 C   0  0  0  0  0  0  0  0  0  0  0  0
  140.5440   75.3290  221.1900 C   0  0  0  0  0  0  0  0  0  0  0  0
  140.6960   75.9310  222.3430 O   0  0  0  0  0  0  0  0  0  0  0  0
  141.3190   75.8370  220.1420 N   0  0  0  0  0  0  0  0  0  0  0  0
  140.7670   76.9250  219.3550 C   0  0  0  0  0  0  0  0  0  0  0  0
  141.8860   77.9040  219.0210 C   0  0  0  0  0  0  0  0  0  0  0  0
  142.9560   77.1380  218.2910 C   0  0  0  0  0  0  0  0  0  0  0  0
  143.6090   76.2440  219.3410 C   0  0  0  0  0  0  0  0  0  0  0  0
  142.5910   75.2420  219.8170 C   0  0  1  0  0  0  0  0  0  0  0  0
  143.1580   74.2530  220.7530 C   0  0  0  0  0  0  0  0  0  0  0  0
  144.5480   73.7760  220.2600 C   0  0  0  0  0  0  0  0  0  0  0  0
  144.5880   73.5990  218.9180 F   0  0  0  0  0  0  0  0  0  0  0  0
  144.6590   72.4890  220.8200 F   0  0  0  0  0  0  0  0  0  0  0  0
  145.5690   74.4860  220.8120 F   0  0  0  0  0  0  0  0  0  0  0  0
  140.2750   71.3970  223.7470 C   0  0  0  0  0  0  0  0  0  0  0  0
  139.5960   70.2150  223.5490 C   0  0  0  0  0  0  0  0  0  0  0  0
  139.4110   69.3320  224.5970 C   0  0  0  0  0  0  0  0  0  0  0  0
  139.9140   69.6500  225.8390 C   0  0  0  0  0  0  0  0  0  0  0  0
  139.7210   68.7610  226.8650 C   0  0  0  0  0  0  0  0  0  0  0  0
  140.2080   69.0410  228.1190 C   0  0  0  0  0  0  0  0  0  0  0  0
  140.0090   68.1590  229.1150 F   0  0  0  0  0  0  0  0  0  0  0  0
  140.8920   70.2400  228.3060 C   0  0  0  0  0  0  0  0  0  0  0  0
  141.0790   71.1310  227.2480 C   0  0  0  0  0  0  0  0  0  0  0  0
  140.5890   70.8430  225.9980 C   0  0  0  0  0  0  0  0  0  0  0  0
  140.7550   71.6830  224.9600 N   0  0  0  0  0  0  0  0  0  0  0  0
  138.7320   73.4160  223.0860 H   0  0  0  0  0  0  0  0  0  0  0  0
  139.7683   73.6161  220.3747 H   0  0  0  0  0  0  0  0  0  0  0  0
  138.6345   74.7957  221.3524 H   0  0  0  0  0  0  0  0  0  0  0  0
  140.3341   76.5268  218.4255 H   0  0  0  0  0  0  0  0  0  0  0  0
  139.9788   77.4377  219.9258 H   0  0  0  0  0  0  0  0  0  0  0  0
  141.4999   78.7114  218.3815 H   0  0  0  0  0  0  0  0  0  0  0  0
  142.2913   78.3560  219.9383 H   0  0  0  0  0  0  0  0  0  0  0  0
  142.5130   76.5286  217.4895 H   0  0  0  0  0  0  0  0  0  0  0  0
  143.6866   77.8102  217.8173 H   0  0  0  0  0  0  0  0  0  0  0  0
  144.4678   75.7183  218.8982 H   0  0  0  0  0  0  0  0  0  0  0  0
  143.9620   76.8526  220.1866 H   0  0  0  0  0  0  0  0  0  0  0  0
  142.3123   74.6036  218.9656 H   0  0  0  0  0  0  0  0  0  0  0  0
  143.2644   74.7137  221.7462 H   0  0  0  0  0  0  0  0  0  0  0  0
  142.4827   73.3864  220.8081 H   0  0  0  0  0  0  0  0  0  0  0  0
  139.1990   69.9723  222.5523 H   0  0  0  0  0  0  0  0  0  0  0  0
  138.8690   68.3877  224.4406 H   0  0  0  0  0  0  0  0  0  0  0  0
  139.1758   67.8229  226.6840 H   0  0  0  0  0  0  0  0  0  0  0  0
  141.2902   70.4880  229.3010 H   0  0  0  0  0  0  0  0  0  0  0  0
  141.6234   72.0718  227.4170 H   0  0  0  0  0  0  0  0  0  0  0  0
  1  2  2  0
  2  3  1  0
  3  4  1  0
  4  5  1  0
  5  6  2  0
  5  7  1  0
  7  8  1  0
  8  9  1  0
  9 10  1  0
 10 11  1  0
 11 12  1  0
 12 13  1  0
 13 14  1  0
 14 15  1  0
 14 16  1  0
 14 17  1  0
  2 18  1  0
 18 19  2  0
 19 20  1  0
 20 21  2  0
 21 22  1  0
 22 23  2  0
 23 24  1  0
 23 25  1  0
 25 26  2  0
 26 27  1  0
 27 28  2  0
 12  7  1  0
 28 18  1  0
 27 21  1  0
  3 29  1  0
  4 30  1  0
  4 31  1  0
  8 32  1  0
  8 33  1  0
  9 34  1  0
  9 35  1  0
 10 36  1  0
 10 37  1  0
 11 38  1  0
 11 39  1  0
 12 40  1  6
 13 41  1  0
 13 42  1  0
 19 43  1  0
 20 44  1  0
 22 45  1  0
 25 46  1  0
 26 47  1  0
M  END
>  <smiles>  (76) 
O=C(NCC(=O)N1CCCCC1CC(F)(F)F)c1ccc2cc(F)ccc2n1

>  <score_type>  (76) 
oracle

>  <origin>  (76) 
autodockgpu

>  <m_score__min__energy>  (76) 
-7.0999999999999996

>  <m_primary>  (76) 
energy

>  <rmsd>  (76) 
2.2288432100230064

>  <m_score__min__rmsd>  (76) 
2.2288432100230064

>  <meeko>  (76) 
{"free_energy": -7.08, "intermolecular_energy": -8.87, "internal_energy": -1.09, "cluster_size": 14, "cluster_id": 2, "rank_in_cluster": 2}

>  <energy>  (76) 
-6.38

>  <cluster_rmsd>  (76) 
0.55

>  <cluster>  (76) 
5

$$$$

     RDKit          3D

 47 49  0  0  0  0  0  0  0  0999 V2000
  139.6210   74.9060  222.3370 O   0  0  0  0  0  0  0  0  0  0  0  0
  140.5430   75.2330  221.5440 C   0  0  0  0  0  0  0  0  0  0  0  0
  140.5110   76.5880  221.0370 N   0  0  0  0  0  0  0  0  0  0  0  0
  139.5300   77.5320  221.3780 C   0  0  0  0  0  0  0  0  0  0  0  0
  139.5820   78.3280  222.5920 C   0  0  0  0  0  0  0  0  0  0  0  0
  138.5090   78.1780  223.3290 O   0  0  0  0  0  0  0  0  0  0  0  0
  140.5440   79.2040  223.1050 N   0  0  0  0  0  0  0  0  0  0  0  0
  141.8340   78.6530  223.4790 C   0  0  0  0  0  0  0  0  0  0  0  0
  142.9220   79.6450  223.0860 C   0  0  0  0  0  0  0  0  0  0  0  0
  142.6210   80.9470  223.7760 C   0  0  0  0  0  0  0  0  0  0  0  0
  141.3940   81.5130  223.0670 C   0  0  0  0  0  0  0  0  0  0  0  0
  140.2290   80.5940  223.3200 C   0  0  1  0  0  0  0  0  0  0  0  0
  138.9620   81.1140  222.7700 C   0  0  0  0  0  0  0  0  0  0  0  0
  137.8750   81.1700  223.8750 C   0  0  0  0  0  0  0  0  0  0  0  0
  138.2570   80.5350  225.0080 F   0  0  0  0  0  0  0  0  0  0  0  0
  136.8330   80.3930  223.3330 F   0  0  0  0  0  0  0  0  0  0  0  0
  137.3440   82.4140  224.0210 F   0  0  0  0  0  0  0  0  0  0  0  0
  141.6020   74.3030  221.1430 C   0  0  0  0  0  0  0  0  0  0  0  0
  141.2680   72.9700  221.0580 C   0  0  0  0  0  0  0  0  0  0  0  0
  142.2170   72.0350  220.6850 C   0  0  0  0  0  0  0  0  0  0  0  0
  143.4970   72.4550  220.4020 C   0  0  0  0  0  0  0  0  0  0  0  0
  144.4230   71.5130  220.0340 C   0  0  0  0  0  0  0  0  0  0  0  0
  145.7120   71.8910  219.7420 C   0  0  0  0  0  0  0  0  0  0  0  0
  146.6080   70.9540  219.3840 F   0  0  0  0  0  0  0  0  0  0  0  0
  146.0360   73.2430  219.8340 C   0  0  0  0  0  0  0  0  0  0  0  0
  145.0790   74.1860  220.2090 C   0  0  0  0  0  0  0  0  0  0  0  0
  143.7930   73.7980  220.4990 C   0  0  0  0  0  0  0  0  0  0  0  0
  142.8500   74.6870  220.8630 N   0  0  0  0  0  0  0  0  0  0  0  0
  141.3180   76.7970  220.3720 H   0  0  0  0  0  0  0  0  0  0  0  0
  139.5001   78.2510  220.5460 H   0  0  0  0  0  0  0  0  0  0  0  0
  138.6637   76.8843  221.5783 H   0  0  0  0  0  0  0  0  0  0  0  0
  141.8629   78.4832  224.5654 H   0  0  0  0  0  0  0  0  0  0  0  0
  141.9961   77.6952  222.9629 H   0  0  0  0  0  0  0  0  0  0  0  0
  143.9052   79.2695  223.4058 H   0  0  0  0  0  0  0  0  0  0  0  0
  142.9439   79.7821  221.9948 H   0  0  0  0  0  0  0  0  0  0  0  0
  142.4044   80.7762  224.8409 H   0  0  0  0  0  0  0  0  0  0  0  0
  143.4742   81.6396  223.7284 H   0  0  0  0  0  0  0  0  0  0  0  0
  141.1680   82.5153  223.4599 H   0  0  0  0  0  0  0  0  0  0  0  0
  141.5854   81.5897  221.9865 H   0  0  0  0  0  0  0  0  0  0  0  0
  140.0192   80.5963  224.3998 H   0  0  0  0  0  0  0  0  0  0  0  0
  139.1277   82.1264  222.3731 H   0  0  0  0  0  0  0  0  0  0  0  0
  138.6202   80.4442  221.9671 H   0  0  0  0  0  0  0  0  0  0  0  0
  140.2419   72.6470  221.2877 H   0  0  0  0  0  0  0  0  0  0  0  0
  141.9521   70.9696  220.6155 H   0  0  0  0  0  0  0  0  0  0  0  0
  144.1340   70.4534  219.9724 H   0  0  0  0  0  0  0  0  0  0  0  0
  147.0611   73.5714  219.6077 H   0  0  0  0  0  0  0  0  0  0  0  0
  145.3559   75.2486  220.2731 H   0  0  0  0  0  0  0  0  0  0  0  0
  1  2  2  0
  2  3  1  0
  3  4  1  0
  4  5  1  0
  5  6  2  0
  5  7  1  0
  7  8  1  0
  8  9  1  0
  9 10  1  0
 10 11  1  0
 11 12  1  0
 12 13  1  0
 13 14  1  0
 14 15  1  0
 14 16  1  0
 14 17  1  0
  2 18  1  0
 18 19  2  0
 19 20  1  0
 20 21  2  0
 21 22  1  0
 22 23  2  0
 23 24  1  0
 23 25  1  0
 25 26  2  0
 26 27  1  0
 27 28  2  0
 12  7  1  0
 28 18  1  0
 27 21  1  0
  3 29  1  0
  4 30  1  0
  4 31  1  0
  8 32  1  0
  8 33  1  0
  9 34  1  0
  9 35  1  0
 10 36  1  0
 10 37  1  0
 11 38  1  0
 11 39  1  0
 12 40  1  1
 13 41  1  0
 13 42  1  0
 19 43  1  0
 20 44  1  0
 22 45  1  0
 25 46  1  0
 26 47  1  0
M  END
>  <smiles>  (77) 
O=C(NCC(=O)N1CCCCC1CC(F)(F)F)c1ccc2cc(F)ccc2n1

>  <score_type>  (77) 
oracle

>  <origin>  (77) 
autodockgpu

>  <m_score__min__energy>  (77) 
-7.0999999999999996

>  <m_primary>  (77) 
energy

>  <rmsd>  (77) 
6.778056796198174

>  <m_score__min__rmsd>  (77) 
6.778056796198174

>  <meeko>  (77) 
{"free_energy": -6.31, "intermolecular_energy": -8.1, "internal_energy": -1.19, "cluster_size": 1, "cluster_id": 9, "rank_in_cluster": 1}

>  <energy>  (77) 
-6.73

>  <cluster_rmsd>  (77) 
0.0

>  <cluster>  (77) 
6

$$$$

     RDKit          3D

 47 49  0  0  0  0  0  0  0  0999 V2000
  140.2740   71.6110  221.0360 O   0  0  0  0  0  0  0  0  0  0  0  0
  140.0310   72.1580  222.1440 C   0  0  0  0  0  0  0  0  0  0  0  0
  139.7810   73.5840  222.1220 N   0  0  0  0  0  0  0  0  0  0  0  0
  139.7950   74.3660  220.9580 C   0  0  0  0  0  0  0  0  0  0  0  0
  139.4650   75.7810  220.9470 C   0  0  0  0  0  0  0  0  0  0  0  0
  138.9680   76.1660  219.7980 O   0  0  0  0  0  0  0  0  0  0  0  0
  139.5780   76.7820  221.9170 N   0  0  0  0  0  0  0  0  0  0  0  0
  140.9130   77.1750  222.3350 C   0  0  0  0  0  0  0  0  0  0  0  0
  140.9360   78.6850  222.5410 C   0  0  0  0  0  0  0  0  0  0  0  0
  139.8810   79.0210  223.5600 C   0  0  0  0  0  0  0  0  0  0  0  0
  138.5460   78.8100  222.8530 C   0  0  0  0  0  0  0  0  0  0  0  0
  138.4020   77.3470  222.5280 C   0  0  1  0  0  0  0  0  0  0  0  0
  137.0870   77.0190  221.9430 C   0  0  0  0  0  0  0  0  0  0  0  0
  136.4180   75.8630  222.7310 C   0  0  0  0  0  0  0  0  0  0  0  0
  136.6110   75.9670  224.0670 F   0  0  0  0  0  0  0  0  0  0  0  0
  137.1560   74.7350  222.3240 F   0  0  0  0  0  0  0  0  0  0  0  0
  135.1460   75.6170  222.3150 F   0  0  0  0  0  0  0  0  0  0  0  0
  139.9990   71.4060  223.4010 C   0  0  0  0  0  0  0  0  0  0  0  0
  139.5030   70.1220  223.3520 C   0  0  0  0  0  0  0  0  0  0  0  0
  139.4420   69.3530  224.5010 C   0  0  0  0  0  0  0  0  0  0  0  0
  139.8820   69.8890  225.6910 C   0  0  0  0  0  0  0  0  0  0  0  0
  139.8130   69.1100  226.8170 C   0  0  0  0  0  0  0  0  0  0  0  0
  140.2420   69.6070  228.0240 C   0  0  0  0  0  0  0  0  0  0  0  0
  140.1670   68.8310  229.1200 F   0  0  0  0  0  0  0  0  0  0  0  0
  140.7400   70.9080  228.0600 C   0  0  0  0  0  0  0  0  0  0  0  0
  140.8030   71.6830  226.9010 C   0  0  0  0  0  0  0  0  0  0  0  0
  140.3710   71.1780  225.6990 C   0  0  0  0  0  0  0  0  0  0  0  0
  140.4200   71.9040  224.5670 N   0  0  0  0  0  0  0  0  0  0  0  0
  139.5850   73.9810  223.0920 H   0  0  0  0  0  0  0  0  0  0  0  0
  140.8159   74.2906  220.5555 H   0  0  0  0  0  0  0  0  0  0  0  0
  138.9488   73.9402  220.3989 H   0  0  0  0  0  0  0  0  0  0  0  0
  141.1698   76.6689  223.2773 H   0  0  0  0  0  0  0  0  0  0  0  0
  141.6456   76.8906  221.5653 H   0  0  0  0  0  0  0  0  0  0  0  0
  141.9247   78.9986  222.9072 H   0  0  0  0  0  0  0  0  0  0  0  0
  140.7382   79.2074  221.5934 H   0  0  0  0  0  0  0  0  0  0  0  0
  139.9633   78.3552  224.4318 H   0  0  0  0  0  0  0  0  0  0  0  0
  139.9868   80.0511  223.9310 H   0  0  0  0  0  0  0  0  0  0  0  0
  137.7236   79.1263  223.5115 H   0  0  0  0  0  0  0  0  0  0  0  0
  138.5111   79.4059  221.9291 H   0  0  0  0  0  0  0  0  0  0  0  0
  138.3689   76.7875  223.4745 H   0  0  0  0  0  0  0  0  0  0  0  0
  136.4401   77.9077  221.9842 H   0  0  0  0  0  0  0  0  0  0  0  0
  137.2296   76.7034  220.8989 H   0  0  0  0  0  0  0  0  0  0  0  0
  139.1539   69.7060  222.3954 H   0  0  0  0  0  0  0  0  0  0  0  0
  139.0472   68.3269  224.4643 H   0  0  0  0  0  0  0  0  0  0  0  0
  139.4141   68.0868  226.7542 H   0  0  0  0  0  0  0  0  0  0  0  0
  141.0881   71.3297  229.0145 H   0  0  0  0  0  0  0  0  0  0  0  0
  141.2020   72.7069  226.9506 H   0  0  0  0  0  0  0  0  0  0  0  0
  1  2  2  0
  2  3  1  0
  3  4  1  0
  4  5  1  0
  5  6  2  0
  5  7  1  0
  7  8  1  0
  8  9  1  0
  9 10  1  0
 10 11  1  0
 11 12  1  0
 12 13  1  0
 13 14  1  0
 14 15  1  0
 14 16  1  0
 14 17  1  0
  2 18  1  0
 18 19  2  0
 19 20  1  0
 20 21  2  0
 21 22  1  0
 22 23  2  0
 23 24  1  0
 23 25  1  0
 25 26  2  0
 26 27  1  0
 27 28  2  0
 12  7  1  0
 28 18  1  0
 27 21  1  0
  3 29  1  0
  4 30  1  0
  4 31  1  0
  8 32  1  0
  8 33  1  0
  9 34  1  0
  9 35  1  0
 10 36  1  0
 10 37  1  0
 11 38  1  0
 11 39  1  0
 12 40  1  1
 13 41  1  0
 13 42  1  0
 19 43  1  0
 20 44  1  0
 22 45  1  0
 25 46  1  0
 26 47  1  0
M  END
>  <smiles>  (78) 
O=C(NCC(=O)N1CCCCC1CC(F)(F)F)c1ccc2cc(F)ccc2n1

>  <score_type>  (78) 
oracle

>  <origin>  (78) 
autodockgpu

>  <m_score__min__energy>  (78) 
-7.0999999999999996

>  <m_primary>  (78) 
energy

>  <rmsd>  (78) 
3.2366065326984517

>  <m_score__min__rmsd>  (78) 
3.2366065326984517

>  <meeko>  (78) 
{"free_energy": -6.38, "intermolecular_energy": -8.17, "internal_energy": -1.16, "cluster_size": 2, "cluster_id": 5, "rank_in_cluster": 2}

>  <energy>  (78) 
-6.73

>  <cluster_rmsd>  (78) 
0.06

>  <cluster>  (78) 
6

$$$$

     RDKit          3D

 47 49  0  0  0  0  0  0  0  0999 V2000
  140.5910   73.0170  222.6910 O   0  0  0  0  0  0  0  0  0  0  0  0
  140.3880   71.7860  222.8550 C   0  0  0  0  0  0  0  0  0  0  0  0
  140.0690   71.0170  221.6700 N   0  0  0  0  0  0  0  0  0  0  0  0
  139.9800   71.5630  220.3810 C   0  0  0  0  0  0  0  0  0  0  0  0
  141.0710   72.2810  219.7440 C   0  0  0  0  0  0  0  0  0  0  0  0
  140.8090   72.5740  218.4950 O   0  0  0  0  0  0  0  0  0  0  0  0
  142.3190   72.7050  220.2110 N   0  0  0  0  0  0  0  0  0  0  0  0
  143.3080   71.6890  220.5250 C   0  0  0  0  0  0  0  0  0  0  0  0
  144.6780   72.1860  220.0810 C   0  0  0  0  0  0  0  0  0  0  0  0
  144.9380   73.4920  220.7830 C   0  0  0  0  0  0  0  0  0  0  0  0
  143.9990   74.5010  220.1300 C   0  0  0  0  0  0  0  0  0  0  0  0
  142.5790   74.1040  220.4380 C   0  0  1  0  0  0  0  0  0  0  0  0
  141.5930   75.0850  219.9470 C   0  0  0  0  0  0  0  0  0  0  0  0
  140.7370   75.6260  221.1210 C   0  0  0  0  0  0  0  0  0  0  0  0
  139.4900   75.0990  221.1390 F   0  0  0  0  0  0  0  0  0  0  0  0
  140.5730   76.9860  220.7930 F   0  0  0  0  0  0  0  0  0  0  0  0
  141.4150   75.6310  222.3010 F   0  0  0  0  0  0  0  0  0  0  0  0
  140.4660   71.1440  224.1700 C   0  0  0  0  0  0  0  0  0  0  0  0
  141.0100   71.8820  225.1980 C   0  0  0  0  0  0  0  0  0  0  0  0
  141.1150   71.3410  226.4660 C   0  0  0  0  0  0  0  0  0  0  0  0
  140.6700   70.0570  226.6870 C   0  0  0  0  0  0  0  0  0  0  0  0
  140.7830   69.5390  227.9520 C   0  0  0  0  0  0  0  0  0  0  0  0
  140.3500   68.2610  228.2130 C   0  0  0  0  0  0  0  0  0  0  0  0
  140.4690   67.7680  229.4590 F   0  0  0  0  0  0  0  0  0  0  0  0
  139.8030   67.5250  227.1650 C   0  0  0  0  0  0  0  0  0  0  0  0
  139.6960   68.0710  225.8850 C   0  0  0  0  0  0  0  0  0  0  0  0
  140.1320   69.3490  225.6330 C   0  0  0  0  0  0  0  0  0  0  0  0
  140.0400   69.9010  224.4090 N   0  0  0  0  0  0  0  0  0  0  0  0
  139.9090   69.9850  221.8810 H   0  0  0  0  0  0  0  0  0  0  0  0
  139.7406   70.7226  219.7128 H   0  0  0  0  0  0  0  0  0  0  0  0
  139.2492   72.3704  220.5364 H   0  0  0  0  0  0  0  0  0  0  0  0
  143.3155   71.5025  221.6090 H   0  0  0  0  0  0  0  0  0  0  0  0
  143.0619   70.7528  220.0025 H   0  0  0  0  0  0  0  0  0  0  0  0
  145.4502   71.4523  220.3556 H   0  0  0  0  0  0  0  0  0  0  0  0
  144.7045   72.3221  218.9898 H   0  0  0  0  0  0  0  0  0  0  0  0
  144.7179   73.4014  221.8570 H   0  0  0  0  0  0  0  0  0  0  0  0
  145.9907   73.7991  220.6959 H   0  0  0  0  0  0  0  0  0  0  0  0
  144.1982   75.5059  220.5305 H   0  0  0  0  0  0  0  0  0  0  0  0
  144.1584   74.5136  219.0417 H   0  0  0  0  0  0  0  0  0  0  0  0
  142.4321   74.1701  221.5261 H   0  0  0  0  0  0  0  0  0  0  0  0
  142.1223   75.9223  219.4686 H   0  0  0  0  0  0  0  0  0  0  0  0
  140.9305   74.5916  219.2206 H   0  0  0  0  0  0  0  0  0  0  0  0
  141.3626   72.9067  225.0092 H   0  0  0  0  0  0  0  0  0  0  0  0
  141.5487   71.9292  227.2881 H   0  0  0  0  0  0  0  0  0  0  0  0
  141.2204   70.1467  228.7579 H   0  0  0  0  0  0  0  0  0  0  0  0
  139.4504   66.4993  227.3485 H   0  0  0  0  0  0  0  0  0  0  0  0
  139.2591   67.4732  225.0715 H   0  0  0  0  0  0  0  0  0  0  0  0
  1  2  2  0
  2  3  1  0
  3  4  1  0
  4  5  1  0
  5  6  2  0
  5  7  1  0
  7  8  1  0
  8  9  1  0
  9 10  1  0
 10 11  1  0
 11 12  1  0
 12 13  1  0
 13 14  1  0
 14 15  1  0
 14 16  1  0
 14 17  1  0
  2 18  1  0
 18 19  2  0
 19 20  1  0
 20 21  2  0
 21 22  1  0
 22 23  2  0
 23 24  1  0
 23 25  1  0
 25 26  2  0
 26 27  1  0
 27 28  2  0
 12  7  1  0
 28 18  1  0
 27 21  1  0
  3 29  1  0
  4 30  1  0
  4 31  1  0
  8 32  1  0
  8 33  1  0
  9 34  1  0
  9 35  1  0
 10 36  1  0
 10 37  1  0
 11 38  1  0
 11 39  1  0
 12 40  1  1
 13 41  1  0
 13 42  1  0
 19 43  1  0
 20 44  1  0
 22 45  1  0
 25 46  1  0
 26 47  1  0
M  END
>  <smiles>  (79) 
O=C(NCC(=O)N1CCCCC1CC(F)(F)F)c1ccc2cc(F)ccc2n1

>  <score_type>  (79) 
oracle

>  <origin>  (79) 
autodockgpu

>  <m_score__min__energy>  (79) 
-7.0999999999999996

>  <m_primary>  (79) 
energy

>  <rmsd>  (79) 
3.9679063701642323

>  <m_score__min__rmsd>  (79) 
3.9679063701642323

>  <meeko>  (79) 
{"free_energy": -6.31, "intermolecular_energy": -8.1, "internal_energy": -1.65, "cluster_size": 18, "cluster_id": 6, "rank_in_cluster": 17}

>  <energy>  (79) 
-6.71

>  <cluster_rmsd>  (79) 
0.16

>  <cluster>  (79) 
6

$$$$

     RDKit          3D

 47 49  0  0  0  0  0  0  0  0999 V2000
  140.3340   73.0300  222.7100 O   0  0  0  0  0  0  0  0  0  0  0  0
  140.3540   71.7800  222.8560 C   0  0  0  0  0  0  0  0  0  0  0  0
  140.3280   70.9860  221.6450 N   0  0  0  0  0  0  0  0  0  0  0  0
  140.2840   71.5280  220.3520 C   0  0  0  0  0  0  0  0  0  0  0  0
  141.4390   72.1200  219.6990 C   0  0  0  0  0  0  0  0  0  0  0  0
  141.3430   72.0850  218.3930 O   0  0  0  0  0  0  0  0  0  0  0  0
  142.6070   72.7070  220.1990 N   0  0  0  0  0  0  0  0  0  0  0  0
  143.6920   71.8280  220.5960 C   0  0  0  0  0  0  0  0  0  0  0  0
  145.0140   72.4680  220.1880 C   0  0  0  0  0  0  0  0  0  0  0  0
  145.0860   73.8200  220.8450 C   0  0  0  0  0  0  0  0  0  0  0  0
  144.0660   74.6860  220.1120 C   0  0  0  0  0  0  0  0  0  0  0  0
  142.6900   74.1340  220.3780 C   0  0  1  0  0  0  0  0  0  0  0  0
  141.6190   74.9730  219.8060 C   0  0  0  0  0  0  0  0  0  0  0  0
  141.0660   75.9490  220.8760 C   0  0  0  0  0  0  0  0  0  0  0  0
  141.6930   77.1490  220.8550 F   0  0  0  0  0  0  0  0  0  0  0  0
  141.4470   75.3390  222.0870 F   0  0  0  0  0  0  0  0  0  0  0  0
  139.7060   75.9710  220.9080 F   0  0  0  0  0  0  0  0  0  0  0  0
  140.4010   71.1420  224.1740 C   0  0  0  0  0  0  0  0  0  0  0  0
  140.8320   71.9140  225.2300 C   0  0  0  0  0  0  0  0  0  0  0  0
  140.9020   71.3780  226.5030 C   0  0  0  0  0  0  0  0  0  0  0  0
  140.5370   70.0650  226.7000 C   0  0  0  0  0  0  0  0  0  0  0  0
  140.6140   69.5530  227.9690 C   0  0  0  0  0  0  0  0  0  0  0  0
  140.2580   68.2470  228.2070 C   0  0  0  0  0  0  0  0  0  0  0  0
  140.3400   67.7600  229.4590 F   0  0  0  0  0  0  0  0  0  0  0  0
  139.8260   67.4770  227.1300 C   0  0  0  0  0  0  0  0  0  0  0  0
  139.7540   68.0180  225.8460 C   0  0  0  0  0  0  0  0  0  0  0  0
  140.1120   69.3240  225.6170 C   0  0  0  0  0  0  0  0  0  0  0  0
  140.0520   69.8710  224.3890 N   0  0  0  0  0  0  0  0  0  0  0  0
  140.3460   69.9390  221.8410 H   0  0  0  0  0  0  0  0  0  0  0  0
  139.9494   70.7127  219.6937 H   0  0  0  0  0  0  0  0  0  0  0  0
  139.6447   72.4097  220.5064 H   0  0  0  0  0  0  0  0  0  0  0  0
  143.6715   71.6839  221.6863 H   0  0  0  0  0  0  0  0  0  0  0  0
  143.5814   70.8504  220.1040 H   0  0  0  0  0  0  0  0  0  0  0  0
  145.8536   71.8421  220.5246 H   0  0  0  0  0  0  0  0  0  0  0  0
  145.0748   72.5660  219.0941 H   0  0  0  0  0  0  0  0  0  0  0  0
  144.8286   73.7430  221.9117 H   0  0  0  0  0  0  0  0  0  0  0  0
  146.0982   74.2469  220.7889 H   0  0  0  0  0  0  0  0  0  0  0  0
  144.1274   75.7215  220.4780 H   0  0  0  0  0  0  0  0  0  0  0  0
  144.2725   74.6781  219.0316 H   0  0  0  0  0  0  0  0  0  0  0  0
  142.4862   74.2211  221.4555 H   0  0  0  0  0  0  0  0  0  0  0  0
  142.0236   75.5516  218.9625 H   0  0  0  0  0  0  0  0  0  0  0  0
  140.8021   74.3220  219.4612 H   0  0  0  0  0  0  0  0  0  0  0  0
  141.1218   72.9615  225.0602 H   0  0  0  0  0  0  0  0  0  0  0  0
  141.2451   71.9932  227.3479 H   0  0  0  0  0  0  0  0  0  0  0  0
  140.9610   70.1878  228.7976 H   0  0  0  0  0  0  0  0  0  0  0  0
  139.5377   66.4282  227.2939 H   0  0  0  0  0  0  0  0  0  0  0  0
  139.4075   67.3930  225.0097 H   0  0  0  0  0  0  0  0  0  0  0  0
  1  2  2  0
  2  3  1  0
  3  4  1  0
  4  5  1  0
  5  6  2  0
  5  7  1  0
  7  8  1  0
  8  9  1  0
  9 10  1  0
 10 11  1  0
 11 12  1  0
 12 13  1  0
 13 14  1  0
 14 15  1  0
 14 16  1  0
 14 17  1  0
  2 18  1  0
 18 19  2  0
 19 20  1  0
 20 21  2  0
 21 22  1  0
 22 23  2  0
 23 24  1  0
 23 25  1  0
 25 26  2  0
 26 27  1  0
 27 28  2  0
 12  7  1  0
 28 18  1  0
 27 21  1  0
  3 29  1  0
  4 30  1  0
  4 31  1  0
  8 32  1  0
  8 33  1  0
  9 34  1  0
  9 35  1  0
 10 36  1  0
 10 37  1  0
 11 38  1  0
 11 39  1  0
 12 40  1  1
 13 41  1  0
 13 42  1  0
 19 43  1  0
 20 44  1  0
 22 45  1  0
 25 46  1  0
 26 47  1  0
M  END
>  <smiles>  (80) 
O=C(NCC(=O)N1CCCCC1CC(F)(F)F)c1ccc2cc(F)ccc2n1

>  <score_type>  (80) 
oracle

>  <origin>  (80) 
autodockgpu

>  <m_score__min__energy>  (80) 
-7.0999999999999996

>  <m_primary>  (80) 
energy

>  <rmsd>  (80) 
4.060793975361647

>  <m_score__min__rmsd>  (80) 
4.060793975361647

>  <meeko>  (80) 
{"free_energy": -6.42, "intermolecular_energy": -8.21, "internal_energy": -1.53, "cluster_size": 18, "cluster_id": 6, "rank_in_cluster": 15}

>  <energy>  (80) 
-6.71

>  <cluster_rmsd>  (80) 
0.17

>  <cluster>  (80) 
6

$$$$

     RDKit          3D

 47 49  0  0  0  0  0  0  0  0999 V2000
  140.3060   70.9280  221.5660 O   0  0  0  0  0  0  0  0  0  0  0  0
  140.0360   71.6030  222.5940 C   0  0  0  0  0  0  0  0  0  0  0  0
  139.5900   72.9630  222.3760 N   0  0  0  0  0  0  0  0  0  0  0  0
  139.4460   73.5500  221.1100 C   0  0  0  0  0  0  0  0  0  0  0  0
  140.5650   73.7940  220.2160 C   0  0  0  0  0  0  0  0  0  0  0  0
  140.1810   73.9590  218.9750 O   0  0  0  0  0  0  0  0  0  0  0  0
  141.9430   73.8830  220.4340 N   0  0  0  0  0  0  0  0  0  0  0  0
  142.6760   72.6500  220.6630 C   0  0  0  0  0  0  0  0  0  0  0  0
  144.0240   72.7450  219.9600 C   0  0  0  0  0  0  0  0  0  0  0  0
  144.7350   73.9560  220.4990 C   0  0  0  0  0  0  0  0  0  0  0  0
  143.9870   75.1580  219.9300 C   0  0  0  0  0  0  0  0  0  0  0  0
  142.5930   75.1680  220.4990 C   0  0  1  0  0  0  0  0  0  0  0  0
  141.8220   76.3610  220.0990 C   0  0  0  0  0  0  0  0  0  0  0  0
  140.9720   76.8790  221.2870 C   0  0  0  0  0  0  0  0  0  0  0  0
  139.7330   77.2710  220.9050 F   0  0  0  0  0  0  0  0  0  0  0  0
  141.6450   78.0560  221.6680 F   0  0  0  0  0  0  0  0  0  0  0  0
  141.0460   76.0660  222.3750 F   0  0  0  0  0  0  0  0  0  0  0  0
  140.1600   71.0590  223.9490 C   0  0  0  0  0  0  0  0  0  0  0  0
  140.6960   71.8880  224.9100 C   0  0  0  0  0  0  0  0  0  0  0  0
  140.8430   71.4420  226.2120 C   0  0  0  0  0  0  0  0  0  0  0  0
  140.4490   70.1620  226.5310 C   0  0  0  0  0  0  0  0  0  0  0  0
  140.6030   69.7390  227.8260 C   0  0  0  0  0  0  0  0  0  0  0  0
  140.2210   68.4690  228.1860 C   0  0  0  0  0  0  0  0  0  0  0  0
  140.3800   68.0700  229.4610 F   0  0  0  0  0  0  0  0  0  0  0  0
  139.6820   67.6420  227.2030 C   0  0  0  0  0  0  0  0  0  0  0  0
  139.5330   68.0920  225.8910 C   0  0  0  0  0  0  0  0  0  0  0  0
  139.9180   69.3630  225.5400 C   0  0  0  0  0  0  0  0  0  0  0  0
  139.7850   69.8220  224.2820 N   0  0  0  0  0  0  0  0  0  0  0  0
  139.3800   73.4770  223.2860 H   0  0  0  0  0  0  0  0  0  0  0  0
  138.7504   72.9039  220.5544 H   0  0  0  0  0  0  0  0  0  0  0  0
  139.1516   74.5758  221.3768 H   0  0  0  0  0  0  0  0  0  0  0  0
  142.8309   72.5066  221.7425 H   0  0  0  0  0  0  0  0  0  0  0  0
  142.1063   71.7964  220.2670 H   0  0  0  0  0  0  0  0  0  0  0  0
  144.6170   71.8410  220.1627 H   0  0  0  0  0  0  0  0  0  0  0  0
  143.8865   72.8307  218.8720 H   0  0  0  0  0  0  0  0  0  0  0  0
  144.6975   73.9657  221.5983 H   0  0  0  0  0  0  0  0  0  0  0  0
  145.7972   73.9651  220.2133 H   0  0  0  0  0  0  0  0  0  0  0  0
  144.5083   76.0854  220.2095 H   0  0  0  0  0  0  0  0  0  0  0  0
  143.9452   75.0903  218.8329 H   0  0  0  0  0  0  0  0  0  0  0  0
  142.6676   75.3086  221.5874 H   0  0  0  0  0  0  0  0  0  0  0  0
  142.5172   77.1512  219.7791 H   0  0  0  0  0  0  0  0  0  0  0  0
  141.1502   76.0903  219.2711 H   0  0  0  0  0  0  0  0  0  0  0  0
  141.0082   72.9080  224.6416 H   0  0  0  0  0  0  0  0  0  0  0  0
  141.2692   72.1018  226.9821 H   0  0  0  0  0  0  0  0  0  0  0  0
  141.0329   70.4171  228.5779 H   0  0  0  0  0  0  0  0  0  0  0  0
  139.3697   66.6203  227.4649 H   0  0  0  0  0  0  0  0  0  0  0  0
  139.1034   67.4231  225.1308 H   0  0  0  0  0  0  0  0  0  0  0  0
  1  2  2  0
  2  3  1  0
  3  4  1  0
  4  5  1  0
  5  6  2  0
  5  7  1  0
  7  8  1  0
  8  9  1  0
  9 10  1  0
 10 11  1  0
 11 12  1  0
 12 13  1  0
 13 14  1  0
 14 15  1  0
 14 16  1  0
 14 17  1  0
  2 18  1  0
 18 19  2  0
 19 20  1  0
 20 21  2  0
 21 22  1  0
 22 23  2  0
 23 24  1  0
 23 25  1  0
 25 26  2  0
 26 27  1  0
 27 28  2  0
 12  7  1  0
 28 18  1  0
 27 21  1  0
  3 29  1  0
  4 30  1  0
  4 31  1  0
  8 32  1  0
  8 33  1  0
  9 34  1  0
  9 35  1  0
 10 36  1  0
 10 37  1  0
 11 38  1  0
 11 39  1  0
 12 40  1  1
 13 41  1  0
 13 42  1  0
 19 43  1  0
 20 44  1  0
 22 45  1  0
 25 46  1  0
 26 47  1  0
M  END
>  <smiles>  (81) 
O=C(NCC(=O)N1CCCCC1CC(F)(F)F)c1ccc2cc(F)ccc2n1

>  <score_type>  (81) 
oracle

>  <origin>  (81) 
autodockgpu

>  <m_score__min__energy>  (81) 
-7.0999999999999996

>  <m_primary>  (81) 
energy

>  <rmsd>  (81) 
3.4194255398956632

>  <m_score__min__rmsd>  (81) 
3.4194255398956632

>  <meeko>  (81) 
{"free_energy": -6.59, "intermolecular_energy": -8.38, "internal_energy": -1.18, "cluster_size": 18, "cluster_id": 6, "rank_in_cluster": 9}

>  <energy>  (81) 
-6.69

>  <cluster_rmsd>  (81) 
0.29

>  <cluster>  (81) 
6

$$$$

     RDKit          3D

 47 49  0  0  0  0  0  0  0  0999 V2000
  141.3220   72.0700  221.6910 O   0  0  0  0  0  0  0  0  0  0  0  0
  140.4210   72.2440  222.5530 C   0  0  0  0  0  0  0  0  0  0  0  0
  139.5130   73.3490  222.3280 N   0  0  0  0  0  0  0  0  0  0  0  0
  139.5850   74.2120  221.2250 C   0  0  0  0  0  0  0  0  0  0  0  0
  140.4240   75.3980  221.1970 C   0  0  0  0  0  0  0  0  0  0  0  0
  140.3950   76.0530  222.3310 O   0  0  0  0  0  0  0  0  0  0  0  0
  141.2380   75.9540  220.2040 N   0  0  0  0  0  0  0  0  0  0  0  0
  140.7160   77.0810  219.4510 C   0  0  0  0  0  0  0  0  0  0  0  0
  141.8470   78.0710  219.2060 C   0  0  0  0  0  0  0  0  0  0  0  0
  142.9430   77.3390  218.4800 C   0  0  0  0  0  0  0  0  0  0  0  0
  143.5560   76.3940  219.5090 C   0  0  0  0  0  0  0  0  0  0  0  0
  142.5200   75.3730  219.8980 C   0  0  1  0  0  0  0  0  0  0  0  0
  143.0520   74.3380  220.8060 C   0  0  0  0  0  0  0  0  0  0  0  0
  144.2120   73.5670  220.1260 C   0  0  0  0  0  0  0  0  0  0  0  0
  144.3450   72.3060  220.6030 F   0  0  0  0  0  0  0  0  0  0  0  0
  145.3550   74.2640  220.5640 F   0  0  0  0  0  0  0  0  0  0  0  0
  144.2120   73.7110  218.7730 F   0  0  0  0  0  0  0  0  0  0  0  0
  140.2820   71.3830  223.7300 C   0  0  0  0  0  0  0  0  0  0  0  0
  139.6420   70.1750  223.5530 C   0  0  0  0  0  0  0  0  0  0  0  0
  139.4750   69.3110  224.6200 C   0  0  0  0  0  0  0  0  0  0  0  0
  139.9540   69.6730  225.8580 C   0  0  0  0  0  0  0  0  0  0  0  0
  139.7780   68.8020  226.9020 C   0  0  0  0  0  0  0  0  0  0  0  0
  140.2430   69.1250  228.1540 C   0  0  0  0  0  0  0  0  0  0  0  0
  140.0610   68.2600  229.1680 F   0  0  0  0  0  0  0  0  0  0  0  0
  140.8870   70.3500  228.3200 C   0  0  0  0  0  0  0  0  0  0  0  0
  141.0570   71.2210  227.2440 C   0  0  0  0  0  0  0  0  0  0  0  0
  140.5890   70.8900  225.9960 C   0  0  0  0  0  0  0  0  0  0  0  0
  140.7390   71.7110  224.9410 N   0  0  0  0  0  0  0  0  0  0  0  0
  138.7780   73.4390  223.0950 H   0  0  0  0  0  0  0  0  0  0  0  0
  139.9101   73.5917  220.3767 H   0  0  0  0  0  0  0  0  0  0  0  0
  138.5789   74.6566  221.2298 H   0  0  0  0  0  0  0  0  0  0  0  0
  140.3167   76.7297  218.4882 H   0  0  0  0  0  0  0  0  0  0  0  0
  139.9081   77.5678  220.0170 H   0  0  0  0  0  0  0  0  0  0  0  0
  141.4854   78.9093  218.5923 H   0  0  0  0  0  0  0  0  0  0  0  0
  142.2185   78.4766  220.1586 H   0  0  0  0  0  0  0  0  0  0  0  0
  142.5299   76.7700  217.6341 H   0  0  0  0  0  0  0  0  0  0  0  0
  143.6910   78.0317  218.0667 H   0  0  0  0  0  0  0  0  0  0  0  0
  144.4302   75.8880  219.0734 H   0  0  0  0  0  0  0  0  0  0  0  0
  143.8781   76.9602  220.3954 H   0  0  0  0  0  0  0  0  0  0  0  0
  142.2720   74.7777  219.0069 H   0  0  0  0  0  0  0  0  0  0  0  0
  143.4241   74.8173  221.7235 H   0  0  0  0  0  0  0  0  0  0  0  0
  142.2469   73.6291  221.0496 H   0  0  0  0  0  0  0  0  0  0  0  0
  139.2624   69.8970  222.5587 H   0  0  0  0  0  0  0  0  0  0  0  0
  138.9655   68.3462  224.4806 H   0  0  0  0  0  0  0  0  0  0  0  0
  139.2640   67.8435  226.7372 H   0  0  0  0  0  0  0  0  0  0  0  0
  141.2662   70.6336  229.3129 H   0  0  0  0  0  0  0  0  0  0  0  0
  141.5706   72.1817  227.3964 H   0  0  0  0  0  0  0  0  0  0  0  0
  1  2  2  0
  2  3  1  0
  3  4  1  0
  4  5  1  0
  5  6  2  0
  5  7  1  0
  7  8  1  0
  8  9  1  0
  9 10  1  0
 10 11  1  0
 11 12  1  0
 12 13  1  0
 13 14  1  0
 14 15  1  0
 14 16  1  0
 14 17  1  0
  2 18  1  0
 18 19  2  0
 19 20  1  0
 20 21  2  0
 21 22  1  0
 22 23  2  0
 23 24  1  0
 23 25  1  0
 25 26  2  0
 26 27  1  0
 27 28  2  0
 12  7  1  0
 28 18  1  0
 27 21  1  0
  3 29  1  0
  4 30  1  0
  4 31  1  0
  8 32  1  0
  8 33  1  0
  9 34  1  0
  9 35  1  0
 10 36  1  0
 10 37  1  0
 11 38  1  0
 11 39  1  0
 12 40  1  6
 13 41  1  0
 13 42  1  0
 19 43  1  0
 20 44  1  0
 22 45  1  0
 25 46  1  0
 26 47  1  0
M  END
>  <smiles>  (82) 
O=C(NCC(=O)N1CCCCC1CC(F)(F)F)c1ccc2cc(F)ccc2n1

>  <score_type>  (82) 
oracle

>  <origin>  (82) 
autodockgpu

>  <m_score__min__energy>  (82) 
-7.0999999999999996

>  <m_primary>  (82) 
energy

>  <rmsd>  (82) 
2.2391002814899745

>  <m_score__min__rmsd>  (82) 
2.2391002814899745

>  <meeko>  (82) 
{"free_energy": -6.96, "intermolecular_energy": -8.75, "internal_energy": -1.11, "cluster_size": 14, "cluster_id": 2, "rank_in_cluster": 5}

>  <energy>  (82) 
-6.69

>  <cluster_rmsd>  (82) 
0.3

>  <cluster>  (82) 
6

$$$$

     RDKit          3D

 47 49  0  0  0  0  0  0  0  0999 V2000
  140.9320   71.9420  221.2180 O   0  0  0  0  0  0  0  0  0  0  0  0
  140.4060   72.3750  222.2760 C   0  0  0  0  0  0  0  0  0  0  0  0
  139.9620   73.7530  222.2620 N   0  0  0  0  0  0  0  0  0  0  0  0
  140.0840   74.6060  221.1560 C   0  0  0  0  0  0  0  0  0  0  0  0
  141.3030   75.3310  220.8420 C   0  0  0  0  0  0  0  0  0  0  0  0
  142.3790   74.6360  221.1190 O   0  0  0  0  0  0  0  0  0  0  0  0
  141.5330   76.6050  220.3110 N   0  0  0  0  0  0  0  0  0  0  0  0
  141.8620   76.7040  218.9000 C   0  0  0  0  0  0  0  0  0  0  0  0
  141.1720   77.9330  218.3220 C   0  0  0  0  0  0  0  0  0  0  0  0
  141.6320   79.1270  219.1150 C   0  0  0  0  0  0  0  0  0  0  0  0
  140.9660   78.9930  220.4820 C   0  0  0  0  0  0  0  0  0  0  0  0
  141.5140   77.7670  221.1630 C   0  0  1  0  0  0  0  0  0  0  0  0
  141.0170   77.6120  222.5440 C   0  0  0  0  0  0  0  0  0  0  0  0
  141.3960   78.8490  223.3970 C   0  0  0  0  0  0  0  0  0  0  0  0
  142.4540   79.5250  222.8890 F   0  0  0  0  0  0  0  0  0  0  0  0
  141.8500   78.2770  224.6010 F   0  0  0  0  0  0  0  0  0  0  0  0
  140.3110   79.5910  223.7500 F   0  0  0  0  0  0  0  0  0  0  0  0
  140.2430   71.5440  223.4720 C   0  0  0  0  0  0  0  0  0  0  0  0
  139.5720   70.3500  223.3190 C   0  0  0  0  0  0  0  0  0  0  0  0
  139.3810   69.5140  224.4040 C   0  0  0  0  0  0  0  0  0  0  0  0
  139.8680   69.8900  225.6360 C   0  0  0  0  0  0  0  0  0  0  0  0
  139.6670   69.0460  226.6980 C   0  0  0  0  0  0  0  0  0  0  0  0
  140.1390   69.3850  227.9440 C   0  0  0  0  0  0  0  0  0  0  0  0
  139.9330   68.5470  228.9750 F   0  0  0  0  0  0  0  0  0  0  0  0
  140.8140   70.5950  228.0840 C   0  0  0  0  0  0  0  0  0  0  0  0
  141.0080   71.4390  226.9900 C   0  0  0  0  0  0  0  0  0  0  0  0
  140.5330   71.0920  225.7480 C   0  0  0  0  0  0  0  0  0  0  0  0
  140.7070   71.8870  224.6760 N   0  0  0  0  0  0  0  0  0  0  0  0
  139.5280   74.0540  223.1880 H   0  0  0  0  0  0  0  0  0  0  0  0
  139.8634   73.9888  220.2726 H   0  0  0  0  0  0  0  0  0  0  0  0
  139.4085   75.4270  221.4382 H   0  0  0  0  0  0  0  0  0  0  0  0
  142.9512   76.8003  218.7799 H   0  0  0  0  0  0  0  0  0  0  0  0
  141.5224   75.8008  218.3720 H   0  0  0  0  0  0  0  0  0  0  0  0
  141.4482   78.0559  217.2644 H   0  0  0  0  0  0  0  0  0  0  0  0
  140.0788   77.8268  218.3819 H   0  0  0  0  0  0  0  0  0  0  0  0
  142.7271   79.1202  219.2190 H   0  0  0  0  0  0  0  0  0  0  0  0
  141.3618   80.0722  218.6214 H   0  0  0  0  0  0  0  0  0  0  0  0
  141.1840   79.8836  221.0897 H   0  0  0  0  0  0  0  0  0  0  0  0
  139.8763   78.9022  220.3627 H   0  0  0  0  0  0  0  0  0  0  0  0
  142.5903   77.9191  221.3318 H   0  0  0  0  0  0  0  0  0  0  0  0
  139.9222   77.5063  222.5254 H   0  0  0  0  0  0  0  0  0  0  0  0
  141.4758   76.7172  222.9899 H   0  0  0  0  0  0  0  0  0  0  0  0
  139.1869   70.0608  222.3300 H   0  0  0  0  0  0  0  0  0  0  0  0
  138.8464   68.5601  224.2843 H   0  0  0  0  0  0  0  0  0  0  0  0
  139.1283   68.0980  226.5530 H   0  0  0  0  0  0  0  0  0  0  0  0
  141.1997   70.8896  229.0711 H   0  0  0  0  0  0  0  0  0  0  0  0
  141.5454   72.3896  227.1227 H   0  0  0  0  0  0  0  0  0  0  0  0
  1  2  2  0
  2  3  1  0
  3  4  1  0
  4  5  1  0
  5  6  2  0
  5  7  1  0
  7  8  1  0
  8  9  1  0
  9 10  1  0
 10 11  1  0
 11 12  1  0
 12 13  1  0
 13 14  1  0
 14 15  1  0
 14 16  1  0
 14 17  1  0
  2 18  1  0
 18 19  2  0
 19 20  1  0
 20 21  2  0
 21 22  1  0
 22 23  2  0
 23 24  1  0
 23 25  1  0
 25 26  2  0
 26 27  1  0
 27 28  2  0
 12  7  1  0
 28 18  1  0
 27 21  1  0
  3 29  1  0
  4 30  1  0
  4 31  1  0
  8 32  1  0
  8 33  1  0
  9 34  1  0
  9 35  1  0
 10 36  1  0
 10 37  1  0
 11 38  1  0
 11 39  1  0
 12 40  1  1
 13 41  1  0
 13 42  1  0
 19 43  1  0
 20 44  1  0
 22 45  1  0
 25 46  1  0
 26 47  1  0
M  END
>  <smiles>  (83) 
O=C(NCC(=O)N1CCCCC1CC(F)(F)F)c1ccc2cc(F)ccc2n1

>  <score_type>  (83) 
oracle

>  <origin>  (83) 
autodockgpu

>  <m_score__min__energy>  (83) 
-7.0999999999999996

>  <m_primary>  (83) 
energy

>  <rmsd>  (83) 
2.2739813161485913

>  <m_score__min__rmsd>  (83) 
2.2739813161485913

>  <meeko>  (83) 
{"free_energy": -6.88, "intermolecular_energy": -8.67, "internal_energy": -0.93, "cluster_size": 5, "cluster_id": 3, "rank_in_cluster": 1}

>  <energy>  (83) 
-6.68

>  <cluster_rmsd>  (83) 
0.32

>  <cluster>  (83) 
6

$$$$

     RDKit          3D

 47 49  0  0  0  0  0  0  0  0999 V2000
  140.3130   73.0370  222.7220 O   0  0  0  0  0  0  0  0  0  0  0  0
  140.3560   71.7870  222.8650 C   0  0  0  0  0  0  0  0  0  0  0  0
  140.3420   70.9940  221.6540 N   0  0  0  0  0  0  0  0  0  0  0  0
  140.2850   71.5370  220.3610 C   0  0  0  0  0  0  0  0  0  0  0  0
  141.2100   72.5500  219.8830 C   0  0  0  0  0  0  0  0  0  0  0  0
  140.7320   73.2150  218.8610 O   0  0  0  0  0  0  0  0  0  0  0  0
  142.4870   72.9350  220.3050 N   0  0  0  0  0  0  0  0  0  0  0  0
  143.4370   71.8880  220.6360 C   0  0  0  0  0  0  0  0  0  0  0  0
  144.8170   72.3060  220.1420 C   0  0  0  0  0  0  0  0  0  0  0  0
  145.1500   73.6240  220.7870 C   0  0  0  0  0  0  0  0  0  0  0  0
  144.2410   74.6500  220.1170 C   0  0  0  0  0  0  0  0  0  0  0  0
  142.8140   74.3290  220.4720 C   0  0  1  0  0  0  0  0  0  0  0  0
  141.8600   75.3340  219.9660 C   0  0  0  0  0  0  0  0  0  0  0  0
  141.0160   75.9140  221.1300 C   0  0  0  0  0  0  0  0  0  0  0  0
  139.6860   75.8610  220.8820 F   0  0  0  0  0  0  0  0  0  0  0  0
  141.3550   77.2810  221.1160 F   0  0  0  0  0  0  0  0  0  0  0  0
  141.4290   75.4650  222.3460 F   0  0  0  0  0  0  0  0  0  0  0  0
  140.4190   71.1480  224.1820 C   0  0  0  0  0  0  0  0  0  0  0  0
  140.9560   71.8870  225.2140 C   0  0  0  0  0  0  0  0  0  0  0  0
  141.0470   71.3480  226.4840 C   0  0  0  0  0  0  0  0  0  0  0  0
  140.5960   70.0660  226.7030 C   0  0  0  0  0  0  0  0  0  0  0  0
  140.6950   69.5500  227.9700 C   0  0  0  0  0  0  0  0  0  0  0  0
  140.2560   68.2740  228.2300 C   0  0  0  0  0  0  0  0  0  0  0  0
  140.3610   67.7830  229.4780 F   0  0  0  0  0  0  0  0  0  0  0  0
  139.7170   67.5380  227.1780 C   0  0  0  0  0  0  0  0  0  0  0  0
  139.6240   68.0810  225.8960 C   0  0  0  0  0  0  0  0  0  0  0  0
  140.0660   69.3570  225.6450 C   0  0  0  0  0  0  0  0  0  0  0  0
  139.9880   69.9070  224.4190 N   0  0  0  0  0  0  0  0  0  0  0  0
  140.3800   69.9470  221.8470 H   0  0  0  0  0  0  0  0  0  0  0  0
  140.3857   70.6861  219.6712 H   0  0  0  0  0  0  0  0  0  0  0  0
  139.3434   72.1041  220.4038 H   0  0  0  0  0  0  0  0  0  0  0  0
  143.4625   71.7425  221.7260 H   0  0  0  0  0  0  0  0  0  0  0  0
  143.1372   70.9446  220.1563 H   0  0  0  0  0  0  0  0  0  0  0  0
  145.5628   71.5495  220.4274 H   0  0  0  0  0  0  0  0  0  0  0  0
  144.8236   72.3992  219.0460 H   0  0  0  0  0  0  0  0  0  0  0  0
  144.9516   73.5833  221.8682 H   0  0  0  0  0  0  0  0  0  0  0  0
  146.2127   73.8802  220.6644 H   0  0  0  0  0  0  0  0  0  0  0  0
  144.4941   75.6591  220.4743 H   0  0  0  0  0  0  0  0  0  0  0  0
  144.3744   74.6155  219.0257 H   0  0  0  0  0  0  0  0  0  0  0  0
  142.6972   74.4425  221.5599 H   0  0  0  0  0  0  0  0  0  0  0  0
  142.4163   76.1494  219.4806 H   0  0  0  0  0  0  0  0  0  0  0  0
  141.1857   74.8526  219.2424 H   0  0  0  0  0  0  0  0  0  0  0  0
  141.3138   72.9102  225.0265 H   0  0  0  0  0  0  0  0  0  0  0  0
  141.4745   71.9364  227.3092 H   0  0  0  0  0  0  0  0  0  0  0  0
  141.1263   70.1582  228.7788 H   0  0  0  0  0  0  0  0  0  0  0  0
  139.3594   66.5138  227.3602 H   0  0  0  0  0  0  0  0  0  0  0  0
  139.1932   67.4824  225.0798 H   0  0  0  0  0  0  0  0  0  0  0  0
  1  2  2  0
  2  3  1  0
  3  4  1  0
  4  5  1  0
  5  6  2  0
  5  7  1  0
  7  8  1  0
  8  9  1  0
  9 10  1  0
 10 11  1  0
 11 12  1  0
 12 13  1  0
 13 14  1  0
 14 15  1  0
 14 16  1  0
 14 17  1  0
  2 18  1  0
 18 19  2  0
 19 20  1  0
 20 21  2  0
 21 22  1  0
 22 23  2  0
 23 24  1  0
 23 25  1  0
 25 26  2  0
 26 27  1  0
 27 28  2  0
 12  7  1  0
 28 18  1  0
 27 21  1  0
  3 29  1  0
  4 30  1  0
  4 31  1  0
  8 32  1  0
  8 33  1  0
  9 34  1  0
  9 35  1  0
 10 36  1  0
 10 37  1  0
 11 38  1  0
 11 39  1  0
 12 40  1  1
 13 41  1  0
 13 42  1  0
 19 43  1  0
 20 44  1  0
 22 45  1  0
 25 46  1  0
 26 47  1  0
M  END
>  <smiles>  (84) 
O=C(NCC(=O)N1CCCCC1CC(F)(F)F)c1ccc2cc(F)ccc2n1

>  <score_type>  (84) 
oracle

>  <origin>  (84) 
autodockgpu

>  <m_score__min__energy>  (84) 
-7.0999999999999996

>  <m_primary>  (84) 
energy

>  <rmsd>  (84) 
3.9757184552673817

>  <m_score__min__rmsd>  (84) 
3.9757184552673817

>  <meeko>  (84) 
{"free_energy": -6.51, "intermolecular_energy": -8.3, "internal_energy": -1.36, "cluster_size": 18, "cluster_id": 6, "rank_in_cluster": 10}

>  <energy>  (84) 
-6.68

>  <cluster_rmsd>  (84) 
0.27

>  <cluster>  (84) 
6

$$$$

     RDKit          3D

 47 49  0  0  0  0  0  0  0  0999 V2000
  139.9720   70.9890  221.3680 O   0  0  0  0  0  0  0  0  0  0  0  0
  139.7760   71.5280  222.4880 C   0  0  0  0  0  0  0  0  0  0  0  0
  139.4970   72.9490  222.4840 N   0  0  0  0  0  0  0  0  0  0  0  0
  139.4330   73.7330  221.3220 C   0  0  0  0  0  0  0  0  0  0  0  0
  140.4900   73.7650  220.3260 C   0  0  0  0  0  0  0  0  0  0  0  0
  140.0470   73.4880  219.1240 O   0  0  0  0  0  0  0  0  0  0  0  0
  141.8600   74.0300  220.4130 N   0  0  0  0  0  0  0  0  0  0  0  0
  142.7620   72.9020  220.5650 C   0  0  0  0  0  0  0  0  0  0  0  0
  144.0150   73.1630  219.7380 C   0  0  0  0  0  0  0  0  0  0  0  0
  144.6130   74.4590  220.2170 C   0  0  0  0  0  0  0  0  0  0  0  0
  143.6680   75.5520  219.7280 C   0  0  0  0  0  0  0  0  0  0  0  0
  142.3440   75.3870  220.4260 C   0  0  1  0  0  0  0  0  0  0  0  0
  141.3930   76.4690  220.1080 C   0  0  0  0  0  0  0  0  0  0  0  0
  140.8760   77.1360  221.4090 C   0  0  0  0  0  0  0  0  0  0  0  0
  139.6590   77.7070  221.2500 F   0  0  0  0  0  0  0  0  0  0  0  0
  141.7780   78.2010  221.5990 F   0  0  0  0  0  0  0  0  0  0  0  0
  141.0400   76.3410  222.5010 F   0  0  0  0  0  0  0  0  0  0  0  0
  139.8250   70.7750  223.7440 C   0  0  0  0  0  0  0  0  0  0  0  0
  139.2670   69.5150  223.7410 C   0  0  0  0  0  0  0  0  0  0  0  0
  139.2770   68.7460  224.8910 C   0  0  0  0  0  0  0  0  0  0  0  0
  139.8490   69.2550  226.0350 C   0  0  0  0  0  0  0  0  0  0  0  0
  139.8490   68.4760  227.1630 C   0  0  0  0  0  0  0  0  0  0  0  0
  140.4110   68.9480  228.3250 C   0  0  0  0  0  0  0  0  0  0  0  0
  140.4010   68.1720  229.4230 F   0  0  0  0  0  0  0  0  0  0  0  0
  140.9700   70.2240  228.3130 C   0  0  0  0  0  0  0  0  0  0  0  0
  140.9610   71.0000  227.1540 C   0  0  0  0  0  0  0  0  0  0  0  0
  140.3970   70.5200  225.9970 C   0  0  0  0  0  0  0  0  0  0  0  0
  140.3750   71.2470  224.8650 N   0  0  0  0  0  0  0  0  0  0  0  0
  139.3420   73.3400  223.4630 H   0  0  0  0  0  0  0  0  0  0  0  0
  138.5258   73.4111  220.7897 H   0  0  0  0  0  0  0  0  0  0  0  0
  139.4961   74.7485  221.7400 H   0  0  0  0  0  0  0  0  0  0  0  0
  143.0351   72.7867  221.6243 H   0  0  0  0  0  0  0  0  0  0  0  0
  142.2707   71.9803  220.2200 H   0  0  0  0  0  0  0  0  0  0  0  0
  144.7348   72.3431  219.8781 H   0  0  0  0  0  0  0  0  0  0  0  0
  143.7668   73.2235  218.6681 H   0  0  0  0  0  0  0  0  0  0  0  0
  144.6771   74.4697  221.3151 H   0  0  0  0  0  0  0  0  0  0  0  0
  145.6342   74.6023  219.8340 H   0  0  0  0  0  0  0  0  0  0  0  0
  144.0905   76.5401  219.9628 H   0  0  0  0  0  0  0  0  0  0  0  0
  143.5323   75.4733  218.6392 H   0  0  0  0  0  0  0  0  0  0  0  0
  142.5026   75.5417  221.5034 H   0  0  0  0  0  0  0  0  0  0  0  0
  141.8984   77.2252  219.4894 H   0  0  0  0  0  0  0  0  0  0  0  0
  140.5383   76.0430  219.5622 H   0  0  0  0  0  0  0  0  0  0  0  0
  138.8120   69.1193  222.8210 H   0  0  0  0  0  0  0  0  0  0  0  0
  138.8330   67.7396  224.8912 H   0  0  0  0  0  0  0  0  0  0  0  0
  139.3989   67.4726  227.1381 H   0  0  0  0  0  0  0  0  0  0  0  0
  141.4250   70.6252  229.2306 H   0  0  0  0  0  0  0  0  0  0  0  0
  141.4091   72.0045  227.1665 H   0  0  0  0  0  0  0  0  0  0  0  0
  1  2  2  0
  2  3  1  0
  3  4  1  0
  4  5  1  0
  5  6  2  0
  5  7  1  0
  7  8  1  0
  8  9  1  0
  9 10  1  0
 10 11  1  0
 11 12  1  0
 12 13  1  0
 13 14  1  0
 14 15  1  0
 14 16  1  0
 14 17  1  0
  2 18  1  0
 18 19  2  0
 19 20  1  0
 20 21  2  0
 21 22  1  0
 22 23  2  0
 23 24  1  0
 23 25  1  0
 25 26  2  0
 26 27  1  0
 27 28  2  0
 12  7  1  0
 28 18  1  0
 27 21  1  0
  3 29  1  0
  4 30  1  0
  4 31  1  0
  8 32  1  0
  8 33  1  0
  9 34  1  0
  9 35  1  0
 10 36  1  0
 10 37  1  0
 11 38  1  0
 11 39  1  0
 12 40  1  1
 13 41  1  0
 13 42  1  0
 19 43  1  0
 20 44  1  0
 22 45  1  0
 25 46  1  0
 26 47  1  0
M  END
>  <smiles>  (85) 
O=C(NCC(=O)N1CCCCC1CC(F)(F)F)c1ccc2cc(F)ccc2n1

>  <score_type>  (85) 
oracle

>  <origin>  (85) 
autodockgpu

>  <m_score__min__energy>  (85) 
-7.0999999999999996

>  <m_primary>  (85) 
energy

>  <rmsd>  (85) 
2.516521982616474

>  <m_score__min__rmsd>  (85) 
2.516521982616474

>  <meeko>  (85) 
{"free_energy": -6.44, "intermolecular_energy": -8.23, "internal_energy": -1.24, "cluster_size": 5, "cluster_id": 3, "rank_in_cluster": 4}

>  <energy>  (85) 
-6.59

>  <cluster_rmsd>  (85) 
1.33

>  <cluster>  (85) 
6

$$$$

     RDKit          3D

 47 49  0  0  0  0  0  0  0  0999 V2000
  139.6250   71.0460  221.4280 O   0  0  0  0  0  0  0  0  0  0  0  0
  139.7190   71.5690  222.5690 C   0  0  0  0  0  0  0  0  0  0  0  0
  139.7200   73.0170  222.6200 N   0  0  0  0  0  0  0  0  0  0  0  0
  139.6230   73.8420  221.4910 C   0  0  0  0  0  0  0  0  0  0  0  0
  140.3370   75.1010  221.3630 C   0  0  0  0  0  0  0  0  0  0  0  0
  140.0710   75.9240  222.3470 O   0  0  0  0  0  0  0  0  0  0  0  0
  141.2340   75.5840  220.4050 N   0  0  0  0  0  0  0  0  0  0  0  0
  140.9100   76.8330  219.7390 C   0  0  0  0  0  0  0  0  0  0  0  0
  142.1920   77.6360  219.5540 C   0  0  0  0  0  0  0  0  0  0  0  0
  143.1510   76.7840  218.7670 C   0  0  0  0  0  0  0  0  0  0  0  0
  143.5950   75.6780  219.7190 C   0  0  0  0  0  0  0  0  0  0  0  0
  142.4020   74.8200  220.0450 C   0  0  1  0  0  0  0  0  0  0  0  0
  142.7500   73.6480  220.8710 C   0  0  0  0  0  0  0  0  0  0  0  0
  142.6720   72.3490  220.0270 C   0  0  0  0  0  0  0  0  0  0  0  0
  143.7270   72.2110  219.1910 F   0  0  0  0  0  0  0  0  0  0  0  0
  141.5540   72.5760  219.2000 F   0  0  0  0  0  0  0  0  0  0  0  0
  142.3380   71.2620  220.7750 F   0  0  0  0  0  0  0  0  0  0  0  0
  139.8220   70.7730  223.7950 C   0  0  0  0  0  0  0  0  0  0  0  0
  139.3450   69.4810  223.7460 C   0  0  0  0  0  0  0  0  0  0  0  0
  139.4090   68.6710  224.8650 C   0  0  0  0  0  0  0  0  0  0  0  0
  139.9540   69.1710  226.0260 C   0  0  0  0  0  0  0  0  0  0  0  0
  140.0090   68.3520  227.1230 C   0  0  0  0  0  0  0  0  0  0  0  0
  140.5470   68.8130  228.3010 C   0  0  0  0  0  0  0  0  0  0  0  0
  140.5920   67.9970  229.3690 F   0  0  0  0  0  0  0  0  0  0  0  0
  141.0240   70.1220  228.3370 C   0  0  0  0  0  0  0  0  0  0  0  0
  140.9600   70.9390  227.2080 C   0  0  0  0  0  0  0  0  0  0  0  0
  140.4210   70.4690  226.0360 C   0  0  0  0  0  0  0  0  0  0  0  0
  140.3470   71.2360  224.9320 N   0  0  0  0  0  0  0  0  0  0  0  0
  139.8030   73.3920  223.6140 H   0  0  0  0  0  0  0  0  0  0  0  0
  139.9421   73.2254  220.6378 H   0  0  0  0  0  0  0  0  0  0  0  0
  138.5813   74.1881  221.5624 H   0  0  0  0  0  0  0  0  0  0  0  0
  140.4600   76.6230  218.7574 H   0  0  0  0  0  0  0  0  0  0  0  0
  140.1935   77.4060  220.3459 H   0  0  0  0  0  0  0  0  0  0  0  0
  141.9773   78.5647  219.0049 H   0  0  0  0  0  0  0  0  0  0  0  0
  142.6241   77.9053  220.5291 H   0  0  0  0  0  0  0  0  0  0  0  0
  142.6497   76.3546  217.8870 H   0  0  0  0  0  0  0  0  0  0  0  0
  144.0056   77.3694  218.3971 H   0  0  0  0  0  0  0  0  0  0  0  0
  144.3724   75.0654  219.2390 H   0  0  0  0  0  0  0  0  0  0  0  0
  144.0064   76.1166  220.6401 H   0  0  0  0  0  0  0  0  0  0  0  0
  142.0602   74.3409  219.1157 H   0  0  0  0  0  0  0  0  0  0  0  0
  143.7727   73.7680  221.2578 H   0  0  0  0  0  0  0  0  0  0  0  0
  142.0365   73.5749  221.7050 H   0  0  0  0  0  0  0  0  0  0  0  0
  138.9115   69.0924  222.8127 H   0  0  0  0  0  0  0  0  0  0  0  0
  139.0289   67.6394  224.8278 H   0  0  0  0  0  0  0  0  0  0  0  0
  139.6221   67.3241  227.0610 H   0  0  0  0  0  0  0  0  0  0  0  0
  141.4568   70.5163  229.2682 H   0  0  0  0  0  0  0  0  0  0  0  0
  141.3446   71.9684  227.2572 H   0  0  0  0  0  0  0  0  0  0  0  0
  1  2  2  0
  2  3  1  0
  3  4  1  0
  4  5  1  0
  5  6  2  0
  5  7  1  0
  7  8  1  0
  8  9  1  0
  9 10  1  0
 10 11  1  0
 11 12  1  0
 12 13  1  0
 13 14  1  0
 14 15  1  0
 14 16  1  0
 14 17  1  0
  2 18  1  0
 18 19  2  0
 19 20  1  0
 20 21  2  0
 21 22  1  0
 22 23  2  0
 23 24  1  0
 23 25  1  0
 25 26  2  0
 26 27  1  0
 27 28  2  0
 12  7  1  0
 28 18  1  0
 27 21  1  0
  3 29  1  0
  4 30  1  0
  4 31  1  0
  8 32  1  0
  8 33  1  0
  9 34  1  0
  9 35  1  0
 10 36  1  0
 10 37  1  0
 11 38  1  0
 11 39  1  0
 12 40  1  6
 13 41  1  0
 13 42  1  0
 19 43  1  0
 20 44  1  0
 22 45  1  0
 25 46  1  0
 26 47  1  0
M  END
>  <smiles>  (86) 
O=C(NCC(=O)N1CCCCC1CC(F)(F)F)c1ccc2cc(F)ccc2n1

>  <score_type>  (86) 
oracle

>  <origin>  (86) 
autodockgpu

>  <m_score__min__energy>  (86) 
-7.0999999999999996

>  <m_primary>  (86) 
energy

>  <rmsd>  (86) 
2.2876056142011683

>  <m_score__min__rmsd>  (86) 
2.2876056142011683

>  <meeko>  (86) 
{"free_energy": -6.37, "intermolecular_energy": -8.16, "internal_energy": -1.41, "cluster_size": 14, "cluster_id": 2, "rank_in_cluster": 14}

>  <energy>  (86) 
-6.51

>  <cluster_rmsd>  (86) 
0.74

>  <cluster>  (86) 
6

$$$$

     RDKit          3D

 47 49  0  0  0  0  0  0  0  0999 V2000
  140.0440   73.3830  222.6770 O   0  0  0  0  0  0  0  0  0  0  0  0
  140.0900   72.1270  222.6000 C   0  0  0  0  0  0  0  0  0  0  0  0
  140.1410   71.5610  221.2680 N   0  0  0  0  0  0  0  0  0  0  0  0
  140.1440   72.3230  220.0900 C   0  0  0  0  0  0  0  0  0  0  0  0
  141.3360   72.9660  219.5630 C   0  0  0  0  0  0  0  0  0  0  0  0
  141.1770   73.3660  218.3260 O   0  0  0  0  0  0  0  0  0  0  0  0
  142.5900   73.2300  220.1220 N   0  0  0  0  0  0  0  0  0  0  0  0
  143.4470   72.0980  220.4320 C   0  0  0  0  0  0  0  0  0  0  0  0
  144.8860   72.4670  220.0940 C   0  0  0  0  0  0  0  0  0  0  0  0
  145.2360   73.7000  220.8830 C   0  0  0  0  0  0  0  0  0  0  0  0
  144.4500   74.8370  220.2380 C   0  0  0  0  0  0  0  0  0  0  0  0
  142.9800   74.5790  220.4430 C   0  0  1  0  0  0  0  0  0  0  0  0
  142.1340   75.6850  219.9550 C   0  0  0  0  0  0  0  0  0  0  0  0
  141.1030   76.0950  221.0380 C   0  0  0  0  0  0  0  0  0  0  0  0
  139.8250   75.9000  220.6360 F   0  0  0  0  0  0  0  0  0  0  0  0
  141.2690   77.4920  221.1200 F   0  0  0  0  0  0  0  0  0  0  0  0
  141.4320   75.6310  222.2730 F   0  0  0  0  0  0  0  0  0  0  0  0
  140.0920   71.2650  223.7850 C   0  0  0  0  0  0  0  0  0  0  0  0
  139.5480   70.0070  223.6460 C   0  0  0  0  0  0  0  0  0  0  0  0
  139.5160   69.1390  224.7220 C   0  0  0  0  0  0  0  0  0  0  0  0
  140.0330   69.5480  225.9310 C   0  0  0  0  0  0  0  0  0  0  0  0
  139.9920   68.6720  226.9850 C   0  0  0  0  0  0  0  0  0  0  0  0
  140.4990   69.0420  228.2070 C   0  0  0  0  0  0  0  0  0  0  0  0
  140.4500   68.1710  229.2310 F   0  0  0  0  0  0  0  0  0  0  0  0
  141.0450   70.3170  228.3330 C   0  0  0  0  0  0  0  0  0  0  0  0
  141.0780   71.1930  227.2480 C   0  0  0  0  0  0  0  0  0  0  0  0
  140.5690   70.8150  226.0300 C   0  0  0  0  0  0  0  0  0  0  0  0
  140.5880   71.6390  224.9660 N   0  0  0  0  0  0  0  0  0  0  0  0
  140.1770   70.4960  221.2750 H   0  0  0  0  0  0  0  0  0  0  0  0
  139.7856   71.6524  219.2951 H   0  0  0  0  0  0  0  0  0  0  0  0
  139.5413   73.1927  220.3907 H   0  0  0  0  0  0  0  0  0  0  0  0
  143.3685   71.8566  221.5023 H   0  0  0  0  0  0  0  0  0  0  0  0
  143.1371   71.2215  219.8440 H   0  0  0  0  0  0  0  0  0  0  0  0
  145.5595   71.6419  220.3689 H   0  0  0  0  0  0  0  0  0  0  0  0
  144.9940   72.6545  219.0155 H   0  0  0  0  0  0  0  0  0  0  0  0
  144.9414   73.5785  221.9358 H   0  0  0  0  0  0  0  0  0  0  0  0
  146.3183   73.8963  220.8723 H   0  0  0  0  0  0  0  0  0  0  0  0
  144.7278   75.7926  220.7067 H   0  0  0  0  0  0  0  0  0  0  0  0
  144.6769   74.8894  219.1629 H   0  0  0  0  0  0  0  0  0  0  0  0
  142.7738   74.6035  221.5232 H   0  0  0  0  0  0  0  0  0  0  0  0
  142.7705   76.5494  219.7147 H   0  0  0  0  0  0  0  0  0  0  0  0
  141.5942   75.3517  219.0563 H   0  0  0  0  0  0  0  0  0  0  0  0
  139.1375   69.6918  222.6754 H   0  0  0  0  0  0  0  0  0  0  0  0
  139.0827   68.1338  224.6135 H   0  0  0  0  0  0  0  0  0  0  0  0
  139.5529   67.6723  226.8520 H   0  0  0  0  0  0  0  0  0  0  0  0
  141.4560   70.6377  229.3016 H   0  0  0  0  0  0  0  0  0  0  0  0
  141.5154   72.1950  227.3691 H   0  0  0  0  0  0  0  0  0  0  0  0
  1  2  2  0
  2  3  1  0
  3  4  1  0
  4  5  1  0
  5  6  2  0
  5  7  1  0
  7  8  1  0
  8  9  1  0
  9 10  1  0
 10 11  1  0
 11 12  1  0
 12 13  1  0
 13 14  1  0
 14 15  1  0
 14 16  1  0
 14 17  1  0
  2 18  1  0
 18 19  2  0
 19 20  1  0
 20 21  2  0
 21 22  1  0
 22 23  2  0
 23 24  1  0
 23 25  1  0
 25 26  2  0
 26 27  1  0
 27 28  2  0
 12  7  1  0
 28 18  1  0
 27 21  1  0
  3 29  1  0
  4 30  1  0
  4 31  1  0
  8 32  1  0
  8 33  1  0
  9 34  1  0
  9 35  1  0
 10 36  1  0
 10 37  1  0
 11 38  1  0
 11 39  1  0
 12 40  1  1
 13 41  1  0
 13 42  1  0
 19 43  1  0
 20 44  1  0
 22 45  1  0
 25 46  1  0
 26 47  1  0
M  END
>  <smiles>  (87) 
O=C(NCC(=O)N1CCCCC1CC(F)(F)F)c1ccc2cc(F)ccc2n1

>  <score_type>  (87) 
oracle

>  <origin>  (87) 
autodockgpu

>  <m_score__min__energy>  (87) 
-7.0999999999999996

>  <m_primary>  (87) 
energy

>  <rmsd>  (87) 
3.2001283787953816

>  <m_score__min__rmsd>  (87) 
3.2001283787953816

>  <meeko>  (87) 
{"free_energy": -6.73, "intermolecular_energy": -8.52, "internal_energy": -1.26, "cluster_size": 18, "cluster_id": 6, "rank_in_cluster": 1}

>  <energy>  (87) 
-6.5

>  <cluster_rmsd>  (87) 
0.75

>  <cluster>  (87) 
6

$$$$

     RDKit          3D

 47 49  0  0  0  0  0  0  0  0999 V2000
  138.8300   71.1010  221.3180 O   0  0  0  0  0  0  0  0  0  0  0  0
  139.1980   71.6680  222.3800 C   0  0  0  0  0  0  0  0  0  0  0  0
  139.3100   73.1120  222.3380 N   0  0  0  0  0  0  0  0  0  0  0  0
  139.0340   73.8880  221.2040 C   0  0  0  0  0  0  0  0  0  0  0  0
  140.0690   74.4170  220.3320 C   0  0  0  0  0  0  0  0  0  0  0  0
  139.5720   75.0140  219.2770 O   0  0  0  0  0  0  0  0  0  0  0  0
  141.4650   74.4060  220.4120 N   0  0  0  0  0  0  0  0  0  0  0  0
  142.1310   73.1170  220.4790 C   0  0  0  0  0  0  0  0  0  0  0  0
  143.4070   73.1820  219.6480 C   0  0  0  0  0  0  0  0  0  0  0  0
  144.2480   74.3040  220.1940 C   0  0  0  0  0  0  0  0  0  0  0  0
  143.5310   75.5880  219.7880 C   0  0  0  0  0  0  0  0  0  0  0  0
  142.2040   75.6400  220.4980 C   0  0  1  0  0  0  0  0  0  0  0  0
  141.4800   76.9040  220.2620 C   0  0  0  0  0  0  0  0  0  0  0  0
  140.9820   77.5000  221.6040 C   0  0  0  0  0  0  0  0  0  0  0  0
  141.8360   78.4220  222.1090 F   0  0  0  0  0  0  0  0  0  0  0  0
  141.0430   76.4000  222.4820 F   0  0  0  0  0  0  0  0  0  0  0  0
  139.6660   77.8430  221.5660 F   0  0  0  0  0  0  0  0  0  0  0  0
  139.5020   70.9250  223.6050 C   0  0  0  0  0  0  0  0  0  0  0  0
  139.2190   69.5770  223.6080 C   0  0  0  0  0  0  0  0  0  0  0  0
  139.4800   68.8110  224.7300 C   0  0  0  0  0  0  0  0  0  0  0  0
  140.0250   69.4140  225.8420 C   0  0  0  0  0  0  0  0  0  0  0  0
  140.2760   68.6370  226.9430 C   0  0  0  0  0  0  0  0  0  0  0  0
  140.8200   69.2000  228.0730 C   0  0  0  0  0  0  0  0  0  0  0  0
  141.0590   68.4250  229.1450 F   0  0  0  0  0  0  0  0  0  0  0  0
  141.1000   70.5650  228.0570 C   0  0  0  0  0  0  0  0  0  0  0  0
  140.8380   71.3370  226.9250 C   0  0  0  0  0  0  0  0  0  0  0  0
  140.2940   70.7660  225.8010 C   0  0  0  0  0  0  0  0  0  0  0  0
  140.0310   71.4870  224.6950 N   0  0  0  0  0  0  0  0  0  0  0  0
  139.6260   73.5260  223.2680 H   0  0  0  0  0  0  0  0  0  0  0  0
  138.3870   73.2695  220.5646 H   0  0  0  0  0  0  0  0  0  0  0  0
  138.6409   74.8087  221.6598 H   0  0  0  0  0  0  0  0  0  0  0  0
  142.3816   72.8838  221.5244 H   0  0  0  0  0  0  0  0  0  0  0  0
  141.4680   72.3319  220.0866 H   0  0  0  0  0  0  0  0  0  0  0  0
  143.9542   72.2309  219.7256 H   0  0  0  0  0  0  0  0  0  0  0  0
  143.1697   73.3571  218.5883 H   0  0  0  0  0  0  0  0  0  0  0  0
  144.3184   74.2333  221.2895 H   0  0  0  0  0  0  0  0  0  0  0  0
  145.2757   74.2702  219.8032 H   0  0  0  0  0  0  0  0  0  0  0  0
  144.1392   76.4588  220.0741 H   0  0  0  0  0  0  0  0  0  0  0  0
  143.3764   75.6048  218.6990 H   0  0  0  0  0  0  0  0  0  0  0  0
  142.3954   75.6938  221.5799 H   0  0  0  0  0  0  0  0  0  0  0  0
  142.1550   77.6228  219.7744 H   0  0  0  0  0  0  0  0  0  0  0  0
  140.6121   76.7031  219.6167 H   0  0  0  0  0  0  0  0  0  0  0  0
  138.7833   69.1073  222.7138 H   0  0  0  0  0  0  0  0  0  0  0  0
  139.2552   67.7342  224.7340 H   0  0  0  0  0  0  0  0  0  0  0  0
  140.0420   67.5624  226.9223 H   0  0  0  0  0  0  0  0  0  0  0  0
  141.5336   71.0403  228.9493 H   0  0  0  0  0  0  0  0  0  0  0  0
  141.0692   72.4124  226.9329 H   0  0  0  0  0  0  0  0  0  0  0  0
  1  2  2  0
  2  3  1  0
  3  4  1  0
  4  5  1  0
  5  6  2  0
  5  7  1  0
  7  8  1  0
  8  9  1  0
  9 10  1  0
 10 11  1  0
 11 12  1  0
 12 13  1  0
 13 14  1  0
 14 15  1  0
 14 16  1  0
 14 17  1  0
  2 18  1  0
 18 19  2  0
 19 20  1  0
 20 21  2  0
 21 22  1  0
 22 23  2  0
 23 24  1  0
 23 25  1  0
 25 26  2  0
 26 27  1  0
 27 28  2  0
 12  7  1  0
 28 18  1  0
 27 21  1  0
  3 29  1  0
  4 30  1  0
  4 31  1  0
  8 32  1  0
  8 33  1  0
  9 34  1  0
  9 35  1  0
 10 36  1  0
 10 37  1  0
 11 38  1  0
 11 39  1  0
 12 40  1  1
 13 41  1  0
 13 42  1  0
 19 43  1  0
 20 44  1  0
 22 45  1  0
 25 46  1  0
 26 47  1  0
M  END
>  <smiles>  (88) 
O=C(NCC(=O)N1CCCCC1CC(F)(F)F)c1ccc2cc(F)ccc2n1

>  <score_type>  (88) 
oracle

>  <origin>  (88) 
autodockgpu

>  <m_score__min__energy>  (88) 
-7.0999999999999996

>  <m_primary>  (88) 
energy

>  <rmsd>  (88) 
2.251698745402868

>  <m_score__min__rmsd>  (88) 
2.251698745402868

>  <meeko>  (88) 
{"free_energy": -6.28, "intermolecular_energy": -8.07, "internal_energy": -1.35, "cluster_size": 5, "cluster_id": 3, "rank_in_cluster": 5}

>  <energy>  (88) 
-6.43

>  <cluster_rmsd>  (88) 
0.82

>  <cluster>  (88) 
6

$$$$

     RDKit          3D

 47 49  0  0  0  0  0  0  0  0999 V2000
  140.4890   73.4450  222.3540 O   0  0  0  0  0  0  0  0  0  0  0  0
  140.4400   72.1880  222.4040 C   0  0  0  0  0  0  0  0  0  0  0  0
  140.5930   71.4830  221.1490 N   0  0  0  0  0  0  0  0  0  0  0  0
  140.7910   72.1150  219.9120 C   0  0  0  0  0  0  0  0  0  0  0  0
  142.1050   72.4570  219.3960 C   0  0  0  0  0  0  0  0  0  0  0  0
  142.1490   72.4160  218.0870 O   0  0  0  0  0  0  0  0  0  0  0  0
  143.3020   72.8120  220.0250 N   0  0  0  0  0  0  0  0  0  0  0  0
  144.3300   71.7940  220.1530 C   0  0  0  0  0  0  0  0  0  0  0  0
  145.6910   72.4420  219.9240 C   0  0  0  0  0  0  0  0  0  0  0  0
  145.8390   73.5540  220.9270 C   0  0  0  0  0  0  0  0  0  0  0  0
  144.8780   74.6480  220.4730 C   0  0  0  0  0  0  0  0  0  0  0  0
  143.4700   74.1270  220.5900 C   0  0  1  0  0  0  0  0  0  0  0  0
  142.4550   75.1530  220.2830 C   0  0  0  0  0  0  0  0  0  0  0  0
  142.8100   75.8860  218.9640 C   0  0  0  0  0  0  0  0  0  0  0  0
  143.4020   77.0850  219.1810 F   0  0  0  0  0  0  0  0  0  0  0  0
  141.5460   76.1780  218.4140 F   0  0  0  0  0  0  0  0  0  0  0  0
  143.4050   75.0670  218.0560 F   0  0  0  0  0  0  0  0  0  0  0  0
  140.2380   71.4580  223.6580 C   0  0  0  0  0  0  0  0  0  0  0  0
  139.5300   70.2780  223.5900 C   0  0  0  0  0  0  0  0  0  0  0  0
  139.3010   69.5350  224.7340 C   0  0  0  0  0  0  0  0  0  0  0  0
  139.7890   69.9900  225.9390 C   0  0  0  0  0  0  0  0  0  0  0  0
  139.5510   69.2380  227.0610 C   0  0  0  0  0  0  0  0  0  0  0  0
  140.0220   69.6570  228.2820 C   0  0  0  0  0  0  0  0  0  0  0  0
  139.7790   68.9090  229.3730 F   0  0  0  0  0  0  0  0  0  0  0  0
  140.7350   70.8530  228.3370 C   0  0  0  0  0  0  0  0  0  0  0  0
  140.9670   71.6020  227.1830 C   0  0  0  0  0  0  0  0  0  0  0  0
  140.4930   71.1760  225.9660 C   0  0  0  0  0  0  0  0  0  0  0  0
  140.7020   71.8780  224.8380 N   0  0  0  0  0  0  0  0  0  0  0  0
  140.5400   70.4250  221.2630 H   0  0  0  0  0  0  0  0  0  0  0  0
  140.3327   71.4566  219.1594 H   0  0  0  0  0  0  0  0  0  0  0  0
  140.3663   73.1111  220.1053 H   0  0  0  0  0  0  0  0  0  0  0  0
  144.2936   71.3559  221.1614 H   0  0  0  0  0  0  0  0  0  0  0  0
  144.1641   70.9986  219.4115 H   0  0  0  0  0  0  0  0  0  0  0  0
  146.4893   71.6989  220.0671 H   0  0  0  0  0  0  0  0  0  0  0  0
  145.7652   72.8336  218.8987 H   0  0  0  0  0  0  0  0  0  0  0  0
  145.5707   73.2010  221.9337 H   0  0  0  0  0  0  0  0  0  0  0  0
  146.8753   73.9191  220.9792 H   0  0  0  0  0  0  0  0  0  0  0  0
  144.9991   75.5361  221.1107 H   0  0  0  0  0  0  0  0  0  0  0  0
  145.0908   74.9273  219.4305 H   0  0  0  0  0  0  0  0  0  0  0  0
  143.2655   73.9252  221.6518 H   0  0  0  0  0  0  0  0  0  0  0  0
  141.4723   74.6703  220.1764 H   0  0  0  0  0  0  0  0  0  0  0  0
  142.4289   75.8859  221.1029 H   0  0  0  0  0  0  0  0  0  0  0  0
  139.1452   69.9253  222.6217 H   0  0  0  0  0  0  0  0  0  0  0  0
  138.7362   68.5925  224.6821 H   0  0  0  0  0  0  0  0  0  0  0  0
  138.9829   68.2992  226.9835 H   0  0  0  0  0  0  0  0  0  0  0  0
  141.1200   71.2113  229.3031 H   0  0  0  0  0  0  0  0  0  0  0  0
  141.5345   72.5420  227.2482 H   0  0  0  0  0  0  0  0  0  0  0  0
  1  2  2  0
  2  3  1  0
  3  4  1  0
  4  5  1  0
  5  6  2  0
  5  7  1  0
  7  8  1  0
  8  9  1  0
  9 10  1  0
 10 11  1  0
 11 12  1  0
 12 13  1  0
 13 14  1  0
 14 15  1  0
 14 16  1  0
 14 17  1  0
  2 18  1  0
 18 19  2  0
 19 20  1  0
 20 21  2  0
 21 22  1  0
 22 23  2  0
 23 24  1  0
 23 25  1  0
 25 26  2  0
 26 27  1  0
 27 28  2  0
 12  7  1  0
 28 18  1  0
 27 21  1  0
  3 29  1  0
  4 30  1  0
  4 31  1  0
  8 32  1  0
  8 33  1  0
  9 34  1  0
  9 35  1  0
 10 36  1  0
 10 37  1  0
 11 38  1  0
 11 39  1  0
 12 40  1  1
 13 41  1  0
 13 42  1  0
 19 43  1  0
 20 44  1  0
 22 45  1  0
 25 46  1  0
 26 47  1  0
M  END
>  <smiles>  (89) 
O=C(NCC(=O)N1CCCCC1CC(F)(F)F)c1ccc2cc(F)ccc2n1

>  <score_type>  (89) 
oracle

>  <origin>  (89) 
autodockgpu

>  <m_score__min__energy>  (89) 
-7.0999999999999996

>  <m_primary>  (89) 
energy

>  <rmsd>  (89) 
3.669482060901834

>  <m_score__min__rmsd>  (89) 
3.669482060901834

>  <meeko>  (89) 
{"free_energy": -6.67, "intermolecular_energy": -8.46, "internal_energy": -1.18, "cluster_size": 14, "cluster_id": 2, "rank_in_cluster": 10}

>  <energy>  (89) 
-6.43

>  <cluster_rmsd>  (89) 
0.81

>  <cluster>  (89) 
6

$$$$

     RDKit          3D

 47 49  0  0  0  0  0  0  0  0999 V2000
  141.2420   73.7890  220.7820 O   0  0  0  0  0  0  0  0  0  0  0  0
  140.6410   74.5930  221.5410 C   0  0  0  0  0  0  0  0  0  0  0  0
  139.5800   74.0420  222.3590 N   0  0  0  0  0  0  0  0  0  0  0  0
  139.2010   72.6920  222.3490 C   0  0  0  0  0  0  0  0  0  0  0  0
  139.8830   71.6690  223.1240 C   0  0  0  0  0  0  0  0  0  0  0  0
  141.1790   71.6820  222.9320 O   0  0  0  0  0  0  0  0  0  0  0  0
  139.4190   70.6970  224.0160 N   0  0  0  0  0  0  0  0  0  0  0  0
  138.3910   69.7840  223.5510 C   0  0  0  0  0  0  0  0  0  0  0  0
  138.6800   68.3960  224.1110 C   0  0  0  0  0  0  0  0  0  0  0  0
  138.7250   68.5110  225.6110 C   0  0  0  0  0  0  0  0  0  0  0  0
  140.0150   69.2630  225.9250 C   0  0  0  0  0  0  0  0  0  0  0  0
  139.9010   70.6600  225.3740 C   0  0  1  0  0  0  0  0  0  0  0  0
  141.0550   71.5080  225.7280 C   0  0  0  0  0  0  0  0  0  0  0  0
  141.1810   71.6350  227.2680 C   0  0  0  0  0  0  0  0  0  0  0  0
  141.4430   70.4480  227.8650 F   0  0  0  0  0  0  0  0  0  0  0  0
  139.8750   71.9830  227.6650 F   0  0  0  0  0  0  0  0  0  0  0  0
  141.9530   72.6900  227.6430 F   0  0  0  0  0  0  0  0  0  0  0  0
  140.9810   76.0170  221.6080 C   0  0  0  0  0  0  0  0  0  0  0  0
  141.5080   76.5900  220.4710 C   0  0  0  0  0  0  0  0  0  0  0  0
  141.8520   77.9290  220.4610 C   0  0  0  0  0  0  0  0  0  0  0  0
  141.6620   78.6800  221.6000 C   0  0  0  0  0  0  0  0  0  0  0  0
  142.0100   80.0060  221.5690 C   0  0  0  0  0  0  0  0  0  0  0  0
  141.8350   80.7890  222.6840 C   0  0  0  0  0  0  0  0  0  0  0  0
  142.1820   82.0880  222.6370 F   0  0  0  0  0  0  0  0  0  0  0  0
  141.3020   80.1970  223.8270 C   0  0  0  0  0  0  0  0  0  0  0  0
  140.9540   78.8460  223.8370 C   0  0  0  0  0  0  0  0  0  0  0  0
  141.1320   78.0700  222.7180 C   0  0  0  0  0  0  0  0  0  0  0  0
  140.8050   76.7650  222.7000 N   0  0  0  0  0  0  0  0  0  0  0  0
  139.1130   74.7760  222.9750 H   0  0  0  0  0  0  0  0  0  0  0  0
  138.1514   72.6703  222.6773 H   0  0  0  0  0  0  0  0  0  0  0  0
  139.4639   72.3991  221.3218 H   0  0  0  0  0  0  0  0  0  0  0  0
  137.4060   70.1265  223.9009 H   0  0  0  0  0  0  0  0  0  0  0  0
  138.3884   69.7513  222.4515 H   0  0  0  0  0  0  0  0  0  0  0  0
  137.8844   67.6977  223.8120 H   0  0  0  0  0  0  0  0  0  0  0  0
  139.6363   68.0146  223.7238 H   0  0  0  0  0  0  0  0  0  0  0  0
  137.8537   69.0722  225.9796 H   0  0  0  0  0  0  0  0  0  0  0  0
  138.7001   67.5242  226.0963 H   0  0  0  0  0  0  0  0  0  0  0  0
  140.1642   69.3049  227.0140 H   0  0  0  0  0  0  0  0  0  0  0  0
  140.8724   68.7469  225.4683 H   0  0  0  0  0  0  0  0  0  0  0  0
  139.0817   71.1718  225.9001 H   0  0  0  0  0  0  0  0  0  0  0  0
  141.9736   71.0563  225.3253 H   0  0  0  0  0  0  0  0  0  0  0  0
  140.9063   72.5098  225.2986 H   0  0  0  0  0  0  0  0  0  0  0  0
  141.6555   75.9797  219.5678 H   0  0  0  0  0  0  0  0  0  0  0  0
  142.2723   78.3890  219.5545 H   0  0  0  0  0  0  0  0  0  0  0  0
  142.4295   80.4429  220.6508 H   0  0  0  0  0  0  0  0  0  0  0  0
  141.1536   80.8026  224.7332 H   0  0  0  0  0  0  0  0  0  0  0  0
  140.5332   78.3983  224.7494 H   0  0  0  0  0  0  0  0  0  0  0  0
  1  2  2  0
  2  3  1  0
  3  4  1  0
  4  5  1  0
  5  6  2  0
  5  7  1  0
  7  8  1  0
  8  9  1  0
  9 10  1  0
 10 11  1  0
 11 12  1  0
 12 13  1  0
 13 14  1  0
 14 15  1  0
 14 16  1  0
 14 17  1  0
  2 18  1  0
 18 19  2  0
 19 20  1  0
 20 21  2  0
 21 22  1  0
 22 23  2  0
 23 24  1  0
 23 25  1  0
 25 26  2  0
 26 27  1  0
 27 28  2  0
 12  7  1  0
 28 18  1  0
 27 21  1  0
  3 29  1  0
  4 30  1  0
  4 31  1  0
  8 32  1  0
  8 33  1  0
  9 34  1  0
  9 35  1  0
 10 36  1  0
 10 37  1  0
 11 38  1  0
 11 39  1  0
 12 40  1  1
 13 41  1  0
 13 42  1  0
 19 43  1  0
 20 44  1  0
 22 45  1  0
 25 46  1  0
 26 47  1  0
M  END
>  <smiles>  (90) 
O=C(NCC(=O)N1CCCCC1CC(F)(F)F)c1ccc2cc(F)ccc2n1

>  <score_type>  (90) 
oracle

>  <origin>  (90) 
autodockgpu

>  <m_score__min__energy>  (90) 
-7.0999999999999996

>  <m_primary>  (90) 
energy

>  <rmsd>  (90) 
8.643605519968913

>  <m_score__min__rmsd>  (90) 
8.643605519968913

>  <meeko>  (90) 
{"free_energy": -7.07, "intermolecular_energy": -8.86, "internal_energy": -0.96, "cluster_size": 4, "cluster_id": 1, "rank_in_cluster": 2}

>  <energy>  (90) 
-6.42

>  <cluster_rmsd>  (90) 
0.8

>  <cluster>  (90) 
6

$$$$

     RDKit          3D

 47 49  0  0  0  0  0  0  0  0999 V2000
  140.1580   73.3840  222.6350 O   0  0  0  0  0  0  0  0  0  0  0  0
  140.1310   72.1280  222.5600 C   0  0  0  0  0  0  0  0  0  0  0  0
  140.1080   71.5590  221.2280 N   0  0  0  0  0  0  0  0  0  0  0  0
  140.1150   72.3180  220.0500 C   0  0  0  0  0  0  0  0  0  0  0  0
  141.3110   72.9480  219.5170 C   0  0  0  0  0  0  0  0  0  0  0  0
  141.1630   73.3200  218.2700 O   0  0  0  0  0  0  0  0  0  0  0  0
  142.5620   73.2230  220.0800 N   0  0  0  0  0  0  0  0  0  0  0  0
  143.3990   72.0980  220.4560 C   0  0  0  0  0  0  0  0  0  0  0  0
  144.8480   72.4320  220.1200 C   0  0  0  0  0  0  0  0  0  0  0  0
  145.2040   73.6970  220.8540 C   0  0  0  0  0  0  0  0  0  0  0  0
  144.4400   74.8110  220.1440 C   0  0  0  0  0  0  0  0  0  0  0  0
  142.9650   74.5820  220.3410 C   0  0  1  0  0  0  0  0  0  0  0  0
  142.1390   75.6720  219.7890 C   0  0  0  0  0  0  0  0  0  0  0  0
  141.2040   76.2490  220.8820 C   0  0  0  0  0  0  0  0  0  0  0  0
  139.9300   76.3980  220.4470 F   0  0  0  0  0  0  0  0  0  0  0  0
  141.7000   77.5550  221.0670 F   0  0  0  0  0  0  0  0  0  0  0  0
  141.3700   75.6380  222.0860 F   0  0  0  0  0  0  0  0  0  0  0  0
  140.1240   71.2680  223.7460 C   0  0  0  0  0  0  0  0  0  0  0  0
  139.5780   70.0110  223.6070 C   0  0  0  0  0  0  0  0  0  0  0  0
  139.5370   69.1450  224.6840 C   0  0  0  0  0  0  0  0  0  0  0  0
  140.0480   69.5550  225.8950 C   0  0  0  0  0  0  0  0  0  0  0  0
  139.9980   68.6810  226.9510 C   0  0  0  0  0  0  0  0  0  0  0  0
  140.4980   69.0530  228.1760 C   0  0  0  0  0  0  0  0  0  0  0  0
  140.4410   68.1840  229.2010 F   0  0  0  0  0  0  0  0  0  0  0  0
  141.0460   70.3270  228.3030 C   0  0  0  0  0  0  0  0  0  0  0  0
  141.0880   71.2010  227.2160 C   0  0  0  0  0  0  0  0  0  0  0  0
  140.5860   70.8210  225.9950 C   0  0  0  0  0  0  0  0  0  0  0  0
  140.6140   71.6430  224.9300 N   0  0  0  0  0  0  0  0  0  0  0  0
  140.0850   70.4930  221.2380 H   0  0  0  0  0  0  0  0  0  0  0  0
  139.7469   71.6496  219.2577 H   0  0  0  0  0  0  0  0  0  0  0  0
  139.5229   73.1945  220.3519 H   0  0  0  0  0  0  0  0  0  0  0  0
  143.3034   71.9102  221.5356 H   0  0  0  0  0  0  0  0  0  0  0  0
  143.0852   71.1979  219.9071 H   0  0  0  0  0  0  0  0  0  0  0  0
  145.5067   71.6125  220.4432 H   0  0  0  0  0  0  0  0  0  0  0  0
  144.9727   72.5659  219.0353 H   0  0  0  0  0  0  0  0  0  0  0  0
  144.8945   73.6299  221.9074 H   0  0  0  0  0  0  0  0  0  0  0  0
  146.2887   73.8795  220.8489 H   0  0  0  0  0  0  0  0  0  0  0  0
  144.7241   75.7848  220.5695 H   0  0  0  0  0  0  0  0  0  0  0  0
  144.6811   74.8075  219.0708 H   0  0  0  0  0  0  0  0  0  0  0  0
  142.7457   74.6630  221.4159 H   0  0  0  0  0  0  0  0  0  0  0  0
  142.7962   76.4712  219.4156 H   0  0  0  0  0  0  0  0  0  0  0  0
  141.5245   75.2731  218.9684 H   0  0  0  0  0  0  0  0  0  0  0  0
  139.1727   69.6947  222.6345 H   0  0  0  0  0  0  0  0  0  0  0  0
  139.1015   68.1408  224.5747 H   0  0  0  0  0  0  0  0  0  0  0  0
  139.5575   67.6819  226.8174 H   0  0  0  0  0  0  0  0  0  0  0  0
  141.4514   70.6488  229.2736 H   0  0  0  0  0  0  0  0  0  0  0  0
  141.5266   72.2024  227.3378 H   0  0  0  0  0  0  0  0  0  0  0  0
  1  2  2  0
  2  3  1  0
  3  4  1  0
  4  5  1  0
  5  6  2  0
  5  7  1  0
  7  8  1  0
  8  9  1  0
  9 10  1  0
 10 11  1  0
 11 12  1  0
 12 13  1  0
 13 14  1  0
 14 15  1  0
 14 16  1  0
 14 17  1  0
  2 18  1  0
 18 19  2  0
 19 20  1  0
 20 21  2  0
 21 22  1  0
 22 23  2  0
 23 24  1  0
 23 25  1  0
 25 26  2  0
 26 27  1  0
 27 28  2  0
 12  7  1  0
 28 18  1  0
 27 21  1  0
  3 29  1  0
  4 30  1  0
  4 31  1  0
  8 32  1  0
  8 33  1  0
  9 34  1  0
  9 35  1  0
 10 36  1  0
 10 37  1  0
 11 38  1  0
 11 39  1  0
 12 40  1  1
 13 41  1  0
 13 42  1  0
 19 43  1  0
 20 44  1  0
 22 45  1  0
 25 46  1  0
 26 47  1  0
M  END
>  <smiles>  (91) 
O=C(NCC(=O)N1CCCCC1CC(F)(F)F)c1ccc2cc(F)ccc2n1

>  <score_type>  (91) 
oracle

>  <origin>  (91) 
autodockgpu

>  <m_score__min__energy>  (91) 
-7.0999999999999996

>  <m_primary>  (91) 
energy

>  <rmsd>  (91) 
3.191396144499905

>  <m_score__min__rmsd>  (91) 
3.191396144499905

>  <meeko>  (91) 
{"free_energy": -6.71, "intermolecular_energy": -8.5, "internal_energy": -1.24, "cluster_size": 18, "cluster_id": 6, "rank_in_cluster": 3}

>  <energy>  (91) 
-6.42

>  <cluster_rmsd>  (91) 
0.82

>  <cluster>  (91) 
6

$$$$

     RDKit          3D

 47 49  0  0  0  0  0  0  0  0999 V2000
  140.0650   73.2750  222.6160 O   0  0  0  0  0  0  0  0  0  0  0  0
  140.1370   72.0190  222.5710 C   0  0  0  0  0  0  0  0  0  0  0  0
  140.2950   71.4250  221.2600 N   0  0  0  0  0  0  0  0  0  0  0  0
  140.3710   72.1620  220.0690 C   0  0  0  0  0  0  0  0  0  0  0  0
  141.6260   72.6040  219.4860 C   0  0  0  0  0  0  0  0  0  0  0  0
  141.6170   72.5390  218.1780 O   0  0  0  0  0  0  0  0  0  0  0  0
  142.8150   73.0750  220.0540 N   0  0  0  0  0  0  0  0  0  0  0  0
  143.8110   72.0970  220.4520 C   0  0  0  0  0  0  0  0  0  0  0  0
  145.1940   72.6460  220.1230 C   0  0  0  0  0  0  0  0  0  0  0  0
  145.3450   73.9600  220.8400 C   0  0  0  0  0  0  0  0  0  0  0  0
  144.4260   74.9340  220.1090 C   0  0  0  0  0  0  0  0  0  0  0  0
  143.0020   74.4830  220.2980 C   0  0  1  0  0  0  0  0  0  0  0  0
  142.0240   75.4260  219.7240 C   0  0  0  0  0  0  0  0  0  0  0  0
  141.1420   76.0390  220.8430 C   0  0  0  0  0  0  0  0  0  0  0  0
  141.5030   77.3070  221.1510 F   0  0  0  0  0  0  0  0  0  0  0  0
  141.4750   75.2610  221.9700 F   0  0  0  0  0  0  0  0  0  0  0  0
  139.8150   75.8130  220.6430 F   0  0  0  0  0  0  0  0  0  0  0  0
  140.0680   71.1820  223.7720 C   0  0  0  0  0  0  0  0  0  0  0  0
  139.4010   69.9820  223.6630 C   0  0  0  0  0  0  0  0  0  0  0  0
  139.2950   69.1410  224.7560 C   0  0  0  0  0  0  0  0  0  0  0  0
  139.8640   69.5190  225.9520 C   0  0  0  0  0  0  0  0  0  0  0  0
  139.7480   68.6710  227.0230 C   0  0  0  0  0  0  0  0  0  0  0  0
  140.3020   69.0110  228.2330 C   0  0  0  0  0  0  0  0  0  0  0  0
  140.1790   68.1680  229.2740 F   0  0  0  0  0  0  0  0  0  0  0  0
  140.9730   70.2290  228.3300 C   0  0  0  0  0  0  0  0  0  0  0  0
  141.0800   71.0770  227.2270 C   0  0  0  0  0  0  0  0  0  0  0  0
  140.5230   70.7290  226.0210 C   0  0  0  0  0  0  0  0  0  0  0  0
  140.6110   71.5270  224.9420 N   0  0  0  0  0  0  0  0  0  0  0  0
  140.3480   70.3610  221.2940 H   0  0  0  0  0  0  0  0  0  0  0  0
  139.8814   71.5457  219.3006 H   0  0  0  0  0  0  0  0  0  0  0  0
  139.9244   73.1192  220.3762 H   0  0  0  0  0  0  0  0  0  0  0  0
  143.7347   71.9100  221.5333 H   0  0  0  0  0  0  0  0  0  0  0  0
  143.6449   71.1525  219.9132 H   0  0  0  0  0  0  0  0  0  0  0  0
  145.9676   71.9420  220.4635 H   0  0  0  0  0  0  0  0  0  0  0  0
  145.3065   72.7835  219.0374 H   0  0  0  0  0  0  0  0  0  0  0  0
  145.0401   73.8606  221.8922 H   0  0  0  0  0  0  0  0  0  0  0  0
  146.3890   74.3066  220.8391 H   0  0  0  0  0  0  0  0  0  0  0  0
  144.5527   75.9452  220.5231 H   0  0  0  0  0  0  0  0  0  0  0  0
  144.6751   74.9544  219.0378 H   0  0  0  0  0  0  0  0  0  0  0  0
  142.7624   74.5426  221.3699 H   0  0  0  0  0  0  0  0  0  0  0  0
  142.5609   76.2325  219.2031 H   0  0  0  0  0  0  0  0  0  0  0  0
  141.3781   74.8839  219.0177 H   0  0  0  0  0  0  0  0  0  0  0  0
  138.9506   69.6911  222.7025 H   0  0  0  0  0  0  0  0  0  0  0  0
  138.7628   68.1821  224.6711 H   0  0  0  0  0  0  0  0  0  0  0  0
  139.2108   67.7174  226.9132 H   0  0  0  0  0  0  0  0  0  0  0  0
  141.4240   70.5255  229.2885 H   0  0  0  0  0  0  0  0  0  0  0  0
  141.6154   72.0330  227.3244 H   0  0  0  0  0  0  0  0  0  0  0  0
  1  2  2  0
  2  3  1  0
  3  4  1  0
  4  5  1  0
  5  6  2  0
  5  7  1  0
  7  8  1  0
  8  9  1  0
  9 10  1  0
 10 11  1  0
 11 12  1  0
 12 13  1  0
 13 14  1  0
 14 15  1  0
 14 16  1  0
 14 17  1  0
  2 18  1  0
 18 19  2  0
 19 20  1  0
 20 21  2  0
 21 22  1  0
 22 23  2  0
 23 24  1  0
 23 25  1  0
 25 26  2  0
 26 27  1  0
 27 28  2  0
 12  7  1  0
 28 18  1  0
 27 21  1  0
  3 29  1  0
  4 30  1  0
  4 31  1  0
  8 32  1  0
  8 33  1  0
  9 34  1  0
  9 35  1  0
 10 36  1  0
 10 37  1  0
 11 38  1  0
 11 39  1  0
 12 40  1  1
 13 41  1  0
 13 42  1  0
 19 43  1  0
 20 44  1  0
 22 45  1  0
 25 46  1  0
 26 47  1  0
M  END
>  <smiles>  (92) 
O=C(NCC(=O)N1CCCCC1CC(F)(F)F)c1ccc2cc(F)ccc2n1

>  <score_type>  (92) 
oracle

>  <origin>  (92) 
autodockgpu

>  <m_score__min__energy>  (92) 
-7.0999999999999996

>  <m_primary>  (92) 
energy

>  <rmsd>  (92) 
3.328949756966342

>  <m_score__min__rmsd>  (92) 
3.328949756966342

>  <meeko>  (92) 
{"free_energy": -6.69, "intermolecular_energy": -8.48, "internal_energy": -1.2, "cluster_size": 18, "cluster_id": 6, "rank_in_cluster": 6}

>  <energy>  (92) 
-6.32

>  <cluster_rmsd>  (92) 
0.85

>  <cluster>  (92) 
6

$$$$

     RDKit          3D

 47 49  0  0  0  0  0  0  0  0999 V2000
  140.2540   73.0350  222.6980 O   0  0  0  0  0  0  0  0  0  0  0  0
  140.3010   71.7850  222.8390 C   0  0  0  0  0  0  0  0  0  0  0  0
  140.2600   70.9940  221.6270 N   0  0  0  0  0  0  0  0  0  0  0  0
  140.1750   71.5380  220.3370 C   0  0  0  0  0  0  0  0  0  0  0  0
  141.1580   72.4620  219.7980 C   0  0  0  0  0  0  0  0  0  0  0  0
  140.7830   72.9700  218.6500 O   0  0  0  0  0  0  0  0  0  0  0  0
  142.4010   72.8970  220.2690 N   0  0  0  0  0  0  0  0  0  0  0  0
  143.3900   71.8890  220.6080 C   0  0  0  0  0  0  0  0  0  0  0  0
  144.7620   72.3840  220.1680 C   0  0  0  0  0  0  0  0  0  0  0  0
  145.0110   73.7010  220.8530 C   0  0  0  0  0  0  0  0  0  0  0  0
  144.0750   74.6970  220.1760 C   0  0  0  0  0  0  0  0  0  0  0  0
  142.6540   74.3000  220.4780 C   0  0  1  0  0  0  0  0  0  0  0  0
  141.6700   75.2710  219.9630 C   0  0  0  0  0  0  0  0  0  0  0  0
  141.0540   76.0860  221.1290 C   0  0  0  0  0  0  0  0  0  0  0  0
  141.2570   75.5020  222.3330 F   0  0  0  0  0  0  0  0  0  0  0  0
  139.6700   75.9910  220.8850 F   0  0  0  0  0  0  0  0  0  0  0  0
  141.3330   77.4150  221.0400 F   0  0  0  0  0  0  0  0  0  0  0  0
  140.3920   71.1440  224.1540 C   0  0  0  0  0  0  0  0  0  0  0  0
  140.9380   71.8870  225.1770 C   0  0  0  0  0  0  0  0  0  0  0  0
  141.0560   71.3470  226.4450 C   0  0  0  0  0  0  0  0  0  0  0  0
  140.6220   70.0600  226.6700 C   0  0  0  0  0  0  0  0  0  0  0  0
  140.7470   69.5430  227.9330 C   0  0  0  0  0  0  0  0  0  0  0  0
  140.3250   68.2630  228.1980 C   0  0  0  0  0  0  0  0  0  0  0  0
  140.4560   67.7710  229.4430 F   0  0  0  0  0  0  0  0  0  0  0  0
  139.7750   67.5220  227.1540 C   0  0  0  0  0  0  0  0  0  0  0  0
  139.6560   68.0670  225.8750 C   0  0  0  0  0  0  0  0  0  0  0  0
  140.0810   69.3480  225.6190 C   0  0  0  0  0  0  0  0  0  0  0  0
  139.9770   69.8980  224.3960 N   0  0  0  0  0  0  0  0  0  0  0  0
  140.3020   69.9460  221.8190 H   0  0  0  0  0  0  0  0  0  0  0  0
  140.1563   70.6807  219.6480 H   0  0  0  0  0  0  0  0  0  0  0  0
  139.2930   72.1885  220.4321 H   0  0  0  0  0  0  0  0  0  0  0  0
  143.3885   71.7197  221.6949 H   0  0  0  0  0  0  0  0  0  0  0  0
  143.1515   70.9435  220.0989 H   0  0  0  0  0  0  0  0  0  0  0  0
  145.5345   71.6573  220.4599 H   0  0  0  0  0  0  0  0  0  0  0  0
  144.7976   72.5038  219.0751 H   0  0  0  0  0  0  0  0  0  0  0  0
  144.7808   73.6256  221.9260 H   0  0  0  0  0  0  0  0  0  0  0  0
  146.0635   74.0103  220.7715 H   0  0  0  0  0  0  0  0  0  0  0  0
  144.2676   75.7087  220.5625 H   0  0  0  0  0  0  0  0  0  0  0  0
  144.2440   74.6936  219.0891 H   0  0  0  0  0  0  0  0  0  0  0  0
  142.4963   74.3811  221.5636 H   0  0  0  0  0  0  0  0  0  0  0  0
  142.1702   75.9584  219.2649 H   0  0  0  0  0  0  0  0  0  0  0  0
  140.8671   74.7252  219.4458 H   0  0  0  0  0  0  0  0  0  0  0  0
  141.2817   72.9141  224.9849 H   0  0  0  0  0  0  0  0  0  0  0  0
  141.4914   71.9388  227.2637 H   0  0  0  0  0  0  0  0  0  0  0  0
  141.1859   70.1539  228.7356 H   0  0  0  0  0  0  0  0  0  0  0  0
  139.4302   66.4942  227.3405 H   0  0  0  0  0  0  0  0  0  0  0  0
  139.2181   67.4657  225.0647 H   0  0  0  0  0  0  0  0  0  0  0  0
  1  2  2  0
  2  3  1  0
  3  4  1  0
  4  5  1  0
  5  6  2  0
  5  7  1  0
  7  8  1  0
  8  9  1  0
  9 10  1  0
 10 11  1  0
 11 12  1  0
 12 13  1  0
 13 14  1  0
 14 15  1  0
 14 16  1  0
 14 17  1  0
  2 18  1  0
 18 19  2  0
 19 20  1  0
 20 21  2  0
 21 22  1  0
 22 23  2  0
 23 24  1  0
 23 25  1  0
 25 26  2  0
 26 27  1  0
 27 28  2  0
 12  7  1  0
 28 18  1  0
 27 21  1  0
  3 29  1  0
  4 30  1  0
  4 31  1  0
  8 32  1  0
  8 33  1  0
  9 34  1  0
  9 35  1  0
 10 36  1  0
 10 37  1  0
 11 38  1  0
 11 39  1  0
 12 40  1  1
 13 41  1  0
 13 42  1  0
 19 43  1  0
 20 44  1  0
 22 45  1  0
 25 46  1  0
 26 47  1  0
M  END
>  <smiles>  (93) 
O=C(NCC(=O)N1CCCCC1CC(F)(F)F)c1ccc2cc(F)ccc2n1

>  <score_type>  (93) 
oracle

>  <origin>  (93) 
autodockgpu

>  <m_score__min__energy>  (93) 
-7.0999999999999996

>  <m_primary>  (93) 
energy

>  <rmsd>  (93) 
3.953250253640485

>  <m_score__min__rmsd>  (93) 
3.953250253640485

>  <meeko>  (93) 
{"free_energy": -6.5, "intermolecular_energy": -8.29, "internal_energy": -1.48, "cluster_size": 18, "cluster_id": 6, "rank_in_cluster": 11}

>  <energy>  (93) 
-6.31

>  <cluster_rmsd>  (93) 
0.84

>  <cluster>  (93) 
6

$$$$

     RDKit          3D

 47 49  0  0  0  0  0  0  0  0999 V2000
  140.6250   71.2480  221.3750 O   0  0  0  0  0  0  0  0  0  0  0  0
  140.2210   71.7300  222.4650 C   0  0  0  0  0  0  0  0  0  0  0  0
  139.8130   73.1190  222.4480 N   0  0  0  0  0  0  0  0  0  0  0  0
  139.8440   73.9320  221.3060 C   0  0  0  0  0  0  0  0  0  0  0  0
  140.6210   75.1570  221.2240 C   0  0  0  0  0  0  0  0  0  0  0  0
  140.6020   75.8330  222.3460 O   0  0  0  0  0  0  0  0  0  0  0  0
  141.3670   75.7330  220.1900 N   0  0  0  0  0  0  0  0  0  0  0  0
  140.7930   76.8670  219.4880 C   0  0  0  0  0  0  0  0  0  0  0  0
  141.9020   77.8680  219.1870 C   0  0  0  0  0  0  0  0  0  0  0  0
  142.9540   77.1530  218.3820 C   0  0  0  0  0  0  0  0  0  0  0  0
  143.6350   76.1970  219.3560 C   0  0  0  0  0  0  0  0  0  0  0  0
  142.6310   75.1640  219.7950 C   0  0  1  0  0  0  0  0  0  0  0  0
  143.2240   74.1200  220.6520 C   0  0  0  0  0  0  0  0  0  0  0  0
  144.6630   73.7850  220.1800 C   0  0  0  0  0  0  0  0  0  0  0  0
  144.7530   73.6780  218.8330 F   0  0  0  0  0  0  0  0  0  0  0  0
  144.8660   72.4840  220.6820 F   0  0  0  0  0  0  0  0  0  0  0  0
  145.6050   74.5480  220.7960 F   0  0  0  0  0  0  0  0  0  0  0  0
  140.1590   70.9420  223.6990 C   0  0  0  0  0  0  0  0  0  0  0  0
  139.5580   69.7040  223.6240 C   0  0  0  0  0  0  0  0  0  0  0  0
  139.4640   68.9050  224.7490 C   0  0  0  0  0  0  0  0  0  0  0  0
  139.9760   69.3630  225.9420 C   0  0  0  0  0  0  0  0  0  0  0  0
  139.8720   68.5550  227.0450 C   0  0  0  0  0  0  0  0  0  0  0  0
  140.3720   68.9750  228.2550 C   0  0  0  0  0  0  0  0  0  0  0  0
  140.2610   68.1710  229.3280 F   0  0  0  0  0  0  0  0  0  0  0  0
  140.9760   70.2290  228.3170 C   0  0  0  0  0  0  0  0  0  0  0  0
  141.0720   71.0340  227.1820 C   0  0  0  0  0  0  0  0  0  0  0  0
  140.5700   70.6070  225.9780 C   0  0  0  0  0  0  0  0  0  0  0  0
  140.6490   71.3640  224.8670 N   0  0  0  0  0  0  0  0  0  0  0  0
  139.4840   73.4620  223.4020 H   0  0  0  0  0  0  0  0  0  0  0  0
  140.2035   73.2906  220.4879 H   0  0  0  0  0  0  0  0  0  0  0  0
  138.8162   74.3236  221.2886 H   0  0  0  0  0  0  0  0  0  0  0  0
  140.3359   76.5270  218.5470 H   0  0  0  0  0  0  0  0  0  0  0  0
  140.0196   77.3406  220.1105 H   0  0  0  0  0  0  0  0  0  0  0  0
  141.4981   78.7131  218.6101 H   0  0  0  0  0  0  0  0  0  0  0  0
  142.3309   78.2618  220.1203 H   0  0  0  0  0  0  0  0  0  0  0  0
  142.4912   76.5940  217.5554 H   0  0  0  0  0  0  0  0  0  0  0  0
  143.6709   77.8559  217.9327 H   0  0  0  0  0  0  0  0  0  0  0  0
  144.4824   75.7025  218.8587 H   0  0  0  0  0  0  0  0  0  0  0  0
  144.0093   76.7524  220.2286 H   0  0  0  0  0  0  0  0  0  0  0  0
  142.3307   74.5799  218.9126 H   0  0  0  0  0  0  0  0  0  0  0  0
  143.2580   74.4801  221.6908 H   0  0  0  0  0  0  0  0  0  0  0  0
  142.6068   73.2118  220.5865 H   0  0  0  0  0  0  0  0  0  0  0  0
  139.1513   69.3499  222.6652 H   0  0  0  0  0  0  0  0  0  0  0  0
  138.9861   67.9159  224.6912 H   0  0  0  0  0  0  0  0  0  0  0  0
  139.3884   67.5705  226.9618 H   0  0  0  0  0  0  0  0  0  0  0  0
  141.3825   70.5889  229.2737 H   0  0  0  0  0  0  0  0  0  0  0  0
  141.5544   72.0201  227.2524 H   0  0  0  0  0  0  0  0  0  0  0  0
  1  2  2  0
  2  3  1  0
  3  4  1  0
  4  5  1  0
  5  6  2  0
  5  7  1  0
  7  8  1  0
  8  9  1  0
  9 10  1  0
 10 11  1  0
 11 12  1  0
 12 13  1  0
 13 14  1  0
 14 15  1  0
 14 16  1  0
 14 17  1  0
  2 18  1  0
 18 19  2  0
 19 20  1  0
 20 21  2  0
 21 22  1  0
 22 23  2  0
 23 24  1  0
 23 25  1  0
 25 26  2  0
 26 27  1  0
 27 28  2  0
 12  7  1  0
 28 18  1  0
 27 21  1  0
  3 29  1  0
  4 30  1  0
  4 31  1  0
  8 32  1  0
  8 33  1  0
  9 34  1  0
  9 35  1  0
 10 36  1  0
 10 37  1  0
 11 38  1  0
 11 39  1  0
 12 40  1  6
 13 41  1  0
 13 42  1  0
 19 43  1  0
 20 44  1  0
 22 45  1  0
 25 46  1  0
 26 47  1  0
M  END
>  <smiles>  (94) 
O=C(NCC(=O)N1CCCCC1CC(F)(F)F)c1ccc2cc(F)ccc2n1

>  <score_type>  (94) 
oracle

>  <origin>  (94) 
autodockgpu

>  <m_score__min__energy>  (94) 
-7.0999999999999996

>  <m_primary>  (94) 
energy

>  <rmsd>  (94) 
2.207254202448054

>  <m_score__min__rmsd>  (94) 
2.207254202448054

>  <meeko>  (94) 
{"free_energy": -6.98, "intermolecular_energy": -8.77, "internal_energy": -1.11, "cluster_size": 14, "cluster_id": 2, "rank_in_cluster": 4}

>  <energy>  (94) 
-6.15

>  <cluster_rmsd>  (94) 
0.94

>  <cluster>  (94) 
6

$$$$

     RDKit          3D

 47 49  0  0  0  0  0  0  0  0999 V2000
  140.0320   73.3810  222.6530 O   0  0  0  0  0  0  0  0  0  0  0  0
  140.0910   72.1260  222.5750 C   0  0  0  0  0  0  0  0  0  0  0  0
  140.1520   71.5610  221.2420 N   0  0  0  0  0  0  0  0  0  0  0  0
  140.1510   72.3250  220.0660 C   0  0  0  0  0  0  0  0  0  0  0  0
  141.3400   72.9690  219.5350 C   0  0  0  0  0  0  0  0  0  0  0  0
  141.1810   73.3600  218.2950 O   0  0  0  0  0  0  0  0  0  0  0  0
  142.5930   73.2420  220.0940 N   0  0  0  0  0  0  0  0  0  0  0  0
  143.4500   72.1170  220.4210 C   0  0  0  0  0  0  0  0  0  0  0  0
  144.8900   72.4840  220.0820 C   0  0  0  0  0  0  0  0  0  0  0  0
  145.2360   73.7270  220.8560 C   0  0  0  0  0  0  0  0  0  0  0  0
  144.4490   74.8540  220.1940 C   0  0  0  0  0  0  0  0  0  0  0  0
  142.9800   74.5970  220.3990 C   0  0  1  0  0  0  0  0  0  0  0  0
  142.1320   75.6940  219.8940 C   0  0  0  0  0  0  0  0  0  0  0  0
  141.1400   76.1590  220.9900 C   0  0  0  0  0  0  0  0  0  0  0  0
  139.8490   76.0790  220.5880 F   0  0  0  0  0  0  0  0  0  0  0  0
  141.4190   77.5350  221.1080 F   0  0  0  0  0  0  0  0  0  0  0  0
  141.4320   75.6380  222.2130 F   0  0  0  0  0  0  0  0  0  0  0  0
  140.0980   71.2630  223.7590 C   0  0  0  0  0  0  0  0  0  0  0  0
  139.5640   70.0010  223.6180 C   0  0  0  0  0  0  0  0  0  0  0  0
  139.5370   69.1310  224.6940 C   0  0  0  0  0  0  0  0  0  0  0  0
  140.0500   69.5430  225.9030 C   0  0  0  0  0  0  0  0  0  0  0  0
  140.0140   68.6660  226.9560 C   0  0  0  0  0  0  0  0  0  0  0  0
  140.5170   69.0380  228.1800 C   0  0  0  0  0  0  0  0  0  0  0  0
  140.4730   68.1660  229.2030 F   0  0  0  0  0  0  0  0  0  0  0  0
  141.0530   70.3180  228.3080 C   0  0  0  0  0  0  0  0  0  0  0  0
  141.0810   71.1950  227.2230 C   0  0  0  0  0  0  0  0  0  0  0  0
  140.5760   70.8140  226.0040 C   0  0  0  0  0  0  0  0  0  0  0  0
  140.5900   71.6390  224.9410 N   0  0  0  0  0  0  0  0  0  0  0  0
  140.1990   70.4970  221.2490 H   0  0  0  0  0  0  0  0  0  0  0  0
  139.7894   71.6558  219.2713 H   0  0  0  0  0  0  0  0  0  0  0  0
  139.5503   73.1944  220.3714 H   0  0  0  0  0  0  0  0  0  0  0  0
  143.3689   71.8897  221.4942 H   0  0  0  0  0  0  0  0  0  0  0  0
  143.1432   71.2323  219.8438 H   0  0  0  0  0  0  0  0  0  0  0  0
  145.5639   71.6634  220.3691 H   0  0  0  0  0  0  0  0  0  0  0  0
  145.0006   72.6580  219.0015 H   0  0  0  0  0  0  0  0  0  0  0  0
  144.9390   73.6185  221.9096 H   0  0  0  0  0  0  0  0  0  0  0  0
  146.3179   73.9252  220.8459 H   0  0  0  0  0  0  0  0  0  0  0  0
  144.7243   75.8163  220.6503 H   0  0  0  0  0  0  0  0  0  0  0  0
  144.6780   74.8918  219.1188 H   0  0  0  0  0  0  0  0  0  0  0  0
  142.7722   74.6372  221.4785 H   0  0  0  0  0  0  0  0  0  0  0  0
  142.7707   76.5402  219.6007 H   0  0  0  0  0  0  0  0  0  0  0  0
  141.5609   75.3327  219.0261 H   0  0  0  0  0  0  0  0  0  0  0  0
  139.1575   69.6835  222.6464 H   0  0  0  0  0  0  0  0  0  0  0  0
  139.1109   68.1228  224.5844 H   0  0  0  0  0  0  0  0  0  0  0  0
  139.5821   67.6634  226.8213 H   0  0  0  0  0  0  0  0  0  0  0  0
  141.4596   70.6414  229.2776 H   0  0  0  0  0  0  0  0  0  0  0  0
  141.5112   72.2000  227.3451 H   0  0  0  0  0  0  0  0  0  0  0  0
  1  2  2  0
  2  3  1  0
  3  4  1  0
  4  5  1  0
  5  6  2  0
  5  7  1  0
  7  8  1  0
  8  9  1  0
  9 10  1  0
 10 11  1  0
 11 12  1  0
 12 13  1  0
 13 14  1  0
 14 15  1  0
 14 16  1  0
 14 17  1  0
  2 18  1  0
 18 19  2  0
 19 20  1  0
 20 21  2  0
 21 22  1  0
 22 23  2  0
 23 24  1  0
 23 25  1  0
 25 26  2  0
 26 27  1  0
 27 28  2  0
 12  7  1  0
 28 18  1  0
 27 21  1  0
  3 29  1  0
  4 30  1  0
  4 31  1  0
  8 32  1  0
  8 33  1  0
  9 34  1  0
  9 35  1  0
 10 36  1  0
 10 37  1  0
 11 38  1  0
 11 39  1  0
 12 40  1  1
 13 41  1  0
 13 42  1  0
 19 43  1  0
 20 44  1  0
 22 45  1  0
 25 46  1  0
 26 47  1  0
M  END
>  <smiles>  (95) 
O=C(NCC(=O)N1CCCCC1CC(F)(F)F)c1ccc2cc(F)ccc2n1

>  <score_type>  (95) 
oracle

>  <origin>  (95) 
autodockgpu

>  <m_score__min__energy>  (95) 
-7.0999999999999996

>  <m_primary>  (95) 
energy

>  <rmsd>  (95) 
3.1936778011021247

>  <m_score__min__rmsd>  (95) 
3.1936778011021247

>  <meeko>  (95) 
{"free_energy": -6.73, "intermolecular_energy": -8.52, "internal_energy": -1.25, "cluster_size": 18, "cluster_id": 6, "rank_in_cluster": 2}

>  <energy>  (95) 
-6.66

>  <cluster_rmsd>  (95) 
0.0

>  <cluster>  (95) 
7

$$$$

     RDKit          3D

 47 49  0  0  0  0  0  0  0  0999 V2000
  141.4710   72.2800  221.6650 O   0  0  0  0  0  0  0  0  0  0  0  0
  140.5190   72.4330  222.4730 C   0  0  0  0  0  0  0  0  0  0  0  0
  139.5890   73.5050  222.1830 N   0  0  0  0  0  0  0  0  0  0  0  0
  139.6950   74.3570  221.0740 C   0  0  0  0  0  0  0  0  0  0  0  0
  140.8090   75.2670  220.8740 C   0  0  0  0  0  0  0  0  0  0  0  0
  141.4520   75.5160  221.9880 O   0  0  0  0  0  0  0  0  0  0  0  0
  141.3080   75.9110  219.7370 N   0  0  0  0  0  0  0  0  0  0  0  0
  140.8640   77.2690  219.4750 C   0  0  0  0  0  0  0  0  0  0  0  0
  142.0410   78.0740  218.9400 C   0  0  0  0  0  0  0  0  0  0  0  0
  142.5470   77.3760  217.7070 C   0  0  0  0  0  0  0  0  0  0  0  0
  143.2240   76.1030  218.2050 C   0  0  0  0  0  0  0  0  0  0  0  0
  142.1770   75.2140  218.8230 C   0  0  1  0  0  0  0  0  0  0  0  0
  142.7130   73.9020  219.2330 C   0  0  0  0  0  0  0  0  0  0  0  0
  144.1270   74.0630  219.8480 C   0  0  0  0  0  0  0  0  0  0  0  0
  145.1080   73.6730  219.0000 F   0  0  0  0  0  0  0  0  0  0  0  0
  144.1270   73.1200  220.8940 F   0  0  0  0  0  0  0  0  0  0  0  0
  144.2940   75.2660  220.4620 F   0  0  0  0  0  0  0  0  0  0  0  0
  140.3420   71.5820  223.6530 C   0  0  0  0  0  0  0  0  0  0  0  0
  139.6570   70.4000  223.4760 C   0  0  0  0  0  0  0  0  0  0  0  0
  139.4520   69.5460  224.5450 C   0  0  0  0  0  0  0  0  0  0  0  0
  139.9400   69.8930  225.7840 C   0  0  0  0  0  0  0  0  0  0  0  0
  139.7270   69.0330  226.8310 C   0  0  0  0  0  0  0  0  0  0  0  0
  140.1990   69.3430  228.0830 C   0  0  0  0  0  0  0  0  0  0  0  0
  139.9800   68.4880  229.0990 F   0  0  0  0  0  0  0  0  0  0  0  0
  140.8880   70.5420  228.2480 C   0  0  0  0  0  0  0  0  0  0  0  0
  141.0960   71.4030  227.1700 C   0  0  0  0  0  0  0  0  0  0  0  0
  140.6210   71.0850  225.9210 C   0  0  0  0  0  0  0  0  0  0  0  0
  140.8070   71.8970  224.8640 N   0  0  0  0  0  0  0  0  0  0  0  0
  138.8100   73.5790  222.9060 H   0  0  0  0  0  0  0  0  0  0  0  0
  139.6754   73.7044  220.1887 H   0  0  0  0  0  0  0  0  0  0  0  0
  138.8699   75.0603  221.2599 H   0  0  0  0  0  0  0  0  0  0  0  0
  140.0551   77.2565  218.7297 H   0  0  0  0  0  0  0  0  0  0  0  0
  140.4889   77.7258  220.4027 H   0  0  0  0  0  0  0  0  0  0  0  0
  141.7140   79.0932  218.6864 H   0  0  0  0  0  0  0  0  0  0  0  0
  142.8359   78.1454  219.6970 H   0  0  0  0  0  0  0  0  0  0  0  0
  141.7115   77.1291  217.0354 H   0  0  0  0  0  0  0  0  0  0  0  0
  143.2417   78.0100  217.1365 H   0  0  0  0  0  0  0  0  0  0  0  0
  143.7015   75.5827  217.3617 H   0  0  0  0  0  0  0  0  0  0  0  0
  143.9934   76.3527  218.9504 H   0  0  0  0  0  0  0  0  0  0  0  0
  141.4638   74.9248  218.0370 H   0  0  0  0  0  0  0  0  0  0  0  0
  142.0417   73.4540  219.9804 H   0  0  0  0  0  0  0  0  0  0  0  0
  142.7812   73.2525  218.3479 H   0  0  0  0  0  0  0  0  0  0  0  0
  139.2714   70.1341  222.4807 H   0  0  0  0  0  0  0  0  0  0  0  0
  138.9057   68.6014  224.4063 H   0  0  0  0  0  0  0  0  0  0  0  0
  139.1776   68.0941  226.6678 H   0  0  0  0  0  0  0  0  0  0  0  0
  141.2735   70.8139  229.2417 H   0  0  0  0  0  0  0  0  0  0  0  0
  141.6448   72.3442  227.3216 H   0  0  0  0  0  0  0  0  0  0  0  0
  1  2  2  0
  2  3  1  0
  3  4  1  0
  4  5  1  0
  5  6  2  0
  5  7  1  0
  7  8  1  0
  8  9  1  0
  9 10  1  0
 10 11  1  0
 11 12  1  0
 12 13  1  0
 13 14  1  0
 14 15  1  0
 14 16  1  0
 14 17  1  0
  2 18  1  0
 18 19  2  0
 19 20  1  0
 20 21  2  0
 21 22  1  0
 22 23  2  0
 23 24  1  0
 23 25  1  0
 25 26  2  0
 26 27  1  0
 27 28  2  0
 12  7  1  0
 28 18  1  0
 27 21  1  0
  3 29  1  0
  4 30  1  0
  4 31  1  0
  8 32  1  0
  8 33  1  0
  9 34  1  0
  9 35  1  0
 10 36  1  0
 10 37  1  0
 11 38  1  0
 11 39  1  0
 12 40  1  6
 13 41  1  0
 13 42  1  0
 19 43  1  0
 20 44  1  0
 22 45  1  0
 25 46  1  0
 26 47  1  0
M  END
>  <smiles>  (96) 
O=C(NCC(=O)N1CCCCC1CC(F)(F)F)c1ccc2cc(F)ccc2n1

>  <score_type>  (96) 
oracle

>  <origin>  (96) 
autodockgpu

>  <m_score__min__energy>  (96) 
-7.0999999999999996

>  <m_primary>  (96) 
energy

>  <rmsd>  (96) 
2.2842786773656267

>  <m_score__min__rmsd>  (96) 
2.2842786773656267

>  <meeko>  (96) 
{"free_energy": -6.59, "intermolecular_energy": -8.38, "internal_energy": -1.1, "cluster_size": 14, "cluster_id": 2, "rank_in_cluster": 11}

>  <energy>  (96) 
-6.56

>  <cluster_rmsd>  (96) 
0.3

>  <cluster>  (96) 
7

$$$$

     RDKit          3D

 47 49  0  0  0  0  0  0  0  0999 V2000
  140.2040   73.4750  222.3460 O   0  0  0  0  0  0  0  0  0  0  0  0
  140.1540   72.2170  222.3240 C   0  0  0  0  0  0  0  0  0  0  0  0
  140.1470   71.5920  221.0180 N   0  0  0  0  0  0  0  0  0  0  0  0
  140.1950   72.3000  219.8080 C   0  0  0  0  0  0  0  0  0  0  0  0
  141.3670   73.0340  219.3620 C   0  0  0  0  0  0  0  0  0  0  0  0
  141.2150   73.5290  218.1590 O   0  0  0  0  0  0  0  0  0  0  0  0
  142.5990   73.3000  219.9690 N   0  0  0  0  0  0  0  0  0  0  0  0
  143.4350   72.1710  220.3350 C   0  0  0  0  0  0  0  0  0  0  0  0
  144.8890   72.5250  220.0520 C   0  0  0  0  0  0  0  0  0  0  0  0
  145.2140   73.7710  220.8320 C   0  0  0  0  0  0  0  0  0  0  0  0
  144.4620   74.9000  220.1330 C   0  0  0  0  0  0  0  0  0  0  0  0
  142.9840   74.6540  220.2810 C   0  0  1  0  0  0  0  0  0  0  0  0
  142.1650   75.7540  219.7370 C   0  0  0  0  0  0  0  0  0  0  0  0
  141.3070   76.3950  220.8580 C   0  0  0  0  0  0  0  0  0  0  0  0
  141.4170   75.7350  222.0360 F   0  0  0  0  0  0  0  0  0  0  0  0
  139.9890   76.1710  220.4160 F   0  0  0  0  0  0  0  0  0  0  0  0
  141.4350   77.7490  220.9030 F   0  0  0  0  0  0  0  0  0  0  0  0
  140.1030   71.4100  223.5450 C   0  0  0  0  0  0  0  0  0  0  0  0
  139.5090   70.1700  223.4540 C   0  0  0  0  0  0  0  0  0  0  0  0
  139.4260   69.3520  224.5660 C   0  0  0  0  0  0  0  0  0  0  0  0
  139.9430   69.7930  225.7640 C   0  0  0  0  0  0  0  0  0  0  0  0
  139.8510   68.9680  226.8540 C   0  0  0  0  0  0  0  0  0  0  0  0
  140.3560   69.3710  228.0670 C   0  0  0  0  0  0  0  0  0  0  0  0
  140.2560   68.5490  229.1270 F   0  0  0  0  0  0  0  0  0  0  0  0
  140.9530   70.6270  228.1460 C   0  0  0  0  0  0  0  0  0  0  0  0
  141.0380   71.4510  227.0230 C   0  0  0  0  0  0  0  0  0  0  0  0
  140.5300   71.0400  225.8150 C   0  0  0  0  0  0  0  0  0  0  0  0
  140.5990   71.8150  224.7170 N   0  0  0  0  0  0  0  0  0  0  0  0
  140.1020   70.5290  221.0720 H   0  0  0  0  0  0  0  0  0  0  0  0
  139.9808   71.5643  219.0188 H   0  0  0  0  0  0  0  0  0  0  0  0
  139.4875   73.1186  220.0062 H   0  0  0  0  0  0  0  0  0  0  0  0
  143.3099   71.9499  221.4053 H   0  0  0  0  0  0  0  0  0  0  0  0
  143.1450   71.2859  219.7498 H   0  0  0  0  0  0  0  0  0  0  0  0
  145.5446   71.7012  220.3708 H   0  0  0  0  0  0  0  0  0  0  0  0
  145.0437   72.6915  218.9757 H   0  0  0  0  0  0  0  0  0  0  0  0
  144.8752   73.6713  221.8738 H   0  0  0  0  0  0  0  0  0  0  0  0
  146.2970   73.9611  220.8630 H   0  0  0  0  0  0  0  0  0  0  0  0
  144.7258   75.8629  220.5947 H   0  0  0  0  0  0  0  0  0  0  0  0
  144.7338   74.9304  219.0675 H   0  0  0  0  0  0  0  0  0  0  0  0
  142.7342   74.7012  221.3512 H   0  0  0  0  0  0  0  0  0  0  0  0
  142.8268   76.5191  219.3049 H   0  0  0  0  0  0  0  0  0  0  0  0
  141.4961   75.3512  218.9622 H   0  0  0  0  0  0  0  0  0  0  0  0
  139.0988   69.8290  222.4920 H   0  0  0  0  0  0  0  0  0  0  0  0
  138.9530   68.3615  224.4946 H   0  0  0  0  0  0  0  0  0  0  0  0
  139.3725   67.9822  226.7582 H   0  0  0  0  0  0  0  0  0  0  0  0
  141.3628   70.9739  229.1061 H   0  0  0  0  0  0  0  0  0  0  0  0
  141.5160   72.4382  227.1060 H   0  0  0  0  0  0  0  0  0  0  0  0
  1  2  2  0
  2  3  1  0
  3  4  1  0
  4  5  1  0
  5  6  2  0
  5  7  1  0
  7  8  1  0
  8  9  1  0
  9 10  1  0
 10 11  1  0
 11 12  1  0
 12 13  1  0
 13 14  1  0
 14 15  1  0
 14 16  1  0
 14 17  1  0
  2 18  1  0
 18 19  2  0
 19 20  1  0
 20 21  2  0
 21 22  1  0
 22 23  2  0
 23 24  1  0
 23 25  1  0
 25 26  2  0
 26 27  1  0
 27 28  2  0
 12  7  1  0
 28 18  1  0
 27 21  1  0
  3 29  1  0
  4 30  1  0
  4 31  1  0
  8 32  1  0
  8 33  1  0
  9 34  1  0
  9 35  1  0
 10 36  1  0
 10 37  1  0
 11 38  1  0
 11 39  1  0
 12 40  1  1
 13 41  1  0
 13 42  1  0
 19 43  1  0
 20 44  1  0
 22 45  1  0
 25 46  1  0
 26 47  1  0
M  END
>  <smiles>  (97) 
O=C(NCC(=O)N1CCCCC1CC(F)(F)F)c1ccc2cc(F)ccc2n1

>  <score_type>  (97) 
oracle

>  <origin>  (97) 
autodockgpu

>  <m_score__min__energy>  (97) 
-7.0999999999999996

>  <m_primary>  (97) 
energy

>  <rmsd>  (97) 
3.18656859707891

>  <m_score__min__rmsd>  (97) 
3.18656859707891

>  <meeko>  (97) 
{"free_energy": -6.69, "intermolecular_energy": -8.48, "internal_energy": -1.26, "cluster_size": 18, "cluster_id": 6, "rank_in_cluster": 5}

>  <energy>  (97) 
-6.4

>  <cluster_rmsd>  (97) 
0.0

>  <cluster>  (97) 
8

$$$$

     RDKit          3D

 47 49  0  0  0  0  0  0  0  0999 V2000
  135.3810   69.9530  224.2790 O   0  0  0  0  0  0  0  0  0  0  0  0
  135.6480   71.1410  224.5990 C   0  0  0  0  0  0  0  0  0  0  0  0
  136.9490   71.6410  224.2070 N   0  0  0  0  0  0  0  0  0  0  0  0
  137.9010   70.8870  223.5050 C   0  0  0  0  0  0  0  0  0  0  0  0
  139.1430   70.4240  224.0990 C   0  0  0  0  0  0  0  0  0  0  0  0
  140.1950   70.8460  223.4430 O   0  0  0  0  0  0  0  0  0  0  0  0
  139.4130   69.6270  225.2170 N   0  0  0  0  0  0  0  0  0  0  0  0
  138.9090   68.2660  225.2190 C   0  0  0  0  0  0  0  0  0  0  0  0
  139.9560   67.3570  225.8520 C   0  0  0  0  0  0  0  0  0  0  0  0
  140.2340   67.8800  227.2350 C   0  0  0  0  0  0  0  0  0  0  0  0
  141.0090   69.1780  227.0350 C   0  0  0  0  0  0  0  0  0  0  0  0
  140.1080   70.1740  226.3550 C   0  0  1  0  0  0  0  0  0  0  0  0
  140.7290   71.5060  226.2190 C   0  0  0  0  0  0  0  0  0  0  0  0
  141.0770   72.0850  227.6140 C   0  0  0  0  0  0  0  0  0  0  0  0
  141.7890   71.2180  228.3720 F   0  0  0  0  0  0  0  0  0  0  0  0
  139.8180   72.1930  228.2360 F   0  0  0  0  0  0  0  0  0  0  0  0
  141.5430   73.3620  227.5470 F   0  0  0  0  0  0  0  0  0  0  0  0
  134.7040   71.9910  225.3310 C   0  0  0  0  0  0  0  0  0  0  0  0
  133.6770   71.3580  225.9960 C   0  0  0  0  0  0  0  0  0  0  0  0
  132.7480   72.0970  226.7080 C   0  0  0  0  0  0  0  0  0  0  0  0
  132.8650   73.4680  226.7420 C   0  0  0  0  0  0  0  0  0  0  0  0
  131.9340   74.1810  227.4530 C   0  0  0  0  0  0  0  0  0  0  0  0
  132.0160   75.5510  227.5120 C   0  0  0  0  0  0  0  0  0  0  0  0
  131.0940   76.2360  228.2130 F   0  0  0  0  0  0  0  0  0  0  0  0
  133.0590   76.1780  226.8330 C   0  0  0  0  0  0  0  0  0  0  0  0
  133.9960   75.4340  226.1160 C   0  0  0  0  0  0  0  0  0  0  0  0
  133.9070   74.0640  226.0620 C   0  0  0  0  0  0  0  0  0  0  0  0
  134.7970   73.3220  225.3780 N   0  0  0  0  0  0  0  0  0  0  0  0
  137.1090   72.6510  224.5090 H   0  0  0  0  0  0  0  0  0  0  0  0
  137.3763   69.9841  223.1593 H   0  0  0  0  0  0  0  0  0  0  0  0
  138.2691   71.6242  222.7763 H   0  0  0  0  0  0  0  0  0  0  0  0
  137.9767   68.2176  225.8007 H   0  0  0  0  0  0  0  0  0  0  0  0
  138.7050   67.9408  224.1882 H   0  0  0  0  0  0  0  0  0  0  0  0
  139.5734   66.3273  225.9100 H   0  0  0  0  0  0  0  0  0  0  0  0
  140.8762   67.3484  225.2494 H   0  0  0  0  0  0  0  0  0  0  0  0
  139.2919   68.0737  227.7687 H   0  0  0  0  0  0  0  0  0  0  0  0
  140.8020   67.1557  227.8373 H   0  0  0  0  0  0  0  0  0  0  0  0
  141.3289   69.5730  228.0106 H   0  0  0  0  0  0  0  0  0  0  0  0
  141.8998   68.9930  226.4168 H   0  0  0  0  0  0  0  0  0  0  0  0
  139.2663   70.3913  227.0290 H   0  0  0  0  0  0  0  0  0  0  0  0
  141.6496   71.4176  225.6234 H   0  0  0  0  0  0  0  0  0  0  0  0
  140.0189   72.1814  225.7194 H   0  0  0  0  0  0  0  0  0  0  0  0
  133.5949   70.2616  225.9611 H   0  0  0  0  0  0  0  0  0  0  0  0
  131.9265   71.5948  227.2400 H   0  0  0  0  0  0  0  0  0  0  0  0
  131.1214   73.6558  227.9762 H   0  0  0  0  0  0  0  0  0  0  0  0
  133.1445   77.2743  226.8629 H   0  0  0  0  0  0  0  0  0  0  0  0
  134.8132   75.9485  225.5893 H   0  0  0  0  0  0  0  0  0  0  0  0
  1  2  2  0
  2  3  1  0
  3  4  1  0
  4  5  1  0
  5  6  2  0
  5  7  1  0
  7  8  1  0
  8  9  1  0
  9 10  1  0
 10 11  1  0
 11 12  1  0
 12 13  1  0
 13 14  1  0
 14 15  1  0
 14 16  1  0
 14 17  1  0
  2 18  1  0
 18 19  2  0
 19 20  1  0
 20 21  2  0
 21 22  1  0
 22 23  2  0
 23 24  1  0
 23 25  1  0
 25 26  2  0
 26 27  1  0
 27 28  2  0
 12  7  1  0
 28 18  1  0
 27 21  1  0
  3 29  1  0
  4 30  1  0
  4 31  1  0
  8 32  1  0
  8 33  1  0
  9 34  1  0
  9 35  1  0
 10 36  1  0
 10 37  1  0
 11 38  1  0
 11 39  1  0
 12 40  1  1
 13 41  1  0
 13 42  1  0
 19 43  1  0
 20 44  1  0
 22 45  1  0
 25 46  1  0
 26 47  1  0
M  END
>  <smiles>  (98) 
O=C(NCC(=O)N1CCCCC1CC(F)(F)F)c1ccc2cc(F)ccc2n1

>  <score_type>  (98) 
oracle

>  <origin>  (98) 
autodockgpu

>  <m_score__min__energy>  (98) 
-7.0999999999999996

>  <m_primary>  (98) 
energy

>  <rmsd>  (98) 
8.417217416840481

>  <m_score__min__rmsd>  (98) 
8.417217416840481

>  <meeko>  (98) 
{"free_energy": -6.82, "intermolecular_energy": -8.61, "internal_energy": -1.07, "cluster_size": 1, "cluster_id": 4, "rank_in_cluster": 1}

>  <energy>  (98) 
-6.38

>  <cluster_rmsd>  (98) 
0.1

>  <cluster>  (98) 
8

$$$$

     RDKit          3D

 47 49  0  0  0  0  0  0  0  0999 V2000
  141.6070   72.7840  221.0480 O   0  0  0  0  0  0  0  0  0  0  0  0
  140.8720   73.6480  221.5930 C   0  0  0  0  0  0  0  0  0  0  0  0
  139.7760   73.1520  222.3980 N   0  0  0  0  0  0  0  0  0  0  0  0
  139.5010   71.7910  222.5980 C   0  0  0  0  0  0  0  0  0  0  0  0
  139.1240   71.2370  223.8870 C   0  0  0  0  0  0  0  0  0  0  0  0
  137.8820   71.5100  224.2000 O   0  0  0  0  0  0  0  0  0  0  0  0
  139.8290   70.4840  224.8310 N   0  0  0  0  0  0  0  0  0  0  0  0
  140.9300   71.1250  225.5270 C   0  0  0  0  0  0  0  0  0  0  0  0
  140.9250   70.6660  226.9800 C   0  0  0  0  0  0  0  0  0  0  0  0
  141.0270   69.1650  226.9830 C   0  0  0  0  0  0  0  0  0  0  0  0
  139.6780   68.6610  226.4780 C   0  0  0  0  0  0  0  0  0  0  0  0
  139.5110   69.0940  225.0450 C   0  0  1  0  0  0  0  0  0  0  0  0
  138.2840   68.5570  224.4260 C   0  0  0  0  0  0  0  0  0  0  0  0
  138.5960   67.9810  223.0210 C   0  0  0  0  0  0  0  0  0  0  0  0
  137.4740   67.6960  222.3180 F   0  0  0  0  0  0  0  0  0  0  0  0
  139.1920   66.7390  223.3120 F   0  0  0  0  0  0  0  0  0  0  0  0
  139.5600   68.6870  222.3700 F   0  0  0  0  0  0  0  0  0  0  0  0
  141.0970   75.0870  221.4320 C   0  0  0  0  0  0  0  0  0  0  0  0
  141.7330   75.4990  220.2820 C   0  0  0  0  0  0  0  0  0  0  0  0
  141.9780   76.8420  220.0620 C   0  0  0  0  0  0  0  0  0  0  0  0
  141.5800   77.7600  221.0080 C   0  0  0  0  0  0  0  0  0  0  0  0
  141.8330   79.0870  220.7710 C   0  0  0  0  0  0  0  0  0  0  0  0
  141.4510   80.0350  221.6900 C   0  0  0  0  0  0  0  0  0  0  0  0
  141.7070   81.3320  221.4430 F   0  0  0  0  0  0  0  0  0  0  0  0
  140.8090   79.6050  222.8500 C   0  0  0  0  0  0  0  0  0  0  0  0
  140.5610   78.2500  223.0710 C   0  0  0  0  0  0  0  0  0  0  0  0
  140.9470   77.3100  222.1470 C   0  0  0  0  0  0  0  0  0  0  0  0
  140.7190   75.9960  222.3340 N   0  0  0  0  0  0  0  0  0  0  0  0
  139.1940   73.9350  222.8280 H   0  0  0  0  0  0  0  0  0  0  0  0
  138.6779   71.5449  221.9110 H   0  0  0  0  0  0  0  0  0  0  0  0
  140.4952   71.3438  222.4509 H   0  0  0  0  0  0  0  0  0  0  0  0
  141.8817   70.8425  225.0532 H   0  0  0  0  0  0  0  0  0  0  0  0
  140.8168   72.2181  225.4796 H   0  0  0  0  0  0  0  0  0  0  0  0
  141.7826   71.1013  227.5139 H   0  0  0  0  0  0  0  0  0  0  0  0
  140.0036   70.9917  227.4849 H   0  0  0  0  0  0  0  0  0  0  0  0
  141.8354   68.8337  226.3146 H   0  0  0  0  0  0  0  0  0  0  0  0
  141.2581   68.7747  227.9852 H   0  0  0  0  0  0  0  0  0  0  0  0
  139.6454   67.5632  226.5400 H   0  0  0  0  0  0  0  0  0  0  0  0
  138.8665   69.0761  227.0938 H   0  0  0  0  0  0  0  0  0  0  0  0
  140.2931   68.6052  224.4455 H   0  0  0  0  0  0  0  0  0  0  0  0
  137.8762   67.7583  225.0630 H   0  0  0  0  0  0  0  0  0  0  0  0
  137.5502   69.3701  224.3238 H   0  0  0  0  0  0  0  0  0  0  0  0
  142.0477   74.7558  219.5346 H   0  0  0  0  0  0  0  0  0  0  0  0
  142.4843   77.1727  219.1431 H   0  0  0  0  0  0  0  0  0  0  0  0
  142.3419   79.3928  219.8450 H   0  0  0  0  0  0  0  0  0  0  0  0
  140.4936   80.3439  223.6013 H   0  0  0  0  0  0  0  0  0  0  0  0
  140.0521   77.9319  223.9929 H   0  0  0  0  0  0  0  0  0  0  0  0
  1  2  2  0
  2  3  1  0
  3  4  1  0
  4  5  1  0
  5  6  2  0
  5  7  1  0
  7  8  1  0
  8  9  1  0
  9 10  1  0
 10 11  1  0
 11 12  1  0
 12 13  1  0
 13 14  1  0
 14 15  1  0
 14 16  1  0
 14 17  1  0
  2 18  1  0
 18 19  2  0
 19 20  1  0
 20 21  2  0
 21 22  1  0
 22 23  2  0
 23 24  1  0
 23 25  1  0
 25 26  2  0
 26 27  1  0
 27 28  2  0
 12  7  1  0
 28 18  1  0
 27 21  1  0
  3 29  1  0
  4 30  1  0
  4 31  1  0
  8 32  1  0
  8 33  1  0
  9 34  1  0
  9 35  1  0
 10 36  1  0
 10 37  1  0
 11 38  1  0
 11 39  1  0
 12 40  1  6
 13 41  1  0
 13 42  1  0
 19 43  1  0
 20 44  1  0
 22 45  1  0
 25 46  1  0
 26 47  1  0
M  END
>  <smiles>  (99) 
O=C(NCC(=O)N1CCCCC1CC(F)(F)F)c1ccc2cc(F)ccc2n1

>  <score_type>  (99) 
oracle

>  <origin>  (99) 
autodockgpu

>  <m_score__min__energy>  (99) 
-7.0999999999999996

>  <m_primary>  (99) 
energy

>  <rmsd>  (99) 
8.864921899263187

>  <m_score__min__rmsd>  (99) 
8.864921899263187

>  <meeko>  (99) 
{"free_energy": -6.66, "intermolecular_energy": -8.45, "internal_energy": -1.14, "cluster_size": 2, "cluster_id": 7, "rank_in_cluster": 1}

>  <energy>  (99) 
-6.24

>  <cluster_rmsd>  (99) 
1.05

>  <cluster>  (99) 
8

$$$$

     RDKit          3D

 47 49  0  0  0  0  0  0  0  0999 V2000
  141.3700   72.5740  221.9370 O   0  0  0  0  0  0  0  0  0  0  0  0
  140.3490   72.5400  222.6720 C   0  0  0  0  0  0  0  0  0  0  0  0
  139.2820   73.4620  222.3410 N   0  0  0  0  0  0  0  0  0  0  0  0
  139.3290   74.3660  221.2700 C   0  0  0  0  0  0  0  0  0  0  0  0
  138.9820   75.7710  221.3990 C   0  0  0  0  0  0  0  0  0  0  0  0
  137.6860   75.9620  221.4150 O   0  0  0  0  0  0  0  0  0  0  0  0
  139.7600   76.9280  221.5070 N   0  0  0  0  0  0  0  0  0  0  0  0
  139.6280   77.7250  222.7140 C   0  0  0  0  0  0  0  0  0  0  0  0
  141.0050   78.2440  223.1110 C   0  0  0  0  0  0  0  0  0  0  0  0
  141.5480   79.0290  221.9470 C   0  0  0  0  0  0  0  0  0  0  0  0
  141.8860   77.9950  220.8770 C   0  0  0  0  0  0  0  0  0  0  0  0
  140.6070   77.3450  220.4190 C   0  0  1  0  0  0  0  0  0  0  0  0
  140.8140   76.4080  219.2980 C   0  0  0  0  0  0  0  0  0  0  0  0
  141.9770   75.4330  219.6160 C   0  0  0  0  0  0  0  0  0  0  0  0
  142.1460   75.2450  220.9460 F   0  0  0  0  0  0  0  0  0  0  0  0
  143.1130   76.1420  219.1810 F   0  0  0  0  0  0  0  0  0  0  0  0
  141.9460   74.3150  218.8410 F   0  0  0  0  0  0  0  0  0  0  0  0
  140.2260   71.6230  223.8080 C   0  0  0  0  0  0  0  0  0  0  0  0
  139.5500   70.4430  223.5910 C   0  0  0  0  0  0  0  0  0  0  0  0
  139.3950   69.5290  224.6170 C   0  0  0  0  0  0  0  0  0  0  0  0
  139.9240   69.8140  225.8560 C   0  0  0  0  0  0  0  0  0  0  0  0
  139.7600   68.8950  226.8600 C   0  0  0  0  0  0  0  0  0  0  0  0
  140.2740   69.1420  228.1100 C   0  0  0  0  0  0  0  0  0  0  0  0
  140.1030   68.2300  229.0840 F   0  0  0  0  0  0  0  0  0  0  0  0
  140.9550   70.3400  228.3160 C   0  0  0  0  0  0  0  0  0  0  0  0
  141.1110   71.2610  227.2800 C   0  0  0  0  0  0  0  0  0  0  0  0
  140.5940   71.0060  226.0340 C   0  0  0  0  0  0  0  0  0  0  0  0
  140.7310   71.8780  225.0170 N   0  0  0  0  0  0  0  0  0  0  0  0
  138.4500   73.3810  223.0030 H   0  0  0  0  0  0  0  0  0  0  0  0
  140.3650   74.3434  220.9009 H   0  0  0  0  0  0  0  0  0  0  0  0
  138.5090   73.9964  220.6368 H   0  0  0  0  0  0  0  0  0  0  0  0
  138.9532   78.5730  222.5255 H   0  0  0  0  0  0  0  0  0  0  0  0
  139.2116   77.1098  223.5252 H   0  0  0  0  0  0  0  0  0  0  0  0
  140.9207   78.8934  223.9948 H   0  0  0  0  0  0  0  0  0  0  0  0
  141.6758   77.4086  223.3604 H   0  0  0  0  0  0  0  0  0  0  0  0
  140.7915   79.7349  221.5735 H   0  0  0  0  0  0  0  0  0  0  0  0
  142.4290   79.6229  222.2320 H   0  0  0  0  0  0  0  0  0  0  0  0
  142.3766   78.4891  220.0255 H   0  0  0  0  0  0  0  0  0  0  0  0
  142.5679   77.2362  221.2885 H   0  0  0  0  0  0  0  0  0  0  0  0
  139.9785   78.1164  219.9499 H   0  0  0  0  0  0  0  0  0  0  0  0
  139.8921   75.8310  219.1330 H   0  0  0  0  0  0  0  0  0  0  0  0
  141.0670   76.9826  218.3948 H   0  0  0  0  0  0  0  0  0  0  0  0
  139.1315   70.2266  222.5970 H   0  0  0  0  0  0  0  0  0  0  0  0
  138.8557   68.5857  224.4455 H   0  0  0  0  0  0  0  0  0  0  0  0
  139.2163   67.9589  226.6646 H   0  0  0  0  0  0  0  0  0  0  0  0
  141.3749   70.5623  229.3081 H   0  0  0  0  0  0  0  0  0  0  0  0
  141.6533   72.2004  227.4631 H   0  0  0  0  0  0  0  0  0  0  0  0
  1  2  2  0
  2  3  1  0
  3  4  1  0
  4  5  1  0
  5  6  2  0
  5  7  1  0
  7  8  1  0
  8  9  1  0
  9 10  1  0
 10 11  1  0
 11 12  1  0
 12 13  1  0
 13 14  1  0
 14 15  1  0
 14 16  1  0
 14 17  1  0
  2 18  1  0
 18 19  2  0
 19 20  1  0
 20 21  2  0
 21 22  1  0
 22 23  2  0
 23 24  1  0
 23 25  1  0
 25 26  2  0
 26 27  1  0
 27 28  2  0
 12  7  1  0
 28 18  1  0
 27 21  1  0
  3 29  1  0
  4 30  1  0
  4 31  1  0
  8 32  1  0
  8 33  1  0
  9 34  1  0
  9 35  1  0
 10 36  1  0
 10 37  1  0
 11 38  1  0
 11 39  1  0
 12 40  1  6
 13 41  1  0
 13 42  1  0
 19 43  1  0
 20 44  1  0
 22 45  1  0
 25 46  1  0
 26 47  1  0
M  END
>  <smiles>  (100) 
O=C(NCC(=O)N1CCCCC1CC(F)(F)F)c1ccc2cc(F)ccc2n1

>  <score_type>  (100) 
oracle

>  <origin>  (100) 
autodockgpu

>  <m_score__min__energy>  (100) 
-7.0999999999999996

>  <m_primary>  (100) 
energy

>  <rmsd>  (100) 
2.832777370038388

>  <m_score__min__rmsd>  (100) 
2.832777370038388

>  <meeko>  (100) 
{"free_energy": -6.59, "intermolecular_energy": -8.38, "internal_energy": -0.95, "cluster_size": 14, "cluster_id": 2, "rank_in_cluster": 12}

>  <energy>  (100) 
-6.31

>  <cluster_rmsd>  (100) 
0.0

>  <cluster>  (100) 
9

$$$$
