
     RDKit          3D

 53 57  0  0  0  0  0  0  0  0999 V2000
  137.1320   72.3870  220.9130 O   0  0  0  0  0  0  0  0  0  0  0  0
  138.2630   72.6720  221.3820 C   0  0  0  0  0  0  0  0  0  0  0  0
  139.0710   73.6980  220.6820 C   0  0  0  0  0  0  0  0  0  0  0  0
  140.3610   73.8770  221.3870 C   0  0  0  0  0  0  0  0  0  0  0  0
  141.3100   74.8650  220.8270 C   0  0  0  0  0  0  0  0  0  0  0  0
  142.5110   74.4590  220.2630 C   0  0  0  0  0  0  0  0  0  0  0  0
  143.3950   75.3890  219.7410 C   0  0  0  0  0  0  0  0  0  0  0  0
  143.0850   76.7430  219.7790 C   0  0  0  0  0  0  0  0  0  0  0  0
  141.8950   77.1740  220.3340 C   0  0  0  0  0  0  0  0  0  0  0  0
  141.5080   78.5730  220.4050 C   0  0  0  0  0  0  0  0  0  0  0  0
  140.8620   79.0570  219.4440 O   0  0  0  0  0  0  0  0  0  0  0  0
  141.8110   79.4280  221.4930 N   0  0  0  0  0  0  0  0  0  0  0  0
  141.3700   80.8240  221.4600 C   0  0  0  0  0  0  0  0  0  0  0  0
  140.5270   80.9670  222.7390 C   0  0  0  0  0  0  0  0  0  0  0  0
  141.2720   80.5880  223.8450 O   0  0  0  0  0  0  0  0  0  0  0  0
  141.5410   79.2100  223.8220 C   0  0  0  0  0  0  0  0  0  0  0  0
  142.5450   79.0240  222.6760 C   0  0  0  0  0  0  0  0  0  0  0  0
  141.0420   76.2180  220.8440 C   0  0  0  0  0  0  0  0  0  0  0  0
  140.7110   73.2350  222.4480 N   0  0  0  0  0  0  0  0  0  0  0  0
  139.9360   72.2650  223.1080 C   0  0  0  0  0  0  0  0  0  0  0  0
  140.3980   71.6260  224.2440 C   0  0  0  0  0  0  0  0  0  0  0  0
  139.6030   70.6690  224.8680 C   0  0  0  0  0  0  0  0  0  0  0  0
  140.1310   70.0180  226.0610 C   0  0  0  0  0  0  0  0  0  0  0  0
  140.2080   68.6270  226.0540 C   0  0  0  0  0  0  0  0  0  0  0  0
  140.7010   67.9590  227.1550 C   0  0  0  0  0  0  0  0  0  0  0  0
  141.1060   68.6960  228.2390 C   0  0  0  0  0  0  0  0  0  0  0  0
  141.0360   70.0540  228.2590 C   0  0  0  0  0  0  0  0  0  0  0  0
  140.5440   70.7600  227.1670 C   0  0  0  0  0  0  0  0  0  0  0  0
  138.3550   70.3680  224.3460 C   0  0  0  0  0  0  0  0  0  0  0  0
  137.9120   71.0160  223.2120 C   0  0  0  0  0  0  0  0  0  0  0  0
  138.6930   71.9690  222.5790 C   0  0  0  0  0  0  0  0  0  0  0  0
  139.2602   73.3730  219.6483 H   0  0  0  0  0  0  0  0  0  0  0  0
  138.5233   74.6519  220.6724 H   0  0  0  0  0  0  0  0  0  0  0  0
  142.7634   73.3889  220.2301 H   0  0  0  0  0  0  0  0  0  0  0  0
  144.3438   75.0551  219.2957 H   0  0  0  0  0  0  0  0  0  0  0  0
  143.7917   77.4769  219.3644 H   0  0  0  0  0  0  0  0  0  0  0  0
  142.2309   81.5085  221.4784 H   0  0  0  0  0  0  0  0  0  0  0  0
  140.8084   81.0735  220.5477 H   0  0  0  0  0  0  0  0  0  0  0  0
  140.2138   82.0153  222.8531 H   0  0  0  0  0  0  0  0  0  0  0  0
  139.6419   80.3185  222.6614 H   0  0  0  0  0  0  0  0  0  0  0  0
  141.9791   78.8850  224.7772 H   0  0  0  0  0  0  0  0  0  0  0  0
  140.6294   78.6120  223.6757 H   0  0  0  0  0  0  0  0  0  0  0  0
  143.4288   79.6620  222.8239 H   0  0  0  0  0  0  0  0  0  0  0  0
  142.9208   77.9925  222.6076 H   0  0  0  0  0  0  0  0  0  0  0  0
  140.0940   76.5535  221.2897 H   0  0  0  0  0  0  0  0  0  0  0  0
  141.3890   71.8728  224.6525 H   0  0  0  0  0  0  0  0  0  0  0  0
  139.8757   68.0619  225.1707 H   0  0  0  0  0  0  0  0  0  0  0  0
  140.7680   66.8611  227.1639 H   0  0  0  0  0  0  0  0  0  0  0  0
  141.5005   68.1709  229.1214 H   0  0  0  0  0  0  0  0  0  0  0  0
  141.3733   70.6014  229.1515 H   0  0  0  0  0  0  0  0  0  0  0  0
  140.4831   71.8583  227.1752 H   0  0  0  0  0  0  0  0  0  0  0  0
  137.7197   69.6146  224.8346 H   0  0  0  0  0  0  0  0  0  0  0  0
  136.9206   70.7717  222.8028 H   0  0  0  0  0  0  0  0  0  0  0  0
  1  2  2  0
  2  3  1  0
  3  4  1  0
  4  5  1  0
  5  6  2  0
  6  7  1  0
  7  8  2  0
  8  9  1  0
  9 10  1  0
 10 11  2  0
 10 12  1  0
 12 13  1  0
 13 14  1  0
 14 15  1  0
 15 16  1  0
 16 17  1  0
  9 18  2  0
  4 19  2  0
 19 20  1  0
 20 21  2  0
 21 22  1  0
 22 23  1  0
 23 24  2  0
 24 25  1  0
 25 26  2  0
 26 27  1  0
 27 28  2  0
 22 29  2  0
 29 30  1  0
 30 31  2  0
 31  2  1  0
 18  5  1  0
 31 20  1  0
 17 12  1  0
 28 23  1  0
  3 32  1  0
  3 33  1  0
  6 34  1  0
  7 35  1  0
  8 36  1  0
 13 37  1  0
 13 38  1  0
 14 39  1  0
 14 40  1  0
 16 41  1  0
 16 42  1  0
 17 43  1  0
 17 44  1  0
 18 45  1  0
 21 46  1  0
 24 47  1  0
 25 48  1  0
 26 49  1  0
 27 50  1  0
 28 51  1  0
 29 52  1  0
 30 53  1  0
M  END
>  <smiles>  (1) 
O=C1CC(c2cccc(C(=O)N3CCOCC3)c2)=Nc2cc(-c3ccccc3)ccc21

>  <score_type>  (1) 
oracle

>  <origin>  (1) 
autodockgpu

>  <m_score__min__energy>  (1) 
-9.7200000000000006

>  <m_primary>  (1) 
energy

>  <rmsd>  (1) 
7.294060587283944

>  <m_score__min__rmsd>  (1) 
7.294060587283944

>  <meeko>  (1) 
{"free_energy": -9.7, "intermolecular_energy": -10.6, "internal_energy": -1.02, "cluster_size": 50, "cluster_id": 1, "rank_in_cluster": 13}

>  <energy>  (1) 
-9.72

>  <cluster_rmsd>  (1) 
0.0

>  <cluster>  (1) 
1

$$$$

     RDKit          3D

 53 57  0  0  0  0  0  0  0  0999 V2000
  137.3910   71.6640  220.6040 O   0  0  0  0  0  0  0  0  0  0  0  0
  138.3420   72.1840  221.2400 C   0  0  0  0  0  0  0  0  0  0  0  0
  138.9600   73.4140  220.6930 C   0  0  0  0  0  0  0  0  0  0  0  0
  140.0570   73.8560  221.5840 C   0  0  0  0  0  0  0  0  0  0  0  0
  140.8000   75.0750  221.1940 C   0  0  0  0  0  0  0  0  0  0  0  0
  141.5920   75.0930  220.0560 C   0  0  0  0  0  0  0  0  0  0  0  0
  142.2860   76.2370  219.6970 C   0  0  0  0  0  0  0  0  0  0  0  0
  142.1940   77.3820  220.4800 C   0  0  0  0  0  0  0  0  0  0  0  0
  141.4110   77.3910  221.6190 C   0  0  0  0  0  0  0  0  0  0  0  0
  141.2700   78.5520  222.4810 C   0  0  0  0  0  0  0  0  0  0  0  0
  141.6180   78.4430  223.6820 O   0  0  0  0  0  0  0  0  0  0  0  0
  140.7640   79.8040  222.0520 N   0  0  0  0  0  0  0  0  0  0  0  0
  140.6660   80.9090  223.0070 C   0  0  0  0  0  0  0  0  0  0  0  0
  141.4990   82.0270  222.3540 C   0  0  0  0  0  0  0  0  0  0  0  0
  141.0310   82.2820  221.0740 O   0  0  0  0  0  0  0  0  0  0  0  0
  141.2790   81.1940  220.2220 C   0  0  0  0  0  0  0  0  0  0  0  0
  140.3230   80.0930  220.7020 C   0  0  0  0  0  0  0  0  0  0  0  0
  140.7370   76.2330  221.9430 C   0  0  0  0  0  0  0  0  0  0  0  0
  140.4060   73.2540  222.6690 N   0  0  0  0  0  0  0  0  0  0  0  0
  139.8120   72.0880  223.1830 C   0  0  0  0  0  0  0  0  0  0  0  0
  140.2580   71.5120  224.3590 C   0  0  0  0  0  0  0  0  0  0  0  0
  139.6460   70.3560  224.8350 C   0  0  0  0  0  0  0  0  0  0  0  0
  140.1510   69.7810  226.0760 C   0  0  0  0  0  0  0  0  0  0  0  0
  140.2090   68.3920  226.1640 C   0  0  0  0  0  0  0  0  0  0  0  0
  140.6790   67.7940  227.3140 C   0  0  0  0  0  0  0  0  0  0  0  0
  141.0810   68.5970  228.3520 C   0  0  0  0  0  0  0  0  0  0  0  0
  141.0280   69.9550  228.2790 C   0  0  0  0  0  0  0  0  0  0  0  0
  140.5590   70.5910  227.1350 C   0  0  0  0  0  0  0  0  0  0  0  0
  138.5940   69.7950  224.1280 C   0  0  0  0  0  0  0  0  0  0  0  0
  138.1650   70.3850  222.9570 C   0  0  0  0  0  0  0  0  0  0  0  0
  138.7650   71.5340  222.4700 C   0  0  0  0  0  0  0  0  0  0  0  0
  139.3631   73.2068  219.6907 H   0  0  0  0  0  0  0  0  0  0  0  0
  138.2004   74.2068  220.6271 H   0  0  0  0  0  0  0  0  0  0  0  0
  141.6700   74.1903  219.4323 H   0  0  0  0  0  0  0  0  0  0  0  0
  142.9105   76.2393  218.7915 H   0  0  0  0  0  0  0  0  0  0  0  0
  142.7482   78.2872  220.1911 H   0  0  0  0  0  0  0  0  0  0  0  0
  139.6201   81.2237  223.1375 H   0  0  0  0  0  0  0  0  0  0  0  0
  141.0253   80.6392  224.0111 H   0  0  0  0  0  0  0  0  0  0  0  0
  141.4193   82.9417  222.9598 H   0  0  0  0  0  0  0  0  0  0  0  0
  142.5500   81.7074  222.2969 H   0  0  0  0  0  0  0  0  0  0  0  0
  141.0657   81.4638  219.1771 H   0  0  0  0  0  0  0  0  0  0  0  0
  142.3307   80.8732  220.2541 H   0  0  0  0  0  0  0  0  0  0  0  0
  139.2829   80.4509  220.6994 H   0  0  0  0  0  0  0  0  0  0  0  0
  140.3425   79.2052  220.0529 H   0  0  0  0  0  0  0  0  0  0  0  0
  140.1138   76.2315  222.8494 H   0  0  0  0  0  0  0  0  0  0  0  0
  141.0919   71.9652  224.9150 H   0  0  0  0  0  0  0  0  0  0  0  0
  139.8800   67.7726  225.3165 H   0  0  0  0  0  0  0  0  0  0  0  0
  140.7306   66.6984  227.3977 H   0  0  0  0  0  0  0  0  0  0  0  0
  141.4582   68.1278  229.2726 H   0  0  0  0  0  0  0  0  0  0  0  0
  141.3608   70.5577  229.1369 H   0  0  0  0  0  0  0  0  0  0  0  0
  140.5118   71.6880  227.0682 H   0  0  0  0  0  0  0  0  0  0  0  0
  138.1032   68.8832  224.4991 H   0  0  0  0  0  0  0  0  0  0  0  0
  137.3306   69.9342  222.3997 H   0  0  0  0  0  0  0  0  0  0  0  0
  1  2  2  0
  2  3  1  0
  3  4  1  0
  4  5  1  0
  5  6  2  0
  6  7  1  0
  7  8  2  0
  8  9  1  0
  9 10  1  0
 10 11  2  0
 10 12  1  0
 12 13  1  0
 13 14  1  0
 14 15  1  0
 15 16  1  0
 16 17  1  0
  9 18  2  0
  4 19  2  0
 19 20  1  0
 20 21  2  0
 21 22  1  0
 22 23  1  0
 23 24  2  0
 24 25  1  0
 25 26  2  0
 26 27  1  0
 27 28  2  0
 22 29  2  0
 29 30  1  0
 30 31  2  0
 31  2  1  0
 18  5  1  0
 31 20  1  0
 17 12  1  0
 28 23  1  0
  3 32  1  0
  3 33  1  0
  6 34  1  0
  7 35  1  0
  8 36  1  0
 13 37  1  0
 13 38  1  0
 14 39  1  0
 14 40  1  0
 16 41  1  0
 16 42  1  0
 17 43  1  0
 17 44  1  0
 18 45  1  0
 21 46  1  0
 24 47  1  0
 25 48  1  0
 26 49  1  0
 27 50  1  0
 28 51  1  0
 29 52  1  0
 30 53  1  0
M  END
>  <smiles>  (2) 
O=C1CC(c2cccc(C(=O)N3CCOCC3)c2)=Nc2cc(-c3ccccc3)ccc21

>  <score_type>  (2) 
oracle

>  <origin>  (2) 
autodockgpu

>  <m_score__min__energy>  (2) 
-9.7200000000000006

>  <m_primary>  (2) 
energy

>  <rmsd>  (2) 
7.229872606726163

>  <m_score__min__rmsd>  (2) 
7.229872606726163

>  <meeko>  (2) 
{"free_energy": -9.44, "intermolecular_energy": -10.34, "internal_energy": -0.97, "cluster_size": 50, "cluster_id": 1, "rank_in_cluster": 49}

>  <energy>  (2) 
-9.71

>  <cluster_rmsd>  (2) 
0.03

>  <cluster>  (2) 
1

$$$$

     RDKit          3D

 53 57  0  0  0  0  0  0  0  0999 V2000
  137.1950   72.3090  220.7690 O   0  0  0  0  0  0  0  0  0  0  0  0
  138.3060   72.6230  221.2660 C   0  0  0  0  0  0  0  0  0  0  0  0
  139.1110   73.6610  220.5800 C   0  0  0  0  0  0  0  0  0  0  0  0
  140.3760   73.8750  221.3190 C   0  0  0  0  0  0  0  0  0  0  0  0
  141.3190   74.8790  220.7760 C   0  0  0  0  0  0  0  0  0  0  0  0
  142.5320   74.4920  220.2250 C   0  0  0  0  0  0  0  0  0  0  0  0
  143.4100   75.4380  219.7200 C   0  0  0  0  0  0  0  0  0  0  0  0
  143.0810   76.7870  219.7620 C   0  0  0  0  0  0  0  0  0  0  0  0
  141.8780   77.1990  220.3050 C   0  0  0  0  0  0  0  0  0  0  0  0
  141.4710   78.5910  220.3790 C   0  0  0  0  0  0  0  0  0  0  0  0
  140.7990   79.0630  219.4290 O   0  0  0  0  0  0  0  0  0  0  0  0
  141.7830   79.4550  221.4570 N   0  0  0  0  0  0  0  0  0  0  0  0
  141.3200   80.8430  221.4300 C   0  0  0  0  0  0  0  0  0  0  0  0
  140.5000   80.9780  222.7250 C   0  0  0  0  0  0  0  0  0  0  0  0
  141.2730   80.6140  223.8170 O   0  0  0  0  0  0  0  0  0  0  0  0
  141.5620   79.2400  223.7930 C   0  0  0  0  0  0  0  0  0  0  0  0
  142.5460   79.0660  222.6270 C   0  0  0  0  0  0  0  0  0  0  0  0
  141.0320   76.2280  220.7980 C   0  0  0  0  0  0  0  0  0  0  0  0
  140.7100   73.2500  222.3950 N   0  0  0  0  0  0  0  0  0  0  0  0
  139.9380   72.2680  223.0420 C   0  0  0  0  0  0  0  0  0  0  0  0
  140.3830   71.6490  224.1960 C   0  0  0  0  0  0  0  0  0  0  0  0
  139.5910   70.6800  224.8060 C   0  0  0  0  0  0  0  0  0  0  0  0
  140.1000   70.0510  226.0190 C   0  0  0  0  0  0  0  0  0  0  0  0
  140.5530   70.8900  227.0360 C   0  0  0  0  0  0  0  0  0  0  0  0
  141.0440   70.3500  228.2060 C   0  0  0  0  0  0  0  0  0  0  0  0
  141.0710   68.9850  228.3350 C   0  0  0  0  0  0  0  0  0  0  0  0
  140.6320   68.1550  227.3500 C   0  0  0  0  0  0  0  0  0  0  0  0
  140.1320   68.6650  226.1570 C   0  0  0  0  0  0  0  0  0  0  0  0
  138.3650   70.3470  224.2520 C   0  0  0  0  0  0  0  0  0  0  0  0
  137.9410   70.9750  223.1000 C   0  0  0  0  0  0  0  0  0  0  0  0
  138.7180   71.9400  222.4810 C   0  0  0  0  0  0  0  0  0  0  0  0
  139.3366   73.3317  219.5550 H   0  0  0  0  0  0  0  0  0  0  0  0
  138.5428   74.6023  220.5467 H   0  0  0  0  0  0  0  0  0  0  0  0
  142.7991   73.4255  220.1886 H   0  0  0  0  0  0  0  0  0  0  0  0
  144.3691   75.1201  219.2852 H   0  0  0  0  0  0  0  0  0  0  0  0
  143.7827   77.5329  219.3603 H   0  0  0  0  0  0  0  0  0  0  0  0
  142.1706   81.5405  221.4296 H   0  0  0  0  0  0  0  0  0  0  0  0
  140.7362   81.0807  220.5285 H   0  0  0  0  0  0  0  0  0  0  0  0
  140.1733   82.0218  222.8419 H   0  0  0  0  0  0  0  0  0  0  0  0
  139.6231   80.3163  222.6673 H   0  0  0  0  0  0  0  0  0  0  0  0
  142.0240   78.9247  224.7402 H   0  0  0  0  0  0  0  0  0  0  0  0
  140.6569   78.6276  223.6672 H   0  0  0  0  0  0  0  0  0  0  0  0
  143.4226   79.7179  222.7556 H   0  0  0  0  0  0  0  0  0  0  0  0
  142.9358   78.0400  222.5540 H   0  0  0  0  0  0  0  0  0  0  0  0
  140.0738   76.5474  221.2336 H   0  0  0  0  0  0  0  0  0  0  0  0
  141.3569   71.9207  224.6293 H   0  0  0  0  0  0  0  0  0  0  0  0
  140.5188   71.9817  226.9053 H   0  0  0  0  0  0  0  0  0  0  0  0
  141.4057   70.9991  229.0171 H   0  0  0  0  0  0  0  0  0  0  0  0
  141.4604   68.5464  229.2656 H   0  0  0  0  0  0  0  0  0  0  0  0
  140.6733   67.0660  227.4996 H   0  0  0  0  0  0  0  0  0  0  0  0
  139.7763   68.0014  225.3551 H   0  0  0  0  0  0  0  0  0  0  0  0
  137.7324   69.5843  224.7297 H   0  0  0  0  0  0  0  0  0  0  0  0
  136.9677   70.7046  222.6646 H   0  0  0  0  0  0  0  0  0  0  0  0
  1  2  2  0
  2  3  1  0
  3  4  1  0
  4  5  1  0
  5  6  2  0
  6  7  1  0
  7  8  2  0
  8  9  1  0
  9 10  1  0
 10 11  2  0
 10 12  1  0
 12 13  1  0
 13 14  1  0
 14 15  1  0
 15 16  1  0
 16 17  1  0
  9 18  2  0
  4 19  2  0
 19 20  1  0
 20 21  2  0
 21 22  1  0
 22 23  1  0
 23 24  2  0
 24 25  1  0
 25 26  2  0
 26 27  1  0
 27 28  2  0
 22 29  2  0
 29 30  1  0
 30 31  2  0
 31  2  1  0
 18  5  1  0
 31 20  1  0
 17 12  1  0
 28 23  1  0
  3 32  1  0
  3 33  1  0
  6 34  1  0
  7 35  1  0
  8 36  1  0
 13 37  1  0
 13 38  1  0
 14 39  1  0
 14 40  1  0
 16 41  1  0
 16 42  1  0
 17 43  1  0
 17 44  1  0
 18 45  1  0
 21 46  1  0
 24 47  1  0
 25 48  1  0
 26 49  1  0
 27 50  1  0
 28 51  1  0
 29 52  1  0
 30 53  1  0
M  END
>  <smiles>  (3) 
O=C1CC(c2cccc(C(=O)N3CCOCC3)c2)=Nc2cc(-c3ccccc3)ccc21

>  <score_type>  (3) 
oracle

>  <origin>  (3) 
autodockgpu

>  <m_score__min__energy>  (3) 
-9.7200000000000006

>  <m_primary>  (3) 
energy

>  <rmsd>  (3) 
7.318265578734518

>  <m_score__min__rmsd>  (3) 
7.318265578734518

>  <meeko>  (3) 
{"free_energy": -9.7, "intermolecular_energy": -10.59, "internal_energy": -1.02, "cluster_size": 50, "cluster_id": 1, "rank_in_cluster": 18}

>  <energy>  (3) 
-9.71

>  <cluster_rmsd>  (3) 
0.07

>  <cluster>  (3) 
1

$$$$

     RDKit          3D

 53 57  0  0  0  0  0  0  0  0999 V2000
  137.0810   72.4950  220.9340 O   0  0  0  0  0  0  0  0  0  0  0  0
  138.2240   72.7450  221.3920 C   0  0  0  0  0  0  0  0  0  0  0  0
  139.0450   73.7670  220.7020 C   0  0  0  0  0  0  0  0  0  0  0  0
  140.3480   73.9040  221.3910 C   0  0  0  0  0  0  0  0  0  0  0  0
  141.3110   74.8830  220.8380 C   0  0  0  0  0  0  0  0  0  0  0  0
  142.5200   74.4660  220.3010 C   0  0  0  0  0  0  0  0  0  0  0  0
  143.4170   75.3880  219.7850 C   0  0  0  0  0  0  0  0  0  0  0  0
  143.1110   76.7430  219.8020 C   0  0  0  0  0  0  0  0  0  0  0  0
  141.9120   77.1840  220.3300 C   0  0  0  0  0  0  0  0  0  0  0  0
  141.5290   78.5850  220.3780 C   0  0  0  0  0  0  0  0  0  0  0  0
  140.9010   79.0600  219.4000 O   0  0  0  0  0  0  0  0  0  0  0  0
  141.8170   79.4520  221.4610 N   0  0  0  0  0  0  0  0  0  0  0  0
  141.3810   80.8480  221.4050 C   0  0  0  0  0  0  0  0  0  0  0  0
  140.5160   81.0090  222.6680 C   0  0  0  0  0  0  0  0  0  0  0  0
  141.2420   80.6410  223.7900 O   0  0  0  0  0  0  0  0  0  0  0  0
  141.5060   79.2620  223.7880 C   0  0  0  0  0  0  0  0  0  0  0  0
  142.5290   79.0590  222.6610 C   0  0  0  0  0  0  0  0  0  0  0  0
  141.0470   76.2370  220.8350 C   0  0  0  0  0  0  0  0  0  0  0  0
  140.6980   73.2330  222.4340 N   0  0  0  0  0  0  0  0  0  0  0  0
  139.9110   72.2660  223.0850 C   0  0  0  0  0  0  0  0  0  0  0  0
  140.3750   71.5940  224.2010 C   0  0  0  0  0  0  0  0  0  0  0  0
  139.5680   70.6420  224.8170 C   0  0  0  0  0  0  0  0  0  0  0  0
  140.0990   69.9560  225.9890 C   0  0  0  0  0  0  0  0  0  0  0  0
  140.1390   68.5630  225.9550 C   0  0  0  0  0  0  0  0  0  0  0  0
  140.6320   67.8630  227.0350 C   0  0  0  0  0  0  0  0  0  0  0  0
  141.0740   68.5680  228.1260 C   0  0  0  0  0  0  0  0  0  0  0  0
  141.0400   69.9270  228.1710 C   0  0  0  0  0  0  0  0  0  0  0  0
  140.5490   70.6660  227.1010 C   0  0  0  0  0  0  0  0  0  0  0  0
  138.3060   70.3790  224.3070 C   0  0  0  0  0  0  0  0  0  0  0  0
  137.8630   71.0600  223.1930 C   0  0  0  0  0  0  0  0  0  0  0  0
  138.6550   72.0090  222.5680 C   0  0  0  0  0  0  0  0  0  0  0  0
  139.2126   73.4593  219.6593 H   0  0  0  0  0  0  0  0  0  0  0  0
  138.5183   74.7325  220.7204 H   0  0  0  0  0  0  0  0  0  0  0  0
  142.7689   73.3947  220.2845 H   0  0  0  0  0  0  0  0  0  0  0  0
  144.3729   75.0463  219.3613 H   0  0  0  0  0  0  0  0  0  0  0  0
  143.8278   77.4700  219.3925 H   0  0  0  0  0  0  0  0  0  0  0  0
  142.2437   81.5300  221.4304 H   0  0  0  0  0  0  0  0  0  0  0  0
  140.8356   81.0883  220.4804 H   0  0  0  0  0  0  0  0  0  0  0  0
  140.2040   82.0594  222.7644 H   0  0  0  0  0  0  0  0  0  0  0  0
  139.6298   80.3629  222.5835 H   0  0  0  0  0  0  0  0  0  0  0  0
  141.9266   78.9468  224.7543 H   0  0  0  0  0  0  0  0  0  0  0  0
  140.5948   78.6655  223.6335 H   0  0  0  0  0  0  0  0  0  0  0  0
  143.4126   79.6954  222.8166 H   0  0  0  0  0  0  0  0  0  0  0  0
  142.9018   78.0253  222.6108 H   0  0  0  0  0  0  0  0  0  0  0  0
  140.0921   76.5804  221.2597 H   0  0  0  0  0  0  0  0  0  0  0  0
  141.3769   71.8108  224.5999 H   0  0  0  0  0  0  0  0  0  0  0  0
  139.7776   68.0232  225.0673 H   0  0  0  0  0  0  0  0  0  0  0  0
  140.6703   66.7637  227.0226 H   0  0  0  0  0  0  0  0  0  0  0  0
  141.4685   68.0164  228.9921 H   0  0  0  0  0  0  0  0  0  0  0  0
  141.4064   70.4489  229.0673 H   0  0  0  0  0  0  0  0  0  0  0  0
  140.5169   71.7651  227.1305 H   0  0  0  0  0  0  0  0  0  0  0  0
  137.6606   69.6300  224.7892 H   0  0  0  0  0  0  0  0  0  0  0  0
  136.8611   70.8455  222.7928 H   0  0  0  0  0  0  0  0  0  0  0  0
  1  2  2  0
  2  3  1  0
  3  4  1  0
  4  5  1  0
  5  6  2  0
  6  7  1  0
  7  8  2  0
  8  9  1  0
  9 10  1  0
 10 11  2  0
 10 12  1  0
 12 13  1  0
 13 14  1  0
 14 15  1  0
 15 16  1  0
 16 17  1  0
  9 18  2  0
  4 19  2  0
 19 20  1  0
 20 21  2  0
 21 22  1  0
 22 23  1  0
 23 24  2  0
 24 25  1  0
 25 26  2  0
 26 27  1  0
 27 28  2  0
 22 29  2  0
 29 30  1  0
 30 31  2  0
 31  2  1  0
 18  5  1  0
 31 20  1  0
 17 12  1  0
 28 23  1  0
  3 32  1  0
  3 33  1  0
  6 34  1  0
  7 35  1  0
  8 36  1  0
 13 37  1  0
 13 38  1  0
 14 39  1  0
 14 40  1  0
 16 41  1  0
 16 42  1  0
 17 43  1  0
 17 44  1  0
 18 45  1  0
 21 46  1  0
 24 47  1  0
 25 48  1  0
 26 49  1  0
 27 50  1  0
 28 51  1  0
 29 52  1  0
 30 53  1  0
M  END
>  <smiles>  (4) 
O=C1CC(c2cccc(C(=O)N3CCOCC3)c2)=Nc2cc(-c3ccccc3)ccc21

>  <score_type>  (4) 
oracle

>  <origin>  (4) 
autodockgpu

>  <m_score__min__energy>  (4) 
-9.7200000000000006

>  <m_primary>  (4) 
energy

>  <rmsd>  (4) 
7.320490998380453

>  <m_score__min__rmsd>  (4) 
7.320490998380453

>  <meeko>  (4) 
{"free_energy": -9.69, "intermolecular_energy": -10.58, "internal_energy": -1.02, "cluster_size": 50, "cluster_id": 1, "rank_in_cluster": 34}

>  <energy>  (4) 
-9.71

>  <cluster_rmsd>  (4) 
0.05

>  <cluster>  (4) 
1

$$$$

     RDKit          3D

 53 57  0  0  0  0  0  0  0  0999 V2000
  137.1090   72.4440  220.8570 O   0  0  0  0  0  0  0  0  0  0  0  0
  138.2420   72.7150  221.3260 C   0  0  0  0  0  0  0  0  0  0  0  0
  139.0580   73.7420  220.6370 C   0  0  0  0  0  0  0  0  0  0  0  0
  140.3500   73.9030  221.3420 C   0  0  0  0  0  0  0  0  0  0  0  0
  141.3070   74.8900  220.7910 C   0  0  0  0  0  0  0  0  0  0  0  0
  142.5130   74.4820  220.2410 C   0  0  0  0  0  0  0  0  0  0  0  0
  143.4040   75.4110  219.7280 C   0  0  0  0  0  0  0  0  0  0  0  0
  143.0940   76.7650  219.7620 C   0  0  0  0  0  0  0  0  0  0  0  0
  141.8990   77.1980  220.3030 C   0  0  0  0  0  0  0  0  0  0  0  0
  141.5120   78.5970  220.3690 C   0  0  0  0  0  0  0  0  0  0  0  0
  140.8550   79.0750  219.4120 O   0  0  0  0  0  0  0  0  0  0  0  0
  141.8290   79.4610  221.4460 N   0  0  0  0  0  0  0  0  0  0  0  0
  141.3880   80.8560  221.4090 C   0  0  0  0  0  0  0  0  0  0  0  0
  140.5600   81.0080  222.6980 C   0  0  0  0  0  0  0  0  0  0  0  0
  141.3190   80.6370  223.7970 O   0  0  0  0  0  0  0  0  0  0  0  0
  141.5880   79.2590  223.7810 C   0  0  0  0  0  0  0  0  0  0  0  0
  142.5780   79.0640  222.6230 C   0  0  0  0  0  0  0  0  0  0  0  0
  141.0400   76.2440  220.8040 C   0  0  0  0  0  0  0  0  0  0  0  0
  140.6960   73.2470  222.3950 N   0  0  0  0  0  0  0  0  0  0  0  0
  139.9140   72.2760  223.0460 C   0  0  0  0  0  0  0  0  0  0  0  0
  140.3730   71.6210  224.1740 C   0  0  0  0  0  0  0  0  0  0  0  0
  139.5710   70.6630  224.7890 C   0  0  0  0  0  0  0  0  0  0  0  0
  140.0950   69.9960  225.9740 C   0  0  0  0  0  0  0  0  0  0  0  0
  140.5170   70.8010  227.0310 C   0  0  0  0  0  0  0  0  0  0  0  0
  141.0210   70.2230  228.1770 C   0  0  0  0  0  0  0  0  0  0  0  0
  141.0920   68.8540  228.2440 C   0  0  0  0  0  0  0  0  0  0  0  0
  140.6840   68.0580  227.2190 C   0  0  0  0  0  0  0  0  0  0  0  0
  140.1720   68.6060  226.0480 C   0  0  0  0  0  0  0  0  0  0  0  0
  138.3190   70.3780  224.2650 C   0  0  0  0  0  0  0  0  0  0  0  0
  137.8810   71.0420  223.1390 C   0  0  0  0  0  0  0  0  0  0  0  0
  138.6680   71.9960  222.5160 C   0  0  0  0  0  0  0  0  0  0  0  0
  139.2435   73.4270  219.5995 H   0  0  0  0  0  0  0  0  0  0  0  0
  138.5181   74.7004  220.6392 H   0  0  0  0  0  0  0  0  0  0  0  0
  142.7644   73.4115  220.2117 H   0  0  0  0  0  0  0  0  0  0  0  0
  144.3575   75.0763  219.2935 H   0  0  0  0  0  0  0  0  0  0  0  0
  143.8059   77.4981  219.3548 H   0  0  0  0  0  0  0  0  0  0  0  0
  142.2492   81.5404  221.4123 H   0  0  0  0  0  0  0  0  0  0  0  0
  140.8154   81.0994  220.5019 H   0  0  0  0  0  0  0  0  0  0  0  0
  140.2478   82.0570  222.8086 H   0  0  0  0  0  0  0  0  0  0  0  0
  139.6741   80.3590  222.6360 H   0  0  0  0  0  0  0  0  0  0  0  0
  142.0383   78.9413  224.7330 H   0  0  0  0  0  0  0  0  0  0  0  0
  140.6747   78.6599  223.6508 H   0  0  0  0  0  0  0  0  0  0  0  0
  143.4642   79.7020  222.7554 H   0  0  0  0  0  0  0  0  0  0  0  0
  142.9520   78.0317  222.5569 H   0  0  0  0  0  0  0  0  0  0  0  0
  140.0874   76.5808  221.2390 H   0  0  0  0  0  0  0  0  0  0  0  0
  141.3667   71.8555  224.5835 H   0  0  0  0  0  0  0  0  0  0  0  0
  140.4480   71.8959  226.9510 H   0  0  0  0  0  0  0  0  0  0  0  0
  141.3587   70.8453  229.0188 H   0  0  0  0  0  0  0  0  0  0  0  0
  141.4915   68.3855  229.1555 H   0  0  0  0  0  0  0  0  0  0  0  0
  140.7602   66.9651  227.3179 H   0  0  0  0  0  0  0  0  0  0  0  0
  139.8413   67.9690  225.2144 H   0  0  0  0  0  0  0  0  0  0  0  0
  137.6777   69.6248  224.7461 H   0  0  0  0  0  0  0  0  0  0  0  0
  136.8876   70.8096  222.7277 H   0  0  0  0  0  0  0  0  0  0  0  0
  1  2  2  0
  2  3  1  0
  3  4  1  0
  4  5  1  0
  5  6  2  0
  6  7  1  0
  7  8  2  0
  8  9  1  0
  9 10  1  0
 10 11  2  0
 10 12  1  0
 12 13  1  0
 13 14  1  0
 14 15  1  0
 15 16  1  0
 16 17  1  0
  9 18  2  0
  4 19  2  0
 19 20  1  0
 20 21  2  0
 21 22  1  0
 22 23  1  0
 23 24  2  0
 24 25  1  0
 25 26  2  0
 26 27  1  0
 27 28  2  0
 22 29  2  0
 29 30  1  0
 30 31  2  0
 31  2  1  0
 18  5  1  0
 31 20  1  0
 17 12  1  0
 28 23  1  0
  3 32  1  0
  3 33  1  0
  6 34  1  0
  7 35  1  0
  8 36  1  0
 13 37  1  0
 13 38  1  0
 14 39  1  0
 14 40  1  0
 16 41  1  0
 16 42  1  0
 17 43  1  0
 17 44  1  0
 18 45  1  0
 21 46  1  0
 24 47  1  0
 25 48  1  0
 26 49  1  0
 27 50  1  0
 28 51  1  0
 29 52  1  0
 30 53  1  0
M  END
>  <smiles>  (5) 
O=C1CC(c2cccc(C(=O)N3CCOCC3)c2)=Nc2cc(-c3ccccc3)ccc21

>  <score_type>  (5) 
oracle

>  <origin>  (5) 
autodockgpu

>  <m_score__min__energy>  (5) 
-9.7200000000000006

>  <m_primary>  (5) 
energy

>  <rmsd>  (5) 
7.337698150994513

>  <m_score__min__rmsd>  (5) 
7.337698150994513

>  <meeko>  (5) 
{"free_energy": -9.69, "intermolecular_energy": -10.59, "internal_energy": -1.02, "cluster_size": 50, "cluster_id": 1, "rank_in_cluster": 30}

>  <energy>  (5) 
-9.71

>  <cluster_rmsd>  (5) 
0.04

>  <cluster>  (5) 
1

$$$$

     RDKit          3D

 53 57  0  0  0  0  0  0  0  0999 V2000
  137.1360   72.2570  220.9620 O   0  0  0  0  0  0  0  0  0  0  0  0
  138.2560   72.5610  221.4450 C   0  0  0  0  0  0  0  0  0  0  0  0
  139.0480   73.6120  220.7630 C   0  0  0  0  0  0  0  0  0  0  0  0
  140.3270   73.8120  221.4830 C   0  0  0  0  0  0  0  0  0  0  0  0
  141.2600   74.8260  220.9420 C   0  0  0  0  0  0  0  0  0  0  0  0
  142.4940   74.4570  220.4280 C   0  0  0  0  0  0  0  0  0  0  0  0
  143.3620   75.4120  219.9250 C   0  0  0  0  0  0  0  0  0  0  0  0
  143.0020   76.7540  219.9310 C   0  0  0  0  0  0  0  0  0  0  0  0
  141.7780   77.1490  220.4360 C   0  0  0  0  0  0  0  0  0  0  0  0
  141.3380   78.5330  220.4720 C   0  0  0  0  0  0  0  0  0  0  0  0
  140.5780   78.9360  219.5580 O   0  0  0  0  0  0  0  0  0  0  0  0
  141.7110   79.4610  221.4760 N   0  0  0  0  0  0  0  0  0  0  0  0
  141.2070   80.8340  221.4150 C   0  0  0  0  0  0  0  0  0  0  0  0
  140.4910   81.0170  222.7640 C   0  0  0  0  0  0  0  0  0  0  0  0
  141.3590   80.7310  223.8060 O   0  0  0  0  0  0  0  0  0  0  0  0
  141.6860   79.3660  223.8290 C   0  0  0  0  0  0  0  0  0  0  0  0
  142.5770   79.1530  222.5970 C   0  0  0  0  0  0  0  0  0  0  0  0
  140.9420   76.1690  220.9290 C   0  0  0  0  0  0  0  0  0  0  0  0
  140.6810   73.1670  222.5410 N   0  0  0  0  0  0  0  0  0  0  0  0
  139.9200   72.1730  223.1830 C   0  0  0  0  0  0  0  0  0  0  0  0
  140.3860   71.5330  224.3170 C   0  0  0  0  0  0  0  0  0  0  0  0
  139.6060   70.5520  224.9240 C   0  0  0  0  0  0  0  0  0  0  0  0
  140.1360   69.9020  226.1160 C   0  0  0  0  0  0  0  0  0  0  0  0
  140.1920   68.5090  226.1160 C   0  0  0  0  0  0  0  0  0  0  0  0
  140.6860   67.8410  227.2170 C   0  0  0  0  0  0  0  0  0  0  0  0
  141.1140   68.5780  228.2920 C   0  0  0  0  0  0  0  0  0  0  0  0
  141.0650   69.9380  228.3040 C   0  0  0  0  0  0  0  0  0  0  0  0
  140.5720   70.6440  227.2120 C   0  0  0  0  0  0  0  0  0  0  0  0
  138.3690   70.2300  224.3860 C   0  0  0  0  0  0  0  0  0  0  0  0
  137.9240   70.8790  223.2540 C   0  0  0  0  0  0  0  0  0  0  0  0
  138.6900   71.8560  222.6390 C   0  0  0  0  0  0  0  0  0  0  0  0
  139.2545   73.3019  219.7280 H   0  0  0  0  0  0  0  0  0  0  0  0
  138.4795   74.5537  220.7572 H   0  0  0  0  0  0  0  0  0  0  0  0
  142.7861   73.3965  220.4197 H   0  0  0  0  0  0  0  0  0  0  0  0
  144.3383   75.1074  219.5200 H   0  0  0  0  0  0  0  0  0  0  0  0
  143.6964   77.5074  219.5308 H   0  0  0  0  0  0  0  0  0  0  0  0
  142.0340   81.5515  221.3088 H   0  0  0  0  0  0  0  0  0  0  0  0
  140.5460   81.0087  220.5532 H   0  0  0  0  0  0  0  0  0  0  0  0
  140.1446   82.0571  222.8540 H   0  0  0  0  0  0  0  0  0  0  0  0
  139.6322   80.3313  222.8120 H   0  0  0  0  0  0  0  0  0  0  0  0
  142.2323   79.1143  224.7500 H   0  0  0  0  0  0  0  0  0  0  0  0
  140.7920   78.7254  223.8095 H   0  0  0  0  0  0  0  0  0  0  0  0
  143.4427   79.8313  222.6194 H   0  0  0  0  0  0  0  0  0  0  0  0
  142.9883   78.1341  222.5449 H   0  0  0  0  0  0  0  0  0  0  0  0
  139.9665   76.4751  221.3348 H   0  0  0  0  0  0  0  0  0  0  0  0
  141.3676   71.7975  224.7372 H   0  0  0  0  0  0  0  0  0  0  0  0
  139.8428   67.9436  225.2394 H   0  0  0  0  0  0  0  0  0  0  0  0
  140.7357   66.7422  227.2327 H   0  0  0  0  0  0  0  0  0  0  0  0
  141.5099   68.0523  229.1734 H   0  0  0  0  0  0  0  0  0  0  0  0
  141.4201   70.4861  229.1892 H   0  0  0  0  0  0  0  0  0  0  0  0
  140.5280   71.7431  227.2133 H   0  0  0  0  0  0  0  0  0  0  0  0
  137.7447   69.4590  224.8611 H   0  0  0  0  0  0  0  0  0  0  0  0
  136.9430   70.6164  222.8314 H   0  0  0  0  0  0  0  0  0  0  0  0
  1  2  2  0
  2  3  1  0
  3  4  1  0
  4  5  1  0
  5  6  2  0
  6  7  1  0
  7  8  2  0
  8  9  1  0
  9 10  1  0
 10 11  2  0
 10 12  1  0
 12 13  1  0
 13 14  1  0
 14 15  1  0
 15 16  1  0
 16 17  1  0
  9 18  2  0
  4 19  2  0
 19 20  1  0
 20 21  2  0
 21 22  1  0
 22 23  1  0
 23 24  2  0
 24 25  1  0
 25 26  2  0
 26 27  1  0
 27 28  2  0
 22 29  2  0
 29 30  1  0
 30 31  2  0
 31  2  1  0
 18  5  1  0
 31 20  1  0
 17 12  1  0
 28 23  1  0
  3 32  1  0
  3 33  1  0
  6 34  1  0
  7 35  1  0
  8 36  1  0
 13 37  1  0
 13 38  1  0
 14 39  1  0
 14 40  1  0
 16 41  1  0
 16 42  1  0
 17 43  1  0
 17 44  1  0
 18 45  1  0
 21 46  1  0
 24 47  1  0
 25 48  1  0
 26 49  1  0
 27 50  1  0
 28 51  1  0
 29 52  1  0
 30 53  1  0
M  END
>  <smiles>  (6) 
O=C1CC(c2cccc(C(=O)N3CCOCC3)c2)=Nc2cc(-c3ccccc3)ccc21

>  <score_type>  (6) 
oracle

>  <origin>  (6) 
autodockgpu

>  <m_score__min__energy>  (6) 
-9.7200000000000006

>  <m_primary>  (6) 
energy

>  <rmsd>  (6) 
7.210573169823536

>  <m_score__min__rmsd>  (6) 
7.210573169823536

>  <meeko>  (6) 
{"free_energy": -9.67, "intermolecular_energy": -10.56, "internal_energy": -1.01, "cluster_size": 50, "cluster_id": 1, "rank_in_cluster": 39}

>  <energy>  (6) 
-9.71

>  <cluster_rmsd>  (6) 
0.06

>  <cluster>  (6) 
1

$$$$

     RDKit          3D

 53 57  0  0  0  0  0  0  0  0999 V2000
  137.0800   72.4830  220.9470 O   0  0  0  0  0  0  0  0  0  0  0  0
  138.2210   72.7380  221.4090 C   0  0  0  0  0  0  0  0  0  0  0  0
  139.0380   73.7680  220.7250 C   0  0  0  0  0  0  0  0  0  0  0  0
  140.3380   73.9090  221.4200 C   0  0  0  0  0  0  0  0  0  0  0  0
  141.2970   74.8950  220.8720 C   0  0  0  0  0  0  0  0  0  0  0  0
  142.5090   74.4880  220.3350 C   0  0  0  0  0  0  0  0  0  0  0  0
  143.4020   75.4170  219.8260 C   0  0  0  0  0  0  0  0  0  0  0  0
  143.0890   76.7700  219.8490 C   0  0  0  0  0  0  0  0  0  0  0  0
  141.8880   77.2030  220.3780 C   0  0  0  0  0  0  0  0  0  0  0  0
  141.4970   78.6010  220.4330 C   0  0  0  0  0  0  0  0  0  0  0  0
  140.8450   79.0710  219.4680 O   0  0  0  0  0  0  0  0  0  0  0  0
  141.8040   79.4720  221.5070 N   0  0  0  0  0  0  0  0  0  0  0  0
  141.3590   80.8650  221.4590 C   0  0  0  0  0  0  0  0  0  0  0  0
  140.5220   81.0230  222.7410 C   0  0  0  0  0  0  0  0  0  0  0  0
  141.2740   80.6600  223.8470 O   0  0  0  0  0  0  0  0  0  0  0  0
  141.5470   79.2830  223.8410 C   0  0  0  0  0  0  0  0  0  0  0  0
  142.5450   79.0840  222.6910 C   0  0  0  0  0  0  0  0  0  0  0  0
  141.0260   76.2490  220.8760 C   0  0  0  0  0  0  0  0  0  0  0  0
  140.6900   73.2360  222.4600 N   0  0  0  0  0  0  0  0  0  0  0  0
  139.9060   72.2620  223.1060 C   0  0  0  0  0  0  0  0  0  0  0  0
  140.3710   71.5890  224.2210 C   0  0  0  0  0  0  0  0  0  0  0  0
  139.5680   70.6290  224.8310 C   0  0  0  0  0  0  0  0  0  0  0  0
  140.0990   69.9420  226.0010 C   0  0  0  0  0  0  0  0  0  0  0  0
  140.1290   68.5490  225.9700 C   0  0  0  0  0  0  0  0  0  0  0  0
  140.6220   67.8470  227.0500 C   0  0  0  0  0  0  0  0  0  0  0  0
  141.0740   68.5510  228.1370 C   0  0  0  0  0  0  0  0  0  0  0  0
  141.0500   69.9110  228.1790 C   0  0  0  0  0  0  0  0  0  0  0  0
  140.5590   70.6510  227.1090 C   0  0  0  0  0  0  0  0  0  0  0  0
  138.3090   70.3610  224.3160 C   0  0  0  0  0  0  0  0  0  0  0  0
  137.8640   71.0430  223.2030 C   0  0  0  0  0  0  0  0  0  0  0  0
  138.6530   71.9990  222.5840 C   0  0  0  0  0  0  0  0  0  0  0  0
  139.2110   73.4654  219.6817 H   0  0  0  0  0  0  0  0  0  0  0  0
  138.5057   74.7304  220.7444 H   0  0  0  0  0  0  0  0  0  0  0  0
  142.7637   73.4181  220.3130 H   0  0  0  0  0  0  0  0  0  0  0  0
  144.3606   75.0824  219.4029 H   0  0  0  0  0  0  0  0  0  0  0  0
  143.8024   77.5023  219.4431 H   0  0  0  0  0  0  0  0  0  0  0  0
  142.2181   81.5520  221.4639 H   0  0  0  0  0  0  0  0  0  0  0  0
  140.7914   81.1008  220.5467 H   0  0  0  0  0  0  0  0  0  0  0  0
  140.2071   82.0720  222.8432 H   0  0  0  0  0  0  0  0  0  0  0  0
  139.6377   80.3720  222.6768 H   0  0  0  0  0  0  0  0  0  0  0  0
  141.9919   78.9723  224.7978 H   0  0  0  0  0  0  0  0  0  0  0  0
  140.6363   78.6805  223.7084 H   0  0  0  0  0  0  0  0  0  0  0  0
  143.4287   79.7250  222.8258 H   0  0  0  0  0  0  0  0  0  0  0  0
  142.9217   78.0521  222.6334 H   0  0  0  0  0  0  0  0  0  0  0  0
  140.0686   76.5855  221.3004 H   0  0  0  0  0  0  0  0  0  0  0  0
  141.3702   71.8110  224.6239 H   0  0  0  0  0  0  0  0  0  0  0  0
  139.7599   68.0099  225.0850 H   0  0  0  0  0  0  0  0  0  0  0  0
  140.6520   66.7475  227.0399 H   0  0  0  0  0  0  0  0  0  0  0  0
  141.4686   67.9985  229.0025 H   0  0  0  0  0  0  0  0  0  0  0  0
  141.4244   70.4324  229.0723 H   0  0  0  0  0  0  0  0  0  0  0  0
  140.5347   71.7504  227.1360 H   0  0  0  0  0  0  0  0  0  0  0  0
  137.6668   69.6065  224.7938 H   0  0  0  0  0  0  0  0  0  0  0  0
  136.8644   70.8240  222.7994 H   0  0  0  0  0  0  0  0  0  0  0  0
  1  2  2  0
  2  3  1  0
  3  4  1  0
  4  5  1  0
  5  6  2  0
  6  7  1  0
  7  8  2  0
  8  9  1  0
  9 10  1  0
 10 11  2  0
 10 12  1  0
 12 13  1  0
 13 14  1  0
 14 15  1  0
 15 16  1  0
 16 17  1  0
  9 18  2  0
  4 19  2  0
 19 20  1  0
 20 21  2  0
 21 22  1  0
 22 23  1  0
 23 24  2  0
 24 25  1  0
 25 26  2  0
 26 27  1  0
 27 28  2  0
 22 29  2  0
 29 30  1  0
 30 31  2  0
 31  2  1  0
 18  5  1  0
 31 20  1  0
 17 12  1  0
 28 23  1  0
  3 32  1  0
  3 33  1  0
  6 34  1  0
  7 35  1  0
  8 36  1  0
 13 37  1  0
 13 38  1  0
 14 39  1  0
 14 40  1  0
 16 41  1  0
 16 42  1  0
 17 43  1  0
 17 44  1  0
 18 45  1  0
 21 46  1  0
 24 47  1  0
 25 48  1  0
 26 49  1  0
 27 50  1  0
 28 51  1  0
 29 52  1  0
 30 53  1  0
M  END
>  <smiles>  (7) 
O=C1CC(c2cccc(C(=O)N3CCOCC3)c2)=Nc2cc(-c3ccccc3)ccc21

>  <score_type>  (7) 
oracle

>  <origin>  (7) 
autodockgpu

>  <m_score__min__energy>  (7) 
-9.7200000000000006

>  <m_primary>  (7) 
energy

>  <rmsd>  (7) 
7.315872775080113

>  <m_score__min__rmsd>  (7) 
7.315872775080113

>  <meeko>  (7) 
{"free_energy": -9.69, "intermolecular_energy": -10.59, "internal_energy": -1.02, "cluster_size": 50, "cluster_id": 1, "rank_in_cluster": 31}

>  <energy>  (7) 
-9.7

>  <cluster_rmsd>  (7) 
0.02

>  <cluster>  (7) 
1

$$$$

     RDKit          3D

 53 57  0  0  0  0  0  0  0  0999 V2000
  137.0070   72.7980  220.9860 O   0  0  0  0  0  0  0  0  0  0  0  0
  138.1850   72.9450  221.3990 C   0  0  0  0  0  0  0  0  0  0  0  0
  139.0490   73.9310  220.7100 C   0  0  0  0  0  0  0  0  0  0  0  0
  140.3880   73.9440  221.3430 C   0  0  0  0  0  0  0  0  0  0  0  0
  141.3970   74.8700  220.7810 C   0  0  0  0  0  0  0  0  0  0  0  0
  142.6160   74.3990  220.3150 C   0  0  0  0  0  0  0  0  0  0  0  0
  143.5560   75.2720  219.7920 C   0  0  0  0  0  0  0  0  0  0  0  0
  143.2830   76.6340  219.7300 C   0  0  0  0  0  0  0  0  0  0  0  0
  142.0760   77.1290  220.1860 C   0  0  0  0  0  0  0  0  0  0  0  0
  141.7270   78.5390  220.1500 C   0  0  0  0  0  0  0  0  0  0  0  0
  141.3120   79.0170  219.0660 O   0  0  0  0  0  0  0  0  0  0  0  0
  141.8230   79.4110  221.2610 N   0  0  0  0  0  0  0  0  0  0  0  0
  141.4420   80.8170  221.1130 C   0  0  0  0  0  0  0  0  0  0  0  0
  140.3540   81.0130  222.1830 C   0  0  0  0  0  0  0  0  0  0  0  0
  140.8390   80.6410  223.4280 O   0  0  0  0  0  0  0  0  0  0  0  0
  141.0640   79.2550  223.4860 C   0  0  0  0  0  0  0  0  0  0  0  0
  142.2790   79.0150  222.5790 C   0  0  0  0  0  0  0  0  0  0  0  0
  141.1680   76.2290  220.7010 C   0  0  0  0  0  0  0  0  0  0  0  0
  140.7330   73.2060  222.3410 N   0  0  0  0  0  0  0  0  0  0  0  0
  139.9040   72.2750  222.9920 C   0  0  0  0  0  0  0  0  0  0  0  0
  140.3650   71.5250  224.0600 C   0  0  0  0  0  0  0  0  0  0  0  0
  139.5160   70.6110  224.6770 C   0  0  0  0  0  0  0  0  0  0  0  0
  140.0440   69.8400  225.7960 C   0  0  0  0  0  0  0  0  0  0  0  0
  140.5360   70.5510  226.8890 C   0  0  0  0  0  0  0  0  0  0  0  0
  141.0460   69.8730  227.9770 C   0  0  0  0  0  0  0  0  0  0  0  0
  141.0540   68.5020  227.9490 C   0  0  0  0  0  0  0  0  0  0  0  0
  140.5760   67.7970  226.8870 C   0  0  0  0  0  0  0  0  0  0  0  0
  140.0550   68.4470  225.7740 C   0  0  0  0  0  0  0  0  0  0  0  0
  138.2170   70.4620  224.2170 C   0  0  0  0  0  0  0  0  0  0  0  0
  137.7770   71.2180  223.1510 C   0  0  0  0  0  0  0  0  0  0  0  0
  138.6110   72.1310  222.5250 C   0  0  0  0  0  0  0  0  0  0  0  0
  139.1475   73.6542  219.6500 H   0  0  0  0  0  0  0  0  0  0  0  0
  138.5975   74.9310  220.7882 H   0  0  0  0  0  0  0  0  0  0  0  0
  142.8381   73.3226  220.3612 H   0  0  0  0  0  0  0  0  0  0  0  0
  144.5192   74.8874  219.4255 H   0  0  0  0  0  0  0  0  0  0  0  0
  144.0335   77.3227  219.3148 H   0  0  0  0  0  0  0  0  0  0  0  0
  142.3008   81.4782  221.3007 H   0  0  0  0  0  0  0  0  0  0  0  0
  141.0921   81.0600  220.0989 H   0  0  0  0  0  0  0  0  0  0  0  0
  140.0562   82.0716  222.2098 H   0  0  0  0  0  0  0  0  0  0  0  0
  139.4851   80.3866  221.9327 H   0  0  0  0  0  0  0  0  0  0  0  0
  141.2826   78.9410  224.5173 H   0  0  0  0  0  0  0  0  0  0  0  0
  140.1849   78.6784  223.1625 H   0  0  0  0  0  0  0  0  0  0  0  0
  143.1320   79.6318  222.8983 H   0  0  0  0  0  0  0  0  0  0  0  0
  142.6272   77.9720  222.6085 H   0  0  0  0  0  0  0  0  0  0  0  0
  140.2062   76.6156  221.0692 H   0  0  0  0  0  0  0  0  0  0  0  0
  141.3971   71.6507  224.4193 H   0  0  0  0  0  0  0  0  0  0  0  0
  140.5177   71.6508  226.8843 H   0  0  0  0  0  0  0  0  0  0  0  0
  141.4374   70.4199  228.8474 H   0  0  0  0  0  0  0  0  0  0  0  0
  141.4597   67.9543  228.8124 H   0  0  0  0  0  0  0  0  0  0  0  0
  140.6024   66.6976  226.9099 H   0  0  0  0  0  0  0  0  0  0  0  0
  139.6674   67.8847  224.9116 H   0  0  0  0  0  0  0  0  0  0  0  0
  137.5394   69.7431  224.7007 H   0  0  0  0  0  0  0  0  0  0  0  0
  136.7450   71.0942  222.7908 H   0  0  0  0  0  0  0  0  0  0  0  0
  1  2  2  0
  2  3  1  0
  3  4  1  0
  4  5  1  0
  5  6  2  0
  6  7  1  0
  7  8  2  0
  8  9  1  0
  9 10  1  0
 10 11  2  0
 10 12  1  0
 12 13  1  0
 13 14  1  0
 14 15  1  0
 15 16  1  0
 16 17  1  0
  9 18  2  0
  4 19  2  0
 19 20  1  0
 20 21  2  0
 21 22  1  0
 22 23  1  0
 23 24  2  0
 24 25  1  0
 25 26  2  0
 26 27  1  0
 27 28  2  0
 22 29  2  0
 29 30  1  0
 30 31  2  0
 31  2  1  0
 18  5  1  0
 31 20  1  0
 17 12  1  0
 28 23  1  0
  3 32  1  0
  3 33  1  0
  6 34  1  0
  7 35  1  0
  8 36  1  0
 13 37  1  0
 13 38  1  0
 14 39  1  0
 14 40  1  0
 16 41  1  0
 16 42  1  0
 17 43  1  0
 17 44  1  0
 18 45  1  0
 21 46  1  0
 24 47  1  0
 25 48  1  0
 26 49  1  0
 27 50  1  0
 28 51  1  0
 29 52  1  0
 30 53  1  0
M  END
>  <smiles>  (8) 
O=C1CC(c2cccc(C(=O)N3CCOCC3)c2)=Nc2cc(-c3ccccc3)ccc21

>  <score_type>  (8) 
oracle

>  <origin>  (8) 
autodockgpu

>  <m_score__min__energy>  (8) 
-9.7200000000000006

>  <m_primary>  (8) 
energy

>  <rmsd>  (8) 
7.3775680018969085

>  <m_score__min__rmsd>  (8) 
7.3775680018969085

>  <meeko>  (8) 
{"free_energy": -9.62, "intermolecular_energy": -10.52, "internal_energy": -1.03, "cluster_size": 50, "cluster_id": 1, "rank_in_cluster": 43}

>  <energy>  (8) 
-9.7

>  <cluster_rmsd>  (8) 
0.05

>  <cluster>  (8) 
1

$$$$

     RDKit          3D

 53 57  0  0  0  0  0  0  0  0999 V2000
  137.1550   72.3680  220.8640 O   0  0  0  0  0  0  0  0  0  0  0  0
  138.2810   72.6570  221.3420 C   0  0  0  0  0  0  0  0  0  0  0  0
  139.0880   73.6910  220.6530 C   0  0  0  0  0  0  0  0  0  0  0  0
  140.3720   73.8750  221.3680 C   0  0  0  0  0  0  0  0  0  0  0  0
  141.3200   74.8710  220.8200 C   0  0  0  0  0  0  0  0  0  0  0  0
  142.5300   74.4750  220.2690 C   0  0  0  0  0  0  0  0  0  0  0  0
  143.4120   75.4130  219.7580 C   0  0  0  0  0  0  0  0  0  0  0  0
  143.0900   76.7640  219.7940 C   0  0  0  0  0  0  0  0  0  0  0  0
  141.8910   77.1850  220.3360 C   0  0  0  0  0  0  0  0  0  0  0  0
  141.4920   78.5810  220.4040 C   0  0  0  0  0  0  0  0  0  0  0  0
  140.8370   79.0560  219.4440 O   0  0  0  0  0  0  0  0  0  0  0  0
  141.7940   79.4430  221.4870 N   0  0  0  0  0  0  0  0  0  0  0  0
  141.3400   80.8340  221.4520 C   0  0  0  0  0  0  0  0  0  0  0  0
  140.5020   80.9740  222.7350 C   0  0  0  0  0  0  0  0  0  0  0  0
  141.2560   80.6060  223.8380 O   0  0  0  0  0  0  0  0  0  0  0  0
  141.5380   79.2300  223.8180 C   0  0  0  0  0  0  0  0  0  0  0  0
  142.5370   79.0490  222.6670 C   0  0  0  0  0  0  0  0  0  0  0  0
  141.0400   76.2220  220.8350 C   0  0  0  0  0  0  0  0  0  0  0  0
  140.7180   73.2300  222.4290 N   0  0  0  0  0  0  0  0  0  0  0  0
  139.9430   72.2520  223.0790 C   0  0  0  0  0  0  0  0  0  0  0  0
  140.4010   71.6100  224.2150 C   0  0  0  0  0  0  0  0  0  0  0  0
  139.6070   70.6460  224.8290 C   0  0  0  0  0  0  0  0  0  0  0  0
  140.1300   69.9930  226.0230 C   0  0  0  0  0  0  0  0  0  0  0  0
  140.1590   68.6000  226.0330 C   0  0  0  0  0  0  0  0  0  0  0  0
  140.6440   67.9300  227.1360 C   0  0  0  0  0  0  0  0  0  0  0  0
  141.0910   68.6660  228.2040 C   0  0  0  0  0  0  0  0  0  0  0  0
  141.0680   70.0260  228.2070 C   0  0  0  0  0  0  0  0  0  0  0  0
  140.5840   70.7350  227.1120 C   0  0  0  0  0  0  0  0  0  0  0  0
  138.3640   70.3400  224.2960 C   0  0  0  0  0  0  0  0  0  0  0  0
  137.9260   70.9910  223.1620 C   0  0  0  0  0  0  0  0  0  0  0  0
  138.7060   71.9510  222.5390 C   0  0  0  0  0  0  0  0  0  0  0  0
  139.2868   73.3720  219.6192 H   0  0  0  0  0  0  0  0  0  0  0  0
  138.5345   74.6416  220.6442 H   0  0  0  0  0  0  0  0  0  0  0  0
  142.7913   73.4069  220.2376 H   0  0  0  0  0  0  0  0  0  0  0  0
  144.3686   75.0878  219.3231 H   0  0  0  0  0  0  0  0  0  0  0  0
  143.7951   77.5041  219.3878 H   0  0  0  0  0  0  0  0  0  0  0  0
  142.1946   81.5264  221.4637 H   0  0  0  0  0  0  0  0  0  0  0  0
  140.7713   81.0750  220.5418 H   0  0  0  0  0  0  0  0  0  0  0  0
  140.1797   82.0198  222.8469 H   0  0  0  0  0  0  0  0  0  0  0  0
  139.6224   80.3172  222.6644 H   0  0  0  0  0  0  0  0  0  0  0  0
  141.9846   78.9125  224.7718 H   0  0  0  0  0  0  0  0  0  0  0  0
  140.6311   78.6232  223.6788 H   0  0  0  0  0  0  0  0  0  0  0  0
  143.4162   79.6948  222.8082 H   0  0  0  0  0  0  0  0  0  0  0  0
  142.9207   78.0203  222.5996 H   0  0  0  0  0  0  0  0  0  0  0  0
  140.0839   76.5491  221.2696 H   0  0  0  0  0  0  0  0  0  0  0  0
  141.3880   71.8601  224.6312 H   0  0  0  0  0  0  0  0  0  0  0  0
  139.7953   68.0354  225.1618 H   0  0  0  0  0  0  0  0  0  0  0  0
  140.6719   66.8306  227.1592 H   0  0  0  0  0  0  0  0  0  0  0  0
  141.4810   68.1388  229.0872 H   0  0  0  0  0  0  0  0  0  0  0  0
  141.4371   70.5728  229.0872 H   0  0  0  0  0  0  0  0  0  0  0  0
  140.5607   71.8347  227.1060 H   0  0  0  0  0  0  0  0  0  0  0  0
  137.7295   69.5805  224.7762 H   0  0  0  0  0  0  0  0  0  0  0  0
  136.9389   70.7433  222.7445 H   0  0  0  0  0  0  0  0  0  0  0  0
  1  2  2  0
  2  3  1  0
  3  4  1  0
  4  5  1  0
  5  6  2  0
  6  7  1  0
  7  8  2  0
  8  9  1  0
  9 10  1  0
 10 11  2  0
 10 12  1  0
 12 13  1  0
 13 14  1  0
 14 15  1  0
 15 16  1  0
 16 17  1  0
  9 18  2  0
  4 19  2  0
 19 20  1  0
 20 21  2  0
 21 22  1  0
 22 23  1  0
 23 24  2  0
 24 25  1  0
 25 26  2  0
 26 27  1  0
 27 28  2  0
 22 29  2  0
 29 30  1  0
 30 31  2  0
 31  2  1  0
 18  5  1  0
 31 20  1  0
 17 12  1  0
 28 23  1  0
  3 32  1  0
  3 33  1  0
  6 34  1  0
  7 35  1  0
  8 36  1  0
 13 37  1  0
 13 38  1  0
 14 39  1  0
 14 40  1  0
 16 41  1  0
 16 42  1  0
 17 43  1  0
 17 44  1  0
 18 45  1  0
 21 46  1  0
 24 47  1  0
 25 48  1  0
 26 49  1  0
 27 50  1  0
 28 51  1  0
 29 52  1  0
 30 53  1  0
M  END
>  <smiles>  (9) 
O=C1CC(c2cccc(C(=O)N3CCOCC3)c2)=Nc2cc(-c3ccccc3)ccc21

>  <score_type>  (9) 
oracle

>  <origin>  (9) 
autodockgpu

>  <m_score__min__energy>  (9) 
-9.7200000000000006

>  <m_primary>  (9) 
energy

>  <rmsd>  (9) 
7.302105410717057

>  <m_score__min__rmsd>  (9) 
7.302105410717057

>  <meeko>  (9) 
{"free_energy": -9.7, "intermolecular_energy": -10.59, "internal_energy": -1.02, "cluster_size": 50, "cluster_id": 1, "rank_in_cluster": 21}

>  <energy>  (9) 
-9.7

>  <cluster_rmsd>  (9) 
0.05

>  <cluster>  (9) 
1

$$$$

     RDKit          3D

 53 57  0  0  0  0  0  0  0  0999 V2000
  137.3400   72.0410  220.6210 O   0  0  0  0  0  0  0  0  0  0  0  0
  138.4120   72.4270  221.1500 C   0  0  0  0  0  0  0  0  0  0  0  0
  139.1850   73.4910  220.4680 C   0  0  0  0  0  0  0  0  0  0  0  0
  140.4080   73.7910  221.2480 C   0  0  0  0  0  0  0  0  0  0  0  0
  141.3150   74.8330  220.7150 C   0  0  0  0  0  0  0  0  0  0  0  0
  142.5230   74.4920  220.1230 C   0  0  0  0  0  0  0  0  0  0  0  0
  143.3670   75.4720  219.6270 C   0  0  0  0  0  0  0  0  0  0  0  0
  143.0090   76.8110  219.7200 C   0  0  0  0  0  0  0  0  0  0  0  0
  141.8110   77.1790  220.3030 C   0  0  0  0  0  0  0  0  0  0  0  0
  141.3760   78.5590  220.4310 C   0  0  0  0  0  0  0  0  0  0  0  0
  140.6410   79.0330  219.5300 O   0  0  0  0  0  0  0  0  0  0  0  0
  141.7260   79.4070  221.5110 N   0  0  0  0  0  0  0  0  0  0  0  0
  141.2290   80.7830  221.5390 C   0  0  0  0  0  0  0  0  0  0  0  0
  140.4780   80.8700  222.8800 C   0  0  0  0  0  0  0  0  0  0  0  0
  141.3190   80.5020  223.9200 O   0  0  0  0  0  0  0  0  0  0  0  0
  141.6390   79.1370  223.8490 C   0  0  0  0  0  0  0  0  0  0  0  0
  142.5610   79.0120  222.6280 C   0  0  0  0  0  0  0  0  0  0  0  0
  140.9990   76.1740  220.7860 C   0  0  0  0  0  0  0  0  0  0  0  0
  140.7350   73.2100  222.3500 N   0  0  0  0  0  0  0  0  0  0  0  0
  139.9930   72.2030  222.9930 C   0  0  0  0  0  0  0  0  0  0  0  0
  140.4270   71.6360  224.1770 C   0  0  0  0  0  0  0  0  0  0  0  0
  139.6670   70.6390  224.7830 C   0  0  0  0  0  0  0  0  0  0  0  0
  140.1630   70.0680  226.0290 C   0  0  0  0  0  0  0  0  0  0  0  0
  140.6050   70.9530  227.0100 C   0  0  0  0  0  0  0  0  0  0  0  0
  141.0840   70.4680  228.2090 C   0  0  0  0  0  0  0  0  0  0  0  0
  141.1090   69.1090  228.4020 C   0  0  0  0  0  0  0  0  0  0  0  0
  140.6800   68.2350  227.4520 C   0  0  0  0  0  0  0  0  0  0  0  0
  140.1920   68.6890  226.2310 C   0  0  0  0  0  0  0  0  0  0  0  0
  138.4820   70.2260  224.1930 C   0  0  0  0  0  0  0  0  0  0  0  0
  138.0680   70.8040  223.0110 C   0  0  0  0  0  0  0  0  0  0  0  0
  138.8140   71.7960  222.3960 C   0  0  0  0  0  0  0  0  0  0  0  0
  139.4670   73.1508  219.4607 H   0  0  0  0  0  0  0  0  0  0  0  0
  138.5686   74.3987  220.3897 H   0  0  0  0  0  0  0  0  0  0  0  0
  142.8129   73.4336  220.0469 H   0  0  0  0  0  0  0  0  0  0  0  0
  144.3216   75.1897  219.1590 H   0  0  0  0  0  0  0  0  0  0  0  0
  143.6845   77.5848  219.3264 H   0  0  0  0  0  0  0  0  0  0  0  0
  142.0611   81.5017  221.5076 H   0  0  0  0  0  0  0  0  0  0  0  0
  140.5914   81.0246  220.6758 H   0  0  0  0  0  0  0  0  0  0  0  0
  140.1335   81.9026  223.0382 H   0  0  0  0  0  0  0  0  0  0  0  0
  139.6151   80.1883  222.8552 H   0  0  0  0  0  0  0  0  0  0  0  0
  142.1598   78.8133  224.7623 H   0  0  0  0  0  0  0  0  0  0  0  0
  140.7431   78.5052  223.7585 H   0  0  0  0  0  0  0  0  0  0  0  0
  143.4280   79.6823  222.7234 H   0  0  0  0  0  0  0  0  0  0  0  0
  142.9701   77.9977  222.5106 H   0  0  0  0  0  0  0  0  0  0  0  0
  140.0451   76.4580  221.2545 H   0  0  0  0  0  0  0  0  0  0  0  0
  141.3680   71.9709  224.6379 H   0  0  0  0  0  0  0  0  0  0  0  0
  140.5720   72.0374  226.8285 H   0  0  0  0  0  0  0  0  0  0  0  0
  141.4378   71.1542  228.9925 H   0  0  0  0  0  0  0  0  0  0  0  0
  141.4883   68.7140  229.3560 H   0  0  0  0  0  0  0  0  0  0  0  0
  140.7195   67.1541  227.6521 H   0  0  0  0  0  0  0  0  0  0  0  0
  139.8436   67.9891  225.4572 H   0  0  0  0  0  0  0  0  0  0  0  0
  137.8744   69.4403  224.6658 H   0  0  0  0  0  0  0  0  0  0  0  0
  137.1275   70.4708  222.5479 H   0  0  0  0  0  0  0  0  0  0  0  0
  1  2  2  0
  2  3  1  0
  3  4  1  0
  4  5  1  0
  5  6  2  0
  6  7  1  0
  7  8  2  0
  8  9  1  0
  9 10  1  0
 10 11  2  0
 10 12  1  0
 12 13  1  0
 13 14  1  0
 14 15  1  0
 15 16  1  0
 16 17  1  0
  9 18  2  0
  4 19  2  0
 19 20  1  0
 20 21  2  0
 21 22  1  0
 22 23  1  0
 23 24  2  0
 24 25  1  0
 25 26  2  0
 26 27  1  0
 27 28  2  0
 22 29  2  0
 29 30  1  0
 30 31  2  0
 31  2  1  0
 18  5  1  0
 31 20  1  0
 17 12  1  0
 28 23  1  0
  3 32  1  0
  3 33  1  0
  6 34  1  0
  7 35  1  0
  8 36  1  0
 13 37  1  0
 13 38  1  0
 14 39  1  0
 14 40  1  0
 16 41  1  0
 16 42  1  0
 17 43  1  0
 17 44  1  0
 18 45  1  0
 21 46  1  0
 24 47  1  0
 25 48  1  0
 26 49  1  0
 27 50  1  0
 28 51  1  0
 29 52  1  0
 30 53  1  0
M  END
>  <smiles>  (10) 
O=C1CC(c2cccc(C(=O)N3CCOCC3)c2)=Nc2cc(-c3ccccc3)ccc21

>  <score_type>  (10) 
oracle

>  <origin>  (10) 
autodockgpu

>  <m_score__min__energy>  (10) 
-9.7200000000000006

>  <m_primary>  (10) 
energy

>  <rmsd>  (10) 
7.271098742787348

>  <m_score__min__rmsd>  (10) 
7.271098742787348

>  <meeko>  (10) 
{"free_energy": -9.6, "intermolecular_energy": -10.5, "internal_energy": -1.02, "cluster_size": 50, "cluster_id": 1, "rank_in_cluster": 45}

>  <energy>  (10) 
-9.7

>  <cluster_rmsd>  (10) 
0.06

>  <cluster>  (10) 
1

$$$$

     RDKit          3D

 53 57  0  0  0  0  0  0  0  0999 V2000
  137.1530   72.3460  220.8960 O   0  0  0  0  0  0  0  0  0  0  0  0
  138.2760   72.6430  221.3760 C   0  0  0  0  0  0  0  0  0  0  0  0
  139.0820   73.6760  220.6850 C   0  0  0  0  0  0  0  0  0  0  0  0
  140.3620   73.8680  221.4040 C   0  0  0  0  0  0  0  0  0  0  0  0
  141.3080   74.8650  220.8530 C   0  0  0  0  0  0  0  0  0  0  0  0
  142.5200   74.4700  220.3060 C   0  0  0  0  0  0  0  0  0  0  0  0
  143.4010   75.4080  219.7930 C   0  0  0  0  0  0  0  0  0  0  0  0
  143.0760   76.7590  219.8230 C   0  0  0  0  0  0  0  0  0  0  0  0
  141.8740   77.1790  220.3620 C   0  0  0  0  0  0  0  0  0  0  0  0
  141.4710   78.5740  220.4240 C   0  0  0  0  0  0  0  0  0  0  0  0
  140.8120   79.0420  219.4630 O   0  0  0  0  0  0  0  0  0  0  0  0
  141.7740   79.4420  221.5010 N   0  0  0  0  0  0  0  0  0  0  0  0
  141.3150   80.8320  221.4600 C   0  0  0  0  0  0  0  0  0  0  0  0
  140.4810   80.9760  222.7450 C   0  0  0  0  0  0  0  0  0  0  0  0
  141.2390   80.6160  223.8480 O   0  0  0  0  0  0  0  0  0  0  0  0
  141.5240   79.2410  223.8350 C   0  0  0  0  0  0  0  0  0  0  0  0
  142.5210   79.0560  222.6820 C   0  0  0  0  0  0  0  0  0  0  0  0
  141.0250   76.2150  220.8630 C   0  0  0  0  0  0  0  0  0  0  0  0
  140.7070   73.2310  222.4690 N   0  0  0  0  0  0  0  0  0  0  0  0
  139.9340   72.2540  223.1220 C   0  0  0  0  0  0  0  0  0  0  0  0
  140.3890   71.6200  224.2630 C   0  0  0  0  0  0  0  0  0  0  0  0
  139.5970   70.6560  224.8800 C   0  0  0  0  0  0  0  0  0  0  0  0
  140.1180   70.0120  226.0800 C   0  0  0  0  0  0  0  0  0  0  0  0
  140.1250   68.6190  226.1090 C   0  0  0  0  0  0  0  0  0  0  0  0
  140.6080   67.9570  227.2190 C   0  0  0  0  0  0  0  0  0  0  0  0
  141.0740   68.7010  228.2730 C   0  0  0  0  0  0  0  0  0  0  0  0
  141.0710   70.0620  228.2560 C   0  0  0  0  0  0  0  0  0  0  0  0
  140.5910   70.7620  227.1550 C   0  0  0  0  0  0  0  0  0  0  0  0
  138.3570   70.3430  224.3440 C   0  0  0  0  0  0  0  0  0  0  0  0
  137.9210   70.9850  223.2050 C   0  0  0  0  0  0  0  0  0  0  0  0
  138.7000   71.9450  222.5790 C   0  0  0  0  0  0  0  0  0  0  0  0
  139.2860   73.3523  219.6537 H   0  0  0  0  0  0  0  0  0  0  0  0
  138.5253   74.6246  220.6690 H   0  0  0  0  0  0  0  0  0  0  0  0
  142.7839   73.4025  220.2793 H   0  0  0  0  0  0  0  0  0  0  0  0
  144.3592   75.0831  219.3613 H   0  0  0  0  0  0  0  0  0  0  0  0
  143.7800   77.4993  219.4151 H   0  0  0  0  0  0  0  0  0  0  0  0
  142.1674   81.5273  221.4651 H   0  0  0  0  0  0  0  0  0  0  0  0
  140.7424   81.0663  220.5505 H   0  0  0  0  0  0  0  0  0  0  0  0
  140.1560   82.0214  222.8525 H   0  0  0  0  0  0  0  0  0  0  0  0
  139.6035   80.3158  222.6804 H   0  0  0  0  0  0  0  0  0  0  0  0
  141.9737   78.9298  224.7894 H   0  0  0  0  0  0  0  0  0  0  0  0
  140.6183   78.6312  223.7016 H   0  0  0  0  0  0  0  0  0  0  0  0
  143.3991   79.7046  222.8176 H   0  0  0  0  0  0  0  0  0  0  0  0
  142.9068   78.0278  222.6193 H   0  0  0  0  0  0  0  0  0  0  0  0
  140.0675   76.5411  221.2953 H   0  0  0  0  0  0  0  0  0  0  0  0
  141.3733   71.8764  224.6818 H   0  0  0  0  0  0  0  0  0  0  0  0
  139.7461   68.0481  225.2485 H   0  0  0  0  0  0  0  0  0  0  0  0
  140.6191   66.8577  227.2578 H   0  0  0  0  0  0  0  0  0  0  0  0
  141.4628   68.1808  229.1608 H   0  0  0  0  0  0  0  0  0  0  0  0
  141.4538   70.6159  229.1258 H   0  0  0  0  0  0  0  0  0  0  0  0
  140.5848   71.8618  227.1333 H   0  0  0  0  0  0  0  0  0  0  0  0
  137.7231   69.5845  224.8265 H   0  0  0  0  0  0  0  0  0  0  0  0
  136.9366   70.7307  222.7852 H   0  0  0  0  0  0  0  0  0  0  0  0
  1  2  2  0
  2  3  1  0
  3  4  1  0
  4  5  1  0
  5  6  2  0
  6  7  1  0
  7  8  2  0
  8  9  1  0
  9 10  1  0
 10 11  2  0
 10 12  1  0
 12 13  1  0
 13 14  1  0
 14 15  1  0
 15 16  1  0
 16 17  1  0
  9 18  2  0
  4 19  2  0
 19 20  1  0
 20 21  2  0
 21 22  1  0
 22 23  1  0
 23 24  2  0
 24 25  1  0
 25 26  2  0
 26 27  1  0
 27 28  2  0
 22 29  2  0
 29 30  1  0
 30 31  2  0
 31  2  1  0
 18  5  1  0
 31 20  1  0
 17 12  1  0
 28 23  1  0
  3 32  1  0
  3 33  1  0
  6 34  1  0
  7 35  1  0
  8 36  1  0
 13 37  1  0
 13 38  1  0
 14 39  1  0
 14 40  1  0
 16 41  1  0
 16 42  1  0
 17 43  1  0
 17 44  1  0
 18 45  1  0
 21 46  1  0
 24 47  1  0
 25 48  1  0
 26 49  1  0
 27 50  1  0
 28 51  1  0
 29 52  1  0
 30 53  1  0
M  END
>  <smiles>  (11) 
O=C1CC(c2cccc(C(=O)N3CCOCC3)c2)=Nc2cc(-c3ccccc3)ccc21

>  <score_type>  (11) 
oracle

>  <origin>  (11) 
autodockgpu

>  <m_score__min__energy>  (11) 
-9.7200000000000006

>  <m_primary>  (11) 
energy

>  <rmsd>  (11) 
7.281243740155435

>  <m_score__min__rmsd>  (11) 
7.281243740155435

>  <meeko>  (11) 
{"free_energy": -9.71, "intermolecular_energy": -10.6, "internal_energy": -1.02, "cluster_size": 50, "cluster_id": 1, "rank_in_cluster": 5}

>  <energy>  (11) 
-9.7

>  <cluster_rmsd>  (11) 
0.06

>  <cluster>  (11) 
1

$$$$

     RDKit          3D

 53 57  0  0  0  0  0  0  0  0999 V2000
  137.1550   72.3840  220.8510 O   0  0  0  0  0  0  0  0  0  0  0  0
  138.2810   72.6740  221.3290 C   0  0  0  0  0  0  0  0  0  0  0  0
  139.0910   73.7040  220.6380 C   0  0  0  0  0  0  0  0  0  0  0  0
  140.3730   73.8880  221.3550 C   0  0  0  0  0  0  0  0  0  0  0  0
  141.3230   74.8810  220.8030 C   0  0  0  0  0  0  0  0  0  0  0  0
  142.5310   74.4800  220.2500 C   0  0  0  0  0  0  0  0  0  0  0  0
  143.4160   75.4150  219.7370 C   0  0  0  0  0  0  0  0  0  0  0  0
  143.0990   76.7670  219.7730 C   0  0  0  0  0  0  0  0  0  0  0  0
  141.9020   77.1930  220.3170 C   0  0  0  0  0  0  0  0  0  0  0  0
  141.5080   78.5900  220.3860 C   0  0  0  0  0  0  0  0  0  0  0  0
  140.8680   79.0720  219.4190 O   0  0  0  0  0  0  0  0  0  0  0  0
  141.7990   79.4460  221.4760 N   0  0  0  0  0  0  0  0  0  0  0  0
  141.3520   80.8400  221.4400 C   0  0  0  0  0  0  0  0  0  0  0  0
  140.4980   80.9790  222.7130 C   0  0  0  0  0  0  0  0  0  0  0  0
  141.2360   80.6030  223.8240 O   0  0  0  0  0  0  0  0  0  0  0  0
  141.5120   79.2260  223.8030 C   0  0  0  0  0  0  0  0  0  0  0  0
  142.5260   79.0450  222.6640 C   0  0  0  0  0  0  0  0  0  0  0  0
  141.0490   76.2330  220.8190 C   0  0  0  0  0  0  0  0  0  0  0  0
  140.7170   73.2470  222.4180 N   0  0  0  0  0  0  0  0  0  0  0  0
  139.9400   72.2730  223.0710 C   0  0  0  0  0  0  0  0  0  0  0  0
  140.3950   71.6350  224.2100 C   0  0  0  0  0  0  0  0  0  0  0  0
  139.5980   70.6740  224.8270 C   0  0  0  0  0  0  0  0  0  0  0  0
  140.1180   70.0260  226.0240 C   0  0  0  0  0  0  0  0  0  0  0  0
  140.1370   68.6330  226.0440 C   0  0  0  0  0  0  0  0  0  0  0  0
  140.6190   67.9670  227.1510 C   0  0  0  0  0  0  0  0  0  0  0  0
  141.0740   68.7060  228.2130 C   0  0  0  0  0  0  0  0  0  0  0  0
  141.0610   70.0670  228.2060 C   0  0  0  0  0  0  0  0  0  0  0  0
  140.5800   70.7710  227.1080 C   0  0  0  0  0  0  0  0  0  0  0  0
  138.3560   70.3680  224.2930 C   0  0  0  0  0  0  0  0  0  0  0  0
  137.9210   71.0150  223.1560 C   0  0  0  0  0  0  0  0  0  0  0  0
  138.7030   71.9720  222.5300 C   0  0  0  0  0  0  0  0  0  0  0  0
  139.2915   73.3810  219.6058 H   0  0  0  0  0  0  0  0  0  0  0  0
  138.5392   74.6555  220.6243 H   0  0  0  0  0  0  0  0  0  0  0  0
  142.7883   73.4110  220.2186 H   0  0  0  0  0  0  0  0  0  0  0  0
  144.3707   75.0861  219.3007 H   0  0  0  0  0  0  0  0  0  0  0  0
  143.8062   77.5043  219.3653 H   0  0  0  0  0  0  0  0  0  0  0  0
  142.2097   81.5283  221.4653 H   0  0  0  0  0  0  0  0  0  0  0  0
  140.7964   81.0873  220.5234 H   0  0  0  0  0  0  0  0  0  0  0  0
  140.1793   82.0258  222.8250 H   0  0  0  0  0  0  0  0  0  0  0  0
  139.6163   80.3268  222.6284 H   0  0  0  0  0  0  0  0  0  0  0  0
  141.9445   78.9031  224.7615 H   0  0  0  0  0  0  0  0  0  0  0  0
  140.6045   78.6235  223.6499 H   0  0  0  0  0  0  0  0  0  0  0  0
  143.4057   79.6870  222.8187 H   0  0  0  0  0  0  0  0  0  0  0  0
  142.9073   78.0153  222.5980 H   0  0  0  0  0  0  0  0  0  0  0  0
  140.0958   76.5640  221.2571 H   0  0  0  0  0  0  0  0  0  0  0  0
  141.3817   71.8852  224.6269 H   0  0  0  0  0  0  0  0  0  0  0  0
  139.7678   68.0650  225.1774 H   0  0  0  0  0  0  0  0  0  0  0  0
  140.6382   66.8676  227.1816 H   0  0  0  0  0  0  0  0  0  0  0  0
  141.4619   68.1819  229.0989 H   0  0  0  0  0  0  0  0  0  0  0  0
  141.4363   70.6175  229.0813 H   0  0  0  0  0  0  0  0  0  0  0  0
  140.5646   71.8708  227.0950 H   0  0  0  0  0  0  0  0  0  0  0  0
  137.7195   69.6113  224.7749 H   0  0  0  0  0  0  0  0  0  0  0  0
  136.9343   70.7667  222.7379 H   0  0  0  0  0  0  0  0  0  0  0  0
  1  2  2  0
  2  3  1  0
  3  4  1  0
  4  5  1  0
  5  6  2  0
  6  7  1  0
  7  8  2  0
  8  9  1  0
  9 10  1  0
 10 11  2  0
 10 12  1  0
 12 13  1  0
 13 14  1  0
 14 15  1  0
 15 16  1  0
 16 17  1  0
  9 18  2  0
  4 19  2  0
 19 20  1  0
 20 21  2  0
 21 22  1  0
 22 23  1  0
 23 24  2  0
 24 25  1  0
 25 26  2  0
 26 27  1  0
 27 28  2  0
 22 29  2  0
 29 30  1  0
 30 31  2  0
 31  2  1  0
 18  5  1  0
 31 20  1  0
 17 12  1  0
 28 23  1  0
  3 32  1  0
  3 33  1  0
  6 34  1  0
  7 35  1  0
  8 36  1  0
 13 37  1  0
 13 38  1  0
 14 39  1  0
 14 40  1  0
 16 41  1  0
 16 42  1  0
 17 43  1  0
 17 44  1  0
 18 45  1  0
 21 46  1  0
 24 47  1  0
 25 48  1  0
 26 49  1  0
 27 50  1  0
 28 51  1  0
 29 52  1  0
 30 53  1  0
M  END
>  <smiles>  (12) 
O=C1CC(c2cccc(C(=O)N3CCOCC3)c2)=Nc2cc(-c3ccccc3)ccc21

>  <score_type>  (12) 
oracle

>  <origin>  (12) 
autodockgpu

>  <m_score__min__energy>  (12) 
-9.7200000000000006

>  <m_primary>  (12) 
energy

>  <rmsd>  (12) 
7.3162187819258815

>  <m_score__min__rmsd>  (12) 
7.3162187819258815

>  <meeko>  (12) 
{"free_energy": -9.7, "intermolecular_energy": -10.6, "internal_energy": -1.02, "cluster_size": 50, "cluster_id": 1, "rank_in_cluster": 12}

>  <energy>  (12) 
-9.7

>  <cluster_rmsd>  (12) 
0.04

>  <cluster>  (12) 
1

$$$$

     RDKit          3D

 53 57  0  0  0  0  0  0  0  0999 V2000
  137.1010   72.4810  220.8800 O   0  0  0  0  0  0  0  0  0  0  0  0
  138.2400   72.7360  221.3470 C   0  0  0  0  0  0  0  0  0  0  0  0
  139.0610   73.7620  220.6640 C   0  0  0  0  0  0  0  0  0  0  0  0
  140.3590   73.9050  221.3650 C   0  0  0  0  0  0  0  0  0  0  0  0
  141.3220   74.8880  220.8200 C   0  0  0  0  0  0  0  0  0  0  0  0
  142.5290   74.4760  220.2760 C   0  0  0  0  0  0  0  0  0  0  0  0
  143.4260   75.4020  219.7680 C   0  0  0  0  0  0  0  0  0  0  0  0
  143.1210   76.7570  219.8000 C   0  0  0  0  0  0  0  0  0  0  0  0
  141.9240   77.1940  220.3350 C   0  0  0  0  0  0  0  0  0  0  0  0
  141.5420   78.5950  220.3990 C   0  0  0  0  0  0  0  0  0  0  0  0
  140.9160   79.0820  219.4260 O   0  0  0  0  0  0  0  0  0  0  0  0
  141.8310   79.4490  221.4910 N   0  0  0  0  0  0  0  0  0  0  0  0
  141.3960   80.8460  221.4510 C   0  0  0  0  0  0  0  0  0  0  0  0
  140.5310   80.9940  222.7140 C   0  0  0  0  0  0  0  0  0  0  0  0
  141.2550   80.6120  223.8330 O   0  0  0  0  0  0  0  0  0  0  0  0
  141.5180   79.2330  223.8160 C   0  0  0  0  0  0  0  0  0  0  0  0
  142.5410   79.0410  222.6870 C   0  0  0  0  0  0  0  0  0  0  0  0
  141.0590   76.2430  220.8310 C   0  0  0  0  0  0  0  0  0  0  0  0
  140.7040   73.2340  222.4100 N   0  0  0  0  0  0  0  0  0  0  0  0
  139.9160   72.2640  223.0540 C   0  0  0  0  0  0  0  0  0  0  0  0
  140.3740   71.5930  224.1730 C   0  0  0  0  0  0  0  0  0  0  0  0
  139.5660   70.6370  224.7820 C   0  0  0  0  0  0  0  0  0  0  0  0
  140.0900   69.9520  225.9580 C   0  0  0  0  0  0  0  0  0  0  0  0
  140.5730   70.7430  226.9990 C   0  0  0  0  0  0  0  0  0  0  0  0
  141.0790   70.1480  228.1360 C   0  0  0  0  0  0  0  0  0  0  0  0
  141.0920   68.7780  228.2080 C   0  0  0  0  0  0  0  0  0  0  0  0
  140.6230   67.9960  227.1980 C   0  0  0  0  0  0  0  0  0  0  0  0
  140.1060   68.5610  226.0370 C   0  0  0  0  0  0  0  0  0  0  0  0
  138.3090   70.3680  224.2620 C   0  0  0  0  0  0  0  0  0  0  0  0
  137.8720   71.0480  223.1440 C   0  0  0  0  0  0  0  0  0  0  0  0
  138.6650   72.0010  222.5270 C   0  0  0  0  0  0  0  0  0  0  0  0
  139.2388   73.4554  219.6227 H   0  0  0  0  0  0  0  0  0  0  0  0
  138.5295   74.7249  220.6778 H   0  0  0  0  0  0  0  0  0  0  0  0
  142.7767   73.4046  220.2474 H   0  0  0  0  0  0  0  0  0  0  0  0
  144.3807   75.0638  219.3389 H   0  0  0  0  0  0  0  0  0  0  0  0
  143.8376   77.4875  219.3965 H   0  0  0  0  0  0  0  0  0  0  0  0
  142.2593   81.5269  221.4847 H   0  0  0  0  0  0  0  0  0  0  0  0
  140.8511   81.0969  220.5290 H   0  0  0  0  0  0  0  0  0  0  0  0
  140.2208   82.0438  222.8219 H   0  0  0  0  0  0  0  0  0  0  0  0
  139.6440   80.3501  222.6212 H   0  0  0  0  0  0  0  0  0  0  0  0
  141.9383   78.9071  224.7789 H   0  0  0  0  0  0  0  0  0  0  0  0
  140.6063   78.6390  223.6548 H   0  0  0  0  0  0  0  0  0  0  0  0
  143.4258   79.6738  222.8504 H   0  0  0  0  0  0  0  0  0  0  0  0
  142.9113   78.0071  222.6252 H   0  0  0  0  0  0  0  0  0  0  0  0
  140.1048   76.5829  221.2600 H   0  0  0  0  0  0  0  0  0  0  0  0
  141.3719   71.8136  224.5799 H   0  0  0  0  0  0  0  0  0  0  0  0
  140.5507   71.8395  226.9141 H   0  0  0  0  0  0  0  0  0  0  0  0
  141.4635   70.7584  228.9664 H   0  0  0  0  0  0  0  0  0  0  0  0
  141.4945   68.2962  229.1113 H   0  0  0  0  0  0  0  0  0  0  0  0
  140.6532   66.9013  227.3012 H   0  0  0  0  0  0  0  0  0  0  0  0
  139.7257   67.9359  225.2156 H   0  0  0  0  0  0  0  0  0  0  0  0
  137.6633   69.6158  224.7387 H   0  0  0  0  0  0  0  0  0  0  0  0
  136.8747   70.8290  222.7349 H   0  0  0  0  0  0  0  0  0  0  0  0
  1  2  2  0
  2  3  1  0
  3  4  1  0
  4  5  1  0
  5  6  2  0
  6  7  1  0
  7  8  2  0
  8  9  1  0
  9 10  1  0
 10 11  2  0
 10 12  1  0
 12 13  1  0
 13 14  1  0
 14 15  1  0
 15 16  1  0
 16 17  1  0
  9 18  2  0
  4 19  2  0
 19 20  1  0
 20 21  2  0
 21 22  1  0
 22 23  1  0
 23 24  2  0
 24 25  1  0
 25 26  2  0
 26 27  1  0
 27 28  2  0
 22 29  2  0
 29 30  1  0
 30 31  2  0
 31  2  1  0
 18  5  1  0
 31 20  1  0
 17 12  1  0
 28 23  1  0
  3 32  1  0
  3 33  1  0
  6 34  1  0
  7 35  1  0
  8 36  1  0
 13 37  1  0
 13 38  1  0
 14 39  1  0
 14 40  1  0
 16 41  1  0
 16 42  1  0
 17 43  1  0
 17 44  1  0
 18 45  1  0
 21 46  1  0
 24 47  1  0
 25 48  1  0
 26 49  1  0
 27 50  1  0
 28 51  1  0
 29 52  1  0
 30 53  1  0
M  END
>  <smiles>  (13) 
O=C1CC(c2cccc(C(=O)N3CCOCC3)c2)=Nc2cc(-c3ccccc3)ccc21

>  <score_type>  (13) 
oracle

>  <origin>  (13) 
autodockgpu

>  <m_score__min__energy>  (13) 
-9.7200000000000006

>  <m_primary>  (13) 
energy

>  <rmsd>  (13) 
7.33549269029222

>  <m_score__min__rmsd>  (13) 
7.33549269029222

>  <meeko>  (13) 
{"free_energy": -9.69, "intermolecular_energy": -10.59, "internal_energy": -1.02, "cluster_size": 50, "cluster_id": 1, "rank_in_cluster": 32}

>  <energy>  (13) 
-9.7

>  <cluster_rmsd>  (13) 
0.05

>  <cluster>  (13) 
1

$$$$

     RDKit          3D

 53 57  0  0  0  0  0  0  0  0999 V2000
  137.3800   71.6190  220.5690 O   0  0  0  0  0  0  0  0  0  0  0  0
  138.3180   72.1560  221.2100 C   0  0  0  0  0  0  0  0  0  0  0  0
  138.9150   73.3980  220.6670 C   0  0  0  0  0  0  0  0  0  0  0  0
  140.0000   73.8600  221.5630 C   0  0  0  0  0  0  0  0  0  0  0  0
  140.7220   75.0930  221.1770 C   0  0  0  0  0  0  0  0  0  0  0  0
  141.3930   75.1780  219.9660 C   0  0  0  0  0  0  0  0  0  0  0  0
  142.0670   76.3350  219.6130 C   0  0  0  0  0  0  0  0  0  0  0  0
  142.0770   77.4260  220.4730 C   0  0  0  0  0  0  0  0  0  0  0  0
  141.4160   77.3690  221.6860 C   0  0  0  0  0  0  0  0  0  0  0  0
  141.3850   78.4720  222.6310 C   0  0  0  0  0  0  0  0  0  0  0  0
  141.7900   78.2600  223.8000 O   0  0  0  0  0  0  0  0  0  0  0  0
  140.9270   79.7750  222.3180 N   0  0  0  0  0  0  0  0  0  0  0  0
  140.9420   80.8140  223.3490 C   0  0  0  0  0  0  0  0  0  0  0  0
  141.7990   81.9300  222.7270 C   0  0  0  0  0  0  0  0  0  0  0  0
  141.2780   82.3000  221.4970 O   0  0  0  0  0  0  0  0  0  0  0  0
  141.4190   81.2630  220.5590 C   0  0  0  0  0  0  0  0  0  0  0  0
  140.4310   80.1810  221.0170 C   0  0  0  0  0  0  0  0  0  0  0  0
  140.7580   76.1990  222.0020 C   0  0  0  0  0  0  0  0  0  0  0  0
  140.3570   73.2630  222.6480 N   0  0  0  0  0  0  0  0  0  0  0  0
  139.7830   72.0850  223.1580 C   0  0  0  0  0  0  0  0  0  0  0  0
  140.2350   71.5160  224.3340 C   0  0  0  0  0  0  0  0  0  0  0  0
  139.6430   70.3480  224.8070 C   0  0  0  0  0  0  0  0  0  0  0  0
  140.1540   69.7810  226.0490 C   0  0  0  0  0  0  0  0  0  0  0  0
  140.2360   68.3920  226.1360 C   0  0  0  0  0  0  0  0  0  0  0  0
  140.7130   67.8020  227.2870 C   0  0  0  0  0  0  0  0  0  0  0  0
  141.0970   68.6110  228.3270 C   0  0  0  0  0  0  0  0  0  0  0  0
  141.0210   69.9680  228.2540 C   0  0  0  0  0  0  0  0  0  0  0  0
  140.5450   70.5970  227.1090 C   0  0  0  0  0  0  0  0  0  0  0  0
  138.6050   69.7680  224.0950 C   0  0  0  0  0  0  0  0  0  0  0  0
  138.1690   70.3510  222.9240 C   0  0  0  0  0  0  0  0  0  0  0  0
  138.7490   71.5130  222.4400 C   0  0  0  0  0  0  0  0  0  0  0  0
  139.3261   73.1995  219.6662 H   0  0  0  0  0  0  0  0  0  0  0  0
  138.1407   74.1764  220.5990 H   0  0  0  0  0  0  0  0  0  0  0  0
  141.3897   74.3184  219.2797 H   0  0  0  0  0  0  0  0  0  0  0  0
  142.5955   76.3903  218.6499 H   0  0  0  0  0  0  0  0  0  0  0  0
  142.6147   78.3419  220.1868 H   0  0  0  0  0  0  0  0  0  0  0  0
  139.9237   81.1724  223.5600 H   0  0  0  0  0  0  0  0  0  0  0  0
  141.3393   80.4560  224.3102 H   0  0  0  0  0  0  0  0  0  0  0  0
  141.8036   82.8020  223.3975 H   0  0  0  0  0  0  0  0  0  0  0  0
  142.8256   81.5606  222.5872 H   0  0  0  0  0  0  0  0  0  0  0  0
  141.1647   81.6171  219.5491 H   0  0  0  0  0  0  0  0  0  0  0  0
  142.4516   80.8871  220.5085 H   0  0  0  0  0  0  0  0  0  0  0  0
  139.4134   80.5907  221.0978 H   0  0  0  0  0  0  0  0  0  0  0  0
  140.3673   79.3414  220.3092 H   0  0  0  0  0  0  0  0  0  0  0  0
  140.2319   76.1440  222.9664 H   0  0  0  0  0  0  0  0  0  0  0  0
  141.0585   71.9838  224.8934 H   0  0  0  0  0  0  0  0  0  0  0  0
  139.9204   67.7675  225.2872 H   0  0  0  0  0  0  0  0  0  0  0  0
  140.7842   66.7075  227.3700 H   0  0  0  0  0  0  0  0  0  0  0  0
  141.4784   68.1479  229.2490 H   0  0  0  0  0  0  0  0  0  0  0  0
  141.3408   70.5758  229.1132 H   0  0  0  0  0  0  0  0  0  0  0  0
  140.4797   71.6931  227.0425 H   0  0  0  0  0  0  0  0  0  0  0  0
  138.1308   68.8461  224.4627 H   0  0  0  0  0  0  0  0  0  0  0  0
  137.3453   69.8850  222.3633 H   0  0  0  0  0  0  0  0  0  0  0  0
  1  2  2  0
  2  3  1  0
  3  4  1  0
  4  5  1  0
  5  6  2  0
  6  7  1  0
  7  8  2  0
  8  9  1  0
  9 10  1  0
 10 11  2  0
 10 12  1  0
 12 13  1  0
 13 14  1  0
 14 15  1  0
 15 16  1  0
 16 17  1  0
  9 18  2  0
  4 19  2  0
 19 20  1  0
 20 21  2  0
 21 22  1  0
 22 23  1  0
 23 24  2  0
 24 25  1  0
 25 26  2  0
 26 27  1  0
 27 28  2  0
 22 29  2  0
 29 30  1  0
 30 31  2  0
 31  2  1  0
 18  5  1  0
 31 20  1  0
 17 12  1  0
 28 23  1  0
  3 32  1  0
  3 33  1  0
  6 34  1  0
  7 35  1  0
  8 36  1  0
 13 37  1  0
 13 38  1  0
 14 39  1  0
 14 40  1  0
 16 41  1  0
 16 42  1  0
 17 43  1  0
 17 44  1  0
 18 45  1  0
 21 46  1  0
 24 47  1  0
 25 48  1  0
 26 49  1  0
 27 50  1  0
 28 51  1  0
 29 52  1  0
 30 53  1  0
M  END
>  <smiles>  (14) 
O=C1CC(c2cccc(C(=O)N3CCOCC3)c2)=Nc2cc(-c3ccccc3)ccc21

>  <score_type>  (14) 
oracle

>  <origin>  (14) 
autodockgpu

>  <m_score__min__energy>  (14) 
-9.7200000000000006

>  <m_primary>  (14) 
energy

>  <rmsd>  (14) 
7.251939018408431

>  <m_score__min__rmsd>  (14) 
7.251939018408431

>  <meeko>  (14) 
{"free_energy": -9.51, "intermolecular_energy": -10.4, "internal_energy": -0.96, "cluster_size": 50, "cluster_id": 1, "rank_in_cluster": 48}

>  <energy>  (14) 
-9.7

>  <cluster_rmsd>  (14) 
0.05

>  <cluster>  (14) 
1

$$$$

     RDKit          3D

 53 57  0  0  0  0  0  0  0  0999 V2000
  137.1200   72.4320  220.8890 O   0  0  0  0  0  0  0  0  0  0  0  0
  138.2520   72.7040  221.3630 C   0  0  0  0  0  0  0  0  0  0  0  0
  139.0670   73.7350  220.6790 C   0  0  0  0  0  0  0  0  0  0  0  0
  140.3570   73.8970  221.3890 C   0  0  0  0  0  0  0  0  0  0  0  0
  141.3130   74.8870  220.8440 C   0  0  0  0  0  0  0  0  0  0  0  0
  142.5260   74.4850  220.3070 C   0  0  0  0  0  0  0  0  0  0  0  0
  143.4170   75.4170  219.8000 C   0  0  0  0  0  0  0  0  0  0  0  0
  143.0990   76.7700  219.8250 C   0  0  0  0  0  0  0  0  0  0  0  0
  141.8960   77.1970  220.3550 C   0  0  0  0  0  0  0  0  0  0  0  0
  141.5010   78.5950  220.4120 C   0  0  0  0  0  0  0  0  0  0  0  0
  140.8460   79.0640  219.4490 O   0  0  0  0  0  0  0  0  0  0  0  0
  141.8070   79.4650  221.4870 N   0  0  0  0  0  0  0  0  0  0  0  0
  141.3570   80.8570  221.4420 C   0  0  0  0  0  0  0  0  0  0  0  0
  140.5210   81.0100  222.7250 C   0  0  0  0  0  0  0  0  0  0  0  0
  141.2760   80.6480  223.8300 O   0  0  0  0  0  0  0  0  0  0  0  0
  141.5530   79.2710  223.8210 C   0  0  0  0  0  0  0  0  0  0  0  0
  142.5510   79.0780  222.6700 C   0  0  0  0  0  0  0  0  0  0  0  0
  141.0380   76.2400  220.8500 C   0  0  0  0  0  0  0  0  0  0  0  0
  140.7010   73.2390  222.4420 N   0  0  0  0  0  0  0  0  0  0  0  0
  139.9190   72.2640  223.0870 C   0  0  0  0  0  0  0  0  0  0  0  0
  140.3750   71.6070  224.2150 C   0  0  0  0  0  0  0  0  0  0  0  0
  139.5740   70.6460  224.8250 C   0  0  0  0  0  0  0  0  0  0  0  0
  140.0960   69.9770  226.0100 C   0  0  0  0  0  0  0  0  0  0  0  0
  140.5250   70.7810  227.0650 C   0  0  0  0  0  0  0  0  0  0  0  0
  141.0270   70.2010  228.2110 C   0  0  0  0  0  0  0  0  0  0  0  0
  141.0890   68.8320  228.2790 C   0  0  0  0  0  0  0  0  0  0  0  0
  140.6730   68.0370  227.2560 C   0  0  0  0  0  0  0  0  0  0  0  0
  140.1620   68.5870  226.0850 C   0  0  0  0  0  0  0  0  0  0  0  0
  138.3250   70.3590  224.2960 C   0  0  0  0  0  0  0  0  0  0  0  0
  137.8880   71.0250  223.1700 C   0  0  0  0  0  0  0  0  0  0  0  0
  138.6760   71.9830  222.5520 C   0  0  0  0  0  0  0  0  0  0  0  0
  139.2564   73.4234  219.6412 H   0  0  0  0  0  0  0  0  0  0  0  0
  138.5246   74.6920  220.6817 H   0  0  0  0  0  0  0  0  0  0  0  0
  142.7837   73.4159  220.2832 H   0  0  0  0  0  0  0  0  0  0  0  0
  144.3771   75.0860  219.3773 H   0  0  0  0  0  0  0  0  0  0  0  0
  143.8095   77.5058  219.4203 H   0  0  0  0  0  0  0  0  0  0  0  0
  142.2138   81.5469  221.4471 H   0  0  0  0  0  0  0  0  0  0  0  0
  140.7876   81.0924  220.5308 H   0  0  0  0  0  0  0  0  0  0  0  0
  140.2023   82.0577  222.8292 H   0  0  0  0  0  0  0  0  0  0  0  0
  139.6390   80.3559  222.6609 H   0  0  0  0  0  0  0  0  0  0  0  0
  141.9993   78.9595  224.7769 H   0  0  0  0  0  0  0  0  0  0  0  0
  140.6441   78.6659  223.6877 H   0  0  0  0  0  0  0  0  0  0  0  0
  143.4321   79.7225  222.8052 H   0  0  0  0  0  0  0  0  0  0  0  0
  142.9321   78.0478  222.6104 H   0  0  0  0  0  0  0  0  0  0  0  0
  140.0791   76.5726  221.2743 H   0  0  0  0  0  0  0  0  0  0  0  0
  141.3667   71.8429  224.6285 H   0  0  0  0  0  0  0  0  0  0  0  0
  140.4632   71.8762  226.9835 H   0  0  0  0  0  0  0  0  0  0  0  0
  141.3700   70.8219  229.0517 H   0  0  0  0  0  0  0  0  0  0  0  0
  141.4879   68.3619  229.1900 H   0  0  0  0  0  0  0  0  0  0  0  0
  140.7418   66.9438  227.3565 H   0  0  0  0  0  0  0  0  0  0  0  0
  139.8242   67.9515  225.2531 H   0  0  0  0  0  0  0  0  0  0  0  0
  137.6845   69.6025  224.7729 H   0  0  0  0  0  0  0  0  0  0  0  0
  136.8963   70.7916  222.7551 H   0  0  0  0  0  0  0  0  0  0  0  0
  1  2  2  0
  2  3  1  0
  3  4  1  0
  4  5  1  0
  5  6  2  0
  6  7  1  0
  7  8  2  0
  8  9  1  0
  9 10  1  0
 10 11  2  0
 10 12  1  0
 12 13  1  0
 13 14  1  0
 14 15  1  0
 15 16  1  0
 16 17  1  0
  9 18  2  0
  4 19  2  0
 19 20  1  0
 20 21  2  0
 21 22  1  0
 22 23  1  0
 23 24  2  0
 24 25  1  0
 25 26  2  0
 26 27  1  0
 27 28  2  0
 22 29  2  0
 29 30  1  0
 30 31  2  0
 31  2  1  0
 18  5  1  0
 31 20  1  0
 17 12  1  0
 28 23  1  0
  3 32  1  0
  3 33  1  0
  6 34  1  0
  7 35  1  0
  8 36  1  0
 13 37  1  0
 13 38  1  0
 14 39  1  0
 14 40  1  0
 16 41  1  0
 16 42  1  0
 17 43  1  0
 17 44  1  0
 18 45  1  0
 21 46  1  0
 24 47  1  0
 25 48  1  0
 26 49  1  0
 27 50  1  0
 28 51  1  0
 29 52  1  0
 30 53  1  0
M  END
>  <smiles>  (15) 
O=C1CC(c2cccc(C(=O)N3CCOCC3)c2)=Nc2cc(-c3ccccc3)ccc21

>  <score_type>  (15) 
oracle

>  <origin>  (15) 
autodockgpu

>  <m_score__min__energy>  (15) 
-9.7200000000000006

>  <m_primary>  (15) 
energy

>  <rmsd>  (15) 
7.3172983820360935

>  <m_score__min__rmsd>  (15) 
7.3172983820360935

>  <meeko>  (15) 
{"free_energy": -9.69, "intermolecular_energy": -10.59, "internal_energy": -1.02, "cluster_size": 50, "cluster_id": 1, "rank_in_cluster": 26}

>  <energy>  (15) 
-9.7

>  <cluster_rmsd>  (15) 
0.07

>  <cluster>  (15) 
1

$$$$

     RDKit          3D

 53 57  0  0  0  0  0  0  0  0999 V2000
  137.1490   72.3670  220.8980 O   0  0  0  0  0  0  0  0  0  0  0  0
  138.2740   72.6540  221.3780 C   0  0  0  0  0  0  0  0  0  0  0  0
  139.0850   73.6850  220.6890 C   0  0  0  0  0  0  0  0  0  0  0  0
  140.3680   73.8680  221.4070 C   0  0  0  0  0  0  0  0  0  0  0  0
  141.3190   74.8610  220.8580 C   0  0  0  0  0  0  0  0  0  0  0  0
  142.5340   74.4630  220.3210 C   0  0  0  0  0  0  0  0  0  0  0  0
  143.4190   75.3980  219.8100 C   0  0  0  0  0  0  0  0  0  0  0  0
  143.0950   76.7490  219.8320 C   0  0  0  0  0  0  0  0  0  0  0  0
  141.8900   77.1720  220.3610 C   0  0  0  0  0  0  0  0  0  0  0  0
  141.4890   78.5680  220.4140 C   0  0  0  0  0  0  0  0  0  0  0  0
  140.8240   79.0290  219.4540 O   0  0  0  0  0  0  0  0  0  0  0  0
  141.7980   79.4450  221.4830 N   0  0  0  0  0  0  0  0  0  0  0  0
  141.3410   80.8340  221.4340 C   0  0  0  0  0  0  0  0  0  0  0  0
  140.5140   80.9890  222.7220 C   0  0  0  0  0  0  0  0  0  0  0  0
  141.2800   80.6370  223.8230 O   0  0  0  0  0  0  0  0  0  0  0  0
  141.5640   79.2620  223.8190 C   0  0  0  0  0  0  0  0  0  0  0  0
  142.5530   79.0680  222.6620 C   0  0  0  0  0  0  0  0  0  0  0  0
  141.0370   76.2120  220.8600 C   0  0  0  0  0  0  0  0  0  0  0  0
  140.7100   73.2240  222.4690 N   0  0  0  0  0  0  0  0  0  0  0  0
  139.9330   72.2490  223.1190 C   0  0  0  0  0  0  0  0  0  0  0  0
  140.3870   71.6080  224.2570 C   0  0  0  0  0  0  0  0  0  0  0  0
  139.5890   70.6460  224.8710 C   0  0  0  0  0  0  0  0  0  0  0  0
  140.1090   69.9950  226.0670 C   0  0  0  0  0  0  0  0  0  0  0  0
  140.1290   68.6010  226.0820 C   0  0  0  0  0  0  0  0  0  0  0  0
  140.6110   67.9330  227.1880 C   0  0  0  0  0  0  0  0  0  0  0  0
  141.0630   68.6690  228.2530 C   0  0  0  0  0  0  0  0  0  0  0  0
  141.0480   70.0300  228.2510 C   0  0  0  0  0  0  0  0  0  0  0  0
  140.5680   70.7370  227.1540 C   0  0  0  0  0  0  0  0  0  0  0  0
  138.3470   70.3420  224.3360 C   0  0  0  0  0  0  0  0  0  0  0  0
  137.9130   70.9920  223.2000 C   0  0  0  0  0  0  0  0  0  0  0  0
  138.6960   71.9500  222.5770 C   0  0  0  0  0  0  0  0  0  0  0  0
  139.2857   73.3635  219.6564 H   0  0  0  0  0  0  0  0  0  0  0  0
  138.5335   74.6367  220.6770 H   0  0  0  0  0  0  0  0  0  0  0  0
  142.7973   73.3952  220.3007 H   0  0  0  0  0  0  0  0  0  0  0  0
  144.3798   75.0705  219.3861 H   0  0  0  0  0  0  0  0  0  0  0  0
  143.8023   77.4870  219.4257 H   0  0  0  0  0  0  0  0  0  0  0  0
  142.1943   81.5282  221.4293 H   0  0  0  0  0  0  0  0  0  0  0  0
  140.7639   81.0621  220.5257 H   0  0  0  0  0  0  0  0  0  0  0  0
  140.1901   82.0354  222.8232 H   0  0  0  0  0  0  0  0  0  0  0  0
  139.6351   80.3298  222.6681 H   0  0  0  0  0  0  0  0  0  0  0  0
  142.0195   78.9579  224.7729 H   0  0  0  0  0  0  0  0  0  0  0  0
  140.6572   78.6516  223.6961 H   0  0  0  0  0  0  0  0  0  0  0  0
  143.4319   79.7175  222.7868 H   0  0  0  0  0  0  0  0  0  0  0  0
  142.9386   78.0394  222.6048 H   0  0  0  0  0  0  0  0  0  0  0  0
  140.0768   76.5410  221.2840 H   0  0  0  0  0  0  0  0  0  0  0  0
  141.3735   71.8567  224.6752 H   0  0  0  0  0  0  0  0  0  0  0  0
  139.7611   68.0352  225.2134 H   0  0  0  0  0  0  0  0  0  0  0  0
  140.6324   66.8335  227.2153 H   0  0  0  0  0  0  0  0  0  0  0  0
  141.4503   68.1424  229.1377 H   0  0  0  0  0  0  0  0  0  0  0  0
  141.4206   70.5780  229.1290 H   0  0  0  0  0  0  0  0  0  0  0  0
  140.5512   71.8368  227.1445 H   0  0  0  0  0  0  0  0  0  0  0  0
  137.7097   69.5848  224.8160 H   0  0  0  0  0  0  0  0  0  0  0  0
  136.9265   70.7452  222.7806 H   0  0  0  0  0  0  0  0  0  0  0  0
  1  2  2  0
  2  3  1  0
  3  4  1  0
  4  5  1  0
  5  6  2  0
  6  7  1  0
  7  8  2  0
  8  9  1  0
  9 10  1  0
 10 11  2  0
 10 12  1  0
 12 13  1  0
 13 14  1  0
 14 15  1  0
 15 16  1  0
 16 17  1  0
  9 18  2  0
  4 19  2  0
 19 20  1  0
 20 21  2  0
 21 22  1  0
 22 23  1  0
 23 24  2  0
 24 25  1  0
 25 26  2  0
 26 27  1  0
 27 28  2  0
 22 29  2  0
 29 30  1  0
 30 31  2  0
 31  2  1  0
 18  5  1  0
 31 20  1  0
 17 12  1  0
 28 23  1  0
  3 32  1  0
  3 33  1  0
  6 34  1  0
  7 35  1  0
  8 36  1  0
 13 37  1  0
 13 38  1  0
 14 39  1  0
 14 40  1  0
 16 41  1  0
 16 42  1  0
 17 43  1  0
 17 44  1  0
 18 45  1  0
 21 46  1  0
 24 47  1  0
 25 48  1  0
 26 49  1  0
 27 50  1  0
 28 51  1  0
 29 52  1  0
 30 53  1  0
M  END
>  <smiles>  (16) 
O=C1CC(c2cccc(C(=O)N3CCOCC3)c2)=Nc2cc(-c3ccccc3)ccc21

>  <score_type>  (16) 
oracle

>  <origin>  (16) 
autodockgpu

>  <m_score__min__energy>  (16) 
-9.7200000000000006

>  <m_primary>  (16) 
energy

>  <rmsd>  (16) 
7.2852398319530565

>  <m_score__min__rmsd>  (16) 
7.2852398319530565

>  <meeko>  (16) 
{"free_energy": -9.69, "intermolecular_energy": -10.59, "internal_energy": -1.02, "cluster_size": 50, "cluster_id": 1, "rank_in_cluster": 28}

>  <energy>  (16) 
-9.7

>  <cluster_rmsd>  (16) 
0.07

>  <cluster>  (16) 
1

$$$$

     RDKit          3D

 53 57  0  0  0  0  0  0  0  0999 V2000
  137.1190   72.4170  220.9190 O   0  0  0  0  0  0  0  0  0  0  0  0
  138.2530   72.6920  221.3850 C   0  0  0  0  0  0  0  0  0  0  0  0
  139.0620   73.7240  220.6950 C   0  0  0  0  0  0  0  0  0  0  0  0
  140.3560   73.8910  221.3960 C   0  0  0  0  0  0  0  0  0  0  0  0
  141.3060   74.8830  220.8440 C   0  0  0  0  0  0  0  0  0  0  0  0
  142.5190   74.4830  220.3040 C   0  0  0  0  0  0  0  0  0  0  0  0
  143.4040   75.4170  219.7900 C   0  0  0  0  0  0  0  0  0  0  0  0
  143.0810   76.7680  219.8110 C   0  0  0  0  0  0  0  0  0  0  0  0
  141.8780   77.1930  220.3420 C   0  0  0  0  0  0  0  0  0  0  0  0
  141.4770   78.5890  220.3950 C   0  0  0  0  0  0  0  0  0  0  0  0
  140.8090   79.0490  219.4370 O   0  0  0  0  0  0  0  0  0  0  0  0
  141.7910   79.4670  221.4620 N   0  0  0  0  0  0  0  0  0  0  0  0
  141.3340   80.8570  221.4120 C   0  0  0  0  0  0  0  0  0  0  0  0
  140.5120   81.0140  222.7040 C   0  0  0  0  0  0  0  0  0  0  0  0
  141.2810   80.6630  223.8020 O   0  0  0  0  0  0  0  0  0  0  0  0
  141.5640   79.2870  223.7990 C   0  0  0  0  0  0  0  0  0  0  0  0
  142.5500   79.0910  222.6390 C   0  0  0  0  0  0  0  0  0  0  0  0
  141.0250   76.2340  220.8450 C   0  0  0  0  0  0  0  0  0  0  0  0
  140.7080   73.2350  222.4470 N   0  0  0  0  0  0  0  0  0  0  0  0
  139.9330   72.2580  223.0990 C   0  0  0  0  0  0  0  0  0  0  0  0
  140.3980   71.6040  224.2240 C   0  0  0  0  0  0  0  0  0  0  0  0
  139.6030   70.6420  224.8410 C   0  0  0  0  0  0  0  0  0  0  0  0
  140.1340   69.9750  226.0230 C   0  0  0  0  0  0  0  0  0  0  0  0
  140.5390   70.7790  227.0870 C   0  0  0  0  0  0  0  0  0  0  0  0
  141.0480   70.2020  228.2310 C   0  0  0  0  0  0  0  0  0  0  0  0
  141.1420   68.8340  228.2870 C   0  0  0  0  0  0  0  0  0  0  0  0
  140.7510   68.0380  227.2550 C   0  0  0  0  0  0  0  0  0  0  0  0
  140.2340   68.5860  226.0870 C   0  0  0  0  0  0  0  0  0  0  0  0
  138.3510   70.3510  224.3200 C   0  0  0  0  0  0  0  0  0  0  0  0
  137.9060   71.0150  223.1960 C   0  0  0  0  0  0  0  0  0  0  0  0
  138.6870   71.9730  222.5720 C   0  0  0  0  0  0  0  0  0  0  0  0
  139.2458   73.4113  219.6565 H   0  0  0  0  0  0  0  0  0  0  0  0
  138.5172   74.6796  220.7007 H   0  0  0  0  0  0  0  0  0  0  0  0
  142.7809   73.4148  220.2835 H   0  0  0  0  0  0  0  0  0  0  0  0
  144.3637   75.0883  219.3647 H   0  0  0  0  0  0  0  0  0  0  0  0
  143.7880   77.5048  219.4020 H   0  0  0  0  0  0  0  0  0  0  0  0
  142.1874   81.5510  221.4026 H   0  0  0  0  0  0  0  0  0  0  0  0
  140.7535   81.0839  220.5056 H   0  0  0  0  0  0  0  0  0  0  0  0
  140.1893   82.0607  222.8052 H   0  0  0  0  0  0  0  0  0  0  0  0
  139.6327   80.3550  222.6542 H   0  0  0  0  0  0  0  0  0  0  0  0
  142.0219   78.9837  224.7520 H   0  0  0  0  0  0  0  0  0  0  0  0
  140.6564   78.6771  223.6795 H   0  0  0  0  0  0  0  0  0  0  0  0
  143.4296   79.7403  222.7603 H   0  0  0  0  0  0  0  0  0  0  0  0
  142.9354   78.0623  222.5819 H   0  0  0  0  0  0  0  0  0  0  0  0
  140.0662   76.5643  221.2712 H   0  0  0  0  0  0  0  0  0  0  0  0
  141.3920   71.8425  224.6303 H   0  0  0  0  0  0  0  0  0  0  0  0
  140.4526   71.8732  227.0140 H   0  0  0  0  0  0  0  0  0  0  0  0
  141.3712   70.8236  229.0790 H   0  0  0  0  0  0  0  0  0  0  0  0
  141.5468   68.3655  229.1962 H   0  0  0  0  0  0  0  0  0  0  0  0
  140.8454   66.9459  227.3464 H   0  0  0  0  0  0  0  0  0  0  0  0
  139.9167   67.9498  225.2476 H   0  0  0  0  0  0  0  0  0  0  0  0
  137.7152   69.5934  224.8015 H   0  0  0  0  0  0  0  0  0  0  0  0
  136.9122   70.7791  222.7877 H   0  0  0  0  0  0  0  0  0  0  0  0
  1  2  2  0
  2  3  1  0
  3  4  1  0
  4  5  1  0
  5  6  2  0
  6  7  1  0
  7  8  2  0
  8  9  1  0
  9 10  1  0
 10 11  2  0
 10 12  1  0
 12 13  1  0
 13 14  1  0
 14 15  1  0
 15 16  1  0
 16 17  1  0
  9 18  2  0
  4 19  2  0
 19 20  1  0
 20 21  2  0
 21 22  1  0
 22 23  1  0
 23 24  2  0
 24 25  1  0
 25 26  2  0
 26 27  1  0
 27 28  2  0
 22 29  2  0
 29 30  1  0
 30 31  2  0
 31  2  1  0
 18  5  1  0
 31 20  1  0
 17 12  1  0
 28 23  1  0
  3 32  1  0
  3 33  1  0
  6 34  1  0
  7 35  1  0
  8 36  1  0
 13 37  1  0
 13 38  1  0
 14 39  1  0
 14 40  1  0
 16 41  1  0
 16 42  1  0
 17 43  1  0
 17 44  1  0
 18 45  1  0
 21 46  1  0
 24 47  1  0
 25 48  1  0
 26 49  1  0
 27 50  1  0
 28 51  1  0
 29 52  1  0
 30 53  1  0
M  END
>  <smiles>  (17) 
O=C1CC(c2cccc(C(=O)N3CCOCC3)c2)=Nc2cc(-c3ccccc3)ccc21

>  <score_type>  (17) 
oracle

>  <origin>  (17) 
autodockgpu

>  <m_score__min__energy>  (17) 
-9.7200000000000006

>  <m_primary>  (17) 
energy

>  <rmsd>  (17) 
7.3033676613813565

>  <m_score__min__rmsd>  (17) 
7.3033676613813565

>  <meeko>  (17) 
{"free_energy": -9.68, "intermolecular_energy": -10.57, "internal_energy": -1.02, "cluster_size": 50, "cluster_id": 1, "rank_in_cluster": 36}

>  <energy>  (17) 
-9.7

>  <cluster_rmsd>  (17) 
0.06

>  <cluster>  (17) 
1

$$$$

     RDKit          3D

 53 57  0  0  0  0  0  0  0  0999 V2000
  137.1960   72.3270  220.7940 O   0  0  0  0  0  0  0  0  0  0  0  0
  138.3090   72.6350  221.2880 C   0  0  0  0  0  0  0  0  0  0  0  0
  139.1160   73.6720  220.6040 C   0  0  0  0  0  0  0  0  0  0  0  0
  140.3850   73.8790  221.3390 C   0  0  0  0  0  0  0  0  0  0  0  0
  141.3290   74.8810  220.7970 C   0  0  0  0  0  0  0  0  0  0  0  0
  142.5400   74.4930  220.2430 C   0  0  0  0  0  0  0  0  0  0  0  0
  143.4200   75.4360  219.7390 C   0  0  0  0  0  0  0  0  0  0  0  0
  143.0940   76.7870  219.7840 C   0  0  0  0  0  0  0  0  0  0  0  0
  141.8940   77.2010  220.3300 C   0  0  0  0  0  0  0  0  0  0  0  0
  141.4910   78.5940  220.4080 C   0  0  0  0  0  0  0  0  0  0  0  0
  140.8190   79.0700  219.4610 O   0  0  0  0  0  0  0  0  0  0  0  0
  141.8080   79.4550  221.4880 N   0  0  0  0  0  0  0  0  0  0  0  0
  141.3480   80.8440  221.4640 C   0  0  0  0  0  0  0  0  0  0  0  0
  140.5310   80.9790  222.7610 C   0  0  0  0  0  0  0  0  0  0  0  0
  141.3050   80.6100  223.8510 O   0  0  0  0  0  0  0  0  0  0  0  0
  141.5900   79.2350  223.8230 C   0  0  0  0  0  0  0  0  0  0  0  0
  142.5720   79.0600  222.6560 C   0  0  0  0  0  0  0  0  0  0  0  0
  141.0460   76.2320  220.8230 C   0  0  0  0  0  0  0  0  0  0  0  0
  140.7200   73.2480  222.4120 N   0  0  0  0  0  0  0  0  0  0  0  0
  139.9460   72.2670  223.0580 C   0  0  0  0  0  0  0  0  0  0  0  0
  140.3920   71.6420  224.2080 C   0  0  0  0  0  0  0  0  0  0  0  0
  139.6000   70.6740  224.8180 C   0  0  0  0  0  0  0  0  0  0  0  0
  140.1100   70.0390  226.0270 C   0  0  0  0  0  0  0  0  0  0  0  0
  140.5740   70.8730  227.0430 C   0  0  0  0  0  0  0  0  0  0  0  0
  141.0670   70.3260  228.2090 C   0  0  0  0  0  0  0  0  0  0  0  0
  141.0850   68.9600  228.3360 C   0  0  0  0  0  0  0  0  0  0  0  0
  140.6350   68.1360  227.3510 C   0  0  0  0  0  0  0  0  0  0  0  0
  140.1320   68.6520  226.1610 C   0  0  0  0  0  0  0  0  0  0  0  0
  138.3700   70.3470  224.2660 C   0  0  0  0  0  0  0  0  0  0  0  0
  137.9440   70.9810  223.1180 C   0  0  0  0  0  0  0  0  0  0  0  0
  138.7230   71.9460  222.5000 C   0  0  0  0  0  0  0  0  0  0  0  0
  139.3368   73.3457  219.5770 H   0  0  0  0  0  0  0  0  0  0  0  0
  138.5513   74.6156  220.5772 H   0  0  0  0  0  0  0  0  0  0  0  0
  142.8039   73.4259  220.2036 H   0  0  0  0  0  0  0  0  0  0  0  0
  144.3777   75.1160  219.3027 H   0  0  0  0  0  0  0  0  0  0  0  0
  143.7966   77.5318  219.3819 H   0  0  0  0  0  0  0  0  0  0  0  0
  142.2001   81.5396  221.4628 H   0  0  0  0  0  0  0  0  0  0  0  0
  140.7628   81.0842  220.5641 H   0  0  0  0  0  0  0  0  0  0  0  0
  140.2081   82.0237  222.8808 H   0  0  0  0  0  0  0  0  0  0  0  0
  139.6519   80.3204  222.7035 H   0  0  0  0  0  0  0  0  0  0  0  0
  142.0520   78.9160  224.7689 H   0  0  0  0  0  0  0  0  0  0  0  0
  140.6827   78.6261  223.6962 H   0  0  0  0  0  0  0  0  0  0  0  0
  143.4512   79.7083  222.7850 H   0  0  0  0  0  0  0  0  0  0  0  0
  142.9584   78.0329  222.5800 H   0  0  0  0  0  0  0  0  0  0  0  0
  140.0900   76.5536  221.2618 H   0  0  0  0  0  0  0  0  0  0  0  0
  141.3684   71.9088  224.6387 H   0  0  0  0  0  0  0  0  0  0  0  0
  140.5470   71.9652  226.9150 H   0  0  0  0  0  0  0  0  0  0  0  0
  141.4377   70.9707  229.0195 H   0  0  0  0  0  0  0  0  0  0  0  0
  141.4757   68.5167  229.2638 H   0  0  0  0  0  0  0  0  0  0  0  0
  140.6694   67.0464  227.4978 H   0  0  0  0  0  0  0  0  0  0  0  0
  139.7670   67.9929  225.3595 H   0  0  0  0  0  0  0  0  0  0  0  0
  137.7366   69.5844  224.7426 H   0  0  0  0  0  0  0  0  0  0  0  0
  136.9682   70.7159  222.6850 H   0  0  0  0  0  0  0  0  0  0  0  0
  1  2  2  0
  2  3  1  0
  3  4  1  0
  4  5  1  0
  5  6  2  0
  6  7  1  0
  7  8  2  0
  8  9  1  0
  9 10  1  0
 10 11  2  0
 10 12  1  0
 12 13  1  0
 13 14  1  0
 14 15  1  0
 15 16  1  0
 16 17  1  0
  9 18  2  0
  4 19  2  0
 19 20  1  0
 20 21  2  0
 21 22  1  0
 22 23  1  0
 23 24  2  0
 24 25  1  0
 25 26  2  0
 26 27  1  0
 27 28  2  0
 22 29  2  0
 29 30  1  0
 30 31  2  0
 31  2  1  0
 18  5  1  0
 31 20  1  0
 17 12  1  0
 28 23  1  0
  3 32  1  0
  3 33  1  0
  6 34  1  0
  7 35  1  0
  8 36  1  0
 13 37  1  0
 13 38  1  0
 14 39  1  0
 14 40  1  0
 16 41  1  0
 16 42  1  0
 17 43  1  0
 17 44  1  0
 18 45  1  0
 21 46  1  0
 24 47  1  0
 25 48  1  0
 26 49  1  0
 27 50  1  0
 28 51  1  0
 29 52  1  0
 30 53  1  0
M  END
>  <smiles>  (18) 
O=C1CC(c2cccc(C(=O)N3CCOCC3)c2)=Nc2cc(-c3ccccc3)ccc21

>  <score_type>  (18) 
oracle

>  <origin>  (18) 
autodockgpu

>  <m_score__min__energy>  (18) 
-9.7200000000000006

>  <m_primary>  (18) 
energy

>  <rmsd>  (18) 
7.31769296863135

>  <m_score__min__rmsd>  (18) 
7.31769296863135

>  <meeko>  (18) 
{"free_energy": -9.7, "intermolecular_energy": -10.59, "internal_energy": -1.02, "cluster_size": 50, "cluster_id": 1, "rank_in_cluster": 15}

>  <energy>  (18) 
-9.7

>  <cluster_rmsd>  (18) 
0.09

>  <cluster>  (18) 
1

$$$$

     RDKit          3D

 53 57  0  0  0  0  0  0  0  0999 V2000
  137.2250   72.2370  220.7900 O   0  0  0  0  0  0  0  0  0  0  0  0
  138.3280   72.5700  221.2910 C   0  0  0  0  0  0  0  0  0  0  0  0
  139.1260   73.6080  220.5990 C   0  0  0  0  0  0  0  0  0  0  0  0
  140.3830   73.8470  221.3450 C   0  0  0  0  0  0  0  0  0  0  0  0
  141.3180   74.8550  220.7970 C   0  0  0  0  0  0  0  0  0  0  0  0
  142.5280   74.4740  220.2360 C   0  0  0  0  0  0  0  0  0  0  0  0
  143.3990   75.4230  219.7260 C   0  0  0  0  0  0  0  0  0  0  0  0
  143.0650   76.7710  219.7730 C   0  0  0  0  0  0  0  0  0  0  0  0
  141.8650   77.1780  220.3250 C   0  0  0  0  0  0  0  0  0  0  0  0
  141.4540   78.5690  220.4050 C   0  0  0  0  0  0  0  0  0  0  0  0
  140.7710   79.0390  219.4620 O   0  0  0  0  0  0  0  0  0  0  0  0
  141.7730   79.4330  221.4820 N   0  0  0  0  0  0  0  0  0  0  0  0
  141.3040   80.8190  221.4600 C   0  0  0  0  0  0  0  0  0  0  0  0
  140.4960   80.9490  222.7630 C   0  0  0  0  0  0  0  0  0  0  0  0
  141.2800   80.5870  223.8470 O   0  0  0  0  0  0  0  0  0  0  0  0
  141.5750   79.2140  223.8190 C   0  0  0  0  0  0  0  0  0  0  0  0
  142.5480   79.0440  222.6440 C   0  0  0  0  0  0  0  0  0  0  0  0
  141.0260   76.2040  220.8230 C   0  0  0  0  0  0  0  0  0  0  0  0
  140.7150   73.2390  222.4310 N   0  0  0  0  0  0  0  0  0  0  0  0
  139.9500   72.2560  223.0840 C   0  0  0  0  0  0  0  0  0  0  0  0
  140.3920   71.6570  224.2500 C   0  0  0  0  0  0  0  0  0  0  0  0
  139.6080   70.6860  224.8660 C   0  0  0  0  0  0  0  0  0  0  0  0
  140.1140   70.0800  226.0910 C   0  0  0  0  0  0  0  0  0  0  0  0
  140.1030   68.6880  226.1710 C   0  0  0  0  0  0  0  0  0  0  0  0
  140.5710   68.0610  227.3060 C   0  0  0  0  0  0  0  0  0  0  0  0
  141.0410   68.8360  228.3360 C   0  0  0  0  0  0  0  0  0  0  0  0
  141.0570   70.1950  228.2700 C   0  0  0  0  0  0  0  0  0  0  0  0
  140.5920   70.8610  227.1410 C   0  0  0  0  0  0  0  0  0  0  0  0
  138.3900   70.3320  224.3060 C   0  0  0  0  0  0  0  0  0  0  0  0
  137.9670   70.9410  223.1440 C   0  0  0  0  0  0  0  0  0  0  0  0
  138.7380   71.9070  222.5180 C   0  0  0  0  0  0  0  0  0  0  0  0
  139.3638   73.2684  219.5801 H   0  0  0  0  0  0  0  0  0  0  0  0
  138.5469   74.5419  220.5498 H   0  0  0  0  0  0  0  0  0  0  0  0
  142.7985   73.4085  220.1957 H   0  0  0  0  0  0  0  0  0  0  0  0
  144.3559   75.1091  219.2834 H   0  0  0  0  0  0  0  0  0  0  0  0
  143.7611   77.5201  219.3677 H   0  0  0  0  0  0  0  0  0  0  0  0
  142.1515   81.5202  221.4519 H   0  0  0  0  0  0  0  0  0  0  0  0
  140.7108   81.0551  220.5642 H   0  0  0  0  0  0  0  0  0  0  0  0
  140.1663   81.9914  222.8843 H   0  0  0  0  0  0  0  0  0  0  0  0
  139.6215   80.2836  222.7126 H   0  0  0  0  0  0  0  0  0  0  0  0
  142.0475   78.9002  224.7615 H   0  0  0  0  0  0  0  0  0  0  0  0
  140.6712   78.5982  223.7012 H   0  0  0  0  0  0  0  0  0  0  0  0
  143.4243   79.6977  222.7653 H   0  0  0  0  0  0  0  0  0  0  0  0
  142.9395   78.0190  222.5658 H   0  0  0  0  0  0  0  0  0  0  0  0
  140.0699   76.5196  221.2661 H   0  0  0  0  0  0  0  0  0  0  0  0
  141.3585   71.9468  224.6882 H   0  0  0  0  0  0  0  0  0  0  0  0
  139.7214   68.0910  225.3296 H   0  0  0  0  0  0  0  0  0  0  0  0
  140.5677   66.9638  227.3841 H   0  0  0  0  0  0  0  0  0  0  0  0
  141.4170   68.3428  229.2445 H   0  0  0  0  0  0  0  0  0  0  0  0
  141.4430   70.7749  229.1213 H   0  0  0  0  0  0  0  0  0  0  0  0
  140.6012   71.9592  227.0797 H   0  0  0  0  0  0  0  0  0  0  0  0
  137.7630   69.5673  224.7877 H   0  0  0  0  0  0  0  0  0  0  0  0
  136.9995   70.6548  222.7057 H   0  0  0  0  0  0  0  0  0  0  0  0
  1  2  2  0
  2  3  1  0
  3  4  1  0
  4  5  1  0
  5  6  2  0
  6  7  1  0
  7  8  2  0
  8  9  1  0
  9 10  1  0
 10 11  2  0
 10 12  1  0
 12 13  1  0
 13 14  1  0
 14 15  1  0
 15 16  1  0
 16 17  1  0
  9 18  2  0
  4 19  2  0
 19 20  1  0
 20 21  2  0
 21 22  1  0
 22 23  1  0
 23 24  2  0
 24 25  1  0
 25 26  2  0
 26 27  1  0
 27 28  2  0
 22 29  2  0
 29 30  1  0
 30 31  2  0
 31  2  1  0
 18  5  1  0
 31 20  1  0
 17 12  1  0
 28 23  1  0
  3 32  1  0
  3 33  1  0
  6 34  1  0
  7 35  1  0
  8 36  1  0
 13 37  1  0
 13 38  1  0
 14 39  1  0
 14 40  1  0
 16 41  1  0
 16 42  1  0
 17 43  1  0
 17 44  1  0
 18 45  1  0
 21 46  1  0
 24 47  1  0
 25 48  1  0
 26 49  1  0
 27 50  1  0
 28 51  1  0
 29 52  1  0
 30 53  1  0
M  END
>  <smiles>  (19) 
O=C1CC(c2cccc(C(=O)N3CCOCC3)c2)=Nc2cc(-c3ccccc3)ccc21

>  <score_type>  (19) 
oracle

>  <origin>  (19) 
autodockgpu

>  <m_score__min__energy>  (19) 
-9.7200000000000006

>  <m_primary>  (19) 
energy

>  <rmsd>  (19) 
7.282972097052314

>  <m_score__min__rmsd>  (19) 
7.282972097052314

>  <meeko>  (19) 
{"free_energy": -9.71, "intermolecular_energy": -10.6, "internal_energy": -1.02, "cluster_size": 50, "cluster_id": 1, "rank_in_cluster": 4}

>  <energy>  (19) 
-9.7

>  <cluster_rmsd>  (19) 
0.03

>  <cluster>  (19) 
1

$$$$

     RDKit          3D

 53 57  0  0  0  0  0  0  0  0999 V2000
  137.0610   72.7820  221.0240 O   0  0  0  0  0  0  0  0  0  0  0  0
  138.2370   72.9370  221.4380 C   0  0  0  0  0  0  0  0  0  0  0  0
  139.1020   73.9150  220.7390 C   0  0  0  0  0  0  0  0  0  0  0  0
  140.4390   73.9390  221.3750 C   0  0  0  0  0  0  0  0  0  0  0  0
  141.4480   74.8590  220.8050 C   0  0  0  0  0  0  0  0  0  0  0  0
  142.6840   74.3910  220.3850 C   0  0  0  0  0  0  0  0  0  0  0  0
  143.6240   75.2590  219.8530 C   0  0  0  0  0  0  0  0  0  0  0  0
  143.3340   76.6130  219.7350 C   0  0  0  0  0  0  0  0  0  0  0  0
  142.1090   77.1050  220.1450 C   0  0  0  0  0  0  0  0  0  0  0  0
  141.7410   78.5080  220.0500 C   0  0  0  0  0  0  0  0  0  0  0  0
  141.3310   78.9380  218.9430 O   0  0  0  0  0  0  0  0  0  0  0  0
  141.8130   79.4250  221.1270 N   0  0  0  0  0  0  0  0  0  0  0  0
  141.4140   80.8180  220.9190 C   0  0  0  0  0  0  0  0  0  0  0  0
  140.3130   81.0400  221.9700 C   0  0  0  0  0  0  0  0  0  0  0  0
  140.7900   80.7240  223.2330 O   0  0  0  0  0  0  0  0  0  0  0  0
  141.0330   79.3460  223.3480 C   0  0  0  0  0  0  0  0  0  0  0  0
  142.2620   79.0870  222.4640 C   0  0  0  0  0  0  0  0  0  0  0  0
  141.2020   76.2110  220.6700 C   0  0  0  0  0  0  0  0  0  0  0  0
  140.7820   73.2150  222.3850 N   0  0  0  0  0  0  0  0  0  0  0  0
  139.9530   72.2900  223.0460 C   0  0  0  0  0  0  0  0  0  0  0  0
  140.4120   71.5560  224.1240 C   0  0  0  0  0  0  0  0  0  0  0  0
  139.5630   70.6480  224.7500 C   0  0  0  0  0  0  0  0  0  0  0  0
  140.0890   69.8930  225.8810 C   0  0  0  0  0  0  0  0  0  0  0  0
  140.0910   68.5030  225.7810 C   0  0  0  0  0  0  0  0  0  0  0  0
  140.5790   67.7400  226.8200 C   0  0  0  0  0  0  0  0  0  0  0  0
  141.0530   68.3800  227.9370 C   0  0  0  0  0  0  0  0  0  0  0  0
  141.0560   69.7360  228.0470 C   0  0  0  0  0  0  0  0  0  0  0  0
  140.5710   70.5380  227.0190 C   0  0  0  0  0  0  0  0  0  0  0  0
  138.2650   70.4910  224.2880 C   0  0  0  0  0  0  0  0  0  0  0  0
  137.8270   71.2330  223.2110 C   0  0  0  0  0  0  0  0  0  0  0  0
  138.6610   72.1390  222.5770 C   0  0  0  0  0  0  0  0  0  0  0  0
  139.2041   73.6244  219.6830 H   0  0  0  0  0  0  0  0  0  0  0  0
  138.6487   74.9152  220.8034 H   0  0  0  0  0  0  0  0  0  0  0  0
  142.9205   73.3205  220.4750 H   0  0  0  0  0  0  0  0  0  0  0  0
  144.6011   74.8758  219.5236 H   0  0  0  0  0  0  0  0  0  0  0  0
  144.0842   77.2977  219.3126 H   0  0  0  0  0  0  0  0  0  0  0  0
  142.2614   81.4987  221.0882 H   0  0  0  0  0  0  0  0  0  0  0  0
  141.0711   81.0156  219.8927 H   0  0  0  0  0  0  0  0  0  0  0  0
  140.0004   82.0945  221.9524 H   0  0  0  0  0  0  0  0  0  0  0  0
  139.4556   80.3918  221.7361 H   0  0  0  0  0  0  0  0  0  0  0  0
  141.2442   79.0760  224.3933 H   0  0  0  0  0  0  0  0  0  0  0  0
  140.1655   78.7450  223.0379 H   0  0  0  0  0  0  0  0  0  0  0  0
  143.1032   79.7277  222.7672 H   0  0  0  0  0  0  0  0  0  0  0  0
  142.6251   78.0513  222.5384 H   0  0  0  0  0  0  0  0  0  0  0  0
  140.2261   76.5961  221.0005 H   0  0  0  0  0  0  0  0  0  0  0  0
  141.4426   71.6889  224.4849 H   0  0  0  0  0  0  0  0  0  0  0  0
  139.7037   68.0155  224.8742 H   0  0  0  0  0  0  0  0  0  0  0  0
  140.5882   66.6420  226.7550 H   0  0  0  0  0  0  0  0  0  0  0  0
  141.4432   67.7774  228.7705 H   0  0  0  0  0  0  0  0  0  0  0  0
  141.4475   70.2049  228.9618 H   0  0  0  0  0  0  0  0  0  0  0  0
  140.5679   71.6350  227.1006 H   0  0  0  0  0  0  0  0  0  0  0  0
  137.5870   69.7772  224.7787 H   0  0  0  0  0  0  0  0  0  0  0  0
  136.7965   71.1029  222.8490 H   0  0  0  0  0  0  0  0  0  0  0  0
  1  2  2  0
  2  3  1  0
  3  4  1  0
  4  5  1  0
  5  6  2  0
  6  7  1  0
  7  8  2  0
  8  9  1  0
  9 10  1  0
 10 11  2  0
 10 12  1  0
 12 13  1  0
 13 14  1  0
 14 15  1  0
 15 16  1  0
 16 17  1  0
  9 18  2  0
  4 19  2  0
 19 20  1  0
 20 21  2  0
 21 22  1  0
 22 23  1  0
 23 24  2  0
 24 25  1  0
 25 26  2  0
 26 27  1  0
 27 28  2  0
 22 29  2  0
 29 30  1  0
 30 31  2  0
 31  2  1  0
 18  5  1  0
 31 20  1  0
 17 12  1  0
 28 23  1  0
  3 32  1  0
  3 33  1  0
  6 34  1  0
  7 35  1  0
  8 36  1  0
 13 37  1  0
 13 38  1  0
 14 39  1  0
 14 40  1  0
 16 41  1  0
 16 42  1  0
 17 43  1  0
 17 44  1  0
 18 45  1  0
 21 46  1  0
 24 47  1  0
 25 48  1  0
 26 49  1  0
 27 50  1  0
 28 51  1  0
 29 52  1  0
 30 53  1  0
M  END
>  <smiles>  (20) 
O=C1CC(c2cccc(C(=O)N3CCOCC3)c2)=Nc2cc(-c3ccccc3)ccc21

>  <score_type>  (20) 
oracle

>  <origin>  (20) 
autodockgpu

>  <m_score__min__energy>  (20) 
-9.7200000000000006

>  <m_primary>  (20) 
energy

>  <rmsd>  (20) 
7.354414993318501

>  <m_score__min__rmsd>  (20) 
7.354414993318501

>  <meeko>  (20) 
{"free_energy": -9.57, "intermolecular_energy": -10.46, "internal_energy": -1.03, "cluster_size": 50, "cluster_id": 1, "rank_in_cluster": 46}

>  <energy>  (20) 
-9.7

>  <cluster_rmsd>  (20) 
0.08

>  <cluster>  (20) 
1

$$$$

     RDKit          3D

 53 57  0  0  0  0  0  0  0  0999 V2000
  137.2010   72.3120  220.7670 O   0  0  0  0  0  0  0  0  0  0  0  0
  138.3140   72.6220  221.2610 C   0  0  0  0  0  0  0  0  0  0  0  0
  139.1190   73.6590  220.5750 C   0  0  0  0  0  0  0  0  0  0  0  0
  140.3870   73.8690  221.3110 C   0  0  0  0  0  0  0  0  0  0  0  0
  141.3310   74.8710  220.7680 C   0  0  0  0  0  0  0  0  0  0  0  0
  142.5420   74.4830  220.2140 C   0  0  0  0  0  0  0  0  0  0  0  0
  143.4210   75.4270  219.7080 C   0  0  0  0  0  0  0  0  0  0  0  0
  143.0950   76.7770  219.7520 C   0  0  0  0  0  0  0  0  0  0  0  0
  141.8940   77.1910  220.2980 C   0  0  0  0  0  0  0  0  0  0  0  0
  141.4900   78.5840  220.3750 C   0  0  0  0  0  0  0  0  0  0  0  0
  140.8160   79.0580  219.4270 O   0  0  0  0  0  0  0  0  0  0  0  0
  141.8080   79.4470  221.4530 N   0  0  0  0  0  0  0  0  0  0  0  0
  141.3470   80.8360  221.4280 C   0  0  0  0  0  0  0  0  0  0  0  0
  140.5320   80.9710  222.7260 C   0  0  0  0  0  0  0  0  0  0  0  0
  141.3080   80.6050  223.8150 O   0  0  0  0  0  0  0  0  0  0  0  0
  141.5940   79.2300  223.7880 C   0  0  0  0  0  0  0  0  0  0  0  0
  142.5740   79.0550  222.6190 C   0  0  0  0  0  0  0  0  0  0  0  0
  141.0470   76.2220  220.7920 C   0  0  0  0  0  0  0  0  0  0  0  0
  140.7220   73.2420  222.3850 N   0  0  0  0  0  0  0  0  0  0  0  0
  139.9500   72.2610  223.0330 C   0  0  0  0  0  0  0  0  0  0  0  0
  140.3950   71.6390  224.1850 C   0  0  0  0  0  0  0  0  0  0  0  0
  139.6030   70.6710  224.7960 C   0  0  0  0  0  0  0  0  0  0  0  0
  140.1130   70.0400  226.0070 C   0  0  0  0  0  0  0  0  0  0  0  0
  140.5750   70.8760  227.0220 C   0  0  0  0  0  0  0  0  0  0  0  0
  141.0680   70.3330  228.1900 C   0  0  0  0  0  0  0  0  0  0  0  0
  141.0880   68.9680  228.3190 C   0  0  0  0  0  0  0  0  0  0  0  0
  140.6400   68.1410  227.3360 C   0  0  0  0  0  0  0  0  0  0  0  0
  140.1380   68.6530  226.1450 C   0  0  0  0  0  0  0  0  0  0  0  0
  138.3750   70.3410  224.2440 C   0  0  0  0  0  0  0  0  0  0  0  0
  137.9490   70.9720  223.0950 C   0  0  0  0  0  0  0  0  0  0  0  0
  138.7270   71.9370  222.4750 C   0  0  0  0  0  0  0  0  0  0  0  0
  139.3411   73.3311  219.5488 H   0  0  0  0  0  0  0  0  0  0  0  0
  138.5527   74.6016  220.5451 H   0  0  0  0  0  0  0  0  0  0  0  0
  142.8070   73.4161  220.1760 H   0  0  0  0  0  0  0  0  0  0  0  0
  144.3784   75.1072  219.2708 H   0  0  0  0  0  0  0  0  0  0  0  0
  143.7974   77.5218  219.3496 H   0  0  0  0  0  0  0  0  0  0  0  0
  142.1986   81.5323  221.4249 H   0  0  0  0  0  0  0  0  0  0  0  0
  140.7606   81.0752  220.5286 H   0  0  0  0  0  0  0  0  0  0  0  0
  140.2073   82.0152  222.8450 H   0  0  0  0  0  0  0  0  0  0  0  0
  139.6541   80.3105  222.6707 H   0  0  0  0  0  0  0  0  0  0  0  0
  142.0581   78.9123  224.7333 H   0  0  0  0  0  0  0  0  0  0  0  0
  140.6871   78.6201  223.6638 H   0  0  0  0  0  0  0  0  0  0  0  0
  143.4525   79.7048  222.7455 H   0  0  0  0  0  0  0  0  0  0  0  0
  142.9616   78.0283  222.5435 H   0  0  0  0  0  0  0  0  0  0  0  0
  140.0906   76.5434  221.2302 H   0  0  0  0  0  0  0  0  0  0  0  0
  141.3704   71.9079  224.6166 H   0  0  0  0  0  0  0  0  0  0  0  0
  140.5464   71.9679  226.8916 H   0  0  0  0  0  0  0  0  0  0  0  0
  141.4367   70.9801  228.9995 H   0  0  0  0  0  0  0  0  0  0  0  0
  141.4791   68.5272  229.2478 H   0  0  0  0  0  0  0  0  0  0  0  0
  140.6755   67.0518  227.4857 H   0  0  0  0  0  0  0  0  0  0  0  0
  139.7755   67.9911  225.3447 H   0  0  0  0  0  0  0  0  0  0  0  0
  137.7426   69.5780  224.7214 H   0  0  0  0  0  0  0  0  0  0  0  0
  136.9737   70.7048  222.6622 H   0  0  0  0  0  0  0  0  0  0  0  0
  1  2  2  0
  2  3  1  0
  3  4  1  0
  4  5  1  0
  5  6  2  0
  6  7  1  0
  7  8  2  0
  8  9  1  0
  9 10  1  0
 10 11  2  0
 10 12  1  0
 12 13  1  0
 13 14  1  0
 14 15  1  0
 15 16  1  0
 16 17  1  0
  9 18  2  0
  4 19  2  0
 19 20  1  0
 20 21  2  0
 21 22  1  0
 22 23  1  0
 23 24  2  0
 24 25  1  0
 25 26  2  0
 26 27  1  0
 27 28  2  0
 22 29  2  0
 29 30  1  0
 30 31  2  0
 31  2  1  0
 18  5  1  0
 31 20  1  0
 17 12  1  0
 28 23  1  0
  3 32  1  0
  3 33  1  0
  6 34  1  0
  7 35  1  0
  8 36  1  0
 13 37  1  0
 13 38  1  0
 14 39  1  0
 14 40  1  0
 16 41  1  0
 16 42  1  0
 17 43  1  0
 17 44  1  0
 18 45  1  0
 21 46  1  0
 24 47  1  0
 25 48  1  0
 26 49  1  0
 27 50  1  0
 28 51  1  0
 29 52  1  0
 30 53  1  0
M  END
>  <smiles>  (21) 
O=C1CC(c2cccc(C(=O)N3CCOCC3)c2)=Nc2cc(-c3ccccc3)ccc21

>  <score_type>  (21) 
oracle

>  <origin>  (21) 
autodockgpu

>  <m_score__min__energy>  (21) 
-9.7200000000000006

>  <m_primary>  (21) 
energy

>  <rmsd>  (21) 
7.319613475779611

>  <m_score__min__rmsd>  (21) 
7.319613475779611

>  <meeko>  (21) 
{"free_energy": -9.7, "intermolecular_energy": -10.59, "internal_energy": -1.02, "cluster_size": 50, "cluster_id": 1, "rank_in_cluster": 20}

>  <energy>  (21) 
-9.7

>  <cluster_rmsd>  (21) 
0.05

>  <cluster>  (21) 
1

$$$$

     RDKit          3D

 53 57  0  0  0  0  0  0  0  0999 V2000
  137.1890   72.3030  220.8290 O   0  0  0  0  0  0  0  0  0  0  0  0
  138.3020   72.6190  221.3200 C   0  0  0  0  0  0  0  0  0  0  0  0
  139.1020   73.6560  220.6290 C   0  0  0  0  0  0  0  0  0  0  0  0
  140.3710   73.8730  221.3630 C   0  0  0  0  0  0  0  0  0  0  0  0
  141.3100   74.8770  220.8150 C   0  0  0  0  0  0  0  0  0  0  0  0
  142.5210   74.4920  220.2590 C   0  0  0  0  0  0  0  0  0  0  0  0
  143.3950   75.4370  219.7480 C   0  0  0  0  0  0  0  0  0  0  0  0
  143.0650   76.7860  219.7900 C   0  0  0  0  0  0  0  0  0  0  0  0
  141.8640   77.1970  220.3380 C   0  0  0  0  0  0  0  0  0  0  0  0
  141.4560   78.5900  220.4120 C   0  0  0  0  0  0  0  0  0  0  0  0
  140.7810   79.0600  219.4630 O   0  0  0  0  0  0  0  0  0  0  0  0
  141.7700   79.4550  221.4890 N   0  0  0  0  0  0  0  0  0  0  0  0
  141.3060   80.8420  221.4610 C   0  0  0  0  0  0  0  0  0  0  0  0
  140.4890   80.9770  222.7590 C   0  0  0  0  0  0  0  0  0  0  0  0
  141.2660   80.6150  223.8490 O   0  0  0  0  0  0  0  0  0  0  0  0
  141.5570   79.2410  223.8250 C   0  0  0  0  0  0  0  0  0  0  0  0
  142.5370   79.0670  222.6560 C   0  0  0  0  0  0  0  0  0  0  0  0
  141.0220   76.2270  220.8360 C   0  0  0  0  0  0  0  0  0  0  0  0
  140.7100   73.2500  222.4380 N   0  0  0  0  0  0  0  0  0  0  0  0
  139.9420   72.2680  223.0900 C   0  0  0  0  0  0  0  0  0  0  0  0
  140.3920   71.6510  224.2430 C   0  0  0  0  0  0  0  0  0  0  0  0
  139.6050   70.6820  224.8580 C   0  0  0  0  0  0  0  0  0  0  0  0
  140.1190   70.0560  226.0700 C   0  0  0  0  0  0  0  0  0  0  0  0
  140.1560   68.6640  226.1080 C   0  0  0  0  0  0  0  0  0  0  0  0
  140.6350   68.0190  227.2290 C   0  0  0  0  0  0  0  0  0  0  0  0
  141.0660   68.7780  228.2870 C   0  0  0  0  0  0  0  0  0  0  0  0
  141.0350   70.1380  228.2620 C   0  0  0  0  0  0  0  0  0  0  0  0
  140.5580   70.8220  227.1490 C   0  0  0  0  0  0  0  0  0  0  0  0
  138.3770   70.3470  224.3100 C   0  0  0  0  0  0  0  0  0  0  0  0
  137.9460   70.9730  223.1590 C   0  0  0  0  0  0  0  0  0  0  0  0
  138.7200   71.9380  222.5350 C   0  0  0  0  0  0  0  0  0  0  0  0
  139.3237   73.3251  219.6037 H   0  0  0  0  0  0  0  0  0  0  0  0
  138.5325   74.5965  220.5962 H   0  0  0  0  0  0  0  0  0  0  0  0
  142.7898   73.4259  220.2236 H   0  0  0  0  0  0  0  0  0  0  0  0
  144.3519   75.1191  219.3082 H   0  0  0  0  0  0  0  0  0  0  0  0
  143.7641   77.5322  219.3844 H   0  0  0  0  0  0  0  0  0  0  0  0
  142.1558   81.5404  221.4575 H   0  0  0  0  0  0  0  0  0  0  0  0
  140.7199   81.0784  220.5607 H   0  0  0  0  0  0  0  0  0  0  0  0
  140.1611   82.0204  222.8760 H   0  0  0  0  0  0  0  0  0  0  0  0
  139.6128   80.3141  222.7044 H   0  0  0  0  0  0  0  0  0  0  0  0
  142.0227   78.9271  224.7708 H   0  0  0  0  0  0  0  0  0  0  0  0
  140.6523   78.6274  223.7027 H   0  0  0  0  0  0  0  0  0  0  0  0
  143.4137   79.7194  222.7814 H   0  0  0  0  0  0  0  0  0  0  0  0
  142.9271   78.0412  222.5821 H   0  0  0  0  0  0  0  0  0  0  0  0
  140.0655   76.5464  221.2755 H   0  0  0  0  0  0  0  0  0  0  0  0
  141.3672   71.9249  224.6719 H   0  0  0  0  0  0  0  0  0  0  0  0
  139.8036   68.0800  225.2450 H   0  0  0  0  0  0  0  0  0  0  0  0
  140.6706   66.9205  227.2736 H   0  0  0  0  0  0  0  0  0  0  0  0
  141.4491   68.2708  229.1848 H   0  0  0  0  0  0  0  0  0  0  0  0
  141.3923   70.7046  229.1345 H   0  0  0  0  0  0  0  0  0  0  0  0
  140.5283   71.9212  227.1212 H   0  0  0  0  0  0  0  0  0  0  0  0
  137.7478   69.5840  224.7916 H   0  0  0  0  0  0  0  0  0  0  0  0
  136.9707   70.7013  222.7289 H   0  0  0  0  0  0  0  0  0  0  0  0
  1  2  2  0
  2  3  1  0
  3  4  1  0
  4  5  1  0
  5  6  2  0
  6  7  1  0
  7  8  2  0
  8  9  1  0
  9 10  1  0
 10 11  2  0
 10 12  1  0
 12 13  1  0
 13 14  1  0
 14 15  1  0
 15 16  1  0
 16 17  1  0
  9 18  2  0
  4 19  2  0
 19 20  1  0
 20 21  2  0
 21 22  1  0
 22 23  1  0
 23 24  2  0
 24 25  1  0
 25 26  2  0
 26 27  1  0
 27 28  2  0
 22 29  2  0
 29 30  1  0
 30 31  2  0
 31  2  1  0
 18  5  1  0
 31 20  1  0
 17 12  1  0
 28 23  1  0
  3 32  1  0
  3 33  1  0
  6 34  1  0
  7 35  1  0
  8 36  1  0
 13 37  1  0
 13 38  1  0
 14 39  1  0
 14 40  1  0
 16 41  1  0
 16 42  1  0
 17 43  1  0
 17 44  1  0
 18 45  1  0
 21 46  1  0
 24 47  1  0
 25 48  1  0
 26 49  1  0
 27 50  1  0
 28 51  1  0
 29 52  1  0
 30 53  1  0
M  END
>  <smiles>  (22) 
O=C1CC(c2cccc(C(=O)N3CCOCC3)c2)=Nc2cc(-c3ccccc3)ccc21

>  <score_type>  (22) 
oracle

>  <origin>  (22) 
autodockgpu

>  <m_score__min__energy>  (22) 
-9.7200000000000006

>  <m_primary>  (22) 
energy

>  <rmsd>  (22) 
7.2970198545313645

>  <m_score__min__rmsd>  (22) 
7.2970198545313645

>  <meeko>  (22) 
{"free_energy": -9.7, "intermolecular_energy": -10.6, "internal_energy": -1.02, "cluster_size": 50, "cluster_id": 1, "rank_in_cluster": 7}

>  <energy>  (22) 
-9.7

>  <cluster_rmsd>  (22) 
0.06

>  <cluster>  (22) 
1

$$$$

     RDKit          3D

 53 57  0  0  0  0  0  0  0  0999 V2000
  137.1750   72.3180  220.8440 O   0  0  0  0  0  0  0  0  0  0  0  0
  138.2920   72.6260  221.3300 C   0  0  0  0  0  0  0  0  0  0  0  0
  139.0960   73.6600  220.6360 C   0  0  0  0  0  0  0  0  0  0  0  0
  140.3700   73.8670  221.3630 C   0  0  0  0  0  0  0  0  0  0  0  0
  141.3120   74.8660  220.8110 C   0  0  0  0  0  0  0  0  0  0  0  0
  142.5200   74.4740  220.2520 C   0  0  0  0  0  0  0  0  0  0  0  0
  143.3970   75.4150  219.7390 C   0  0  0  0  0  0  0  0  0  0  0  0
  143.0730   76.7650  219.7800 C   0  0  0  0  0  0  0  0  0  0  0  0
  141.8760   77.1830  220.3300 C   0  0  0  0  0  0  0  0  0  0  0  0
  141.4750   78.5770  220.4040 C   0  0  0  0  0  0  0  0  0  0  0  0
  140.8050   79.0510  219.4540 O   0  0  0  0  0  0  0  0  0  0  0  0
  141.7910   79.4400  221.4820 N   0  0  0  0  0  0  0  0  0  0  0  0
  141.3340   80.8300  221.4540 C   0  0  0  0  0  0  0  0  0  0  0  0
  140.5140   80.9690  222.7490 C   0  0  0  0  0  0  0  0  0  0  0  0
  141.2860   80.6020  223.8410 O   0  0  0  0  0  0  0  0  0  0  0  0
  141.5700   79.2270  223.8170 C   0  0  0  0  0  0  0  0  0  0  0  0
  142.5530   79.0480  222.6520 C   0  0  0  0  0  0  0  0  0  0  0  0
  141.0310   76.2170  220.8310 C   0  0  0  0  0  0  0  0  0  0  0  0
  140.7110   73.2400  222.4350 N   0  0  0  0  0  0  0  0  0  0  0  0
  139.9400   72.2620  223.0890 C   0  0  0  0  0  0  0  0  0  0  0  0
  140.3930   71.6400  224.2390 C   0  0  0  0  0  0  0  0  0  0  0  0
  139.6030   70.6750  224.8570 C   0  0  0  0  0  0  0  0  0  0  0  0
  140.1200   70.0440  226.0650 C   0  0  0  0  0  0  0  0  0  0  0  0
  140.1280   68.6510  226.1090 C   0  0  0  0  0  0  0  0  0  0  0  0
  140.6070   68.0010  227.2270 C   0  0  0  0  0  0  0  0  0  0  0  0
  141.0690   68.7560  228.2750 C   0  0  0  0  0  0  0  0  0  0  0  0
  141.0660   70.1160  228.2440 C   0  0  0  0  0  0  0  0  0  0  0  0
  140.5890   70.8050  227.1340 C   0  0  0  0  0  0  0  0  0  0  0  0
  138.3690   70.3490  224.3150 C   0  0  0  0  0  0  0  0  0  0  0  0
  137.9370   70.9790  223.1680 C   0  0  0  0  0  0  0  0  0  0  0  0
  138.7130   71.9410  222.5410 C   0  0  0  0  0  0  0  0  0  0  0  0
  139.3098   73.3297  219.6088 H   0  0  0  0  0  0  0  0  0  0  0  0
  138.5326   74.6044  220.6084 H   0  0  0  0  0  0  0  0  0  0  0  0
  142.7833   73.4066  220.2160 H   0  0  0  0  0  0  0  0  0  0  0  0
  144.3519   75.0927  219.2983 H   0  0  0  0  0  0  0  0  0  0  0  0
  143.7746   77.5072  219.3715 H   0  0  0  0  0  0  0  0  0  0  0  0
  142.1875   81.5239  221.4535 H   0  0  0  0  0  0  0  0  0  0  0  0
  140.7516   81.0698  220.5522 H   0  0  0  0  0  0  0  0  0  0  0  0
  140.1916   82.0142  222.8656 H   0  0  0  0  0  0  0  0  0  0  0  0
  139.6341   80.3114  222.6915 H   0  0  0  0  0  0  0  0  0  0  0  0
  142.0306   78.9102  224.7644 H   0  0  0  0  0  0  0  0  0  0  0  0
  140.6624   78.6185  223.6907 H   0  0  0  0  0  0  0  0  0  0  0  0
  143.4325   79.6961  222.7802 H   0  0  0  0  0  0  0  0  0  0  0  0
  142.9387   78.0204  222.5795 H   0  0  0  0  0  0  0  0  0  0  0  0
  140.0771   76.5414  221.2725 H   0  0  0  0  0  0  0  0  0  0  0  0
  141.3725   71.9068  224.6626 H   0  0  0  0  0  0  0  0  0  0  0  0
  139.7528   68.0708  225.2531 H   0  0  0  0  0  0  0  0  0  0  0  0
  140.6183   66.9022  227.2773 H   0  0  0  0  0  0  0  0  0  0  0  0
  141.4545   68.2450  229.1696 H   0  0  0  0  0  0  0  0  0  0  0  0
  141.4463   70.6788  229.1092 H   0  0  0  0  0  0  0  0  0  0  0  0
  140.5823   71.9045  227.1013 H   0  0  0  0  0  0  0  0  0  0  0  0
  137.7369   69.5899  224.7991 H   0  0  0  0  0  0  0  0  0  0  0  0
  136.9581   70.7134  222.7422 H   0  0  0  0  0  0  0  0  0  0  0  0
  1  2  2  0
  2  3  1  0
  3  4  1  0
  4  5  1  0
  5  6  2  0
  6  7  1  0
  7  8  2  0
  8  9  1  0
  9 10  1  0
 10 11  2  0
 10 12  1  0
 12 13  1  0
 13 14  1  0
 14 15  1  0
 15 16  1  0
 16 17  1  0
  9 18  2  0
  4 19  2  0
 19 20  1  0
 20 21  2  0
 21 22  1  0
 22 23  1  0
 23 24  2  0
 24 25  1  0
 25 26  2  0
 26 27  1  0
 27 28  2  0
 22 29  2  0
 29 30  1  0
 30 31  2  0
 31  2  1  0
 18  5  1  0
 31 20  1  0
 17 12  1  0
 28 23  1  0
  3 32  1  0
  3 33  1  0
  6 34  1  0
  7 35  1  0
  8 36  1  0
 13 37  1  0
 13 38  1  0
 14 39  1  0
 14 40  1  0
 16 41  1  0
 16 42  1  0
 17 43  1  0
 17 44  1  0
 18 45  1  0
 21 46  1  0
 24 47  1  0
 25 48  1  0
 26 49  1  0
 27 50  1  0
 28 51  1  0
 29 52  1  0
 30 53  1  0
M  END
>  <smiles>  (23) 
O=C1CC(c2cccc(C(=O)N3CCOCC3)c2)=Nc2cc(-c3ccccc3)ccc21

>  <score_type>  (23) 
oracle

>  <origin>  (23) 
autodockgpu

>  <m_score__min__energy>  (23) 
-9.7200000000000006

>  <m_primary>  (23) 
energy

>  <rmsd>  (23) 
7.294475962038347

>  <m_score__min__rmsd>  (23) 
7.294475962038347

>  <meeko>  (23) 
{"free_energy": -9.72, "intermolecular_energy": -10.61, "internal_energy": -1.02, "cluster_size": 50, "cluster_id": 1, "rank_in_cluster": 1}

>  <energy>  (23) 
-9.7

>  <cluster_rmsd>  (23) 
0.07

>  <cluster>  (23) 
1

$$$$

     RDKit          3D

 53 57  0  0  0  0  0  0  0  0999 V2000
  137.2040   72.3120  220.7900 O   0  0  0  0  0  0  0  0  0  0  0  0
  138.3190   72.6200  221.2810 C   0  0  0  0  0  0  0  0  0  0  0  0
  139.1240   73.6560  220.5920 C   0  0  0  0  0  0  0  0  0  0  0  0
  140.3950   73.8630  221.3240 C   0  0  0  0  0  0  0  0  0  0  0  0
  141.3380   74.8640  220.7780 C   0  0  0  0  0  0  0  0  0  0  0  0
  142.5430   74.4730  220.2110 C   0  0  0  0  0  0  0  0  0  0  0  0
  143.4220   75.4160  219.7030 C   0  0  0  0  0  0  0  0  0  0  0  0
  143.1020   76.7670  219.7560 C   0  0  0  0  0  0  0  0  0  0  0  0
  141.9080   77.1830  220.3140 C   0  0  0  0  0  0  0  0  0  0  0  0
  141.5110   78.5780  220.4010 C   0  0  0  0  0  0  0  0  0  0  0  0
  140.8510   79.0660  219.4510 O   0  0  0  0  0  0  0  0  0  0  0  0
  141.8210   79.4270  221.4920 N   0  0  0  0  0  0  0  0  0  0  0  0
  141.3690   80.8190  221.4770 C   0  0  0  0  0  0  0  0  0  0  0  0
  140.5390   80.9460  222.7670 C   0  0  0  0  0  0  0  0  0  0  0  0
  141.3000   80.5630  223.8600 O   0  0  0  0  0  0  0  0  0  0  0  0
  141.5790   79.1870  223.8230 C   0  0  0  0  0  0  0  0  0  0  0  0
  142.5710   79.0180  222.6630 C   0  0  0  0  0  0  0  0  0  0  0  0
  141.0610   76.2160  220.8100 C   0  0  0  0  0  0  0  0  0  0  0  0
  140.7320   73.2350  222.3970 N   0  0  0  0  0  0  0  0  0  0  0  0
  139.9600   72.2550  223.0470 C   0  0  0  0  0  0  0  0  0  0  0  0
  140.4090   71.6330  224.1970 C   0  0  0  0  0  0  0  0  0  0  0  0
  139.6170   70.6660  224.8110 C   0  0  0  0  0  0  0  0  0  0  0  0
  140.1300   70.0330  226.0200 C   0  0  0  0  0  0  0  0  0  0  0  0
  140.5400   70.8690  227.0570 C   0  0  0  0  0  0  0  0  0  0  0  0
  141.0330   70.3250  228.2250 C   0  0  0  0  0  0  0  0  0  0  0  0
  141.1050   68.9590  228.3310 C   0  0  0  0  0  0  0  0  0  0  0  0
  140.7090   68.1330  227.3250 C   0  0  0  0  0  0  0  0  0  0  0  0
  140.2080   68.6460  226.1340 C   0  0  0  0  0  0  0  0  0  0  0  0
  138.3860   70.3390  224.2630 C   0  0  0  0  0  0  0  0  0  0  0  0
  137.9580   70.9710  223.1150 C   0  0  0  0  0  0  0  0  0  0  0  0
  138.7350   71.9340  222.4930 C   0  0  0  0  0  0  0  0  0  0  0  0
  139.3419   73.3279  219.5649 H   0  0  0  0  0  0  0  0  0  0  0  0
  138.5596   74.5998  220.5640 H   0  0  0  0  0  0  0  0  0  0  0  0
  142.8025   73.4051  220.1645 H   0  0  0  0  0  0  0  0  0  0  0  0
  144.3747   75.0945  219.2570 H   0  0  0  0  0  0  0  0  0  0  0  0
  143.8040   77.5108  219.3510 H   0  0  0  0  0  0  0  0  0  0  0  0
  142.2250   81.5097  221.4915 H   0  0  0  0  0  0  0  0  0  0  0  0
  140.7946   81.0714  220.5735 H   0  0  0  0  0  0  0  0  0  0  0  0
  140.2200   81.9911  222.8935 H   0  0  0  0  0  0  0  0  0  0  0  0
  139.6569   80.2928  222.6945 H   0  0  0  0  0  0  0  0  0  0  0  0
  142.0310   78.8578  224.7703 H   0  0  0  0  0  0  0  0  0  0  0  0
  140.6703   78.5831  223.6831 H   0  0  0  0  0  0  0  0  0  0  0  0
  143.4521   79.6608  222.8062 H   0  0  0  0  0  0  0  0  0  0  0  0
  142.9527   77.9896  222.5811 H   0  0  0  0  0  0  0  0  0  0  0  0
  140.1096   76.5399  221.2571 H   0  0  0  0  0  0  0  0  0  0  0  0
  141.3865   71.9004  224.6248 H   0  0  0  0  0  0  0  0  0  0  0  0
  140.4706   71.9610  226.9443 H   0  0  0  0  0  0  0  0  0  0  0  0
  141.3609   70.9716  229.0523 H   0  0  0  0  0  0  0  0  0  0  0  0
  141.4956   68.5172  229.2596 H   0  0  0  0  0  0  0  0  0  0  0  0
  140.7864   67.0436  227.4559 H   0  0  0  0  0  0  0  0  0  0  0  0
  139.8865   67.9849  225.3157 H   0  0  0  0  0  0  0  0  0  0  0  0
  137.7531   69.5779  224.7426 H   0  0  0  0  0  0  0  0  0  0  0  0
  136.9810   70.7054  222.6850 H   0  0  0  0  0  0  0  0  0  0  0  0
  1  2  2  0
  2  3  1  0
  3  4  1  0
  4  5  1  0
  5  6  2  0
  6  7  1  0
  7  8  2  0
  8  9  1  0
  9 10  1  0
 10 11  2  0
 10 12  1  0
 12 13  1  0
 13 14  1  0
 14 15  1  0
 15 16  1  0
 16 17  1  0
  9 18  2  0
  4 19  2  0
 19 20  1  0
 20 21  2  0
 21 22  1  0
 22 23  1  0
 23 24  2  0
 24 25  1  0
 25 26  2  0
 26 27  1  0
 27 28  2  0
 22 29  2  0
 29 30  1  0
 30 31  2  0
 31  2  1  0
 18  5  1  0
 31 20  1  0
 17 12  1  0
 28 23  1  0
  3 32  1  0
  3 33  1  0
  6 34  1  0
  7 35  1  0
  8 36  1  0
 13 37  1  0
 13 38  1  0
 14 39  1  0
 14 40  1  0
 16 41  1  0
 16 42  1  0
 17 43  1  0
 17 44  1  0
 18 45  1  0
 21 46  1  0
 24 47  1  0
 25 48  1  0
 26 49  1  0
 27 50  1  0
 28 51  1  0
 29 52  1  0
 30 53  1  0
M  END
>  <smiles>  (24) 
O=C1CC(c2cccc(C(=O)N3CCOCC3)c2)=Nc2cc(-c3ccccc3)ccc21

>  <score_type>  (24) 
oracle

>  <origin>  (24) 
autodockgpu

>  <m_score__min__energy>  (24) 
-9.7200000000000006

>  <m_primary>  (24) 
energy

>  <rmsd>  (24) 
7.311182609563972

>  <m_score__min__rmsd>  (24) 
7.311182609563972

>  <meeko>  (24) 
{"free_energy": -9.69, "intermolecular_energy": -10.59, "internal_energy": -1.02, "cluster_size": 50, "cluster_id": 1, "rank_in_cluster": 27}

>  <energy>  (24) 
-9.7

>  <cluster_rmsd>  (24) 
0.08

>  <cluster>  (24) 
1

$$$$

     RDKit          3D

 53 57  0  0  0  0  0  0  0  0999 V2000
  137.1350   72.4140  220.8630 O   0  0  0  0  0  0  0  0  0  0  0  0
  138.2650   72.6910  221.3380 C   0  0  0  0  0  0  0  0  0  0  0  0
  139.0790   73.7210  220.6520 C   0  0  0  0  0  0  0  0  0  0  0  0
  140.3670   73.8900  221.3640 C   0  0  0  0  0  0  0  0  0  0  0  0
  141.3210   74.8800  220.8170 C   0  0  0  0  0  0  0  0  0  0  0  0
  142.5290   74.4770  220.2660 C   0  0  0  0  0  0  0  0  0  0  0  0
  143.4180   75.4090  219.7570 C   0  0  0  0  0  0  0  0  0  0  0  0
  143.1050   76.7630  219.7950 C   0  0  0  0  0  0  0  0  0  0  0  0
  141.9090   77.1910  220.3380 C   0  0  0  0  0  0  0  0  0  0  0  0
  141.5190   78.5890  220.4080 C   0  0  0  0  0  0  0  0  0  0  0  0
  140.8820   79.0750  219.4410 O   0  0  0  0  0  0  0  0  0  0  0  0
  141.8120   79.4430  221.5000 N   0  0  0  0  0  0  0  0  0  0  0  0
  141.3690   80.8370  221.4670 C   0  0  0  0  0  0  0  0  0  0  0  0
  140.5130   80.9770  222.7380 C   0  0  0  0  0  0  0  0  0  0  0  0
  141.2490   80.5960  223.8500 O   0  0  0  0  0  0  0  0  0  0  0  0
  141.5190   79.2180  223.8270 C   0  0  0  0  0  0  0  0  0  0  0  0
  142.5350   79.0360  222.6890 C   0  0  0  0  0  0  0  0  0  0  0  0
  141.0510   76.2330  220.8350 C   0  0  0  0  0  0  0  0  0  0  0  0
  140.7100   73.2360  222.4200 N   0  0  0  0  0  0  0  0  0  0  0  0
  139.9290   72.2620  223.0670 C   0  0  0  0  0  0  0  0  0  0  0  0
  140.3850   71.6100  224.1990 C   0  0  0  0  0  0  0  0  0  0  0  0
  139.5850   70.6490  224.8100 C   0  0  0  0  0  0  0  0  0  0  0  0
  140.1060   69.9860  225.9990 C   0  0  0  0  0  0  0  0  0  0  0  0
  140.5440   70.7950  227.0460 C   0  0  0  0  0  0  0  0  0  0  0  0
  141.0460   70.2200  228.1950 C   0  0  0  0  0  0  0  0  0  0  0  0
  141.0990   68.8520  228.2730 C   0  0  0  0  0  0  0  0  0  0  0  0
  140.6740   68.0520  227.2580 C   0  0  0  0  0  0  0  0  0  0  0  0
  140.1630   68.5960  226.0850 C   0  0  0  0  0  0  0  0  0  0  0  0
  138.3370   70.3580  224.2800 C   0  0  0  0  0  0  0  0  0  0  0  0
  137.9020   71.0180  223.1510 C   0  0  0  0  0  0  0  0  0  0  0  0
  138.6880   71.9750  222.5300 C   0  0  0  0  0  0  0  0  0  0  0  0
  139.2718   73.4055  219.6160 H   0  0  0  0  0  0  0  0  0  0  0  0
  138.5340   74.6765  220.6499 H   0  0  0  0  0  0  0  0  0  0  0  0
  142.7830   73.4072  220.2332 H   0  0  0  0  0  0  0  0  0  0  0  0
  144.3726   75.0776  219.3223 H   0  0  0  0  0  0  0  0  0  0  0  0
  143.8149   77.4990  219.3897 H   0  0  0  0  0  0  0  0  0  0  0  0
  142.2287   81.5227  221.4954 H   0  0  0  0  0  0  0  0  0  0  0  0
  140.8153   81.0871  220.5500 H   0  0  0  0  0  0  0  0  0  0  0  0
  140.1978   82.0248  222.8513 H   0  0  0  0  0  0  0  0  0  0  0  0
  139.6286   80.3287  222.6509 H   0  0  0  0  0  0  0  0  0  0  0  0
  141.9482   78.8912  224.7856 H   0  0  0  0  0  0  0  0  0  0  0  0
  140.6095   78.6193  223.6712 H   0  0  0  0  0  0  0  0  0  0  0  0
  143.4168   79.6742  222.8472 H   0  0  0  0  0  0  0  0  0  0  0  0
  142.9122   78.0049  222.6211 H   0  0  0  0  0  0  0  0  0  0  0  0
  140.0974   76.5661  221.2705 H   0  0  0  0  0  0  0  0  0  0  0  0
  141.3750   71.8501  224.6140 H   0  0  0  0  0  0  0  0  0  0  0  0
  140.4895   71.8900  226.9563 H   0  0  0  0  0  0  0  0  0  0  0  0
  141.3959   70.8448  229.0299 H   0  0  0  0  0  0  0  0  0  0  0  0
  141.4982   68.3862  229.1861 H   0  0  0  0  0  0  0  0  0  0  0  0
  140.7355   66.9591  227.3669 H   0  0  0  0  0  0  0  0  0  0  0  0
  139.8181   67.9562  225.2594 H   0  0  0  0  0  0  0  0  0  0  0  0
  137.6964   69.6029  224.7591 H   0  0  0  0  0  0  0  0  0  0  0  0
  136.9118   70.7804  222.7350 H   0  0  0  0  0  0  0  0  0  0  0  0
  1  2  2  0
  2  3  1  0
  3  4  1  0
  4  5  1  0
  5  6  2  0
  6  7  1  0
  7  8  2  0
  8  9  1  0
  9 10  1  0
 10 11  2  0
 10 12  1  0
 12 13  1  0
 13 14  1  0
 14 15  1  0
 15 16  1  0
 16 17  1  0
  9 18  2  0
  4 19  2  0
 19 20  1  0
 20 21  2  0
 21 22  1  0
 22 23  1  0
 23 24  2  0
 24 25  1  0
 25 26  2  0
 26 27  1  0
 27 28  2  0
 22 29  2  0
 29 30  1  0
 30 31  2  0
 31  2  1  0
 18  5  1  0
 31 20  1  0
 17 12  1  0
 28 23  1  0
  3 32  1  0
  3 33  1  0
  6 34  1  0
  7 35  1  0
  8 36  1  0
 13 37  1  0
 13 38  1  0
 14 39  1  0
 14 40  1  0
 16 41  1  0
 16 42  1  0
 17 43  1  0
 17 44  1  0
 18 45  1  0
 21 46  1  0
 24 47  1  0
 25 48  1  0
 26 49  1  0
 27 50  1  0
 28 51  1  0
 29 52  1  0
 30 53  1  0
M  END
>  <smiles>  (25) 
O=C1CC(c2cccc(C(=O)N3CCOCC3)c2)=Nc2cc(-c3ccccc3)ccc21

>  <score_type>  (25) 
oracle

>  <origin>  (25) 
autodockgpu

>  <m_score__min__energy>  (25) 
-9.7200000000000006

>  <m_primary>  (25) 
energy

>  <rmsd>  (25) 
7.319069899500625

>  <m_score__min__rmsd>  (25) 
7.319069899500625

>  <meeko>  (25) 
{"free_energy": -9.7, "intermolecular_energy": -10.59, "internal_energy": -1.02, "cluster_size": 50, "cluster_id": 1, "rank_in_cluster": 17}

>  <energy>  (25) 
-9.7

>  <cluster_rmsd>  (25) 
0.08

>  <cluster>  (25) 
1

$$$$

     RDKit          3D

 53 57  0  0  0  0  0  0  0  0999 V2000
  137.2160   72.4810  220.7570 O   0  0  0  0  0  0  0  0  0  0  0  0
  138.3400   72.7540  221.2470 C   0  0  0  0  0  0  0  0  0  0  0  0
  139.1800   73.7590  220.5540 C   0  0  0  0  0  0  0  0  0  0  0  0
  140.4560   73.9280  221.2860 C   0  0  0  0  0  0  0  0  0  0  0  0
  141.4330   74.8940  220.7360 C   0  0  0  0  0  0  0  0  0  0  0  0
  142.6510   74.4660  220.2280 C   0  0  0  0  0  0  0  0  0  0  0  0
  143.5610   75.3760  219.7160 C   0  0  0  0  0  0  0  0  0  0  0  0
  143.2590   76.7320  219.7060 C   0  0  0  0  0  0  0  0  0  0  0  0
  142.0520   77.1860  220.2050 C   0  0  0  0  0  0  0  0  0  0  0  0
  141.6730   78.5880  220.2250 C   0  0  0  0  0  0  0  0  0  0  0  0
  141.2420   79.1000  219.1620 O   0  0  0  0  0  0  0  0  0  0  0  0
  141.7580   79.4190  221.3690 N   0  0  0  0  0  0  0  0  0  0  0  0
  141.3470   80.8210  221.2760 C   0  0  0  0  0  0  0  0  0  0  0  0
  140.2620   80.9530  222.3600 C   0  0  0  0  0  0  0  0  0  0  0  0
  140.7630   80.5430  223.5860 O   0  0  0  0  0  0  0  0  0  0  0  0
  141.0160   79.1620  223.5900 C   0  0  0  0  0  0  0  0  0  0  0  0
  142.2310   78.9830  222.6680 C   0  0  0  0  0  0  0  0  0  0  0  0
  141.1740   76.2490  220.7070 C   0  0  0  0  0  0  0  0  0  0  0  0
  140.7720   73.2930  222.3620 N   0  0  0  0  0  0  0  0  0  0  0  0
  139.9670   72.3430  223.0160 C   0  0  0  0  0  0  0  0  0  0  0  0
  140.3940   71.7110  224.1690 C   0  0  0  0  0  0  0  0  0  0  0  0
  139.5710   70.7740  224.7870 C   0  0  0  0  0  0  0  0  0  0  0  0
  140.0620   70.1300  225.9990 C   0  0  0  0  0  0  0  0  0  0  0  0
  139.9220   68.7470  226.0930 C   0  0  0  0  0  0  0  0  0  0  0  0
  140.3700   68.0850  227.2180 C   0  0  0  0  0  0  0  0  0  0  0  0
  140.9480   68.8200  228.2220 C   0  0  0  0  0  0  0  0  0  0  0  0
  141.0890   70.1710  228.1420 C   0  0  0  0  0  0  0  0  0  0  0  0
  140.6480   70.8700  227.0240 C   0  0  0  0  0  0  0  0  0  0  0  0
  138.3300   70.4850  224.2400 C   0  0  0  0  0  0  0  0  0  0  0  0
  137.9230   71.1260  223.0880 C   0  0  0  0  0  0  0  0  0  0  0  0
  138.7330   72.0600  222.4620 C   0  0  0  0  0  0  0  0  0  0  0  0
  139.3881   73.4184  219.5290 H   0  0  0  0  0  0  0  0  0  0  0  0
  138.6472   74.7208  220.5208 H   0  0  0  0  0  0  0  0  0  0  0  0
  142.8963   73.3937  220.2319 H   0  0  0  0  0  0  0  0  0  0  0  0
  144.5239   75.0247  219.3169 H   0  0  0  0  0  0  0  0  0  0  0  0
  143.9856   77.4500  219.2980 H   0  0  0  0  0  0  0  0  0  0  0  0
  142.1930   81.4928  221.4833 H   0  0  0  0  0  0  0  0  0  0  0  0
  140.9854   81.0948  220.2739 H   0  0  0  0  0  0  0  0  0  0  0  0
  139.9430   82.0034  222.4299 H   0  0  0  0  0  0  0  0  0  0  0  0
  139.4042   80.3193  222.0907 H   0  0  0  0  0  0  0  0  0  0  0  0
  141.2469   78.8133  224.6074 H   0  0  0  0  0  0  0  0  0  0  0  0
  140.1471   78.5797  223.2495 H   0  0  0  0  0  0  0  0  0  0  0  0
  143.0725   79.6056  223.0060 H   0  0  0  0  0  0  0  0  0  0  0  0
  142.6022   77.9476  222.6558 H   0  0  0  0  0  0  0  0  0  0  0  0
  140.2121   76.6018  221.1073 H   0  0  0  0  0  0  0  0  0  0  0  0
  141.3797   71.9476  224.5961 H   0  0  0  0  0  0  0  0  0  0  0  0
  139.4551   68.1836  225.2717 H   0  0  0  0  0  0  0  0  0  0  0  0
  140.2661   66.9936  227.3076 H   0  0  0  0  0  0  0  0  0  0  0  0
  141.3094   68.2999  229.1214 H   0  0  0  0  0  0  0  0  0  0  0  0
  141.5583   70.7176  228.9732 H   0  0  0  0  0  0  0  0  0  0  0  0
  140.7572   71.9622  226.9516 H   0  0  0  0  0  0  0  0  0  0  0  0
  137.6723   69.7472  224.7229 H   0  0  0  0  0  0  0  0  0  0  0  0
  136.9378   70.8914  222.6587 H   0  0  0  0  0  0  0  0  0  0  0  0
  1  2  2  0
  2  3  1  0
  3  4  1  0
  4  5  1  0
  5  6  2  0
  6  7  1  0
  7  8  2  0
  8  9  1  0
  9 10  1  0
 10 11  2  0
 10 12  1  0
 12 13  1  0
 13 14  1  0
 14 15  1  0
 15 16  1  0
 16 17  1  0
  9 18  2  0
  4 19  2  0
 19 20  1  0
 20 21  2  0
 21 22  1  0
 22 23  1  0
 23 24  2  0
 24 25  1  0
 25 26  2  0
 26 27  1  0
 27 28  2  0
 22 29  2  0
 29 30  1  0
 30 31  2  0
 31  2  1  0
 18  5  1  0
 31 20  1  0
 17 12  1  0
 28 23  1  0
  3 32  1  0
  3 33  1  0
  6 34  1  0
  7 35  1  0
  8 36  1  0
 13 37  1  0
 13 38  1  0
 14 39  1  0
 14 40  1  0
 16 41  1  0
 16 42  1  0
 17 43  1  0
 17 44  1  0
 18 45  1  0
 21 46  1  0
 24 47  1  0
 25 48  1  0
 26 49  1  0
 27 50  1  0
 28 51  1  0
 29 52  1  0
 30 53  1  0
M  END
>  <smiles>  (26) 
O=C1CC(c2cccc(C(=O)N3CCOCC3)c2)=Nc2cc(-c3ccccc3)ccc21

>  <score_type>  (26) 
oracle

>  <origin>  (26) 
autodockgpu

>  <m_score__min__energy>  (26) 
-9.7200000000000006

>  <m_primary>  (26) 
energy

>  <rmsd>  (26) 
7.369209245755449

>  <m_score__min__rmsd>  (26) 
7.369209245755449

>  <meeko>  (26) 
{"free_energy": -9.61, "intermolecular_energy": -10.51, "internal_energy": -1.03, "cluster_size": 50, "cluster_id": 1, "rank_in_cluster": 44}

>  <energy>  (26) 
-9.69

>  <cluster_rmsd>  (26) 
0.06

>  <cluster>  (26) 
1

$$$$

     RDKit          3D

 53 57  0  0  0  0  0  0  0  0999 V2000
  137.1070   72.4390  220.9230 O   0  0  0  0  0  0  0  0  0  0  0  0
  138.2420   72.7080  221.3920 C   0  0  0  0  0  0  0  0  0  0  0  0
  139.0570   73.7350  220.7030 C   0  0  0  0  0  0  0  0  0  0  0  0
  140.3500   73.8950  221.4060 C   0  0  0  0  0  0  0  0  0  0  0  0
  141.3070   74.8810  220.8550 C   0  0  0  0  0  0  0  0  0  0  0  0
  142.5190   74.4750  220.3180 C   0  0  0  0  0  0  0  0  0  0  0  0
  143.4100   75.4040  219.8050 C   0  0  0  0  0  0  0  0  0  0  0  0
  143.0940   76.7570  219.8250 C   0  0  0  0  0  0  0  0  0  0  0  0
  141.8920   77.1880  220.3540 C   0  0  0  0  0  0  0  0  0  0  0  0
  141.4990   78.5860  220.4060 C   0  0  0  0  0  0  0  0  0  0  0  0
  140.8630   79.0580  219.4320 O   0  0  0  0  0  0  0  0  0  0  0  0
  141.7870   79.4540  221.4870 N   0  0  0  0  0  0  0  0  0  0  0  0
  141.3400   80.8470  221.4350 C   0  0  0  0  0  0  0  0  0  0  0  0
  140.4820   81.0010  222.7030 C   0  0  0  0  0  0  0  0  0  0  0  0
  141.2160   80.6370  223.8210 O   0  0  0  0  0  0  0  0  0  0  0  0
  141.4900   79.2590  223.8160 C   0  0  0  0  0  0  0  0  0  0  0  0
  142.5080   79.0650  222.6830 C   0  0  0  0  0  0  0  0  0  0  0  0
  141.0340   76.2340  220.8560 C   0  0  0  0  0  0  0  0  0  0  0  0
  140.6980   73.2360  222.4580 N   0  0  0  0  0  0  0  0  0  0  0  0
  139.9160   72.2640  223.1080 C   0  0  0  0  0  0  0  0  0  0  0  0
  140.3760   71.6070  224.2340 C   0  0  0  0  0  0  0  0  0  0  0  0
  139.5740   70.6490  224.8490 C   0  0  0  0  0  0  0  0  0  0  0  0
  140.1000   69.9800  226.0320 C   0  0  0  0  0  0  0  0  0  0  0  0
  140.1110   68.5860  226.0300 C   0  0  0  0  0  0  0  0  0  0  0  0
  140.5980   67.9000  227.1230 C   0  0  0  0  0  0  0  0  0  0  0  0
  141.0650   68.6210  228.1920 C   0  0  0  0  0  0  0  0  0  0  0  0
  141.0600   69.9810  228.2060 C   0  0  0  0  0  0  0  0  0  0  0  0
  140.5750   70.7060  227.1230 C   0  0  0  0  0  0  0  0  0  0  0  0
  138.3220   70.3660  224.3260 C   0  0  0  0  0  0  0  0  0  0  0  0
  137.8820   71.0320  223.2020 C   0  0  0  0  0  0  0  0  0  0  0  0
  138.6690   71.9860  222.5790 C   0  0  0  0  0  0  0  0  0  0  0  0
  139.2409   73.4210  219.6649 H   0  0  0  0  0  0  0  0  0  0  0  0
  138.5174   74.6935  220.7070 H   0  0  0  0  0  0  0  0  0  0  0  0
  142.7757   73.4055  220.2990 H   0  0  0  0  0  0  0  0  0  0  0  0
  144.3687   75.0700  219.3814 H   0  0  0  0  0  0  0  0  0  0  0  0
  143.8054   77.4901  219.4170 H   0  0  0  0  0  0  0  0  0  0  0  0
  142.1977   81.5354  221.4555 H   0  0  0  0  0  0  0  0  0  0  0  0
  140.7869   81.0836  220.5141 H   0  0  0  0  0  0  0  0  0  0  0  0
  140.1637   82.0493  222.8020 H   0  0  0  0  0  0  0  0  0  0  0  0
  139.6001   80.3485  222.6228 H   0  0  0  0  0  0  0  0  0  0  0  0
  141.9184   78.9457  224.7795 H   0  0  0  0  0  0  0  0  0  0  0  0
  140.5823   78.6560  223.6661 H   0  0  0  0  0  0  0  0  0  0  0  0
  143.3877   79.7077  222.8346 H   0  0  0  0  0  0  0  0  0  0  0  0
  142.8877   78.0340  222.6296 H   0  0  0  0  0  0  0  0  0  0  0  0
  140.0769   76.5697  221.2818 H   0  0  0  0  0  0  0  0  0  0  0  0
  141.3706   71.8398  224.6421 H   0  0  0  0  0  0  0  0  0  0  0  0
  139.7316   68.0337  225.1576 H   0  0  0  0  0  0  0  0  0  0  0  0
  140.6115   66.8002  227.1369 H   0  0  0  0  0  0  0  0  0  0  0  0
  141.4566   68.0816  229.0670 H   0  0  0  0  0  0  0  0  0  0  0  0
  141.4453   70.5153  229.0870 H   0  0  0  0  0  0  0  0  0  0  0  0
  140.5665   71.8060  227.1271 H   0  0  0  0  0  0  0  0  0  0  0  0
  137.6812   69.6120  224.8065 H   0  0  0  0  0  0  0  0  0  0  0  0
  136.8875   70.8014  222.7925 H   0  0  0  0  0  0  0  0  0  0  0  0
  1  2  2  0
  2  3  1  0
  3  4  1  0
  4  5  1  0
  5  6  2  0
  6  7  1  0
  7  8  2  0
  8  9  1  0
  9 10  1  0
 10 11  2  0
 10 12  1  0
 12 13  1  0
 13 14  1  0
 14 15  1  0
 15 16  1  0
 16 17  1  0
  9 18  2  0
  4 19  2  0
 19 20  1  0
 20 21  2  0
 21 22  1  0
 22 23  1  0
 23 24  2  0
 24 25  1  0
 25 26  2  0
 26 27  1  0
 27 28  2  0
 22 29  2  0
 29 30  1  0
 30 31  2  0
 31  2  1  0
 18  5  1  0
 31 20  1  0
 17 12  1  0
 28 23  1  0
  3 32  1  0
  3 33  1  0
  6 34  1  0
  7 35  1  0
  8 36  1  0
 13 37  1  0
 13 38  1  0
 14 39  1  0
 14 40  1  0
 16 41  1  0
 16 42  1  0
 17 43  1  0
 17 44  1  0
 18 45  1  0
 21 46  1  0
 24 47  1  0
 25 48  1  0
 26 49  1  0
 27 50  1  0
 28 51  1  0
 29 52  1  0
 30 53  1  0
M  END
>  <smiles>  (27) 
O=C1CC(c2cccc(C(=O)N3CCOCC3)c2)=Nc2cc(-c3ccccc3)ccc21

>  <score_type>  (27) 
oracle

>  <origin>  (27) 
autodockgpu

>  <m_score__min__energy>  (27) 
-9.7200000000000006

>  <m_primary>  (27) 
energy

>  <rmsd>  (27) 
7.304362622584762

>  <m_score__min__rmsd>  (27) 
7.304362622584762

>  <meeko>  (27) 
{"free_energy": -9.7, "intermolecular_energy": -10.59, "internal_energy": -1.02, "cluster_size": 50, "cluster_id": 1, "rank_in_cluster": 24}

>  <energy>  (27) 
-9.69

>  <cluster_rmsd>  (27) 
0.08

>  <cluster>  (27) 
1

$$$$

     RDKit          3D

 53 57  0  0  0  0  0  0  0  0999 V2000
  137.1040   72.4350  220.9060 O   0  0  0  0  0  0  0  0  0  0  0  0
  138.2400   72.7040  221.3730 C   0  0  0  0  0  0  0  0  0  0  0  0
  139.0550   73.7300  220.6820 C   0  0  0  0  0  0  0  0  0  0  0  0
  140.3490   73.8890  221.3840 C   0  0  0  0  0  0  0  0  0  0  0  0
  141.3060   74.8750  220.8310 C   0  0  0  0  0  0  0  0  0  0  0  0
  142.5140   74.4670  220.2860 C   0  0  0  0  0  0  0  0  0  0  0  0
  143.4050   75.3950  219.7720 C   0  0  0  0  0  0  0  0  0  0  0  0
  143.0930   76.7490  219.7980 C   0  0  0  0  0  0  0  0  0  0  0  0
  141.8950   77.1820  220.3350 C   0  0  0  0  0  0  0  0  0  0  0  0
  141.5060   78.5810  220.3940 C   0  0  0  0  0  0  0  0  0  0  0  0
  140.8480   79.0520  219.4340 O   0  0  0  0  0  0  0  0  0  0  0  0
  141.8220   79.4500  221.4670 N   0  0  0  0  0  0  0  0  0  0  0  0
  141.3770   80.8440  221.4230 C   0  0  0  0  0  0  0  0  0  0  0  0
  140.5490   81.0020  222.7100 C   0  0  0  0  0  0  0  0  0  0  0  0
  141.3090   80.6370  223.8110 O   0  0  0  0  0  0  0  0  0  0  0  0
  141.5800   79.2600  223.8020 C   0  0  0  0  0  0  0  0  0  0  0  0
  142.5710   79.0610  222.6460 C   0  0  0  0  0  0  0  0  0  0  0  0
  141.0360   76.2280  220.8380 C   0  0  0  0  0  0  0  0  0  0  0  0
  140.6980   73.2310  222.4350 N   0  0  0  0  0  0  0  0  0  0  0  0
  139.9160   72.2600  223.0870 C   0  0  0  0  0  0  0  0  0  0  0  0
  140.3770   71.6030  224.2130 C   0  0  0  0  0  0  0  0  0  0  0  0
  139.5760   70.6460  224.8290 C   0  0  0  0  0  0  0  0  0  0  0  0
  140.1030   69.9770  226.0120 C   0  0  0  0  0  0  0  0  0  0  0  0
  140.1520   68.5840  225.9940 C   0  0  0  0  0  0  0  0  0  0  0  0
  140.6420   67.8990  227.0850 C   0  0  0  0  0  0  0  0  0  0  0  0
  141.0730   68.6190  228.1710 C   0  0  0  0  0  0  0  0  0  0  0  0
  141.0300   69.9790  228.2010 C   0  0  0  0  0  0  0  0  0  0  0  0
  140.5410   70.7020  227.1190 C   0  0  0  0  0  0  0  0  0  0  0  0
  138.3220   70.3630  224.3090 C   0  0  0  0  0  0  0  0  0  0  0  0
  137.8810   71.0290  223.1840 C   0  0  0  0  0  0  0  0  0  0  0  0
  138.6680   71.9830  222.5600 C   0  0  0  0  0  0  0  0  0  0  0  0
  139.2375   73.4151  219.6440 H   0  0  0  0  0  0  0  0  0  0  0  0
  138.5162   74.6890  220.6854 H   0  0  0  0  0  0  0  0  0  0  0  0
  142.7671   73.3968  220.2616 H   0  0  0  0  0  0  0  0  0  0  0  0
  144.3607   75.0597  219.3427 H   0  0  0  0  0  0  0  0  0  0  0  0
  143.8043   77.4813  219.3884 H   0  0  0  0  0  0  0  0  0  0  0  0
  142.2365   81.5305  221.4225 H   0  0  0  0  0  0  0  0  0  0  0  0
  140.8033   81.0804  220.5147 H   0  0  0  0  0  0  0  0  0  0  0  0
  140.2359   82.0513  222.8152 H   0  0  0  0  0  0  0  0  0  0  0  0
  139.6633   80.3524  222.6514 H   0  0  0  0  0  0  0  0  0  0  0  0
  142.0300   78.9477  224.7559 H   0  0  0  0  0  0  0  0  0  0  0  0
  140.6677   78.6588  223.6741 H   0  0  0  0  0  0  0  0  0  0  0  0
  143.4558   79.7016  222.7755 H   0  0  0  0  0  0  0  0  0  0  0  0
  142.9474   78.0292  222.5856 H   0  0  0  0  0  0  0  0  0  0  0  0
  140.0816   76.5646  221.2692 H   0  0  0  0  0  0  0  0  0  0  0  0
  141.3721   71.8356  224.6199 H   0  0  0  0  0  0  0  0  0  0  0  0
  139.8000   68.0321  225.1100 H   0  0  0  0  0  0  0  0  0  0  0  0
  140.6866   66.7999  227.0853 H   0  0  0  0  0  0  0  0  0  0  0  0
  141.4659   68.0795  229.0454 H   0  0  0  0  0  0  0  0  0  0  0  0
  141.3871   70.5134  229.0937 H   0  0  0  0  0  0  0  0  0  0  0  0
  140.5013   71.8012  227.1358 H   0  0  0  0  0  0  0  0  0  0  0  0
  137.6813   69.6103  224.7916 H   0  0  0  0  0  0  0  0  0  0  0  0
  136.8862   70.7982  222.7751 H   0  0  0  0  0  0  0  0  0  0  0  0
  1  2  2  0
  2  3  1  0
  3  4  1  0
  4  5  1  0
  5  6  2  0
  6  7  1  0
  7  8  2  0
  8  9  1  0
  9 10  1  0
 10 11  2  0
 10 12  1  0
 12 13  1  0
 13 14  1  0
 14 15  1  0
 15 16  1  0
 16 17  1  0
  9 18  2  0
  4 19  2  0
 19 20  1  0
 20 21  2  0
 21 22  1  0
 22 23  1  0
 23 24  2  0
 24 25  1  0
 25 26  2  0
 26 27  1  0
 27 28  2  0
 22 29  2  0
 29 30  1  0
 30 31  2  0
 31  2  1  0
 18  5  1  0
 31 20  1  0
 17 12  1  0
 28 23  1  0
  3 32  1  0
  3 33  1  0
  6 34  1  0
  7 35  1  0
  8 36  1  0
 13 37  1  0
 13 38  1  0
 14 39  1  0
 14 40  1  0
 16 41  1  0
 16 42  1  0
 17 43  1  0
 17 44  1  0
 18 45  1  0
 21 46  1  0
 24 47  1  0
 25 48  1  0
 26 49  1  0
 27 50  1  0
 28 51  1  0
 29 52  1  0
 30 53  1  0
M  END
>  <smiles>  (28) 
O=C1CC(c2cccc(C(=O)N3CCOCC3)c2)=Nc2cc(-c3ccccc3)ccc21

>  <score_type>  (28) 
oracle

>  <origin>  (28) 
autodockgpu

>  <m_score__min__energy>  (28) 
-9.7200000000000006

>  <m_primary>  (28) 
energy

>  <rmsd>  (28) 
7.311347570402031

>  <m_score__min__rmsd>  (28) 
7.311347570402031

>  <meeko>  (28) 
{"free_energy": -9.7, "intermolecular_energy": -10.59, "internal_energy": -1.02, "cluster_size": 50, "cluster_id": 1, "rank_in_cluster": 25}

>  <energy>  (28) 
-9.69

>  <cluster_rmsd>  (28) 
0.05

>  <cluster>  (28) 
1

$$$$

     RDKit          3D

 53 57  0  0  0  0  0  0  0  0999 V2000
  137.1380   72.3630  220.8700 O   0  0  0  0  0  0  0  0  0  0  0  0
  138.2600   72.6550  221.3540 C   0  0  0  0  0  0  0  0  0  0  0  0
  139.0720   73.6860  220.6670 C   0  0  0  0  0  0  0  0  0  0  0  0
  140.3510   73.8730  221.3900 C   0  0  0  0  0  0  0  0  0  0  0  0
  141.3020   74.8680  220.8430 C   0  0  0  0  0  0  0  0  0  0  0  0
  142.5140   74.4700  220.2990 C   0  0  0  0  0  0  0  0  0  0  0  0
  143.3990   75.4070  219.7900 C   0  0  0  0  0  0  0  0  0  0  0  0
  143.0780   76.7590  219.8220 C   0  0  0  0  0  0  0  0  0  0  0  0
  141.8760   77.1810  220.3590 C   0  0  0  0  0  0  0  0  0  0  0  0
  141.4780   78.5770  220.4230 C   0  0  0  0  0  0  0  0  0  0  0  0
  140.8030   79.0440  219.4720 O   0  0  0  0  0  0  0  0  0  0  0  0
  141.8010   79.4490  221.4910 N   0  0  0  0  0  0  0  0  0  0  0  0
  141.3450   80.8390  221.4540 C   0  0  0  0  0  0  0  0  0  0  0  0
  140.5340   80.9900  222.7520 C   0  0  0  0  0  0  0  0  0  0  0  0
  141.3110   80.6320  223.8430 O   0  0  0  0  0  0  0  0  0  0  0  0
  141.5920   79.2560  223.8300 C   0  0  0  0  0  0  0  0  0  0  0  0
  142.5690   79.0650  222.6600 C   0  0  0  0  0  0  0  0  0  0  0  0
  141.0230   76.2190  220.8550 C   0  0  0  0  0  0  0  0  0  0  0  0
  140.6900   73.2320  222.4540 N   0  0  0  0  0  0  0  0  0  0  0  0
  139.9120   72.2560  223.1030 C   0  0  0  0  0  0  0  0  0  0  0  0
  140.3630   71.6180  224.2440 C   0  0  0  0  0  0  0  0  0  0  0  0
  139.5660   70.6550  224.8560 C   0  0  0  0  0  0  0  0  0  0  0  0
  140.0820   70.0070  226.0550 C   0  0  0  0  0  0  0  0  0  0  0  0
  140.5020   70.8290  227.1000 C   0  0  0  0  0  0  0  0  0  0  0  0
  140.9980   70.2690  228.2580 C   0  0  0  0  0  0  0  0  0  0  0  0
  141.0630   68.9020  228.3490 C   0  0  0  0  0  0  0  0  0  0  0  0
  140.6560   68.0890  227.3370 C   0  0  0  0  0  0  0  0  0  0  0  0
  140.1520   68.6190  226.1540 C   0  0  0  0  0  0  0  0  0  0  0  0
  138.3270   70.3470  224.3160 C   0  0  0  0  0  0  0  0  0  0  0  0
  137.8960   70.9940  223.1770 C   0  0  0  0  0  0  0  0  0  0  0  0
  138.6790   71.9530  222.5560 C   0  0  0  0  0  0  0  0  0  0  0  0
  139.2780   73.3629  219.6359 H   0  0  0  0  0  0  0  0  0  0  0  0
  138.5186   74.6365  220.6510 H   0  0  0  0  0  0  0  0  0  0  0  0
  142.7750   73.4018  220.2713 H   0  0  0  0  0  0  0  0  0  0  0  0
  144.3572   75.0802  219.3599 H   0  0  0  0  0  0  0  0  0  0  0  0
  143.7851   77.4981  219.4174 H   0  0  0  0  0  0  0  0  0  0  0  0
  142.1991   81.5320  221.4420 H   0  0  0  0  0  0  0  0  0  0  0  0
  140.7570   81.0714  220.5539 H   0  0  0  0  0  0  0  0  0  0  0  0
  140.2135   82.0366  222.8612 H   0  0  0  0  0  0  0  0  0  0  0  0
  139.6536   80.3322  222.7053 H   0  0  0  0  0  0  0  0  0  0  0  0
  142.0573   78.9467  224.7776 H   0  0  0  0  0  0  0  0  0  0  0  0
  140.6826   78.6480  223.7145 H   0  0  0  0  0  0  0  0  0  0  0  0
  143.4506   79.7123  222.7779 H   0  0  0  0  0  0  0  0  0  0  0  0
  142.9522   78.0360  222.5939 H   0  0  0  0  0  0  0  0  0  0  0  0
  140.0651   76.5470  221.2850 H   0  0  0  0  0  0  0  0  0  0  0  0
  141.3470   71.8704  224.6659 H   0  0  0  0  0  0  0  0  0  0  0  0
  140.4377   71.9226  227.0006 H   0  0  0  0  0  0  0  0  0  0  0  0
  141.3342   70.9045  229.0906 H   0  0  0  0  0  0  0  0  0  0  0  0
  141.4571   68.4482  229.2703 H   0  0  0  0  0  0  0  0  0  0  0  0
  140.7265   66.9977  227.4560 H   0  0  0  0  0  0  0  0  0  0  0  0
  139.8221   67.9689  225.3302 H   0  0  0  0  0  0  0  0  0  0  0  0
  137.6896   69.5889  224.7945 H   0  0  0  0  0  0  0  0  0  0  0  0
  136.9120   70.7438  222.7538 H   0  0  0  0  0  0  0  0  0  0  0  0
  1  2  2  0
  2  3  1  0
  3  4  1  0
  4  5  1  0
  5  6  2  0
  6  7  1  0
  7  8  2  0
  8  9  1  0
  9 10  1  0
 10 11  2  0
 10 12  1  0
 12 13  1  0
 13 14  1  0
 14 15  1  0
 15 16  1  0
 16 17  1  0
  9 18  2  0
  4 19  2  0
 19 20  1  0
 20 21  2  0
 21 22  1  0
 22 23  1  0
 23 24  2  0
 24 25  1  0
 25 26  2  0
 26 27  1  0
 27 28  2  0
 22 29  2  0
 29 30  1  0
 30 31  2  0
 31  2  1  0
 18  5  1  0
 31 20  1  0
 17 12  1  0
 28 23  1  0
  3 32  1  0
  3 33  1  0
  6 34  1  0
  7 35  1  0
  8 36  1  0
 13 37  1  0
 13 38  1  0
 14 39  1  0
 14 40  1  0
 16 41  1  0
 16 42  1  0
 17 43  1  0
 17 44  1  0
 18 45  1  0
 21 46  1  0
 24 47  1  0
 25 48  1  0
 26 49  1  0
 27 50  1  0
 28 51  1  0
 29 52  1  0
 30 53  1  0
M  END
>  <smiles>  (29) 
O=C1CC(c2cccc(C(=O)N3CCOCC3)c2)=Nc2cc(-c3ccccc3)ccc21

>  <score_type>  (29) 
oracle

>  <origin>  (29) 
autodockgpu

>  <m_score__min__energy>  (29) 
-9.7200000000000006

>  <m_primary>  (29) 
energy

>  <rmsd>  (29) 
7.29630418663543

>  <m_score__min__rmsd>  (29) 
7.29630418663543

>  <meeko>  (29) 
{"free_energy": -9.7, "intermolecular_energy": -10.59, "internal_energy": -1.02, "cluster_size": 50, "cluster_id": 1, "rank_in_cluster": 22}

>  <energy>  (29) 
-9.69

>  <cluster_rmsd>  (29) 
0.13

>  <cluster>  (29) 
1

$$$$

     RDKit          3D

 53 57  0  0  0  0  0  0  0  0999 V2000
  137.1040   72.4280  220.8940 O   0  0  0  0  0  0  0  0  0  0  0  0
  138.2360   72.7020  221.3670 C   0  0  0  0  0  0  0  0  0  0  0  0
  139.0520   73.7280  220.6770 C   0  0  0  0  0  0  0  0  0  0  0  0
  140.3420   73.8930  221.3860 C   0  0  0  0  0  0  0  0  0  0  0  0
  141.2990   74.8790  220.8350 C   0  0  0  0  0  0  0  0  0  0  0  0
  142.5070   74.4710  220.2900 C   0  0  0  0  0  0  0  0  0  0  0  0
  143.3990   75.3990  219.7770 C   0  0  0  0  0  0  0  0  0  0  0  0
  143.0880   76.7530  219.8060 C   0  0  0  0  0  0  0  0  0  0  0  0
  141.8900   77.1860  220.3430 C   0  0  0  0  0  0  0  0  0  0  0  0
  141.5020   78.5850  220.4030 C   0  0  0  0  0  0  0  0  0  0  0  0
  140.8470   79.0600  219.4430 O   0  0  0  0  0  0  0  0  0  0  0  0
  141.8140   79.4520  221.4800 N   0  0  0  0  0  0  0  0  0  0  0  0
  141.3700   80.8460  221.4380 C   0  0  0  0  0  0  0  0  0  0  0  0
  140.5370   81.0010  222.7230 C   0  0  0  0  0  0  0  0  0  0  0  0
  141.2930   80.6330  223.8260 O   0  0  0  0  0  0  0  0  0  0  0  0
  141.5630   79.2550  223.8140 C   0  0  0  0  0  0  0  0  0  0  0  0
  142.5580   79.0590  222.6610 C   0  0  0  0  0  0  0  0  0  0  0  0
  141.0300   76.2320  220.8440 C   0  0  0  0  0  0  0  0  0  0  0  0
  140.6860   73.2400  222.4420 N   0  0  0  0  0  0  0  0  0  0  0  0
  139.9030   72.2690  223.0930 C   0  0  0  0  0  0  0  0  0  0  0  0
  140.3590   71.6180  224.2240 C   0  0  0  0  0  0  0  0  0  0  0  0
  139.5560   70.6610  224.8390 C   0  0  0  0  0  0  0  0  0  0  0  0
  140.0780   69.9980  226.0280 C   0  0  0  0  0  0  0  0  0  0  0  0
  140.4940   70.8060  227.0840 C   0  0  0  0  0  0  0  0  0  0  0  0
  140.9950   70.2320  228.2330 C   0  0  0  0  0  0  0  0  0  0  0  0
  141.0680   68.8640  228.3030 C   0  0  0  0  0  0  0  0  0  0  0  0
  140.6650   68.0640  227.2790 C   0  0  0  0  0  0  0  0  0  0  0  0
  140.1560   68.6080  226.1050 C   0  0  0  0  0  0  0  0  0  0  0  0
  138.3070   70.3730  224.3120 C   0  0  0  0  0  0  0  0  0  0  0  0
  137.8710   71.0330  223.1830 C   0  0  0  0  0  0  0  0  0  0  0  0
  138.6590   71.9860  222.5590 C   0  0  0  0  0  0  0  0  0  0  0  0
  139.2412   73.4101  219.6411 H   0  0  0  0  0  0  0  0  0  0  0  0
  138.5106   74.6855  220.6740 H   0  0  0  0  0  0  0  0  0  0  0  0
  142.7595   73.4007  220.2647 H   0  0  0  0  0  0  0  0  0  0  0  0
  144.3541   75.0636  219.3464 H   0  0  0  0  0  0  0  0  0  0  0  0
  143.8003   77.4857  219.3987 H   0  0  0  0  0  0  0  0  0  0  0  0
  142.2298   81.5321  221.4425 H   0  0  0  0  0  0  0  0  0  0  0  0
  140.7998   81.0851  220.5282 H   0  0  0  0  0  0  0  0  0  0  0  0
  140.2238   82.0501  222.8297 H   0  0  0  0  0  0  0  0  0  0  0  0
  139.6514   80.3517  222.6596 H   0  0  0  0  0  0  0  0  0  0  0  0
  142.0093   78.9395  224.7686 H   0  0  0  0  0  0  0  0  0  0  0  0
  140.6508   78.6548  223.6811 H   0  0  0  0  0  0  0  0  0  0  0  0
  143.4426   79.6987  222.7958 H   0  0  0  0  0  0  0  0  0  0  0  0
  142.9337   78.0270  222.5988 H   0  0  0  0  0  0  0  0  0  0  0  0
  140.0756   76.5686  221.2751 H   0  0  0  0  0  0  0  0  0  0  0  0
  141.3511   71.8547  224.6360 H   0  0  0  0  0  0  0  0  0  0  0  0
  140.4228   71.9006  227.0011 H   0  0  0  0  0  0  0  0  0  0  0  0
  141.3286   70.8569  229.0746 H   0  0  0  0  0  0  0  0  0  0  0  0
  141.4654   68.3986  229.2170 H   0  0  0  0  0  0  0  0  0  0  0  0
  140.7429   66.9715  227.3813 H   0  0  0  0  0  0  0  0  0  0  0  0
  139.8286   67.9686  225.2719 H   0  0  0  0  0  0  0  0  0  0  0  0
  137.6655   69.6200  224.7931 H   0  0  0  0  0  0  0  0  0  0  0  0
  136.8788   70.7984  222.7700 H   0  0  0  0  0  0  0  0  0  0  0  0
  1  2  2  0
  2  3  1  0
  3  4  1  0
  4  5  1  0
  5  6  2  0
  6  7  1  0
  7  8  2  0
  8  9  1  0
  9 10  1  0
 10 11  2  0
 10 12  1  0
 12 13  1  0
 13 14  1  0
 14 15  1  0
 15 16  1  0
 16 17  1  0
  9 18  2  0
  4 19  2  0
 19 20  1  0
 20 21  2  0
 21 22  1  0
 22 23  1  0
 23 24  2  0
 24 25  1  0
 25 26  2  0
 26 27  1  0
 27 28  2  0
 22 29  2  0
 29 30  1  0
 30 31  2  0
 31  2  1  0
 18  5  1  0
 31 20  1  0
 17 12  1  0
 28 23  1  0
  3 32  1  0
  3 33  1  0
  6 34  1  0
  7 35  1  0
  8 36  1  0
 13 37  1  0
 13 38  1  0
 14 39  1  0
 14 40  1  0
 16 41  1  0
 16 42  1  0
 17 43  1  0
 17 44  1  0
 18 45  1  0
 21 46  1  0
 24 47  1  0
 25 48  1  0
 26 49  1  0
 27 50  1  0
 28 51  1  0
 29 52  1  0
 30 53  1  0
M  END
>  <smiles>  (30) 
O=C1CC(c2cccc(C(=O)N3CCOCC3)c2)=Nc2cc(-c3ccccc3)ccc21

>  <score_type>  (30) 
oracle

>  <origin>  (30) 
autodockgpu

>  <m_score__min__energy>  (30) 
-9.7200000000000006

>  <m_primary>  (30) 
energy

>  <rmsd>  (30) 
7.313158817903161

>  <m_score__min__rmsd>  (30) 
7.313158817903161

>  <meeko>  (30) 
{"free_energy": -9.7, "intermolecular_energy": -10.59, "internal_energy": -1.02, "cluster_size": 50, "cluster_id": 1, "rank_in_cluster": 23}

>  <energy>  (30) 
-9.69

>  <cluster_rmsd>  (30) 
0.08

>  <cluster>  (30) 
1

$$$$

     RDKit          3D

 53 57  0  0  0  0  0  0  0  0999 V2000
  137.2360   72.1990  220.7760 O   0  0  0  0  0  0  0  0  0  0  0  0
  138.3370   72.5420  221.2760 C   0  0  0  0  0  0  0  0  0  0  0  0
  139.1280   73.5830  220.5770 C   0  0  0  0  0  0  0  0  0  0  0  0
  140.3830   73.8340  221.3230 C   0  0  0  0  0  0  0  0  0  0  0  0
  141.3110   74.8460  220.7690 C   0  0  0  0  0  0  0  0  0  0  0  0
  142.5160   74.4690  220.1960 C   0  0  0  0  0  0  0  0  0  0  0  0
  143.3810   75.4210  219.6820 C   0  0  0  0  0  0  0  0  0  0  0  0
  143.0450   76.7680  219.7350 C   0  0  0  0  0  0  0  0  0  0  0  0
  141.8490   77.1710  220.3000 C   0  0  0  0  0  0  0  0  0  0  0  0
  141.4360   78.5610  220.3880 C   0  0  0  0  0  0  0  0  0  0  0  0
  140.7550   79.0370  219.4470 O   0  0  0  0  0  0  0  0  0  0  0  0
  141.7520   79.4180  221.4710 N   0  0  0  0  0  0  0  0  0  0  0  0
  141.2820   80.8040  221.4570 C   0  0  0  0  0  0  0  0  0  0  0  0
  140.4700   80.9250  222.7590 C   0  0  0  0  0  0  0  0  0  0  0  0
  141.2530   80.5570  223.8430 O   0  0  0  0  0  0  0  0  0  0  0  0
  141.5490   79.1840  223.8060 C   0  0  0  0  0  0  0  0  0  0  0  0
  142.5250   79.0230  222.6320 C   0  0  0  0  0  0  0  0  0  0  0  0
  141.0170   76.1940  220.8020 C   0  0  0  0  0  0  0  0  0  0  0  0
  140.7190   73.2350  222.4120 N   0  0  0  0  0  0  0  0  0  0  0  0
  139.9610   72.2500  223.0710 C   0  0  0  0  0  0  0  0  0  0  0  0
  140.4070   71.6610  224.2390 C   0  0  0  0  0  0  0  0  0  0  0  0
  139.6290   70.6880  224.8610 C   0  0  0  0  0  0  0  0  0  0  0  0
  140.1400   70.0910  226.0890 C   0  0  0  0  0  0  0  0  0  0  0  0
  140.1420   68.7000  226.1750 C   0  0  0  0  0  0  0  0  0  0  0  0
  140.6150   68.0820  227.3140 C   0  0  0  0  0  0  0  0  0  0  0  0
  141.0750   68.8660  228.3410 C   0  0  0  0  0  0  0  0  0  0  0  0
  141.0770   70.2250  228.2690 C   0  0  0  0  0  0  0  0  0  0  0  0
  140.6070   70.8820  227.1370 C   0  0  0  0  0  0  0  0  0  0  0  0
  138.4140   70.3220  224.3030 C   0  0  0  0  0  0  0  0  0  0  0  0
  137.9870   70.9210  223.1370 C   0  0  0  0  0  0  0  0  0  0  0  0
  138.7510   71.8890  222.5060 C   0  0  0  0  0  0  0  0  0  0  0  0
  139.3685   73.2395  219.5600 H   0  0  0  0  0  0  0  0  0  0  0  0
  138.5425   74.5126  220.5214 H   0  0  0  0  0  0  0  0  0  0  0  0
  142.7876   73.4041  220.1492 H   0  0  0  0  0  0  0  0  0  0  0  0
  144.3351   75.1101  219.2313 H   0  0  0  0  0  0  0  0  0  0  0  0
  143.7355   77.5195  219.3245 H   0  0  0  0  0  0  0  0  0  0  0  0
  142.1290   81.5058  221.4559 H   0  0  0  0  0  0  0  0  0  0  0  0
  140.6911   81.0455  220.5612 H   0  0  0  0  0  0  0  0  0  0  0  0
  140.1385   81.9661  222.8860 H   0  0  0  0  0  0  0  0  0  0  0  0
  139.5962   80.2592  222.7025 H   0  0  0  0  0  0  0  0  0  0  0  0
  142.0195   78.8638  224.7474 H   0  0  0  0  0  0  0  0  0  0  0  0
  140.6459   78.5684  223.6817 H   0  0  0  0  0  0  0  0  0  0  0  0
  143.3999   79.6774  222.7594 H   0  0  0  0  0  0  0  0  0  0  0  0
  142.9184   77.9992  222.5482 H   0  0  0  0  0  0  0  0  0  0  0  0
  140.0644   76.5062  221.2548 H   0  0  0  0  0  0  0  0  0  0  0  0
  141.3718   71.9594  224.6751 H   0  0  0  0  0  0  0  0  0  0  0  0
  139.7669   68.0957  225.3358 H   0  0  0  0  0  0  0  0  0  0  0  0
  140.6231   66.9851  227.3967 H   0  0  0  0  0  0  0  0  0  0  0  0
  141.4545   68.3807  229.2523 H   0  0  0  0  0  0  0  0  0  0  0  0
  141.4558   70.8123  229.1185 H   0  0  0  0  0  0  0  0  0  0  0  0
  140.6040   71.9801  227.0716 H   0  0  0  0  0  0  0  0  0  0  0  0
  137.7923   69.5558  224.7892 H   0  0  0  0  0  0  0  0  0  0  0  0
  137.0220   70.6249  222.6998 H   0  0  0  0  0  0  0  0  0  0  0  0
  1  2  2  0
  2  3  1  0
  3  4  1  0
  4  5  1  0
  5  6  2  0
  6  7  1  0
  7  8  2  0
  8  9  1  0
  9 10  1  0
 10 11  2  0
 10 12  1  0
 12 13  1  0
 13 14  1  0
 14 15  1  0
 15 16  1  0
 16 17  1  0
  9 18  2  0
  4 19  2  0
 19 20  1  0
 20 21  2  0
 21 22  1  0
 22 23  1  0
 23 24  2  0
 24 25  1  0
 25 26  2  0
 26 27  1  0
 27 28  2  0
 22 29  2  0
 29 30  1  0
 30 31  2  0
 31  2  1  0
 18  5  1  0
 31 20  1  0
 17 12  1  0
 28 23  1  0
  3 32  1  0
  3 33  1  0
  6 34  1  0
  7 35  1  0
  8 36  1  0
 13 37  1  0
 13 38  1  0
 14 39  1  0
 14 40  1  0
 16 41  1  0
 16 42  1  0
 17 43  1  0
 17 44  1  0
 18 45  1  0
 21 46  1  0
 24 47  1  0
 25 48  1  0
 26 49  1  0
 27 50  1  0
 28 51  1  0
 29 52  1  0
 30 53  1  0
M  END
>  <smiles>  (31) 
O=C1CC(c2cccc(C(=O)N3CCOCC3)c2)=Nc2cc(-c3ccccc3)ccc21

>  <score_type>  (31) 
oracle

>  <origin>  (31) 
autodockgpu

>  <m_score__min__energy>  (31) 
-9.7200000000000006

>  <m_primary>  (31) 
energy

>  <rmsd>  (31) 
7.2747899294421865

>  <m_score__min__rmsd>  (31) 
7.2747899294421865

>  <meeko>  (31) 
{"free_energy": -9.71, "intermolecular_energy": -10.6, "internal_energy": -1.02, "cluster_size": 50, "cluster_id": 1, "rank_in_cluster": 3}

>  <energy>  (31) 
-9.69

>  <cluster_rmsd>  (31) 
0.12

>  <cluster>  (31) 
1

$$$$

     RDKit          3D

 53 57  0  0  0  0  0  0  0  0999 V2000
  137.2570   72.2070  220.6730 O   0  0  0  0  0  0  0  0  0  0  0  0
  138.3480   72.5560  221.1890 C   0  0  0  0  0  0  0  0  0  0  0  0
  139.1380   73.6080  220.5090 C   0  0  0  0  0  0  0  0  0  0  0  0
  140.3810   73.8650  221.2720 C   0  0  0  0  0  0  0  0  0  0  0  0
  141.3080   74.8890  220.7380 C   0  0  0  0  0  0  0  0  0  0  0  0
  142.5200   74.5260  220.1710 C   0  0  0  0  0  0  0  0  0  0  0  0
  143.3830   75.4890  219.6740 C   0  0  0  0  0  0  0  0  0  0  0  0
  143.0390   76.8340  219.7410 C   0  0  0  0  0  0  0  0  0  0  0  0
  141.8360   77.2220  220.3000 C   0  0  0  0  0  0  0  0  0  0  0  0
  141.4140   78.6090  220.4000 C   0  0  0  0  0  0  0  0  0  0  0  0
  140.7160   79.0840  219.4700 O   0  0  0  0  0  0  0  0  0  0  0  0
  141.7370   79.4630  221.4830 N   0  0  0  0  0  0  0  0  0  0  0  0
  141.2560   80.8460  221.4820 C   0  0  0  0  0  0  0  0  0  0  0  0
  140.4610   80.9540  222.7960 C   0  0  0  0  0  0  0  0  0  0  0  0
  141.2610   80.5860  223.8670 O   0  0  0  0  0  0  0  0  0  0  0  0
  141.5670   79.2160  223.8190 C   0  0  0  0  0  0  0  0  0  0  0  0
  142.5290   79.0680  222.6320 C   0  0  0  0  0  0  0  0  0  0  0  0
  141.0060   76.2340  220.7840 C   0  0  0  0  0  0  0  0  0  0  0  0
  140.7090   73.2620  222.3620 N   0  0  0  0  0  0  0  0  0  0  0  0
  139.9500   72.2660  223.0040 C   0  0  0  0  0  0  0  0  0  0  0  0
  140.3860   71.6720  224.1740 C   0  0  0  0  0  0  0  0  0  0  0  0
  139.6090   70.6880  224.7790 C   0  0  0  0  0  0  0  0  0  0  0  0
  140.1080   70.0880  226.0100 C   0  0  0  0  0  0  0  0  0  0  0  0
  140.5420   70.9500  227.0150 C   0  0  0  0  0  0  0  0  0  0  0  0
  141.0240   70.4370  228.2010 C   0  0  0  0  0  0  0  0  0  0  0  0
  141.0600   69.0740  228.3580 C   0  0  0  0  0  0  0  0  0  0  0  0
  140.6400   68.2220  227.3840 C   0  0  0  0  0  0  0  0  0  0  0  0
  140.1490   68.7050  226.1750 C   0  0  0  0  0  0  0  0  0  0  0  0
  138.4050   70.3160  224.2030 C   0  0  0  0  0  0  0  0  0  0  0  0
  137.9880   70.9190  223.0350 C   0  0  0  0  0  0  0  0  0  0  0  0
  138.7520   71.8990  222.4210 C   0  0  0  0  0  0  0  0  0  0  0  0
  139.3944   73.2743  219.4927 H   0  0  0  0  0  0  0  0  0  0  0  0
  138.5449   74.5327  220.4535 H   0  0  0  0  0  0  0  0  0  0  0  0
  142.7990   73.4634  220.1153 H   0  0  0  0  0  0  0  0  0  0  0  0
  144.3416   75.1888  219.2258 H   0  0  0  0  0  0  0  0  0  0  0  0
  143.7288   77.5947  219.3465 H   0  0  0  0  0  0  0  0  0  0  0  0
  142.0975   81.5544  221.4727 H   0  0  0  0  0  0  0  0  0  0  0  0
  140.6511   81.0874  220.5955 H   0  0  0  0  0  0  0  0  0  0  0  0
  140.1238   81.9920  222.9332 H   0  0  0  0  0  0  0  0  0  0  0  0
  139.5915   80.2820  222.7477 H   0  0  0  0  0  0  0  0  0  0  0  0
  142.0519   78.8947  224.7526 H   0  0  0  0  0  0  0  0  0  0  0  0
  140.6670   78.5943  223.7028 H   0  0  0  0  0  0  0  0  0  0  0  0
  143.4006   79.7284  222.7511 H   0  0  0  0  0  0  0  0  0  0  0  0
  142.9295   78.0478  222.5380 H   0  0  0  0  0  0  0  0  0  0  0  0
  140.0479   76.5353  221.2326 H   0  0  0  0  0  0  0  0  0  0  0  0
  141.3424   71.9756  224.6247 H   0  0  0  0  0  0  0  0  0  0  0  0
  140.5002   72.0386  226.8626 H   0  0  0  0  0  0  0  0  0  0  0  0
  141.3717   71.1050  229.0028 H   0  0  0  0  0  0  0  0  0  0  0  0
  141.4408   68.6569  229.3020 H   0  0  0  0  0  0  0  0  0  0  0  0
  140.6893   67.1364  227.5546 H   0  0  0  0  0  0  0  0  0  0  0  0
  139.8073   68.0232  225.3822 H   0  0  0  0  0  0  0  0  0  0  0  0
  137.7833   69.5416  224.6762 H   0  0  0  0  0  0  0  0  0  0  0  0
  137.0320   70.6168  222.5825 H   0  0  0  0  0  0  0  0  0  0  0  0
  1  2  2  0
  2  3  1  0
  3  4  1  0
  4  5  1  0
  5  6  2  0
  6  7  1  0
  7  8  2  0
  8  9  1  0
  9 10  1  0
 10 11  2  0
 10 12  1  0
 12 13  1  0
 13 14  1  0
 14 15  1  0
 15 16  1  0
 16 17  1  0
  9 18  2  0
  4 19  2  0
 19 20  1  0
 20 21  2  0
 21 22  1  0
 22 23  1  0
 23 24  2  0
 24 25  1  0
 25 26  2  0
 26 27  1  0
 27 28  2  0
 22 29  2  0
 29 30  1  0
 30 31  2  0
 31  2  1  0
 18  5  1  0
 31 20  1  0
 17 12  1  0
 28 23  1  0
  3 32  1  0
  3 33  1  0
  6 34  1  0
  7 35  1  0
  8 36  1  0
 13 37  1  0
 13 38  1  0
 14 39  1  0
 14 40  1  0
 16 41  1  0
 16 42  1  0
 17 43  1  0
 17 44  1  0
 18 45  1  0
 21 46  1  0
 24 47  1  0
 25 48  1  0
 26 49  1  0
 27 50  1  0
 28 51  1  0
 29 52  1  0
 30 53  1  0
M  END
>  <smiles>  (32) 
O=C1CC(c2cccc(C(=O)N3CCOCC3)c2)=Nc2cc(-c3ccccc3)ccc21

>  <score_type>  (32) 
oracle

>  <origin>  (32) 
autodockgpu

>  <m_score__min__energy>  (32) 
-9.7200000000000006

>  <m_primary>  (32) 
energy

>  <rmsd>  (32) 
7.321419455458837

>  <m_score__min__rmsd>  (32) 
7.321419455458837

>  <meeko>  (32) 
{"free_energy": -9.67, "intermolecular_energy": -10.56, "internal_energy": -1.02, "cluster_size": 50, "cluster_id": 1, "rank_in_cluster": 40}

>  <energy>  (32) 
-9.69

>  <cluster_rmsd>  (32) 
0.08

>  <cluster>  (32) 
1

$$$$

     RDKit          3D

 53 57  0  0  0  0  0  0  0  0999 V2000
  137.2330   72.2250  220.7790 O   0  0  0  0  0  0  0  0  0  0  0  0
  138.3340   72.5640  221.2810 C   0  0  0  0  0  0  0  0  0  0  0  0
  139.1280   73.6040  220.5870 C   0  0  0  0  0  0  0  0  0  0  0  0
  140.3840   73.8490  221.3340 C   0  0  0  0  0  0  0  0  0  0  0  0
  141.3150   74.8600  220.7850 C   0  0  0  0  0  0  0  0  0  0  0  0
  142.5240   74.4820  220.2180 C   0  0  0  0  0  0  0  0  0  0  0  0
  143.3910   75.4330  219.7070 C   0  0  0  0  0  0  0  0  0  0  0  0
  143.0560   76.7810  219.7580 C   0  0  0  0  0  0  0  0  0  0  0  0
  141.8580   77.1840  220.3170 C   0  0  0  0  0  0  0  0  0  0  0  0
  141.4450   78.5750  220.4010 C   0  0  0  0  0  0  0  0  0  0  0  0
  140.7540   79.0450  219.4640 O   0  0  0  0  0  0  0  0  0  0  0  0
  141.7710   79.4380  221.4770 N   0  0  0  0  0  0  0  0  0  0  0  0
  141.3000   80.8230  221.4600 C   0  0  0  0  0  0  0  0  0  0  0  0
  140.5020   80.9510  222.7700 C   0  0  0  0  0  0  0  0  0  0  0  0
  141.2960   80.5880  223.8470 O   0  0  0  0  0  0  0  0  0  0  0  0
  141.5920   79.2160  223.8150 C   0  0  0  0  0  0  0  0  0  0  0  0
  142.5570   79.0490  222.6320 C   0  0  0  0  0  0  0  0  0  0  0  0
  141.0220   76.2080  220.8150 C   0  0  0  0  0  0  0  0  0  0  0  0
  140.7180   73.2450  222.4210 N   0  0  0  0  0  0  0  0  0  0  0  0
  139.9550   72.2610  223.0760 C   0  0  0  0  0  0  0  0  0  0  0  0
  140.3990   71.6660  224.2430 C   0  0  0  0  0  0  0  0  0  0  0  0
  139.6180   70.6930  224.8610 C   0  0  0  0  0  0  0  0  0  0  0  0
  140.1250   70.0910  226.0880 C   0  0  0  0  0  0  0  0  0  0  0  0
  140.1060   68.7000  226.1760 C   0  0  0  0  0  0  0  0  0  0  0  0
  140.5750   68.0770  227.3140 C   0  0  0  0  0  0  0  0  0  0  0  0
  141.0540   68.8560  228.3370 C   0  0  0  0  0  0  0  0  0  0  0  0
  141.0770   70.2150  228.2620 C   0  0  0  0  0  0  0  0  0  0  0  0
  140.6120   70.8770  227.1320 C   0  0  0  0  0  0  0  0  0  0  0  0
  138.4020   70.3330  224.3010 C   0  0  0  0  0  0  0  0  0  0  0  0
  137.9780   70.9370  223.1370 C   0  0  0  0  0  0  0  0  0  0  0  0
  138.7450   71.9050  222.5100 C   0  0  0  0  0  0  0  0  0  0  0  0
  139.3677   73.2634  219.5689 H   0  0  0  0  0  0  0  0  0  0  0  0
  138.5453   74.5355  220.5351 H   0  0  0  0  0  0  0  0  0  0  0  0
  142.7960   73.4171  220.1741 H   0  0  0  0  0  0  0  0  0  0  0  0
  144.3465   75.1212  219.2600 H   0  0  0  0  0  0  0  0  0  0  0  0
  143.7489   77.5320  219.3508 H   0  0  0  0  0  0  0  0  0  0  0  0
  142.1464   81.5254  221.4457 H   0  0  0  0  0  0  0  0  0  0  0  0
  140.6993   81.0589  220.5692 H   0  0  0  0  0  0  0  0  0  0  0  0
  140.1725   81.9930  222.8954 H   0  0  0  0  0  0  0  0  0  0  0  0
  139.6273   80.2855  222.7261 H   0  0  0  0  0  0  0  0  0  0  0  0
  142.0717   78.9013  224.7535 H   0  0  0  0  0  0  0  0  0  0  0  0
  140.6881   78.5993  223.7031 H   0  0  0  0  0  0  0  0  0  0  0  0
  143.4329   79.7044  222.7470 H   0  0  0  0  0  0  0  0  0  0  0  0
  142.9507   78.0252  222.5495 H   0  0  0  0  0  0  0  0  0  0  0  0
  140.0669   76.5215  221.2618 H   0  0  0  0  0  0  0  0  0  0  0  0
  141.3644   71.9600  224.6807 H   0  0  0  0  0  0  0  0  0  0  0  0
  139.7178   68.1002  225.3396 H   0  0  0  0  0  0  0  0  0  0  0  0
  140.5652   66.9804  227.3994 H   0  0  0  0  0  0  0  0  0  0  0  0
  141.4315   68.3666  229.2469 H   0  0  0  0  0  0  0  0  0  0  0  0
  141.4695   70.7978  229.1083 H   0  0  0  0  0  0  0  0  0  0  0  0
  140.6274   71.9748  227.0639 H   0  0  0  0  0  0  0  0  0  0  0  0
  137.7773   69.5674  224.7843 H   0  0  0  0  0  0  0  0  0  0  0  0
  137.0127   70.6449  222.6978 H   0  0  0  0  0  0  0  0  0  0  0  0
  1  2  2  0
  2  3  1  0
  3  4  1  0
  4  5  1  0
  5  6  2  0
  6  7  1  0
  7  8  2  0
  8  9  1  0
  9 10  1  0
 10 11  2  0
 10 12  1  0
 12 13  1  0
 13 14  1  0
 14 15  1  0
 15 16  1  0
 16 17  1  0
  9 18  2  0
  4 19  2  0
 19 20  1  0
 20 21  2  0
 21 22  1  0
 22 23  1  0
 23 24  2  0
 24 25  1  0
 25 26  2  0
 26 27  1  0
 27 28  2  0
 22 29  2  0
 29 30  1  0
 30 31  2  0
 31  2  1  0
 18  5  1  0
 31 20  1  0
 17 12  1  0
 28 23  1  0
  3 32  1  0
  3 33  1  0
  6 34  1  0
  7 35  1  0
  8 36  1  0
 13 37  1  0
 13 38  1  0
 14 39  1  0
 14 40  1  0
 16 41  1  0
 16 42  1  0
 17 43  1  0
 17 44  1  0
 18 45  1  0
 21 46  1  0
 24 47  1  0
 25 48  1  0
 26 49  1  0
 27 50  1  0
 28 51  1  0
 29 52  1  0
 30 53  1  0
M  END
>  <smiles>  (33) 
O=C1CC(c2cccc(C(=O)N3CCOCC3)c2)=Nc2cc(-c3ccccc3)ccc21

>  <score_type>  (33) 
oracle

>  <origin>  (33) 
autodockgpu

>  <m_score__min__energy>  (33) 
-9.7200000000000006

>  <m_primary>  (33) 
energy

>  <rmsd>  (33) 
7.2864201030357

>  <m_score__min__rmsd>  (33) 
7.2864201030357

>  <meeko>  (33) 
{"free_energy": -9.71, "intermolecular_energy": -10.6, "internal_energy": -1.02, "cluster_size": 50, "cluster_id": 1, "rank_in_cluster": 6}

>  <energy>  (33) 
-9.69

>  <cluster_rmsd>  (33) 
0.08

>  <cluster>  (33) 
1

$$$$

     RDKit          3D

 53 57  0  0  0  0  0  0  0  0999 V2000
  137.3190   72.0990  220.6440 O   0  0  0  0  0  0  0  0  0  0  0  0
  138.3970   72.4760  221.1690 C   0  0  0  0  0  0  0  0  0  0  0  0
  139.1760   73.5330  220.4840 C   0  0  0  0  0  0  0  0  0  0  0  0
  140.4050   73.8230  221.2590 C   0  0  0  0  0  0  0  0  0  0  0  0
  141.3190   74.8560  220.7220 C   0  0  0  0  0  0  0  0  0  0  0  0
  142.5330   74.5060  220.1510 C   0  0  0  0  0  0  0  0  0  0  0  0
  143.3840   75.4780  219.6520 C   0  0  0  0  0  0  0  0  0  0  0  0
  143.0260   76.8190  219.7210 C   0  0  0  0  0  0  0  0  0  0  0  0
  141.8220   77.1950  220.2840 C   0  0  0  0  0  0  0  0  0  0  0  0
  141.3860   78.5770  220.3880 C   0  0  0  0  0  0  0  0  0  0  0  0
  140.6630   79.0400  219.4710 O   0  0  0  0  0  0  0  0  0  0  0  0
  141.7230   79.4410  221.4590 N   0  0  0  0  0  0  0  0  0  0  0  0
  141.2270   80.8170  221.4630 C   0  0  0  0  0  0  0  0  0  0  0  0
  140.4600   80.9230  222.7930 C   0  0  0  0  0  0  0  0  0  0  0  0
  141.2880   80.5700  223.8470 O   0  0  0  0  0  0  0  0  0  0  0  0
  141.6080   79.2030  223.8000 C   0  0  0  0  0  0  0  0  0  0  0  0
  142.5450   79.0610  222.5920 C   0  0  0  0  0  0  0  0  0  0  0  0
  141.0030   76.1980  220.7710 C   0  0  0  0  0  0  0  0  0  0  0  0
  140.7300   73.2390  222.3600 N   0  0  0  0  0  0  0  0  0  0  0  0
  139.9820   72.2380  223.0060 C   0  0  0  0  0  0  0  0  0  0  0  0
  140.4150   71.6680  224.1890 C   0  0  0  0  0  0  0  0  0  0  0  0
  139.6480   70.6780  224.7980 C   0  0  0  0  0  0  0  0  0  0  0  0
  140.1430   70.1020  226.0420 C   0  0  0  0  0  0  0  0  0  0  0  0
  140.1310   68.7140  226.1570 C   0  0  0  0  0  0  0  0  0  0  0  0
  140.5890   68.1150  227.3120 C   0  0  0  0  0  0  0  0  0  0  0  0
  141.0490   68.9170  228.3260 C   0  0  0  0  0  0  0  0  0  0  0  0
  141.0660   70.2740  228.2260 C   0  0  0  0  0  0  0  0  0  0  0  0
  140.6110   70.9110  227.0770 C   0  0  0  0  0  0  0  0  0  0  0  0
  138.4580   70.2750  224.2120 C   0  0  0  0  0  0  0  0  0  0  0  0
  138.0440   70.8560  223.0310 C   0  0  0  0  0  0  0  0  0  0  0  0
  138.7980   71.8410  222.4140 C   0  0  0  0  0  0  0  0  0  0  0  0
  139.4510   73.1903  219.4756 H   0  0  0  0  0  0  0  0  0  0  0  0
  138.5669   74.4458  220.4082 H   0  0  0  0  0  0  0  0  0  0  0  0
  142.8229   73.4464  220.0938 H   0  0  0  0  0  0  0  0  0  0  0  0
  144.3443   75.1882  219.2005 H   0  0  0  0  0  0  0  0  0  0  0  0
  143.7065   77.5868  219.3243 H   0  0  0  0  0  0  0  0  0  0  0  0
  142.0601   81.5346  221.4321 H   0  0  0  0  0  0  0  0  0  0  0  0
  140.5998   81.0472  220.5891 H   0  0  0  0  0  0  0  0  0  0  0  0
  140.1138   81.9578  222.9324 H   0  0  0  0  0  0  0  0  0  0  0  0
  139.5971   80.2412  222.7676 H   0  0  0  0  0  0  0  0  0  0  0  0
  142.1173   78.8922  224.7241 H   0  0  0  0  0  0  0  0  0  0  0  0
  140.7131   78.5699  223.7081 H   0  0  0  0  0  0  0  0  0  0  0  0
  143.4109   79.7324  222.6886 H   0  0  0  0  0  0  0  0  0  0  0  0
  142.9554   78.0452  222.4936 H   0  0  0  0  0  0  0  0  0  0  0  0
  140.0438   76.4892  221.2240 H   0  0  0  0  0  0  0  0  0  0  0  0
  141.3604   71.9948  224.6467 H   0  0  0  0  0  0  0  0  0  0  0  0
  139.7566   68.0961  225.3275 H   0  0  0  0  0  0  0  0  0  0  0  0
  140.5856   67.0201  227.4178 H   0  0  0  0  0  0  0  0  0  0  0  0
  141.4162   68.4473  229.2504 H   0  0  0  0  0  0  0  0  0  0  0  0
  141.4449   70.8752  229.0657 H   0  0  0  0  0  0  0  0  0  0  0  0
  140.6198   72.0074  226.9880 H   0  0  0  0  0  0  0  0  0  0  0  0
  137.8457   69.4944  224.6871 H   0  0  0  0  0  0  0  0  0  0  0  0
  137.0988   70.5315  222.5713 H   0  0  0  0  0  0  0  0  0  0  0  0
  1  2  2  0
  2  3  1  0
  3  4  1  0
  4  5  1  0
  5  6  2  0
  6  7  1  0
  7  8  2  0
  8  9  1  0
  9 10  1  0
 10 11  2  0
 10 12  1  0
 12 13  1  0
 13 14  1  0
 14 15  1  0
 15 16  1  0
 16 17  1  0
  9 18  2  0
  4 19  2  0
 19 20  1  0
 20 21  2  0
 21 22  1  0
 22 23  1  0
 23 24  2  0
 24 25  1  0
 25 26  2  0
 26 27  1  0
 27 28  2  0
 22 29  2  0
 29 30  1  0
 30 31  2  0
 31  2  1  0
 18  5  1  0
 31 20  1  0
 17 12  1  0
 28 23  1  0
  3 32  1  0
  3 33  1  0
  6 34  1  0
  7 35  1  0
  8 36  1  0
 13 37  1  0
 13 38  1  0
 14 39  1  0
 14 40  1  0
 16 41  1  0
 16 42  1  0
 17 43  1  0
 17 44  1  0
 18 45  1  0
 21 46  1  0
 24 47  1  0
 25 48  1  0
 26 49  1  0
 27 50  1  0
 28 51  1  0
 29 52  1  0
 30 53  1  0
M  END
>  <smiles>  (34) 
O=C1CC(c2cccc(C(=O)N3CCOCC3)c2)=Nc2cc(-c3ccccc3)ccc21

>  <score_type>  (34) 
oracle

>  <origin>  (34) 
autodockgpu

>  <m_score__min__energy>  (34) 
-9.7200000000000006

>  <m_primary>  (34) 
energy

>  <rmsd>  (34) 
7.289130482561741

>  <m_score__min__rmsd>  (34) 
7.289130482561741

>  <meeko>  (34) 
{"free_energy": -9.66, "intermolecular_energy": -10.56, "internal_energy": -1.02, "cluster_size": 50, "cluster_id": 1, "rank_in_cluster": 42}

>  <energy>  (34) 
-9.69

>  <cluster_rmsd>  (34) 
0.11

>  <cluster>  (34) 
1

$$$$

     RDKit          3D

 53 57  0  0  0  0  0  0  0  0999 V2000
  137.1230   72.3350  220.8790 O   0  0  0  0  0  0  0  0  0  0  0  0
  138.2430   72.6340  221.3630 C   0  0  0  0  0  0  0  0  0  0  0  0
  139.0440   73.6780  220.6820 C   0  0  0  0  0  0  0  0  0  0  0  0
  140.3220   73.8710  221.4050 C   0  0  0  0  0  0  0  0  0  0  0  0
  141.2630   74.8790  220.8640 C   0  0  0  0  0  0  0  0  0  0  0  0
  142.4860   74.4980  220.3330 C   0  0  0  0  0  0  0  0  0  0  0  0
  143.3620   75.4470  219.8300 C   0  0  0  0  0  0  0  0  0  0  0  0
  143.0200   76.7930  219.8540 C   0  0  0  0  0  0  0  0  0  0  0  0
  141.8060   77.1990  220.3760 C   0  0  0  0  0  0  0  0  0  0  0  0
  141.3850   78.5890  220.4310 C   0  0  0  0  0  0  0  0  0  0  0  0
  140.6590   79.0240  219.5030 O   0  0  0  0  0  0  0  0  0  0  0  0
  141.7410   79.4880  221.4660 N   0  0  0  0  0  0  0  0  0  0  0  0
  141.2580   80.8690  221.4220 C   0  0  0  0  0  0  0  0  0  0  0  0
  140.5040   81.0320  222.7530 C   0  0  0  0  0  0  0  0  0  0  0  0
  141.3360   80.7100  223.8140 O   0  0  0  0  0  0  0  0  0  0  0  0
  141.6420   79.3390  223.8150 C   0  0  0  0  0  0  0  0  0  0  0  0
  142.5670   79.1420  222.6060 C   0  0  0  0  0  0  0  0  0  0  0  0
  140.9630   76.2260  220.8680 C   0  0  0  0  0  0  0  0  0  0  0  0
  140.6690   73.2260  222.4640 N   0  0  0  0  0  0  0  0  0  0  0  0
  139.9010   72.2380  223.1070 C   0  0  0  0  0  0  0  0  0  0  0  0
  140.3600   71.5970  224.2430 C   0  0  0  0  0  0  0  0  0  0  0  0
  139.5720   70.6220  224.8490 C   0  0  0  0  0  0  0  0  0  0  0  0
  140.0960   69.9700  226.0430 C   0  0  0  0  0  0  0  0  0  0  0  0
  140.5030   70.7880  227.0960 C   0  0  0  0  0  0  0  0  0  0  0  0
  141.0050   70.2250  228.2500 C   0  0  0  0  0  0  0  0  0  0  0  0
  141.0900   68.8580  228.3280 C   0  0  0  0  0  0  0  0  0  0  0  0
  140.6970   68.0480  227.3070 C   0  0  0  0  0  0  0  0  0  0  0  0
  140.1860   68.5820  226.1280 C   0  0  0  0  0  0  0  0  0  0  0  0
  138.3350   70.3060  224.3090 C   0  0  0  0  0  0  0  0  0  0  0  0
  137.8970   70.9570  223.1750 C   0  0  0  0  0  0  0  0  0  0  0  0
  138.6700   71.9280  222.5600 C   0  0  0  0  0  0  0  0  0  0  0  0
  139.2515   73.3646  219.6482 H   0  0  0  0  0  0  0  0  0  0  0  0
  138.4818   74.6234  220.6732 H   0  0  0  0  0  0  0  0  0  0  0  0
  142.7632   73.4337  220.3108 H   0  0  0  0  0  0  0  0  0  0  0  0
  144.3297   75.1337  219.4111 H   0  0  0  0  0  0  0  0  0  0  0  0
  143.7203   77.5414  219.4547 H   0  0  0  0  0  0  0  0  0  0  0  0
  142.0976   81.5767  221.3572 H   0  0  0  0  0  0  0  0  0  0  0  0
  140.6257   81.0726  220.5452 H   0  0  0  0  0  0  0  0  0  0  0  0
  140.1695   82.0748  222.8564 H   0  0  0  0  0  0  0  0  0  0  0  0
  139.6348   80.3579  222.7595 H   0  0  0  0  0  0  0  0  0  0  0  0
  142.1560   79.0575  224.7459 H   0  0  0  0  0  0  0  0  0  0  0  0
  140.7399   78.7125  223.7537 H   0  0  0  0  0  0  0  0  0  0  0  0
  143.4408   79.8071  222.6709 H   0  0  0  0  0  0  0  0  0  0  0  0
  142.9652   78.1186  222.5426 H   0  0  0  0  0  0  0  0  0  0  0  0
  139.9962   76.5410  221.2877 H   0  0  0  0  0  0  0  0  0  0  0  0
  141.3421   71.8559  224.6655 H   0  0  0  0  0  0  0  0  0  0  0  0
  140.4237   71.8815  227.0062 H   0  0  0  0  0  0  0  0  0  0  0  0
  141.3300   70.8576  229.0892 H   0  0  0  0  0  0  0  0  0  0  0  0
  141.4889   68.4014  229.2458 H   0  0  0  0  0  0  0  0  0  0  0  0
  140.7845   66.9569  227.4154 H   0  0  0  0  0  0  0  0  0  0  0  0
  139.8664   67.9353  225.2976 H   0  0  0  0  0  0  0  0  0  0  0  0
  137.7052   69.5389  224.7833 H   0  0  0  0  0  0  0  0  0  0  0  0
  136.9151   70.7003  222.7508 H   0  0  0  0  0  0  0  0  0  0  0  0
  1  2  2  0
  2  3  1  0
  3  4  1  0
  4  5  1  0
  5  6  2  0
  6  7  1  0
  7  8  2  0
  8  9  1  0
  9 10  1  0
 10 11  2  0
 10 12  1  0
 12 13  1  0
 13 14  1  0
 14 15  1  0
 15 16  1  0
 16 17  1  0
  9 18  2  0
  4 19  2  0
 19 20  1  0
 20 21  2  0
 21 22  1  0
 22 23  1  0
 23 24  2  0
 24 25  1  0
 25 26  2  0
 26 27  1  0
 27 28  2  0
 22 29  2  0
 29 30  1  0
 30 31  2  0
 31  2  1  0
 18  5  1  0
 31 20  1  0
 17 12  1  0
 28 23  1  0
  3 32  1  0
  3 33  1  0
  6 34  1  0
  7 35  1  0
  8 36  1  0
 13 37  1  0
 13 38  1  0
 14 39  1  0
 14 40  1  0
 16 41  1  0
 16 42  1  0
 17 43  1  0
 17 44  1  0
 18 45  1  0
 21 46  1  0
 24 47  1  0
 25 48  1  0
 26 49  1  0
 27 50  1  0
 28 51  1  0
 29 52  1  0
 30 53  1  0
M  END
>  <smiles>  (35) 
O=C1CC(c2cccc(C(=O)N3CCOCC3)c2)=Nc2cc(-c3ccccc3)ccc21

>  <score_type>  (35) 
oracle

>  <origin>  (35) 
autodockgpu

>  <m_score__min__energy>  (35) 
-9.7200000000000006

>  <m_primary>  (35) 
energy

>  <rmsd>  (35) 
7.284757159556433

>  <m_score__min__rmsd>  (35) 
7.284757159556433

>  <meeko>  (35) 
{"free_energy": -9.67, "intermolecular_energy": -10.56, "internal_energy": -1.02, "cluster_size": 50, "cluster_id": 1, "rank_in_cluster": 41}

>  <energy>  (35) 
-9.68

>  <cluster_rmsd>  (35) 
0.1

>  <cluster>  (35) 
1

$$$$

     RDKit          3D

 53 57  0  0  0  0  0  0  0  0999 V2000
  137.0600   72.5240  220.9600 O   0  0  0  0  0  0  0  0  0  0  0  0
  138.2070   72.7660  221.4130 C   0  0  0  0  0  0  0  0  0  0  0  0
  139.0290   73.7890  220.7260 C   0  0  0  0  0  0  0  0  0  0  0  0
  140.3370   73.9150  221.4100 C   0  0  0  0  0  0  0  0  0  0  0  0
  141.3020   74.8920  220.8580 C   0  0  0  0  0  0  0  0  0  0  0  0
  142.5100   74.4740  220.3180 C   0  0  0  0  0  0  0  0  0  0  0  0
  143.4080   75.3950  219.8040 C   0  0  0  0  0  0  0  0  0  0  0  0
  143.1050   76.7510  219.8250 C   0  0  0  0  0  0  0  0  0  0  0  0
  141.9090   77.1940  220.3560 C   0  0  0  0  0  0  0  0  0  0  0  0
  141.5290   78.5950  220.4090 C   0  0  0  0  0  0  0  0  0  0  0  0
  140.9020   79.0750  219.4330 O   0  0  0  0  0  0  0  0  0  0  0  0
  141.8210   79.4580  221.4940 N   0  0  0  0  0  0  0  0  0  0  0  0
  141.3880   80.8560  221.4420 C   0  0  0  0  0  0  0  0  0  0  0  0
  140.5250   81.0150  222.7060 C   0  0  0  0  0  0  0  0  0  0  0  0
  141.2500   80.6420  223.8270 O   0  0  0  0  0  0  0  0  0  0  0  0
  141.5110   79.2620  223.8200 C   0  0  0  0  0  0  0  0  0  0  0  0
  142.5330   79.0590  222.6920 C   0  0  0  0  0  0  0  0  0  0  0  0
  141.0420   76.2470  220.8590 C   0  0  0  0  0  0  0  0  0  0  0  0
  140.6900   73.2350  222.4460 N   0  0  0  0  0  0  0  0  0  0  0  0
  139.9010   72.2680  223.0950 C   0  0  0  0  0  0  0  0  0  0  0  0
  140.3670   71.5860  224.2040 C   0  0  0  0  0  0  0  0  0  0  0  0
  139.5590   70.6330  224.8180 C   0  0  0  0  0  0  0  0  0  0  0  0
  140.0920   69.9370  225.9820 C   0  0  0  0  0  0  0  0  0  0  0  0
  140.1310   68.5440  225.9350 C   0  0  0  0  0  0  0  0  0  0  0  0
  140.6260   67.8340  227.0090 C   0  0  0  0  0  0  0  0  0  0  0  0
  141.0720   68.5290  228.1040 C   0  0  0  0  0  0  0  0  0  0  0  0
  141.0390   69.8880  228.1610 C   0  0  0  0  0  0  0  0  0  0  0  0
  140.5460   70.6370  227.0980 C   0  0  0  0  0  0  0  0  0  0  0  0
  138.2930   70.3800  224.3120 C   0  0  0  0  0  0  0  0  0  0  0  0
  137.8470   71.0700  223.2050 C   0  0  0  0  0  0  0  0  0  0  0  0
  138.6410   72.0200  222.5830 C   0  0  0  0  0  0  0  0  0  0  0  0
  139.1899   73.4879  219.6803 H   0  0  0  0  0  0  0  0  0  0  0  0
  138.5069   74.7568  220.7536 H   0  0  0  0  0  0  0  0  0  0  0  0
  142.7566   73.4022  220.2979 H   0  0  0  0  0  0  0  0  0  0  0  0
  144.3627   75.0523  219.3784 H   0  0  0  0  0  0  0  0  0  0  0  0
  143.8228   77.4771  219.4157 H   0  0  0  0  0  0  0  0  0  0  0  0
  142.2522   81.5360  221.4685 H   0  0  0  0  0  0  0  0  0  0  0  0
  140.8425   81.1003  220.5186 H   0  0  0  0  0  0  0  0  0  0  0  0
  140.2157   82.0659  222.8057 H   0  0  0  0  0  0  0  0  0  0  0  0
  139.6377   80.3706  222.6199 H   0  0  0  0  0  0  0  0  0  0  0  0
  141.9313   78.9427  224.7851 H   0  0  0  0  0  0  0  0  0  0  0  0
  140.5981   78.6686  223.6635 H   0  0  0  0  0  0  0  0  0  0  0  0
  143.4188   79.6921  222.8490 H   0  0  0  0  0  0  0  0  0  0  0  0
  142.9029   78.0244  222.6385 H   0  0  0  0  0  0  0  0  0  0  0  0
  140.0884   76.5916  221.2855 H   0  0  0  0  0  0  0  0  0  0  0  0
  141.3719   71.7956  224.5994 H   0  0  0  0  0  0  0  0  0  0  0  0
  139.7677   68.0123  225.0432 H   0  0  0  0  0  0  0  0  0  0  0  0
  140.6622   66.7348  226.9877 H   0  0  0  0  0  0  0  0  0  0  0  0
  141.4692   67.9697  228.9639 H   0  0  0  0  0  0  0  0  0  0  0  0
  141.4077   70.4018  229.0611 H   0  0  0  0  0  0  0  0  0  0  0  0
  140.5157   71.7359  227.1366 H   0  0  0  0  0  0  0  0  0  0  0  0
  137.6465   69.6309  224.7925 H   0  0  0  0  0  0  0  0  0  0  0  0
  136.8423   70.8626  222.8082 H   0  0  0  0  0  0  0  0  0  0  0  0
  1  2  2  0
  2  3  1  0
  3  4  1  0
  4  5  1  0
  5  6  2  0
  6  7  1  0
  7  8  2  0
  8  9  1  0
  9 10  1  0
 10 11  2  0
 10 12  1  0
 12 13  1  0
 13 14  1  0
 14 15  1  0
 15 16  1  0
 16 17  1  0
  9 18  2  0
  4 19  2  0
 19 20  1  0
 20 21  2  0
 21 22  1  0
 22 23  1  0
 23 24  2  0
 24 25  1  0
 25 26  2  0
 26 27  1  0
 27 28  2  0
 22 29  2  0
 29 30  1  0
 30 31  2  0
 31  2  1  0
 18  5  1  0
 31 20  1  0
 17 12  1  0
 28 23  1  0
  3 32  1  0
  3 33  1  0
  6 34  1  0
  7 35  1  0
  8 36  1  0
 13 37  1  0
 13 38  1  0
 14 39  1  0
 14 40  1  0
 16 41  1  0
 16 42  1  0
 17 43  1  0
 17 44  1  0
 18 45  1  0
 21 46  1  0
 24 47  1  0
 25 48  1  0
 26 49  1  0
 27 50  1  0
 28 51  1  0
 29 52  1  0
 30 53  1  0
M  END
>  <smiles>  (36) 
O=C1CC(c2cccc(C(=O)N3CCOCC3)c2)=Nc2cc(-c3ccccc3)ccc21

>  <score_type>  (36) 
oracle

>  <origin>  (36) 
autodockgpu

>  <m_score__min__energy>  (36) 
-9.7200000000000006

>  <m_primary>  (36) 
energy

>  <rmsd>  (36) 
7.324192534758475

>  <m_score__min__rmsd>  (36) 
7.324192534758475

>  <meeko>  (36) 
{"free_energy": -9.69, "intermolecular_energy": -10.59, "internal_energy": -1.02, "cluster_size": 50, "cluster_id": 1, "rank_in_cluster": 29}

>  <energy>  (36) 
-9.68

>  <cluster_rmsd>  (36) 
0.07

>  <cluster>  (36) 
1

$$$$

     RDKit          3D

 53 57  0  0  0  0  0  0  0  0999 V2000
  137.2210   72.2620  220.7870 O   0  0  0  0  0  0  0  0  0  0  0  0
  138.3240   72.5890  221.2920 C   0  0  0  0  0  0  0  0  0  0  0  0
  139.1240   73.6320  220.6080 C   0  0  0  0  0  0  0  0  0  0  0  0
  140.3820   73.8610  221.3570 C   0  0  0  0  0  0  0  0  0  0  0  0
  141.3190   74.8720  220.8180 C   0  0  0  0  0  0  0  0  0  0  0  0
  142.5370   74.4950  220.2710 C   0  0  0  0  0  0  0  0  0  0  0  0
  143.4090   75.4470  219.7690 C   0  0  0  0  0  0  0  0  0  0  0  0
  143.0700   76.7940  219.8100 C   0  0  0  0  0  0  0  0  0  0  0  0
  141.8620   77.1970  220.3480 C   0  0  0  0  0  0  0  0  0  0  0  0
  141.4440   78.5860  220.4210 C   0  0  0  0  0  0  0  0  0  0  0  0
  140.7430   79.0430  219.4850 O   0  0  0  0  0  0  0  0  0  0  0  0
  141.7760   79.4630  221.4830 N   0  0  0  0  0  0  0  0  0  0  0  0
  141.3000   80.8460  221.4550 C   0  0  0  0  0  0  0  0  0  0  0  0
  140.5130   80.9850  222.7700 C   0  0  0  0  0  0  0  0  0  0  0  0
  141.3180   80.6390  223.8440 O   0  0  0  0  0  0  0  0  0  0  0  0
  141.6190   79.2670  223.8250 C   0  0  0  0  0  0  0  0  0  0  0  0
  142.5740   79.0910  222.6350 C   0  0  0  0  0  0  0  0  0  0  0  0
  141.0220   76.2200  220.8380 C   0  0  0  0  0  0  0  0  0  0  0  0
  140.7130   73.2440  222.4380 N   0  0  0  0  0  0  0  0  0  0  0  0
  139.9460   72.2570  223.0830 C   0  0  0  0  0  0  0  0  0  0  0  0
  140.3860   71.6470  224.2430 C   0  0  0  0  0  0  0  0  0  0  0  0
  139.6000   70.6730  224.8510 C   0  0  0  0  0  0  0  0  0  0  0  0
  140.1050   70.0550  226.0710 C   0  0  0  0  0  0  0  0  0  0  0  0
  140.5390   70.9020  227.0880 C   0  0  0  0  0  0  0  0  0  0  0  0
  141.0260   70.3720  228.2640 C   0  0  0  0  0  0  0  0  0  0  0  0
  141.0670   69.0070  228.3990 C   0  0  0  0  0  0  0  0  0  0  0  0
  140.6460   68.1690  227.4130 C   0  0  0  0  0  0  0  0  0  0  0  0
  140.1510   68.6690  226.2140 C   0  0  0  0  0  0  0  0  0  0  0  0
  138.3820   70.3250  224.2880 C   0  0  0  0  0  0  0  0  0  0  0  0
  137.9600   70.9450  223.1300 C   0  0  0  0  0  0  0  0  0  0  0  0
  138.7330   71.9150  222.5130 C   0  0  0  0  0  0  0  0  0  0  0  0
  139.3609   73.3009  219.5861 H   0  0  0  0  0  0  0  0  0  0  0  0
  138.5470   74.5676  220.5661 H   0  0  0  0  0  0  0  0  0  0  0  0
  142.8127   73.4307  220.2356 H   0  0  0  0  0  0  0  0  0  0  0  0
  144.3717   75.1361  219.3370 H   0  0  0  0  0  0  0  0  0  0  0  0
  143.7679   77.5451  219.4115 H   0  0  0  0  0  0  0  0  0  0  0  0
  142.1438   81.5512  221.4259 H   0  0  0  0  0  0  0  0  0  0  0  0
  140.6910   81.0703  220.5669 H   0  0  0  0  0  0  0  0  0  0  0  0
  140.1789   82.0266  222.8861 H   0  0  0  0  0  0  0  0  0  0  0  0
  139.6416   80.3143  222.7415 H   0  0  0  0  0  0  0  0  0  0  0  0
  142.1084   78.9647  224.7626 H   0  0  0  0  0  0  0  0  0  0  0  0
  140.7167   78.6453  223.7286 H   0  0  0  0  0  0  0  0  0  0  0  0
  143.4478   79.7517  222.7345 H   0  0  0  0  0  0  0  0  0  0  0  0
  142.9717   78.0681  222.5605 H   0  0  0  0  0  0  0  0  0  0  0  0
  140.0597   76.5325  221.2698 H   0  0  0  0  0  0  0  0  0  0  0  0
  141.3533   71.9304  224.6834 H   0  0  0  0  0  0  0  0  0  0  0  0
  140.4933   71.9927  226.9531 H   0  0  0  0  0  0  0  0  0  0  0  0
  141.3737   71.0283  229.0754 H   0  0  0  0  0  0  0  0  0  0  0  0
  141.4528   68.5762  229.3347 H   0  0  0  0  0  0  0  0  0  0  0  0
  140.6981   67.0810  227.5668 H   0  0  0  0  0  0  0  0  0  0  0  0
  139.8097   67.9988  225.4113 H   0  0  0  0  0  0  0  0  0  0  0  0
  137.7539   69.5569  224.7630 H   0  0  0  0  0  0  0  0  0  0  0  0
  136.9924   70.6641  222.6887 H   0  0  0  0  0  0  0  0  0  0  0  0
  1  2  2  0
  2  3  1  0
  3  4  1  0
  4  5  1  0
  5  6  2  0
  6  7  1  0
  7  8  2  0
  8  9  1  0
  9 10  1  0
 10 11  2  0
 10 12  1  0
 12 13  1  0
 13 14  1  0
 14 15  1  0
 15 16  1  0
 16 17  1  0
  9 18  2  0
  4 19  2  0
 19 20  1  0
 20 21  2  0
 21 22  1  0
 22 23  1  0
 23 24  2  0
 24 25  1  0
 25 26  2  0
 26 27  1  0
 27 28  2  0
 22 29  2  0
 29 30  1  0
 30 31  2  0
 31  2  1  0
 18  5  1  0
 31 20  1  0
 17 12  1  0
 28 23  1  0
  3 32  1  0
  3 33  1  0
  6 34  1  0
  7 35  1  0
  8 36  1  0
 13 37  1  0
 13 38  1  0
 14 39  1  0
 14 40  1  0
 16 41  1  0
 16 42  1  0
 17 43  1  0
 17 44  1  0
 18 45  1  0
 21 46  1  0
 24 47  1  0
 25 48  1  0
 26 49  1  0
 27 50  1  0
 28 51  1  0
 29 52  1  0
 30 53  1  0
M  END
>  <smiles>  (37) 
O=C1CC(c2cccc(C(=O)N3CCOCC3)c2)=Nc2cc(-c3ccccc3)ccc21

>  <score_type>  (37) 
oracle

>  <origin>  (37) 
autodockgpu

>  <m_score__min__energy>  (37) 
-9.7200000000000006

>  <m_primary>  (37) 
energy

>  <rmsd>  (37) 
7.295001767429394

>  <m_score__min__rmsd>  (37) 
7.295001767429394

>  <meeko>  (37) 
{"free_energy": -9.68, "intermolecular_energy": -10.57, "internal_energy": -1.02, "cluster_size": 50, "cluster_id": 1, "rank_in_cluster": 38}

>  <energy>  (37) 
-9.68

>  <cluster_rmsd>  (37) 
0.08

>  <cluster>  (37) 
1

$$$$

     RDKit          3D

 53 57  0  0  0  0  0  0  0  0999 V2000
  137.1260   72.4060  220.8830 O   0  0  0  0  0  0  0  0  0  0  0  0
  138.2550   72.6870  221.3590 C   0  0  0  0  0  0  0  0  0  0  0  0
  139.0680   73.7170  220.6720 C   0  0  0  0  0  0  0  0  0  0  0  0
  140.3540   73.8900  221.3860 C   0  0  0  0  0  0  0  0  0  0  0  0
  141.3080   74.8800  220.8380 C   0  0  0  0  0  0  0  0  0  0  0  0
  142.5170   74.4780  220.2890 C   0  0  0  0  0  0  0  0  0  0  0  0
  143.4050   75.4110  219.7790 C   0  0  0  0  0  0  0  0  0  0  0  0
  143.0900   76.7640  219.8140 C   0  0  0  0  0  0  0  0  0  0  0  0
  141.8920   77.1920  220.3540 C   0  0  0  0  0  0  0  0  0  0  0  0
  141.5000   78.5890  220.4210 C   0  0  0  0  0  0  0  0  0  0  0  0
  140.8470   79.0670  219.4610 O   0  0  0  0  0  0  0  0  0  0  0  0
  141.8070   79.4510  221.5020 N   0  0  0  0  0  0  0  0  0  0  0  0
  141.3600   80.8440  221.4660 C   0  0  0  0  0  0  0  0  0  0  0  0
  140.5230   80.9900  222.7500 C   0  0  0  0  0  0  0  0  0  0  0  0
  141.2770   80.6190  223.8530 O   0  0  0  0  0  0  0  0  0  0  0  0
  141.5510   79.2420  223.8350 C   0  0  0  0  0  0  0  0  0  0  0  0
  142.5490   79.0540  222.6830 C   0  0  0  0  0  0  0  0  0  0  0  0
  141.0360   76.2330  220.8520 C   0  0  0  0  0  0  0  0  0  0  0  0
  140.6970   73.2400  222.4440 N   0  0  0  0  0  0  0  0  0  0  0  0
  139.9170   72.2660  223.0930 C   0  0  0  0  0  0  0  0  0  0  0  0
  140.3720   71.6180  224.2270 C   0  0  0  0  0  0  0  0  0  0  0  0
  139.5730   70.6580  224.8400 C   0  0  0  0  0  0  0  0  0  0  0  0
  140.0930   69.9980  226.0310 C   0  0  0  0  0  0  0  0  0  0  0  0
  140.5220   70.8110  227.0790 C   0  0  0  0  0  0  0  0  0  0  0  0
  141.0230   70.2410  228.2300 C   0  0  0  0  0  0  0  0  0  0  0  0
  141.0830   68.8730  228.3110 C   0  0  0  0  0  0  0  0  0  0  0  0
  140.6680   68.0690  227.2950 C   0  0  0  0  0  0  0  0  0  0  0  0
  140.1590   68.6090  226.1190 C   0  0  0  0  0  0  0  0  0  0  0  0
  138.3270   70.3620  224.3080 C   0  0  0  0  0  0  0  0  0  0  0  0
  137.8920   71.0180  223.1760 C   0  0  0  0  0  0  0  0  0  0  0  0
  138.6770   71.9750  222.5540 C   0  0  0  0  0  0  0  0  0  0  0  0
  139.2633   73.3995  219.6371 H   0  0  0  0  0  0  0  0  0  0  0  0
  138.5211   74.6714  220.6664 H   0  0  0  0  0  0  0  0  0  0  0  0
  142.7728   73.4086  220.2584 H   0  0  0  0  0  0  0  0  0  0  0  0
  144.3606   75.0804  219.3459 H   0  0  0  0  0  0  0  0  0  0  0  0
  143.7998   77.5002  219.4087 H   0  0  0  0  0  0  0  0  0  0  0  0
  142.2182   81.5321  221.4764 H   0  0  0  0  0  0  0  0  0  0  0  0
  140.7918   81.0868  220.5559 H   0  0  0  0  0  0  0  0  0  0  0  0
  140.2062   82.0375  222.8611 H   0  0  0  0  0  0  0  0  0  0  0  0
  139.6396   80.3381  222.6810 H   0  0  0  0  0  0  0  0  0  0  0  0
  141.9963   78.9233  224.7890 H   0  0  0  0  0  0  0  0  0  0  0  0
  140.6407   78.6399  223.6974 H   0  0  0  0  0  0  0  0  0  0  0  0
  143.4318   79.6951  222.8230 H   0  0  0  0  0  0  0  0  0  0  0  0
  142.9270   78.0231  222.6167 H   0  0  0  0  0  0  0  0  0  0  0  0
  140.0812   76.5653  221.2855 H   0  0  0  0  0  0  0  0  0  0  0  0
  141.3612   71.8605  224.6424 H   0  0  0  0  0  0  0  0  0  0  0  0
  140.4609   71.9055  226.9877 H   0  0  0  0  0  0  0  0  0  0  0  0
  141.3670   70.8693  229.0648 H   0  0  0  0  0  0  0  0  0  0  0  0
  141.4795   68.4111  229.2272 H   0  0  0  0  0  0  0  0  0  0  0  0
  140.7360   66.9767  227.4053 H   0  0  0  0  0  0  0  0  0  0  0  0
  139.8223   67.9661  225.2923 H   0  0  0  0  0  0  0  0  0  0  0  0
  137.6877   69.6062  224.7877 H   0  0  0  0  0  0  0  0  0  0  0  0
  136.9031   70.7769  222.7590 H   0  0  0  0  0  0  0  0  0  0  0  0
  1  2  2  0
  2  3  1  0
  3  4  1  0
  4  5  1  0
  5  6  2  0
  6  7  1  0
  7  8  2  0
  8  9  1  0
  9 10  1  0
 10 11  2  0
 10 12  1  0
 12 13  1  0
 13 14  1  0
 14 15  1  0
 15 16  1  0
 16 17  1  0
  9 18  2  0
  4 19  2  0
 19 20  1  0
 20 21  2  0
 21 22  1  0
 22 23  1  0
 23 24  2  0
 24 25  1  0
 25 26  2  0
 26 27  1  0
 27 28  2  0
 22 29  2  0
 29 30  1  0
 30 31  2  0
 31  2  1  0
 18  5  1  0
 31 20  1  0
 17 12  1  0
 28 23  1  0
  3 32  1  0
  3 33  1  0
  6 34  1  0
  7 35  1  0
  8 36  1  0
 13 37  1  0
 13 38  1  0
 14 39  1  0
 14 40  1  0
 16 41  1  0
 16 42  1  0
 17 43  1  0
 17 44  1  0
 18 45  1  0
 21 46  1  0
 24 47  1  0
 25 48  1  0
 26 49  1  0
 27 50  1  0
 28 51  1  0
 29 52  1  0
 30 53  1  0
M  END
>  <smiles>  (38) 
O=C1CC(c2cccc(C(=O)N3CCOCC3)c2)=Nc2cc(-c3ccccc3)ccc21

>  <score_type>  (38) 
oracle

>  <origin>  (38) 
autodockgpu

>  <m_score__min__energy>  (38) 
-9.7200000000000006

>  <m_primary>  (38) 
energy

>  <rmsd>  (38) 
7.310496220924475

>  <m_score__min__rmsd>  (38) 
7.310496220924475

>  <meeko>  (38) 
{"free_energy": -9.7, "intermolecular_energy": -10.6, "internal_energy": -1.02, "cluster_size": 50, "cluster_id": 1, "rank_in_cluster": 11}

>  <energy>  (38) 
-9.68

>  <cluster_rmsd>  (38) 
0.1

>  <cluster>  (38) 
1

$$$$

     RDKit          3D

 53 57  0  0  0  0  0  0  0  0999 V2000
  137.2080   72.2600  220.7830 O   0  0  0  0  0  0  0  0  0  0  0  0
  138.3160   72.5850  221.2790 C   0  0  0  0  0  0  0  0  0  0  0  0
  139.1170   73.6200  220.5840 C   0  0  0  0  0  0  0  0  0  0  0  0
  140.3800   73.8480  221.3230 C   0  0  0  0  0  0  0  0  0  0  0  0
  141.3180   74.8510  220.7710 C   0  0  0  0  0  0  0  0  0  0  0  0
  142.5270   74.4650  220.2110 C   0  0  0  0  0  0  0  0  0  0  0  0
  143.4000   75.4090  219.6980 C   0  0  0  0  0  0  0  0  0  0  0  0
  143.0710   76.7580  219.7400 C   0  0  0  0  0  0  0  0  0  0  0  0
  141.8730   77.1710  220.2920 C   0  0  0  0  0  0  0  0  0  0  0  0
  141.4660   78.5640  220.3670 C   0  0  0  0  0  0  0  0  0  0  0  0
  140.7940   79.0360  219.4170 O   0  0  0  0  0  0  0  0  0  0  0  0
  141.7790   79.4270  221.4450 N   0  0  0  0  0  0  0  0  0  0  0  0
  141.3160   80.8150  221.4190 C   0  0  0  0  0  0  0  0  0  0  0  0
  140.4970   80.9500  222.7140 C   0  0  0  0  0  0  0  0  0  0  0  0
  141.2710   80.5850  223.8060 O   0  0  0  0  0  0  0  0  0  0  0  0
  141.5600   79.2110  223.7810 C   0  0  0  0  0  0  0  0  0  0  0  0
  142.5430   79.0370  222.6140 C   0  0  0  0  0  0  0  0  0  0  0  0
  141.0310   76.2010  220.7930 C   0  0  0  0  0  0  0  0  0  0  0  0
  140.7150   73.2360  222.4050 N   0  0  0  0  0  0  0  0  0  0  0  0
  139.9470   72.2570  223.0610 C   0  0  0  0  0  0  0  0  0  0  0  0
  140.3930   71.6530  224.2230 C   0  0  0  0  0  0  0  0  0  0  0  0
  139.6060   70.6860  224.8420 C   0  0  0  0  0  0  0  0  0  0  0  0
  140.1160   70.0730  226.0630 C   0  0  0  0  0  0  0  0  0  0  0  0
  140.1120   68.6810  226.1330 C   0  0  0  0  0  0  0  0  0  0  0  0
  140.5840   68.0480  227.2630 C   0  0  0  0  0  0  0  0  0  0  0  0
  141.0500   68.8190  228.2990 C   0  0  0  0  0  0  0  0  0  0  0  0
  141.0580   70.1780  228.2420 C   0  0  0  0  0  0  0  0  0  0  0  0
  140.5890   70.8500  227.1180 C   0  0  0  0  0  0  0  0  0  0  0  0
  138.3820   70.3400  224.2890 C   0  0  0  0  0  0  0  0  0  0  0  0
  137.9560   70.9540  223.1300 C   0  0  0  0  0  0  0  0  0  0  0  0
  138.7300   71.9170  222.5020 C   0  0  0  0  0  0  0  0  0  0  0  0
  139.3461   73.2815  219.5628 H   0  0  0  0  0  0  0  0  0  0  0  0
  138.5441   74.5580  220.5404 H   0  0  0  0  0  0  0  0  0  0  0  0
  142.7946   73.3987  220.1742 H   0  0  0  0  0  0  0  0  0  0  0  0
  144.3557   75.0904  219.2564 H   0  0  0  0  0  0  0  0  0  0  0  0
  143.7692   77.5031  219.3309 H   0  0  0  0  0  0  0  0  0  0  0  0
  142.1667   81.5124  221.4183 H   0  0  0  0  0  0  0  0  0  0  0  0
  140.7315   81.0528  220.5180 H   0  0  0  0  0  0  0  0  0  0  0  0
  140.1709   81.9940  222.8315 H   0  0  0  0  0  0  0  0  0  0  0  0
  139.6197   80.2889  222.6566 H   0  0  0  0  0  0  0  0  0  0  0  0
  142.0228   78.8953  224.7276 H   0  0  0  0  0  0  0  0  0  0  0  0
  140.6547   78.5989  223.6556 H   0  0  0  0  0  0  0  0  0  0  0  0
  143.4201   79.6884  222.7421 H   0  0  0  0  0  0  0  0  0  0  0  0
  142.9323   78.0108  222.5401 H   0  0  0  0  0  0  0  0  0  0  0  0
  140.0761   76.5211  221.2354 H   0  0  0  0  0  0  0  0  0  0  0  0
  141.3642   71.9354  224.6554 H   0  0  0  0  0  0  0  0  0  0  0  0
  139.7327   68.0882  225.2876 H   0  0  0  0  0  0  0  0  0  0  0  0
  140.5872   66.9502  227.3330 H   0  0  0  0  0  0  0  0  0  0  0  0
  141.4290   68.3218  229.2041 H   0  0  0  0  0  0  0  0  0  0  0  0
  141.4409   70.7540  229.0973 H   0  0  0  0  0  0  0  0  0  0  0  0
  140.5915   71.9487  227.0645 H   0  0  0  0  0  0  0  0  0  0  0  0
  137.7532   69.5784  224.7733 H   0  0  0  0  0  0  0  0  0  0  0  0
  136.9846   70.6745  222.6962 H   0  0  0  0  0  0  0  0  0  0  0  0
  1  2  2  0
  2  3  1  0
  3  4  1  0
  4  5  1  0
  5  6  2  0
  6  7  1  0
  7  8  2  0
  8  9  1  0
  9 10  1  0
 10 11  2  0
 10 12  1  0
 12 13  1  0
 13 14  1  0
 14 15  1  0
 15 16  1  0
 16 17  1  0
  9 18  2  0
  4 19  2  0
 19 20  1  0
 20 21  2  0
 21 22  1  0
 22 23  1  0
 23 24  2  0
 24 25  1  0
 25 26  2  0
 26 27  1  0
 27 28  2  0
 22 29  2  0
 29 30  1  0
 30 31  2  0
 31  2  1  0
 18  5  1  0
 31 20  1  0
 17 12  1  0
 28 23  1  0
  3 32  1  0
  3 33  1  0
  6 34  1  0
  7 35  1  0
  8 36  1  0
 13 37  1  0
 13 38  1  0
 14 39  1  0
 14 40  1  0
 16 41  1  0
 16 42  1  0
 17 43  1  0
 17 44  1  0
 18 45  1  0
 21 46  1  0
 24 47  1  0
 25 48  1  0
 26 49  1  0
 27 50  1  0
 28 51  1  0
 29 52  1  0
 30 53  1  0
M  END
>  <smiles>  (39) 
O=C1CC(c2cccc(C(=O)N3CCOCC3)c2)=Nc2cc(-c3ccccc3)ccc21

>  <score_type>  (39) 
oracle

>  <origin>  (39) 
autodockgpu

>  <m_score__min__energy>  (39) 
-9.7200000000000006

>  <m_primary>  (39) 
energy

>  <rmsd>  (39) 
7.291889330573867

>  <m_score__min__rmsd>  (39) 
7.291889330573867

>  <meeko>  (39) 
{"free_energy": -9.7, "intermolecular_energy": -10.6, "internal_energy": -1.02, "cluster_size": 50, "cluster_id": 1, "rank_in_cluster": 14}

>  <energy>  (39) 
-9.67

>  <cluster_rmsd>  (39) 
0.15

>  <cluster>  (39) 
1

$$$$

     RDKit          3D

 53 57  0  0  0  0  0  0  0  0999 V2000
  137.1310   72.4240  220.8900 O   0  0  0  0  0  0  0  0  0  0  0  0
  138.2600   72.7020  221.3650 C   0  0  0  0  0  0  0  0  0  0  0  0
  139.0760   73.7280  220.6740 C   0  0  0  0  0  0  0  0  0  0  0  0
  140.3630   73.8990  221.3870 C   0  0  0  0  0  0  0  0  0  0  0  0
  141.3190   74.8860  220.8360 C   0  0  0  0  0  0  0  0  0  0  0  0
  142.5320   74.4800  220.2990 C   0  0  0  0  0  0  0  0  0  0  0  0
  143.4220   75.4090  219.7860 C   0  0  0  0  0  0  0  0  0  0  0  0
  143.1060   76.7620  219.8050 C   0  0  0  0  0  0  0  0  0  0  0  0
  141.9040   77.1930  220.3330 C   0  0  0  0  0  0  0  0  0  0  0  0
  141.5100   78.5910  220.3840 C   0  0  0  0  0  0  0  0  0  0  0  0
  140.8570   79.0570  219.4180 O   0  0  0  0  0  0  0  0  0  0  0  0
  141.8140   79.4650  221.4570 N   0  0  0  0  0  0  0  0  0  0  0  0
  141.3660   80.8570  221.4050 C   0  0  0  0  0  0  0  0  0  0  0  0
  140.5270   81.0160  222.6850 C   0  0  0  0  0  0  0  0  0  0  0  0
  141.2800   80.6580  223.7930 O   0  0  0  0  0  0  0  0  0  0  0  0
  141.5560   79.2810  223.7910 C   0  0  0  0  0  0  0  0  0  0  0  0
  142.5550   79.0820  222.6430 C   0  0  0  0  0  0  0  0  0  0  0  0
  141.0450   76.2380  220.8350 C   0  0  0  0  0  0  0  0  0  0  0  0
  140.7050   73.2520  222.4470 N   0  0  0  0  0  0  0  0  0  0  0  0
  139.9220   72.2810  223.0990 C   0  0  0  0  0  0  0  0  0  0  0  0
  140.3760   71.6360  224.2340 C   0  0  0  0  0  0  0  0  0  0  0  0
  139.5740   70.6790  224.8500 C   0  0  0  0  0  0  0  0  0  0  0  0
  140.0930   70.0220  226.0430 C   0  0  0  0  0  0  0  0  0  0  0  0
  140.4880   70.8350  227.1040 C   0  0  0  0  0  0  0  0  0  0  0  0
  140.9860   70.2670  228.2580 C   0  0  0  0  0  0  0  0  0  0  0  0
  141.0780   68.9000  228.3270 C   0  0  0  0  0  0  0  0  0  0  0  0
  140.6960   68.0950  227.2980 C   0  0  0  0  0  0  0  0  0  0  0  0
  140.1900   68.6340  226.1200 C   0  0  0  0  0  0  0  0  0  0  0  0
  138.3270   70.3850  224.3200 C   0  0  0  0  0  0  0  0  0  0  0  0
  137.8940   71.0400  223.1870 C   0  0  0  0  0  0  0  0  0  0  0  0
  138.6810   71.9930  222.5620 C   0  0  0  0  0  0  0  0  0  0  0  0
  139.2697   73.4068  219.6399 H   0  0  0  0  0  0  0  0  0  0  0  0
  138.5320   74.6840  220.6656 H   0  0  0  0  0  0  0  0  0  0  0  0
  142.7893   73.4107  220.2805 H   0  0  0  0  0  0  0  0  0  0  0  0
  144.3808   75.0751  219.3627 H   0  0  0  0  0  0  0  0  0  0  0  0
  143.8175   77.4949  219.3969 H   0  0  0  0  0  0  0  0  0  0  0  0
  142.2236   81.5459  221.4096 H   0  0  0  0  0  0  0  0  0  0  0  0
  140.7994   81.0895  220.4913 H   0  0  0  0  0  0  0  0  0  0  0  0
  140.2087   82.0643  222.7841 H   0  0  0  0  0  0  0  0  0  0  0  0
  139.6444   80.3626  222.6218 H   0  0  0  0  0  0  0  0  0  0  0  0
  142.0007   78.9737  224.7490 H   0  0  0  0  0  0  0  0  0  0  0  0
  140.6469   78.6759  223.6593 H   0  0  0  0  0  0  0  0  0  0  0  0
  143.4368   79.7258  222.7771 H   0  0  0  0  0  0  0  0  0  0  0  0
  142.9345   78.0510  222.5884 H   0  0  0  0  0  0  0  0  0  0  0  0
  140.0869   76.5734  221.2587 H   0  0  0  0  0  0  0  0  0  0  0  0
  141.3659   71.8775  224.6485 H   0  0  0  0  0  0  0  0  0  0  0  0
  140.4027   71.9285  227.0211 H   0  0  0  0  0  0  0  0  0  0  0  0
  141.3021   70.8956  229.1035 H   0  0  0  0  0  0  0  0  0  0  0  0
  141.4736   68.4392  229.2442 H   0  0  0  0  0  0  0  0  0  0  0  0
  140.7887   67.0036  227.3995 H   0  0  0  0  0  0  0  0  0  0  0  0
  139.8791   67.9910  225.2834 H   0  0  0  0  0  0  0  0  0  0  0  0
  137.6858   69.6321  224.8017 H   0  0  0  0  0  0  0  0  0  0  0  0
  136.9041   70.8011  222.7711 H   0  0  0  0  0  0  0  0  0  0  0  0
  1  2  2  0
  2  3  1  0
  3  4  1  0
  4  5  1  0
  5  6  2  0
  6  7  1  0
  7  8  2  0
  8  9  1  0
  9 10  1  0
 10 11  2  0
 10 12  1  0
 12 13  1  0
 13 14  1  0
 14 15  1  0
 15 16  1  0
 16 17  1  0
  9 18  2  0
  4 19  2  0
 19 20  1  0
 20 21  2  0
 21 22  1  0
 22 23  1  0
 23 24  2  0
 24 25  1  0
 25 26  2  0
 26 27  1  0
 27 28  2  0
 22 29  2  0
 29 30  1  0
 30 31  2  0
 31  2  1  0
 18  5  1  0
 31 20  1  0
 17 12  1  0
 28 23  1  0
  3 32  1  0
  3 33  1  0
  6 34  1  0
  7 35  1  0
  8 36  1  0
 13 37  1  0
 13 38  1  0
 14 39  1  0
 14 40  1  0
 16 41  1  0
 16 42  1  0
 17 43  1  0
 17 44  1  0
 18 45  1  0
 21 46  1  0
 24 47  1  0
 25 48  1  0
 26 49  1  0
 27 50  1  0
 28 51  1  0
 29 52  1  0
 30 53  1  0
M  END
>  <smiles>  (40) 
O=C1CC(c2cccc(C(=O)N3CCOCC3)c2)=Nc2cc(-c3ccccc3)ccc21

>  <score_type>  (40) 
oracle

>  <origin>  (40) 
autodockgpu

>  <m_score__min__energy>  (40) 
-9.7200000000000006

>  <m_primary>  (40) 
energy

>  <rmsd>  (40) 
7.316398958896131

>  <m_score__min__rmsd>  (40) 
7.316398958896131

>  <meeko>  (40) 
{"free_energy": -9.69, "intermolecular_energy": -10.58, "internal_energy": -1.02, "cluster_size": 50, "cluster_id": 1, "rank_in_cluster": 33}

>  <energy>  (40) 
-9.67

>  <cluster_rmsd>  (40) 
0.14

>  <cluster>  (40) 
1

$$$$

     RDKit          3D

 53 57  0  0  0  0  0  0  0  0999 V2000
  137.1100   72.4260  220.9430 O   0  0  0  0  0  0  0  0  0  0  0  0
  138.2430   72.6990  221.4120 C   0  0  0  0  0  0  0  0  0  0  0  0
  139.0550   73.7300  220.7250 C   0  0  0  0  0  0  0  0  0  0  0  0
  140.3470   73.8940  221.4290 C   0  0  0  0  0  0  0  0  0  0  0  0
  141.3000   74.8850  220.8800 C   0  0  0  0  0  0  0  0  0  0  0  0
  142.5180   74.4840  220.3500 C   0  0  0  0  0  0  0  0  0  0  0  0
  143.4060   75.4170  219.8380 C   0  0  0  0  0  0  0  0  0  0  0  0
  143.0810   76.7680  219.8520 C   0  0  0  0  0  0  0  0  0  0  0  0
  141.8740   77.1940  220.3730 C   0  0  0  0  0  0  0  0  0  0  0  0
  141.4720   78.5890  220.4170 C   0  0  0  0  0  0  0  0  0  0  0  0
  140.7970   79.0410  219.4600 O   0  0  0  0  0  0  0  0  0  0  0  0
  141.7910   79.4760  221.4750 N   0  0  0  0  0  0  0  0  0  0  0  0
  141.3320   80.8650  221.4180 C   0  0  0  0  0  0  0  0  0  0  0  0
  140.5170   81.0310  222.7130 C   0  0  0  0  0  0  0  0  0  0  0  0
  141.2930   80.6900  223.8090 O   0  0  0  0  0  0  0  0  0  0  0  0
  141.5780   79.3150  223.8150 C   0  0  0  0  0  0  0  0  0  0  0  0
  142.5570   79.1100  222.6500 C   0  0  0  0  0  0  0  0  0  0  0  0
  141.0190   76.2360  220.8740 C   0  0  0  0  0  0  0  0  0  0  0  0
  140.6960   73.2370  222.4800 N   0  0  0  0  0  0  0  0  0  0  0  0
  139.9180   72.2610  223.1300 C   0  0  0  0  0  0  0  0  0  0  0  0
  140.3800   71.6050  224.2560 C   0  0  0  0  0  0  0  0  0  0  0  0
  139.5810   70.6440  224.8700 C   0  0  0  0  0  0  0  0  0  0  0  0
  140.1090   69.9760  226.0530 C   0  0  0  0  0  0  0  0  0  0  0  0
  140.5070   70.7790  227.1200 C   0  0  0  0  0  0  0  0  0  0  0  0
  141.0130   70.2000  228.2650 C   0  0  0  0  0  0  0  0  0  0  0  0
  141.1090   68.8320  228.3190 C   0  0  0  0  0  0  0  0  0  0  0  0
  140.7230   68.0380  227.2840 C   0  0  0  0  0  0  0  0  0  0  0  0
  140.2100   68.5870  226.1140 C   0  0  0  0  0  0  0  0  0  0  0  0
  138.3300   70.3560  224.3460 C   0  0  0  0  0  0  0  0  0  0  0  0
  137.8890   71.0210  223.2220 C   0  0  0  0  0  0  0  0  0  0  0  0
  138.6730   71.9790  222.5990 C   0  0  0  0  0  0  0  0  0  0  0  0
  139.2407   73.4180  219.6867 H   0  0  0  0  0  0  0  0  0  0  0  0
  138.5118   74.6865  220.7301 H   0  0  0  0  0  0  0  0  0  0  0  0
  142.7812   73.4161  220.3360 H   0  0  0  0  0  0  0  0  0  0  0  0
  144.3688   75.0877  219.4202 H   0  0  0  0  0  0  0  0  0  0  0  0
  143.7900   77.5041  219.4452 H   0  0  0  0  0  0  0  0  0  0  0  0
  142.1846   81.5598  221.3989 H   0  0  0  0  0  0  0  0  0  0  0  0
  140.7459   81.0844  220.5134 H   0  0  0  0  0  0  0  0  0  0  0  0
  140.1931   82.0779  222.8077 H   0  0  0  0  0  0  0  0  0  0  0  0
  139.6383   80.3704  222.6735 H   0  0  0  0  0  0  0  0  0  0  0  0
  142.0425   79.0201  224.7675 H   0  0  0  0  0  0  0  0  0  0  0  0
  140.6703   78.7032  223.7060 H   0  0  0  0  0  0  0  0  0  0  0  0
  143.4370   79.7606  222.7605 H   0  0  0  0  0  0  0  0  0  0  0  0
  142.9423   78.0810  222.5988 H   0  0  0  0  0  0  0  0  0  0  0  0
  140.0575   76.5674  221.2931 H   0  0  0  0  0  0  0  0  0  0  0  0
  141.3736   71.8410  224.6647 H   0  0  0  0  0  0  0  0  0  0  0  0
  140.4178   71.8731  227.0492 H   0  0  0  0  0  0  0  0  0  0  0  0
  141.3323   70.8204  229.1154 H   0  0  0  0  0  0  0  0  0  0  0  0
  141.5111   68.3623  229.2288 H   0  0  0  0  0  0  0  0  0  0  0  0
  140.8181   66.9458  227.3740 H   0  0  0  0  0  0  0  0  0  0  0  0
  139.8971   67.9520  225.2721 H   0  0  0  0  0  0  0  0  0  0  0  0
  137.6916   69.5994  224.8256 H   0  0  0  0  0  0  0  0  0  0  0  0
  136.8957   70.7868  222.8116 H   0  0  0  0  0  0  0  0  0  0  0  0
  1  2  2  0
  2  3  1  0
  3  4  1  0
  4  5  1  0
  5  6  2  0
  6  7  1  0
  7  8  2  0
  8  9  1  0
  9 10  1  0
 10 11  2  0
 10 12  1  0
 12 13  1  0
 13 14  1  0
 14 15  1  0
 15 16  1  0
 16 17  1  0
  9 18  2  0
  4 19  2  0
 19 20  1  0
 20 21  2  0
 21 22  1  0
 22 23  1  0
 23 24  2  0
 24 25  1  0
 25 26  2  0
 26 27  1  0
 27 28  2  0
 22 29  2  0
 29 30  1  0
 30 31  2  0
 31  2  1  0
 18  5  1  0
 31 20  1  0
 17 12  1  0
 28 23  1  0
  3 32  1  0
  3 33  1  0
  6 34  1  0
  7 35  1  0
  8 36  1  0
 13 37  1  0
 13 38  1  0
 14 39  1  0
 14 40  1  0
 16 41  1  0
 16 42  1  0
 17 43  1  0
 17 44  1  0
 18 45  1  0
 21 46  1  0
 24 47  1  0
 25 48  1  0
 26 49  1  0
 27 50  1  0
 28 51  1  0
 29 52  1  0
 30 53  1  0
M  END
>  <smiles>  (41) 
O=C1CC(c2cccc(C(=O)N3CCOCC3)c2)=Nc2cc(-c3ccccc3)ccc21

>  <score_type>  (41) 
oracle

>  <origin>  (41) 
autodockgpu

>  <m_score__min__energy>  (41) 
-9.7200000000000006

>  <m_primary>  (41) 
energy

>  <rmsd>  (41) 
7.296667519260575

>  <m_score__min__rmsd>  (41) 
7.296667519260575

>  <meeko>  (41) 
{"free_energy": -9.68, "intermolecular_energy": -10.57, "internal_energy": -1.02, "cluster_size": 50, "cluster_id": 1, "rank_in_cluster": 37}

>  <energy>  (41) 
-9.67

>  <cluster_rmsd>  (41) 
0.09

>  <cluster>  (41) 
1

$$$$

     RDKit          3D

 53 57  0  0  0  0  0  0  0  0999 V2000
  137.1390   72.3180  220.8640 O   0  0  0  0  0  0  0  0  0  0  0  0
  138.2590   72.6250  221.3450 C   0  0  0  0  0  0  0  0  0  0  0  0
  139.0630   73.6530  220.6430 C   0  0  0  0  0  0  0  0  0  0  0  0
  140.3400   73.8600  221.3640 C   0  0  0  0  0  0  0  0  0  0  0  0
  141.2840   74.8540  220.8040 C   0  0  0  0  0  0  0  0  0  0  0  0
  142.4850   74.4550  220.2360 C   0  0  0  0  0  0  0  0  0  0  0  0
  143.3630   75.3910  219.7150 C   0  0  0  0  0  0  0  0  0  0  0  0
  143.0470   76.7430  219.7580 C   0  0  0  0  0  0  0  0  0  0  0  0
  141.8560   77.1670  220.3180 C   0  0  0  0  0  0  0  0  0  0  0  0
  141.4630   78.5640  220.3940 C   0  0  0  0  0  0  0  0  0  0  0  0
  140.8040   79.0460  219.4400 O   0  0  0  0  0  0  0  0  0  0  0  0
  141.7750   79.4200  221.4780 N   0  0  0  0  0  0  0  0  0  0  0  0
  141.3260   80.8130  221.4520 C   0  0  0  0  0  0  0  0  0  0  0  0
  140.4960   80.9520  222.7410 C   0  0  0  0  0  0  0  0  0  0  0  0
  141.2570   80.5760  223.8380 O   0  0  0  0  0  0  0  0  0  0  0  0
  141.5320   79.1990  223.8110 C   0  0  0  0  0  0  0  0  0  0  0  0
  142.5240   79.0180  222.6530 C   0  0  0  0  0  0  0  0  0  0  0  0
  141.0090   76.2060  220.8260 C   0  0  0  0  0  0  0  0  0  0  0  0
  140.6840   73.2370  222.4380 N   0  0  0  0  0  0  0  0  0  0  0  0
  139.9130   72.2640  223.1000 C   0  0  0  0  0  0  0  0  0  0  0  0
  140.3680   71.6460  224.2500 C   0  0  0  0  0  0  0  0  0  0  0  0
  139.5770   70.6860  224.8760 C   0  0  0  0  0  0  0  0  0  0  0  0
  140.0970   70.0590  226.0850 C   0  0  0  0  0  0  0  0  0  0  0  0
  140.1890   68.6680  226.0980 C   0  0  0  0  0  0  0  0  0  0  0  0
  140.6750   68.0220  227.2160 C   0  0  0  0  0  0  0  0  0  0  0  0
  141.0590   68.7780  228.2940 C   0  0  0  0  0  0  0  0  0  0  0  0
  140.9740   70.1360  228.2930 C   0  0  0  0  0  0  0  0  0  0  0  0
  140.4880   70.8210  227.1840 C   0  0  0  0  0  0  0  0  0  0  0  0
  138.3410   70.3610  224.3400 C   0  0  0  0  0  0  0  0  0  0  0  0
  137.9060   70.9880  223.1910 C   0  0  0  0  0  0  0  0  0  0  0  0
  138.6820   71.9440  222.5570 C   0  0  0  0  0  0  0  0  0  0  0  0
  139.2720   73.3169  219.6167 H   0  0  0  0  0  0  0  0  0  0  0  0
  138.5021   74.5988  220.6127 H   0  0  0  0  0  0  0  0  0  0  0  0
  142.7423   73.3861  220.1990 H   0  0  0  0  0  0  0  0  0  0  0  0
  144.3123   75.0631  219.2663 H   0  0  0  0  0  0  0  0  0  0  0  0
  143.7491   77.4814  219.3437 H   0  0  0  0  0  0  0  0  0  0  0  0
  142.1835   81.5019  221.4612 H   0  0  0  0  0  0  0  0  0  0  0  0
  140.7522   81.0595  220.5464 H   0  0  0  0  0  0  0  0  0  0  0  0
  140.1790   81.9987  222.8591 H   0  0  0  0  0  0  0  0  0  0  0  0
  139.6126   80.3000  222.6737 H   0  0  0  0  0  0  0  0  0  0  0  0
  141.9825   78.8754  224.7609 H   0  0  0  0  0  0  0  0  0  0  0  0
  140.6215   78.5970  223.6748 H   0  0  0  0  0  0  0  0  0  0  0  0
  143.4068   79.6595  222.7915 H   0  0  0  0  0  0  0  0  0  0  0  0
  142.9030   77.9880  222.5795 H   0  0  0  0  0  0  0  0  0  0  0  0
  140.0601   76.5353  221.2744 H   0  0  0  0  0  0  0  0  0  0  0  0
  141.3501   71.9113  224.6685 H   0  0  0  0  0  0  0  0  0  0  0  0
  139.8747   68.0867  225.2186 H   0  0  0  0  0  0  0  0  0  0  0  0
  140.7528   66.9251  227.2422 H   0  0  0  0  0  0  0  0  0  0  0  0
  141.4484   68.2699  229.1886 H   0  0  0  0  0  0  0  0  0  0  0  0
  141.2940   70.7001  229.1815 H   0  0  0  0  0  0  0  0  0  0  0  0
  140.4154   71.9186  227.1751 H   0  0  0  0  0  0  0  0  0  0  0  0
  137.7089   69.6054  224.8293 H   0  0  0  0  0  0  0  0  0  0  0  0
  136.9245   70.7238  222.7704 H   0  0  0  0  0  0  0  0  0  0  0  0
  1  2  2  0
  2  3  1  0
  3  4  1  0
  4  5  1  0
  5  6  2  0
  6  7  1  0
  7  8  2  0
  8  9  1  0
  9 10  1  0
 10 11  2  0
 10 12  1  0
 12 13  1  0
 13 14  1  0
 14 15  1  0
 15 16  1  0
 16 17  1  0
  9 18  2  0
  4 19  2  0
 19 20  1  0
 20 21  2  0
 21 22  1  0
 22 23  1  0
 23 24  2  0
 24 25  1  0
 25 26  2  0
 26 27  1  0
 27 28  2  0
 22 29  2  0
 29 30  1  0
 30 31  2  0
 31  2  1  0
 18  5  1  0
 31 20  1  0
 17 12  1  0
 28 23  1  0
  3 32  1  0
  3 33  1  0
  6 34  1  0
  7 35  1  0
  8 36  1  0
 13 37  1  0
 13 38  1  0
 14 39  1  0
 14 40  1  0
 16 41  1  0
 16 42  1  0
 17 43  1  0
 17 44  1  0
 18 45  1  0
 21 46  1  0
 24 47  1  0
 25 48  1  0
 26 49  1  0
 27 50  1  0
 28 51  1  0
 29 52  1  0
 30 53  1  0
M  END
>  <smiles>  (42) 
O=C1CC(c2cccc(C(=O)N3CCOCC3)c2)=Nc2cc(-c3ccccc3)ccc21

>  <score_type>  (42) 
oracle

>  <origin>  (42) 
autodockgpu

>  <m_score__min__energy>  (42) 
-9.7200000000000006

>  <m_primary>  (42) 
energy

>  <rmsd>  (42) 
7.283713805816372

>  <m_score__min__rmsd>  (42) 
7.283713805816372

>  <meeko>  (42) 
{"free_energy": -9.7, "intermolecular_energy": -10.6, "internal_energy": -1.02, "cluster_size": 50, "cluster_id": 1, "rank_in_cluster": 8}

>  <energy>  (42) 
-9.66

>  <cluster_rmsd>  (42) 
0.14

>  <cluster>  (42) 
1

$$$$

     RDKit          3D

 53 57  0  0  0  0  0  0  0  0999 V2000
  137.7210   71.2920  220.3970 O   0  0  0  0  0  0  0  0  0  0  0  0
  138.5660   71.9200  221.0830 C   0  0  0  0  0  0  0  0  0  0  0  0
  139.1020   73.1900  220.5420 C   0  0  0  0  0  0  0  0  0  0  0  0
  140.0810   73.7610  221.4960 C   0  0  0  0  0  0  0  0  0  0  0  0
  140.7310   75.0370  221.1210 C   0  0  0  0  0  0  0  0  0  0  0  0
  141.3140   75.2000  219.8730 C   0  0  0  0  0  0  0  0  0  0  0  0
  141.9210   76.3970  219.5300 C   0  0  0  0  0  0  0  0  0  0  0  0
  141.9510   77.4490  220.4370 C   0  0  0  0  0  0  0  0  0  0  0  0
  141.3770   77.3130  221.6870 C   0  0  0  0  0  0  0  0  0  0  0  0
  141.3720   78.3720  222.6820 C   0  0  0  0  0  0  0  0  0  0  0  0
  141.7910   78.1020  223.8350 O   0  0  0  0  0  0  0  0  0  0  0  0
  140.9240   79.6930  222.4370 N   0  0  0  0  0  0  0  0  0  0  0  0
  140.9650   80.6830  223.5140 C   0  0  0  0  0  0  0  0  0  0  0  0
  141.8260   81.8180  222.9320 C   0  0  0  0  0  0  0  0  0  0  0  0
  141.2920   82.2490  221.7270 O   0  0  0  0  0  0  0  0  0  0  0  0
  141.4080   81.2550  220.7410 C   0  0  0  0  0  0  0  0  0  0  0  0
  140.4150   80.1640  221.1630 C   0  0  0  0  0  0  0  0  0  0  0  0
  140.7830   76.1070  221.9920 C   0  0  0  0  0  0  0  0  0  0  0  0
  140.4030   73.2250  222.6220 N   0  0  0  0  0  0  0  0  0  0  0  0
  139.8870   72.0200  223.1300 C   0  0  0  0  0  0  0  0  0  0  0  0
  140.2960   71.5210  224.3540 C   0  0  0  0  0  0  0  0  0  0  0  0
  139.7640   70.3230  224.8220 C   0  0  0  0  0  0  0  0  0  0  0  0
  140.2250   69.8330  226.1150 C   0  0  0  0  0  0  0  0  0  0  0  0
  140.2700   68.4530  226.3010 C   0  0  0  0  0  0  0  0  0  0  0  0
  140.7000   67.9340  227.5040 C   0  0  0  0  0  0  0  0  0  0  0  0
  141.0760   68.8050  228.4950 C   0  0  0  0  0  0  0  0  0  0  0  0
  141.0370   70.1550  228.3260 C   0  0  0  0  0  0  0  0  0  0  0  0
  140.6080   70.7130  227.1270 C   0  0  0  0  0  0  0  0  0  0  0  0
  138.8270   69.6430  224.0590 C   0  0  0  0  0  0  0  0  0  0  0  0
  138.4330   70.1570  222.8410 C   0  0  0  0  0  0  0  0  0  0  0  0
  138.9550   71.3470  222.3610 C   0  0  0  0  0  0  0  0  0  0  0  0
  139.5980   72.9977  219.5792 H   0  0  0  0  0  0  0  0  0  0  0  0
  138.2767   73.9021  220.3945 H   0  0  0  0  0  0  0  0  0  0  0  0
  141.2942   74.3717  219.1495 H   0  0  0  0  0  0  0  0  0  0  0  0
  142.3802   76.5149  218.5374 H   0  0  0  0  0  0  0  0  0  0  0  0
  142.4349   78.3967  220.1584 H   0  0  0  0  0  0  0  0  0  0  0  0
  139.9537   81.0420  223.7558 H   0  0  0  0  0  0  0  0  0  0  0  0
  141.3717   80.2767  224.4518 H   0  0  0  0  0  0  0  0  0  0  0  0
  141.8488   82.6583  223.6415 H   0  0  0  0  0  0  0  0  0  0  0  0
  142.8469   81.4454  222.7616 H   0  0  0  0  0  0  0  0  0  0  0  0
  141.1435   81.6578  219.7522 H   0  0  0  0  0  0  0  0  0  0  0  0
  142.4355   80.8709  220.6585 H   0  0  0  0  0  0  0  0  0  0  0  0
  139.4032   80.5803  221.2770 H   0  0  0  0  0  0  0  0  0  0  0  0
  140.3325   79.3585  220.4184 H   0  0  0  0  0  0  0  0  0  0  0  0
  140.3247   75.9906  222.9852 H   0  0  0  0  0  0  0  0  0  0  0  0
  141.0378   72.0683  224.9542 H   0  0  0  0  0  0  0  0  0  0  0  0
  139.9627   67.7779  225.4887 H   0  0  0  0  0  0  0  0  0  0  0  0
  140.7406   66.8467  227.6653 H   0  0  0  0  0  0  0  0  0  0  0  0
  141.4203   68.3991  229.4576 H   0  0  0  0  0  0  0  0  0  0  0  0
  141.3493   70.8138  229.1497 H   0  0  0  0  0  0  0  0  0  0  0  0
  140.5722   71.8029  226.9826 H   0  0  0  0  0  0  0  0  0  0  0  0
  138.3995   68.6973  224.4235 H   0  0  0  0  0  0  0  0  0  0  0  0
  137.6905   69.6118  222.2398 H   0  0  0  0  0  0  0  0  0  0  0  0
  1  2  2  0
  2  3  1  0
  3  4  1  0
  4  5  1  0
  5  6  2  0
  6  7  1  0
  7  8  2  0
  8  9  1  0
  9 10  1  0
 10 11  2  0
 10 12  1  0
 12 13  1  0
 13 14  1  0
 14 15  1  0
 15 16  1  0
 16 17  1  0
  9 18  2  0
  4 19  2  0
 19 20  1  0
 20 21  2  0
 21 22  1  0
 22 23  1  0
 23 24  2  0
 24 25  1  0
 25 26  2  0
 26 27  1  0
 27 28  2  0
 22 29  2  0
 29 30  1  0
 30 31  2  0
 31  2  1  0
 18  5  1  0
 31 20  1  0
 17 12  1  0
 28 23  1  0
  3 32  1  0
  3 33  1  0
  6 34  1  0
  7 35  1  0
  8 36  1  0
 13 37  1  0
 13 38  1  0
 14 39  1  0
 14 40  1  0
 16 41  1  0
 16 42  1  0
 17 43  1  0
 17 44  1  0
 18 45  1  0
 21 46  1  0
 24 47  1  0
 25 48  1  0
 26 49  1  0
 27 50  1  0
 28 51  1  0
 29 52  1  0
 30 53  1  0
M  END
>  <smiles>  (43) 
O=C1CC(c2cccc(C(=O)N3CCOCC3)c2)=Nc2cc(-c3ccccc3)ccc21

>  <score_type>  (43) 
oracle

>  <origin>  (43) 
autodockgpu

>  <m_score__min__energy>  (43) 
-9.7200000000000006

>  <m_primary>  (43) 
energy

>  <rmsd>  (43) 
7.193038728069574

>  <m_score__min__rmsd>  (43) 
7.193038728069574

>  <meeko>  (43) 
{"free_energy": -9.53, "intermolecular_energy": -10.42, "internal_energy": -0.95, "cluster_size": 50, "cluster_id": 1, "rank_in_cluster": 47}

>  <energy>  (43) 
-9.62

>  <cluster_rmsd>  (43) 
0.35

>  <cluster>  (43) 
1

$$$$

     RDKit          3D

 53 57  0  0  0  0  0  0  0  0999 V2000
  137.3510   71.6510  220.6520 O   0  0  0  0  0  0  0  0  0  0  0  0
  138.3070   72.1680  221.2820 C   0  0  0  0  0  0  0  0  0  0  0  0
  138.9260   73.3960  220.7310 C   0  0  0  0  0  0  0  0  0  0  0  0
  140.0300   73.8350  221.6150 C   0  0  0  0  0  0  0  0  0  0  0  0
  140.7750   75.0510  221.2200 C   0  0  0  0  0  0  0  0  0  0  0  0
  141.5920   75.0540  220.0990 C   0  0  0  0  0  0  0  0  0  0  0  0
  142.2870   76.1950  219.7360 C   0  0  0  0  0  0  0  0  0  0  0  0
  142.1720   77.3530  220.4960 C   0  0  0  0  0  0  0  0  0  0  0  0
  141.3640   77.3770  221.6180 C   0  0  0  0  0  0  0  0  0  0  0  0
  141.1970   78.5530  222.4550 C   0  0  0  0  0  0  0  0  0  0  0  0
  141.4690   78.4520  223.6770 O   0  0  0  0  0  0  0  0  0  0  0  0
  140.7470   79.8100  221.9820 N   0  0  0  0  0  0  0  0  0  0  0  0
  140.6170   80.9300  222.9160 C   0  0  0  0  0  0  0  0  0  0  0  0
  141.5130   82.0200  222.3020 C   0  0  0  0  0  0  0  0  0  0  0  0
  141.1300   82.2690  220.9930 O   0  0  0  0  0  0  0  0  0  0  0  0
  141.4040   81.1640  220.1700 C   0  0  0  0  0  0  0  0  0  0  0  0
  140.3960   80.0900  220.6040 C   0  0  0  0  0  0  0  0  0  0  0  0
  140.6890   76.2210  221.9470 C   0  0  0  0  0  0  0  0  0  0  0  0
  140.3830   73.2320  222.6980 N   0  0  0  0  0  0  0  0  0  0  0  0
  139.7880   72.0680  223.2160 C   0  0  0  0  0  0  0  0  0  0  0  0
  140.2390   71.4910  224.3890 C   0  0  0  0  0  0  0  0  0  0  0  0
  139.6260   70.3370  224.8700 C   0  0  0  0  0  0  0  0  0  0  0  0
  140.1360   69.7620  226.1090 C   0  0  0  0  0  0  0  0  0  0  0  0
  140.2310   68.3730  226.1800 C   0  0  0  0  0  0  0  0  0  0  0  0
  140.7080   67.7750  227.3270 C   0  0  0  0  0  0  0  0  0  0  0  0
  141.0800   68.5750  228.3770 C   0  0  0  0  0  0  0  0  0  0  0  0
  140.9910   69.9320  228.3200 C   0  0  0  0  0  0  0  0  0  0  0  0
  140.5140   70.5690  227.1800 C   0  0  0  0  0  0  0  0  0  0  0  0
  138.5680   69.7800  224.1690 C   0  0  0  0  0  0  0  0  0  0  0  0
  138.1340   70.3710  223.0010 C   0  0  0  0  0  0  0  0  0  0  0  0
  138.7350   71.5180  222.5100 C   0  0  0  0  0  0  0  0  0  0  0  0
  139.3223   73.1872  219.7264 H   0  0  0  0  0  0  0  0  0  0  0  0
  138.1685   74.1913  220.6698 H   0  0  0  0  0  0  0  0  0  0  0  0
  141.6886   74.1412  219.4928 H   0  0  0  0  0  0  0  0  0  0  0  0
  142.9314   76.1851  218.8445 H   0  0  0  0  0  0  0  0  0  0  0  0
  142.7273   78.2562  220.2031 H   0  0  0  0  0  0  0  0  0  0  0  0
  139.5726   81.2696  222.9789 H   0  0  0  0  0  0  0  0  0  0  0  0
  140.9088   80.6657  223.9431 H   0  0  0  0  0  0  0  0  0  0  0  0
  141.4177   82.9440  222.8911 H   0  0  0  0  0  0  0  0  0  0  0  0
  142.5577   81.6759  222.3126 H   0  0  0  0  0  0  0  0  0  0  0  0
  141.2601   81.4247  219.1111 H   0  0  0  0  0  0  0  0  0  0  0  0
  142.4443   80.8207  220.2697 H   0  0  0  0  0  0  0  0  0  0  0  0
  139.3661   80.4700  220.5331 H   0  0  0  0  0  0  0  0  0  0  0  0
  140.4356   79.1932  219.9683 H   0  0  0  0  0  0  0  0  0  0  0  0
  140.0456   76.2316  222.8392 H   0  0  0  0  0  0  0  0  0  0  0  0
  141.0780   71.9415  224.9395 H   0  0  0  0  0  0  0  0  0  0  0  0
  139.9260   67.7553  225.3225 H   0  0  0  0  0  0  0  0  0  0  0  0
  140.7884   66.6803  227.3984 H   0  0  0  0  0  0  0  0  0  0  0  0
  141.4627   68.1048  229.2949 H   0  0  0  0  0  0  0  0  0  0  0  0
  141.3007   70.5329  229.1878 H   0  0  0  0  0  0  0  0  0  0  0  0
  140.4382   71.6650  227.1258 H   0  0  0  0  0  0  0  0  0  0  0  0
  138.0763   68.8698  224.5429 H   0  0  0  0  0  0  0  0  0  0  0  0
  137.2947   69.9229  222.4490 H   0  0  0  0  0  0  0  0  0  0  0  0
  1  2  2  0
  2  3  1  0
  3  4  1  0
  4  5  1  0
  5  6  2  0
  6  7  1  0
  7  8  2  0
  8  9  1  0
  9 10  1  0
 10 11  2  0
 10 12  1  0
 12 13  1  0
 13 14  1  0
 14 15  1  0
 15 16  1  0
 16 17  1  0
  9 18  2  0
  4 19  2  0
 19 20  1  0
 20 21  2  0
 21 22  1  0
 22 23  1  0
 23 24  2  0
 24 25  1  0
 25 26  2  0
 26 27  1  0
 27 28  2  0
 22 29  2  0
 29 30  1  0
 30 31  2  0
 31  2  1  0
 18  5  1  0
 31 20  1  0
 17 12  1  0
 28 23  1  0
  3 32  1  0
  3 33  1  0
  6 34  1  0
  7 35  1  0
  8 36  1  0
 13 37  1  0
 13 38  1  0
 14 39  1  0
 14 40  1  0
 16 41  1  0
 16 42  1  0
 17 43  1  0
 17 44  1  0
 18 45  1  0
 21 46  1  0
 24 47  1  0
 25 48  1  0
 26 49  1  0
 27 50  1  0
 28 51  1  0
 29 52  1  0
 30 53  1  0
M  END
>  <smiles>  (44) 
O=C1CC(c2cccc(C(=O)N3CCOCC3)c2)=Nc2cc(-c3ccccc3)ccc21

>  <score_type>  (44) 
oracle

>  <origin>  (44) 
autodockgpu

>  <m_score__min__energy>  (44) 
-9.7200000000000006

>  <m_primary>  (44) 
energy

>  <rmsd>  (44) 
7.2050487406969825

>  <m_score__min__rmsd>  (44) 
7.2050487406969825

>  <meeko>  (44) 
{"free_energy": -9.43, "intermolecular_energy": -10.32, "internal_energy": -0.96, "cluster_size": 50, "cluster_id": 1, "rank_in_cluster": 50}

>  <energy>  (44) 
-9.61

>  <cluster_rmsd>  (44) 
0.26

>  <cluster>  (44) 
1

$$$$

     RDKit          3D

 53 57  0  0  0  0  0  0  0  0999 V2000
  137.2340   72.2740  220.7290 O   0  0  0  0  0  0  0  0  0  0  0  0
  138.3380   72.6000  221.2320 C   0  0  0  0  0  0  0  0  0  0  0  0
  139.1370   73.6440  220.5480 C   0  0  0  0  0  0  0  0  0  0  0  0
  140.3960   73.8720  221.2940 C   0  0  0  0  0  0  0  0  0  0  0  0
  141.3320   74.8840  220.7540 C   0  0  0  0  0  0  0  0  0  0  0  0
  142.5420   74.5070  220.1920 C   0  0  0  0  0  0  0  0  0  0  0  0
  143.4140   75.4600  219.6900 C   0  0  0  0  0  0  0  0  0  0  0  0
  143.0800   76.8080  219.7460 C   0  0  0  0  0  0  0  0  0  0  0  0
  141.8790   77.2100  220.3000 C   0  0  0  0  0  0  0  0  0  0  0  0
  141.4680   78.6010  220.3890 C   0  0  0  0  0  0  0  0  0  0  0  0
  140.7930   79.0800  219.4460 O   0  0  0  0  0  0  0  0  0  0  0  0
  141.7800   79.4550  221.4760 N   0  0  0  0  0  0  0  0  0  0  0  0
  141.3120   80.8420  221.4630 C   0  0  0  0  0  0  0  0  0  0  0  0
  140.4950   80.9610  222.7620 C   0  0  0  0  0  0  0  0  0  0  0  0
  141.2710   80.5880  223.8480 O   0  0  0  0  0  0  0  0  0  0  0  0
  141.5650   79.2150  223.8090 C   0  0  0  0  0  0  0  0  0  0  0  0
  142.5470   79.0560  222.6400 C   0  0  0  0  0  0  0  0  0  0  0  0
  141.0400   76.2330  220.7900 C   0  0  0  0  0  0  0  0  0  0  0  0
  140.7300   73.2530  222.3730 N   0  0  0  0  0  0  0  0  0  0  0  0
  139.9640   72.2650  223.0180 C   0  0  0  0  0  0  0  0  0  0  0  0
  140.4070   71.6530  224.1760 C   0  0  0  0  0  0  0  0  0  0  0  0
  139.6220   70.6770  224.7840 C   0  0  0  0  0  0  0  0  0  0  0  0
  140.1300   70.0570  226.0020 C   0  0  0  0  0  0  0  0  0  0  0  0
  140.5820   70.9030  227.0130 C   0  0  0  0  0  0  0  0  0  0  0  0
  141.0720   70.3700  228.1870 C   0  0  0  0  0  0  0  0  0  0  0  0
  141.1000   69.0060  228.3250 C   0  0  0  0  0  0  0  0  0  0  0  0
  140.6610   68.1700  227.3450 C   0  0  0  0  0  0  0  0  0  0  0  0
  140.1620   68.6710  226.1480 C   0  0  0  0  0  0  0  0  0  0  0  0
  138.4030   70.3310  224.2240 C   0  0  0  0  0  0  0  0  0  0  0  0
  137.9790   70.9520  223.0680 C   0  0  0  0  0  0  0  0  0  0  0  0
  138.7500   71.9240  222.4510 C   0  0  0  0  0  0  0  0  0  0  0  0
  139.3717   73.3143  219.5252 H   0  0  0  0  0  0  0  0  0  0  0  0
  138.5600   74.5797  220.5091 H   0  0  0  0  0  0  0  0  0  0  0  0
  142.8124   73.4418  220.1441 H   0  0  0  0  0  0  0  0  0  0  0  0
  144.3716   75.1492  219.2467 H   0  0  0  0  0  0  0  0  0  0  0  0
  143.7762   77.5602  219.3467 H   0  0  0  0  0  0  0  0  0  0  0  0
  142.1600   81.5426  221.4669 H   0  0  0  0  0  0  0  0  0  0  0  0
  140.7252   81.0865  220.5653 H   0  0  0  0  0  0  0  0  0  0  0  0
  140.1657   82.0026  222.8907 H   0  0  0  0  0  0  0  0  0  0  0  0
  139.6201   80.2971  222.6994 H   0  0  0  0  0  0  0  0  0  0  0  0
  142.0299   78.8915  224.7520 H   0  0  0  0  0  0  0  0  0  0  0  0
  140.6617   78.6010  223.6783 H   0  0  0  0  0  0  0  0  0  0  0  0
  143.4219   79.7092  222.7736 H   0  0  0  0  0  0  0  0  0  0  0  0
  142.9400   78.0321  222.5555 H   0  0  0  0  0  0  0  0  0  0  0  0
  140.0837   76.5454  221.2349 H   0  0  0  0  0  0  0  0  0  0  0  0
  141.3752   71.9359  224.6149 H   0  0  0  0  0  0  0  0  0  0  0  0
  140.5480   71.9938  226.8750 H   0  0  0  0  0  0  0  0  0  0  0  0
  141.4322   71.0244  228.9944 H   0  0  0  0  0  0  0  0  0  0  0  0
  141.4900   68.5735  229.2582 H   0  0  0  0  0  0  0  0  0  0  0  0
  140.7015   67.0821  227.5023 H   0  0  0  0  0  0  0  0  0  0  0  0
  139.8075   68.0021  225.3499 H   0  0  0  0  0  0  0  0  0  0  0  0
  137.7752   69.5633  224.7000 H   0  0  0  0  0  0  0  0  0  0  0  0
  137.0111   70.6706  222.6277 H   0  0  0  0  0  0  0  0  0  0  0  0
  1  2  2  0
  2  3  1  0
  3  4  1  0
  4  5  1  0
  5  6  2  0
  6  7  1  0
  7  8  2  0
  8  9  1  0
  9 10  1  0
 10 11  2  0
 10 12  1  0
 12 13  1  0
 13 14  1  0
 14 15  1  0
 15 16  1  0
 16 17  1  0
  9 18  2  0
  4 19  2  0
 19 20  1  0
 20 21  2  0
 21 22  1  0
 22 23  1  0
 23 24  2  0
 24 25  1  0
 25 26  2  0
 26 27  1  0
 27 28  2  0
 22 29  2  0
 29 30  1  0
 30 31  2  0
 31  2  1  0
 18  5  1  0
 31 20  1  0
 17 12  1  0
 28 23  1  0
  3 32  1  0
  3 33  1  0
  6 34  1  0
  7 35  1  0
  8 36  1  0
 13 37  1  0
 13 38  1  0
 14 39  1  0
 14 40  1  0
 16 41  1  0
 16 42  1  0
 17 43  1  0
 17 44  1  0
 18 45  1  0
 21 46  1  0
 24 47  1  0
 25 48  1  0
 26 49  1  0
 27 50  1  0
 28 51  1  0
 29 52  1  0
 30 53  1  0
M  END
>  <smiles>  (45) 
O=C1CC(c2cccc(C(=O)N3CCOCC3)c2)=Nc2cc(-c3ccccc3)ccc21

>  <score_type>  (45) 
oracle

>  <origin>  (45) 
autodockgpu

>  <m_score__min__energy>  (45) 
-9.7200000000000006

>  <m_primary>  (45) 
energy

>  <rmsd>  (45) 
7.324092889213822

>  <m_score__min__rmsd>  (45) 
7.324092889213822

>  <meeko>  (45) 
{"free_energy": -9.68, "intermolecular_energy": -10.58, "internal_energy": -1.02, "cluster_size": 50, "cluster_id": 1, "rank_in_cluster": 35}

>  <energy>  (45) 
-9.6

>  <cluster_rmsd>  (45) 
0.19

>  <cluster>  (45) 
1

$$$$

     RDKit          3D

 53 57  0  0  0  0  0  0  0  0999 V2000
  137.1300   72.3640  220.8710 O   0  0  0  0  0  0  0  0  0  0  0  0
  138.2560   72.6530  221.3480 C   0  0  0  0  0  0  0  0  0  0  0  0
  139.0640   73.6850  220.6570 C   0  0  0  0  0  0  0  0  0  0  0  0
  140.3480   73.8680  221.3710 C   0  0  0  0  0  0  0  0  0  0  0  0
  141.2970   74.8620  220.8210 C   0  0  0  0  0  0  0  0  0  0  0  0
  142.5050   74.4630  220.2660 C   0  0  0  0  0  0  0  0  0  0  0  0
  143.3880   75.3990  219.7530 C   0  0  0  0  0  0  0  0  0  0  0  0
  143.0700   76.7510  219.7910 C   0  0  0  0  0  0  0  0  0  0  0  0
  141.8730   77.1750  220.3370 C   0  0  0  0  0  0  0  0  0  0  0  0
  141.4780   78.5720  220.4060 C   0  0  0  0  0  0  0  0  0  0  0  0
  140.8270   79.0510  219.4460 O   0  0  0  0  0  0  0  0  0  0  0  0
  141.7800   79.4310  221.4920 N   0  0  0  0  0  0  0  0  0  0  0  0
  141.3300   80.8230  221.4580 C   0  0  0  0  0  0  0  0  0  0  0  0
  140.4900   80.9640  222.7400 C   0  0  0  0  0  0  0  0  0  0  0  0
  141.2410   80.5910  223.8440 O   0  0  0  0  0  0  0  0  0  0  0  0
  141.5180   79.2140  223.8220 C   0  0  0  0  0  0  0  0  0  0  0  0
  142.5200   79.0320  222.6730 C   0  0  0  0  0  0  0  0  0  0  0  0
  141.0220   76.2140  220.8370 C   0  0  0  0  0  0  0  0  0  0  0  0
  140.6940   73.2250  222.4330 N   0  0  0  0  0  0  0  0  0  0  0  0
  139.9180   72.2490  223.0850 C   0  0  0  0  0  0  0  0  0  0  0  0
  140.3750   71.6090  224.2220 C   0  0  0  0  0  0  0  0  0  0  0  0
  139.5800   70.6470  224.8390 C   0  0  0  0  0  0  0  0  0  0  0  0
  140.1030   69.9960  226.0340 C   0  0  0  0  0  0  0  0  0  0  0  0
  140.1030   68.6030  226.0580 C   0  0  0  0  0  0  0  0  0  0  0  0
  140.5870   67.9340  227.1630 C   0  0  0  0  0  0  0  0  0  0  0  0
  141.0610   68.6720  228.2190 C   0  0  0  0  0  0  0  0  0  0  0  0
  141.0650   70.0320  228.2070 C   0  0  0  0  0  0  0  0  0  0  0  0
  140.5840   70.7390  227.1100 C   0  0  0  0  0  0  0  0  0  0  0  0
  138.3370   70.3420  224.3060 C   0  0  0  0  0  0  0  0  0  0  0  0
  137.9000   70.9910  223.1710 C   0  0  0  0  0  0  0  0  0  0  0  0
  138.6810   71.9490  222.5460 C   0  0  0  0  0  0  0  0  0  0  0  0
  139.2618   73.3643  219.6236 H   0  0  0  0  0  0  0  0  0  0  0  0
  138.5118   74.6363  220.6469 H   0  0  0  0  0  0  0  0  0  0  0  0
  142.7634   73.3943  220.2332 H   0  0  0  0  0  0  0  0  0  0  0  0
  144.3423   75.0714  219.3149 H   0  0  0  0  0  0  0  0  0  0  0  0
  143.7761   77.4895  219.3835 H   0  0  0  0  0  0  0  0  0  0  0  0
  142.1866   81.5130  221.4720 H   0  0  0  0  0  0  0  0  0  0  0  0
  140.7634   81.0666  220.5471 H   0  0  0  0  0  0  0  0  0  0  0  0
  140.1715   82.0108  222.8532 H   0  0  0  0  0  0  0  0  0  0  0  0
  139.6080   80.3108  222.6667 H   0  0  0  0  0  0  0  0  0  0  0  0
  141.9608   78.8928  224.7764 H   0  0  0  0  0  0  0  0  0  0  0  0
  140.6094   78.6106  223.6791 H   0  0  0  0  0  0  0  0  0  0  0  0
  143.4009   79.6748  222.8176 H   0  0  0  0  0  0  0  0  0  0  0  0
  142.9013   78.0025  222.6045 H   0  0  0  0  0  0  0  0  0  0  0  0
  140.0680   76.5436  221.2743 H   0  0  0  0  0  0  0  0  0  0  0  0
  141.3625   71.8588  224.6374 H   0  0  0  0  0  0  0  0  0  0  0  0
  139.7175   68.0374  225.1969 H   0  0  0  0  0  0  0  0  0  0  0  0
  140.5930   66.8345  227.1972 H   0  0  0  0  0  0  0  0  0  0  0  0
  141.4502   68.1464  229.1035 H   0  0  0  0  0  0  0  0  0  0  0  0
  141.4542   70.5807  229.0773 H   0  0  0  0  0  0  0  0  0  0  0  0
  140.5834   71.8389  227.0927 H   0  0  0  0  0  0  0  0  0  0  0  0
  137.7013   69.5843  224.7874 H   0  0  0  0  0  0  0  0  0  0  0  0
  136.9127   70.7434  222.7540 H   0  0  0  0  0  0  0  0  0  0  0  0
  1  2  2  0
  2  3  1  0
  3  4  1  0
  4  5  1  0
  5  6  2  0
  6  7  1  0
  7  8  2  0
  8  9  1  0
  9 10  1  0
 10 11  2  0
 10 12  1  0
 12 13  1  0
 13 14  1  0
 14 15  1  0
 15 16  1  0
 16 17  1  0
  9 18  2  0
  4 19  2  0
 19 20  1  0
 20 21  2  0
 21 22  1  0
 22 23  1  0
 23 24  2  0
 24 25  1  0
 25 26  2  0
 26 27  1  0
 27 28  2  0
 22 29  2  0
 29 30  1  0
 30 31  2  0
 31  2  1  0
 18  5  1  0
 31 20  1  0
 17 12  1  0
 28 23  1  0
  3 32  1  0
  3 33  1  0
  6 34  1  0
  7 35  1  0
  8 36  1  0
 13 37  1  0
 13 38  1  0
 14 39  1  0
 14 40  1  0
 16 41  1  0
 16 42  1  0
 17 43  1  0
 17 44  1  0
 18 45  1  0
 21 46  1  0
 24 47  1  0
 25 48  1  0
 26 49  1  0
 27 50  1  0
 28 51  1  0
 29 52  1  0
 30 53  1  0
M  END
>  <smiles>  (46) 
O=C1CC(c2cccc(C(=O)N3CCOCC3)c2)=Nc2cc(-c3ccccc3)ccc21

>  <score_type>  (46) 
oracle

>  <origin>  (46) 
autodockgpu

>  <m_score__min__energy>  (46) 
-9.7200000000000006

>  <m_primary>  (46) 
energy

>  <rmsd>  (46) 
7.294341486975098

>  <m_score__min__rmsd>  (46) 
7.294341486975098

>  <meeko>  (46) 
{"free_energy": -9.7, "intermolecular_energy": -10.6, "internal_energy": -1.02, "cluster_size": 50, "cluster_id": 1, "rank_in_cluster": 9}

>  <energy>  (46) 
-9.57

>  <cluster_rmsd>  (46) 
0.41

>  <cluster>  (46) 
1

$$$$

     RDKit          3D

 53 57  0  0  0  0  0  0  0  0999 V2000
  137.1840   72.2760  220.8280 O   0  0  0  0  0  0  0  0  0  0  0  0
  138.2970   72.5940  221.3190 C   0  0  0  0  0  0  0  0  0  0  0  0
  139.0970   73.6300  220.6240 C   0  0  0  0  0  0  0  0  0  0  0  0
  140.3650   73.8490  221.3570 C   0  0  0  0  0  0  0  0  0  0  0  0
  141.3040   74.8520  220.8050 C   0  0  0  0  0  0  0  0  0  0  0  0
  142.5130   74.4650  220.2460 C   0  0  0  0  0  0  0  0  0  0  0  0
  143.3870   75.4090  219.7330 C   0  0  0  0  0  0  0  0  0  0  0  0
  143.0580   76.7580  219.7750 C   0  0  0  0  0  0  0  0  0  0  0  0
  141.8600   77.1710  220.3260 C   0  0  0  0  0  0  0  0  0  0  0  0
  141.4540   78.5640  220.4010 C   0  0  0  0  0  0  0  0  0  0  0  0
  140.7830   79.0370  219.4510 O   0  0  0  0  0  0  0  0  0  0  0  0
  141.7650   79.4270  221.4810 N   0  0  0  0  0  0  0  0  0  0  0  0
  141.3030   80.8150  221.4530 C   0  0  0  0  0  0  0  0  0  0  0  0
  140.4820   80.9490  222.7480 C   0  0  0  0  0  0  0  0  0  0  0  0
  141.2540   80.5840  223.8400 O   0  0  0  0  0  0  0  0  0  0  0  0
  141.5420   79.2100  223.8150 C   0  0  0  0  0  0  0  0  0  0  0  0
  142.5270   79.0360  222.6500 C   0  0  0  0  0  0  0  0  0  0  0  0
  141.0180   76.2020  220.8270 C   0  0  0  0  0  0  0  0  0  0  0  0
  140.7050   73.2290  222.4340 N   0  0  0  0  0  0  0  0  0  0  0  0
  139.9380   72.2490  223.0890 C   0  0  0  0  0  0  0  0  0  0  0  0
  140.3880   71.6350  224.2430 C   0  0  0  0  0  0  0  0  0  0  0  0
  139.6020   70.6680  224.8620 C   0  0  0  0  0  0  0  0  0  0  0  0
  140.1170   70.0460  226.0750 C   0  0  0  0  0  0  0  0  0  0  0  0
  140.1340   68.6530  226.1250 C   0  0  0  0  0  0  0  0  0  0  0  0
  140.6120   68.0110  227.2480 C   0  0  0  0  0  0  0  0  0  0  0  0
  141.0630   68.7740  228.2960 C   0  0  0  0  0  0  0  0  0  0  0  0
  141.0510   70.1340  228.2590 C   0  0  0  0  0  0  0  0  0  0  0  0
  140.5750   70.8140  227.1430 C   0  0  0  0  0  0  0  0  0  0  0  0
  138.3730   70.3310  224.3140 C   0  0  0  0  0  0  0  0  0  0  0  0
  137.9420   70.9530  223.1620 C   0  0  0  0  0  0  0  0  0  0  0  0
  138.7150   71.9170  222.5350 C   0  0  0  0  0  0  0  0  0  0  0  0
  139.3187   73.2961  219.5996 H   0  0  0  0  0  0  0  0  0  0  0  0
  138.5272   74.5703  220.5881 H   0  0  0  0  0  0  0  0  0  0  0  0
  142.7801   73.3985  220.2098 H   0  0  0  0  0  0  0  0  0  0  0  0
  144.3428   75.0902  219.2918 H   0  0  0  0  0  0  0  0  0  0  0  0
  143.7565   77.5031  219.3665 H   0  0  0  0  0  0  0  0  0  0  0  0
  142.1538   81.5123  221.4534 H   0  0  0  0  0  0  0  0  0  0  0  0
  140.7206   81.0536  220.5509 H   0  0  0  0  0  0  0  0  0  0  0  0
  140.1554   81.9928  222.8656 H   0  0  0  0  0  0  0  0  0  0  0  0
  139.6051   80.2875  222.6891 H   0  0  0  0  0  0  0  0  0  0  0  0
  142.0028   78.8935  224.7624 H   0  0  0  0  0  0  0  0  0  0  0  0
  140.6365   78.5985  223.6876 H   0  0  0  0  0  0  0  0  0  0  0  0
  143.4042   79.6869  222.7799 H   0  0  0  0  0  0  0  0  0  0  0  0
  142.9163   78.0098  222.5762 H   0  0  0  0  0  0  0  0  0  0  0  0
  140.0635   76.5228  221.2697 H   0  0  0  0  0  0  0  0  0  0  0  0
  141.3637   71.9099  224.6702 H   0  0  0  0  0  0  0  0  0  0  0  0
  139.7666   68.0667  225.2699 H   0  0  0  0  0  0  0  0  0  0  0  0
  140.6314   66.9125  227.3026 H   0  0  0  0  0  0  0  0  0  0  0  0
  141.4466   68.2695  229.1951 H   0  0  0  0  0  0  0  0  0  0  0  0
  141.4228   70.7035  229.1235 H   0  0  0  0  0  0  0  0  0  0  0  0
  140.5608   71.9133  227.1053 H   0  0  0  0  0  0  0  0  0  0  0  0
  137.7439   69.5692  224.7977 H   0  0  0  0  0  0  0  0  0  0  0  0
  136.9669   70.6792  222.7327 H   0  0  0  0  0  0  0  0  0  0  0  0
  1  2  2  0
  2  3  1  0
  3  4  1  0
  4  5  1  0
  5  6  2  0
  6  7  1  0
  7  8  2  0
  8  9  1  0
  9 10  1  0
 10 11  2  0
 10 12  1  0
 12 13  1  0
 13 14  1  0
 14 15  1  0
 15 16  1  0
 16 17  1  0
  9 18  2  0
  4 19  2  0
 19 20  1  0
 20 21  2  0
 21 22  1  0
 22 23  1  0
 23 24  2  0
 24 25  1  0
 25 26  2  0
 26 27  1  0
 27 28  2  0
 22 29  2  0
 29 30  1  0
 30 31  2  0
 31  2  1  0
 18  5  1  0
 31 20  1  0
 17 12  1  0
 28 23  1  0
  3 32  1  0
  3 33  1  0
  6 34  1  0
  7 35  1  0
  8 36  1  0
 13 37  1  0
 13 38  1  0
 14 39  1  0
 14 40  1  0
 16 41  1  0
 16 42  1  0
 17 43  1  0
 17 44  1  0
 18 45  1  0
 21 46  1  0
 24 47  1  0
 25 48  1  0
 26 49  1  0
 27 50  1  0
 28 51  1  0
 29 52  1  0
 30 53  1  0
M  END
>  <smiles>  (47) 
O=C1CC(c2cccc(C(=O)N3CCOCC3)c2)=Nc2cc(-c3ccccc3)ccc21

>  <score_type>  (47) 
oracle

>  <origin>  (47) 
autodockgpu

>  <m_score__min__energy>  (47) 
-9.7200000000000006

>  <m_primary>  (47) 
energy

>  <rmsd>  (47) 
7.280020330835362

>  <m_score__min__rmsd>  (47) 
7.280020330835362

>  <meeko>  (47) 
{"free_energy": -9.71, "intermolecular_energy": -10.61, "internal_energy": -1.02, "cluster_size": 50, "cluster_id": 1, "rank_in_cluster": 2}

>  <energy>  (47) 
-9.53

>  <cluster_rmsd>  (47) 
1.05

>  <cluster>  (47) 
1

$$$$

     RDKit          3D

 53 57  0  0  0  0  0  0  0  0999 V2000
  137.2310   72.2270  220.7820 O   0  0  0  0  0  0  0  0  0  0  0  0
  138.3320   72.5640  221.2870 C   0  0  0  0  0  0  0  0  0  0  0  0
  139.1310   73.6010  220.5930 C   0  0  0  0  0  0  0  0  0  0  0  0
  140.3850   73.8440  221.3430 C   0  0  0  0  0  0  0  0  0  0  0  0
  141.3200   74.8520  220.7950 C   0  0  0  0  0  0  0  0  0  0  0  0
  142.5300   74.4710  220.2340 C   0  0  0  0  0  0  0  0  0  0  0  0
  143.4000   75.4200  219.7240 C   0  0  0  0  0  0  0  0  0  0  0  0
  143.0670   76.7680  219.7710 C   0  0  0  0  0  0  0  0  0  0  0  0
  141.8680   77.1750  220.3250 C   0  0  0  0  0  0  0  0  0  0  0  0
  141.4570   78.5660  220.4050 C   0  0  0  0  0  0  0  0  0  0  0  0
  140.7730   79.0370  219.4630 O   0  0  0  0  0  0  0  0  0  0  0  0
  141.7770   79.4300  221.4820 N   0  0  0  0  0  0  0  0  0  0  0  0
  141.3090   80.8160  221.4610 C   0  0  0  0  0  0  0  0  0  0  0  0
  140.5020   80.9470  222.7650 C   0  0  0  0  0  0  0  0  0  0  0  0
  141.2880   80.5840  223.8480 O   0  0  0  0  0  0  0  0  0  0  0  0
  141.5820   79.2110  223.8190 C   0  0  0  0  0  0  0  0  0  0  0  0
  142.5540   79.0410  222.6420 C   0  0  0  0  0  0  0  0  0  0  0  0
  141.0290   76.2010  220.8220 C   0  0  0  0  0  0  0  0  0  0  0  0
  140.7150   73.2410  222.4320 N   0  0  0  0  0  0  0  0  0  0  0  0
  139.9490   72.2580  223.0860 C   0  0  0  0  0  0  0  0  0  0  0  0
  140.3880   71.6640  224.2550 C   0  0  0  0  0  0  0  0  0  0  0  0
  139.6030   70.6930  224.8720 C   0  0  0  0  0  0  0  0  0  0  0  0
  140.1070   70.0910  226.1000 C   0  0  0  0  0  0  0  0  0  0  0  0
  140.1120   68.7000  226.1780 C   0  0  0  0  0  0  0  0  0  0  0  0
  140.5780   68.0770  227.3170 C   0  0  0  0  0  0  0  0  0  0  0  0
  141.0290   68.8560  228.3510 C   0  0  0  0  0  0  0  0  0  0  0  0
  141.0290   70.2150  228.2870 C   0  0  0  0  0  0  0  0  0  0  0  0
  140.5650   70.8780  227.1560 C   0  0  0  0  0  0  0  0  0  0  0  0
  138.3880   70.3350  224.3090 C   0  0  0  0  0  0  0  0  0  0  0  0
  137.9680   70.9400  223.1430 C   0  0  0  0  0  0  0  0  0  0  0  0
  138.7390   71.9050  222.5170 C   0  0  0  0  0  0  0  0  0  0  0  0
  139.3728   73.2578  219.5762 H   0  0  0  0  0  0  0  0  0  0  0  0
  138.5509   74.5340  220.5375 H   0  0  0  0  0  0  0  0  0  0  0  0
  142.8009   73.4056  220.1939 H   0  0  0  0  0  0  0  0  0  0  0  0
  144.3565   75.1060  219.2808 H   0  0  0  0  0  0  0  0  0  0  0  0
  143.7627   77.5168  219.3643 H   0  0  0  0  0  0  0  0  0  0  0  0
  142.1571   81.5165  221.4522 H   0  0  0  0  0  0  0  0  0  0  0  0
  140.7150   81.0524  220.5659 H   0  0  0  0  0  0  0  0  0  0  0  0
  140.1733   81.9897  222.8867 H   0  0  0  0  0  0  0  0  0  0  0  0
  139.6264   80.2830  222.7158 H   0  0  0  0  0  0  0  0  0  0  0  0
  142.0555   78.8964  224.7607 H   0  0  0  0  0  0  0  0  0  0  0  0
  140.6777   78.5958  223.7020 H   0  0  0  0  0  0  0  0  0  0  0  0
  143.4304   79.6948  222.7619 H   0  0  0  0  0  0  0  0  0  0  0  0
  142.9458   78.0162  222.5630 H   0  0  0  0  0  0  0  0  0  0  0  0
  140.0731   76.5167  221.2654 H   0  0  0  0  0  0  0  0  0  0  0  0
  141.3525   71.9569  224.6955 H   0  0  0  0  0  0  0  0  0  0  0  0
  139.7449   68.0995  225.3326 H   0  0  0  0  0  0  0  0  0  0  0  0
  140.5875   66.9797  227.3939 H   0  0  0  0  0  0  0  0  0  0  0  0
  141.4031   68.3663  229.2622 H   0  0  0  0  0  0  0  0  0  0  0  0
  141.4015   70.7979  229.1423 H   0  0  0  0  0  0  0  0  0  0  0  0
  140.5595   71.9764  227.0970 H   0  0  0  0  0  0  0  0  0  0  0  0
  137.7607   69.5706  224.7908 H   0  0  0  0  0  0  0  0  0  0  0  0
  137.0027   70.6506  222.7021 H   0  0  0  0  0  0  0  0  0  0  0  0
  1  2  2  0
  2  3  1  0
  3  4  1  0
  4  5  1  0
  5  6  2  0
  6  7  1  0
  7  8  2  0
  8  9  1  0
  9 10  1  0
 10 11  2  0
 10 12  1  0
 12 13  1  0
 13 14  1  0
 14 15  1  0
 15 16  1  0
 16 17  1  0
  9 18  2  0
  4 19  2  0
 19 20  1  0
 20 21  2  0
 21 22  1  0
 22 23  1  0
 23 24  2  0
 24 25  1  0
 25 26  2  0
 26 27  1  0
 27 28  2  0
 22 29  2  0
 29 30  1  0
 30 31  2  0
 31  2  1  0
 18  5  1  0
 31 20  1  0
 17 12  1  0
 28 23  1  0
  3 32  1  0
  3 33  1  0
  6 34  1  0
  7 35  1  0
  8 36  1  0
 13 37  1  0
 13 38  1  0
 14 39  1  0
 14 40  1  0
 16 41  1  0
 16 42  1  0
 17 43  1  0
 17 44  1  0
 18 45  1  0
 21 46  1  0
 24 47  1  0
 25 48  1  0
 26 49  1  0
 27 50  1  0
 28 51  1  0
 29 52  1  0
 30 53  1  0
M  END
>  <smiles>  (48) 
O=C1CC(c2cccc(C(=O)N3CCOCC3)c2)=Nc2cc(-c3ccccc3)ccc21

>  <score_type>  (48) 
oracle

>  <origin>  (48) 
autodockgpu

>  <m_score__min__energy>  (48) 
-9.7200000000000006

>  <m_primary>  (48) 
energy

>  <rmsd>  (48) 
7.281877508677392

>  <m_score__min__rmsd>  (48) 
7.281877508677392

>  <meeko>  (48) 
{"free_energy": -9.7, "intermolecular_energy": -10.6, "internal_energy": -1.02, "cluster_size": 50, "cluster_id": 1, "rank_in_cluster": 10}

>  <energy>  (48) 
-9.51

>  <cluster_rmsd>  (48) 
1.02

>  <cluster>  (48) 
1

$$$$

     RDKit          3D

 53 57  0  0  0  0  0  0  0  0999 V2000
  137.1940   72.3190  220.8200 O   0  0  0  0  0  0  0  0  0  0  0  0
  138.3080   72.6330  221.3080 C   0  0  0  0  0  0  0  0  0  0  0  0
  139.1080   73.6690  220.6140 C   0  0  0  0  0  0  0  0  0  0  0  0
  140.3800   73.8830  221.3430 C   0  0  0  0  0  0  0  0  0  0  0  0
  141.3190   74.8860  220.7920 C   0  0  0  0  0  0  0  0  0  0  0  0
  142.5280   74.4980  220.2320 C   0  0  0  0  0  0  0  0  0  0  0  0
  143.4020   75.4420  219.7190 C   0  0  0  0  0  0  0  0  0  0  0  0
  143.0730   76.7920  219.7610 C   0  0  0  0  0  0  0  0  0  0  0  0
  141.8750   77.2050  220.3120 C   0  0  0  0  0  0  0  0  0  0  0  0
  141.4690   78.5980  220.3860 C   0  0  0  0  0  0  0  0  0  0  0  0
  140.7930   79.0690  219.4390 O   0  0  0  0  0  0  0  0  0  0  0  0
  141.7860   79.4630  221.4630 N   0  0  0  0  0  0  0  0  0  0  0  0
  141.3240   80.8510  221.4350 C   0  0  0  0  0  0  0  0  0  0  0  0
  140.5090   80.9880  222.7340 C   0  0  0  0  0  0  0  0  0  0  0  0
  141.2870   80.6250  223.8230 O   0  0  0  0  0  0  0  0  0  0  0  0
  141.5760   79.2500  223.7990 C   0  0  0  0  0  0  0  0  0  0  0  0
  142.5540   79.0740  222.6290 C   0  0  0  0  0  0  0  0  0  0  0  0
  141.0330   76.2360  220.8130 C   0  0  0  0  0  0  0  0  0  0  0  0
  140.7220   73.2600  222.4170 N   0  0  0  0  0  0  0  0  0  0  0  0
  139.9540   72.2790  223.0720 C   0  0  0  0  0  0  0  0  0  0  0  0
  140.4070   71.6610  224.2230 C   0  0  0  0  0  0  0  0  0  0  0  0
  139.6210   70.6940  224.8410 C   0  0  0  0  0  0  0  0  0  0  0  0
  140.1390   70.0670  226.0510 C   0  0  0  0  0  0  0  0  0  0  0  0
  140.1510   68.6740  226.0980 C   0  0  0  0  0  0  0  0  0  0  0  0
  140.6310   68.0280  227.2180 C   0  0  0  0  0  0  0  0  0  0  0  0
  141.0890   68.7870  228.2650 C   0  0  0  0  0  0  0  0  0  0  0  0
  141.0820   70.1470  228.2310 C   0  0  0  0  0  0  0  0  0  0  0  0
  140.6040   70.8320  227.1190 C   0  0  0  0  0  0  0  0  0  0  0  0
  138.3900   70.3610  224.2970 C   0  0  0  0  0  0  0  0  0  0  0  0
  137.9570   70.9880  223.1480 C   0  0  0  0  0  0  0  0  0  0  0  0
  138.7290   71.9520  222.5210 C   0  0  0  0  0  0  0  0  0  0  0  0
  139.3250   73.3379  219.5877 H   0  0  0  0  0  0  0  0  0  0  0  0
  138.5404   74.6107  220.5838 H   0  0  0  0  0  0  0  0  0  0  0  0
  142.7945   73.4314  220.1952 H   0  0  0  0  0  0  0  0  0  0  0  0
  144.3578   75.1231  219.2777 H   0  0  0  0  0  0  0  0  0  0  0  0
  143.7716   77.5371  219.3525 H   0  0  0  0  0  0  0  0  0  0  0  0
  142.1749   81.5481  221.4300 H   0  0  0  0  0  0  0  0  0  0  0  0
  140.7370   81.0879  220.5354 H   0  0  0  0  0  0  0  0  0  0  0  0
  140.1831   82.0321  222.8511 H   0  0  0  0  0  0  0  0  0  0  0  0
  139.6315   80.3268  222.6809 H   0  0  0  0  0  0  0  0  0  0  0  0
  142.0425   78.9357  224.7443 H   0  0  0  0  0  0  0  0  0  0  0  0
  140.6701   78.6378  223.6780 H   0  0  0  0  0  0  0  0  0  0  0  0
  143.4320   79.7250  222.7530 H   0  0  0  0  0  0  0  0  0  0  0  0
  142.9424   78.0475  222.5549 H   0  0  0  0  0  0  0  0  0  0  0  0
  140.0782   76.5569  221.2550 H   0  0  0  0  0  0  0  0  0  0  0  0
  141.3845   71.9328  224.6480 H   0  0  0  0  0  0  0  0  0  0  0  0
  139.7782   68.0908  225.2431 H   0  0  0  0  0  0  0  0  0  0  0  0
  140.6462   66.9294  227.2706 H   0  0  0  0  0  0  0  0  0  0  0  0
  141.4746   68.2793  229.1614 H   0  0  0  0  0  0  0  0  0  0  0  0
  141.4598   70.7129  229.0953 H   0  0  0  0  0  0  0  0  0  0  0  0
  140.5934   71.9314  227.0840 H   0  0  0  0  0  0  0  0  0  0  0  0
  137.7609   69.5991  224.7805 H   0  0  0  0  0  0  0  0  0  0  0  0
  136.9799   70.7175  222.7211 H   0  0  0  0  0  0  0  0  0  0  0  0
  1  2  2  0
  2  3  1  0
  3  4  1  0
  4  5  1  0
  5  6  2  0
  6  7  1  0
  7  8  2  0
  8  9  1  0
  9 10  1  0
 10 11  2  0
 10 12  1  0
 12 13  1  0
 13 14  1  0
 14 15  1  0
 15 16  1  0
 16 17  1  0
  9 18  2  0
  4 19  2  0
 19 20  1  0
 20 21  2  0
 21 22  1  0
 22 23  1  0
 23 24  2  0
 24 25  1  0
 25 26  2  0
 26 27  1  0
 27 28  2  0
 22 29  2  0
 29 30  1  0
 30 31  2  0
 31  2  1  0
 18  5  1  0
 31 20  1  0
 17 12  1  0
 28 23  1  0
  3 32  1  0
  3 33  1  0
  6 34  1  0
  7 35  1  0
  8 36  1  0
 13 37  1  0
 13 38  1  0
 14 39  1  0
 14 40  1  0
 16 41  1  0
 16 42  1  0
 17 43  1  0
 17 44  1  0
 18 45  1  0
 21 46  1  0
 24 47  1  0
 25 48  1  0
 26 49  1  0
 27 50  1  0
 28 51  1  0
 29 52  1  0
 30 53  1  0
M  END
>  <smiles>  (49) 
O=C1CC(c2cccc(C(=O)N3CCOCC3)c2)=Nc2cc(-c3ccccc3)ccc21

>  <score_type>  (49) 
oracle

>  <origin>  (49) 
autodockgpu

>  <m_score__min__energy>  (49) 
-9.7200000000000006

>  <m_primary>  (49) 
energy

>  <rmsd>  (49) 
7.311265041380561

>  <m_score__min__rmsd>  (49) 
7.311265041380561

>  <meeko>  (49) 
{"free_energy": -9.7, "intermolecular_energy": -10.59, "internal_energy": -1.02, "cluster_size": 50, "cluster_id": 1, "rank_in_cluster": 19}

>  <energy>  (49) 
-9.44

>  <cluster_rmsd>  (49) 
1.03

>  <cluster>  (49) 
1

$$$$

     RDKit          3D

 53 57  0  0  0  0  0  0  0  0999 V2000
  137.1380   72.4190  220.8440 O   0  0  0  0  0  0  0  0  0  0  0  0
  138.2670   72.6960  221.3220 C   0  0  0  0  0  0  0  0  0  0  0  0
  139.0830   73.7260  220.6360 C   0  0  0  0  0  0  0  0  0  0  0  0
  140.3700   73.8940  221.3500 C   0  0  0  0  0  0  0  0  0  0  0  0
  141.3250   74.8840  220.8040 C   0  0  0  0  0  0  0  0  0  0  0  0
  142.5320   74.4800  220.2510 C   0  0  0  0  0  0  0  0  0  0  0  0
  143.4220   75.4120  219.7430 C   0  0  0  0  0  0  0  0  0  0  0  0
  143.1110   76.7660  219.7840 C   0  0  0  0  0  0  0  0  0  0  0  0
  141.9160   77.1950  220.3290 C   0  0  0  0  0  0  0  0  0  0  0  0
  141.5290   78.5940  220.4020 C   0  0  0  0  0  0  0  0  0  0  0  0
  140.8950   79.0840  219.4360 O   0  0  0  0  0  0  0  0  0  0  0  0
  141.8200   79.4440  221.4980 N   0  0  0  0  0  0  0  0  0  0  0  0
  141.3790   80.8390  221.4680 C   0  0  0  0  0  0  0  0  0  0  0  0
  140.5210   80.9760  222.7370 C   0  0  0  0  0  0  0  0  0  0  0  0
  141.2530   80.5910  223.8500 O   0  0  0  0  0  0  0  0  0  0  0  0
  141.5210   79.2130  223.8230 C   0  0  0  0  0  0  0  0  0  0  0  0
  142.5390   79.0320  222.6880 C   0  0  0  0  0  0  0  0  0  0  0  0
  141.0580   76.2380  220.8250 C   0  0  0  0  0  0  0  0  0  0  0  0
  140.7120   73.2410  222.4070 N   0  0  0  0  0  0  0  0  0  0  0  0
  139.9300   72.2670  223.0530 C   0  0  0  0  0  0  0  0  0  0  0  0
  140.3840   71.6160  224.1860 C   0  0  0  0  0  0  0  0  0  0  0  0
  139.5820   70.6550  224.7970 C   0  0  0  0  0  0  0  0  0  0  0  0
  140.1010   69.9920  225.9860 C   0  0  0  0  0  0  0  0  0  0  0  0
  140.5260   70.8010  227.0390 C   0  0  0  0  0  0  0  0  0  0  0  0
  141.0250   70.2270  228.1890 C   0  0  0  0  0  0  0  0  0  0  0  0
  141.0890   68.8590  228.2630 C   0  0  0  0  0  0  0  0  0  0  0  0
  140.6780   68.0590  227.2420 C   0  0  0  0  0  0  0  0  0  0  0  0
  140.1710   68.6030  226.0680 C   0  0  0  0  0  0  0  0  0  0  0  0
  138.3360   70.3640  224.2640 C   0  0  0  0  0  0  0  0  0  0  0  0
  137.9020   71.0240  223.1340 C   0  0  0  0  0  0  0  0  0  0  0  0
  138.6890   71.9800  222.5150 C   0  0  0  0  0  0  0  0  0  0  0  0
  139.2770   73.4100  219.6004 H   0  0  0  0  0  0  0  0  0  0  0  0
  138.5387   74.6819  220.6324 H   0  0  0  0  0  0  0  0  0  0  0  0
  142.7843   73.4099  220.2158 H   0  0  0  0  0  0  0  0  0  0  0  0
  144.3757   75.0802  219.3068 H   0  0  0  0  0  0  0  0  0  0  0  0
  143.8217   77.5017  219.3795 H   0  0  0  0  0  0  0  0  0  0  0  0
  142.2395   81.5235  221.5003 H   0  0  0  0  0  0  0  0  0  0  0  0
  140.8277   81.0927  220.5506 H   0  0  0  0  0  0  0  0  0  0  0  0
  140.2068   82.0238  222.8526 H   0  0  0  0  0  0  0  0  0  0  0  0
  139.6365   80.3284  222.6457 H   0  0  0  0  0  0  0  0  0  0  0  0
  141.9471   78.8825  224.7817 H   0  0  0  0  0  0  0  0  0  0  0  0
  140.6107   78.6167  223.6625 H   0  0  0  0  0  0  0  0  0  0  0  0
  143.4218   79.6678  222.8504 H   0  0  0  0  0  0  0  0  0  0  0  0
  142.9141   78.0003  222.6183 H   0  0  0  0  0  0  0  0  0  0  0  0
  140.1058   76.5721  221.2628 H   0  0  0  0  0  0  0  0  0  0  0  0
  141.3735   71.8561  224.6023 H   0  0  0  0  0  0  0  0  0  0  0  0
  140.4633   71.8958  226.9524 H   0  0  0  0  0  0  0  0  0  0  0  0
  141.3641   70.8521  229.0282 H   0  0  0  0  0  0  0  0  0  0  0  0
  141.4855   68.3935  229.1774 H   0  0  0  0  0  0  0  0  0  0  0  0
  140.7480   66.9663  227.3473 H   0  0  0  0  0  0  0  0  0  0  0  0
  139.8386   67.9630  225.2374 H   0  0  0  0  0  0  0  0  0  0  0  0
  137.6950   69.6083  224.7415 H   0  0  0  0  0  0  0  0  0  0  0  0
  136.9123   70.7866  222.7167 H   0  0  0  0  0  0  0  0  0  0  0  0
  1  2  2  0
  2  3  1  0
  3  4  1  0
  4  5  1  0
  5  6  2  0
  6  7  1  0
  7  8  2  0
  8  9  1  0
  9 10  1  0
 10 11  2  0
 10 12  1  0
 12 13  1  0
 13 14  1  0
 14 15  1  0
 15 16  1  0
 16 17  1  0
  9 18  2  0
  4 19  2  0
 19 20  1  0
 20 21  2  0
 21 22  1  0
 22 23  1  0
 23 24  2  0
 24 25  1  0
 25 26  2  0
 26 27  1  0
 27 28  2  0
 22 29  2  0
 29 30  1  0
 30 31  2  0
 31  2  1  0
 18  5  1  0
 31 20  1  0
 17 12  1  0
 28 23  1  0
  3 32  1  0
  3 33  1  0
  6 34  1  0
  7 35  1  0
  8 36  1  0
 13 37  1  0
 13 38  1  0
 14 39  1  0
 14 40  1  0
 16 41  1  0
 16 42  1  0
 17 43  1  0
 17 44  1  0
 18 45  1  0
 21 46  1  0
 24 47  1  0
 25 48  1  0
 26 49  1  0
 27 50  1  0
 28 51  1  0
 29 52  1  0
 30 53  1  0
M  END
>  <smiles>  (50) 
O=C1CC(c2cccc(C(=O)N3CCOCC3)c2)=Nc2cc(-c3ccccc3)ccc21

>  <score_type>  (50) 
oracle

>  <origin>  (50) 
autodockgpu

>  <m_score__min__energy>  (50) 
-9.7200000000000006

>  <m_primary>  (50) 
energy

>  <rmsd>  (50) 
7.328740321754123

>  <m_score__min__rmsd>  (50) 
7.328740321754123

>  <meeko>  (50) 
{"free_energy": -9.7, "intermolecular_energy": -10.59, "internal_energy": -1.02, "cluster_size": 50, "cluster_id": 1, "rank_in_cluster": 16}

>  <energy>  (50) 
-9.43

>  <cluster_rmsd>  (50) 
1.04

>  <cluster>  (50) 
1

$$$$
