
     RDKit          3D

 56 59  0  0  0  0  0  0  0  0999 V2000
  142.8450   72.3800  218.7430 C   0  0  0  0  0  0  0  0  0  0  0  0
  142.1500   73.5030  219.3590 N   0  0  0  0  0  0  0  0  0  0  0  0
  142.7180   74.3440  220.3760 C   0  0  0  0  0  0  0  0  0  0  0  0
  143.5270   75.4430  219.7490 C   0  0  0  0  0  0  0  0  0  0  0  0
  142.9560   76.7160  220.0560 N   0  0  0  0  0  0  0  0  0  0  0  0
  142.0090   77.2500  219.1160 C   0  0  0  0  0  0  0  0  0  0  0  0
  141.7670   76.5440  218.0990 O   0  0  0  0  0  0  0  0  0  0  0  0
  141.3770   78.5470  219.3520 C   0  0  0  0  0  0  0  0  0  0  0  0
  142.1850   79.6620  219.2670 C   0  0  0  0  0  0  0  0  0  0  0  0
  141.6440   80.9070  219.4790 C   0  0  0  0  0  0  0  0  0  0  0  0
  140.3020   81.0510  219.7760 C   0  0  0  0  0  0  0  0  0  0  0  0
  139.6910   82.2540  220.0000 C   0  0  0  0  0  0  0  0  0  0  0  0
  138.3420   82.3230  220.2920 C   0  0  0  0  0  0  0  0  0  0  0  0
  137.5780   81.1680  220.3650 C   0  0  0  0  0  0  0  0  0  0  0  0
  138.1810   79.9500  220.1420 C   0  0  0  0  0  0  0  0  0  0  0  0
  139.5370   79.8970  219.8480 C   0  0  0  0  0  0  0  0  0  0  0  0
  140.0660   78.6770  219.6410 N   0  0  0  0  0  0  0  0  0  0  0  0
  140.8240   73.7420  218.9010 C   0  0  0  0  0  0  0  0  0  0  0  0
  140.6050   73.5270  217.6810 O   0  0  0  0  0  0  0  0  0  0  0  0
  139.7160   74.2090  219.7330 C   0  0  0  0  0  0  0  0  0  0  0  0
  139.9500   75.5830  220.2000 N   0  0  0  0  0  0  0  0  0  0  0  0
  140.0010   75.7360  221.6250 C   0  0  0  0  0  0  0  0  0  0  0  0
  139.8440   74.7100  222.3370 O   0  0  0  0  0  0  0  0  0  0  0  0
  140.2290   77.0610  222.1930 C   0  0  0  0  0  0  0  0  0  0  0  0
  139.1350   77.7390  222.6880 C   0  0  0  0  0  0  0  0  0  0  0  0
  139.2310   78.9980  223.2480 C   0  0  0  0  0  0  0  0  0  0  0  0
  140.5010   79.5650  223.2930 C   0  0  0  0  0  0  0  0  0  0  0  0
  140.6380   80.8230  223.8460 C   0  0  0  0  0  0  0  0  0  0  0  0
  141.9060   81.3580  223.8780 C   0  0  0  0  0  0  0  0  0  0  0  0
  143.0210   80.7020  223.3900 C   0  0  0  0  0  0  0  0  0  0  0  0
  142.8750   79.4310  222.8320 C   0  0  0  0  0  0  0  0  0  0  0  0
  141.6100   78.8810  222.7930 C   0  0  0  0  0  0  0  0  0  0  0  0
  141.4420   77.6380  222.2530 N   0  0  0  0  0  0  0  0  0  0  0  0
  143.2506   71.7247  219.5279 H   0  0  0  0  0  0  0  0  0  0  0  0
  142.1408   71.8112  218.1181 H   0  0  0  0  0  0  0  0  0  0  0  0
  143.6682   72.7565  218.1181 H   0  0  0  0  0  0  0  0  0  0  0  0
  141.9087   74.7857  220.9759 H   0  0  0  0  0  0  0  0  0  0  0  0
  143.3737   73.7375  221.0180 H   0  0  0  0  0  0  0  0  0  0  0  0
  144.5554   75.4034  220.1373 H   0  0  0  0  0  0  0  0  0  0  0  0
  143.5308   75.3064  218.6575 H   0  0  0  0  0  0  0  0  0  0  0  0
  143.1410   77.3000  220.8820 H   0  0  0  0  0  0  0  0  0  0  0  0
  143.2541   79.5551  219.0313 H   0  0  0  0  0  0  0  0  0  0  0  0
  142.2854   81.7981  219.4117 H   0  0  0  0  0  0  0  0  0  0  0  0
  140.2820   83.1802  219.9469 H   0  0  0  0  0  0  0  0  0  0  0  0
  137.8708   83.3013  220.4678 H   0  0  0  0  0  0  0  0  0  0  0  0
  136.5044   81.2239  220.5980 H   0  0  0  0  0  0  0  0  0  0  0  0
  137.5910   79.0232  220.1966 H   0  0  0  0  0  0  0  0  0  0  0  0
  138.7877   74.1827  219.1435 H   0  0  0  0  0  0  0  0  0  0  0  0
  139.6346   73.5501  220.6100 H   0  0  0  0  0  0  0  0  0  0  0  0
  140.0700   76.3710  219.5520 H   0  0  0  0  0  0  0  0  0  0  0  0
  138.1470   77.2583  222.6348 H   0  0  0  0  0  0  0  0  0  0  0  0
  138.3484   79.5256  223.6386 H   0  0  0  0  0  0  0  0  0  0  0  0
  139.7723   81.3732  224.2433 H   0  0  0  0  0  0  0  0  0  0  0  0
  142.0390   82.3590  224.3143 H   0  0  0  0  0  0  0  0  0  0  0  0
  144.0121   81.1765  223.4409 H   0  0  0  0  0  0  0  0  0  0  0  0
  143.7428   78.8838  222.4350 H   0  0  0  0  0  0  0  0  0  0  0  0
  1  2  1  0
  2  3  1  0
  3  4  1  0
  4  5  1  0
  5  6  1  0
  6  7  2  0
  6  8  1  0
  8  9  2  0
  9 10  1  0
 10 11  2  0
 11 12  1  0
 12 13  2  0
 13 14  1  0
 14 15  2  0
 15 16  1  0
 16 17  2  0
  2 18  1  0
 18 19  2  0
 18 20  1  0
 20 21  1  0
 21 22  1  0
 22 23  2  0
 22 24  1  0
 24 25  2  0
 25 26  1  0
 26 27  2  0
 27 28  1  0
 28 29  2  0
 29 30  1  0
 30 31  2  0
 31 32  1  0
 32 33  2  0
 17  8  1  0
 33 24  1  0
 16 11  1  0
 32 27  1  0
  1 34  1  0
  1 35  1  0
  1 36  1  0
  3 37  1  0
  3 38  1  0
  4 39  1  0
  4 40  1  0
  5 41  1  0
  9 42  1  0
 10 43  1  0
 12 44  1  0
 13 45  1  0
 14 46  1  0
 15 47  1  0
 20 48  1  0
 20 49  1  0
 21 50  1  0
 25 51  1  0
 26 52  1  0
 28 53  1  0
 29 54  1  0
 30 55  1  0
 31 56  1  0
M  END
>  <smiles>  (1) 
CN(CCNC(=O)c1ccc2ccccc2n1)C(=O)CNC(=O)c1ccc2ccccc2n1

>  <score_type>  (1) 
oracle

>  <origin>  (1) 
autodockgpu

>  <m_score__min__energy>  (1) 
-9.2200000000000006

>  <m_primary>  (1) 
energy

>  <rmsd>  (1) 
6.701630839576884

>  <m_score__min__rmsd>  (1) 
6.701630839576884

>  <meeko>  (1) 
{"free_energy": -5.76, "intermolecular_energy": -8.15, "internal_energy": -5.43, "cluster_size": 22, "cluster_id": 4, "rank_in_cluster": 22}

>  <energy>  (1) 
-9.22

>  <cluster_rmsd>  (1) 
0.0

>  <cluster>  (1) 
1

$$$$

     RDKit          3D

 56 59  0  0  0  0  0  0  0  0999 V2000
  142.5390   73.0570  220.7780 C   0  0  0  0  0  0  0  0  0  0  0  0
  142.2190   73.7570  219.5400 N   0  0  0  0  0  0  0  0  0  0  0  0
  143.1530   74.5630  218.8050 C   0  0  0  0  0  0  0  0  0  0  0  0
  143.8400   75.5320  219.7240 C   0  0  0  0  0  0  0  0  0  0  0  0
  142.9470   76.5850  220.0910 N   0  0  0  0  0  0  0  0  0  0  0  0
  142.5720   77.5110  219.0580 C   0  0  0  0  0  0  0  0  0  0  0  0
  143.0670   77.3100  217.9160 O   0  0  0  0  0  0  0  0  0  0  0  0
  141.6630   78.6190  219.3470 C   0  0  0  0  0  0  0  0  0  0  0  0
  142.2210   79.8770  219.4450 C   0  0  0  0  0  0  0  0  0  0  0  0
  141.4130   80.9560  219.7150 C   0  0  0  0  0  0  0  0  0  0  0  0
  140.0530   80.7920  219.8880 C   0  0  0  0  0  0  0  0  0  0  0  0
  139.1850   81.8150  220.1580 C   0  0  0  0  0  0  0  0  0  0  0  0
  137.8330   81.5760  220.3190 C   0  0  0  0  0  0  0  0  0  0  0  0
  137.3280   80.2900  220.2090 C   0  0  0  0  0  0  0  0  0  0  0  0
  138.1900   79.2500  219.9370 C   0  0  0  0  0  0  0  0  0  0  0  0
  139.5460   79.5060  219.7770 C   0  0  0  0  0  0  0  0  0  0  0  0
  140.3360   78.4490  219.5140 N   0  0  0  0  0  0  0  0  0  0  0  0
  140.8830   73.6130  219.0720 C   0  0  0  0  0  0  0  0  0  0  0  0
  140.7330   72.9880  217.9900 O   0  0  0  0  0  0  0  0  0  0  0  0
  139.6930   74.1300  219.7460 C   0  0  0  0  0  0  0  0  0  0  0  0
  139.9050   75.5090  220.2060 N   0  0  0  0  0  0  0  0  0  0  0  0
  140.0020   75.6630  221.6280 C   0  0  0  0  0  0  0  0  0  0  0  0
  139.8990   74.6320  222.3450 O   0  0  0  0  0  0  0  0  0  0  0  0
  140.2130   76.9930  222.1910 C   0  0  0  0  0  0  0  0  0  0  0  0
  139.1110   77.6590  222.6840 C   0  0  0  0  0  0  0  0  0  0  0  0
  139.1910   78.9220  223.2390 C   0  0  0  0  0  0  0  0  0  0  0  0
  140.4550   79.5060  223.2800 C   0  0  0  0  0  0  0  0  0  0  0  0
  140.5760   80.7680  223.8270 C   0  0  0  0  0  0  0  0  0  0  0  0
  141.8370   81.3190  223.8540 C   0  0  0  0  0  0  0  0  0  0  0  0
  142.9590   80.6760  223.3670 C   0  0  0  0  0  0  0  0  0  0  0  0
  142.8290   79.4000  222.8160 C   0  0  0  0  0  0  0  0  0  0  0  0
  141.5710   78.8340  222.7810 C   0  0  0  0  0  0  0  0  0  0  0  0
  141.4190   77.5870  222.2470 N   0  0  0  0  0  0  0  0  0  0  0  0
  142.2533   73.6819  221.6370 H   0  0  0  0  0  0  0  0  0  0  0  0
  141.9857   72.1070  220.8156 H   0  0  0  0  0  0  0  0  0  0  0  0
  143.6194   72.8538  220.8156 H   0  0  0  0  0  0  0  0  0  0  0  0
  143.9052   73.9111  218.3367 H   0  0  0  0  0  0  0  0  0  0  0  0
  142.6095   75.1262  218.0321 H   0  0  0  0  0  0  0  0  0  0  0  0
  144.1683   75.0021  220.6303 H   0  0  0  0  0  0  0  0  0  0  0  0
  144.7083   75.9637  219.2047 H   0  0  0  0  0  0  0  0  0  0  0  0
  142.5330   76.7580  221.0160 H   0  0  0  0  0  0  0  0  0  0  0  0
  143.3036   80.0155  219.3082 H   0  0  0  0  0  0  0  0  0  0  0  0
  141.8545   81.9604  219.7940 H   0  0  0  0  0  0  0  0  0  0  0  0
  139.5686   82.8420  220.2482 H   0  0  0  0  0  0  0  0  0  0  0  0
  137.1528   82.4128  220.5361 H   0  0  0  0  0  0  0  0  0  0  0  0
  136.2518   80.1018  220.3373 H   0  0  0  0  0  0  0  0  0  0  0  0
  137.8066   78.2229  219.8471 H   0  0  0  0  0  0  0  0  0  0  0  0
  138.8458   74.1111  219.0447 H   0  0  0  0  0  0  0  0  0  0  0  0
  139.4835   73.4973  220.6211 H   0  0  0  0  0  0  0  0  0  0  0  0
  139.9800   76.3010  219.5560 H   0  0  0  0  0  0  0  0  0  0  0  0
  138.1292   77.1654  222.6336 H   0  0  0  0  0  0  0  0  0  0  0  0
  138.3020   79.4397  223.6285 H   0  0  0  0  0  0  0  0  0  0  0  0
  139.7039   81.3087  224.2233 H   0  0  0  0  0  0  0  0  0  0  0  0
  141.9579   82.3235  224.2857 H   0  0  0  0  0  0  0  0  0  0  0  0
  143.9437   81.1642  223.4130 H   0  0  0  0  0  0  0  0  0  0  0  0
  143.7034   78.8617  222.4214 H   0  0  0  0  0  0  0  0  0  0  0  0
  1  2  1  0
  2  3  1  0
  3  4  1  0
  4  5  1  0
  5  6  1  0
  6  7  2  0
  6  8  1  0
  8  9  2  0
  9 10  1  0
 10 11  2  0
 11 12  1  0
 12 13  2  0
 13 14  1  0
 14 15  2  0
 15 16  1  0
 16 17  2  0
  2 18  1  0
 18 19  2  0
 18 20  1  0
 20 21  1  0
 21 22  1  0
 22 23  2  0
 22 24  1  0
 24 25  2  0
 25 26  1  0
 26 27  2  0
 27 28  1  0
 28 29  2  0
 29 30  1  0
 30 31  2  0
 31 32  1  0
 32 33  2  0
 17  8  1  0
 33 24  1  0
 16 11  1  0
 32 27  1  0
  1 34  1  0
  1 35  1  0
  1 36  1  0
  3 37  1  0
  3 38  1  0
  4 39  1  0
  4 40  1  0
  5 41  1  0
  9 42  1  0
 10 43  1  0
 12 44  1  0
 13 45  1  0
 14 46  1  0
 15 47  1  0
 20 48  1  0
 20 49  1  0
 21 50  1  0
 25 51  1  0
 26 52  1  0
 28 53  1  0
 29 54  1  0
 30 55  1  0
 31 56  1  0
M  END
>  <smiles>  (2) 
CN(CCNC(=O)c1ccc2ccccc2n1)C(=O)CNC(=O)c1ccc2ccccc2n1

>  <score_type>  (2) 
oracle

>  <origin>  (2) 
autodockgpu

>  <m_score__min__energy>  (2) 
-9.2200000000000006

>  <m_primary>  (2) 
energy

>  <rmsd>  (2) 
6.67379369656763

>  <m_score__min__rmsd>  (2) 
6.67379369656763

>  <meeko>  (2) 
{"free_energy": -5.88, "intermolecular_energy": -8.27, "internal_energy": -5.37, "cluster_size": 22, "cluster_id": 4, "rank_in_cluster": 18}

>  <energy>  (2) 
-9.2

>  <cluster_rmsd>  (2) 
0.17

>  <cluster>  (2) 
1

$$$$

     RDKit          3D

 56 59  0  0  0  0  0  0  0  0999 V2000
  140.3080   72.0520  220.0730 C   0  0  0  0  0  0  0  0  0  0  0  0
  139.9980   73.1470  220.9840 N   0  0  0  0  0  0  0  0  0  0  0  0
  138.7180   73.3400  221.6070 C   0  0  0  0  0  0  0  0  0  0  0  0
  138.0740   74.5960  221.0950 C   0  0  0  0  0  0  0  0  0  0  0  0
  138.8900   75.7300  221.3960 N   0  0  0  0  0  0  0  0  0  0  0  0
  138.3790   76.6630  222.3620 C   0  0  0  0  0  0  0  0  0  0  0  0
  137.2510   76.3960  222.8590 O   0  0  0  0  0  0  0  0  0  0  0  0
  139.1490   77.8500  222.7290 C   0  0  0  0  0  0  0  0  0  0  0  0
  138.4400   78.9320  223.2110 C   0  0  0  0  0  0  0  0  0  0  0  0
  139.1120   80.0750  223.5710 C   0  0  0  0  0  0  0  0  0  0  0  0
  140.4860   80.1500  223.4560 C   0  0  0  0  0  0  0  0  0  0  0  0
  141.2250   81.2510  223.7930 C   0  0  0  0  0  0  0  0  0  0  0  0
  142.6000   81.2560  223.6510 C   0  0  0  0  0  0  0  0  0  0  0  0
  143.2600   80.1390  223.1620 C   0  0  0  0  0  0  0  0  0  0  0  0
  142.5280   79.0240  222.8180 C   0  0  0  0  0  0  0  0  0  0  0  0
  141.1480   79.0340  222.9670 C   0  0  0  0  0  0  0  0  0  0  0  0
  140.4910   77.9140  222.6130 N   0  0  0  0  0  0  0  0  0  0  0  0
  141.0550   74.0660  221.2350 C   0  0  0  0  0  0  0  0  0  0  0  0
  141.0080   74.6880  222.3280 O   0  0  0  0  0  0  0  0  0  0  0  0
  142.1730   74.3330  220.3320 C   0  0  0  0  0  0  0  0  0  0  0  0
  142.4170   75.7770  220.2090 N   0  0  0  0  0  0  0  0  0  0  0  0
  141.4360   76.4930  219.4460 C   0  0  0  0  0  0  0  0  0  0  0  0
  140.4750   75.8430  218.9580 O   0  0  0  0  0  0  0  0  0  0  0  0
  141.5850   77.9330  219.2620 C   0  0  0  0  0  0  0  0  0  0  0  0
  142.5620   78.3670  218.3920 C   0  0  0  0  0  0  0  0  0  0  0  0
  142.7940   79.7060  218.1410 C   0  0  0  0  0  0  0  0  0  0  0  0
  141.9840   80.6160  218.8150 C   0  0  0  0  0  0  0  0  0  0  0  0
  142.1850   81.9640  218.5900 C   0  0  0  0  0  0  0  0  0  0  0  0
  141.3690   82.8390  219.2700 C   0  0  0  0  0  0  0  0  0  0  0  0
  140.3820   82.4340  220.1480 C   0  0  0  0  0  0  0  0  0  0  0  0
  140.1850   81.0700  220.3710 C   0  0  0  0  0  0  0  0  0  0  0  0
  140.9950   80.1790  219.6960 C   0  0  0  0  0  0  0  0  0  0  0  0
  140.8210   78.8400  219.8960 N   0  0  0  0  0  0  0  0  0  0  0  0
  140.5625   71.1530  220.6535 H   0  0  0  0  0  0  0  0  0  0  0  0
  139.4335   71.8437  219.4390 H   0  0  0  0  0  0  0  0  0  0  0  0
  141.1619   72.3330  219.4390 H   0  0  0  0  0  0  0  0  0  0  0  0
  138.0700   72.4809  221.3789 H   0  0  0  0  0  0  0  0  0  0  0  0
  138.8586   73.4273  222.6945 H   0  0  0  0  0  0  0  0  0  0  0  0
  137.9462   74.5200  220.0051 H   0  0  0  0  0  0  0  0  0  0  0  0
  137.0953   74.7202  221.5815 H   0  0  0  0  0  0  0  0  0  0  0  0
  139.8130   75.9570  221.0020 H   0  0  0  0  0  0  0  0  0  0  0  0
  137.3454   78.8794  223.3061 H   0  0  0  0  0  0  0  0  0  0  0  0
  138.5498   80.9391  223.9547 H   0  0  0  0  0  0  0  0  0  0  0  0
  140.7174   82.1456  224.1828 H   0  0  0  0  0  0  0  0  0  0  0  0
  143.1745   82.1523  223.9278 H   0  0  0  0  0  0  0  0  0  0  0  0
  144.3543   80.1432  223.0502 H   0  0  0  0  0  0  0  0  0  0  0  0
  143.0349   78.1295  222.4269 H   0  0  0  0  0  0  0  0  0  0  0  0
  143.0779   73.8475  220.7264 H   0  0  0  0  0  0  0  0  0  0  0  0
  141.9238   73.9336  219.3378 H   0  0  0  0  0  0  0  0  0  0  0  0
  143.2290   76.2370  220.6390 H   0  0  0  0  0  0  0  0  0  0  0  0
  143.1815   77.6179  217.8771 H   0  0  0  0  0  0  0  0  0  0  0  0
  143.5786   80.0360  217.4443 H   0  0  0  0  0  0  0  0  0  0  0  0
  142.9621   82.3218  217.8986 H   0  0  0  0  0  0  0  0  0  0  0  0
  141.5100   83.9175  219.1059 H   0  0  0  0  0  0  0  0  0  0  0  0
  139.7585   83.1779  220.6655 H   0  0  0  0  0  0  0  0  0  0  0  0
  139.4075   80.7158  221.0639 H   0  0  0  0  0  0  0  0  0  0  0  0
  1  2  1  0
  2  3  1  0
  3  4  1  0
  4  5  1  0
  5  6  1  0
  6  7  2  0
  6  8  1  0
  8  9  2  0
  9 10  1  0
 10 11  2  0
 11 12  1  0
 12 13  2  0
 13 14  1  0
 14 15  2  0
 15 16  1  0
 16 17  2  0
  2 18  1  0
 18 19  2  0
 18 20  1  0
 20 21  1  0
 21 22  1  0
 22 23  2  0
 22 24  1  0
 24 25  2  0
 25 26  1  0
 26 27  2  0
 27 28  1  0
 28 29  2  0
 29 30  1  0
 30 31  2  0
 31 32  1  0
 32 33  2  0
 17  8  1  0
 33 24  1  0
 16 11  1  0
 32 27  1  0
  1 34  1  0
  1 35  1  0
  1 36  1  0
  3 37  1  0
  3 38  1  0
  4 39  1  0
  4 40  1  0
  5 41  1  0
  9 42  1  0
 10 43  1  0
 12 44  1  0
 13 45  1  0
 14 46  1  0
 15 47  1  0
 20 48  1  0
 20 49  1  0
 21 50  1  0
 25 51  1  0
 26 52  1  0
 28 53  1  0
 29 54  1  0
 30 55  1  0
 31 56  1  0
M  END
>  <smiles>  (3) 
CN(CCNC(=O)c1ccc2ccccc2n1)C(=O)CNC(=O)c1ccc2ccccc2n1

>  <score_type>  (3) 
oracle

>  <origin>  (3) 
autodockgpu

>  <m_score__min__energy>  (3) 
-9.2200000000000006

>  <m_primary>  (3) 
energy

>  <rmsd>  (3) 
8.485471158232873

>  <m_score__min__rmsd>  (3) 
8.485471158232873

>  <meeko>  (3) 
{"free_energy": -6.47, "intermolecular_energy": -8.86, "internal_energy": -4.68, "cluster_size": 22, "cluster_id": 4, "rank_in_cluster": 3}

>  <energy>  (3) 
-9.14

>  <cluster_rmsd>  (3) 
1.92

>  <cluster>  (3) 
1

$$$$

     RDKit          3D

 56 59  0  0  0  0  0  0  0  0999 V2000
  141.9610   72.4940  221.1810 C   0  0  0  0  0  0  0  0  0  0  0  0
  142.1560   73.4470  220.0950 N   0  0  0  0  0  0  0  0  0  0  0  0
  141.1940   73.6980  219.0590 C   0  0  0  0  0  0  0  0  0  0  0  0
  139.9000   74.1730  219.6550 C   0  0  0  0  0  0  0  0  0  0  0  0
  140.0420   75.5050  220.1510 N   0  0  0  0  0  0  0  0  0  0  0  0
  140.1110   75.6670  221.5770 C   0  0  0  0  0  0  0  0  0  0  0  0
  140.0400   74.6130  222.2660 O   0  0  0  0  0  0  0  0  0  0  0  0
  140.2560   76.9950  222.1690 C   0  0  0  0  0  0  0  0  0  0  0  0
  139.1100   77.5940  222.6520 C   0  0  0  0  0  0  0  0  0  0  0  0
  139.1880   78.8430  223.2200 C   0  0  0  0  0  0  0  0  0  0  0  0
  140.3980   79.5020  223.3110 C   0  0  0  0  0  0  0  0  0  0  0  0
  140.5560   80.7450  223.8610 C   0  0  0  0  0  0  0  0  0  0  0  0
  141.8000   81.3450  223.9180 C   0  0  0  0  0  0  0  0  0  0  0  0
  142.9170   80.6960  223.4170 C   0  0  0  0  0  0  0  0  0  0  0  0
  142.7730   79.4440  222.8600 C   0  0  0  0  0  0  0  0  0  0  0  0
  141.5170   78.8540  222.8100 C   0  0  0  0  0  0  0  0  0  0  0  0
  141.4420   77.6310  222.2530 N   0  0  0  0  0  0  0  0  0  0  0  0
  143.3970   74.1450  220.0950 C   0  0  0  0  0  0  0  0  0  0  0  0
  144.3220   73.6430  220.7850 O   0  0  0  0  0  0  0  0  0  0  0  0
  143.6690   75.3800  219.3610 C   0  0  0  0  0  0  0  0  0  0  0  0
  142.8400   76.4850  219.8630 N   0  0  0  0  0  0  0  0  0  0  0  0
  142.4150   77.4220  218.8650 C   0  0  0  0  0  0  0  0  0  0  0  0
  142.7770   77.2260  217.6750 O   0  0  0  0  0  0  0  0  0  0  0  0
  141.5870   78.5580  219.2580 C   0  0  0  0  0  0  0  0  0  0  0  0
  142.2090   79.7790  219.4070 C   0  0  0  0  0  0  0  0  0  0  0  0
  141.5260   80.9220  219.7760 C   0  0  0  0  0  0  0  0  0  0  0  0
  140.1580   80.7880  219.9950 C   0  0  0  0  0  0  0  0  0  0  0  0
  139.4400   81.9080  220.3640 C   0  0  0  0  0  0  0  0  0  0  0  0
  138.0890   81.7440  220.5730 C   0  0  0  0  0  0  0  0  0  0  0  0
  137.4390   80.5330  220.4320 C   0  0  0  0  0  0  0  0  0  0  0  0
  138.1710   79.4050  220.0580 C   0  0  0  0  0  0  0  0  0  0  0  0
  139.5260   79.5530  219.8440 C   0  0  0  0  0  0  0  0  0  0  0  0
  140.2630   78.4640  219.4770 N   0  0  0  0  0  0  0  0  0  0  0  0
  142.0668   73.0112  222.1461 H   0  0  0  0  0  0  0  0  0  0  0  0
  140.9546   72.0560  221.1082 H   0  0  0  0  0  0  0  0  0  0  0  0
  142.7144   71.6959  221.1082 H   0  0  0  0  0  0  0  0  0  0  0  0
  141.5854   74.4692  218.3792 H   0  0  0  0  0  0  0  0  0  0  0  0
  141.0123   72.7652  218.5051 H   0  0  0  0  0  0  0  0  0  0  0  0
  139.1166   74.1549  218.8830 H   0  0  0  0  0  0  0  0  0  0  0  0
  139.6243   73.5088  220.4873 H   0  0  0  0  0  0  0  0  0  0  0  0
  140.1060   76.3720  219.6010 H   0  0  0  0  0  0  0  0  0  0  0  0
  138.1422   77.0758  222.5828 H   0  0  0  0  0  0  0  0  0  0  0  0
  138.2767   79.3229  223.6063 H   0  0  0  0  0  0  0  0  0  0  0  0
  139.6800   81.2746  224.2637 H   0  0  0  0  0  0  0  0  0  0  0  0
  141.9039   82.3450  224.3643 H   0  0  0  0  0  0  0  0  0  0  0  0
  143.9065   81.1744  223.4634 H   0  0  0  0  0  0  0  0  0  0  0  0
  143.6488   78.9144  222.4569 H   0  0  0  0  0  0  0  0  0  0  0  0
  144.7303   75.6433  219.4809 H   0  0  0  0  0  0  0  0  0  0  0  0
  143.4298   75.2167  218.2998 H   0  0  0  0  0  0  0  0  0  0  0  0
  142.5850   76.5750  220.8540 H   0  0  0  0  0  0  0  0  0  0  0  0
  143.2918   79.8461  219.2250 H   0  0  0  0  0  0  0  0  0  0  0  0
  142.0375   81.8890  219.8909 H   0  0  0  0  0  0  0  0  0  0  0  0
  139.9255   82.8875  220.4856 H   0  0  0  0  0  0  0  0  0  0  0  0
  137.4964   82.6227  220.8675 H   0  0  0  0  0  0  0  0  0  0  0  0
  136.3565   80.4587  220.6125 H   0  0  0  0  0  0  0  0  0  0  0  0
  137.6821   78.4270  219.9374 H   0  0  0  0  0  0  0  0  0  0  0  0
  1  2  1  0
  2  3  1  0
  3  4  1  0
  4  5  1  0
  5  6  1  0
  6  7  2  0
  6  8  1  0
  8  9  2  0
  9 10  1  0
 10 11  2  0
 11 12  1  0
 12 13  2  0
 13 14  1  0
 14 15  2  0
 15 16  1  0
 16 17  2  0
  2 18  1  0
 18 19  2  0
 18 20  1  0
 20 21  1  0
 21 22  1  0
 22 23  2  0
 22 24  1  0
 24 25  2  0
 25 26  1  0
 26 27  2  0
 27 28  1  0
 28 29  2  0
 29 30  1  0
 30 31  2  0
 31 32  1  0
 32 33  2  0
 17  8  1  0
 33 24  1  0
 16 11  1  0
 32 27  1  0
  1 34  1  0
  1 35  1  0
  1 36  1  0
  3 37  1  0
  3 38  1  0
  4 39  1  0
  4 40  1  0
  5 41  1  0
  9 42  1  0
 10 43  1  0
 12 44  1  0
 13 45  1  0
 14 46  1  0
 15 47  1  0
 20 48  1  0
 20 49  1  0
 21 50  1  0
 25 51  1  0
 26 52  1  0
 28 53  1  0
 29 54  1  0
 30 55  1  0
 31 56  1  0
M  END
>  <smiles>  (4) 
CN(CCNC(=O)c1ccc2ccccc2n1)C(=O)CNC(=O)c1ccc2ccccc2n1

>  <score_type>  (4) 
oracle

>  <origin>  (4) 
autodockgpu

>  <m_score__min__energy>  (4) 
-9.2200000000000006

>  <m_primary>  (4) 
energy

>  <rmsd>  (4) 
8.469645899602456

>  <m_score__min__rmsd>  (4) 
8.469645899602456

>  <meeko>  (4) 
{"free_energy": -6.31, "intermolecular_energy": -8.7, "internal_energy": -5.41, "cluster_size": 22, "cluster_id": 4, "rank_in_cluster": 8}

>  <energy>  (4) 
-9.02

>  <cluster_rmsd>  (4) 
1.88

>  <cluster>  (4) 
1

$$$$

     RDKit          3D

 56 59  0  0  0  0  0  0  0  0999 V2000
  142.1930   72.9480  220.6090 C   0  0  0  0  0  0  0  0  0  0  0  0
  141.9210   73.7650  219.4320 N   0  0  0  0  0  0  0  0  0  0  0  0
  140.6480   73.8270  218.7700 C   0  0  0  0  0  0  0  0  0  0  0  0
  139.5710   74.1960  219.7490 C   0  0  0  0  0  0  0  0  0  0  0  0
  139.7670   75.5290  220.2230 N   0  0  0  0  0  0  0  0  0  0  0  0
  139.9290   75.7000  221.6410 C   0  0  0  0  0  0  0  0  0  0  0  0
  139.8830   74.6530  222.3420 O   0  0  0  0  0  0  0  0  0  0  0  0
  140.1350   77.0300  222.2110 C   0  0  0  0  0  0  0  0  0  0  0  0
  139.0200   77.6820  222.6980 C   0  0  0  0  0  0  0  0  0  0  0  0
  139.1540   78.9350  223.2460 C   0  0  0  0  0  0  0  0  0  0  0  0
  140.3910   79.5460  223.3130 C   0  0  0  0  0  0  0  0  0  0  0  0
  140.6050   80.7890  223.8420 C   0  0  0  0  0  0  0  0  0  0  0  0
  141.8730   81.3390  223.8760 C   0  0  0  0  0  0  0  0  0  0  0  0
  142.9570   80.6380  223.3720 C   0  0  0  0  0  0  0  0  0  0  0  0
  142.7560   79.3850  222.8350 C   0  0  0  0  0  0  0  0  0  0  0  0
  141.4770   78.8450  222.8090 C   0  0  0  0  0  0  0  0  0  0  0  0
  141.3460   77.6180  222.2720 N   0  0  0  0  0  0  0  0  0  0  0  0
  143.0170   74.5250  218.9360 C   0  0  0  0  0  0  0  0  0  0  0  0
  143.3780   74.2830  217.7550 O   0  0  0  0  0  0  0  0  0  0  0  0
  143.7400   75.5510  219.6860 C   0  0  0  0  0  0  0  0  0  0  0  0
  142.8390   76.6390  220.0920 N   0  0  0  0  0  0  0  0  0  0  0  0
  142.4510   77.5270  219.0360 C   0  0  0  0  0  0  0  0  0  0  0  0
  142.9010   77.3090  217.8810 O   0  0  0  0  0  0  0  0  0  0  0  0
  141.5570   78.6430  219.3340 C   0  0  0  0  0  0  0  0  0  0  0  0
  142.1160   79.9000  219.4250 C   0  0  0  0  0  0  0  0  0  0  0  0
  141.3680   81.0280  219.7020 C   0  0  0  0  0  0  0  0  0  0  0  0
  140.0010   80.8400  219.8880 C   0  0  0  0  0  0  0  0  0  0  0  0
  139.2190   81.9440  220.1660 C   0  0  0  0  0  0  0  0  0  0  0  0
  137.8720   81.7270  220.3460 C   0  0  0  0  0  0  0  0  0  0  0  0
  137.2840   80.4790  220.2610 C   0  0  0  0  0  0  0  0  0  0  0  0
  138.0810   79.3680  219.9790 C   0  0  0  0  0  0  0  0  0  0  0  0
  139.4330   79.5690  219.7970 C   0  0  0  0  0  0  0  0  0  0  0  0
  140.2330   78.4970  219.5190 N   0  0  0  0  0  0  0  0  0  0  0  0
  141.9970   73.5367  221.5173 H   0  0  0  0  0  0  0  0  0  0  0  0
  141.5414   72.0618  220.5987 H   0  0  0  0  0  0  0  0  0  0  0  0
  143.2457   72.6292  220.5987 H   0  0  0  0  0  0  0  0  0  0  0  0
  140.6895   74.5842  217.9732 H   0  0  0  0  0  0  0  0  0  0  0  0
  140.4191   72.8408  218.3399 H   0  0  0  0  0  0  0  0  0  0  0  0
  138.5913   74.1275  219.2535 H   0  0  0  0  0  0  0  0  0  0  0  0
  139.6110   73.5034  220.6026 H   0  0  0  0  0  0  0  0  0  0  0  0
  139.8120   76.3910  219.6630 H   0  0  0  0  0  0  0  0  0  0  0  0
  138.0315   77.2021  222.6478 H   0  0  0  0  0  0  0  0  0  0  0  0
  138.2673   79.4567  223.6352 H   0  0  0  0  0  0  0  0  0  0  0  0
  139.7558   81.3595  224.2463 H   0  0  0  0  0  0  0  0  0  0  0  0
  142.0225   82.3403  224.3063 H   0  0  0  0  0  0  0  0  0  0  0  0
  143.9655   81.0764  223.4002 H   0  0  0  0  0  0  0  0  0  0  0  0
  143.6047   78.8152  222.4288 H   0  0  0  0  0  0  0  0  0  0  0  0
  144.1819   75.0956  220.5845 H   0  0  0  0  0  0  0  0  0  0  0  0
  144.5260   75.9692  219.0400 H   0  0  0  0  0  0  0  0  0  0  0  0
  142.5130   76.7510  221.0600 H   0  0  0  0  0  0  0  0  0  0  0  0
  143.1997   80.0090  219.2711 H   0  0  0  0  0  0  0  0  0  0  0  0
  141.8291   82.0242  219.7720 H   0  0  0  0  0  0  0  0  0  0  0  0
  139.6535   82.9518  220.2402 H   0  0  0  0  0  0  0  0  0  0  0  0
  137.2298   82.5918  220.5691 H   0  0  0  0  0  0  0  0  0  0  0  0
  136.2009   80.3626  220.4137 H   0  0  0  0  0  0  0  0  0  0  0  0
  137.6432   78.3616  219.9042 H   0  0  0  0  0  0  0  0  0  0  0  0
  1  2  1  0
  2  3  1  0
  3  4  1  0
  4  5  1  0
  5  6  1  0
  6  7  2  0
  6  8  1  0
  8  9  2  0
  9 10  1  0
 10 11  2  0
 11 12  1  0
 12 13  2  0
 13 14  1  0
 14 15  2  0
 15 16  1  0
 16 17  2  0
  2 18  1  0
 18 19  2  0
 18 20  1  0
 20 21  1  0
 21 22  1  0
 22 23  2  0
 22 24  1  0
 24 25  2  0
 25 26  1  0
 26 27  2  0
 27 28  1  0
 28 29  2  0
 29 30  1  0
 30 31  2  0
 31 32  1  0
 32 33  2  0
 17  8  1  0
 33 24  1  0
 16 11  1  0
 32 27  1  0
  1 34  1  0
  1 35  1  0
  1 36  1  0
  3 37  1  0
  3 38  1  0
  4 39  1  0
  4 40  1  0
  5 41  1  0
  9 42  1  0
 10 43  1  0
 12 44  1  0
 13 45  1  0
 14 46  1  0
 15 47  1  0
 20 48  1  0
 20 49  1  0
 21 50  1  0
 25 51  1  0
 26 52  1  0
 28 53  1  0
 29 54  1  0
 30 55  1  0
 31 56  1  0
M  END
>  <smiles>  (5) 
CN(CCNC(=O)c1ccc2ccccc2n1)C(=O)CNC(=O)c1ccc2ccccc2n1

>  <score_type>  (5) 
oracle

>  <origin>  (5) 
autodockgpu

>  <m_score__min__energy>  (5) 
-9.2200000000000006

>  <m_primary>  (5) 
energy

>  <rmsd>  (5) 
8.52630766674868

>  <m_score__min__rmsd>  (5) 
8.52630766674868

>  <meeko>  (5) 
{"free_energy": -5.94, "intermolecular_energy": -8.33, "internal_energy": -5.41, "cluster_size": 22, "cluster_id": 4, "rank_in_cluster": 16}

>  <energy>  (5) 
-8.98

>  <cluster_rmsd>  (5) 
1.79

>  <cluster>  (5) 
1

$$$$

     RDKit          3D

 56 59  0  0  0  0  0  0  0  0999 V2000
  140.7080   71.1540  218.5010 C   0  0  0  0  0  0  0  0  0  0  0  0
  140.2510   72.3100  219.2620 N   0  0  0  0  0  0  0  0  0  0  0  0
  138.8720   72.6760  219.4240 C   0  0  0  0  0  0  0  0  0  0  0  0
  138.1680   71.6770  220.2960 C   0  0  0  0  0  0  0  0  0  0  0  0
  138.6500   71.7650  221.6380 N   0  0  0  0  0  0  0  0  0  0  0  0
  139.0840   70.5420  222.2570 C   0  0  0  0  0  0  0  0  0  0  0  0
  139.0000   69.4970  221.5560 O   0  0  0  0  0  0  0  0  0  0  0  0
  139.5910   70.5410  223.6280 C   0  0  0  0  0  0  0  0  0  0  0  0
  140.2580   71.6730  224.0490 C   0  0  0  0  0  0  0  0  0  0  0  0
  140.7570   71.7280  225.3290 C   0  0  0  0  0  0  0  0  0  0  0  0
  140.5960   70.6620  226.1930 C   0  0  0  0  0  0  0  0  0  0  0  0
  141.0630   70.6410  227.4790 C   0  0  0  0  0  0  0  0  0  0  0  0
  140.8650   69.5380  228.2890 C   0  0  0  0  0  0  0  0  0  0  0  0
  140.1870   68.4270  227.8120 C   0  0  0  0  0  0  0  0  0  0  0  0
  139.7120   68.4350  226.5180 C   0  0  0  0  0  0  0  0  0  0  0  0
  139.9180   69.5510  225.7170 C   0  0  0  0  0  0  0  0  0  0  0  0
  139.4300   69.4960  224.4640 N   0  0  0  0  0  0  0  0  0  0  0  0
  141.2700   73.1050  219.8580 C   0  0  0  0  0  0  0  0  0  0  0  0
  142.1010   73.6310  219.0740 O   0  0  0  0  0  0  0  0  0  0  0  0
  141.4160   73.3520  221.2920 C   0  0  0  0  0  0  0  0  0  0  0  0
  141.5310   74.7910  221.5690 N   0  0  0  0  0  0  0  0  0  0  0  0
  140.3300   75.4110  222.0480 C   0  0  0  0  0  0  0  0  0  0  0  0
  139.3050   74.6930  222.1860 O   0  0  0  0  0  0  0  0  0  0  0  0
  140.3360   76.8380  222.3540 C   0  0  0  0  0  0  0  0  0  0  0  0
  139.1190   77.4820  222.4160 C   0  0  0  0  0  0  0  0  0  0  0  0
  139.0030   78.8300  222.6970 C   0  0  0  0  0  0  0  0  0  0  0  0
  140.1890   79.5250  222.9210 C   0  0  0  0  0  0  0  0  0  0  0  0
  140.1150   80.8740  223.2060 C   0  0  0  0  0  0  0  0  0  0  0  0
  141.3030   81.5330  223.4220 C   0  0  0  0  0  0  0  0  0  0  0  0
  142.5380   80.9140  223.3670 C   0  0  0  0  0  0  0  0  0  0  0  0
  142.6050   79.5500  223.0790 C   0  0  0  0  0  0  0  0  0  0  0  0
  141.4220   78.8750  222.8590 C   0  0  0  0  0  0  0  0  0  0  0  0
  141.4620   77.5400  222.5760 N   0  0  0  0  0  0  0  0  0  0  0  0
  141.0220   70.3596  219.1941 H   0  0  0  0  0  0  0  0  0  0  0  0
  139.8882   70.7848  217.8673 H   0  0  0  0  0  0  0  0  0  0  0  0
  141.5587   71.4452  217.8673 H   0  0  0  0  0  0  0  0  0  0  0  0
  138.8126   73.6705  219.8903 H   0  0  0  0  0  0  0  0  0  0  0  0
  138.3876   72.6939  218.4365 H   0  0  0  0  0  0  0  0  0  0  0  0
  137.0874   71.8825  220.2841 H   0  0  0  0  0  0  0  0  0  0  0  0
  138.3629   70.6652  219.9110 H   0  0  0  0  0  0  0  0  0  0  0  0
  138.7280   72.6100  222.2190 H   0  0  0  0  0  0  0  0  0  0  0  0
  140.3895   72.5250  223.3658 H   0  0  0  0  0  0  0  0  0  0  0  0
  141.2893   72.6289  225.6682 H   0  0  0  0  0  0  0  0  0  0  0  0
  141.6035   71.5138  227.8740 H   0  0  0  0  0  0  0  0  0  0  0  0
  141.2485   69.5422  229.3200 H   0  0  0  0  0  0  0  0  0  0  0  0
  140.0301   67.5504  228.4577 H   0  0  0  0  0  0  0  0  0  0  0  0
  139.1726   67.5621  226.1217 H   0  0  0  0  0  0  0  0  0  0  0  0
  140.5354   72.9537  221.8172 H   0  0  0  0  0  0  0  0  0  0  0  0
  142.3316   72.8531  221.6424 H   0  0  0  0  0  0  0  0  0  0  0  0
  142.4070   75.3100  221.4320 H   0  0  0  0  0  0  0  0  0  0  0  0
  138.2036   76.8997  222.2346 H   0  0  0  0  0  0  0  0  0  0  0  0
  138.0236   79.3288  222.7415 H   0  0  0  0  0  0  0  0  0  0  0  0
  139.1494   81.3982  223.2580 H   0  0  0  0  0  0  0  0  0  0  0  0
  141.2686   82.6085  223.6504 H   0  0  0  0  0  0  0  0  0  0  0  0
  143.4574   81.4900  223.5482 H   0  0  0  0  0  0  0  0  0  0  0  0
  143.5723   79.0286  223.0289 H   0  0  0  0  0  0  0  0  0  0  0  0
  1  2  1  0
  2  3  1  0
  3  4  1  0
  4  5  1  0
  5  6  1  0
  6  7  2  0
  6  8  1  0
  8  9  2  0
  9 10  1  0
 10 11  2  0
 11 12  1  0
 12 13  2  0
 13 14  1  0
 14 15  2  0
 15 16  1  0
 16 17  2  0
  2 18  1  0
 18 19  2  0
 18 20  1  0
 20 21  1  0
 21 22  1  0
 22 23  2  0
 22 24  1  0
 24 25  2  0
 25 26  1  0
 26 27  2  0
 27 28  1  0
 28 29  2  0
 29 30  1  0
 30 31  2  0
 31 32  1  0
 32 33  2  0
 17  8  1  0
 33 24  1  0
 16 11  1  0
 32 27  1  0
  1 34  1  0
  1 35  1  0
  1 36  1  0
  3 37  1  0
  3 38  1  0
  4 39  1  0
  4 40  1  0
  5 41  1  0
  9 42  1  0
 10 43  1  0
 12 44  1  0
 13 45  1  0
 14 46  1  0
 15 47  1  0
 20 48  1  0
 20 49  1  0
 21 50  1  0
 25 51  1  0
 26 52  1  0
 28 53  1  0
 29 54  1  0
 30 55  1  0
 31 56  1  0
M  END
>  <smiles>  (6) 
CN(CCNC(=O)c1ccc2ccccc2n1)C(=O)CNC(=O)c1ccc2ccccc2n1

>  <score_type>  (6) 
oracle

>  <origin>  (6) 
autodockgpu

>  <m_score__min__energy>  (6) 
-9.2200000000000006

>  <m_primary>  (6) 
energy

>  <rmsd>  (6) 
8.8474141760508

>  <m_score__min__rmsd>  (6) 
8.8474141760508

>  <meeko>  (6) 
{"free_energy": -8.17, "intermolecular_energy": -10.56, "internal_energy": -2.68, "cluster_size": 19, "cluster_id": 1, "rank_in_cluster": 18}

>  <energy>  (6) 
-8.87

>  <cluster_rmsd>  (6) 
0.94

>  <cluster>  (6) 
1

$$$$

     RDKit          3D

 56 59  0  0  0  0  0  0  0  0999 V2000
  143.3230   72.7130  220.5690 C   0  0  0  0  0  0  0  0  0  0  0  0
  142.3970   73.5900  219.8640 N   0  0  0  0  0  0  0  0  0  0  0  0
  140.9670   73.4680  219.9210 C   0  0  0  0  0  0  0  0  0  0  0  0
  140.4740   73.7730  221.3060 C   0  0  0  0  0  0  0  0  0  0  0  0
  140.8690   75.0900  221.6940 N   0  0  0  0  0  0  0  0  0  0  0  0
  139.8420   75.9540  222.2060 C   0  0  0  0  0  0  0  0  0  0  0  0
  138.6790   75.4700  222.2680 O   0  0  0  0  0  0  0  0  0  0  0  0
  140.1580   77.3180  222.6260 C   0  0  0  0  0  0  0  0  0  0  0  0
  139.0990   78.1180  223.0040 C   0  0  0  0  0  0  0  0  0  0  0  0
  139.3380   79.4100  223.4080 C   0  0  0  0  0  0  0  0  0  0  0  0
  140.6250   79.9120  223.4380 C   0  0  0  0  0  0  0  0  0  0  0  0
  140.9420   81.1850  223.8270 C   0  0  0  0  0  0  0  0  0  0  0  0
  142.2540   81.6200  223.8330 C   0  0  0  0  0  0  0  0  0  0  0  0
  143.2790   80.7720  223.4420 C   0  0  0  0  0  0  0  0  0  0  0  0
  142.9730   79.4880  223.0470 C   0  0  0  0  0  0  0  0  0  0  0  0
  141.6500   79.0640  223.0480 C   0  0  0  0  0  0  0  0  0  0  0  0
  141.4170   77.7990  222.6520 N   0  0  0  0  0  0  0  0  0  0  0  0
  142.9900   74.6130  219.0730 C   0  0  0  0  0  0  0  0  0  0  0  0
  142.8260   74.5260  217.8280 O   0  0  0  0  0  0  0  0  0  0  0  0
  143.7610   75.7410  219.5930 C   0  0  0  0  0  0  0  0  0  0  0  0
  142.8730   76.8060  220.0820 N   0  0  0  0  0  0  0  0  0  0  0  0
  142.4930   77.7750  219.0970 C   0  0  0  0  0  0  0  0  0  0  0  0
  142.9390   77.6380  217.9270 O   0  0  0  0  0  0  0  0  0  0  0  0
  141.6120   78.8740  219.4790 C   0  0  0  0  0  0  0  0  0  0  0  0
  142.1840   80.1160  219.6570 C   0  0  0  0  0  0  0  0  0  0  0  0
  141.4490   81.2290  220.0190 C   0  0  0  0  0  0  0  0  0  0  0  0
  140.0810   81.0410  220.1990 C   0  0  0  0  0  0  0  0  0  0  0  0
  139.3120   82.1300  220.5600 C   0  0  0  0  0  0  0  0  0  0  0  0
  137.9630   81.9140  220.7300 C   0  0  0  0  0  0  0  0  0  0  0  0
  137.3630   80.6810  220.5580 C   0  0  0  0  0  0  0  0  0  0  0  0
  138.1460   79.5850  220.1930 C   0  0  0  0  0  0  0  0  0  0  0  0
  139.5000   79.7860  220.0180 C   0  0  0  0  0  0  0  0  0  0  0  0
  140.2880   78.7290  219.6600 N   0  0  0  0  0  0  0  0  0  0  0  0
  143.1917   72.8373  221.6540 H   0  0  0  0  0  0  0  0  0  0  0  0
  143.1205   71.6677  220.2926 H   0  0  0  0  0  0  0  0  0  0  0  0
  144.3557   72.9719  220.2926 H   0  0  0  0  0  0  0  0  0  0  0  0
  140.5137   74.1748  219.2104 H   0  0  0  0  0  0  0  0  0  0  0  0
  140.6845   72.4377  219.6589 H   0  0  0  0  0  0  0  0  0  0  0  0
  139.3764   73.7032  221.3240 H   0  0  0  0  0  0  0  0  0  0  0  0
  140.9093   73.0472  222.0087 H   0  0  0  0  0  0  0  0  0  0  0  0
  141.8130   75.4950  221.6530 H   0  0  0  0  0  0  0  0  0  0  0  0
  138.0718   77.7250  222.9822 H   0  0  0  0  0  0  0  0  0  0  0  0
  138.4964   80.0505  223.7104 H   0  0  0  0  0  0  0  0  0  0  0  0
  140.1415   81.8718  224.1393 H   0  0  0  0  0  0  0  0  0  0  0  0
  142.4868   82.6471  224.1505 H   0  0  0  0  0  0  0  0  0  0  0  0
  144.3226   81.1198  223.4471 H   0  0  0  0  0  0  0  0  0  0  0  0
  143.7728   78.8015  222.7322 H   0  0  0  0  0  0  0  0  0  0  0  0
  144.3944   75.3920  220.4219 H   0  0  0  0  0  0  0  0  0  0  0  0
  144.3799   76.1471  218.7793 H   0  0  0  0  0  0  0  0  0  0  0  0
  142.5500   76.8480  221.0570 H   0  0  0  0  0  0  0  0  0  0  0  0
  143.2679   80.2252  219.5049 H   0  0  0  0  0  0  0  0  0  0  0  0
  141.9205   82.2131  220.1578 H   0  0  0  0  0  0  0  0  0  0  0  0
  139.7574   83.1253  220.7052 H   0  0  0  0  0  0  0  0  0  0  0  0
  137.3302   82.7666  221.0175 H   0  0  0  0  0  0  0  0  0  0  0  0
  136.2794   80.5647  220.7073 H   0  0  0  0  0  0  0  0  0  0  0  0
  137.6975   78.5910  220.0491 H   0  0  0  0  0  0  0  0  0  0  0  0
  1  2  1  0
  2  3  1  0
  3  4  1  0
  4  5  1  0
  5  6  1  0
  6  7  2  0
  6  8  1  0
  8  9  2  0
  9 10  1  0
 10 11  2  0
 11 12  1  0
 12 13  2  0
 13 14  1  0
 14 15  2  0
 15 16  1  0
 16 17  2  0
  2 18  1  0
 18 19  2  0
 18 20  1  0
 20 21  1  0
 21 22  1  0
 22 23  2  0
 22 24  1  0
 24 25  2  0
 25 26  1  0
 26 27  2  0
 27 28  1  0
 28 29  2  0
 29 30  1  0
 30 31  2  0
 31 32  1  0
 32 33  2  0
 17  8  1  0
 33 24  1  0
 16 11  1  0
 32 27  1  0
  1 34  1  0
  1 35  1  0
  1 36  1  0
  3 37  1  0
  3 38  1  0
  4 39  1  0
  4 40  1  0
  5 41  1  0
  9 42  1  0
 10 43  1  0
 12 44  1  0
 13 45  1  0
 14 46  1  0
 15 47  1  0
 20 48  1  0
 20 49  1  0
 21 50  1  0
 25 51  1  0
 26 52  1  0
 28 53  1  0
 29 54  1  0
 30 55  1  0
 31 56  1  0
M  END
>  <smiles>  (7) 
CN(CCNC(=O)c1ccc2ccccc2n1)C(=O)CNC(=O)c1ccc2ccccc2n1

>  <score_type>  (7) 
oracle

>  <origin>  (7) 
autodockgpu

>  <m_score__min__energy>  (7) 
-9.2200000000000006

>  <m_primary>  (7) 
energy

>  <rmsd>  (7) 
8.587891594078405

>  <m_score__min__rmsd>  (7) 
8.587891594078405

>  <meeko>  (7) 
{"free_energy": -6.1, "intermolecular_energy": -8.49, "internal_energy": -4.77, "cluster_size": 22, "cluster_id": 4, "rank_in_cluster": 13}

>  <energy>  (7) 
-8.77

>  <cluster_rmsd>  (7) 
1.8

>  <cluster>  (7) 
1

$$$$

     RDKit          3D

 56 59  0  0  0  0  0  0  0  0999 V2000
  139.7340   75.9980  219.2060 C   0  0  0  0  0  0  0  0  0  0  0  0
  138.9460   75.8950  220.4280 N   0  0  0  0  0  0  0  0  0  0  0  0
  137.9940   76.8800  220.8600 C   0  0  0  0  0  0  0  0  0  0  0  0
  138.1180   77.1090  222.3390 C   0  0  0  0  0  0  0  0  0  0  0  0
  137.6160   75.9820  223.0590 N   0  0  0  0  0  0  0  0  0  0  0  0
  136.2410   76.0320  223.4730 C   0  0  0  0  0  0  0  0  0  0  0  0
  135.5980   77.0710  223.1620 O   0  0  0  0  0  0  0  0  0  0  0  0
  135.6460   74.9220  224.2140 C   0  0  0  0  0  0  0  0  0  0  0  0
  134.7800   75.2450  225.2380 C   0  0  0  0  0  0  0  0  0  0  0  0
  134.1910   74.2410  225.9690 C   0  0  0  0  0  0  0  0  0  0  0  0
  134.4590   72.9160  225.6880 C   0  0  0  0  0  0  0  0  0  0  0  0
  133.9130   71.8620  226.3690 C   0  0  0  0  0  0  0  0  0  0  0  0
  134.2270   70.5580  226.0330 C   0  0  0  0  0  0  0  0  0  0  0  0
  135.1060   70.2920  224.9940 C   0  0  0  0  0  0  0  0  0  0  0  0
  135.6630   71.3440  224.2990 C   0  0  0  0  0  0  0  0  0  0  0  0
  135.3370   72.6480  224.6490 C   0  0  0  0  0  0  0  0  0  0  0  0
  135.9140   73.6300  223.9330 N   0  0  0  0  0  0  0  0  0  0  0  0
  139.1730   74.7340  221.2190 C   0  0  0  0  0  0  0  0  0  0  0  0
  140.1080   74.8010  222.0570 O   0  0  0  0  0  0  0  0  0  0  0  0
  138.4080   73.4910  221.1300 C   0  0  0  0  0  0  0  0  0  0  0  0
  138.4280   72.7670  222.4090 N   0  0  0  0  0  0  0  0  0  0  0  0
  139.5240   71.8560  222.5690 C   0  0  0  0  0  0  0  0  0  0  0  0
  140.3540   71.7540  221.6280 O   0  0  0  0  0  0  0  0  0  0  0  0
  139.6380   71.0870  223.8050 C   0  0  0  0  0  0  0  0  0  0  0  0
  139.0580   69.8360  223.8320 C   0  0  0  0  0  0  0  0  0  0  0  0
  139.1020   69.0190  224.9450 C   0  0  0  0  0  0  0  0  0  0  0  0
  139.7690   69.5210  226.0600 C   0  0  0  0  0  0  0  0  0  0  0  0
  139.8350   68.7340  227.1930 C   0  0  0  0  0  0  0  0  0  0  0  0
  140.5010   69.2560  228.2790 C   0  0  0  0  0  0  0  0  0  0  0  0
  141.0910   70.5060  228.2810 C   0  0  0  0  0  0  0  0  0  0  0  0
  141.0200   71.2950  227.1320 C   0  0  0  0  0  0  0  0  0  0  0  0
  140.3560   70.7860  226.0350 C   0  0  0  0  0  0  0  0  0  0  0  0
  140.2740   71.5400  224.8990 N   0  0  0  0  0  0  0  0  0  0  0  0
  140.7943   76.1366  219.4640 H   0  0  0  0  0  0  0  0  0  0  0  0
  139.6176   75.0770  218.6159 H   0  0  0  0  0  0  0  0  0  0  0  0
  139.3848   76.8581  218.6159 H   0  0  0  0  0  0  0  0  0  0  0  0
  138.1827   77.8248  220.3292 H   0  0  0  0  0  0  0  0  0  0  0  0
  136.9790   76.5195  220.6369 H   0  0  0  0  0  0  0  0  0  0  0  0
  139.1769   77.2609  222.5952 H   0  0  0  0  0  0  0  0  0  0  0  0
  137.5324   77.9988  222.6136 H   0  0  0  0  0  0  0  0  0  0  0  0
  138.1280   75.1270  223.3150 H   0  0  0  0  0  0  0  0  0  0  0  0
  134.5624   76.2985  225.4679 H   0  0  0  0  0  0  0  0  0  0  0  0
  133.4995   74.4956  226.7857 H   0  0  0  0  0  0  0  0  0  0  0  0
  133.2139   72.0551  227.1960 H   0  0  0  0  0  0  0  0  0  0  0  0
  133.7764   69.7258  226.5938 H   0  0  0  0  0  0  0  0  0  0  0  0
  135.3557   69.2543  224.7277 H   0  0  0  0  0  0  0  0  0  0  0  0
  136.3619   71.1518  223.4716 H   0  0  0  0  0  0  0  0  0  0  0  0
  137.3665   73.7278  220.8670 H   0  0  0  0  0  0  0  0  0  0  0  0
  138.8649   72.8530  220.3592 H   0  0  0  0  0  0  0  0  0  0  0  0
  137.7120   72.9070  223.1320 H   0  0  0  0  0  0  0  0  0  0  0  0
  138.5398   69.4745  222.9316 H   0  0  0  0  0  0  0  0  0  0  0  0
  138.6344   68.0233  224.9505 H   0  0  0  0  0  0  0  0  0  0  0  0
  139.3760   67.7349  227.2262 H   0  0  0  0  0  0  0  0  0  0  0  0
  140.5670   68.6467  229.1925 H   0  0  0  0  0  0  0  0  0  0  0  0
  141.6105   70.8746  229.1778 H   0  0  0  0  0  0  0  0  0  0  0  0
  141.4801   72.2937  227.1019 H   0  0  0  0  0  0  0  0  0  0  0  0
  1  2  1  0
  2  3  1  0
  3  4  1  0
  4  5  1  0
  5  6  1  0
  6  7  2  0
  6  8  1  0
  8  9  2  0
  9 10  1  0
 10 11  2  0
 11 12  1  0
 12 13  2  0
 13 14  1  0
 14 15  2  0
 15 16  1  0
 16 17  2  0
  2 18  1  0
 18 19  2  0
 18 20  1  0
 20 21  1  0
 21 22  1  0
 22 23  2  0
 22 24  1  0
 24 25  2  0
 25 26  1  0
 26 27  2  0
 27 28  1  0
 28 29  2  0
 29 30  1  0
 30 31  2  0
 31 32  1  0
 32 33  2  0
 17  8  1  0
 33 24  1  0
 16 11  1  0
 32 27  1  0
  1 34  1  0
  1 35  1  0
  1 36  1  0
  3 37  1  0
  3 38  1  0
  4 39  1  0
  4 40  1  0
  5 41  1  0
  9 42  1  0
 10 43  1  0
 12 44  1  0
 13 45  1  0
 14 46  1  0
 15 47  1  0
 20 48  1  0
 20 49  1  0
 21 50  1  0
 25 51  1  0
 26 52  1  0
 28 53  1  0
 29 54  1  0
 30 55  1  0
 31 56  1  0
M  END
>  <smiles>  (8) 
CN(CCNC(=O)c1ccc2ccccc2n1)C(=O)CNC(=O)c1ccc2ccccc2n1

>  <score_type>  (8) 
oracle

>  <origin>  (8) 
autodockgpu

>  <m_score__min__energy>  (8) 
-9.2200000000000006

>  <m_primary>  (8) 
energy

>  <rmsd>  (8) 
5.5647183970777405

>  <m_score__min__rmsd>  (8) 
5.5647183970777405

>  <meeko>  (8) 
{"free_energy": -8.07, "intermolecular_energy": -10.45, "internal_energy": -3.27, "cluster_size": 4, "cluster_id": 3, "rank_in_cluster": 1}

>  <energy>  (8) 
-8.71

>  <cluster_rmsd>  (8) 
1.13

>  <cluster>  (8) 
1

$$$$

     RDKit          3D

 56 59  0  0  0  0  0  0  0  0999 V2000
  142.2140   72.8880  220.7210 C   0  0  0  0  0  0  0  0  0  0  0  0
  141.9800   73.6570  219.5060 N   0  0  0  0  0  0  0  0  0  0  0  0
  143.0010   74.3800  218.7990 C   0  0  0  0  0  0  0  0  0  0  0  0
  143.6960   75.3360  219.7250 C   0  0  0  0  0  0  0  0  0  0  0  0
  142.8240   76.4140  220.0700 N   0  0  0  0  0  0  0  0  0  0  0  0
  142.5190   77.3630  219.0360 C   0  0  0  0  0  0  0  0  0  0  0  0
  143.0510   77.1600  217.9110 O   0  0  0  0  0  0  0  0  0  0  0  0
  141.6350   78.4970  219.3030 C   0  0  0  0  0  0  0  0  0  0  0  0
  142.2180   79.7460  219.3570 C   0  0  0  0  0  0  0  0  0  0  0  0
  141.4350   80.8480  219.6060 C   0  0  0  0  0  0  0  0  0  0  0  0
  140.0740   80.7150  219.8000 C   0  0  0  0  0  0  0  0  0  0  0  0
  139.2300   81.7620  220.0510 C   0  0  0  0  0  0  0  0  0  0  0  0
  137.8760   81.5550  220.2360 C   0  0  0  0  0  0  0  0  0  0  0  0
  137.3440   80.2760  220.1700 C   0  0  0  0  0  0  0  0  0  0  0  0
  138.1840   79.2130  219.9190 C   0  0  0  0  0  0  0  0  0  0  0  0
  139.5420   79.4370  219.7340 C   0  0  0  0  0  0  0  0  0  0  0  0
  140.3080   78.3570  219.4920 N   0  0  0  0  0  0  0  0  0  0  0  0
  140.6400   73.6750  219.0290 C   0  0  0  0  0  0  0  0  0  0  0  0
  140.4560   73.2520  217.8580 O   0  0  0  0  0  0  0  0  0  0  0  0
  139.4810   74.1400  219.7890 C   0  0  0  0  0  0  0  0  0  0  0  0
  139.6730   75.5230  220.2490 N   0  0  0  0  0  0  0  0  0  0  0  0
  139.9600   75.6590  221.6480 C   0  0  0  0  0  0  0  0  0  0  0  0
  140.0220   74.6120  222.3450 O   0  0  0  0  0  0  0  0  0  0  0  0
  140.1690   76.9900  222.2080 C   0  0  0  0  0  0  0  0  0  0  0  0
  139.0630   77.6600  222.6870 C   0  0  0  0  0  0  0  0  0  0  0  0
  139.1400   78.9250  223.2380 C   0  0  0  0  0  0  0  0  0  0  0  0
  140.4050   79.5060  223.2910 C   0  0  0  0  0  0  0  0  0  0  0  0
  140.5230   80.7690  223.8360 C   0  0  0  0  0  0  0  0  0  0  0  0
  141.7850   81.3170  223.8760 C   0  0  0  0  0  0  0  0  0  0  0  0
  142.9110   80.6700  223.4030 C   0  0  0  0  0  0  0  0  0  0  0  0
  142.7840   79.3930  222.8550 C   0  0  0  0  0  0  0  0  0  0  0  0
  141.5250   78.8290  222.8080 C   0  0  0  0  0  0  0  0  0  0  0  0
  141.3750   77.5810  222.2760 N   0  0  0  0  0  0  0  0  0  0  0  0
  142.0211   73.5219  221.5990 H   0  0  0  0  0  0  0  0  0  0  0  0
  141.5396   72.0192  220.7407 H   0  0  0  0  0  0  0  0  0  0  0  0
  143.2580   72.5422  220.7407 H   0  0  0  0  0  0  0  0  0  0  0  0
  143.7353   73.6684  218.3935 H   0  0  0  0  0  0  0  0  0  0  0  0
  142.5362   74.9482  217.9798 H   0  0  0  0  0  0  0  0  0  0  0  0
  143.9939   74.8031  220.6400 H   0  0  0  0  0  0  0  0  0  0  0  0
  144.5845   75.7421  219.2194 H   0  0  0  0  0  0  0  0  0  0  0  0
  142.3800   76.5890  220.9810 H   0  0  0  0  0  0  0  0  0  0  0  0
  143.3011   79.8593  219.2020 H   0  0  0  0  0  0  0  0  0  0  0  0
  141.8968   81.8454  219.6512 H   0  0  0  0  0  0  0  0  0  0  0  0
  139.6348   82.7833  220.1064 H   0  0  0  0  0  0  0  0  0  0  0  0
  137.2154   82.4112  220.4371 H   0  0  0  0  0  0  0  0  0  0  0  0
  136.2661   80.1124  220.3160 H   0  0  0  0  0  0  0  0  0  0  0  0
  137.7806   78.1911  219.8654 H   0  0  0  0  0  0  0  0  0  0  0  0
  138.5885   74.0949  219.1475 H   0  0  0  0  0  0  0  0  0  0  0  0
  139.3561   73.4921  220.6691 H   0  0  0  0  0  0  0  0  0  0  0  0
  139.6070   76.3280  219.6150 H   0  0  0  0  0  0  0  0  0  0  0  0
  138.0808   77.1682  222.6282 H   0  0  0  0  0  0  0  0  0  0  0  0
  138.2480   79.4465  223.6154 H   0  0  0  0  0  0  0  0  0  0  0  0
  139.6478   81.3129  224.2209 H   0  0  0  0  0  0  0  0  0  0  0  0
  141.9036   82.3222  224.3068 H   0  0  0  0  0  0  0  0  0  0  0  0
  143.8962   81.1562  223.4579 H   0  0  0  0  0  0  0  0  0  0  0  0
  143.6615   78.8516  222.4717 H   0  0  0  0  0  0  0  0  0  0  0  0
  1  2  1  0
  2  3  1  0
  3  4  1  0
  4  5  1  0
  5  6  1  0
  6  7  2  0
  6  8  1  0
  8  9  2  0
  9 10  1  0
 10 11  2  0
 11 12  1  0
 12 13  2  0
 13 14  1  0
 14 15  2  0
 15 16  1  0
 16 17  2  0
  2 18  1  0
 18 19  2  0
 18 20  1  0
 20 21  1  0
 21 22  1  0
 22 23  2  0
 22 24  1  0
 24 25  2  0
 25 26  1  0
 26 27  2  0
 27 28  1  0
 28 29  2  0
 29 30  1  0
 30 31  2  0
 31 32  1  0
 32 33  2  0
 17  8  1  0
 33 24  1  0
 16 11  1  0
 32 27  1  0
  1 34  1  0
  1 35  1  0
  1 36  1  0
  3 37  1  0
  3 38  1  0
  4 39  1  0
  4 40  1  0
  5 41  1  0
  9 42  1  0
 10 43  1  0
 12 44  1  0
 13 45  1  0
 14 46  1  0
 15 47  1  0
 20 48  1  0
 20 49  1  0
 21 50  1  0
 25 51  1  0
 26 52  1  0
 28 53  1  0
 29 54  1  0
 30 55  1  0
 31 56  1  0
M  END
>  <smiles>  (9) 
CN(CCNC(=O)c1ccc2ccccc2n1)C(=O)CNC(=O)c1ccc2ccccc2n1

>  <score_type>  (9) 
oracle

>  <origin>  (9) 
autodockgpu

>  <m_score__min__energy>  (9) 
-9.2200000000000006

>  <m_primary>  (9) 
energy

>  <rmsd>  (9) 
6.659593682413924

>  <m_score__min__rmsd>  (9) 
6.659593682413924

>  <meeko>  (9) 
{"free_energy": -5.85, "intermolecular_energy": -8.24, "internal_energy": -5.41, "cluster_size": 22, "cluster_id": 4, "rank_in_cluster": 19}

>  <energy>  (9) 
-8.66

>  <cluster_rmsd>  (9) 
1.31

>  <cluster>  (9) 
1

$$$$

     RDKit          3D

 56 59  0  0  0  0  0  0  0  0999 V2000
  143.3160   70.2940  219.3140 C   0  0  0  0  0  0  0  0  0  0  0  0
  142.7430   71.5900  219.6550 N   0  0  0  0  0  0  0  0  0  0  0  0
  143.4100   72.5840  220.4490 C   0  0  0  0  0  0  0  0  0  0  0  0
  143.2120   73.9470  219.8480 C   0  0  0  0  0  0  0  0  0  0  0  0
  142.4380   74.7670  220.7250 N   0  0  0  0  0  0  0  0  0  0  0  0
  142.2220   76.1290  220.3220 C   0  0  0  0  0  0  0  0  0  0  0  0
  142.7380   76.4800  219.2260 O   0  0  0  0  0  0  0  0  0  0  0  0
  141.4420   77.0380  221.1600 C   0  0  0  0  0  0  0  0  0  0  0  0
  140.2160   76.5850  221.6020 C   0  0  0  0  0  0  0  0  0  0  0  0
  139.4390   77.3970  222.3930 C   0  0  0  0  0  0  0  0  0  0  0  0
  139.8740   78.6600  222.7470 C   0  0  0  0  0  0  0  0  0  0  0  0
  139.1600   79.5250  223.5300 C   0  0  0  0  0  0  0  0  0  0  0  0
  139.6580   80.7760  223.8450 C   0  0  0  0  0  0  0  0  0  0  0  0
  140.8970   81.1790  223.3710 C   0  0  0  0  0  0  0  0  0  0  0  0
  141.6270   80.3170  222.5820 C   0  0  0  0  0  0  0  0  0  0  0  0
  141.1140   79.0630  222.2750 C   0  0  0  0  0  0  0  0  0  0  0  0
  141.8750   78.2690  221.5000 N   0  0  0  0  0  0  0  0  0  0  0  0
  141.4340   71.8420  219.1570 C   0  0  0  0  0  0  0  0  0  0  0  0
  141.2700   71.7080  217.9170 O   0  0  0  0  0  0  0  0  0  0  0  0
  140.2840   72.2360  219.9700 C   0  0  0  0  0  0  0  0  0  0  0  0
  140.2030   71.4280  221.1950 N   0  0  0  0  0  0  0  0  0  0  0  0
  140.2660   72.1750  222.4170 C   0  0  0  0  0  0  0  0  0  0  0  0
  140.3840   73.4270  222.3410 O   0  0  0  0  0  0  0  0  0  0  0  0
  140.1940   71.4680  223.6920 C   0  0  0  0  0  0  0  0  0  0  0  0
  139.5610   70.2430  223.7060 C   0  0  0  0  0  0  0  0  0  0  0  0
  139.4320   69.4850  224.8530 C   0  0  0  0  0  0  0  0  0  0  0  0
  139.9790   70.0180  226.0180 C   0  0  0  0  0  0  0  0  0  0  0  0
  139.8710   69.2900  227.1860 C   0  0  0  0  0  0  0  0  0  0  0  0
  140.4210   69.8420  228.3200 C   0  0  0  0  0  0  0  0  0  0  0  0
  141.0620   71.0670  228.3360 C   0  0  0  0  0  0  0  0  0  0  0  0
  141.1670   71.7980  227.1520 C   0  0  0  0  0  0  0  0  0  0  0  0
  140.6200   71.2570  226.0060 C   0  0  0  0  0  0  0  0  0  0  0  0
  140.7110   71.9530  224.8340 N   0  0  0  0  0  0  0  0  0  0  0  0
  143.5583   69.7460  220.2365 H   0  0  0  0  0  0  0  0  0  0  0  0
  142.5896   69.7157  218.7241 H   0  0  0  0  0  0  0  0  0  0  0  0
  144.2325   70.4421  218.7241 H   0  0  0  0  0  0  0  0  0  0  0  0
  142.9962   72.5727  221.4681 H   0  0  0  0  0  0  0  0  0  0  0  0
  144.4860   72.3574  220.4780 H   0  0  0  0  0  0  0  0  0  0  0  0
  144.1928   74.4169  219.6829 H   0  0  0  0  0  0  0  0  0  0  0  0
  142.6788   73.8427  218.8916 H   0  0  0  0  0  0  0  0  0  0  0  0
  142.0080   74.4930  221.6180 H   0  0  0  0  0  0  0  0  0  0  0  0
  139.8630   75.5811  221.3233 H   0  0  0  0  0  0  0  0  0  0  0  0
  138.4615   77.0382  222.7477 H   0  0  0  0  0  0  0  0  0  0  0  0
  138.1753   79.2210  223.9147 H   0  0  0  0  0  0  0  0  0  0  0  0
  139.0670   81.4561  224.4760 H   0  0  0  0  0  0  0  0  0  0  0  0
  141.2923   82.1744  223.6217 H   0  0  0  0  0  0  0  0  0  0  0  0
  142.6117   80.6204  222.1969 H   0  0  0  0  0  0  0  0  0  0  0  0
  140.3841   73.2965  220.2446 H   0  0  0  0  0  0  0  0  0  0  0  0
  139.3680   72.0746  219.3827 H   0  0  0  0  0  0  0  0  0  0  0  0
  140.1060   70.4050  221.1740 H   0  0  0  0  0  0  0  0  0  0  0  0
  139.1422   69.8542  222.7661 H   0  0  0  0  0  0  0  0  0  0  0  0
  138.9231   68.5098  224.8471 H   0  0  0  0  0  0  0  0  0  0  0  0
  139.3677   68.3122  227.2090 H   0  0  0  0  0  0  0  0  0  0  0  0
  140.3469   69.2797  229.2625 H   0  0  0  0  0  0  0  0  0  0  0  0
  141.4846   71.4611  229.2720 H   0  0  0  0  0  0  0  0  0  0  0  0
  141.6705   72.7758  227.1325 H   0  0  0  0  0  0  0  0  0  0  0  0
  1  2  1  0
  2  3  1  0
  3  4  1  0
  4  5  1  0
  5  6  1  0
  6  7  2  0
  6  8  1  0
  8  9  2  0
  9 10  1  0
 10 11  2  0
 11 12  1  0
 12 13  2  0
 13 14  1  0
 14 15  2  0
 15 16  1  0
 16 17  2  0
  2 18  1  0
 18 19  2  0
 18 20  1  0
 20 21  1  0
 21 22  1  0
 22 23  2  0
 22 24  1  0
 24 25  2  0
 25 26  1  0
 26 27  2  0
 27 28  1  0
 28 29  2  0
 29 30  1  0
 30 31  2  0
 31 32  1  0
 32 33  2  0
 17  8  1  0
 33 24  1  0
 16 11  1  0
 32 27  1  0
  1 34  1  0
  1 35  1  0
  1 36  1  0
  3 37  1  0
  3 38  1  0
  4 39  1  0
  4 40  1  0
  5 41  1  0
  9 42  1  0
 10 43  1  0
 12 44  1  0
 13 45  1  0
 14 46  1  0
 15 47  1  0
 20 48  1  0
 20 49  1  0
 21 50  1  0
 25 51  1  0
 26 52  1  0
 28 53  1  0
 29 54  1  0
 30 55  1  0
 31 56  1  0
M  END
>  <smiles>  (10) 
CN(CCNC(=O)c1ccc2ccccc2n1)C(=O)CNC(=O)c1ccc2ccccc2n1

>  <score_type>  (10) 
oracle

>  <origin>  (10) 
autodockgpu

>  <m_score__min__energy>  (10) 
-9.2200000000000006

>  <m_primary>  (10) 
energy

>  <rmsd>  (10) 
3.6340083762407542

>  <m_score__min__rmsd>  (10) 
3.6340083762407542

>  <meeko>  (10) 
{"free_energy": -8.22, "intermolecular_energy": -10.6, "internal_energy": -2.31, "cluster_size": 19, "cluster_id": 1, "rank_in_cluster": 17}

>  <energy>  (10) 
-8.59

>  <cluster_rmsd>  (10) 
1.03

>  <cluster>  (10) 
1

$$$$

     RDKit          3D

 56 59  0  0  0  0  0  0  0  0999 V2000
  141.0020   70.8330  220.6910 C   0  0  0  0  0  0  0  0  0  0  0  0
  140.1710   72.0270  220.6010 N   0  0  0  0  0  0  0  0  0  0  0  0
  138.8310   72.0400  220.0830 C   0  0  0  0  0  0  0  0  0  0  0  0
  137.8540   72.3630  221.1770 C   0  0  0  0  0  0  0  0  0  0  0  0
  138.4150   72.0440  222.4520 N   0  0  0  0  0  0  0  0  0  0  0  0
  138.4210   70.6580  222.8330 C   0  0  0  0  0  0  0  0  0  0  0  0
  137.9290   69.8450  222.0050 O   0  0  0  0  0  0  0  0  0  0  0  0
  138.9750   70.2440  224.1210 C   0  0  0  0  0  0  0  0  0  0  0  0
  138.8430   68.9130  224.4600 C   0  0  0  0  0  0  0  0  0  0  0  0
  139.3450   68.4670  225.6590 C   0  0  0  0  0  0  0  0  0  0  0  0
  139.9790   69.3370  226.5240 C   0  0  0  0  0  0  0  0  0  0  0  0
  140.5050   68.9690  227.7330 C   0  0  0  0  0  0  0  0  0  0  0  0
  141.1270   69.8950  228.5490 C   0  0  0  0  0  0  0  0  0  0  0  0
  141.2310   71.2210  228.1560 C   0  0  0  0  0  0  0  0  0  0  0  0
  140.7060   71.6050  226.9420 C   0  0  0  0  0  0  0  0  0  0  0  0
  140.0850   70.6630  226.1320 C   0  0  0  0  0  0  0  0  0  0  0  0
  139.5930   71.1010  224.9590 N   0  0  0  0  0  0  0  0  0  0  0  0
  140.7660   73.2360  221.0580 C   0  0  0  0  0  0  0  0  0  0  0  0
  140.6950   73.4640  222.2930 O   0  0  0  0  0  0  0  0  0  0  0  0
  141.4450   74.2140  220.2100 C   0  0  0  0  0  0  0  0  0  0  0  0
  141.5590   75.5120  220.8900 N   0  0  0  0  0  0  0  0  0  0  0  0
  141.4790   76.6550  220.0270 C   0  0  0  0  0  0  0  0  0  0  0  0
  141.3220   76.4570  218.7940 O   0  0  0  0  0  0  0  0  0  0  0  0
  141.5800   77.9920  220.6020 C   0  0  0  0  0  0  0  0  0  0  0  0
  141.4160   79.0660  219.7530 C   0  0  0  0  0  0  0  0  0  0  0  0
  141.4920   80.3760  220.1850 C   0  0  0  0  0  0  0  0  0  0  0  0
  141.7450   80.5720  221.5400 C   0  0  0  0  0  0  0  0  0  0  0  0
  141.8270   81.8670  222.0110 C   0  0  0  0  0  0  0  0  0  0  0  0
  142.0780   82.0290  223.3550 C   0  0  0  0  0  0  0  0  0  0  0  0
  142.2470   80.9730  224.2300 C   0  0  0  0  0  0  0  0  0  0  0  0
  142.1620   79.6660  223.7470 C   0  0  0  0  0  0  0  0  0  0  0  0
  141.9110   79.4870  222.4020 C   0  0  0  0  0  0  0  0  0  0  0  0
  141.8230   78.2180  221.9060 N   0  0  0  0  0  0  0  0  0  0  0  0
  141.1745   70.5852  221.7487 H   0  0  0  0  0  0  0  0  0  0  0  0
  140.4922   69.9933  220.1961 H   0  0  0  0  0  0  0  0  0  0  0  0
  141.9665   71.0194  220.1961 H   0  0  0  0  0  0  0  0  0  0  0  0
  138.7548   72.8005  219.2919 H   0  0  0  0  0  0  0  0  0  0  0  0
  138.5953   71.0466  219.6736 H   0  0  0  0  0  0  0  0  0  0  0  0
  137.6140   73.4360  221.1442 H   0  0  0  0  0  0  0  0  0  0  0  0
  136.9406   71.7682  221.0286 H   0  0  0  0  0  0  0  0  0  0  0  0
  138.8230   72.6960  223.1350 H   0  0  0  0  0  0  0  0  0  0  0  0
  138.3397   68.2142  223.7757 H   0  0  0  0  0  0  0  0  0  0  0  0
  139.2408   67.4066  225.9324 H   0  0  0  0  0  0  0  0  0  0  0  0
  140.4316   67.9212  228.0598 H   0  0  0  0  0  0  0  0  0  0  0  0
  141.5425   69.5781  229.5169 H   0  0  0  0  0  0  0  0  0  0  0  0
  141.7268   71.9570  228.8060 H   0  0  0  0  0  0  0  0  0  0  0  0
  140.7782   72.6529  226.6154 H   0  0  0  0  0  0  0  0  0  0  0  0
  142.4527   73.8439  219.9701 H   0  0  0  0  0  0  0  0  0  0  0  0
  140.8556   74.3503  219.2913 H   0  0  0  0  0  0  0  0  0  0  0  0
  141.6840   75.5920  221.9060 H   0  0  0  0  0  0  0  0  0  0  0  0
  141.2166   78.8719  218.6888 H   0  0  0  0  0  0  0  0  0  0  0  0
  141.3594   81.2212  219.4936 H   0  0  0  0  0  0  0  0  0  0  0  0
  141.6976   82.7309  221.3424 H   0  0  0  0  0  0  0  0  0  0  0  0
  142.1476   83.0522  223.7529 H   0  0  0  0  0  0  0  0  0  0  0  0
  142.4463   81.1602  225.2955 H   0  0  0  0  0  0  0  0  0  0  0  0
  142.2913   78.8045  224.4186 H   0  0  0  0  0  0  0  0  0  0  0  0
  1  2  1  0
  2  3  1  0
  3  4  1  0
  4  5  1  0
  5  6  1  0
  6  7  2  0
  6  8  1  0
  8  9  2  0
  9 10  1  0
 10 11  2  0
 11 12  1  0
 12 13  2  0
 13 14  1  0
 14 15  2  0
 15 16  1  0
 16 17  2  0
  2 18  1  0
 18 19  2  0
 18 20  1  0
 20 21  1  0
 21 22  1  0
 22 23  2  0
 22 24  1  0
 24 25  2  0
 25 26  1  0
 26 27  2  0
 27 28  1  0
 28 29  2  0
 29 30  1  0
 30 31  2  0
 31 32  1  0
 32 33  2  0
 17  8  1  0
 33 24  1  0
 16 11  1  0
 32 27  1  0
  1 34  1  0
  1 35  1  0
  1 36  1  0
  3 37  1  0
  3 38  1  0
  4 39  1  0
  4 40  1  0
  5 41  1  0
  9 42  1  0
 10 43  1  0
 12 44  1  0
 13 45  1  0
 14 46  1  0
 15 47  1  0
 20 48  1  0
 20 49  1  0
 21 50  1  0
 25 51  1  0
 26 52  1  0
 28 53  1  0
 29 54  1  0
 30 55  1  0
 31 56  1  0
M  END
>  <smiles>  (11) 
CN(CCNC(=O)c1ccc2ccccc2n1)C(=O)CNC(=O)c1ccc2ccccc2n1

>  <score_type>  (11) 
oracle

>  <origin>  (11) 
autodockgpu

>  <m_score__min__energy>  (11) 
-9.2200000000000006

>  <m_primary>  (11) 
energy

>  <rmsd>  (11) 
10.092664824275657

>  <m_score__min__rmsd>  (11) 
10.092664824275657

>  <meeko>  (11) 
{"free_energy": -8.48, "intermolecular_energy": -10.86, "internal_energy": -2.88, "cluster_size": 19, "cluster_id": 1, "rank_in_cluster": 13}

>  <energy>  (11) 
-8.55

>  <cluster_rmsd>  (11) 
1.83

>  <cluster>  (11) 
1

$$$$

     RDKit          3D

 56 59  0  0  0  0  0  0  0  0999 V2000
  140.2200   70.6360  220.9080 C   0  0  0  0  0  0  0  0  0  0  0  0
  139.6250   71.9660  220.9340 N   0  0  0  0  0  0  0  0  0  0  0  0
  138.2730   72.2530  220.5420 C   0  0  0  0  0  0  0  0  0  0  0  0
  137.3540   72.1370  221.7240 C   0  0  0  0  0  0  0  0  0  0  0  0
  138.0950   71.7910  222.8960 N   0  0  0  0  0  0  0  0  0  0  0  0
  138.0410   70.4200  223.3200 C   0  0  0  0  0  0  0  0  0  0  0  0
  137.3410   69.6410  222.6170 O   0  0  0  0  0  0  0  0  0  0  0  0
  138.7690   69.9790  224.5090 C   0  0  0  0  0  0  0  0  0  0  0  0
  138.7910   68.6230  224.7630 C   0  0  0  0  0  0  0  0  0  0  0  0
  139.4600   68.1520  225.8670 C   0  0  0  0  0  0  0  0  0  0  0  0
  140.1090   69.0230  226.7210 C   0  0  0  0  0  0  0  0  0  0  0  0
  140.7960   68.6320  227.8380 C   0  0  0  0  0  0  0  0  0  0  0  0
  141.4230   69.5590  228.6490 C   0  0  0  0  0  0  0  0  0  0  0  0
  141.3680   70.9110  228.3440 C   0  0  0  0  0  0  0  0  0  0  0  0
  140.6800   71.3190  227.2220 C   0  0  0  0  0  0  0  0  0  0  0  0
  140.0560   70.3740  226.4170 C   0  0  0  0  0  0  0  0  0  0  0  0
  139.4000   70.8360  225.3370 N   0  0  0  0  0  0  0  0  0  0  0  0
  140.4750   73.0200  221.3730 C   0  0  0  0  0  0  0  0  0  0  0  0
  140.4520   73.2830  222.6030 O   0  0  0  0  0  0  0  0  0  0  0  0
  141.3590   73.8040  220.5120 C   0  0  0  0  0  0  0  0  0  0  0  0
  141.7110   75.0840  221.1450 N   0  0  0  0  0  0  0  0  0  0  0  0
  140.7200   76.1120  221.0170 C   0  0  0  0  0  0  0  0  0  0  0  0
  139.6610   75.8430  220.3920 O   0  0  0  0  0  0  0  0  0  0  0  0
  140.9700   77.4230  221.6100 C   0  0  0  0  0  0  0  0  0  0  0  0
  141.1900   77.4750  222.9700 C   0  0  0  0  0  0  0  0  0  0  0  0
  141.4370   78.6580  223.6390 C   0  0  0  0  0  0  0  0  0  0  0  0
  141.4560   79.8180  222.8690 C   0  0  0  0  0  0  0  0  0  0  0  0
  141.7000   81.0210  223.5010 C   0  0  0  0  0  0  0  0  0  0  0  0
  141.7120   82.1500  222.7140 C   0  0  0  0  0  0  0  0  0  0  0  0
  141.4950   82.1280  221.3490 C   0  0  0  0  0  0  0  0  0  0  0  0
  141.2490   80.9090  220.7170 C   0  0  0  0  0  0  0  0  0  0  0  0
  141.2330   79.7680  221.4920 C   0  0  0  0  0  0  0  0  0  0  0  0
  140.9960   78.5620  220.8960 N   0  0  0  0  0  0  0  0  0  0  0  0
  140.3773   70.2845  221.9384 H   0  0  0  0  0  0  0  0  0  0  0  0
  139.5461   69.9430  220.3830 H   0  0  0  0  0  0  0  0  0  0  0  0
  141.1858   70.6766  220.3830 H   0  0  0  0  0  0  0  0  0  0  0  0
  138.2206   73.2756  220.1401 H   0  0  0  0  0  0  0  0  0  0  0  0
  137.9614   71.5306  219.7732 H   0  0  0  0  0  0  0  0  0  0  0  0
  136.8477   73.1000  221.8859 H   0  0  0  0  0  0  0  0  0  0  0  0
  136.6118   71.3500  221.5245 H   0  0  0  0  0  0  0  0  0  0  0  0
  138.6730   72.4150  223.4750 H   0  0  0  0  0  0  0  0  0  0  0  0
  138.2768   67.9242  224.0868 H   0  0  0  0  0  0  0  0  0  0  0  0
  139.4791   67.0716  226.0728 H   0  0  0  0  0  0  0  0  0  0  0  0
  140.8501   67.5637  228.0943 H   0  0  0  0  0  0  0  0  0  0  0  0
  141.9693   69.2223  229.5424 H   0  0  0  0  0  0  0  0  0  0  0  0
  141.8674   71.6483  228.9898 H   0  0  0  0  0  0  0  0  0  0  0  0
  140.6251   72.3871  226.9650 H   0  0  0  0  0  0  0  0  0  0  0  0
  142.2788   73.2309  220.3234 H   0  0  0  0  0  0  0  0  0  0  0  0
  140.8346   74.0122  219.5677 H   0  0  0  0  0  0  0  0  0  0  0  0
  142.5990   75.2270  221.6410 H   0  0  0  0  0  0  0  0  0  0  0  0
  141.1680   76.5375  223.5450 H   0  0  0  0  0  0  0  0  0  0  0  0
  141.6099   78.6824  224.7251 H   0  0  0  0  0  0  0  0  0  0  0  0
  141.8769   81.0747  224.5854 H   0  0  0  0  0  0  0  0  0  0  0  0
  141.9042   83.1199  223.1961 H   0  0  0  0  0  0  0  0  0  0  0  0
  141.5161   83.0615  220.7675 H   0  0  0  0  0  0  0  0  0  0  0  0
  141.0729   80.8591  219.6323 H   0  0  0  0  0  0  0  0  0  0  0  0
  1  2  1  0
  2  3  1  0
  3  4  1  0
  4  5  1  0
  5  6  1  0
  6  7  2  0
  6  8  1  0
  8  9  2  0
  9 10  1  0
 10 11  2  0
 11 12  1  0
 12 13  2  0
 13 14  1  0
 14 15  2  0
 15 16  1  0
 16 17  2  0
  2 18  1  0
 18 19  2  0
 18 20  1  0
 20 21  1  0
 21 22  1  0
 22 23  2  0
 22 24  1  0
 24 25  2  0
 25 26  1  0
 26 27  2  0
 27 28  1  0
 28 29  2  0
 29 30  1  0
 30 31  2  0
 31 32  1  0
 32 33  2  0
 17  8  1  0
 33 24  1  0
 16 11  1  0
 32 27  1  0
  1 34  1  0
  1 35  1  0
  1 36  1  0
  3 37  1  0
  3 38  1  0
  4 39  1  0
  4 40  1  0
  5 41  1  0
  9 42  1  0
 10 43  1  0
 12 44  1  0
 13 45  1  0
 14 46  1  0
 15 47  1  0
 20 48  1  0
 20 49  1  0
 21 50  1  0
 25 51  1  0
 26 52  1  0
 28 53  1  0
 29 54  1  0
 30 55  1  0
 31 56  1  0
M  END
>  <smiles>  (12) 
CN(CCNC(=O)c1ccc2ccccc2n1)C(=O)CNC(=O)c1ccc2ccccc2n1

>  <score_type>  (12) 
oracle

>  <origin>  (12) 
autodockgpu

>  <m_score__min__energy>  (12) 
-9.2200000000000006

>  <m_primary>  (12) 
energy

>  <rmsd>  (12) 
10.093431218970812

>  <m_score__min__rmsd>  (12) 
10.093431218970812

>  <meeko>  (12) 
{"free_energy": -8.87, "intermolecular_energy": -11.26, "internal_energy": -2.52, "cluster_size": 19, "cluster_id": 1, "rank_in_cluster": 6}

>  <energy>  (12) 
-8.48

>  <cluster_rmsd>  (12) 
1.83

>  <cluster>  (12) 
1

$$$$

     RDKit          3D

 56 59  0  0  0  0  0  0  0  0999 V2000
  140.3140   70.6370  220.6960 C   0  0  0  0  0  0  0  0  0  0  0  0
  139.7540   71.9810  220.7620 N   0  0  0  0  0  0  0  0  0  0  0  0
  138.4240   72.3230  220.3410 C   0  0  0  0  0  0  0  0  0  0  0  0
  137.5360   72.5230  221.5350 C   0  0  0  0  0  0  0  0  0  0  0  0
  138.1850   72.0560  222.7190 N   0  0  0  0  0  0  0  0  0  0  0  0
  138.0690   70.6550  223.0180 C   0  0  0  0  0  0  0  0  0  0  0  0
  137.4020   69.9610  222.2040 O   0  0  0  0  0  0  0  0  0  0  0  0
  138.7020   70.0930  224.2090 C   0  0  0  0  0  0  0  0  0  0  0  0
  138.6200   68.7260  224.3760 C   0  0  0  0  0  0  0  0  0  0  0  0
  139.1970   68.1430  225.4790 C   0  0  0  0  0  0  0  0  0  0  0  0
  139.8570   68.9120  226.4180 C   0  0  0  0  0  0  0  0  0  0  0  0
  140.4560   68.4060  227.5390 C   0  0  0  0  0  0  0  0  0  0  0  0
  141.1000   69.2360  228.4380 C   0  0  0  0  0  0  0  0  0  0  0  0
  141.1510   70.6040  228.2180 C   0  0  0  0  0  0  0  0  0  0  0  0
  140.5520   71.1270  227.0930 C   0  0  0  0  0  0  0  0  0  0  0  0
  139.9100   70.2800  226.1990 C   0  0  0  0  0  0  0  0  0  0  0  0
  139.3440   70.8520  225.1200 N   0  0  0  0  0  0  0  0  0  0  0  0
  140.6170   72.9900  221.2750 C   0  0  0  0  0  0  0  0  0  0  0  0
  140.6660   73.1030  222.5270 O   0  0  0  0  0  0  0  0  0  0  0  0
  141.4380   73.8880  220.4650 C   0  0  0  0  0  0  0  0  0  0  0  0
  141.6410   75.1750  221.1470 N   0  0  0  0  0  0  0  0  0  0  0  0
  140.4610   75.9760  221.2880 C   0  0  0  0  0  0  0  0  0  0  0  0
  139.3790   75.5250  220.8290 O   0  0  0  0  0  0  0  0  0  0  0  0
  140.5530   77.2730  221.9510 C   0  0  0  0  0  0  0  0  0  0  0  0
  139.3750   77.8860  222.3200 C   0  0  0  0  0  0  0  0  0  0  0  0
  139.3400   79.1140  222.9530 C   0  0  0  0  0  0  0  0  0  0  0  0
  140.5680   79.7180  223.2080 C   0  0  0  0  0  0  0  0  0  0  0  0
  140.5750   80.9460  223.8400 C   0  0  0  0  0  0  0  0  0  0  0  0
  141.8040   81.5190  224.0800 C   0  0  0  0  0  0  0  0  0  0  0  0
  143.0010   80.9280  223.7220 C   0  0  0  0  0  0  0  0  0  0  0  0
  142.9860   79.6870  223.0840 C   0  0  0  0  0  0  0  0  0  0  0  0
  141.7620   79.1000  222.8360 C   0  0  0  0  0  0  0  0  0  0  0  0
  141.7220   77.8850  222.2140 N   0  0  0  0  0  0  0  0  0  0  0  0
  140.4729   70.2555  221.7154 H   0  0  0  0  0  0  0  0  0  0  0  0
  139.6168   69.9751  220.1614 H   0  0  0  0  0  0  0  0  0  0  0  0
  141.2749   70.6660  220.1614 H   0  0  0  0  0  0  0  0  0  0  0  0
  138.4569   73.2522  219.7532 H   0  0  0  0  0  0  0  0  0  0  0  0
  138.0206   71.5039  219.7276 H   0  0  0  0  0  0  0  0  0  0  0  0
  137.3096   73.5940  221.6436 H   0  0  0  0  0  0  0  0  0  0  0  0
  136.6059   71.9543  221.3886 H   0  0  0  0  0  0  0  0  0  0  0  0
  138.7360   72.6100  223.3890 H   0  0  0  0  0  0  0  0  0  0  0  0
  138.0968   68.1073  223.6321 H   0  0  0  0  0  0  0  0  0  0  0  0
  139.1326   67.0534  225.6154 H   0  0  0  0  0  0  0  0  0  0  0  0
  140.4248   67.3228  227.7280 H   0  0  0  0  0  0  0  0  0  0  0  0
  141.5749   68.8083  229.3333 H   0  0  0  0  0  0  0  0  0  0  0  0
  141.6637   71.2639  228.9333 H   0  0  0  0  0  0  0  0  0  0  0  0
  140.5821   72.2102  226.9037 H   0  0  0  0  0  0  0  0  0  0  0  0
  142.4161   73.4177  220.2857 H   0  0  0  0  0  0  0  0  0  0  0  0
  140.9195   74.0738  219.5128 H   0  0  0  0  0  0  0  0  0  0  0  0
  142.5600   75.4730  221.4960 H   0  0  0  0  0  0  0  0  0  0  0  0
  138.4244   77.3773  222.1019 H   0  0  0  0  0  0  0  0  0  0  0  0
  138.3907   79.5896  223.2405 H   0  0  0  0  0  0  0  0  0  0  0  0
  139.6407   81.4441  224.1383 H   0  0  0  0  0  0  0  0  0  0  0  0
  141.8346   82.4971  224.5823 H   0  0  0  0  0  0  0  0  0  0  0  0
  143.9554   81.4306  223.9377 H   0  0  0  0  0  0  0  0  0  0  0  0
  143.9222   79.1913  222.7875 H   0  0  0  0  0  0  0  0  0  0  0  0
  1  2  1  0
  2  3  1  0
  3  4  1  0
  4  5  1  0
  5  6  1  0
  6  7  2  0
  6  8  1  0
  8  9  2  0
  9 10  1  0
 10 11  2  0
 11 12  1  0
 12 13  2  0
 13 14  1  0
 14 15  2  0
 15 16  1  0
 16 17  2  0
  2 18  1  0
 18 19  2  0
 18 20  1  0
 20 21  1  0
 21 22  1  0
 22 23  2  0
 22 24  1  0
 24 25  2  0
 25 26  1  0
 26 27  2  0
 27 28  1  0
 28 29  2  0
 29 30  1  0
 30 31  2  0
 31 32  1  0
 32 33  2  0
 17  8  1  0
 33 24  1  0
 16 11  1  0
 32 27  1  0
  1 34  1  0
  1 35  1  0
  1 36  1  0
  3 37  1  0
  3 38  1  0
  4 39  1  0
  4 40  1  0
  5 41  1  0
  9 42  1  0
 10 43  1  0
 12 44  1  0
 13 45  1  0
 14 46  1  0
 15 47  1  0
 20 48  1  0
 20 49  1  0
 21 50  1  0
 25 51  1  0
 26 52  1  0
 28 53  1  0
 29 54  1  0
 30 55  1  0
 31 56  1  0
M  END
>  <smiles>  (13) 
CN(CCNC(=O)c1ccc2ccccc2n1)C(=O)CNC(=O)c1ccc2ccccc2n1

>  <score_type>  (13) 
oracle

>  <origin>  (13) 
autodockgpu

>  <m_score__min__energy>  (13) 
-9.2200000000000006

>  <m_primary>  (13) 
energy

>  <rmsd>  (13) 
9.752909579729918

>  <m_score__min__rmsd>  (13) 
9.752909579729918

>  <meeko>  (13) 
{"free_energy": -9.2, "intermolecular_energy": -11.59, "internal_energy": -2.72, "cluster_size": 19, "cluster_id": 1, "rank_in_cluster": 2}

>  <energy>  (13) 
-8.48

>  <cluster_rmsd>  (13) 
1.16

>  <cluster>  (13) 
1

$$$$

     RDKit          3D

 56 59  0  0  0  0  0  0  0  0999 V2000
  143.6800   72.8370  218.5460 C   0  0  0  0  0  0  0  0  0  0  0  0
  142.5880   73.6930  218.9920 N   0  0  0  0  0  0  0  0  0  0  0  0
  141.4070   73.2150  219.6560 C   0  0  0  0  0  0  0  0  0  0  0  0
  141.5810   73.2980  221.1460 C   0  0  0  0  0  0  0  0  0  0  0  0
  141.6230   74.6630  221.5650 N   0  0  0  0  0  0  0  0  0  0  0  0
  140.3810   75.2580  221.9770 C   0  0  0  0  0  0  0  0  0  0  0  0
  139.3610   74.5170  221.9320 O   0  0  0  0  0  0  0  0  0  0  0  0
  140.3340   76.6500  222.4200 C   0  0  0  0  0  0  0  0  0  0  0  0
  139.0860   77.1920  222.6490 C   0  0  0  0  0  0  0  0  0  0  0  0
  138.9810   78.4970  223.0670 C   0  0  0  0  0  0  0  0  0  0  0  0
  140.1110   79.2670  223.2600 C   0  0  0  0  0  0  0  0  0  0  0  0
  140.0890   80.5710  223.6740 C   0  0  0  0  0  0  0  0  0  0  0  0
  141.2610   81.2830  223.8460 C   0  0  0  0  0  0  0  0  0  0  0  0
  142.4880   80.6860  223.6010 C   0  0  0  0  0  0  0  0  0  0  0  0
  142.5250   79.3740  223.1830 C   0  0  0  0  0  0  0  0  0  0  0  0
  141.3390   78.6720  223.0150 C   0  0  0  0  0  0  0  0  0  0  0  0
  141.4430   77.3940  222.6050 N   0  0  0  0  0  0  0  0  0  0  0  0
  142.7360   75.0830  218.7230 C   0  0  0  0  0  0  0  0  0  0  0  0
  142.1690   75.5170  217.6870 O   0  0  0  0  0  0  0  0  0  0  0  0
  143.4860   76.0260  219.5510 C   0  0  0  0  0  0  0  0  0  0  0  0
  142.6020   77.0670  220.0960 N   0  0  0  0  0  0  0  0  0  0  0  0
  142.2190   78.0830  219.1600 C   0  0  0  0  0  0  0  0  0  0  0  0
  142.6580   78.0030  217.9830 O   0  0  0  0  0  0  0  0  0  0  0  0
  141.3420   79.1640  219.6000 C   0  0  0  0  0  0  0  0  0  0  0  0
  139.9840   78.9250  219.5940 C   0  0  0  0  0  0  0  0  0  0  0  0
  139.0600   79.8740  219.9880 C   0  0  0  0  0  0  0  0  0  0  0  0
  139.5650   81.1040  220.4000 C   0  0  0  0  0  0  0  0  0  0  0  0
  138.6730   82.0780  220.8020 C   0  0  0  0  0  0  0  0  0  0  0  0
  139.2020   83.2830  221.2040 C   0  0  0  0  0  0  0  0  0  0  0  0
  140.5580   83.5510  221.2200 C   0  0  0  0  0  0  0  0  0  0  0  0
  141.4540   82.5620  220.8130 C   0  0  0  0  0  0  0  0  0  0  0  0
  140.9390   81.3480  220.4070 C   0  0  0  0  0  0  0  0  0  0  0  0
  141.7960   80.3630  220.0040 N   0  0  0  0  0  0  0  0  0  0  0  0
  144.2045   72.4258  219.4211 H   0  0  0  0  0  0  0  0  0  0  0  0
  143.2757   72.0127  217.9401 H   0  0  0  0  0  0  0  0  0  0  0  0
  144.3839   73.4264  217.9401 H   0  0  0  0  0  0  0  0  0  0  0  0
  140.5466   73.8310  219.3556 H   0  0  0  0  0  0  0  0  0  0  0  0
  141.2348   72.1663  219.3722 H   0  0  0  0  0  0  0  0  0  0  0  0
  140.7370   72.7930  221.6386 H   0  0  0  0  0  0  0  0  0  0  0  0
  142.5266   72.8093  221.4236 H   0  0  0  0  0  0  0  0  0  0  0  0
  142.4470   75.2770  221.6100 H   0  0  0  0  0  0  0  0  0  0  0  0
  138.1817   76.5841  222.4981 H   0  0  0  0  0  0  0  0  0  0  0  0
  137.9874   78.9323  223.2496 H   0  0  0  0  0  0  0  0  0  0  0  0
  139.1240   81.0600  223.8729 H   0  0  0  0  0  0  0  0  0  0  0  0
  141.2200   82.3304  224.1795 H   0  0  0  0  0  0  0  0  0  0  0  0
  143.4205   81.2530  223.7387 H   0  0  0  0  0  0  0  0  0  0  0  0
  143.4897   78.8847  222.9832 H   0  0  0  0  0  0  0  0  0  0  0  0
  143.9548   75.4803  220.3831 H   0  0  0  0  0  0  0  0  0  0  0  0
  144.2523   76.5085  218.9264 H   0  0  0  0  0  0  0  0  0  0  0  0
  142.2840   77.0620  221.0720 H   0  0  0  0  0  0  0  0  0  0  0  0
  139.6220   77.9405  219.2626 H   0  0  0  0  0  0  0  0  0  0  0  0
  137.9796   79.6678  219.9766 H   0  0  0  0  0  0  0  0  0  0  0  0
  137.5877   81.8988  220.8010 H   0  0  0  0  0  0  0  0  0  0  0  0
  138.5101   84.0738  221.5294 H   0  0  0  0  0  0  0  0  0  0  0  0
  140.9267   84.5334  221.5501 H   0  0  0  0  0  0  0  0  0  0  0  0
  142.5387   82.7446  220.8157 H   0  0  0  0  0  0  0  0  0  0  0  0
  1  2  1  0
  2  3  1  0
  3  4  1  0
  4  5  1  0
  5  6  1  0
  6  7  2  0
  6  8  1  0
  8  9  2  0
  9 10  1  0
 10 11  2  0
 11 12  1  0
 12 13  2  0
 13 14  1  0
 14 15  2  0
 15 16  1  0
 16 17  2  0
  2 18  1  0
 18 19  2  0
 18 20  1  0
 20 21  1  0
 21 22  1  0
 22 23  2  0
 22 24  1  0
 24 25  2  0
 25 26  1  0
 26 27  2  0
 27 28  1  0
 28 29  2  0
 29 30  1  0
 30 31  2  0
 31 32  1  0
 32 33  2  0
 17  8  1  0
 33 24  1  0
 16 11  1  0
 32 27  1  0
  1 34  1  0
  1 35  1  0
  1 36  1  0
  3 37  1  0
  3 38  1  0
  4 39  1  0
  4 40  1  0
  5 41  1  0
  9 42  1  0
 10 43  1  0
 12 44  1  0
 13 45  1  0
 14 46  1  0
 15 47  1  0
 20 48  1  0
 20 49  1  0
 21 50  1  0
 25 51  1  0
 26 52  1  0
 28 53  1  0
 29 54  1  0
 30 55  1  0
 31 56  1  0
M  END
>  <smiles>  (14) 
CN(CCNC(=O)c1ccc2ccccc2n1)C(=O)CNC(=O)c1ccc2ccccc2n1

>  <score_type>  (14) 
oracle

>  <origin>  (14) 
autodockgpu

>  <m_score__min__energy>  (14) 
-9.2200000000000006

>  <m_primary>  (14) 
energy

>  <rmsd>  (14) 
8.662282340345199

>  <m_score__min__rmsd>  (14) 
8.662282340345199

>  <meeko>  (14) 
{"free_energy": -6.37, "intermolecular_energy": -8.75, "internal_energy": -4.51, "cluster_size": 22, "cluster_id": 4, "rank_in_cluster": 6}

>  <energy>  (14) 
-8.44

>  <cluster_rmsd>  (14) 
1.12

>  <cluster>  (14) 
1

$$$$

     RDKit          3D

 56 59  0  0  0  0  0  0  0  0999 V2000
  143.4850   74.0530  220.4800 C   0  0  0  0  0  0  0  0  0  0  0  0
  142.2210   74.4750  219.8880 N   0  0  0  0  0  0  0  0  0  0  0  0
  142.0190   74.6850  218.4820 C   0  0  0  0  0  0  0  0  0  0  0  0
  142.9420   75.7570  217.9790 C   0  0  0  0  0  0  0  0  0  0  0  0
  143.0020   76.8370  218.9120 N   0  0  0  0  0  0  0  0  0  0  0  0
  141.8120   77.6270  219.0720 C   0  0  0  0  0  0  0  0  0  0  0  0
  140.8180   77.2940  218.3710 O   0  0  0  0  0  0  0  0  0  0  0  0
  141.7850   78.7520  220.0050 C   0  0  0  0  0  0  0  0  0  0  0  0
  141.3070   79.9540  219.5230 C   0  0  0  0  0  0  0  0  0  0  0  0
  141.2600   81.0450  220.3570 C   0  0  0  0  0  0  0  0  0  0  0  0
  141.6840   80.9500  221.6680 C   0  0  0  0  0  0  0  0  0  0  0  0
  141.6670   81.9890  222.5570 C   0  0  0  0  0  0  0  0  0  0  0  0
  142.1080   81.8210  223.8560 C   0  0  0  0  0  0  0  0  0  0  0  0
  142.5780   80.5890  224.2860 C   0  0  0  0  0  0  0  0  0  0  0  0
  142.6010   79.5340  223.4000 C   0  0  0  0  0  0  0  0  0  0  0  0
  142.1540   79.7180  222.0980 C   0  0  0  0  0  0  0  0  0  0  0  0
  142.2020   78.6490  221.2830 N   0  0  0  0  0  0  0  0  0  0  0  0
  141.1490   74.6890  220.7980 C   0  0  0  0  0  0  0  0  0  0  0  0
  141.2450   75.6930  221.5510 O   0  0  0  0  0  0  0  0  0  0  0  0
  139.9620   73.8430  220.9180 C   0  0  0  0  0  0  0  0  0  0  0  0
  139.8610   73.2650  222.2650 N   0  0  0  0  0  0  0  0  0  0  0  0
  140.2140   71.8780  222.3540 C   0  0  0  0  0  0  0  0  0  0  0  0
  140.5690   71.2870  221.3010 O   0  0  0  0  0  0  0  0  0  0  0  0
  140.1480   71.2060  223.6480 C   0  0  0  0  0  0  0  0  0  0  0  0
  139.5770   69.9510  223.6870 C   0  0  0  0  0  0  0  0  0  0  0  0
  139.4610   69.2220  224.8540 C   0  0  0  0  0  0  0  0  0  0  0  0
  139.9540   69.8170  226.0130 C   0  0  0  0  0  0  0  0  0  0  0  0
  139.8560   69.1190  227.2000 C   0  0  0  0  0  0  0  0  0  0  0  0
  140.3520   69.7320  228.3290 C   0  0  0  0  0  0  0  0  0  0  0  0
  140.9290   70.9880  228.3200 C   0  0  0  0  0  0  0  0  0  0  0  0
  141.0250   71.6870  227.1160 C   0  0  0  0  0  0  0  0  0  0  0  0
  140.5320   71.0860  225.9760 C   0  0  0  0  0  0  0  0  0  0  0  0
  140.6140   71.7500  224.7860 N   0  0  0  0  0  0  0  0  0  0  0  0
  143.4035   74.0802  221.5766 H   0  0  0  0  0  0  0  0  0  0  0  0
  143.7181   73.0283  220.1550 H   0  0  0  0  0  0  0  0  0  0  0  0
  144.2870   74.7321  220.1550 H   0  0  0  0  0  0  0  0  0  0  0  0
  142.2219   73.7483  217.9421 H   0  0  0  0  0  0  0  0  0  0  0  0
  140.9785   74.9991  218.3123 H   0  0  0  0  0  0  0  0  0  0  0  0
  143.9494   75.3357  217.8463 H   0  0  0  0  0  0  0  0  0  0  0  0
  142.5621   76.1346  217.0182 H   0  0  0  0  0  0  0  0  0  0  0  0
  143.8040   77.1170  219.4920 H   0  0  0  0  0  0  0  0  0  0  0  0
  140.9667   80.0377  218.4803 H   0  0  0  0  0  0  0  0  0  0  0  0
  140.8805   82.0047  219.9763 H   0  0  0  0  0  0  0  0  0  0  0  0
  141.2969   82.9730  222.2334 H   0  0  0  0  0  0  0  0  0  0  0  0
  142.0861   82.6708  224.5541 H   0  0  0  0  0  0  0  0  0  0  0  0
  142.9277   80.4559  225.3204 H   0  0  0  0  0  0  0  0  0  0  0  0
  142.9719   78.5500  223.7226 H   0  0  0  0  0  0  0  0  0  0  0  0
  139.0663   74.4497  220.7189 H   0  0  0  0  0  0  0  0  0  0  0  0
  140.0416   73.0224  220.1898 H   0  0  0  0  0  0  0  0  0  0  0  0
  139.5630   73.8150  223.0800 H   0  0  0  0  0  0  0  0  0  0  0  0
  139.1990   69.5135  222.7512 H   0  0  0  0  0  0  0  0  0  0  0  0
  139.0026   68.2222  224.8677 H   0  0  0  0  0  0  0  0  0  0  0  0
  139.4020   68.1179  227.2421 H   0  0  0  0  0  0  0  0  0  0  0  0
  140.2856   69.1948  229.2866 H   0  0  0  0  0  0  0  0  0  0  0  0
  141.3085   71.4319  229.2521 H   0  0  0  0  0  0  0  0  0  0  0  0
  141.4803   72.6876  227.0769 H   0  0  0  0  0  0  0  0  0  0  0  0
  1  2  1  0
  2  3  1  0
  3  4  1  0
  4  5  1  0
  5  6  1  0
  6  7  2  0
  6  8  1  0
  8  9  2  0
  9 10  1  0
 10 11  2  0
 11 12  1  0
 12 13  2  0
 13 14  1  0
 14 15  2  0
 15 16  1  0
 16 17  2  0
  2 18  1  0
 18 19  2  0
 18 20  1  0
 20 21  1  0
 21 22  1  0
 22 23  2  0
 22 24  1  0
 24 25  2  0
 25 26  1  0
 26 27  2  0
 27 28  1  0
 28 29  2  0
 29 30  1  0
 30 31  2  0
 31 32  1  0
 32 33  2  0
 17  8  1  0
 33 24  1  0
 16 11  1  0
 32 27  1  0
  1 34  1  0
  1 35  1  0
  1 36  1  0
  3 37  1  0
  3 38  1  0
  4 39  1  0
  4 40  1  0
  5 41  1  0
  9 42  1  0
 10 43  1  0
 12 44  1  0
 13 45  1  0
 14 46  1  0
 15 47  1  0
 20 48  1  0
 20 49  1  0
 21 50  1  0
 25 51  1  0
 26 52  1  0
 28 53  1  0
 29 54  1  0
 30 55  1  0
 31 56  1  0
M  END
>  <smiles>  (15) 
CN(CCNC(=O)c1ccc2ccccc2n1)C(=O)CNC(=O)c1ccc2ccccc2n1

>  <score_type>  (15) 
oracle

>  <origin>  (15) 
autodockgpu

>  <m_score__min__energy>  (15) 
-9.2200000000000006

>  <m_primary>  (15) 
energy

>  <rmsd>  (15) 
2.464672055627154

>  <m_score__min__rmsd>  (15) 
2.464672055627154

>  <meeko>  (15) 
{"free_energy": -9.14, "intermolecular_energy": -11.53, "internal_energy": -1.88, "cluster_size": 19, "cluster_id": 1, "rank_in_cluster": 3}

>  <energy>  (15) 
-8.38

>  <cluster_rmsd>  (15) 
1.14

>  <cluster>  (15) 
1

$$$$

     RDKit          3D

 56 59  0  0  0  0  0  0  0  0999 V2000
  139.1040   74.8510  218.5080 C   0  0  0  0  0  0  0  0  0  0  0  0
  139.1440   73.7580  219.4710 N   0  0  0  0  0  0  0  0  0  0  0  0
  140.1700   72.7530  219.5090 C   0  0  0  0  0  0  0  0  0  0  0  0
  141.4550   73.3410  220.0160 C   0  0  0  0  0  0  0  0  0  0  0  0
  141.2630   74.7080  220.3840 N   0  0  0  0  0  0  0  0  0  0  0  0
  140.6450   74.9610  221.6560 C   0  0  0  0  0  0  0  0  0  0  0  0
  140.3250   73.9480  222.3360 O   0  0  0  0  0  0  0  0  0  0  0  0
  140.4100   76.3300  222.1110 C   0  0  0  0  0  0  0  0  0  0  0  0
  139.1010   76.6940  222.3510 C   0  0  0  0  0  0  0  0  0  0  0  0
  138.8210   77.9690  222.7800 C   0  0  0  0  0  0  0  0  0  0  0  0
  139.8360   78.8860  222.9740 C   0  0  0  0  0  0  0  0  0  0  0  0
  139.6390   80.1710  223.3990 C   0  0  0  0  0  0  0  0  0  0  0  0
  140.7040   81.0350  223.5710 C   0  0  0  0  0  0  0  0  0  0  0  0
  142.0000   80.6140  223.3150 C   0  0  0  0  0  0  0  0  0  0  0  0
  142.2130   79.3220  222.8860 C   0  0  0  0  0  0  0  0  0  0  0  0
  141.1330   78.4650  222.7180 C   0  0  0  0  0  0  0  0  0  0  0  0
  141.4080   77.2170  222.2970 N   0  0  0  0  0  0  0  0  0  0  0  0
  138.0760   73.7160  220.4100 C   0  0  0  0  0  0  0  0  0  0  0  0
  137.5710   74.8220  220.7340 O   0  0  0  0  0  0  0  0  0  0  0  0
  137.5300   72.5010  221.0130 C   0  0  0  0  0  0  0  0  0  0  0  0
  138.1330   72.2490  222.3290 N   0  0  0  0  0  0  0  0  0  0  0  0
  138.2360   70.8650  222.6920 C   0  0  0  0  0  0  0  0  0  0  0  0
  137.8120   70.0050  221.8760 O   0  0  0  0  0  0  0  0  0  0  0  0
  138.8200   70.5060  223.9800 C   0  0  0  0  0  0  0  0  0  0  0  0
  138.6440   69.2120  224.4210 C   0  0  0  0  0  0  0  0  0  0  0  0
  139.1520   68.7600  225.6240 C   0  0  0  0  0  0  0  0  0  0  0  0
  139.8630   69.6820  226.3870 C   0  0  0  0  0  0  0  0  0  0  0  0
  140.3870   69.2680  227.5950 C   0  0  0  0  0  0  0  0  0  0  0  0
  141.0860   70.2010  228.3270 C   0  0  0  0  0  0  0  0  0  0  0  0
  141.2790   71.5050  227.9100 C   0  0  0  0  0  0  0  0  0  0  0  0
  140.7470   71.9170  226.6870 C   0  0  0  0  0  0  0  0  0  0  0  0
  140.0440   70.9920  225.9420 C   0  0  0  0  0  0  0  0  0  0  0  0
  139.5140   71.3710  224.7420 N   0  0  0  0  0  0  0  0  0  0  0  0
  139.0689   75.8109  219.0441 H   0  0  0  0  0  0  0  0  0  0  0  0
  140.0040   74.8164  217.8765 H   0  0  0  0  0  0  0  0  0  0  0  0
  138.2089   74.7507  217.8765 H   0  0  0  0  0  0  0  0  0  0  0  0
  139.8552   71.9378  220.1771 H   0  0  0  0  0  0  0  0  0  0  0  0
  140.3299   72.3654  218.4920 H   0  0  0  0  0  0  0  0  0  0  0  0
  141.7924   72.7724  220.8951 H   0  0  0  0  0  0  0  0  0  0  0  0
  142.2120   73.2875  219.2197 H   0  0  0  0  0  0  0  0  0  0  0  0
  141.5230   75.5430  219.8420 H   0  0  0  0  0  0  0  0  0  0  0  0
  138.2876   75.9690  222.2001 H   0  0  0  0  0  0  0  0  0  0  0  0
  137.7782   78.2625  222.9709 H   0  0  0  0  0  0  0  0  0  0  0  0
  138.6175   80.5221  223.6071 H   0  0  0  0  0  0  0  0  0  0  0  0
  140.5220   82.0643  223.9135 H   0  0  0  0  0  0  0  0  0  0  0  0
  142.8470   81.3023  223.4526 H   0  0  0  0  0  0  0  0  0  0  0  0
  143.2343   78.9707  222.6774 H   0  0  0  0  0  0  0  0  0  0  0  0
  136.4425   72.6158  221.1318 H   0  0  0  0  0  0  0  0  0  0  0  0
  137.7582   71.6500  220.3544 H   0  0  0  0  0  0  0  0  0  0  0  0
  138.4570   73.0080  222.9400 H   0  0  0  0  0  0  0  0  0  0  0  0
  138.0768   68.5115  223.7905 H   0  0  0  0  0  0  0  0  0  0  0  0
  139.0021   67.7239  225.9616 H   0  0  0  0  0  0  0  0  0  0  0  0
  140.2520   68.2380  227.9568 H   0  0  0  0  0  0  0  0  0  0  0  0
  141.5128   69.8934  229.2930 H   0  0  0  0  0  0  0  0  0  0  0  0
  141.8458   72.2104  228.5354 H   0  0  0  0  0  0  0  0  0  0  0  0
  140.8839   72.9477  226.3279 H   0  0  0  0  0  0  0  0  0  0  0  0
  1  2  1  0
  2  3  1  0
  3  4  1  0
  4  5  1  0
  5  6  1  0
  6  7  2  0
  6  8  1  0
  8  9  2  0
  9 10  1  0
 10 11  2  0
 11 12  1  0
 12 13  2  0
 13 14  1  0
 14 15  2  0
 15 16  1  0
 16 17  2  0
  2 18  1  0
 18 19  2  0
 18 20  1  0
 20 21  1  0
 21 22  1  0
 22 23  2  0
 22 24  1  0
 24 25  2  0
 25 26  1  0
 26 27  2  0
 27 28  1  0
 28 29  2  0
 29 30  1  0
 30 31  2  0
 31 32  1  0
 32 33  2  0
 17  8  1  0
 33 24  1  0
 16 11  1  0
 32 27  1  0
  1 34  1  0
  1 35  1  0
  1 36  1  0
  3 37  1  0
  3 38  1  0
  4 39  1  0
  4 40  1  0
  5 41  1  0
  9 42  1  0
 10 43  1  0
 12 44  1  0
 13 45  1  0
 14 46  1  0
 15 47  1  0
 20 48  1  0
 20 49  1  0
 21 50  1  0
 25 51  1  0
 26 52  1  0
 28 53  1  0
 29 54  1  0
 30 55  1  0
 31 56  1  0
M  END
>  <smiles>  (16) 
CN(CCNC(=O)c1ccc2ccccc2n1)C(=O)CNC(=O)c1ccc2ccccc2n1

>  <score_type>  (16) 
oracle

>  <origin>  (16) 
autodockgpu

>  <m_score__min__energy>  (16) 
-9.2200000000000006

>  <m_primary>  (16) 
energy

>  <rmsd>  (16) 
2.9132800567935777

>  <m_score__min__rmsd>  (16) 
2.9132800567935777

>  <meeko>  (16) 
{"free_energy": -8.38, "intermolecular_energy": -10.77, "internal_energy": -2.64, "cluster_size": 19, "cluster_id": 1, "rank_in_cluster": 15}

>  <energy>  (16) 
-8.32

>  <cluster_rmsd>  (16) 
1.79

>  <cluster>  (16) 
1

$$$$

     RDKit          3D

 56 59  0  0  0  0  0  0  0  0999 V2000
  143.0800   72.4070  218.7670 C   0  0  0  0  0  0  0  0  0  0  0  0
  142.3200   73.4950  219.3710 N   0  0  0  0  0  0  0  0  0  0  0  0
  142.8380   74.3810  220.3760 C   0  0  0  0  0  0  0  0  0  0  0  0
  143.5990   75.5050  219.7340 C   0  0  0  0  0  0  0  0  0  0  0  0
  143.0000   76.7600  220.0620 N   0  0  0  0  0  0  0  0  0  0  0  0
  142.0490   77.2930  219.1250 C   0  0  0  0  0  0  0  0  0  0  0  0
  141.8290   76.6030  218.0930 O   0  0  0  0  0  0  0  0  0  0  0  0
  141.3890   78.5720  219.3820 C   0  0  0  0  0  0  0  0  0  0  0  0
  142.1710   79.7060  219.3080 C   0  0  0  0  0  0  0  0  0  0  0  0
  141.6030   80.9360  219.5400 C   0  0  0  0  0  0  0  0  0  0  0  0
  140.2600   81.0450  219.8450 C   0  0  0  0  0  0  0  0  0  0  0  0
  139.6230   82.2310  220.0880 C   0  0  0  0  0  0  0  0  0  0  0  0
  138.2740   82.2650  220.3880 C   0  0  0  0  0  0  0  0  0  0  0  0
  137.5370   81.0930  220.4480 C   0  0  0  0  0  0  0  0  0  0  0  0
  138.1660   79.8910  220.2060 C   0  0  0  0  0  0  0  0  0  0  0  0
  139.5220   79.8730  219.9050 C   0  0  0  0  0  0  0  0  0  0  0  0
  140.0770   78.6680  219.6790 N   0  0  0  0  0  0  0  0  0  0  0  0
  140.9810   73.6470  218.9130 C   0  0  0  0  0  0  0  0  0  0  0  0
  140.7660   73.3680  217.7050 O   0  0  0  0  0  0  0  0  0  0  0  0
  139.8560   74.0940  219.7330 C   0  0  0  0  0  0  0  0  0  0  0  0
  140.0580   75.4740  220.1960 N   0  0  0  0  0  0  0  0  0  0  0  0
  140.0620   75.6380  221.6210 C   0  0  0  0  0  0  0  0  0  0  0  0
  139.8970   74.6150  222.3360 O   0  0  0  0  0  0  0  0  0  0  0  0
  140.2560   76.9700  222.1860 C   0  0  0  0  0  0  0  0  0  0  0  0
  139.1450   77.6190  222.6820 C   0  0  0  0  0  0  0  0  0  0  0  0
  139.2080   78.8810  223.2400 C   0  0  0  0  0  0  0  0  0  0  0  0
  140.4640   79.4830  223.2810 C   0  0  0  0  0  0  0  0  0  0  0  0
  140.5680   80.7450  223.8310 C   0  0  0  0  0  0  0  0  0  0  0  0
  141.8210   81.3140  223.8580 C   0  0  0  0  0  0  0  0  0  0  0  0
  142.9510   80.6880  223.3680 C   0  0  0  0  0  0  0  0  0  0  0  0
  142.8380   79.4120  222.8130 C   0  0  0  0  0  0  0  0  0  0  0  0
  141.5890   78.8280  222.7790 C   0  0  0  0  0  0  0  0  0  0  0  0
  141.4530   77.5800  222.2420 N   0  0  0  0  0  0  0  0  0  0  0  0
  143.5171   71.7812  219.5590 H   0  0  0  0  0  0  0  0  0  0  0  0
  142.4118   71.7952  218.1431 H   0  0  0  0  0  0  0  0  0  0  0  0
  143.8844   72.8238  218.1431 H   0  0  0  0  0  0  0  0  0  0  0  0
  142.0032   74.7948  220.9608 H   0  0  0  0  0  0  0  0  0  0  0  0
  143.5160   73.8189  221.0351 H   0  0  0  0  0  0  0  0  0  0  0  0
  144.6378   75.4931  220.0956 H   0  0  0  0  0  0  0  0  0  0  0  0
  143.5787   75.3732  218.6421 H   0  0  0  0  0  0  0  0  0  0  0  0
  143.1670   77.3310  220.9010 H   0  0  0  0  0  0  0  0  0  0  0  0
  143.2409   79.6265  219.0652 H   0  0  0  0  0  0  0  0  0  0  0  0
  142.2238   81.8423  219.4822 H   0  0  0  0  0  0  0  0  0  0  0  0
  140.1924   83.1711  220.0440 H   0  0  0  0  0  0  0  0  0  0  0  0
  137.7818   83.2297  220.5806 H   0  0  0  0  0  0  0  0  0  0  0  0
  136.4634   81.1218  220.6858 H   0  0  0  0  0  0  0  0  0  0  0  0
  137.5972   78.9505  220.2509 H   0  0  0  0  0  0  0  0  0  0  0  0
  138.9338   74.0464  219.1353 H   0  0  0  0  0  0  0  0  0  0  0  0
  139.7797   73.4369  220.6118 H   0  0  0  0  0  0  0  0  0  0  0  0
  140.1870   76.2600  219.5470 H   0  0  0  0  0  0  0  0  0  0  0  0
  138.1703   77.1118  222.6313 H   0  0  0  0  0  0  0  0  0  0  0  0
  138.3123   79.3851  223.6320 H   0  0  0  0  0  0  0  0  0  0  0  0
  139.6888   81.2722  224.2298 H   0  0  0  0  0  0  0  0  0  0  0  0
  141.9282   82.3190  224.2921 H   0  0  0  0  0  0  0  0  0  0  0  0
  143.9289   81.1895  223.4147 H   0  0  0  0  0  0  0  0  0  0  0  0
  143.7192   78.8878  222.4146 H   0  0  0  0  0  0  0  0  0  0  0  0
  1  2  1  0
  2  3  1  0
  3  4  1  0
  4  5  1  0
  5  6  1  0
  6  7  2  0
  6  8  1  0
  8  9  2  0
  9 10  1  0
 10 11  2  0
 11 12  1  0
 12 13  2  0
 13 14  1  0
 14 15  2  0
 15 16  1  0
 16 17  2  0
  2 18  1  0
 18 19  2  0
 18 20  1  0
 20 21  1  0
 21 22  1  0
 22 23  2  0
 22 24  1  0
 24 25  2  0
 25 26  1  0
 26 27  2  0
 27 28  1  0
 28 29  2  0
 29 30  1  0
 30 31  2  0
 31 32  1  0
 32 33  2  0
 17  8  1  0
 33 24  1  0
 16 11  1  0
 32 27  1  0
  1 34  1  0
  1 35  1  0
  1 36  1  0
  3 37  1  0
  3 38  1  0
  4 39  1  0
  4 40  1  0
  5 41  1  0
  9 42  1  0
 10 43  1  0
 12 44  1  0
 13 45  1  0
 14 46  1  0
 15 47  1  0
 20 48  1  0
 20 49  1  0
 21 50  1  0
 25 51  1  0
 26 52  1  0
 28 53  1  0
 29 54  1  0
 30 55  1  0
 31 56  1  0
M  END
>  <smiles>  (17) 
CN(CCNC(=O)c1ccc2ccccc2n1)C(=O)CNC(=O)c1ccc2ccccc2n1

>  <score_type>  (17) 
oracle

>  <origin>  (17) 
autodockgpu

>  <m_score__min__energy>  (17) 
-9.2200000000000006

>  <m_primary>  (17) 
energy

>  <rmsd>  (17) 
6.671073114005731

>  <m_score__min__rmsd>  (17) 
6.671073114005731

>  <meeko>  (17) 
{"free_energy": -5.82, "intermolecular_energy": -8.2, "internal_energy": -5.36, "cluster_size": 22, "cluster_id": 4, "rank_in_cluster": 21}

>  <energy>  (17) 
-8.22

>  <cluster_rmsd>  (17) 
1.83

>  <cluster>  (17) 
1

$$$$

     RDKit          3D

 56 59  0  0  0  0  0  0  0  0999 V2000
  140.5010   74.8440  218.6080 C   0  0  0  0  0  0  0  0  0  0  0  0
  141.6850   74.3140  219.2730 N   0  0  0  0  0  0  0  0  0  0  0  0
  141.6530   73.3010  220.2910 C   0  0  0  0  0  0  0  0  0  0  0  0
  140.7330   73.7120  221.4040 C   0  0  0  0  0  0  0  0  0  0  0  0
  141.0570   75.0280  221.8550 N   0  0  0  0  0  0  0  0  0  0  0  0
  139.9610   75.9290  222.0820 C   0  0  0  0  0  0  0  0  0  0  0  0
  138.8050   75.4740  221.8610 O   0  0  0  0  0  0  0  0  0  0  0  0
  140.2020   77.2940  222.5430 C   0  0  0  0  0  0  0  0  0  0  0  0
  139.0970   78.0420  222.8910 C   0  0  0  0  0  0  0  0  0  0  0  0
  139.2640   79.3330  223.3320 C   0  0  0  0  0  0  0  0  0  0  0  0
  140.5270   79.8860  223.4290 C   0  0  0  0  0  0  0  0  0  0  0  0
  140.7750   81.1610  223.8580 C   0  0  0  0  0  0  0  0  0  0  0  0
  142.0660   81.6490  223.9300 C   0  0  0  0  0  0  0  0  0  0  0  0
  143.1400   80.8510  223.5660 C   0  0  0  0  0  0  0  0  0  0  0  0
  142.9050   79.5650  223.1320 C   0  0  0  0  0  0  0  0  0  0  0  0
  141.6020   79.0890  223.0660 C   0  0  0  0  0  0  0  0  0  0  0  0
  141.4390   77.8250  222.6340 N   0  0  0  0  0  0  0  0  0  0  0  0
  142.9290   74.8710  218.8650 C   0  0  0  0  0  0  0  0  0  0  0  0
  143.3990   74.4520  217.7750 O   0  0  0  0  0  0  0  0  0  0  0  0
  143.6860   75.8780  219.6060 C   0  0  0  0  0  0  0  0  0  0  0  0
  142.8000   76.9320  220.1180 N   0  0  0  0  0  0  0  0  0  0  0  0
  142.3580   77.8790  219.1360 C   0  0  0  0  0  0  0  0  0  0  0  0
  142.7550   77.7320  217.9500 O   0  0  0  0  0  0  0  0  0  0  0  0
  141.4730   78.9670  219.5390 C   0  0  0  0  0  0  0  0  0  0  0  0
  140.1150   78.7290  219.5090 C   0  0  0  0  0  0  0  0  0  0  0  0
  139.1840   79.6840  219.8690 C   0  0  0  0  0  0  0  0  0  0  0  0
  139.6820   80.9200  220.2720 C   0  0  0  0  0  0  0  0  0  0  0  0
  138.7830   81.9010  220.6400 C   0  0  0  0  0  0  0  0  0  0  0  0
  139.3050   83.1130  221.0330 C   0  0  0  0  0  0  0  0  0  0  0  0
  140.6600   83.3800  221.0730 C   0  0  0  0  0  0  0  0  0  0  0  0
  141.5630   82.3840  220.7000 C   0  0  0  0  0  0  0  0  0  0  0  0
  141.0560   81.1640  220.3030 C   0  0  0  0  0  0  0  0  0  0  0  0
  141.9200   80.1730  219.9340 N   0  0  0  0  0  0  0  0  0  0  0  0
  139.7714   75.1706  219.3636 H   0  0  0  0  0  0  0  0  0  0  0  0
  140.7861   75.7004  217.9793 H   0  0  0  0  0  0  0  0  0  0  0  0
  140.0521   74.0609  217.9793 H   0  0  0  0  0  0  0  0  0  0  0  0
  141.2948   72.3575  219.8534 H   0  0  0  0  0  0  0  0  0  0  0  0
  142.6672   73.1668  220.6952 H   0  0  0  0  0  0  0  0  0  0  0  0
  139.6949   73.6984  221.0404 H   0  0  0  0  0  0  0  0  0  0  0  0
  140.8483   73.0084  222.2416 H   0  0  0  0  0  0  0  0  0  0  0  0
  141.9940   75.4100  222.0430 H   0  0  0  0  0  0  0  0  0  0  0  0
  138.0888   77.6084  222.8162 H   0  0  0  0  0  0  0  0  0  0  0  0
  138.3842   79.9318  223.6104 H   0  0  0  0  0  0  0  0  0  0  0  0
  139.9343   81.8075  224.1500 H   0  0  0  0  0  0  0  0  0  0  0  0
  142.2427   82.6773  224.2784 H   0  0  0  0  0  0  0  0  0  0  0  0
  144.1672   81.2402  223.6231 H   0  0  0  0  0  0  0  0  0  0  0  0
  143.7452   78.9183  222.8392 H   0  0  0  0  0  0  0  0  0  0  0  0
  144.1957   75.3941  220.4522 H   0  0  0  0  0  0  0  0  0  0  0  0
  144.4187   76.3363  218.9255 H   0  0  0  0  0  0  0  0  0  0  0  0
  142.5180   76.9840  221.1050 H   0  0  0  0  0  0  0  0  0  0  0  0
  139.7591   77.7397  219.1857 H   0  0  0  0  0  0  0  0  0  0  0  0
  138.1038   79.4782  219.8388 H   0  0  0  0  0  0  0  0  0  0  0  0
  137.6978   81.7223  220.6201 H   0  0  0  0  0  0  0  0  0  0  0  0
  138.6073   83.9097  221.3304 H   0  0  0  0  0  0  0  0  0  0  0  0
  141.0229   84.3671  221.3954 H   0  0  0  0  0  0  0  0  0  0  0  0
  142.6476   82.5662  220.7218 H   0  0  0  0  0  0  0  0  0  0  0  0
  1  2  1  0
  2  3  1  0
  3  4  1  0
  4  5  1  0
  5  6  1  0
  6  7  2  0
  6  8  1  0
  8  9  2  0
  9 10  1  0
 10 11  2  0
 11 12  1  0
 12 13  2  0
 13 14  1  0
 14 15  2  0
 15 16  1  0
 16 17  2  0
  2 18  1  0
 18 19  2  0
 18 20  1  0
 20 21  1  0
 21 22  1  0
 22 23  2  0
 22 24  1  0
 24 25  2  0
 25 26  1  0
 26 27  2  0
 27 28  1  0
 28 29  2  0
 29 30  1  0
 30 31  2  0
 31 32  1  0
 32 33  2  0
 17  8  1  0
 33 24  1  0
 16 11  1  0
 32 27  1  0
  1 34  1  0
  1 35  1  0
  1 36  1  0
  3 37  1  0
  3 38  1  0
  4 39  1  0
  4 40  1  0
  5 41  1  0
  9 42  1  0
 10 43  1  0
 12 44  1  0
 13 45  1  0
 14 46  1  0
 15 47  1  0
 20 48  1  0
 20 49  1  0
 21 50  1  0
 25 51  1  0
 26 52  1  0
 28 53  1  0
 29 54  1  0
 30 55  1  0
 31 56  1  0
M  END
>  <smiles>  (18) 
CN(CCNC(=O)c1ccc2ccccc2n1)C(=O)CNC(=O)c1ccc2ccccc2n1

>  <score_type>  (18) 
oracle

>  <origin>  (18) 
autodockgpu

>  <m_score__min__energy>  (18) 
-9.2200000000000006

>  <m_primary>  (18) 
energy

>  <rmsd>  (18) 
8.480611870356476

>  <m_score__min__rmsd>  (18) 
8.480611870356476

>  <meeko>  (18) 
{"free_energy": -6.35, "intermolecular_energy": -8.73, "internal_energy": -5.0, "cluster_size": 22, "cluster_id": 4, "rank_in_cluster": 7}

>  <energy>  (18) 
-8.17

>  <cluster_rmsd>  (18) 
1.25

>  <cluster>  (18) 
1

$$$$

     RDKit          3D

 56 59  0  0  0  0  0  0  0  0999 V2000
  140.6570   70.7710  220.5980 C   0  0  0  0  0  0  0  0  0  0  0  0
  139.8690   71.9920  220.7050 N   0  0  0  0  0  0  0  0  0  0  0  0
  138.4760   72.0870  220.3650 C   0  0  0  0  0  0  0  0  0  0  0  0
  137.6780   72.5230  221.5600 C   0  0  0  0  0  0  0  0  0  0  0  0
  138.2900   72.0530  222.7630 N   0  0  0  0  0  0  0  0  0  0  0  0
  138.2130   70.6430  223.0270 C   0  0  0  0  0  0  0  0  0  0  0  0
  137.6090   69.9430  222.1690 O   0  0  0  0  0  0  0  0  0  0  0  0
  138.8120   70.0780  224.2340 C   0  0  0  0  0  0  0  0  0  0  0  0
  138.7330   68.7090  224.3910 C   0  0  0  0  0  0  0  0  0  0  0  0
  139.2800   68.1230  225.5080 C   0  0  0  0  0  0  0  0  0  0  0  0
  139.9040   68.8910  226.4710 C   0  0  0  0  0  0  0  0  0  0  0  0
  140.4710   68.3820  227.6080 C   0  0  0  0  0  0  0  0  0  0  0  0
  141.0810   69.2110  228.5310 C   0  0  0  0  0  0  0  0  0  0  0  0
  141.1300   70.5810  228.3210 C   0  0  0  0  0  0  0  0  0  0  0  0
  140.5630   71.1070  227.1810 C   0  0  0  0  0  0  0  0  0  0  0  0
  139.9550   70.2610  226.2630 C   0  0  0  0  0  0  0  0  0  0  0  0
  139.4200   70.8350  225.1700 N   0  0  0  0  0  0  0  0  0  0  0  0
  140.5640   73.1430  221.1720 C   0  0  0  0  0  0  0  0  0  0  0  0
  140.5130   73.3640  222.4100 O   0  0  0  0  0  0  0  0  0  0  0  0
  141.3210   74.0690  220.3320 C   0  0  0  0  0  0  0  0  0  0  0  0
  141.5460   75.3450  221.0250 N   0  0  0  0  0  0  0  0  0  0  0  0
  140.3700   76.1420  221.2190 C   0  0  0  0  0  0  0  0  0  0  0  0
  139.2730   75.6950  220.7920 O   0  0  0  0  0  0  0  0  0  0  0  0
  140.4840   77.4290  221.8980 C   0  0  0  0  0  0  0  0  0  0  0  0
  139.3150   78.0740  222.2430 C   0  0  0  0  0  0  0  0  0  0  0  0
  139.3000   79.2960  222.8870 C   0  0  0  0  0  0  0  0  0  0  0  0
  140.5380   79.8610  223.1800 C   0  0  0  0  0  0  0  0  0  0  0  0
  140.5660   81.0820  223.8250 C   0  0  0  0  0  0  0  0  0  0  0  0
  141.8040   81.6150  224.1020 C   0  0  0  0  0  0  0  0  0  0  0  0
  142.9920   80.9930  223.7690 C   0  0  0  0  0  0  0  0  0  0  0  0
  142.9570   79.7580  223.1180 C   0  0  0  0  0  0  0  0  0  0  0  0
  141.7230   79.2110  222.8330 C   0  0  0  0  0  0  0  0  0  0  0  0
  141.6630   78.0030  222.1970 N   0  0  0  0  0  0  0  0  0  0  0  0
  140.8966   70.3998  221.6054 H   0  0  0  0  0  0  0  0  0  0  0  0
  140.0800   70.0087  220.0539 H   0  0  0  0  0  0  0  0  0  0  0  0
  141.5893   70.9828  220.0539 H   0  0  0  0  0  0  0  0  0  0  0  0
  138.3489   72.8213  219.5559 H   0  0  0  0  0  0  0  0  0  0  0  0
  138.1191   71.0998  220.0364 H   0  0  0  0  0  0  0  0  0  0  0  0
  137.6294   73.6217  221.5828 H   0  0  0  0  0  0  0  0  0  0  0  0
  136.6642   72.1026  221.4862 H   0  0  0  0  0  0  0  0  0  0  0  0
  138.7890   72.6120  223.4680 H   0  0  0  0  0  0  0  0  0  0  0  0
  138.2362   68.0915  223.6282 H   0  0  0  0  0  0  0  0  0  0  0  0
  139.2200   67.0321  225.6357 H   0  0  0  0  0  0  0  0  0  0  0  0
  140.4409   67.2976  227.7900 H   0  0  0  0  0  0  0  0  0  0  0  0
  141.5306   68.7810  229.4382 H   0  0  0  0  0  0  0  0  0  0  0  0
  141.6158   71.2397  229.0559 H   0  0  0  0  0  0  0  0  0  0  0  0
  140.5918   72.1914  226.9989 H   0  0  0  0  0  0  0  0  0  0  0  0
  142.2932   73.6177  220.0847 H   0  0  0  0  0  0  0  0  0  0  0  0
  140.7429   74.2645  219.4168 H   0  0  0  0  0  0  0  0  0  0  0  0
  142.4760   75.6410  221.3460 H   0  0  0  0  0  0  0  0  0  0  0  0
  138.3557   77.5961  221.9954 H   0  0  0  0  0  0  0  0  0  0  0  0
  138.3580   79.7970  223.1546 H   0  0  0  0  0  0  0  0  0  0  0  0
  139.6397   81.6052  224.1048 H   0  0  0  0  0  0  0  0  0  0  0  0
  141.8503   82.5868  224.6153 H   0  0  0  0  0  0  0  0  0  0  0  0
  143.9547   81.4654  224.0140 H   0  0  0  0  0  0  0  0  0  0  0  0
  143.8854   79.2371  222.8408 H   0  0  0  0  0  0  0  0  0  0  0  0
  1  2  1  0
  2  3  1  0
  3  4  1  0
  4  5  1  0
  5  6  1  0
  6  7  2  0
  6  8  1  0
  8  9  2  0
  9 10  1  0
 10 11  2  0
 11 12  1  0
 12 13  2  0
 13 14  1  0
 14 15  2  0
 15 16  1  0
 16 17  2  0
  2 18  1  0
 18 19  2  0
 18 20  1  0
 20 21  1  0
 21 22  1  0
 22 23  2  0
 22 24  1  0
 24 25  2  0
 25 26  1  0
 26 27  2  0
 27 28  1  0
 28 29  2  0
 29 30  1  0
 30 31  2  0
 31 32  1  0
 32 33  2  0
 17  8  1  0
 33 24  1  0
 16 11  1  0
 32 27  1  0
  1 34  1  0
  1 35  1  0
  1 36  1  0
  3 37  1  0
  3 38  1  0
  4 39  1  0
  4 40  1  0
  5 41  1  0
  9 42  1  0
 10 43  1  0
 12 44  1  0
 13 45  1  0
 14 46  1  0
 15 47  1  0
 20 48  1  0
 20 49  1  0
 21 50  1  0
 25 51  1  0
 26 52  1  0
 28 53  1  0
 29 54  1  0
 30 55  1  0
 31 56  1  0
M  END
>  <smiles>  (19) 
CN(CCNC(=O)c1ccc2ccccc2n1)C(=O)CNC(=O)c1ccc2ccccc2n1

>  <score_type>  (19) 
oracle

>  <origin>  (19) 
autodockgpu

>  <m_score__min__energy>  (19) 
-9.2200000000000006

>  <m_primary>  (19) 
energy

>  <rmsd>  (19) 
9.80869810513383

>  <m_score__min__rmsd>  (19) 
9.80869810513383

>  <meeko>  (19) 
{"free_energy": -9.22, "intermolecular_energy": -11.61, "internal_energy": -2.62, "cluster_size": 19, "cluster_id": 1, "rank_in_cluster": 1}

>  <energy>  (19) 
-8.14

>  <cluster_rmsd>  (19) 
1.22

>  <cluster>  (19) 
1

$$$$

     RDKit          3D

 56 59  0  0  0  0  0  0  0  0999 V2000
  137.8920   75.3520  219.5170 C   0  0  0  0  0  0  0  0  0  0  0  0
  138.6620   75.6680  220.7140 N   0  0  0  0  0  0  0  0  0  0  0  0
  138.9810   77.0020  221.1390 C   0  0  0  0  0  0  0  0  0  0  0  0
  138.1340   77.3880  222.3180 C   0  0  0  0  0  0  0  0  0  0  0  0
  137.6780   76.2210  223.0040 N   0  0  0  0  0  0  0  0  0  0  0  0
  136.2650   76.1130  223.2400 C   0  0  0  0  0  0  0  0  0  0  0  0
  135.5510   77.0640  222.8190 O   0  0  0  0  0  0  0  0  0  0  0  0
  135.7130   74.9520  223.9350 C   0  0  0  0  0  0  0  0  0  0  0  0
  134.8310   75.2010  224.9670 C   0  0  0  0  0  0  0  0  0  0  0  0
  134.2810   74.1470  225.6560 C   0  0  0  0  0  0  0  0  0  0  0  0
  134.6020   72.8450  225.3250 C   0  0  0  0  0  0  0  0  0  0  0  0
  134.0960   71.7450  225.9620 C   0  0  0  0  0  0  0  0  0  0  0  0
  134.4620   70.4690  225.5760 C   0  0  0  0  0  0  0  0  0  0  0  0
  135.3530   70.2780  224.5310 C   0  0  0  0  0  0  0  0  0  0  0  0
  135.8700   71.3780  223.8800 C   0  0  0  0  0  0  0  0  0  0  0  0
  135.4920   72.6530  224.2790 C   0  0  0  0  0  0  0  0  0  0  0  0
  136.0320   73.6850  223.6040 N   0  0  0  0  0  0  0  0  0  0  0  0
  139.1130   74.5540  221.4760 C   0  0  0  0  0  0  0  0  0  0  0  0
  140.0590   74.7690  222.2760 O   0  0  0  0  0  0  0  0  0  0  0  0
  138.5650   73.2010  221.3970 C   0  0  0  0  0  0  0  0  0  0  0  0
  138.6270   72.5310  222.7040 N   0  0  0  0  0  0  0  0  0  0  0  0
  139.8840   71.9100  223.0040 C   0  0  0  0  0  0  0  0  0  0  0  0
  140.8040   71.9880  222.1490 O   0  0  0  0  0  0  0  0  0  0  0  0
  140.0520   71.2170  224.2780 C   0  0  0  0  0  0  0  0  0  0  0  0
  140.7090   71.8880  225.2870 C   0  0  0  0  0  0  0  0  0  0  0  0
  140.9260   71.3320  226.5330 C   0  0  0  0  0  0  0  0  0  0  0  0
  140.4440   70.0410  226.7320 C   0  0  0  0  0  0  0  0  0  0  0  0
  140.6410   69.4500  227.9650 C   0  0  0  0  0  0  0  0  0  0  0  0
  140.1530   68.1740  228.1310 C   0  0  0  0  0  0  0  0  0  0  0  0
  139.4910   67.4760  227.1380 C   0  0  0  0  0  0  0  0  0  0  0  0
  139.2960   68.0800  225.8950 C   0  0  0  0  0  0  0  0  0  0  0  0
  139.7790   69.3590  225.7120 C   0  0  0  0  0  0  0  0  0  0  0  0
  139.5990   69.9710  224.5040 N   0  0  0  0  0  0  0  0  0  0  0  0
  136.9106   74.9493  219.8080 H   0  0  0  0  0  0  0  0  0  0  0  0
  137.7512   76.2651  218.9199 H   0  0  0  0  0  0  0  0  0  0  0  0
  138.4332   74.6033  218.9199 H   0  0  0  0  0  0  0  0  0  0  0  0
  140.0425   77.0485  221.4236 H   0  0  0  0  0  0  0  0  0  0  0  0
  138.7829   77.6991  220.3115 H   0  0  0  0  0  0  0  0  0  0  0  0
  138.7303   78.0042  223.0070 H   0  0  0  0  0  0  0  0  0  0  0  0
  137.2627   77.9570  221.9616 H   0  0  0  0  0  0  0  0  0  0  0  0
  138.2480   75.4370  223.3490 H   0  0  0  0  0  0  0  0  0  0  0  0
  134.5703   76.2353  225.2359 H   0  0  0  0  0  0  0  0  0  0  0  0
  133.5781   74.3421  226.4793 H   0  0  0  0  0  0  0  0  0  0  0  0
  133.3878   71.8778  226.7932 H   0  0  0  0  0  0  0  0  0  0  0  0
  134.0431   69.5985  226.1020 H   0  0  0  0  0  0  0  0  0  0  0  0
  135.6436   69.2621  224.2253 H   0  0  0  0  0  0  0  0  0  0  0  0
  136.5783   71.2461  223.0488 H   0  0  0  0  0  0  0  0  0  0  0  0
  137.5161   73.2561  221.0703 H   0  0  0  0  0  0  0  0  0  0  0  0
  139.1625   72.6221  220.6774 H   0  0  0  0  0  0  0  0  0  0  0  0
  137.8300   72.5110  223.3510 H   0  0  0  0  0  0  0  0  0  0  0  0
  141.0752   72.9068  225.0924 H   0  0  0  0  0  0  0  0  0  0  0  0
  141.4527   71.8812  227.3273 H   0  0  0  0  0  0  0  0  0  0  0  0
  141.1643   69.9756  228.7774 H   0  0  0  0  0  0  0  0  0  0  0  0
  140.2972   67.6836  229.1050 H   0  0  0  0  0  0  0  0  0  0  0  0
  139.1224   66.4567  227.3254 H   0  0  0  0  0  0  0  0  0  0  0  0
  138.7724   67.5514  225.0848 H   0  0  0  0  0  0  0  0  0  0  0  0
  1  2  1  0
  2  3  1  0
  3  4  1  0
  4  5  1  0
  5  6  1  0
  6  7  2  0
  6  8  1  0
  8  9  2  0
  9 10  1  0
 10 11  2  0
 11 12  1  0
 12 13  2  0
 13 14  1  0
 14 15  2  0
 15 16  1  0
 16 17  2  0
  2 18  1  0
 18 19  2  0
 18 20  1  0
 20 21  1  0
 21 22  1  0
 22 23  2  0
 22 24  1  0
 24 25  2  0
 25 26  1  0
 26 27  2  0
 27 28  1  0
 28 29  2  0
 29 30  1  0
 30 31  2  0
 31 32  1  0
 32 33  2  0
 17  8  1  0
 33 24  1  0
 16 11  1  0
 32 27  1  0
  1 34  1  0
  1 35  1  0
  1 36  1  0
  3 37  1  0
  3 38  1  0
  4 39  1  0
  4 40  1  0
  5 41  1  0
  9 42  1  0
 10 43  1  0
 12 44  1  0
 13 45  1  0
 14 46  1  0
 15 47  1  0
 20 48  1  0
 20 49  1  0
 21 50  1  0
 25 51  1  0
 26 52  1  0
 28 53  1  0
 29 54  1  0
 30 55  1  0
 31 56  1  0
M  END
>  <smiles>  (20) 
CN(CCNC(=O)c1ccc2ccccc2n1)C(=O)CNC(=O)c1ccc2ccccc2n1

>  <score_type>  (20) 
oracle

>  <origin>  (20) 
autodockgpu

>  <m_score__min__energy>  (20) 
-9.2200000000000006

>  <m_primary>  (20) 
energy

>  <rmsd>  (20) 
5.884332335151384

>  <m_score__min__rmsd>  (20) 
5.884332335151384

>  <meeko>  (20) 
{"free_energy": -7.95, "intermolecular_energy": -10.33, "internal_energy": -3.43, "cluster_size": 4, "cluster_id": 3, "rank_in_cluster": 3}

>  <energy>  (20) 
-8.74

>  <cluster_rmsd>  (20) 
0.0

>  <cluster>  (20) 
2

$$$$

     RDKit          3D

 56 59  0  0  0  0  0  0  0  0999 V2000
  139.7750   74.7890  218.8330 C   0  0  0  0  0  0  0  0  0  0  0  0
  139.8170   73.5550  219.6080 N   0  0  0  0  0  0  0  0  0  0  0  0
  140.9700   73.0970  220.3330 C   0  0  0  0  0  0  0  0  0  0  0  0
  140.8490   73.4620  221.7850 C   0  0  0  0  0  0  0  0  0  0  0  0
  141.1270   74.8510  221.9710 N   0  0  0  0  0  0  0  0  0  0  0  0
  140.0050   75.7120  222.2230 C   0  0  0  0  0  0  0  0  0  0  0  0
  138.8710   75.1620  222.2570 O   0  0  0  0  0  0  0  0  0  0  0  0
  140.1980   77.1470  222.4250 C   0  0  0  0  0  0  0  0  0  0  0  0
  139.0770   77.9470  222.3470 C   0  0  0  0  0  0  0  0  0  0  0  0
  139.2000   79.3040  222.5280 C   0  0  0  0  0  0  0  0  0  0  0  0
  140.4330   79.8710  222.7880 C   0  0  0  0  0  0  0  0  0  0  0  0
  140.6360   81.2100  222.9800 C   0  0  0  0  0  0  0  0  0  0  0  0
  141.9000   81.7080  223.2360 C   0  0  0  0  0  0  0  0  0  0  0  0
  142.9910   80.8560  223.3030 C   0  0  0  0  0  0  0  0  0  0  0  0
  142.8010   79.5050  223.1110 C   0  0  0  0  0  0  0  0  0  0  0  0
  141.5250   79.0200  222.8560 C   0  0  0  0  0  0  0  0  0  0  0  0
  141.4060   77.6910  222.6780 N   0  0  0  0  0  0  0  0  0  0  0  0
  138.6230   72.7810  219.6130 C   0  0  0  0  0  0  0  0  0  0  0  0
  138.4890   71.9520  218.6760 O   0  0  0  0  0  0  0  0  0  0  0  0
  137.5600   72.8780  220.6120 C   0  0  0  0  0  0  0  0  0  0  0  0
  138.0730   72.5800  221.9570 N   0  0  0  0  0  0  0  0  0  0  0  0
  138.3050   71.1890  222.2200 C   0  0  0  0  0  0  0  0  0  0  0  0
  138.0560   70.3630  221.3040 O   0  0  0  0  0  0  0  0  0  0  0  0
  138.8150   70.7850  223.5270 C   0  0  0  0  0  0  0  0  0  0  0  0
  138.4450   69.5440  223.9990 C   0  0  0  0  0  0  0  0  0  0  0  0
  138.8660   69.0560  225.2210 C   0  0  0  0  0  0  0  0  0  0  0  0
  139.6960   69.8860  225.9710 C   0  0  0  0  0  0  0  0  0  0  0  0
  140.1390   69.4340  227.1980 C   0  0  0  0  0  0  0  0  0  0  0  0
  140.9580   70.2750  227.9160 C   0  0  0  0  0  0  0  0  0  0  0  0
  141.3450   71.5240  227.4690 C   0  0  0  0  0  0  0  0  0  0  0  0
  140.8940   71.9740  226.2270 C   0  0  0  0  0  0  0  0  0  0  0  0
  140.0720   71.1420  225.4950 C   0  0  0  0  0  0  0  0  0  0  0  0
  139.6180   71.5600  224.2770 N   0  0  0  0  0  0  0  0  0  0  0  0
  139.7457   75.6504  219.5165 H   0  0  0  0  0  0  0  0  0  0  0  0
  140.6714   74.8544  218.1989 H   0  0  0  0  0  0  0  0  0  0  0  0
  138.8762   74.7933  218.1989 H   0  0  0  0  0  0  0  0  0  0  0  0
  141.0479   72.0038  220.2385 H   0  0  0  0  0  0  0  0  0  0  0  0
  141.8689   73.5752  219.9166 H   0  0  0  0  0  0  0  0  0  0  0  0
  139.8267   73.2471  222.1294 H   0  0  0  0  0  0  0  0  0  0  0  0
  141.5734   72.8709  222.3645 H   0  0  0  0  0  0  0  0  0  0  0  0
  142.0460   75.3120  221.9500 H   0  0  0  0  0  0  0  0  0  0  0  0
  138.0921   77.5024  222.1415 H   0  0  0  0  0  0  0  0  0  0  0  0
  138.3082   79.9449  222.4653 H   0  0  0  0  0  0  0  0  0  0  0  0
  139.7812   81.9005  222.9300 H   0  0  0  0  0  0  0  0  0  0  0  0
  142.0408   82.7884  223.3876 H   0  0  0  0  0  0  0  0  0  0  0  0
  143.9962   81.2535  223.5069 H   0  0  0  0  0  0  0  0  0  0  0  0
  143.6556   78.8141  223.1594 H   0  0  0  0  0  0  0  0  0  0  0  0
  137.1485   73.8981  220.6017 H   0  0  0  0  0  0  0  0  0  0  0  0
  136.7782   72.1449  220.3645 H   0  0  0  0  0  0  0  0  0  0  0  0
  138.2530   73.3140  222.6530 H   0  0  0  0  0  0  0  0  0  0  0  0
  137.7883   68.9171  223.3779 H   0  0  0  0  0  0  0  0  0  0  0  0
  138.5614   68.0630  225.5831 H   0  0  0  0  0  0  0  0  0  0  0  0
  139.8501   68.4455  227.5845 H   0  0  0  0  0  0  0  0  0  0  0  0
  141.3235   69.9355  228.8964 H   0  0  0  0  0  0  0  0  0  0  0  0
  142.0011   72.1565  228.0850 H   0  0  0  0  0  0  0  0  0  0  0  0
  141.1853   72.9628  225.8431 H   0  0  0  0  0  0  0  0  0  0  0  0
  1  2  1  0
  2  3  1  0
  3  4  1  0
  4  5  1  0
  5  6  1  0
  6  7  2  0
  6  8  1  0
  8  9  2  0
  9 10  1  0
 10 11  2  0
 11 12  1  0
 12 13  2  0
 13 14  1  0
 14 15  2  0
 15 16  1  0
 16 17  2  0
  2 18  1  0
 18 19  2  0
 18 20  1  0
 20 21  1  0
 21 22  1  0
 22 23  2  0
 22 24  1  0
 24 25  2  0
 25 26  1  0
 26 27  2  0
 27 28  1  0
 28 29  2  0
 29 30  1  0
 30 31  2  0
 31 32  1  0
 32 33  2  0
 17  8  1  0
 33 24  1  0
 16 11  1  0
 32 27  1  0
  1 34  1  0
  1 35  1  0
  1 36  1  0
  3 37  1  0
  3 38  1  0
  4 39  1  0
  4 40  1  0
  5 41  1  0
  9 42  1  0
 10 43  1  0
 12 44  1  0
 13 45  1  0
 14 46  1  0
 15 47  1  0
 20 48  1  0
 20 49  1  0
 21 50  1  0
 25 51  1  0
 26 52  1  0
 28 53  1  0
 29 54  1  0
 30 55  1  0
 31 56  1  0
M  END
>  <smiles>  (21) 
CN(CCNC(=O)c1ccc2ccccc2n1)C(=O)CNC(=O)c1ccc2ccccc2n1

>  <score_type>  (21) 
oracle

>  <origin>  (21) 
autodockgpu

>  <m_score__min__energy>  (21) 
-9.2200000000000006

>  <m_primary>  (21) 
energy

>  <rmsd>  (21) 
2.617005952134369

>  <m_score__min__rmsd>  (21) 
2.617005952134369

>  <meeko>  (21) 
{"free_energy": -8.14, "intermolecular_energy": -10.53, "internal_energy": -2.85, "cluster_size": 19, "cluster_id": 1, "rank_in_cluster": 19}

>  <energy>  (21) 
-8.07

>  <cluster_rmsd>  (21) 
0.0

>  <cluster>  (21) 
3

$$$$

     RDKit          3D

 56 59  0  0  0  0  0  0  0  0999 V2000
  142.4140   73.8450  217.7140 C   0  0  0  0  0  0  0  0  0  0  0  0
  142.6880   74.0950  219.1240 N   0  0  0  0  0  0  0  0  0  0  0  0
  142.3740   73.1760  220.1830 C   0  0  0  0  0  0  0  0  0  0  0  0
  141.1540   73.6380  220.9260 C   0  0  0  0  0  0  0  0  0  0  0  0
  141.3730   74.9380  221.4790 N   0  0  0  0  0  0  0  0  0  0  0  0
  140.2150   75.7650  221.6770 C   0  0  0  0  0  0  0  0  0  0  0  0
  139.1050   75.2680  221.3440 O   0  0  0  0  0  0  0  0  0  0  0  0
  140.3480   77.1090  222.2370 C   0  0  0  0  0  0  0  0  0  0  0  0
  139.2030   77.6970  222.7340 C   0  0  0  0  0  0  0  0  0  0  0  0
  139.2690   78.9600  223.2720 C   0  0  0  0  0  0  0  0  0  0  0  0
  140.4690   79.6430  223.3200 C   0  0  0  0  0  0  0  0  0  0  0  0
  140.6150   80.9000  223.8400 C   0  0  0  0  0  0  0  0  0  0  0  0
  141.8480   81.5240  223.8550 C   0  0  0  0  0  0  0  0  0  0  0  0
  142.9670   80.8840  223.3420 C   0  0  0  0  0  0  0  0  0  0  0  0
  142.8330   79.6180  222.8160 C   0  0  0  0  0  0  0  0  0  0  0  0
  141.5880   79.0040  222.8080 C   0  0  0  0  0  0  0  0  0  0  0  0
  141.5240   77.7680  222.2800 N   0  0  0  0  0  0  0  0  0  0  0  0
  143.2980   75.3450  219.4270 C   0  0  0  0  0  0  0  0  0  0  0  0
  144.0060   75.3850  220.4670 O   0  0  0  0  0  0  0  0  0  0  0  0
  143.1650   76.5630  218.6300 C   0  0  0  0  0  0  0  0  0  0  0  0
  142.5860   77.6540  219.4280 N   0  0  0  0  0  0  0  0  0  0  0  0
  141.7780   78.5790  218.6880 C   0  0  0  0  0  0  0  0  0  0  0  0
  141.6360   78.3860  217.4520 O   0  0  0  0  0  0  0  0  0  0  0  0
  141.1560   79.7000  219.3850 C   0  0  0  0  0  0  0  0  0  0  0  0
  141.9390   80.8050  219.6420 C   0  0  0  0  0  0  0  0  0  0  0  0
  141.4570   81.9230  220.2960 C   0  0  0  0  0  0  0  0  0  0  0  0
  140.1230   81.8880  220.6910 C   0  0  0  0  0  0  0  0  0  0  0  0
  139.6040   82.9870  221.3470 C   0  0  0  0  0  0  0  0  0  0  0  0
  138.2830   82.9230  221.7260 C   0  0  0  0  0  0  0  0  0  0  0  0
  137.4730   81.8290  221.4820 C   0  0  0  0  0  0  0  0  0  0  0  0
  138.0040   80.7220  220.8190 C   0  0  0  0  0  0  0  0  0  0  0  0
  139.3280   80.7710  220.4330 C   0  0  0  0  0  0  0  0  0  0  0  0
  139.8700   79.7000  219.7810 N   0  0  0  0  0  0  0  0  0  0  0  0
  141.6042   73.1061  217.6232 H   0  0  0  0  0  0  0  0  0  0  0  0
  142.1102   74.7836  217.2275 H   0  0  0  0  0  0  0  0  0  0  0  0
  143.3209   73.4567  217.2275 H   0  0  0  0  0  0  0  0  0  0  0  0
  142.1838   72.1804  219.7556 H   0  0  0  0  0  0  0  0  0  0  0  0
  143.2229   73.1292  220.8810 H   0  0  0  0  0  0  0  0  0  0  0  0
  140.3004   73.6773  220.2333 H   0  0  0  0  0  0  0  0  0  0  0  0
  140.9438   72.9322  221.7431 H   0  0  0  0  0  0  0  0  0  0  0  0
  142.2710   75.3530  221.7590 H   0  0  0  0  0  0  0  0  0  0  0  0
  138.2443   77.1588  222.6999 H   0  0  0  0  0  0  0  0  0  0  0  0
  138.3576   79.4316  223.6682 H   0  0  0  0  0  0  0  0  0  0  0  0
  139.7385   81.4214  224.2520 H   0  0  0  0  0  0  0  0  0  0  0  0
  141.9429   82.5355  224.2767 H   0  0  0  0  0  0  0  0  0  0  0  0
  143.9482   81.3810  223.3551 H   0  0  0  0  0  0  0  0  0  0  0  0
  143.7090   79.0956  222.4039 H   0  0  0  0  0  0  0  0  0  0  0  0
  144.1589   76.8683  218.2708 H   0  0  0  0  0  0  0  0  0  0  0  0
  142.4958   76.3557  217.7819 H   0  0  0  0  0  0  0  0  0  0  0  0
  142.7480   77.7430  220.4380 H   0  0  0  0  0  0  0  0  0  0  0  0
  142.9888   80.7966  219.3136 H   0  0  0  0  0  0  0  0  0  0  0  0
  142.0955   82.7964  220.4943 H   0  0  0  0  0  0  0  0  0  0  0  0
  140.2195   83.8741  221.5571 H   0  0  0  0  0  0  0  0  0  0  0  0
  137.8485   83.7869  222.2503 H   0  0  0  0  0  0  0  0  0  0  0  0
  136.4221   81.8315  221.8069 H   0  0  0  0  0  0  0  0  0  0  0  0
  137.3856   79.8366  220.6102 H   0  0  0  0  0  0  0  0  0  0  0  0
  1  2  1  0
  2  3  1  0
  3  4  1  0
  4  5  1  0
  5  6  1  0
  6  7  2  0
  6  8  1  0
  8  9  2  0
  9 10  1  0
 10 11  2  0
 11 12  1  0
 12 13  2  0
 13 14  1  0
 14 15  2  0
 15 16  1  0
 16 17  2  0
  2 18  1  0
 18 19  2  0
 18 20  1  0
 20 21  1  0
 21 22  1  0
 22 23  2  0
 22 24  1  0
 24 25  2  0
 25 26  1  0
 26 27  2  0
 27 28  1  0
 28 29  2  0
 29 30  1  0
 30 31  2  0
 31 32  1  0
 32 33  2  0
 17  8  1  0
 33 24  1  0
 16 11  1  0
 32 27  1  0
  1 34  1  0
  1 35  1  0
  1 36  1  0
  3 37  1  0
  3 38  1  0
  4 39  1  0
  4 40  1  0
  5 41  1  0
  9 42  1  0
 10 43  1  0
 12 44  1  0
 13 45  1  0
 14 46  1  0
 15 47  1  0
 20 48  1  0
 20 49  1  0
 21 50  1  0
 25 51  1  0
 26 52  1  0
 28 53  1  0
 29 54  1  0
 30 55  1  0
 31 56  1  0
M  END
>  <smiles>  (22) 
CN(CCNC(=O)c1ccc2ccccc2n1)C(=O)CNC(=O)c1ccc2ccccc2n1

>  <score_type>  (22) 
oracle

>  <origin>  (22) 
autodockgpu

>  <m_score__min__energy>  (22) 
-9.2200000000000006

>  <m_primary>  (22) 
energy

>  <rmsd>  (22) 
8.849460877049076

>  <m_score__min__rmsd>  (22) 
8.849460877049076

>  <meeko>  (22) 
{"free_energy": -6.18, "intermolecular_energy": -8.57, "internal_energy": -5.35, "cluster_size": 22, "cluster_id": 4, "rank_in_cluster": 12}

>  <energy>  (22) 
-7.97

>  <cluster_rmsd>  (22) 
1.5

>  <cluster>  (22) 
3

$$$$

     RDKit          3D

 56 59  0  0  0  0  0  0  0  0999 V2000
  141.8180   71.8500  220.6650 C   0  0  0  0  0  0  0  0  0  0  0  0
  140.3860   72.0810  220.5290 N   0  0  0  0  0  0  0  0  0  0  0  0
  139.4830   71.1840  219.8620 C   0  0  0  0  0  0  0  0  0  0  0  0
  138.3980   70.7460  220.8030 C   0  0  0  0  0  0  0  0  0  0  0  0
  138.8170   70.9170  222.1580 N   0  0  0  0  0  0  0  0  0  0  0  0
  139.1600   69.7290  222.8900 C   0  0  0  0  0  0  0  0  0  0  0  0
  139.0600   68.6370  222.2670 O   0  0  0  0  0  0  0  0  0  0  0  0
  139.5990   69.8130  224.2820 C   0  0  0  0  0  0  0  0  0  0  0  0
  139.4440   68.6820  225.0560 C   0  0  0  0  0  0  0  0  0  0  0  0
  139.8400   68.7040  226.3720 C   0  0  0  0  0  0  0  0  0  0  0  0
  140.3890   69.8450  226.9240 C   0  0  0  0  0  0  0  0  0  0  0  0
  140.8070   69.9440  228.2230 C   0  0  0  0  0  0  0  0  0  0  0  0
  141.3490   71.1200  228.7080 C   0  0  0  0  0  0  0  0  0  0  0  0
  141.4810   72.2260  227.8830 C   0  0  0  0  0  0  0  0  0  0  0  0
  141.0640   72.1400  226.5720 C   0  0  0  0  0  0  0  0  0  0  0  0
  140.5220   70.9520  226.0990 C   0  0  0  0  0  0  0  0  0  0  0  0
  140.1350   70.9320  224.8110 N   0  0  0  0  0  0  0  0  0  0  0  0
  139.8940   73.2880  221.0990 C   0  0  0  0  0  0  0  0  0  0  0  0
  139.9650   73.3860  222.3510 O   0  0  0  0  0  0  0  0  0  0  0  0
  139.3230   74.4050  220.3470 C   0  0  0  0  0  0  0  0  0  0  0  0
  139.9220   75.6810  220.7630 N   0  0  0  0  0  0  0  0  0  0  0  0
  139.2890   76.3060  221.8880 C   0  0  0  0  0  0  0  0  0  0  0  0
  138.3010   75.7270  222.4100 O   0  0  0  0  0  0  0  0  0  0  0  0
  139.8060   77.5780  222.3820 C   0  0  0  0  0  0  0  0  0  0  0  0
  138.8940   78.4930  222.8630 C   0  0  0  0  0  0  0  0  0  0  0  0
  139.2680   79.7290  223.3560 C   0  0  0  0  0  0  0  0  0  0  0  0
  140.6300   80.0170  223.3470 C   0  0  0  0  0  0  0  0  0  0  0  0
  141.0440   81.2430  223.8310 C   0  0  0  0  0  0  0  0  0  0  0  0
  142.3960   81.4990  223.8100 C   0  0  0  0  0  0  0  0  0  0  0  0
  143.3330   80.6020  223.3340 C   0  0  0  0  0  0  0  0  0  0  0  0
  142.9080   79.3650  222.8460 C   0  0  0  0  0  0  0  0  0  0  0  0
  141.5550   79.0930  222.8610 C   0  0  0  0  0  0  0  0  0  0  0  0
  141.1150   77.8900  222.3890 N   0  0  0  0  0  0  0  0  0  0  0  0
  142.0828   71.8073  221.7318 H   0  0  0  0  0  0  0  0  0  0  0  0
  142.0832   70.8975  220.1829 H   0  0  0  0  0  0  0  0  0  0  0  0
  142.3692   72.6708  220.1829 H   0  0  0  0  0  0  0  0  0  0  0  0
  139.0313   71.6973  219.0003 H   0  0  0  0  0  0  0  0  0  0  0  0
  140.0416   70.2996  219.5217 H   0  0  0  0  0  0  0  0  0  0  0  0
  137.4963   71.3499  220.6232 H   0  0  0  0  0  0  0  0  0  0  0  0
  138.1806   69.6821  220.6276 H   0  0  0  0  0  0  0  0  0  0  0  0
  138.9080   71.8010  222.6760 H   0  0  0  0  0  0  0  0  0  0  0  0
  139.0070   67.7698  224.6236 H   0  0  0  0  0  0  0  0  0  0  0  0
  139.7184   67.8036  226.9921 H   0  0  0  0  0  0  0  0  0  0  0  0
  140.7105   69.0755  228.8912 H   0  0  0  0  0  0  0  0  0  0  0  0
  141.6778   71.1783  229.7561 H   0  0  0  0  0  0  0  0  0  0  0  0
  141.9132   73.1607  228.2697 H   0  0  0  0  0  0  0  0  0  0  0  0
  141.1600   73.0083  225.9035 H   0  0  0  0  0  0  0  0  0  0  0  0
  139.5130   74.2511  219.2745 H   0  0  0  0  0  0  0  0  0  0  0  0
  138.2417   74.4444  220.5450 H   0  0  0  0  0  0  0  0  0  0  0  0
  140.7330   76.0910  220.2840 H   0  0  0  0  0  0  0  0  0  0  0  0
  137.8262   78.2290  222.8541 H   0  0  0  0  0  0  0  0  0  0  0  0
  138.5274   80.4482  223.7360 H   0  0  0  0  0  0  0  0  0  0  0  0
  140.3252   81.9814  224.2159 H   0  0  0  0  0  0  0  0  0  0  0  0
  142.7491   82.4682  224.1921 H   0  0  0  0  0  0  0  0  0  0  0  0
  144.4023   80.8598  223.3395 H   0  0  0  0  0  0  0  0  0  0  0  0
  143.6296   78.6294  222.4612 H   0  0  0  0  0  0  0  0  0  0  0  0
  1  2  1  0
  2  3  1  0
  3  4  1  0
  4  5  1  0
  5  6  1  0
  6  7  2  0
  6  8  1  0
  8  9  2  0
  9 10  1  0
 10 11  2  0
 11 12  1  0
 12 13  2  0
 13 14  1  0
 14 15  2  0
 15 16  1  0
 16 17  2  0
  2 18  1  0
 18 19  2  0
 18 20  1  0
 20 21  1  0
 21 22  1  0
 22 23  2  0
 22 24  1  0
 24 25  2  0
 25 26  1  0
 26 27  2  0
 27 28  1  0
 28 29  2  0
 29 30  1  0
 30 31  2  0
 31 32  1  0
 32 33  2  0
 17  8  1  0
 33 24  1  0
 16 11  1  0
 32 27  1  0
  1 34  1  0
  1 35  1  0
  1 36  1  0
  3 37  1  0
  3 38  1  0
  4 39  1  0
  4 40  1  0
  5 41  1  0
  9 42  1  0
 10 43  1  0
 12 44  1  0
 13 45  1  0
 14 46  1  0
 15 47  1  0
 20 48  1  0
 20 49  1  0
 21 50  1  0
 25 51  1  0
 26 52  1  0
 28 53  1  0
 29 54  1  0
 30 55  1  0
 31 56  1  0
M  END
>  <smiles>  (23) 
CN(CCNC(=O)c1ccc2ccccc2n1)C(=O)CNC(=O)c1ccc2ccccc2n1

>  <score_type>  (23) 
oracle

>  <origin>  (23) 
autodockgpu

>  <m_score__min__energy>  (23) 
-9.2200000000000006

>  <m_primary>  (23) 
energy

>  <rmsd>  (23) 
9.728990681796548

>  <m_score__min__rmsd>  (23) 
9.728990681796548

>  <meeko>  (23) 
{"free_energy": -8.71, "intermolecular_energy": -11.1, "internal_energy": -2.38, "cluster_size": 19, "cluster_id": 1, "rank_in_cluster": 8}

>  <energy>  (23) 
-7.95

>  <cluster_rmsd>  (23) 
0.77

>  <cluster>  (23) 
3

$$$$

     RDKit          3D

 56 59  0  0  0  0  0  0  0  0999 V2000
  143.0520   73.1090  218.3880 C   0  0  0  0  0  0  0  0  0  0  0  0
  143.4070   74.5180  218.5030 N   0  0  0  0  0  0  0  0  0  0  0  0
  143.7560   75.3560  217.3890 C   0  0  0  0  0  0  0  0  0  0  0  0
  142.7420   76.4520  217.2260 C   0  0  0  0  0  0  0  0  0  0  0  0
  142.8520   77.3920  218.2950 N   0  0  0  0  0  0  0  0  0  0  0  0
  141.6670   78.1270  218.6420 C   0  0  0  0  0  0  0  0  0  0  0  0
  140.6320   77.8750  217.9670 O   0  0  0  0  0  0  0  0  0  0  0  0
  141.6900   79.1100  219.7230 C   0  0  0  0  0  0  0  0  0  0  0  0
  141.2120   80.3710  219.4340 C   0  0  0  0  0  0  0  0  0  0  0  0
  141.2100   81.3350  220.4140 C   0  0  0  0  0  0  0  0  0  0  0  0
  141.6810   81.0530  221.6810 C   0  0  0  0  0  0  0  0  0  0  0  0
  141.7120   81.9570  222.7070 C   0  0  0  0  0  0  0  0  0  0  0  0
  142.1980   81.6040  223.9520 C   0  0  0  0  0  0  0  0  0  0  0  0
  142.6670   80.3200  224.1860 C   0  0  0  0  0  0  0  0  0  0  0  0
  142.6420   79.3990  223.1610 C   0  0  0  0  0  0  0  0  0  0  0  0
  142.1500   79.7690  221.9160 C   0  0  0  0  0  0  0  0  0  0  0  0
  142.1520   78.8240  220.9580 N   0  0  0  0  0  0  0  0  0  0  0  0
  143.4030   75.0560  219.8200 C   0  0  0  0  0  0  0  0  0  0  0  0
  144.2820   75.9190  220.0760 O   0  0  0  0  0  0  0  0  0  0  0  0
  142.4660   74.6850  220.8800 C   0  0  0  0  0  0  0  0  0  0  0  0
  141.6230   75.8270  221.2610 N   0  0  0  0  0  0  0  0  0  0  0  0
  140.3380   75.4780  221.7920 C   0  0  0  0  0  0  0  0  0  0  0  0
  140.0460   74.2570  221.8850 O   0  0  0  0  0  0  0  0  0  0  0  0
  139.4220   76.5380  222.2020 C   0  0  0  0  0  0  0  0  0  0  0  0
  138.0760   76.3370  221.9840 C   0  0  0  0  0  0  0  0  0  0  0  0
  137.1180   77.2710  222.3300 C   0  0  0  0  0  0  0  0  0  0  0  0
  137.5770   78.4460  222.9200 C   0  0  0  0  0  0  0  0  0  0  0  0
  136.6500   79.4030  223.2820 C   0  0  0  0  0  0  0  0  0  0  0  0
  137.1340   80.5540  223.8630 C   0  0  0  0  0  0  0  0  0  0  0  0
  138.4770   80.7830  224.0930 C   0  0  0  0  0  0  0  0  0  0  0  0
  139.4080   79.8100  223.7260 C   0  0  0  0  0  0  0  0  0  0  0  0
  138.9390   78.6510  223.1420 C   0  0  0  0  0  0  0  0  0  0  0  0
  139.8310   77.6850  222.7750 N   0  0  0  0  0  0  0  0  0  0  0  0
  142.9427   72.6752  219.3929 H   0  0  0  0  0  0  0  0  0  0  0  0
  142.1018   73.0137  217.8421 H   0  0  0  0  0  0  0  0  0  0  0  0
  143.8436   72.5748  217.8421 H   0  0  0  0  0  0  0  0  0  0  0  0
  144.7465   75.8008  217.5653 H   0  0  0  0  0  0  0  0  0  0  0  0
  143.7754   74.7462  216.4737 H   0  0  0  0  0  0  0  0  0  0  0  0
  142.9156   76.9677  216.2700 H   0  0  0  0  0  0  0  0  0  0  0  0
  141.7341   76.0117  217.2391 H   0  0  0  0  0  0  0  0  0  0  0  0
  143.6870   77.6040  218.8560 H   0  0  0  0  0  0  0  0  0  0  0  0
  140.8353   80.6036  218.4270 H   0  0  0  0  0  0  0  0  0  0  0  0
  140.8292   82.3416  220.1865 H   0  0  0  0  0  0  0  0  0  0  0  0
  141.3447   82.9802  222.5389 H   0  0  0  0  0  0  0  0  0  0  0  0
  142.2128   82.3469  224.7631 H   0  0  0  0  0  0  0  0  0  0  0  0
  143.0540   80.0403  225.1770 H   0  0  0  0  0  0  0  0  0  0  0  0
  143.0099   78.3759  223.3281 H   0  0  0  0  0  0  0  0  0  0  0  0
  141.8234   73.8671  220.5221 H   0  0  0  0  0  0  0  0  0  0  0  0
  143.0420   74.3652  221.7609 H   0  0  0  0  0  0  0  0  0  0  0  0
  141.9340   76.8010  221.1550 H   0  0  0  0  0  0  0  0  0  0  0  0
  137.7514   75.3959  221.5161 H   0  0  0  0  0  0  0  0  0  0  0  0
  136.0474   77.0953  222.1486 H   0  0  0  0  0  0  0  0  0  0  0  0
  135.5733   79.2529  223.1139 H   0  0  0  0  0  0  0  0  0  0  0  0
  136.4142   81.3312  224.1593 H   0  0  0  0  0  0  0  0  0  0  0  0
  138.8089   81.7219  224.5603 H   0  0  0  0  0  0  0  0  0  0  0  0
  140.4838   79.9625  223.8972 H   0  0  0  0  0  0  0  0  0  0  0  0
  1  2  1  0
  2  3  1  0
  3  4  1  0
  4  5  1  0
  5  6  1  0
  6  7  2  0
  6  8  1  0
  8  9  2  0
  9 10  1  0
 10 11  2  0
 11 12  1  0
 12 13  2  0
 13 14  1  0
 14 15  2  0
 15 16  1  0
 16 17  2  0
  2 18  1  0
 18 19  2  0
 18 20  1  0
 20 21  1  0
 21 22  1  0
 22 23  2  0
 22 24  1  0
 24 25  2  0
 25 26  1  0
 26 27  2  0
 27 28  1  0
 28 29  2  0
 29 30  1  0
 30 31  2  0
 31 32  1  0
 32 33  2  0
 17  8  1  0
 33 24  1  0
 16 11  1  0
 32 27  1  0
  1 34  1  0
  1 35  1  0
  1 36  1  0
  3 37  1  0
  3 38  1  0
  4 39  1  0
  4 40  1  0
  5 41  1  0
  9 42  1  0
 10 43  1  0
 12 44  1  0
 13 45  1  0
 14 46  1  0
 15 47  1  0
 20 48  1  0
 20 49  1  0
 21 50  1  0
 25 51  1  0
 26 52  1  0
 28 53  1  0
 29 54  1  0
 30 55  1  0
 31 56  1  0
M  END
>  <smiles>  (24) 
CN(CCNC(=O)c1ccc2ccccc2n1)C(=O)CNC(=O)c1ccc2ccccc2n1

>  <score_type>  (24) 
oracle

>  <origin>  (24) 
autodockgpu

>  <m_score__min__energy>  (24) 
-9.2200000000000006

>  <m_primary>  (24) 
energy

>  <rmsd>  (24) 
6.497600105581681

>  <m_score__min__rmsd>  (24) 
6.497600105581681

>  <meeko>  (24) 
{"free_energy": -7.15, "intermolecular_energy": -9.54, "internal_energy": -4.65, "cluster_size": 22, "cluster_id": 4, "rank_in_cluster": 1}

>  <energy>  (24) 
-7.67

>  <cluster_rmsd>  (24) 
1.04

>  <cluster>  (24) 
3

$$$$

     RDKit          3D

 56 59  0  0  0  0  0  0  0  0999 V2000
  139.9380   72.4460  222.2280 C   0  0  0  0  0  0  0  0  0  0  0  0
  139.5830   73.5780  221.3820 N   0  0  0  0  0  0  0  0  0  0  0  0
  138.2590   73.8290  220.8830 C   0  0  0  0  0  0  0  0  0  0  0  0
  137.4400   74.5430  221.9190 C   0  0  0  0  0  0  0  0  0  0  0  0
  138.2080   75.5830  222.5270 N   0  0  0  0  0  0  0  0  0  0  0  0
  138.4220   76.7740  221.7530 C   0  0  0  0  0  0  0  0  0  0  0  0
  137.9110   76.7950  220.6010 O   0  0  0  0  0  0  0  0  0  0  0  0
  139.1970   77.8870  222.2990 C   0  0  0  0  0  0  0  0  0  0  0  0
  138.4980   78.8620  222.9800 C   0  0  0  0  0  0  0  0  0  0  0  0
  139.1750   79.9320  223.5140 C   0  0  0  0  0  0  0  0  0  0  0  0
  140.5460   80.0380  223.3760 C   0  0  0  0  0  0  0  0  0  0  0  0
  141.2890   81.0710  223.8780 C   0  0  0  0  0  0  0  0  0  0  0  0
  142.6600   81.1120  223.7010 C   0  0  0  0  0  0  0  0  0  0  0  0
  143.3100   80.1030  223.0070 C   0  0  0  0  0  0  0  0  0  0  0  0
  142.5730   79.0580  222.4950 C   0  0  0  0  0  0  0  0  0  0  0  0
  141.1970   79.0300  222.6820 C   0  0  0  0  0  0  0  0  0  0  0  0
  140.5350   77.9820  222.1580 N   0  0  0  0  0  0  0  0  0  0  0  0
  140.6460   74.4620  221.0450 C   0  0  0  0  0  0  0  0  0  0  0  0
  141.4350   74.7700  221.9750 O   0  0  0  0  0  0  0  0  0  0  0  0
  140.8860   75.0250  219.7170 C   0  0  0  0  0  0  0  0  0  0  0  0
  140.7770   76.4910  219.7390 N   0  0  0  0  0  0  0  0  0  0  0  0
  141.7710   77.1810  218.9700 C   0  0  0  0  0  0  0  0  0  0  0  0
  142.6300   76.4940  218.3570 O   0  0  0  0  0  0  0  0  0  0  0  0
  141.7530   78.6400  218.9240 C   0  0  0  0  0  0  0  0  0  0  0  0
  142.6300   79.2620  218.0610 C   0  0  0  0  0  0  0  0  0  0  0  0
  142.7020   80.6350  217.9350 C   0  0  0  0  0  0  0  0  0  0  0  0
  141.8350   81.3810  218.7290 C   0  0  0  0  0  0  0  0  0  0  0  0
  141.8760   82.7580  218.6310 C   0  0  0  0  0  0  0  0  0  0  0  0
  141.0070   83.4680  219.4280 C   0  0  0  0  0  0  0  0  0  0  0  0
  140.1170   82.8720  220.3020 C   0  0  0  0  0  0  0  0  0  0  0  0
  140.0810   81.4800  220.3960 C   0  0  0  0  0  0  0  0  0  0  0  0
  140.9460   80.7540  219.6030 C   0  0  0  0  0  0  0  0  0  0  0  0
  140.9290   79.3910  219.6760 N   0  0  0  0  0  0  0  0  0  0  0  0
  139.8472   72.7357  223.2853 H   0  0  0  0  0  0  0  0  0  0  0  0
  139.2604   71.6051  222.0187 H   0  0  0  0  0  0  0  0  0  0  0  0
  140.9744   72.1426  222.0187 H   0  0  0  0  0  0  0  0  0  0  0  0
  138.3238   74.4519  219.9787 H   0  0  0  0  0  0  0  0  0  0  0  0
  137.7778   72.8690  220.6447 H   0  0  0  0  0  0  0  0  0  0  0  0
  136.5511   74.9803  221.4409 H   0  0  0  0  0  0  0  0  0  0  0  0
  137.1355   73.8233  222.6932 H   0  0  0  0  0  0  0  0  0  0  0  0
  138.6270   75.5810  223.4670 H   0  0  0  0  0  0  0  0  0  0  0  0
  137.4068   78.7835  223.0947 H   0  0  0  0  0  0  0  0  0  0  0  0
  138.6203   80.7117  224.0566 H   0  0  0  0  0  0  0  0  0  0  0  0
  140.7890   81.8804  224.4302 H   0  0  0  0  0  0  0  0  0  0  0  0
  143.2390   81.9513  224.1138 H   0  0  0  0  0  0  0  0  0  0  0  0
  144.4005   80.1366  222.8670 H   0  0  0  0  0  0  0  0  0  0  0  0
  143.0719   78.2494  221.9406 H   0  0  0  0  0  0  0  0  0  0  0  0
  141.8963   74.7443  219.3844 H   0  0  0  0  0  0  0  0  0  0  0  0
  140.1285   74.6275  219.0255 H   0  0  0  0  0  0  0  0  0  0  0  0
  140.0430   76.9810  220.2650 H   0  0  0  0  0  0  0  0  0  0  0  0
  143.2990   78.6396  217.4485 H   0  0  0  0  0  0  0  0  0  0  0  0
  143.4087   81.1153  217.2422 H   0  0  0  0  0  0  0  0  0  0  0  0
  142.5722   83.2648  217.9465 H   0  0  0  0  0  0  0  0  0  0  0  0
  141.0214   84.5662  219.3663 H   0  0  0  0  0  0  0  0  0  0  0  0
  139.4445   83.4883  220.9167 H   0  0  0  0  0  0  0  0  0  0  0  0
  139.3838   80.9765  221.0819 H   0  0  0  0  0  0  0  0  0  0  0  0
  1  2  1  0
  2  3  1  0
  3  4  1  0
  4  5  1  0
  5  6  1  0
  6  7  2  0
  6  8  1  0
  8  9  2  0
  9 10  1  0
 10 11  2  0
 11 12  1  0
 12 13  2  0
 13 14  1  0
 14 15  2  0
 15 16  1  0
 16 17  2  0
  2 18  1  0
 18 19  2  0
 18 20  1  0
 20 21  1  0
 21 22  1  0
 22 23  2  0
 22 24  1  0
 24 25  2  0
 25 26  1  0
 26 27  2  0
 27 28  1  0
 28 29  2  0
 29 30  1  0
 30 31  2  0
 31 32  1  0
 32 33  2  0
 17  8  1  0
 33 24  1  0
 16 11  1  0
 32 27  1  0
  1 34  1  0
  1 35  1  0
  1 36  1  0
  3 37  1  0
  3 38  1  0
  4 39  1  0
  4 40  1  0
  5 41  1  0
  9 42  1  0
 10 43  1  0
 12 44  1  0
 13 45  1  0
 14 46  1  0
 15 47  1  0
 20 48  1  0
 20 49  1  0
 21 50  1  0
 25 51  1  0
 26 52  1  0
 28 53  1  0
 29 54  1  0
 30 55  1  0
 31 56  1  0
M  END
>  <smiles>  (25) 
CN(CCNC(=O)c1ccc2ccccc2n1)C(=O)CNC(=O)c1ccc2ccccc2n1

>  <score_type>  (25) 
oracle

>  <origin>  (25) 
autodockgpu

>  <m_score__min__energy>  (25) 
-9.2200000000000006

>  <m_primary>  (25) 
energy

>  <rmsd>  (25) 
8.854578243291076

>  <m_score__min__rmsd>  (25) 
8.854578243291076

>  <meeko>  (25) 
{"free_energy": -6.26, "intermolecular_energy": -8.65, "internal_energy": -4.88, "cluster_size": 3, "cluster_id": 6, "rank_in_cluster": 3}

>  <energy>  (25) 
-7.15

>  <cluster_rmsd>  (25) 
0.0

>  <cluster>  (25) 
4

$$$$

     RDKit          3D

 56 59  0  0  0  0  0  0  0  0999 V2000
  135.6830   74.7370  219.4790 C   0  0  0  0  0  0  0  0  0  0  0  0
  136.6350   73.8070  220.0740 N   0  0  0  0  0  0  0  0  0  0  0  0
  137.7120   73.1850  219.3560 C   0  0  0  0  0  0  0  0  0  0  0  0
  138.9750   73.2340  220.1670 C   0  0  0  0  0  0  0  0  0  0  0  0
  138.8970   72.3170  221.2600 N   0  0  0  0  0  0  0  0  0  0  0  0
  139.7260   72.5910  222.4020 C   0  0  0  0  0  0  0  0  0  0  0  0
  140.4500   73.6210  222.3360 O   0  0  0  0  0  0  0  0  0  0  0  0
  139.7090   71.7040  223.5630 C   0  0  0  0  0  0  0  0  0  0  0  0
  138.9480   70.5570  223.4640 C   0  0  0  0  0  0  0  0  0  0  0  0
  138.8950   69.6860  224.5260 C   0  0  0  0  0  0  0  0  0  0  0  0
  139.5950   69.9490  225.6880 C   0  0  0  0  0  0  0  0  0  0  0  0
  139.5940   69.1320  226.7860 C   0  0  0  0  0  0  0  0  0  0  0  0
  140.3190   69.4590  227.9160 C   0  0  0  0  0  0  0  0  0  0  0  0
  141.0670   70.6260  227.9590 C   0  0  0  0  0  0  0  0  0  0  0  0
  141.0770   71.4570  226.8610 C   0  0  0  0  0  0  0  0  0  0  0  0
  140.3440   71.1150  225.7320 C   0  0  0  0  0  0  0  0  0  0  0  0
  140.3960   71.9690  224.6930 N   0  0  0  0  0  0  0  0  0  0  0  0
  136.4440   73.5190  221.4540 C   0  0  0  0  0  0  0  0  0  0  0  0
  136.2700   72.3100  221.7550 O   0  0  0  0  0  0  0  0  0  0  0  0
  136.4360   74.5090  222.5300 C   0  0  0  0  0  0  0  0  0  0  0  0
  137.7380   75.1840  222.6340 N   0  0  0  0  0  0  0  0  0  0  0  0
  137.6960   76.6070  222.4650 C   0  0  0  0  0  0  0  0  0  0  0  0
  136.5790   77.1460  222.2480 O   0  0  0  0  0  0  0  0  0  0  0  0
  138.9350   77.3740  222.5500 C   0  0  0  0  0  0  0  0  0  0  0  0
  140.0740   76.8050  222.0210 C   0  0  0  0  0  0  0  0  0  0  0  0
  141.3020   77.4370  222.0450 C   0  0  0  0  0  0  0  0  0  0  0  0
  141.3430   78.6970  222.6370 C   0  0  0  0  0  0  0  0  0  0  0  0
  142.5530   79.3620  222.6800 C   0  0  0  0  0  0  0  0  0  0  0  0
  142.5620   80.6050  223.2710 C   0  0  0  0  0  0  0  0  0  0  0  0
  141.4370   81.2000  223.8100 C   0  0  0  0  0  0  0  0  0  0  0  0
  140.2180   80.5220  223.7630 C   0  0  0  0  0  0  0  0  0  0  0  0
  140.1920   79.2750  223.1740 C   0  0  0  0  0  0  0  0  0  0  0  0
  139.0110   78.5920  223.1140 N   0  0  0  0  0  0  0  0  0  0  0  0
  135.1408   75.2667  220.2761 H   0  0  0  0  0  0  0  0  0  0  0  0
  136.2226   75.4655  218.8560 H   0  0  0  0  0  0  0  0  0  0  0  0
  134.9673   74.1806  218.8560 H   0  0  0  0  0  0  0  0  0  0  0  0
  137.4531   72.1359  219.1504 H   0  0  0  0  0  0  0  0  0  0  0  0
  137.8718   73.7254  218.4113 H   0  0  0  0  0  0  0  0  0  0  0  0
  139.8281   72.9644  219.5271 H   0  0  0  0  0  0  0  0  0  0  0  0
  139.1079   74.2520  220.5621 H   0  0  0  0  0  0  0  0  0  0  0  0
  138.3080   71.4760  221.3290 H   0  0  0  0  0  0  0  0  0  0  0  0
  138.3880   70.3414  222.5421 H   0  0  0  0  0  0  0  0  0  0  0  0
  138.2895   68.7708  224.4502 H   0  0  0  0  0  0  0  0  0  0  0  0
  139.0075   68.2015  226.7687 H   0  0  0  0  0  0  0  0  0  0  0  0
  140.3027   68.7886  228.7880 H   0  0  0  0  0  0  0  0  0  0  0  0
  141.6449   70.8845  228.8586 H   0  0  0  0  0  0  0  0  0  0  0  0
  141.6630   72.3877  226.8780 H   0  0  0  0  0  0  0  0  0  0  0  0
  135.6577   75.2584  222.3236 H   0  0  0  0  0  0  0  0  0  0  0  0
  136.2317   73.9930  223.4797 H   0  0  0  0  0  0  0  0  0  0  0  0
  138.6100   74.6720  222.8150 H   0  0  0  0  0  0  0  0  0  0  0  0
  140.0019   75.8081  221.5616 H   0  0  0  0  0  0  0  0  0  0  0  0
  142.2015   76.9691  221.6184 H   0  0  0  0  0  0  0  0  0  0  0  0
  143.4680   78.9182  222.2608 H   0  0  0  0  0  0  0  0  0  0  0  0
  143.5144   81.1535  223.3167 H   0  0  0  0  0  0  0  0  0  0  0  0
  141.5017   82.1967  224.2708 H   0  0  0  0  0  0  0  0  0  0  0  0
  139.3049   80.9689  224.1833 H   0  0  0  0  0  0  0  0  0  0  0  0
  1  2  1  0
  2  3  1  0
  3  4  1  0
  4  5  1  0
  5  6  1  0
  6  7  2  0
  6  8  1  0
  8  9  2  0
  9 10  1  0
 10 11  2  0
 11 12  1  0
 12 13  2  0
 13 14  1  0
 14 15  2  0
 15 16  1  0
 16 17  2  0
  2 18  1  0
 18 19  2  0
 18 20  1  0
 20 21  1  0
 21 22  1  0
 22 23  2  0
 22 24  1  0
 24 25  2  0
 25 26  1  0
 26 27  2  0
 27 28  1  0
 28 29  2  0
 29 30  1  0
 30 31  2  0
 31 32  1  0
 32 33  2  0
 17  8  1  0
 33 24  1  0
 16 11  1  0
 32 27  1  0
  1 34  1  0
  1 35  1  0
  1 36  1  0
  3 37  1  0
  3 38  1  0
  4 39  1  0
  4 40  1  0
  5 41  1  0
  9 42  1  0
 10 43  1  0
 12 44  1  0
 13 45  1  0
 14 46  1  0
 15 47  1  0
 20 48  1  0
 20 49  1  0
 21 50  1  0
 25 51  1  0
 26 52  1  0
 28 53  1  0
 29 54  1  0
 30 55  1  0
 31 56  1  0
M  END
>  <smiles>  (26) 
CN(CCNC(=O)c1ccc2ccccc2n1)C(=O)CNC(=O)c1ccc2ccccc2n1

>  <score_type>  (26) 
oracle

>  <origin>  (26) 
autodockgpu

>  <m_score__min__energy>  (26) 
-9.2200000000000006

>  <m_primary>  (26) 
energy

>  <rmsd>  (26) 
9.014433688097572

>  <m_score__min__rmsd>  (26) 
9.014433688097572

>  <meeko>  (26) 
{"free_energy": -8.48, "intermolecular_energy": -10.87, "internal_energy": -2.99, "cluster_size": 19, "cluster_id": 1, "rank_in_cluster": 12}

>  <energy>  (26) 
-6.49

>  <cluster_rmsd>  (26) 
1.6

>  <cluster>  (26) 
4

$$$$

     RDKit          3D

 56 59  0  0  0  0  0  0  0  0999 V2000
  143.0870   72.3760  218.6600 C   0  0  0  0  0  0  0  0  0  0  0  0
  142.7150   73.1880  219.8120 N   0  0  0  0  0  0  0  0  0  0  0  0
  143.6120   74.0730  220.5000 C   0  0  0  0  0  0  0  0  0  0  0  0
  143.8770   75.2940  219.6670 C   0  0  0  0  0  0  0  0  0  0  0  0
  142.9800   76.3450  220.0300 N   0  0  0  0  0  0  0  0  0  0  0  0
  142.5730   77.2450  218.9860 C   0  0  0  0  0  0  0  0  0  0  0  0
  143.0460   77.0240  217.8380 O   0  0  0  0  0  0  0  0  0  0  0  0
  141.6580   78.3490  219.2700 C   0  0  0  0  0  0  0  0  0  0  0  0
  142.2040   79.6140  219.3370 C   0  0  0  0  0  0  0  0  0  0  0  0
  141.3910   80.6890  219.6010 C   0  0  0  0  0  0  0  0  0  0  0  0
  140.0350   80.5150  219.7980 C   0  0  0  0  0  0  0  0  0  0  0  0
  139.1610   81.5340  220.0650 C   0  0  0  0  0  0  0  0  0  0  0  0
  137.8140   81.2850  220.2520 C   0  0  0  0  0  0  0  0  0  0  0  0
  137.3200   79.9920  220.1730 C   0  0  0  0  0  0  0  0  0  0  0  0
  138.1890   78.9570  219.9050 C   0  0  0  0  0  0  0  0  0  0  0  0
  139.5390   79.2220  219.7190 C   0  0  0  0  0  0  0  0  0  0  0  0
  140.3350   78.1680  219.4610 N   0  0  0  0  0  0  0  0  0  0  0  0
  141.3690   73.0570  220.2560 C   0  0  0  0  0  0  0  0  0  0  0  0
  141.1500   72.1780  221.1300 O   0  0  0  0  0  0  0  0  0  0  0  0
  140.2420   73.8570  219.7800 C   0  0  0  0  0  0  0  0  0  0  0  0
  140.3580   75.2510  220.2320 N   0  0  0  0  0  0  0  0  0  0  0  0
  140.1440   75.4500  221.6350 C   0  0  0  0  0  0  0  0  0  0  0  0
  139.8810   74.4430  222.3440 O   0  0  0  0  0  0  0  0  0  0  0  0
  140.2360   76.7980  222.1880 C   0  0  0  0  0  0  0  0  0  0  0  0
  139.0720   77.3820  222.6410 C   0  0  0  0  0  0  0  0  0  0  0  0
  139.0390   78.6530  223.1820 C   0  0  0  0  0  0  0  0  0  0  0  0
  140.2520   79.3320  223.2540 C   0  0  0  0  0  0  0  0  0  0  0  0
  140.2600   80.6050  223.7900 C   0  0  0  0  0  0  0  0  0  0  0  0
  141.4740   81.2510  223.8480 C   0  0  0  0  0  0  0  0  0  0  0  0
  142.6560   80.6910  223.4020 C   0  0  0  0  0  0  0  0  0  0  0  0
  142.6400   79.4040  222.8620 C   0  0  0  0  0  0  0  0  0  0  0  0
  141.4310   78.7430  222.7960 C   0  0  0  0  0  0  0  0  0  0  0  0
  141.3900   77.4830  222.2730 N   0  0  0  0  0  0  0  0  0  0  0  0
  143.5220   71.4266  219.0057 H   0  0  0  0  0  0  0  0  0  0  0  0
  142.1934   72.1702  218.0525 H   0  0  0  0  0  0  0  0  0  0  0  0
  143.8264   72.9184  218.0525 H   0  0  0  0  0  0  0  0  0  0  0  0
  143.1606   74.3765  221.4561 H   0  0  0  0  0  0  0  0  0  0  0  0
  144.5624   73.5499  220.6823 H   0  0  0  0  0  0  0  0  0  0  0  0
  144.9123   75.6276  219.8308 H   0  0  0  0  0  0  0  0  0  0  0  0
  143.7255   75.0440  218.6066 H   0  0  0  0  0  0  0  0  0  0  0  0
  142.5840   76.5340  220.9600 H   0  0  0  0  0  0  0  0  0  0  0  0
  143.2828   79.7607  219.1801 H   0  0  0  0  0  0  0  0  0  0  0  0
  141.8241   81.6987  219.6561 H   0  0  0  0  0  0  0  0  0  0  0  0
  139.5358   82.5660  220.1318 H   0  0  0  0  0  0  0  0  0  0  0  0
  137.1291   82.1190  220.4650 H   0  0  0  0  0  0  0  0  0  0  0  0
  136.2481   79.7950  220.3224 H   0  0  0  0  0  0  0  0  0  0  0  0
  137.8146   77.9248  219.8387 H   0  0  0  0  0  0  0  0  0  0  0  0
  140.2246   73.8356  218.6803 H   0  0  0  0  0  0  0  0  0  0  0  0
  139.3131   73.4321  220.1883 H   0  0  0  0  0  0  0  0  0  0  0  0
  140.5770   76.0220  219.5890 H   0  0  0  0  0  0  0  0  0  0  0  0
  138.1329   76.8138  222.5689 H   0  0  0  0  0  0  0  0  0  0  0  0
  138.1016   79.1054  223.5378 H   0  0  0  0  0  0  0  0  0  0  0  0
  139.3376   81.0811  224.1541 H   0  0  0  0  0  0  0  0  0  0  0  0
  141.5049   82.2658  224.2714 H   0  0  0  0  0  0  0  0  0  0  0  0
  143.5989   81.2532  223.4717 H   0  0  0  0  0  0  0  0  0  0  0  0
  143.5645   78.9306  222.4996 H   0  0  0  0  0  0  0  0  0  0  0  0
  1  2  1  0
  2  3  1  0
  3  4  1  0
  4  5  1  0
  5  6  1  0
  6  7  2  0
  6  8  1  0
  8  9  2  0
  9 10  1  0
 10 11  2  0
 11 12  1  0
 12 13  2  0
 13 14  1  0
 14 15  2  0
 15 16  1  0
 16 17  2  0
  2 18  1  0
 18 19  2  0
 18 20  1  0
 20 21  1  0
 21 22  1  0
 22 23  2  0
 22 24  1  0
 24 25  2  0
 25 26  1  0
 26 27  2  0
 27 28  1  0
 28 29  2  0
 29 30  1  0
 30 31  2  0
 31 32  1  0
 32 33  2  0
 17  8  1  0
 33 24  1  0
 16 11  1  0
 32 27  1  0
  1 34  1  0
  1 35  1  0
  1 36  1  0
  3 37  1  0
  3 38  1  0
  4 39  1  0
  4 40  1  0
  5 41  1  0
  9 42  1  0
 10 43  1  0
 12 44  1  0
 13 45  1  0
 14 46  1  0
 15 47  1  0
 20 48  1  0
 20 49  1  0
 21 50  1  0
 25 51  1  0
 26 52  1  0
 28 53  1  0
 29 54  1  0
 30 55  1  0
 31 56  1  0
M  END
>  <smiles>  (27) 
CN(CCNC(=O)c1ccc2ccccc2n1)C(=O)CNC(=O)c1ccc2ccccc2n1

>  <score_type>  (27) 
oracle

>  <origin>  (27) 
autodockgpu

>  <m_score__min__energy>  (27) 
-9.2200000000000006

>  <m_primary>  (27) 
energy

>  <rmsd>  (27) 
6.600827281780946

>  <m_score__min__rmsd>  (27) 
6.600827281780946

>  <meeko>  (27) 
{"free_energy": -6.07, "intermolecular_energy": -8.46, "internal_energy": -5.27, "cluster_size": 22, "cluster_id": 4, "rank_in_cluster": 14}

>  <energy>  (27) 
-6.47

>  <cluster_rmsd>  (27) 
1.82

>  <cluster>  (27) 
4

$$$$

     RDKit          3D

 56 59  0  0  0  0  0  0  0  0999 V2000
  144.2860   72.7670  219.4160 C   0  0  0  0  0  0  0  0  0  0  0  0
  143.2120   73.7490  219.5090 N   0  0  0  0  0  0  0  0  0  0  0  0
  141.8190   73.4140  219.6160 C   0  0  0  0  0  0  0  0  0  0  0  0
  141.3610   73.5500  221.0400 C   0  0  0  0  0  0  0  0  0  0  0  0
  141.4790   74.9070  221.4710 N   0  0  0  0  0  0  0  0  0  0  0  0
  140.2830   75.5460  221.9480 C   0  0  0  0  0  0  0  0  0  0  0  0
  139.2330   74.8480  221.9430 O   0  0  0  0  0  0  0  0  0  0  0  0
  140.3130   76.9330  222.4070 C   0  0  0  0  0  0  0  0  0  0  0  0
  139.1010   77.5210  222.7040 C   0  0  0  0  0  0  0  0  0  0  0  0
  139.0690   78.8240  223.1410 C   0  0  0  0  0  0  0  0  0  0  0  0
  140.2370   79.5470  223.2840 C   0  0  0  0  0  0  0  0  0  0  0  0
  140.2880   80.8460  223.7120 C   0  0  0  0  0  0  0  0  0  0  0  0
  141.4950   81.5090  223.8320 C   0  0  0  0  0  0  0  0  0  0  0  0
  142.6840   80.8670  223.5190 C   0  0  0  0  0  0  0  0  0  0  0  0
  142.6470   79.5600  223.0860 C   0  0  0  0  0  0  0  0  0  0  0  0
  141.4270   78.9070  222.9720 C   0  0  0  0  0  0  0  0  0  0  0  0
  141.4590   77.6310  222.5440 N   0  0  0  0  0  0  0  0  0  0  0  0
  143.6130   75.1140  219.4770 C   0  0  0  0  0  0  0  0  0  0  0  0
  144.2670   75.5290  220.4680 O   0  0  0  0  0  0  0  0  0  0  0  0
  143.3250   76.0520  218.3930 C   0  0  0  0  0  0  0  0  0  0  0  0
  142.8110   77.3240  218.9200 N   0  0  0  0  0  0  0  0  0  0  0  0
  141.3840   77.4600  218.8840 C   0  0  0  0  0  0  0  0  0  0  0  0
  140.7090   76.5050  218.4170 O   0  0  0  0  0  0  0  0  0  0  0  0
  140.7700   78.6860  219.3840 C   0  0  0  0  0  0  0  0  0  0  0  0
  139.3970   78.7110  219.4980 C   0  0  0  0  0  0  0  0  0  0  0  0
  138.7070   79.8160  219.9580 C   0  0  0  0  0  0  0  0  0  0  0  0
  139.4720   80.9250  220.3110 C   0  0  0  0  0  0  0  0  0  0  0  0
  138.8200   82.0500  220.7760 C   0  0  0  0  0  0  0  0  0  0  0  0
  139.6020   83.1300  221.1170 C   0  0  0  0  0  0  0  0  0  0  0  0
  140.9800   83.1340  221.0140 C   0  0  0  0  0  0  0  0  0  0  0  0
  141.6320   81.9940  220.5430 C   0  0  0  0  0  0  0  0  0  0  0  0
  140.8620   80.9030  220.1970 C   0  0  0  0  0  0  0  0  0  0  0  0
  141.4780   79.7750  219.7340 N   0  0  0  0  0  0  0  0  0  0  0  0
  144.6049   72.4754  220.4276 H   0  0  0  0  0  0  0  0  0  0  0  0
  143.9256   71.8796  218.8751 H   0  0  0  0  0  0  0  0  0  0  0  0
  145.1377   73.2052  218.8751 H   0  0  0  0  0  0  0  0  0  0  0  0
  141.2322   74.0923  218.9792 H   0  0  0  0  0  0  0  0  0  0  0  0
  141.6739   72.3735  219.2900 H   0  0  0  0  0  0  0  0  0  0  0  0
  140.3095   73.2356  221.1147 H   0  0  0  0  0  0  0  0  0  0  0  0
  141.9904   72.9149  221.6807 H   0  0  0  0  0  0  0  0  0  0  0  0
  142.3290   75.4860  221.4840 H   0  0  0  0  0  0  0  0  0  0  0  0
  138.1667   76.9513  222.5919 H   0  0  0  0  0  0  0  0  0  0  0  0
  138.1040   79.2952  223.3791 H   0  0  0  0  0  0  0  0  0  0  0  0
  139.3545   81.3703  223.9643 H   0  0  0  0  0  0  0  0  0  0  0  0
  141.5127   82.5530  224.1781 H   0  0  0  0  0  0  0  0  0  0  0  0
  143.6442   81.3949  223.6153 H   0  0  0  0  0  0  0  0  0  0  0  0
  143.5800   79.0358  222.8316 H   0  0  0  0  0  0  0  0  0  0  0  0
  144.2492   76.2438  217.8282 H   0  0  0  0  0  0  0  0  0  0  0  0
  142.5593   75.6083  217.7397 H   0  0  0  0  0  0  0  0  0  0  0  0
  143.4290   78.0580  219.2880 H   0  0  0  0  0  0  0  0  0  0  0  0
  138.8272   77.8148  219.2111 H   0  0  0  0  0  0  0  0  0  0  0  0
  137.6102   79.8197  220.0411 H   0  0  0  0  0  0  0  0  0  0  0  0
  137.7245   82.0816  220.8697 H   0  0  0  0  0  0  0  0  0  0  0  0
  139.1043   84.0369  221.4909 H   0  0  0  0  0  0  0  0  0  0  0  0
  141.5565   84.0261  221.3002 H   0  0  0  0  0  0  0  0  0  0  0  0
  142.7277   81.9660  220.4503 H   0  0  0  0  0  0  0  0  0  0  0  0
  1  2  1  0
  2  3  1  0
  3  4  1  0
  4  5  1  0
  5  6  1  0
  6  7  2  0
  6  8  1  0
  8  9  2  0
  9 10  1  0
 10 11  2  0
 11 12  1  0
 12 13  2  0
 13 14  1  0
 14 15  2  0
 15 16  1  0
 16 17  2  0
  2 18  1  0
 18 19  2  0
 18 20  1  0
 20 21  1  0
 21 22  1  0
 22 23  2  0
 22 24  1  0
 24 25  2  0
 25 26  1  0
 26 27  2  0
 27 28  1  0
 28 29  2  0
 29 30  1  0
 30 31  2  0
 31 32  1  0
 32 33  2  0
 17  8  1  0
 33 24  1  0
 16 11  1  0
 32 27  1  0
  1 34  1  0
  1 35  1  0
  1 36  1  0
  3 37  1  0
  3 38  1  0
  4 39  1  0
  4 40  1  0
  5 41  1  0
  9 42  1  0
 10 43  1  0
 12 44  1  0
 13 45  1  0
 14 46  1  0
 15 47  1  0
 20 48  1  0
 20 49  1  0
 21 50  1  0
 25 51  1  0
 26 52  1  0
 28 53  1  0
 29 54  1  0
 30 55  1  0
 31 56  1  0
M  END
>  <smiles>  (28) 
CN(CCNC(=O)c1ccc2ccccc2n1)C(=O)CNC(=O)c1ccc2ccccc2n1

>  <score_type>  (28) 
oracle

>  <origin>  (28) 
autodockgpu

>  <m_score__min__energy>  (28) 
-9.2200000000000006

>  <m_primary>  (28) 
energy

>  <rmsd>  (28) 
8.561781009410106

>  <m_score__min__rmsd>  (28) 
8.561781009410106

>  <meeko>  (28) 
{"free_energy": -6.46, "intermolecular_energy": -8.85, "internal_energy": -5.04, "cluster_size": 22, "cluster_id": 4, "rank_in_cluster": 4}

>  <energy>  (28) 
-6.46

>  <cluster_rmsd>  (28) 
1.39

>  <cluster>  (28) 
4

$$$$

     RDKit          3D

 56 59  0  0  0  0  0  0  0  0999 V2000
  138.8720   73.1850  219.4780 C   0  0  0  0  0  0  0  0  0  0  0  0
  139.1450   73.5210  220.8690 N   0  0  0  0  0  0  0  0  0  0  0  0
  138.1940   73.3740  221.9360 C   0  0  0  0  0  0  0  0  0  0  0  0
  137.3080   74.5840  222.0120 C   0  0  0  0  0  0  0  0  0  0  0  0
  138.0040   75.6690  222.6290 N   0  0  0  0  0  0  0  0  0  0  0  0
  138.5230   76.6890  221.7600 C   0  0  0  0  0  0  0  0  0  0  0  0
  138.3180   76.5340  220.5260 O   0  0  0  0  0  0  0  0  0  0  0  0
  139.2480   77.8350  222.3080 C   0  0  0  0  0  0  0  0  0  0  0  0
  138.4950   78.8270  222.9010 C   0  0  0  0  0  0  0  0  0  0  0  0
  139.1230   79.9270  223.4330 C   0  0  0  0  0  0  0  0  0  0  0  0
  140.4980   80.0480  223.3780 C   0  0  0  0  0  0  0  0  0  0  0  0
  141.1960   81.1100  223.8840 C   0  0  0  0  0  0  0  0  0  0  0  0
  142.5740   81.1650  223.7930 C   0  0  0  0  0  0  0  0  0  0  0  0
  143.2800   80.1380  223.1850 C   0  0  0  0  0  0  0  0  0  0  0  0
  142.5900   79.0610  222.6710 C   0  0  0  0  0  0  0  0  0  0  0  0
  141.2050   79.0210  222.7700 C   0  0  0  0  0  0  0  0  0  0  0  0
  140.5900   77.9430  222.2490 N   0  0  0  0  0  0  0  0  0  0  0  0
  140.4440   74.0320  221.1430 C   0  0  0  0  0  0  0  0  0  0  0  0
  140.8260   73.9800  222.3410 O   0  0  0  0  0  0  0  0  0  0  0  0
  141.3530   74.6010  220.1490 C   0  0  0  0  0  0  0  0  0  0  0  0
  141.1920   76.0590  220.0610 N   0  0  0  0  0  0  0  0  0  0  0  0
  142.1070   76.7150  219.1740 C   0  0  0  0  0  0  0  0  0  0  0  0
  142.9500   76.0090  218.5620 O   0  0  0  0  0  0  0  0  0  0  0  0
  142.0320   78.1640  219.0140 C   0  0  0  0  0  0  0  0  0  0  0  0
  142.8910   78.7510  218.1090 C   0  0  0  0  0  0  0  0  0  0  0  0
  142.9090   80.1120  217.8750 C   0  0  0  0  0  0  0  0  0  0  0  0
  142.0060   80.8830  218.6030 C   0  0  0  0  0  0  0  0  0  0  0  0
  141.9940   82.2480  218.3970 C   0  0  0  0  0  0  0  0  0  0  0  0
  141.0900   82.9830  219.1310 C   0  0  0  0  0  0  0  0  0  0  0  0
  140.2170   82.4230  220.0440 C   0  0  0  0  0  0  0  0  0  0  0  0
  140.2360   81.0420  220.2470 C   0  0  0  0  0  0  0  0  0  0  0  0
  141.1360   80.2910  219.5190 C   0  0  0  0  0  0  0  0  0  0  0  0
  141.1720   78.9380  219.7000 N   0  0  0  0  0  0  0  0  0  0  0  0
  138.1788   72.3319  219.4361 H   0  0  0  0  0  0  0  0  0  0  0  0
  138.4184   74.0511  218.9738 H   0  0  0  0  0  0  0  0  0  0  0  0
  139.8126   72.9183  218.9738 H   0  0  0  0  0  0  0  0  0  0  0  0
  137.5764   72.4825  221.7519 H   0  0  0  0  0  0  0  0  0  0  0  0
  138.7359   73.2659  222.8871 H   0  0  0  0  0  0  0  0  0  0  0  0
  137.0061   74.8773  220.9957 H   0  0  0  0  0  0  0  0  0  0  0  0
  136.4194   74.3403  222.6129 H   0  0  0  0  0  0  0  0  0  0  0  0
  138.1740   75.8110  223.6340 H   0  0  0  0  0  0  0  0  0  0  0  0
  137.3996   78.7380  222.9476 H   0  0  0  0  0  0  0  0  0  0  0  0
  138.5251   80.7191  223.9074 H   0  0  0  0  0  0  0  0  0  0  0  0
  140.6522   81.9329  224.3708 H   0  0  0  0  0  0  0  0  0  0  0  0
  143.1145   82.0296  224.2058 H   0  0  0  0  0  0  0  0  0  0  0  0
  144.3768   80.1822  223.1137 H   0  0  0  0  0  0  0  0  0  0  0  0
  143.1334   78.2374  222.1849 H   0  0  0  0  0  0  0  0  0  0  0  0
  142.3896   74.3703  220.4359 H   0  0  0  0  0  0  0  0  0  0  0  0
  141.1178   74.1628  219.1678 H   0  0  0  0  0  0  0  0  0  0  0  0
  140.4750   76.5670  220.5940 H   0  0  0  0  0  0  0  0  0  0  0  0
  143.5896   78.1099  217.5514 H   0  0  0  0  0  0  0  0  0  0  0  0
  143.6017   80.5644  217.1501 H   0  0  0  0  0  0  0  0  0  0  0  0
  142.6759   82.7269  217.6789 H   0  0  0  0  0  0  0  0  0  0  0  0
  141.0613   84.0726  218.9828 H   0  0  0  0  0  0  0  0  0  0  0  0
  139.5151   83.0581  220.6044 H   0  0  0  0  0  0  0  0  0  0  0  0
  139.5533   80.5663  220.9664 H   0  0  0  0  0  0  0  0  0  0  0  0
  1  2  1  0
  2  3  1  0
  3  4  1  0
  4  5  1  0
  5  6  1  0
  6  7  2  0
  6  8  1  0
  8  9  2  0
  9 10  1  0
 10 11  2  0
 11 12  1  0
 12 13  2  0
 13 14  1  0
 14 15  2  0
 15 16  1  0
 16 17  2  0
  2 18  1  0
 18 19  2  0
 18 20  1  0
 20 21  1  0
 21 22  1  0
 22 23  2  0
 22 24  1  0
 24 25  2  0
 25 26  1  0
 26 27  2  0
 27 28  1  0
 28 29  2  0
 29 30  1  0
 30 31  2  0
 31 32  1  0
 32 33  2  0
 17  8  1  0
 33 24  1  0
 16 11  1  0
 32 27  1  0
  1 34  1  0
  1 35  1  0
  1 36  1  0
  3 37  1  0
  3 38  1  0
  4 39  1  0
  4 40  1  0
  5 41  1  0
  9 42  1  0
 10 43  1  0
 12 44  1  0
 13 45  1  0
 14 46  1  0
 15 47  1  0
 20 48  1  0
 20 49  1  0
 21 50  1  0
 25 51  1  0
 26 52  1  0
 28 53  1  0
 29 54  1  0
 30 55  1  0
 31 56  1  0
M  END
>  <smiles>  (29) 
CN(CCNC(=O)c1ccc2ccccc2n1)C(=O)CNC(=O)c1ccc2ccccc2n1

>  <score_type>  (29) 
oracle

>  <origin>  (29) 
autodockgpu

>  <m_score__min__energy>  (29) 
-9.2200000000000006

>  <m_primary>  (29) 
energy

>  <rmsd>  (29) 
8.633544209874618

>  <m_score__min__rmsd>  (29) 
8.633544209874618

>  <meeko>  (29) 
{"free_energy": -6.38, "intermolecular_energy": -8.77, "internal_energy": -4.82, "cluster_size": 3, "cluster_id": 6, "rank_in_cluster": 2}

>  <energy>  (29) 
-6.39

>  <cluster_rmsd>  (29) 
1.61

>  <cluster>  (29) 
4

$$$$

     RDKit          3D

 56 59  0  0  0  0  0  0  0  0999 V2000
  140.1860   72.6010  218.0450 C   0  0  0  0  0  0  0  0  0  0  0  0
  140.1900   73.0190  219.4410 N   0  0  0  0  0  0  0  0  0  0  0  0
  141.3740   73.1260  220.2480 C   0  0  0  0  0  0  0  0  0  0  0  0
  141.0070   73.4630  221.6650 C   0  0  0  0  0  0  0  0  0  0  0  0
  141.2340   74.8510  221.9180 N   0  0  0  0  0  0  0  0  0  0  0  0
  140.0980   75.6350  222.3160 C   0  0  0  0  0  0  0  0  0  0  0  0
  138.9970   75.0260  222.4050 O   0  0  0  0  0  0  0  0  0  0  0  0
  140.2400   77.0630  222.5940 C   0  0  0  0  0  0  0  0  0  0  0  0
  139.0780   77.8020  222.6860 C   0  0  0  0  0  0  0  0  0  0  0  0
  139.1520   79.1500  222.9460 C   0  0  0  0  0  0  0  0  0  0  0  0
  140.3760   79.7680  223.1170 C   0  0  0  0  0  0  0  0  0  0  0  0
  140.5310   81.1020  223.3780 C   0  0  0  0  0  0  0  0  0  0  0  0
  141.7880   81.6540  223.5370 C   0  0  0  0  0  0  0  0  0  0  0  0
  142.9220   80.8620  223.4340 C   0  0  0  0  0  0  0  0  0  0  0  0
  142.7800   79.5170  223.1700 C   0  0  0  0  0  0  0  0  0  0  0  0
  141.5100   78.9770  223.0140 C   0  0  0  0  0  0  0  0  0  0  0  0
  141.4390   77.6580  222.7590 N   0  0  0  0  0  0  0  0  0  0  0  0
  138.9190   73.3220  220.0040 C   0  0  0  0  0  0  0  0  0  0  0  0
  138.5110   74.5040  219.8640 O   0  0  0  0  0  0  0  0  0  0  0  0
  138.0660   72.3730  220.7190 C   0  0  0  0  0  0  0  0  0  0  0  0
  138.5490   72.1610  222.0910 N   0  0  0  0  0  0  0  0  0  0  0  0
  138.8010   70.7930  222.4370 C   0  0  0  0  0  0  0  0  0  0  0  0
  138.5930   69.9120  221.5620 O   0  0  0  0  0  0  0  0  0  0  0  0
  139.2840   70.4730  223.7770 C   0  0  0  0  0  0  0  0  0  0  0  0
  139.1260   69.1760  224.2180 C   0  0  0  0  0  0  0  0  0  0  0  0
  139.5440   68.7590  225.4670 C   0  0  0  0  0  0  0  0  0  0  0  0
  140.1430   69.7200  226.2770 C   0  0  0  0  0  0  0  0  0  0  0  0
  140.5750   69.3410  227.5330 C   0  0  0  0  0  0  0  0  0  0  0  0
  141.1640   70.3120  228.3110 C   0  0  0  0  0  0  0  0  0  0  0  0
  141.3350   71.6190  227.8950 C   0  0  0  0  0  0  0  0  0  0  0  0
  140.8970   71.9950  226.6250 C   0  0  0  0  0  0  0  0  0  0  0  0
  140.3040   71.0320  225.8330 C   0  0  0  0  0  0  0  0  0  0  0  0
  139.8670   71.3750  224.5850 N   0  0  0  0  0  0  0  0  0  0  0  0
  140.1755   71.5024  217.9912 H   0  0  0  0  0  0  0  0  0  0  0  0
  139.2916   73.0011  217.5450 H   0  0  0  0  0  0  0  0  0  0  0  0
  141.0879   72.9840  217.5450 H   0  0  0  0  0  0  0  0  0  0  0  0
  141.9135   72.1676  220.2305 H   0  0  0  0  0  0  0  0  0  0  0  0
  142.0134   73.9243  219.8432 H   0  0  0  0  0  0  0  0  0  0  0  0
  139.9439   73.2330  221.8293 H   0  0  0  0  0  0  0  0  0  0  0  0
  141.6306   72.8675  222.3480 H   0  0  0  0  0  0  0  0  0  0  0  0
  142.1260   75.3590  221.8540 H   0  0  0  0  0  0  0  0  0  0  0  0
  138.1002   77.3162  222.5523 H   0  0  0  0  0  0  0  0  0  0  0  0
  138.2279   79.7423  223.0186 H   0  0  0  0  0  0  0  0  0  0  0  0
  139.6422   81.7446  223.4625 H   0  0  0  0  0  0  0  0  0  0  0  0
  141.8898   82.7290  223.7467 H   0  0  0  0  0  0  0  0  0  0  0  0
  143.9221   81.3020  223.5615 H   0  0  0  0  0  0  0  0  0  0  0  0
  143.6683   78.8741  223.0832 H   0  0  0  0  0  0  0  0  0  0  0  0
  137.0401   72.7683  220.7558 H   0  0  0  0  0  0  0  0  0  0  0  0
  138.0892   71.4107  220.1866 H   0  0  0  0  0  0  0  0  0  0  0  0
  138.6950   72.9370  222.7490 H   0  0  0  0  0  0  0  0  0  0  0  0
  138.6485   68.4448  223.5491 H   0  0  0  0  0  0  0  0  0  0  0  0
  139.4104   67.7206  225.8043 H   0  0  0  0  0  0  0  0  0  0  0  0
  140.4538   68.3095  227.8954 H   0  0  0  0  0  0  0  0  0  0  0  0
  141.5166   70.0335  229.3151 H   0  0  0  0  0  0  0  0  0  0  0  0
  141.8117   72.3553  228.5588 H   0  0  0  0  0  0  0  0  0  0  0  0
  141.0203   73.0273  226.2655 H   0  0  0  0  0  0  0  0  0  0  0  0
  1  2  1  0
  2  3  1  0
  3  4  1  0
  4  5  1  0
  5  6  1  0
  6  7  2  0
  6  8  1  0
  8  9  2  0
  9 10  1  0
 10 11  2  0
 11 12  1  0
 12 13  2  0
 13 14  1  0
 14 15  2  0
 15 16  1  0
 16 17  2  0
  2 18  1  0
 18 19  2  0
 18 20  1  0
 20 21  1  0
 21 22  1  0
 22 23  2  0
 22 24  1  0
 24 25  2  0
 25 26  1  0
 26 27  2  0
 27 28  1  0
 28 29  2  0
 29 30  1  0
 30 31  2  0
 31 32  1  0
 32 33  2  0
 17  8  1  0
 33 24  1  0
 16 11  1  0
 32 27  1  0
  1 34  1  0
  1 35  1  0
  1 36  1  0
  3 37  1  0
  3 38  1  0
  4 39  1  0
  4 40  1  0
  5 41  1  0
  9 42  1  0
 10 43  1  0
 12 44  1  0
 13 45  1  0
 14 46  1  0
 15 47  1  0
 20 48  1  0
 20 49  1  0
 21 50  1  0
 25 51  1  0
 26 52  1  0
 28 53  1  0
 29 54  1  0
 30 55  1  0
 31 56  1  0
M  END
>  <smiles>  (30) 
CN(CCNC(=O)c1ccc2ccccc2n1)C(=O)CNC(=O)c1ccc2ccccc2n1

>  <score_type>  (30) 
oracle

>  <origin>  (30) 
autodockgpu

>  <m_score__min__energy>  (30) 
-9.2200000000000006

>  <m_primary>  (30) 
energy

>  <rmsd>  (30) 
2.6932574865971235

>  <m_score__min__rmsd>  (30) 
2.6932574865971235

>  <meeko>  (30) 
{"free_energy": -8.59, "intermolecular_energy": -10.98, "internal_energy": -2.64, "cluster_size": 19, "cluster_id": 1, "rank_in_cluster": 10}

>  <energy>  (30) 
-6.37

>  <cluster_rmsd>  (30) 
1.52

>  <cluster>  (30) 
4

$$$$

     RDKit          3D

 56 59  0  0  0  0  0  0  0  0999 V2000
  142.0650   71.7650  218.8860 C   0  0  0  0  0  0  0  0  0  0  0  0
  141.7740   73.0820  219.4400 N   0  0  0  0  0  0  0  0  0  0  0  0
  142.5800   73.7360  220.4320 C   0  0  0  0  0  0  0  0  0  0  0  0
  143.4100   74.8150  219.7970 C   0  0  0  0  0  0  0  0  0  0  0  0
  142.8380   76.0980  220.0570 N   0  0  0  0  0  0  0  0  0  0  0  0
  142.3730   76.8470  218.9210 C   0  0  0  0  0  0  0  0  0  0  0  0
  142.5130   76.3010  217.7930 O   0  0  0  0  0  0  0  0  0  0  0  0
  141.7750   78.1680  219.0960 C   0  0  0  0  0  0  0  0  0  0  0  0
  142.5760   79.2590  218.8270 C   0  0  0  0  0  0  0  0  0  0  0  0
  142.0650   80.5270  218.9750 C   0  0  0  0  0  0  0  0  0  0  0  0
  140.7610   80.7170  219.3880 C   0  0  0  0  0  0  0  0  0  0  0  0
  140.1810   81.9440  219.5580 C   0  0  0  0  0  0  0  0  0  0  0  0
  138.8690   82.0600  219.9750 C   0  0  0  0  0  0  0  0  0  0  0  0
  138.1100   80.9280  220.2310 C   0  0  0  0  0  0  0  0  0  0  0  0
  138.6810   79.6850  220.0650 C   0  0  0  0  0  0  0  0  0  0  0  0
  140.0010   79.5850  219.6440 C   0  0  0  0  0  0  0  0  0  0  0  0
  140.5000   78.3440  219.5010 N   0  0  0  0  0  0  0  0  0  0  0  0
  140.6020   73.7190  218.9450 C   0  0  0  0  0  0  0  0  0  0  0  0
  140.5410   73.8930  217.7010 O   0  0  0  0  0  0  0  0  0  0  0  0
  139.4810   74.1770  219.7650 C   0  0  0  0  0  0  0  0  0  0  0  0
  139.6940   75.5570  220.2250 N   0  0  0  0  0  0  0  0  0  0  0  0
  139.9860   75.6890  221.6230 C   0  0  0  0  0  0  0  0  0  0  0  0
  140.0340   74.6420  222.3210 O   0  0  0  0  0  0  0  0  0  0  0  0
  140.2140   77.0180  222.1820 C   0  0  0  0  0  0  0  0  0  0  0  0
  139.1230   77.6920  222.6890 C   0  0  0  0  0  0  0  0  0  0  0  0
  139.2190   78.9540  223.2420 C   0  0  0  0  0  0  0  0  0  0  0  0
  140.4880   79.5280  223.2680 C   0  0  0  0  0  0  0  0  0  0  0  0
  140.6250   80.7900  223.8140 C   0  0  0  0  0  0  0  0  0  0  0  0
  141.8900   81.3310  223.8260 C   0  0  0  0  0  0  0  0  0  0  0  0
  143.0020   80.6790  223.3250 C   0  0  0  0  0  0  0  0  0  0  0  0
  142.8550   79.4050  222.7760 C   0  0  0  0  0  0  0  0  0  0  0  0
  141.5930   78.8480  222.7560 C   0  0  0  0  0  0  0  0  0  0  0  0
  141.4240   77.6020  222.2240 N   0  0  0  0  0  0  0  0  0  0  0  0
  142.2232   71.0491  219.7060 H   0  0  0  0  0  0  0  0  0  0  0  0
  141.2187   71.4324  218.2670 H   0  0  0  0  0  0  0  0  0  0  0  0
  142.9727   71.8200  218.2670 H   0  0  0  0  0  0  0  0  0  0  0  0
  141.9257   74.1826  221.1951 H   0  0  0  0  0  0  0  0  0  0  0  0
  143.2481   72.9959  220.8967 H   0  0  0  0  0  0  0  0  0  0  0  0
  144.4283   74.7809  220.2116 H   0  0  0  0  0  0  0  0  0  0  0  0
  143.4401   74.6502  218.7098 H   0  0  0  0  0  0  0  0  0  0  0  0
  142.7140   76.5530  220.9710 H   0  0  0  0  0  0  0  0  0  0  0  0
  143.6154   79.1154  218.4967 H   0  0  0  0  0  0  0  0  0  0  0  0
  142.7013   81.3987  218.7623 H   0  0  0  0  0  0  0  0  0  0  0  0
  140.7684   82.8526  219.3596 H   0  0  0  0  0  0  0  0  0  0  0  0
  138.4233   83.0573  220.1049 H   0  0  0  0  0  0  0  0  0  0  0  0
  137.0653   81.0212  220.5624 H   0  0  0  0  0  0  0  0  0  0  0  0
  138.0944   78.7762  220.2649 H   0  0  0  0  0  0  0  0  0  0  0  0
  138.5580   74.1352  219.1681 H   0  0  0  0  0  0  0  0  0  0  0  0
  139.4005   73.5226  220.6455 H   0  0  0  0  0  0  0  0  0  0  0  0
  139.6390   76.3630  219.5910 H   0  0  0  0  0  0  0  0  0  0  0  0
  138.1372   77.2053  222.6515 H   0  0  0  0  0  0  0  0  0  0  0  0
  138.3386   79.4788  223.6414 H   0  0  0  0  0  0  0  0  0  0  0  0
  139.7618   81.3373  224.2206 H   0  0  0  0  0  0  0  0  0  0  0  0
  142.0239   82.3344  224.2565 H   0  0  0  0  0  0  0  0  0  0  0  0
  143.9910   81.1594  223.3590 H   0  0  0  0  0  0  0  0  0  0  0  0
  143.7204   78.8602  222.3707 H   0  0  0  0  0  0  0  0  0  0  0  0
  1  2  1  0
  2  3  1  0
  3  4  1  0
  4  5  1  0
  5  6  1  0
  6  7  2  0
  6  8  1  0
  8  9  2  0
  9 10  1  0
 10 11  2  0
 11 12  1  0
 12 13  2  0
 13 14  1  0
 14 15  2  0
 15 16  1  0
 16 17  2  0
  2 18  1  0
 18 19  2  0
 18 20  1  0
 20 21  1  0
 21 22  1  0
 22 23  2  0
 22 24  1  0
 24 25  2  0
 25 26  1  0
 26 27  2  0
 27 28  1  0
 28 29  2  0
 29 30  1  0
 30 31  2  0
 31 32  1  0
 32 33  2  0
 17  8  1  0
 33 24  1  0
 16 11  1  0
 32 27  1  0
  1 34  1  0
  1 35  1  0
  1 36  1  0
  3 37  1  0
  3 38  1  0
  4 39  1  0
  4 40  1  0
  5 41  1  0
  9 42  1  0
 10 43  1  0
 12 44  1  0
 13 45  1  0
 14 46  1  0
 15 47  1  0
 20 48  1  0
 20 49  1  0
 21 50  1  0
 25 51  1  0
 26 52  1  0
 28 53  1  0
 29 54  1  0
 30 55  1  0
 31 56  1  0
M  END
>  <smiles>  (31) 
CN(CCNC(=O)c1ccc2ccccc2n1)C(=O)CNC(=O)c1ccc2ccccc2n1

>  <score_type>  (31) 
oracle

>  <origin>  (31) 
autodockgpu

>  <m_score__min__energy>  (31) 
-9.2200000000000006

>  <m_primary>  (31) 
energy

>  <rmsd>  (31) 
6.743309469945218

>  <m_score__min__rmsd>  (31) 
6.743309469945218

>  <meeko>  (31) 
{"free_energy": -5.83, "intermolecular_energy": -8.21, "internal_energy": -5.32, "cluster_size": 22, "cluster_id": 4, "rank_in_cluster": 20}

>  <energy>  (31) 
-6.35

>  <cluster_rmsd>  (31) 
1.6

>  <cluster>  (31) 
4

$$$$

     RDKit          3D

 56 59  0  0  0  0  0  0  0  0999 V2000
  140.8750   77.4620  220.8100 C   0  0  0  0  0  0  0  0  0  0  0  0
  140.3310   76.1400  221.0940 N   0  0  0  0  0  0  0  0  0  0  0  0
  140.9220   74.9110  220.6440 C   0  0  0  0  0  0  0  0  0  0  0  0
  139.9010   73.8090  220.6550 C   0  0  0  0  0  0  0  0  0  0  0  0
  139.7550   73.2820  221.9750 N   0  0  0  0  0  0  0  0  0  0  0  0
  140.2690   71.9610  222.2110 C   0  0  0  0  0  0  0  0  0  0  0  0
  140.8060   71.3830  221.2270 O   0  0  0  0  0  0  0  0  0  0  0  0
  140.1620   71.3450  223.5320 C   0  0  0  0  0  0  0  0  0  0  0  0
  139.4950   70.1400  223.6090 C   0  0  0  0  0  0  0  0  0  0  0  0
  139.3630   69.5150  224.8260 C   0  0  0  0  0  0  0  0  0  0  0  0
  139.8910   70.0830  225.9690 C   0  0  0  0  0  0  0  0  0  0  0  0
  139.8020   69.5230  227.2140 C   0  0  0  0  0  0  0  0  0  0  0  0
  140.3550   70.1480  228.3160 C   0  0  0  0  0  0  0  0  0  0  0  0
  141.0150   71.3600  228.1800 C   0  0  0  0  0  0  0  0  0  0  0  0
  141.1120   71.9350  226.9310 C   0  0  0  0  0  0  0  0  0  0  0  0
  140.5520   71.2940  225.8340 C   0  0  0  0  0  0  0  0  0  0  0  0
  140.6810   71.9070  224.6430 N   0  0  0  0  0  0  0  0  0  0  0  0
  139.1310   76.1120  221.8590 C   0  0  0  0  0  0  0  0  0  0  0  0
  139.2560   75.8720  223.0880 O   0  0  0  0  0  0  0  0  0  0  0  0
  137.7880   76.3390  221.3300 C   0  0  0  0  0  0  0  0  0  0  0  0
  136.7760   76.2130  222.3880 N   0  0  0  0  0  0  0  0  0  0  0  0
  136.5550   74.8760  222.8560 C   0  0  0  0  0  0  0  0  0  0  0  0
  137.2260   73.9470  222.3350 O   0  0  0  0  0  0  0  0  0  0  0  0
  135.5700   74.6410  223.9070 C   0  0  0  0  0  0  0  0  0  0  0  0
  135.1490   73.3430  224.1070 C   0  0  0  0  0  0  0  0  0  0  0  0
  134.2210   73.0020  225.0720 C   0  0  0  0  0  0  0  0  0  0  0  0
  133.7190   74.0420  225.8500 C   0  0  0  0  0  0  0  0  0  0  0  0
  132.7900   73.7410  226.8260 C   0  0  0  0  0  0  0  0  0  0  0  0
  132.3120   74.7890  227.5790 C   0  0  0  0  0  0  0  0  0  0  0  0
  132.7150   76.1000  227.4010 C   0  0  0  0  0  0  0  0  0  0  0  0
  133.6550   76.3960  226.4130 C   0  0  0  0  0  0  0  0  0  0  0  0
  134.1430   75.3560  225.6490 C   0  0  0  0  0  0  0  0  0  0  0  0
  135.0650   75.6210  224.6770 N   0  0  0  0  0  0  0  0  0  0  0  0
  141.0888   77.9815  221.7558 H   0  0  0  0  0  0  0  0  0  0  0  0
  141.8040   77.3594  220.2299 H   0  0  0  0  0  0  0  0  0  0  0  0
  140.1428   78.0429  220.2299 H   0  0  0  0  0  0  0  0  0  0  0  0
  141.3018   75.0441  219.6203 H   0  0  0  0  0  0  0  0  0  0  0  0
  141.7476   74.6417  221.3192 H   0  0  0  0  0  0  0  0  0  0  0  0
  138.9338   74.2069  220.3140 H   0  0  0  0  0  0  0  0  0  0  0  0
  140.2352   73.0046  219.9833 H   0  0  0  0  0  0  0  0  0  0  0  0
  139.3250   73.7440  222.7870 H   0  0  0  0  0  0  0  0  0  0  0  0
  139.0717   69.6825  222.7027 H   0  0  0  0  0  0  0  0  0  0  0  0
  138.8321   68.5538  224.8903 H   0  0  0  0  0  0  0  0  0  0  0  0
  139.2829   68.5614  227.3400 H   0  0  0  0  0  0  0  0  0  0  0  0
  140.2709   69.6805  229.3081 H   0  0  0  0  0  0  0  0  0  0  0  0
  141.4554   71.8561  229.0574 H   0  0  0  0  0  0  0  0  0  0  0  0
  141.6304   72.8968  226.8040 H   0  0  0  0  0  0  0  0  0  0  0  0
  137.7365   77.3510  220.9019 H   0  0  0  0  0  0  0  0  0  0  0  0
  137.5834   75.5826  220.5580 H   0  0  0  0  0  0  0  0  0  0  0  0
  136.2680   77.0240  222.7640 H   0  0  0  0  0  0  0  0  0  0  0  0
  135.5686   72.5479  223.4732 H   0  0  0  0  0  0  0  0  0  0  0  0
  133.8952   71.9616  225.2183 H   0  0  0  0  0  0  0  0  0  0  0  0
  132.4472   72.7094  226.9942 H   0  0  0  0  0  0  0  0  0  0  0  0
  131.5712   74.5729  228.3629 H   0  0  0  0  0  0  0  0  0  0  0  0
  132.2993   76.9002  228.0310 H   0  0  0  0  0  0  0  0  0  0  0  0
  133.9969   77.4284  226.2481 H   0  0  0  0  0  0  0  0  0  0  0  0
  1  2  1  0
  2  3  1  0
  3  4  1  0
  4  5  1  0
  5  6  1  0
  6  7  2  0
  6  8  1  0
  8  9  2  0
  9 10  1  0
 10 11  2  0
 11 12  1  0
 12 13  2  0
 13 14  1  0
 14 15  2  0
 15 16  1  0
 16 17  2  0
  2 18  1  0
 18 19  2  0
 18 20  1  0
 20 21  1  0
 21 22  1  0
 22 23  2  0
 22 24  1  0
 24 25  2  0
 25 26  1  0
 26 27  2  0
 27 28  1  0
 28 29  2  0
 29 30  1  0
 30 31  2  0
 31 32  1  0
 32 33  2  0
 17  8  1  0
 33 24  1  0
 16 11  1  0
 32 27  1  0
  1 34  1  0
  1 35  1  0
  1 36  1  0
  3 37  1  0
  3 38  1  0
  4 39  1  0
  4 40  1  0
  5 41  1  0
  9 42  1  0
 10 43  1  0
 12 44  1  0
 13 45  1  0
 14 46  1  0
 15 47  1  0
 20 48  1  0
 20 49  1  0
 21 50  1  0
 25 51  1  0
 26 52  1  0
 28 53  1  0
 29 54  1  0
 30 55  1  0
 31 56  1  0
M  END
>  <smiles>  (32) 
CN(CCNC(=O)c1ccc2ccccc2n1)C(=O)CNC(=O)c1ccc2ccccc2n1

>  <score_type>  (32) 
oracle

>  <origin>  (32) 
autodockgpu

>  <m_score__min__energy>  (32) 
-9.2200000000000006

>  <m_primary>  (32) 
energy

>  <rmsd>  (32) 
8.109688427347935

>  <m_score__min__rmsd>  (32) 
8.109688427347935

>  <meeko>  (32) 
{"free_energy": -7.97, "intermolecular_energy": -10.36, "internal_energy": -3.06, "cluster_size": 4, "cluster_id": 3, "rank_in_cluster": 2}

>  <energy>  (32) 
-6.31

>  <cluster_rmsd>  (32) 
1.74

>  <cluster>  (32) 
4

$$$$

     RDKit          3D

 56 59  0  0  0  0  0  0  0  0999 V2000
  140.5200   75.1260  218.7770 C   0  0  0  0  0  0  0  0  0  0  0  0
  141.6630   74.4110  219.3340 N   0  0  0  0  0  0  0  0  0  0  0  0
  141.5580   73.3100  220.2500 C   0  0  0  0  0  0  0  0  0  0  0  0
  140.7130   73.6960  221.4300 C   0  0  0  0  0  0  0  0  0  0  0  0
  141.0460   75.0140  221.8680 N   0  0  0  0  0  0  0  0  0  0  0  0
  139.9540   75.9220  222.0910 C   0  0  0  0  0  0  0  0  0  0  0  0
  138.7960   75.4710  221.8790 O   0  0  0  0  0  0  0  0  0  0  0  0
  140.2050   77.2910  222.5390 C   0  0  0  0  0  0  0  0  0  0  0  0
  139.1040   78.0460  222.8890 C   0  0  0  0  0  0  0  0  0  0  0  0
  139.2810   79.3400  223.3170 C   0  0  0  0  0  0  0  0  0  0  0  0
  140.5460   79.8880  223.4010 C   0  0  0  0  0  0  0  0  0  0  0  0
  140.8020   81.1660  223.8180 C   0  0  0  0  0  0  0  0  0  0  0  0
  142.0960   81.6490  223.8770 C   0  0  0  0  0  0  0  0  0  0  0  0
  143.1640   80.8440  223.5140 C   0  0  0  0  0  0  0  0  0  0  0  0
  142.9210   79.5550  223.0920 C   0  0  0  0  0  0  0  0  0  0  0  0
  141.6150   79.0840  223.0380 C   0  0  0  0  0  0  0  0  0  0  0  0
  141.4440   77.8170  222.6180 N   0  0  0  0  0  0  0  0  0  0  0  0
  142.9450   74.8730  218.9240 C   0  0  0  0  0  0  0  0  0  0  0  0
  143.4610   74.2910  217.9360 O   0  0  0  0  0  0  0  0  0  0  0  0
  143.6920   75.9590  219.5580 C   0  0  0  0  0  0  0  0  0  0  0  0
  142.7830   76.9900  220.0790 N   0  0  0  0  0  0  0  0  0  0  0  0
  142.3260   77.9390  219.1060 C   0  0  0  0  0  0  0  0  0  0  0  0
  142.7310   77.8150  217.9200 O   0  0  0  0  0  0  0  0  0  0  0  0
  141.4190   79.0050  219.5190 C   0  0  0  0  0  0  0  0  0  0  0  0
  140.0670   78.7350  219.5000 C   0  0  0  0  0  0  0  0  0  0  0  0
  139.1160   79.6660  219.8690 C   0  0  0  0  0  0  0  0  0  0  0  0
  139.5880   80.9130  220.2700 C   0  0  0  0  0  0  0  0  0  0  0  0
  138.6680   81.8720  220.6480 C   0  0  0  0  0  0  0  0  0  0  0  0
  139.1640   83.0940  221.0390 C   0  0  0  0  0  0  0  0  0  0  0  0
  140.5130   83.3940  221.0690 C   0  0  0  0  0  0  0  0  0  0  0  0
  141.4370   82.4210  220.6860 C   0  0  0  0  0  0  0  0  0  0  0  0
  140.9550   81.1900  220.2910 C   0  0  0  0  0  0  0  0  0  0  0  0
  141.8400   80.2200  219.9130 N   0  0  0  0  0  0  0  0  0  0  0  0
  139.8970   75.5157  219.5955 H   0  0  0  0  0  0  0  0  0  0  0  0
  140.8769   75.9622  218.1577 H   0  0  0  0  0  0  0  0  0  0  0  0
  139.9242   74.4393  218.1577 H   0  0  0  0  0  0  0  0  0  0  0  0
  141.0963   72.4534  219.7371 H   0  0  0  0  0  0  0  0  0  0  0  0
  142.5642   73.0389  220.6023 H   0  0  0  0  0  0  0  0  0  0  0  0
  139.6519   73.6667  221.1416 H   0  0  0  0  0  0  0  0  0  0  0  0
  140.9000   72.9881  222.2509 H   0  0  0  0  0  0  0  0  0  0  0  0
  141.9850   75.3930  222.0490 H   0  0  0  0  0  0  0  0  0  0  0  0
  138.0936   77.6158  222.8260 H   0  0  0  0  0  0  0  0  0  0  0  0
  138.4060   79.9456  223.5956 H   0  0  0  0  0  0  0  0  0  0  0  0
  139.9661   81.8184  224.1105 H   0  0  0  0  0  0  0  0  0  0  0  0
  142.2792   82.6798  224.2145 H   0  0  0  0  0  0  0  0  0  0  0  0
  144.1932   81.2293  223.5622 H   0  0  0  0  0  0  0  0  0  0  0  0
  143.7567   78.9023  222.7994 H   0  0  0  0  0  0  0  0  0  0  0  0
  144.2858   75.5500  220.3887 H   0  0  0  0  0  0  0  0  0  0  0  0
  144.3485   76.4190  218.8047 H   0  0  0  0  0  0  0  0  0  0  0  0
  142.4970   77.0240  221.0650 H   0  0  0  0  0  0  0  0  0  0  0  0
  139.7324   77.7379  219.1779 H   0  0  0  0  0  0  0  0  0  0  0  0
  138.0409   79.4343  219.8472 H   0  0  0  0  0  0  0  0  0  0  0  0
  137.5872   81.6675  220.6368 H   0  0  0  0  0  0  0  0  0  0  0  0
  138.4498   83.8732  221.3437 H   0  0  0  0  0  0  0  0  0  0  0  0
  140.8544   84.3888  221.3912 H   0  0  0  0  0  0  0  0  0  0  0  0
  142.5171   82.6291  220.6986 H   0  0  0  0  0  0  0  0  0  0  0  0
  1  2  1  0
  2  3  1  0
  3  4  1  0
  4  5  1  0
  5  6  1  0
  6  7  2  0
  6  8  1  0
  8  9  2  0
  9 10  1  0
 10 11  2  0
 11 12  1  0
 12 13  2  0
 13 14  1  0
 14 15  2  0
 15 16  1  0
 16 17  2  0
  2 18  1  0
 18 19  2  0
 18 20  1  0
 20 21  1  0
 21 22  1  0
 22 23  2  0
 22 24  1  0
 24 25  2  0
 25 26  1  0
 26 27  2  0
 27 28  1  0
 28 29  2  0
 29 30  1  0
 30 31  2  0
 31 32  1  0
 32 33  2  0
 17  8  1  0
 33 24  1  0
 16 11  1  0
 32 27  1  0
  1 34  1  0
  1 35  1  0
  1 36  1  0
  3 37  1  0
  3 38  1  0
  4 39  1  0
  4 40  1  0
  5 41  1  0
  9 42  1  0
 10 43  1  0
 12 44  1  0
 13 45  1  0
 14 46  1  0
 15 47  1  0
 20 48  1  0
 20 49  1  0
 21 50  1  0
 25 51  1  0
 26 52  1  0
 28 53  1  0
 29 54  1  0
 30 55  1  0
 31 56  1  0
M  END
>  <smiles>  (33) 
CN(CCNC(=O)c1ccc2ccccc2n1)C(=O)CNC(=O)c1ccc2ccccc2n1

>  <score_type>  (33) 
oracle

>  <origin>  (33) 
autodockgpu

>  <m_score__min__energy>  (33) 
-9.2200000000000006

>  <m_primary>  (33) 
energy

>  <rmsd>  (33) 
8.489052980127948

>  <m_score__min__rmsd>  (33) 
8.489052980127948

>  <meeko>  (33) 
{"free_energy": -6.39, "intermolecular_energy": -8.78, "internal_energy": -4.99, "cluster_size": 22, "cluster_id": 4, "rank_in_cluster": 5}

>  <energy>  (33) 
-6.28

>  <cluster_rmsd>  (33) 
1.36

>  <cluster>  (33) 
4

$$$$

     RDKit          3D

 56 59  0  0  0  0  0  0  0  0999 V2000
  141.9200   73.6780  218.4290 C   0  0  0  0  0  0  0  0  0  0  0  0
  142.3950   73.7320  219.8060 N   0  0  0  0  0  0  0  0  0  0  0  0
  141.8280   72.9720  220.8860 C   0  0  0  0  0  0  0  0  0  0  0  0
  140.6320   73.6850  221.4500 C   0  0  0  0  0  0  0  0  0  0  0  0
  140.9930   75.0020  221.8700 N   0  0  0  0  0  0  0  0  0  0  0  0
  139.9190   75.9100  222.1640 C   0  0  0  0  0  0  0  0  0  0  0  0
  138.7490   75.4600  222.0250 O   0  0  0  0  0  0  0  0  0  0  0  0
  140.1980   77.2770  222.6000 C   0  0  0  0  0  0  0  0  0  0  0  0
  139.1190   78.0430  222.9890 C   0  0  0  0  0  0  0  0  0  0  0  0
  139.3220   79.3360  223.4080 C   0  0  0  0  0  0  0  0  0  0  0  0
  140.5950   79.8730  223.4430 C   0  0  0  0  0  0  0  0  0  0  0  0
  140.8780   81.1490  223.8470 C   0  0  0  0  0  0  0  0  0  0  0  0
  142.1770   81.6200  223.8560 C   0  0  0  0  0  0  0  0  0  0  0  0
  143.2240   80.8050  223.4540 C   0  0  0  0  0  0  0  0  0  0  0  0
  142.9530   79.5170  223.0440 C   0  0  0  0  0  0  0  0  0  0  0  0
  141.6420   79.0580  223.0410 C   0  0  0  0  0  0  0  0  0  0  0  0
  141.4440   77.7920  222.6300 N   0  0  0  0  0  0  0  0  0  0  0  0
  143.4850   74.6120  220.0550 C   0  0  0  0  0  0  0  0  0  0  0  0
  144.3180   74.2420  220.9220 O   0  0  0  0  0  0  0  0  0  0  0  0
  143.7040   75.8930  219.3860 C   0  0  0  0  0  0  0  0  0  0  0  0
  142.8440   76.9400  219.9560 N   0  0  0  0  0  0  0  0  0  0  0  0
  142.4330   77.9550  219.0300 C   0  0  0  0  0  0  0  0  0  0  0  0
  142.8320   77.8680  217.8390 O   0  0  0  0  0  0  0  0  0  0  0  0
  141.5760   79.0410  219.4950 C   0  0  0  0  0  0  0  0  0  0  0  0
  142.1740   80.2530  219.7680 C   0  0  0  0  0  0  0  0  0  0  0  0
  141.4640   81.3500  220.2140 C   0  0  0  0  0  0  0  0  0  0  0  0
  140.0920   81.1800  220.3790 C   0  0  0  0  0  0  0  0  0  0  0  0
  139.3460   82.2550  220.8230 C   0  0  0  0  0  0  0  0  0  0  0  0
  137.9930   82.0560  220.9760 C   0  0  0  0  0  0  0  0  0  0  0  0
  137.3650   80.8540  220.7100 C   0  0  0  0  0  0  0  0  0  0  0  0
  138.1250   79.7720  220.2620 C   0  0  0  0  0  0  0  0  0  0  0  0
  139.4840   79.9550  220.1030 C   0  0  0  0  0  0  0  0  0  0  0  0
  140.2480   78.9120  219.6650 N   0  0  0  0  0  0  0  0  0  0  0  0
  140.8271   73.5538  218.4228 H   0  0  0  0  0  0  0  0  0  0  0  0
  142.1858   74.6121  217.9125 H   0  0  0  0  0  0  0  0  0  0  0  0
  142.3887   72.8274  217.9125 H   0  0  0  0  0  0  0  0  0  0  0  0
  141.5196   71.9843  220.5126 H   0  0  0  0  0  0  0  0  0  0  0  0
  142.5827   72.8552  221.6777 H   0  0  0  0  0  0  0  0  0  0  0  0
  139.8515   73.7515  220.6777 H   0  0  0  0  0  0  0  0  0  0  0  0
  140.2563   73.1229  222.3177 H   0  0  0  0  0  0  0  0  0  0  0  0
  141.9420   75.3800  221.9920 H   0  0  0  0  0  0  0  0  0  0  0  0
  138.1031   77.6219  222.9640 H   0  0  0  0  0  0  0  0  0  0  0  0
  138.4632   79.9493  223.7185 H   0  0  0  0  0  0  0  0  0  0  0  0
  140.0596   81.8096  224.1693 H   0  0  0  0  0  0  0  0  0  0  0  0
  142.3820   82.6496  224.1847 H   0  0  0  0  0  0  0  0  0  0  0  0
  144.2576   81.1812  223.4621 H   0  0  0  0  0  0  0  0  0  0  0  0
  143.7708   78.8561  222.7209 H   0  0  0  0  0  0  0  0  0  0  0  0
  144.7570   76.1868  219.5079 H   0  0  0  0  0  0  0  0  0  0  0  0
  143.4562   75.7782  218.3204 H   0  0  0  0  0  0  0  0  0  0  0  0
  142.5580   76.9410  220.9430 H   0  0  0  0  0  0  0  0  0  0  0  0
  143.2603   80.3499  219.6247 H   0  0  0  0  0  0  0  0  0  0  0  0
  141.9573   82.3096  220.4281 H   0  0  0  0  0  0  0  0  0  0  0  0
  139.8127   83.2262  221.0442 H   0  0  0  0  0  0  0  0  0  0  0  0
  137.3790   82.8979  221.3285 H   0  0  0  0  0  0  0  0  0  0  0  0
  136.2788   80.7510  220.8497 H   0  0  0  0  0  0  0  0  0  0  0  0
  137.6548   78.8022  220.0422 H   0  0  0  0  0  0  0  0  0  0  0  0
  1  2  1  0
  2  3  1  0
  3  4  1  0
  4  5  1  0
  5  6  1  0
  6  7  2  0
  6  8  1  0
  8  9  2  0
  9 10  1  0
 10 11  2  0
 11 12  1  0
 12 13  2  0
 13 14  1  0
 14 15  2  0
 15 16  1  0
 16 17  2  0
  2 18  1  0
 18 19  2  0
 18 20  1  0
 20 21  1  0
 21 22  1  0
 22 23  2  0
 22 24  1  0
 24 25  2  0
 25 26  1  0
 26 27  2  0
 27 28  1  0
 28 29  2  0
 29 30  1  0
 30 31  2  0
 31 32  1  0
 32 33  2  0
 17  8  1  0
 33 24  1  0
 16 11  1  0
 32 27  1  0
  1 34  1  0
  1 35  1  0
  1 36  1  0
  3 37  1  0
  3 38  1  0
  4 39  1  0
  4 40  1  0
  5 41  1  0
  9 42  1  0
 10 43  1  0
 12 44  1  0
 13 45  1  0
 14 46  1  0
 15 47  1  0
 20 48  1  0
 20 49  1  0
 21 50  1  0
 25 51  1  0
 26 52  1  0
 28 53  1  0
 29 54  1  0
 30 55  1  0
 31 56  1  0
M  END
>  <smiles>  (34) 
CN(CCNC(=O)c1ccc2ccccc2n1)C(=O)CNC(=O)c1ccc2ccccc2n1

>  <score_type>  (34) 
oracle

>  <origin>  (34) 
autodockgpu

>  <m_score__min__energy>  (34) 
-9.2200000000000006

>  <m_primary>  (34) 
energy

>  <rmsd>  (34) 
8.563254908802401

>  <m_score__min__rmsd>  (34) 
8.563254908802401

>  <meeko>  (34) 
{"free_energy": -6.49, "intermolecular_energy": -8.88, "internal_energy": -4.88, "cluster_size": 22, "cluster_id": 4, "rank_in_cluster": 2}

>  <energy>  (34) 
-6.28

>  <cluster_rmsd>  (34) 
1.55

>  <cluster>  (34) 
4

$$$$

     RDKit          3D

 56 59  0  0  0  0  0  0  0  0999 V2000
  139.9900   72.3550  221.8910 C   0  0  0  0  0  0  0  0  0  0  0  0
  139.5890   73.6350  221.3230 N   0  0  0  0  0  0  0  0  0  0  0  0
  138.2640   73.9310  220.8530 C   0  0  0  0  0  0  0  0  0  0  0  0
  137.4590   74.5750  221.9450 C   0  0  0  0  0  0  0  0  0  0  0  0
  138.2050   75.6300  222.5550 N   0  0  0  0  0  0  0  0  0  0  0  0
  138.4560   76.7980  221.7570 C   0  0  0  0  0  0  0  0  0  0  0  0
  137.9930   76.7870  220.5840 O   0  0  0  0  0  0  0  0  0  0  0  0
  139.2120   77.9240  222.3020 C   0  0  0  0  0  0  0  0  0  0  0  0
  138.4880   78.9250  222.9170 C   0  0  0  0  0  0  0  0  0  0  0  0
  139.1470   80.0080  223.4480 C   0  0  0  0  0  0  0  0  0  0  0  0
  140.5230   80.1020  223.3720 C   0  0  0  0  0  0  0  0  0  0  0  0
  141.2500   81.1460  223.8760 C   0  0  0  0  0  0  0  0  0  0  0  0
  142.6270   81.1740  223.7630 C   0  0  0  0  0  0  0  0  0  0  0  0
  143.3020   80.1390  223.1340 C   0  0  0  0  0  0  0  0  0  0  0  0
  142.5830   79.0810  222.6220 C   0  0  0  0  0  0  0  0  0  0  0  0
  141.2000   79.0670  222.7440 C   0  0  0  0  0  0  0  0  0  0  0  0
  140.5550   78.0070  222.2230 N   0  0  0  0  0  0  0  0  0  0  0  0
  140.6090   74.6240  221.2370 C   0  0  0  0  0  0  0  0  0  0  0  0
  141.0470   75.0740  222.3270 O   0  0  0  0  0  0  0  0  0  0  0  0
  141.1760   75.1450  219.9940 C   0  0  0  0  0  0  0  0  0  0  0  0
  140.9940   76.6010  219.9010 N   0  0  0  0  0  0  0  0  0  0  0  0
  142.0450   77.2980  219.2200 C   0  0  0  0  0  0  0  0  0  0  0  0
  143.0110   76.6260  218.7720 O   0  0  0  0  0  0  0  0  0  0  0  0
  141.9620   78.7480  219.0730 C   0  0  0  0  0  0  0  0  0  0  0  0
  142.7570   79.3380  218.1130 C   0  0  0  0  0  0  0  0  0  0  0  0
  142.7610   80.7000  217.8840 C   0  0  0  0  0  0  0  0  0  0  0  0
  141.9140   81.4690  218.6780 C   0  0  0  0  0  0  0  0  0  0  0  0
  141.8890   82.8350  218.4800 C   0  0  0  0  0  0  0  0  0  0  0  0
  141.0410   83.5680  219.2790 C   0  0  0  0  0  0  0  0  0  0  0  0
  140.2330   83.0050  220.2490 C   0  0  0  0  0  0  0  0  0  0  0  0
  140.2630   81.6230  220.4430 C   0  0  0  0  0  0  0  0  0  0  0  0
  141.1080   80.8740  219.6500 C   0  0  0  0  0  0  0  0  0  0  0  0
  141.1540   79.5200  219.8210 N   0  0  0  0  0  0  0  0  0  0  0  0
  139.9700   72.4187  222.9890 H   0  0  0  0  0  0  0  0  0  0  0  0
  139.2943   71.5713  221.5565 H   0  0  0  0  0  0  0  0  0  0  0  0
  141.0085   72.1084  221.5565 H   0  0  0  0  0  0  0  0  0  0  0  0
  138.3273   74.6168  219.9953 H   0  0  0  0  0  0  0  0  0  0  0  0
  137.7731   72.9947  220.5492 H   0  0  0  0  0  0  0  0  0  0  0  0
  136.5320   74.9857  221.5184 H   0  0  0  0  0  0  0  0  0  0  0  0
  137.2204   73.8186  222.7072 H   0  0  0  0  0  0  0  0  0  0  0  0
  138.5850   75.6530  223.5110 H   0  0  0  0  0  0  0  0  0  0  0  0
  137.3920   78.8567  222.9818 H   0  0  0  0  0  0  0  0  0  0  0  0
  138.5729   80.8079  223.9384 H   0  0  0  0  0  0  0  0  0  0  0  0
  140.7306   81.9753  224.3786 H   0  0  0  0  0  0  0  0  0  0  0  0
  143.1916   82.0234  224.1750 H   0  0  0  0  0  0  0  0  0  0  0  0
  144.3981   80.1623  223.0448 H   0  0  0  0  0  0  0  0  0  0  0  0
  143.1020   78.2517  222.1191 H   0  0  0  0  0  0  0  0  0  0  0  0
  142.2511   74.9143  219.9647 H   0  0  0  0  0  0  0  0  0  0  0  0
  140.6570   74.6723  219.1471 H   0  0  0  0  0  0  0  0  0  0  0  0
  140.1730   77.0790  220.2920 H   0  0  0  0  0  0  0  0  0  0  0  0
  143.4141   78.6984  217.5055 H   0  0  0  0  0  0  0  0  0  0  0  0
  143.4010   81.1544  217.1133 H   0  0  0  0  0  0  0  0  0  0  0  0
  142.5189   83.3164  217.7174 H   0  0  0  0  0  0  0  0  0  0  0  0
  141.0044   84.6584  219.1383 H   0  0  0  0  0  0  0  0  0  0  0  0
  139.5741   83.6386  220.8608 H   0  0  0  0  0  0  0  0  0  0  0  0
  139.6312   81.1448  221.2060 H   0  0  0  0  0  0  0  0  0  0  0  0
  1  2  1  0
  2  3  1  0
  3  4  1  0
  4  5  1  0
  5  6  1  0
  6  7  2  0
  6  8  1  0
  8  9  2  0
  9 10  1  0
 10 11  2  0
 11 12  1  0
 12 13  2  0
 13 14  1  0
 14 15  2  0
 15 16  1  0
 16 17  2  0
  2 18  1  0
 18 19  2  0
 18 20  1  0
 20 21  1  0
 21 22  1  0
 22 23  2  0
 22 24  1  0
 24 25  2  0
 25 26  1  0
 26 27  2  0
 27 28  1  0
 28 29  2  0
 29 30  1  0
 30 31  2  0
 31 32  1  0
 32 33  2  0
 17  8  1  0
 33 24  1  0
 16 11  1  0
 32 27  1  0
  1 34  1  0
  1 35  1  0
  1 36  1  0
  3 37  1  0
  3 38  1  0
  4 39  1  0
  4 40  1  0
  5 41  1  0
  9 42  1  0
 10 43  1  0
 12 44  1  0
 13 45  1  0
 14 46  1  0
 15 47  1  0
 20 48  1  0
 20 49  1  0
 21 50  1  0
 25 51  1  0
 26 52  1  0
 28 53  1  0
 29 54  1  0
 30 55  1  0
 31 56  1  0
M  END
>  <smiles>  (35) 
CN(CCNC(=O)c1ccc2ccccc2n1)C(=O)CNC(=O)c1ccc2ccccc2n1

>  <score_type>  (35) 
oracle

>  <origin>  (35) 
autodockgpu

>  <m_score__min__energy>  (35) 
-9.2200000000000006

>  <m_primary>  (35) 
energy

>  <rmsd>  (35) 
8.909911682625811

>  <m_score__min__rmsd>  (35) 
8.909911682625811

>  <meeko>  (35) 
{"free_energy": -6.52, "intermolecular_energy": -8.9, "internal_energy": -4.73, "cluster_size": 3, "cluster_id": 6, "rank_in_cluster": 1}

>  <energy>  (35) 
-6.22

>  <cluster_rmsd>  (35) 
1.58

>  <cluster>  (35) 
4

$$$$

     RDKit          3D

 56 59  0  0  0  0  0  0  0  0999 V2000
  136.4070   71.4830  221.4940 C   0  0  0  0  0  0  0  0  0  0  0  0
  136.7350   72.8720  221.2010 N   0  0  0  0  0  0  0  0  0  0  0  0
  135.8180   73.9670  221.3510 C   0  0  0  0  0  0  0  0  0  0  0  0
  136.0600   74.6720  222.6550 C   0  0  0  0  0  0  0  0  0  0  0  0
  137.3710   75.2390  222.6760 N   0  0  0  0  0  0  0  0  0  0  0  0
  137.4610   76.6730  222.6800 C   0  0  0  0  0  0  0  0  0  0  0  0
  136.3700   77.3050  222.6650 O   0  0  0  0  0  0  0  0  0  0  0  0
  138.7630   77.3360  222.7010 C   0  0  0  0  0  0  0  0  0  0  0  0
  139.8400   76.6170  222.2250 C   0  0  0  0  0  0  0  0  0  0  0  0
  141.0890   77.1910  222.2210 C   0  0  0  0  0  0  0  0  0  0  0  0
  141.2740   78.4780  222.6870 C   0  0  0  0  0  0  0  0  0  0  0  0
  142.4830   79.1170  222.7150 C   0  0  0  0  0  0  0  0  0  0  0  0
  142.5950   80.4080  223.1970 C   0  0  0  0  0  0  0  0  0  0  0  0
  141.4770   81.0830  223.6640 C   0  0  0  0  0  0  0  0  0  0  0  0
  140.2530   80.4510  223.6420 C   0  0  0  0  0  0  0  0  0  0  0  0
  140.1570   79.1540  223.1540 C   0  0  0  0  0  0  0  0  0  0  0  0
  138.9340   78.5930  223.1590 N   0  0  0  0  0  0  0  0  0  0  0  0
  138.0550   73.1130  220.7280 C   0  0  0  0  0  0  0  0  0  0  0  0
  138.3640   74.3140  220.5160 O   0  0  0  0  0  0  0  0  0  0  0  0
  139.0630   72.0840  220.4790 C   0  0  0  0  0  0  0  0  0  0  0  0
  139.2730   71.2510  221.6720 N   0  0  0  0  0  0  0  0  0  0  0  0
  139.6990   71.9670  222.8390 C   0  0  0  0  0  0  0  0  0  0  0  0
  139.8540   73.2130  222.7480 O   0  0  0  0  0  0  0  0  0  0  0  0
  139.9350   71.2340  224.0790 C   0  0  0  0  0  0  0  0  0  0  0  0
  140.6430   71.8750  225.0730 C   0  0  0  0  0  0  0  0  0  0  0  0
  140.9270   71.2800  226.2880 C   0  0  0  0  0  0  0  0  0  0  0  0
  140.4600   69.9820  226.4700 C   0  0  0  0  0  0  0  0  0  0  0  0
  140.7230   69.3530  227.6710 C   0  0  0  0  0  0  0  0  0  0  0  0
  140.2480   68.0700  227.8220 C   0  0  0  0  0  0  0  0  0  0  0  0
  139.5360   67.4020  226.8440 C   0  0  0  0  0  0  0  0  0  0  0  0
  139.2740   68.0440  225.6320 C   0  0  0  0  0  0  0  0  0  0  0  0
  139.7430   69.3300  225.4650 C   0  0  0  0  0  0  0  0  0  0  0  0
  139.4980   69.9800  224.2890 N   0  0  0  0  0  0  0  0  0  0  0  0
  136.3724   71.3364  222.5836 H   0  0  0  0  0  0  0  0  0  0  0  0
  135.4264   71.2384  221.0598 H   0  0  0  0  0  0  0  0  0  0  0  0
  137.1746   70.8255  221.0598 H   0  0  0  0  0  0  0  0  0  0  0  0
  135.9607   74.6764  220.5225 H   0  0  0  0  0  0  0  0  0  0  0  0
  134.7893   73.5776  221.3393 H   0  0  0  0  0  0  0  0  0  0  0  0
  135.3162   75.4730  222.7780 H   0  0  0  0  0  0  0  0  0  0  0  0
  135.9709   73.9458  223.4764 H   0  0  0  0  0  0  0  0  0  0  0  0
  138.2680   74.7360  222.6940 H   0  0  0  0  0  0  0  0  0  0  0  0
  139.7002   75.5919  221.8514 H   0  0  0  0  0  0  0  0  0  0  0  0
  141.9497   76.6197  221.8429 H   0  0  0  0  0  0  0  0  0  0  0  0
  143.3797   78.5959  222.3485 H   0  0  0  0  0  0  0  0  0  0  0  0
  143.5772   80.9030  223.2102 H   0  0  0  0  0  0  0  0  0  0  0  0
  141.5665   82.1102  224.0472 H   0  0  0  0  0  0  0  0  0  0  0  0
  139.3559   80.9710  224.0092 H   0  0  0  0  0  0  0  0  0  0  0  0
  138.7271   71.4451  219.6490 H   0  0  0  0  0  0  0  0  0  0  0  0
  140.0125   72.5783  220.2258 H   0  0  0  0  0  0  0  0  0  0  0  0
  139.1230   70.2350  221.6680 H   0  0  0  0  0  0  0  0  0  0  0  0
  140.9961   72.9010  224.8921 H   0  0  0  0  0  0  0  0  0  0  0  0
  141.4932   71.8058  227.0709 H   0  0  0  0  0  0  0  0  0  0  0  0
  141.2869   69.8549  228.4711 H   0  0  0  0  0  0  0  0  0  0  0  0
  140.4454   67.5492  228.7706 H   0  0  0  0  0  0  0  0  0  0  0  0
  139.1796   66.3760  227.0183 H   0  0  0  0  0  0  0  0  0  0  0  0
  138.7101   67.5388  224.8340 H   0  0  0  0  0  0  0  0  0  0  0  0
  1  2  1  0
  2  3  1  0
  3  4  1  0
  4  5  1  0
  5  6  1  0
  6  7  2  0
  6  8  1  0
  8  9  2  0
  9 10  1  0
 10 11  2  0
 11 12  1  0
 12 13  2  0
 13 14  1  0
 14 15  2  0
 15 16  1  0
 16 17  2  0
  2 18  1  0
 18 19  2  0
 18 20  1  0
 20 21  1  0
 21 22  1  0
 22 23  2  0
 22 24  1  0
 24 25  2  0
 25 26  1  0
 26 27  2  0
 27 28  1  0
 28 29  2  0
 29 30  1  0
 30 31  2  0
 31 32  1  0
 32 33  2  0
 17  8  1  0
 33 24  1  0
 16 11  1  0
 32 27  1  0
  1 34  1  0
  1 35  1  0
  1 36  1  0
  3 37  1  0
  3 38  1  0
  4 39  1  0
  4 40  1  0
  5 41  1  0
  9 42  1  0
 10 43  1  0
 12 44  1  0
 13 45  1  0
 14 46  1  0
 15 47  1  0
 20 48  1  0
 20 49  1  0
 21 50  1  0
 25 51  1  0
 26 52  1  0
 28 53  1  0
 29 54  1  0
 30 55  1  0
 31 56  1  0
M  END
>  <smiles>  (36) 
CN(CCNC(=O)c1ccc2ccccc2n1)C(=O)CNC(=O)c1ccc2ccccc2n1

>  <score_type>  (36) 
oracle

>  <origin>  (36) 
autodockgpu

>  <m_score__min__energy>  (36) 
-9.2200000000000006

>  <m_primary>  (36) 
energy

>  <rmsd>  (36) 
4.3455509465469

>  <m_score__min__rmsd>  (36) 
4.3455509465469

>  <meeko>  (36) 
{"free_energy": -8.77, "intermolecular_energy": -11.15, "internal_energy": -2.91, "cluster_size": 19, "cluster_id": 1, "rank_in_cluster": 7}

>  <energy>  (36) 
-6.18

>  <cluster_rmsd>  (36) 
1.53

>  <cluster>  (36) 
4

$$$$

     RDKit          3D

 56 59  0  0  0  0  0  0  0  0999 V2000
  138.1710   75.8190  219.6990 C   0  0  0  0  0  0  0  0  0  0  0  0
  137.8280   74.9430  220.8130 N   0  0  0  0  0  0  0  0  0  0  0  0
  136.4980   74.7760  221.3290 C   0  0  0  0  0  0  0  0  0  0  0  0
  136.4280   75.2590  222.7490 C   0  0  0  0  0  0  0  0  0  0  0  0
  137.5230   76.1330  223.0300 N   0  0  0  0  0  0  0  0  0  0  0  0
  137.3360   77.5280  222.7400 C   0  0  0  0  0  0  0  0  0  0  0  0
  136.2170   77.8570  222.2610 O   0  0  0  0  0  0  0  0  0  0  0  0
  138.4050   78.4910  222.9960 C   0  0  0  0  0  0  0  0  0  0  0  0
  138.0280   79.7370  223.4520 C   0  0  0  0  0  0  0  0  0  0  0  0
  138.9910   80.6830  223.7100 C   0  0  0  0  0  0  0  0  0  0  0  0
  140.3290   80.3970  223.5170 C   0  0  0  0  0  0  0  0  0  0  0  0
  141.3440   81.2830  223.7510 C   0  0  0  0  0  0  0  0  0  0  0  0
  142.6630   80.9280  223.5360 C   0  0  0  0  0  0  0  0  0  0  0  0
  142.9830   79.6600  223.0760 C   0  0  0  0  0  0  0  0  0  0  0  0
  141.9700   78.7570  222.8360 C   0  0  0  0  0  0  0  0  0  0  0  0
  140.6500   79.1290  223.0580 C   0  0  0  0  0  0  0  0  0  0  0  0
  139.7080   78.2020  222.8050 N   0  0  0  0  0  0  0  0  0  0  0  0
  138.9120   74.2340  221.4030 C   0  0  0  0  0  0  0  0  0  0  0  0
  139.7560   74.9230  222.0310 O   0  0  0  0  0  0  0  0  0  0  0  0
  139.1100   72.7870  221.3330 C   0  0  0  0  0  0  0  0  0  0  0  0
  139.3820   72.2290  222.6650 N   0  0  0  0  0  0  0  0  0  0  0  0
  139.3030   70.7990  222.7480 C   0  0  0  0  0  0  0  0  0  0  0  0
  139.0150   70.1600  221.7020 O   0  0  0  0  0  0  0  0  0  0  0  0
  139.5560   70.1430  224.0270 C   0  0  0  0  0  0  0  0  0  0  0  0
  139.1040   68.8490  224.1790 C   0  0  0  0  0  0  0  0  0  0  0  0
  139.2850   68.1300  225.3450 C   0  0  0  0  0  0  0  0  0  0  0  0
  139.9580   68.7760  226.3780 C   0  0  0  0  0  0  0  0  0  0  0  0
  140.1600   68.0900  227.5590 C   0  0  0  0  0  0  0  0  0  0  0  0
  140.8280   68.7550  228.5620 C   0  0  0  0  0  0  0  0  0  0  0  0
  141.2930   70.0510  228.4380 C   0  0  0  0  0  0  0  0  0  0  0  0
  141.0850   70.7380  227.2420 C   0  0  0  0  0  0  0  0  0  0  0  0
  140.4170   70.0850  226.2260 C   0  0  0  0  0  0  0  0  0  0  0  0
  140.2020   70.7370  225.0450 N   0  0  0  0  0  0  0  0  0  0  0  0
  138.5462   76.7771  220.0880 H   0  0  0  0  0  0  0  0  0  0  0  0
  138.9491   75.3429  219.0843 H   0  0  0  0  0  0  0  0  0  0  0  0
  137.2765   75.9979  219.0843 H   0  0  0  0  0  0  0  0  0  0  0  0
  135.7940   75.3550  220.7132 H   0  0  0  0  0  0  0  0  0  0  0  0
  136.2331   73.7088  221.2995 H   0  0  0  0  0  0  0  0  0  0  0  0
  135.4829   75.8006  222.9019 H   0  0  0  0  0  0  0  0  0  0  0  0
  136.4792   74.3925  223.4247 H   0  0  0  0  0  0  0  0  0  0  0  0
  138.4380   75.8790  223.4240 H   0  0  0  0  0  0  0  0  0  0  0  0
  136.9647   79.9717  223.6079 H   0  0  0  0  0  0  0  0  0  0  0  0
  138.6937   81.6776  224.0737 H   0  0  0  0  0  0  0  0  0  0  0  0
  141.1076   82.2935  224.1158 H   0  0  0  0  0  0  0  0  0  0  0  0
  143.4637   81.6566  223.7312 H   0  0  0  0  0  0  0  0  0  0  0  0
  144.0324   79.3782  222.9047 H   0  0  0  0  0  0  0  0  0  0  0  0
  142.2054   77.7466  222.4704 H   0  0  0  0  0  0  0  0  0  0  0  0
  138.2021   72.3188  220.9251 H   0  0  0  0  0  0  0  0  0  0  0  0
  139.9737   72.5819  220.6834 H   0  0  0  0  0  0  0  0  0  0  0  0
  139.6130   72.8190  223.4730 H   0  0  0  0  0  0  0  0  0  0  0  0
  138.5789   68.3705  223.3392 H   0  0  0  0  0  0  0  0  0  0  0  0
  138.9159   67.0993  225.4515 H   0  0  0  0  0  0  0  0  0  0  0  0
  139.8031   67.0581  227.6924 H   0  0  0  0  0  0  0  0  0  0  0  0
  141.0009   68.2278  229.5118 H   0  0  0  0  0  0  0  0  0  0  0  0
  141.8210   70.5349  229.2729 H   0  0  0  0  0  0  0  0  0  0  0  0
  141.4429   71.7700  227.1124 H   0  0  0  0  0  0  0  0  0  0  0  0
  1  2  1  0
  2  3  1  0
  3  4  1  0
  4  5  1  0
  5  6  1  0
  6  7  2  0
  6  8  1  0
  8  9  2  0
  9 10  1  0
 10 11  2  0
 11 12  1  0
 12 13  2  0
 13 14  1  0
 14 15  2  0
 15 16  1  0
 16 17  2  0
  2 18  1  0
 18 19  2  0
 18 20  1  0
 20 21  1  0
 21 22  1  0
 22 23  2  0
 22 24  1  0
 24 25  2  0
 25 26  1  0
 26 27  2  0
 27 28  1  0
 28 29  2  0
 29 30  1  0
 30 31  2  0
 31 32  1  0
 32 33  2  0
 17  8  1  0
 33 24  1  0
 16 11  1  0
 32 27  1  0
  1 34  1  0
  1 35  1  0
  1 36  1  0
  3 37  1  0
  3 38  1  0
  4 39  1  0
  4 40  1  0
  5 41  1  0
  9 42  1  0
 10 43  1  0
 12 44  1  0
 13 45  1  0
 14 46  1  0
 15 47  1  0
 20 48  1  0
 20 49  1  0
 21 50  1  0
 25 51  1  0
 26 52  1  0
 28 53  1  0
 29 54  1  0
 30 55  1  0
 31 56  1  0
M  END
>  <smiles>  (37) 
CN(CCNC(=O)c1ccc2ccccc2n1)C(=O)CNC(=O)c1ccc2ccccc2n1

>  <score_type>  (37) 
oracle

>  <origin>  (37) 
autodockgpu

>  <m_score__min__energy>  (37) 
-9.2200000000000006

>  <m_primary>  (37) 
energy

>  <rmsd>  (37) 
2.972140183477995

>  <m_score__min__rmsd>  (37) 
2.972140183477995

>  <meeko>  (37) 
{"free_energy": -9.02, "intermolecular_energy": -11.4, "internal_energy": -2.64, "cluster_size": 19, "cluster_id": 1, "rank_in_cluster": 4}

>  <energy>  (37) 
-6.1

>  <cluster_rmsd>  (37) 
1.69

>  <cluster>  (37) 
4

$$$$

     RDKit          3D

 56 59  0  0  0  0  0  0  0  0999 V2000
  143.6050   72.9460  218.1040 C   0  0  0  0  0  0  0  0  0  0  0  0
  143.3060   73.6100  219.3660 N   0  0  0  0  0  0  0  0  0  0  0  0
  142.7530   72.9480  220.5150 C   0  0  0  0  0  0  0  0  0  0  0  0
  141.3890   73.4960  220.8240 C   0  0  0  0  0  0  0  0  0  0  0  0
  141.4970   74.8070  221.3820 N   0  0  0  0  0  0  0  0  0  0  0  0
  140.2700   75.5070  221.6440 C   0  0  0  0  0  0  0  0  0  0  0  0
  139.2040   74.8990  221.3570 O   0  0  0  0  0  0  0  0  0  0  0  0
  140.2890   76.8530  222.2140 C   0  0  0  0  0  0  0  0  0  0  0  0
  139.0720   77.4010  222.5670 C   0  0  0  0  0  0  0  0  0  0  0  0
  139.0300   78.6640  223.1070 C   0  0  0  0  0  0  0  0  0  0  0  0
  140.1910   79.3870  223.2990 C   0  0  0  0  0  0  0  0  0  0  0  0
  140.2300   80.6470  223.8310 C   0  0  0  0  0  0  0  0  0  0  0  0
  141.4310   81.3130  223.9950 C   0  0  0  0  0  0  0  0  0  0  0  0
  142.6240   80.7130  223.6220 C   0  0  0  0  0  0  0  0  0  0  0  0
  142.5990   79.4440  223.0850 C   0  0  0  0  0  0  0  0  0  0  0  0
  141.3850   78.7880  222.9280 C   0  0  0  0  0  0  0  0  0  0  0  0
  141.4270   77.5520  222.3980 N   0  0  0  0  0  0  0  0  0  0  0  0
  143.5850   75.0040  219.4180 C   0  0  0  0  0  0  0  0  0  0  0  0
  144.1740   75.4200  220.4490 O   0  0  0  0  0  0  0  0  0  0  0  0
  143.2450   75.9720  218.3760 C   0  0  0  0  0  0  0  0  0  0  0  0
  142.7540   77.2270  218.9620 N   0  0  0  0  0  0  0  0  0  0  0  0
  141.3510   77.4680  218.7850 C   0  0  0  0  0  0  0  0  0  0  0  0
  140.6760   76.6100  218.1580 O   0  0  0  0  0  0  0  0  0  0  0  0
  140.7620   78.6870  219.3290 C   0  0  0  0  0  0  0  0  0  0  0  0
  139.3870   78.7510  219.4070 C   0  0  0  0  0  0  0  0  0  0  0  0
  138.7190   79.8540  219.9040 C   0  0  0  0  0  0  0  0  0  0  0  0
  139.5070   80.9190  220.3330 C   0  0  0  0  0  0  0  0  0  0  0  0
  138.8770   82.0390  220.8370 C   0  0  0  0  0  0  0  0  0  0  0  0
  139.6820   83.0750  221.2530 C   0  0  0  0  0  0  0  0  0  0  0  0
  141.0620   83.0400  221.1880 C   0  0  0  0  0  0  0  0  0  0  0  0
  141.6920   81.9040  220.6770 C   0  0  0  0  0  0  0  0  0  0  0  0
  140.8990   80.8570  220.2560 C   0  0  0  0  0  0  0  0  0  0  0  0
  141.4920   79.7340  219.7530 N   0  0  0  0  0  0  0  0  0  0  0  0
  144.0491   71.9598  218.3048 H   0  0  0  0  0  0  0  0  0  0  0  0
  142.6769   72.8197  217.5272 H   0  0  0  0  0  0  0  0  0  0  0  0
  144.3148   73.5572  217.5272 H   0  0  0  0  0  0  0  0  0  0  0  0
  142.6735   71.8702  220.3099 H   0  0  0  0  0  0  0  0  0  0  0  0
  143.4122   73.1187  221.3789 H   0  0  0  0  0  0  0  0  0  0  0  0
  140.7983   73.5434  219.8973 H   0  0  0  0  0  0  0  0  0  0  0  0
  140.8945   72.8364  221.5522 H   0  0  0  0  0  0  0  0  0  0  0  0
  142.3590   75.3130  221.6250 H   0  0  0  0  0  0  0  0  0  0  0  0
  138.1432   76.8311  222.4172 H   0  0  0  0  0  0  0  0  0  0  0  0
  138.0619   79.1036  223.3892 H   0  0  0  0  0  0  0  0  0  0  0  0
  139.2927   81.1373  224.1326 H   0  0  0  0  0  0  0  0  0  0  0  0
  141.4398   82.3257  224.4243 H   0  0  0  0  0  0  0  0  0  0  0  0
  143.5787   81.2434  223.7531 H   0  0  0  0  0  0  0  0  0  0  0  0
  143.5358   78.9532  222.7823 H   0  0  0  0  0  0  0  0  0  0  0  0
  144.1415   76.1826  217.7745 H   0  0  0  0  0  0  0  0  0  0  0  0
  142.4501   75.5447  217.7471 H   0  0  0  0  0  0  0  0  0  0  0  0
  143.3700   77.8790  219.4630 H   0  0  0  0  0  0  0  0  0  0  0  0
  138.7979   77.8894  219.0596 H   0  0  0  0  0  0  0  0  0  0  0  0
  137.6209   79.8889  219.9580 H   0  0  0  0  0  0  0  0  0  0  0  0
  137.7807   82.1008  220.9032 H   0  0  0  0  0  0  0  0  0  0  0  0
  139.2019   83.9779  221.6583 H   0  0  0  0  0  0  0  0  0  0  0  0
  141.6572   83.8975  221.5350 H   0  0  0  0  0  0  0  0  0  0  0  0
  142.7885   81.8456  220.6120 H   0  0  0  0  0  0  0  0  0  0  0  0
  1  2  1  0
  2  3  1  0
  3  4  1  0
  4  5  1  0
  5  6  1  0
  6  7  2  0
  6  8  1  0
  8  9  2  0
  9 10  1  0
 10 11  2  0
 11 12  1  0
 12 13  2  0
 13 14  1  0
 14 15  2  0
 15 16  1  0
 16 17  2  0
  2 18  1  0
 18 19  2  0
 18 20  1  0
 20 21  1  0
 21 22  1  0
 22 23  2  0
 22 24  1  0
 24 25  2  0
 25 26  1  0
 26 27  2  0
 27 28  1  0
 28 29  2  0
 29 30  1  0
 30 31  2  0
 31 32  1  0
 32 33  2  0
 17  8  1  0
 33 24  1  0
 16 11  1  0
 32 27  1  0
  1 34  1  0
  1 35  1  0
  1 36  1  0
  3 37  1  0
  3 38  1  0
  4 39  1  0
  4 40  1  0
  5 41  1  0
  9 42  1  0
 10 43  1  0
 12 44  1  0
 13 45  1  0
 14 46  1  0
 15 47  1  0
 20 48  1  0
 20 49  1  0
 21 50  1  0
 25 51  1  0
 26 52  1  0
 28 53  1  0
 29 54  1  0
 30 55  1  0
 31 56  1  0
M  END
>  <smiles>  (38) 
CN(CCNC(=O)c1ccc2ccccc2n1)C(=O)CNC(=O)c1ccc2ccccc2n1

>  <score_type>  (38) 
oracle

>  <origin>  (38) 
autodockgpu

>  <m_score__min__energy>  (38) 
-9.2200000000000006

>  <m_primary>  (38) 
energy

>  <rmsd>  (38) 
8.525758915238901

>  <m_score__min__rmsd>  (38) 
8.525758915238901

>  <meeko>  (38) 
{"free_energy": -6.28, "intermolecular_energy": -8.67, "internal_energy": -5.06, "cluster_size": 22, "cluster_id": 4, "rank_in_cluster": 9}

>  <energy>  (38) 
-6.07

>  <cluster_rmsd>  (38) 
1.72

>  <cluster>  (38) 
4

$$$$

     RDKit          3D

 56 59  0  0  0  0  0  0  0  0999 V2000
  140.2960   73.8040  221.7080 C   0  0  0  0  0  0  0  0  0  0  0  0
  139.1610   74.2990  220.9390 N   0  0  0  0  0  0  0  0  0  0  0  0
  138.9330   75.6850  220.6380 C   0  0  0  0  0  0  0  0  0  0  0  0
  138.4610   76.4120  221.8640 C   0  0  0  0  0  0  0  0  0  0  0  0
  137.7390   75.5250  222.7190 N   0  0  0  0  0  0  0  0  0  0  0  0
  136.5160   76.0190  223.2890 C   0  0  0  0  0  0  0  0  0  0  0  0
  136.1890   77.1980  222.9820 O   0  0  0  0  0  0  0  0  0  0  0  0
  135.7140   75.1780  224.1760 C   0  0  0  0  0  0  0  0  0  0  0  0
  134.9100   75.8230  225.0930 C   0  0  0  0  0  0  0  0  0  0  0  0
  134.1340   75.0810  225.9520 C   0  0  0  0  0  0  0  0  0  0  0  0
  134.1540   73.7010  225.9050 C   0  0  0  0  0  0  0  0  0  0  0  0
  133.4120   72.8950  226.7250 C   0  0  0  0  0  0  0  0  0  0  0  0
  133.4820   71.5180  226.6220 C   0  0  0  0  0  0  0  0  0  0  0  0
  134.3090   70.9250  225.6810 C   0  0  0  0  0  0  0  0  0  0  0  0
  135.0620   71.7240  224.8490 C   0  0  0  0  0  0  0  0  0  0  0  0
  134.9800   73.1060  224.9640 C   0  0  0  0  0  0  0  0  0  0  0  0
  135.7400   73.8310  224.1230 N   0  0  0  0  0  0  0  0  0  0  0  0
  138.2390   73.3140  220.4860 C   0  0  0  0  0  0  0  0  0  0  0  0
  138.3890   72.9090  219.3040 O   0  0  0  0  0  0  0  0  0  0  0  0
  137.1510   72.7480  221.2810 C   0  0  0  0  0  0  0  0  0  0  0  0
  137.6240   72.3580  222.6180 N   0  0  0  0  0  0  0  0  0  0  0  0
  138.4380   71.1780  222.6500 C   0  0  0  0  0  0  0  0  0  0  0  0
  138.6740   70.5900  221.5620 O   0  0  0  0  0  0  0  0  0  0  0  0
  138.9590   70.7050  223.9280 C   0  0  0  0  0  0  0  0  0  0  0  0
  138.7730   69.3750  224.2390 C   0  0  0  0  0  0  0  0  0  0  0  0
  139.2220   68.8160  225.4200 C   0  0  0  0  0  0  0  0  0  0  0  0
  139.8840   69.6680  226.3010 C   0  0  0  0  0  0  0  0  0  0  0  0
  140.3500   69.1470  227.4920 C   0  0  0  0  0  0  0  0  0  0  0  0
  141.0000   70.0130  228.3410 C   0  0  0  0  0  0  0  0  0  0  0  0
  141.2010   71.3500  228.0570 C   0  0  0  0  0  0  0  0  0  0  0  0
  140.7290   71.8700  226.8510 C   0  0  0  0  0  0  0  0  0  0  0  0
  140.0740   71.0150  225.9880 C   0  0  0  0  0  0  0  0  0  0  0  0
  139.6030   71.4990  224.8020 N   0  0  0  0  0  0  0  0  0  0  0  0
  140.0800   73.8982  222.7825 H   0  0  0  0  0  0  0  0  0  0  0  0
  140.4732   72.7469  221.4609 H   0  0  0  0  0  0  0  0  0  0  0  0
  141.1913   74.3934  221.4609 H   0  0  0  0  0  0  0  0  0  0  0  0
  139.8707   76.1390  220.2850 H   0  0  0  0  0  0  0  0  0  0  0  0
  138.1616   75.7602  219.8574 H   0  0  0  0  0  0  0  0  0  0  0  0
  139.3307   76.8112  222.4065 H   0  0  0  0  0  0  0  0  0  0  0  0
  137.7971   77.2344  221.5590 H   0  0  0  0  0  0  0  0  0  0  0  0
  137.9910   74.5610  222.9740 H   0  0  0  0  0  0  0  0  0  0  0  0
  134.8899   76.9220  225.1366 H   0  0  0  0  0  0  0  0  0  0  0  0
  133.4909   75.5917  226.6839 H   0  0  0  0  0  0  0  0  0  0  0  0
  132.7502   73.3493  227.4771 H   0  0  0  0  0  0  0  0  0  0  0  0
  132.8772   70.8887  227.2915 H   0  0  0  0  0  0  0  0  0  0  0  0
  134.3634   69.8294  225.5995 H   0  0  0  0  0  0  0  0  0  0  0  0
  135.7247   71.2701  224.0975 H   0  0  0  0  0  0  0  0  0  0  0  0
  136.3538   73.4986  221.3861 H   0  0  0  0  0  0  0  0  0  0  0  0
  136.7710   71.8521  220.7681 H   0  0  0  0  0  0  0  0  0  0  0  0
  137.3880   72.8930  223.4620 H   0  0  0  0  0  0  0  0  0  0  0  0
  138.2459   68.7330  223.5179 H   0  0  0  0  0  0  0  0  0  0  0  0
  139.0647   67.7525  225.6527 H   0  0  0  0  0  0  0  0  0  0  0  0
  140.2079   68.0873  227.7504 H   0  0  0  0  0  0  0  0  0  0  0  0
  141.3795   69.6202  229.2958 H   0  0  0  0  0  0  0  0  0  0  0  0
  141.7273   71.9976  228.7736 H   0  0  0  0  0  0  0  0  0  0  0  0
  140.8747   72.9300  226.5958 H   0  0  0  0  0  0  0  0  0  0  0  0
  1  2  1  0
  2  3  1  0
  3  4  1  0
  4  5  1  0
  5  6  1  0
  6  7  2  0
  6  8  1  0
  8  9  2  0
  9 10  1  0
 10 11  2  0
 11 12  1  0
 12 13  2  0
 13 14  1  0
 14 15  2  0
 15 16  1  0
 16 17  2  0
  2 18  1  0
 18 19  2  0
 18 20  1  0
 20 21  1  0
 21 22  1  0
 22 23  2  0
 22 24  1  0
 24 25  2  0
 25 26  1  0
 26 27  2  0
 27 28  1  0
 28 29  2  0
 29 30  1  0
 30 31  2  0
 31 32  1  0
 32 33  2  0
 17  8  1  0
 33 24  1  0
 16 11  1  0
 32 27  1  0
  1 34  1  0
  1 35  1  0
  1 36  1  0
  3 37  1  0
  3 38  1  0
  4 39  1  0
  4 40  1  0
  5 41  1  0
  9 42  1  0
 10 43  1  0
 12 44  1  0
 13 45  1  0
 14 46  1  0
 15 47  1  0
 20 48  1  0
 20 49  1  0
 21 50  1  0
 25 51  1  0
 26 52  1  0
 28 53  1  0
 29 54  1  0
 30 55  1  0
 31 56  1  0
M  END
>  <smiles>  (39) 
CN(CCNC(=O)c1ccc2ccccc2n1)C(=O)CNC(=O)c1ccc2ccccc2n1

>  <score_type>  (39) 
oracle

>  <origin>  (39) 
autodockgpu

>  <m_score__min__energy>  (39) 
-9.2200000000000006

>  <m_primary>  (39) 
energy

>  <rmsd>  (39) 
5.466638799008561

>  <m_score__min__rmsd>  (39) 
5.466638799008561

>  <meeko>  (39) 
{"free_energy": -7.67, "intermolecular_energy": -10.06, "internal_energy": -3.23, "cluster_size": 4, "cluster_id": 3, "rank_in_cluster": 4}

>  <energy>  (39) 
-6.07

>  <cluster_rmsd>  (39) 
1.95

>  <cluster>  (39) 
4

$$$$

     RDKit          3D

 56 59  0  0  0  0  0  0  0  0999 V2000
  140.7310   74.0040  218.2190 C   0  0  0  0  0  0  0  0  0  0  0  0
  141.9580   73.9530  219.0040 N   0  0  0  0  0  0  0  0  0  0  0  0
  143.2010   74.5470  218.5990 C   0  0  0  0  0  0  0  0  0  0  0  0
  143.7790   75.3590  219.7220 C   0  0  0  0  0  0  0  0  0  0  0  0
  142.8740   76.3980  220.1000 N   0  0  0  0  0  0  0  0  0  0  0  0
  142.5570   77.3810  219.1010 C   0  0  0  0  0  0  0  0  0  0  0  0
  143.1080   77.2370  217.9760 O   0  0  0  0  0  0  0  0  0  0  0  0
  141.6400   78.4790  219.4020 C   0  0  0  0  0  0  0  0  0  0  0  0
  140.2930   78.2380  219.2230 C   0  0  0  0  0  0  0  0  0  0  0  0
  139.3860   79.2340  219.4910 C   0  0  0  0  0  0  0  0  0  0  0  0
  139.8090   80.4710  219.9370 C   0  0  0  0  0  0  0  0  0  0  0  0
  138.9690   81.5110  220.2250 C   0  0  0  0  0  0  0  0  0  0  0  0
  139.4630   82.7240  220.6680 C   0  0  0  0  0  0  0  0  0  0  0  0
  140.8280   82.9100  220.8300 C   0  0  0  0  0  0  0  0  0  0  0  0
  141.6860   81.8700  220.5430 C   0  0  0  0  0  0  0  0  0  0  0  0
  141.1740   80.6580  220.1000 C   0  0  0  0  0  0  0  0  0  0  0  0
  142.0630   79.6830  219.8370 N   0  0  0  0  0  0  0  0  0  0  0  0
  141.8770   73.2510  220.2400 C   0  0  0  0  0  0  0  0  0  0  0  0
  142.6580   72.2750  220.3820 O   0  0  0  0  0  0  0  0  0  0  0  0
  140.9700   73.5790  221.3380 C   0  0  0  0  0  0  0  0  0  0  0  0
  141.2420   74.9250  221.8620 N   0  0  0  0  0  0  0  0  0  0  0  0
  140.1060   75.8000  221.8980 C   0  0  0  0  0  0  0  0  0  0  0  0
  139.0020   75.3560  221.4890 O   0  0  0  0  0  0  0  0  0  0  0  0
  140.2690   77.1600  222.4020 C   0  0  0  0  0  0  0  0  0  0  0  0
  139.1260   77.8580  222.7320 C   0  0  0  0  0  0  0  0  0  0  0  0
  139.1580   79.1510  223.2180 C   0  0  0  0  0  0  0  0  0  0  0  0
  140.4150   79.7320  223.3640 C   0  0  0  0  0  0  0  0  0  0  0  0
  140.4890   81.0230  223.8480 C   0  0  0  0  0  0  0  0  0  0  0  0
  141.7450   81.5700  223.9820 C   0  0  0  0  0  0  0  0  0  0  0  0
  142.9070   80.8950  223.6600 C   0  0  0  0  0  0  0  0  0  0  0  0
  142.8250   79.5900  223.1720 C   0  0  0  0  0  0  0  0  0  0  0  0
  141.5730   79.0270  223.0320 C   0  0  0  0  0  0  0  0  0  0  0  0
  141.4670   77.7510  222.5570 N   0  0  0  0  0  0  0  0  0  0  0  0
  139.8642   74.0400  218.8953 H   0  0  0  0  0  0  0  0  0  0  0  0
  140.7387   74.9026  217.5846 H   0  0  0  0  0  0  0  0  0  0  0  0
  140.6641   73.1079  217.5846 H   0  0  0  0  0  0  0  0  0  0  0  0
  143.9101   73.7527  218.3228 H   0  0  0  0  0  0  0  0  0  0  0  0
  143.0195   75.2056  217.7368 H   0  0  0  0  0  0  0  0  0  0  0  0
  143.9612   74.7041  220.5868 H   0  0  0  0  0  0  0  0  0  0  0  0
  144.7236   75.8120  219.3865 H   0  0  0  0  0  0  0  0  0  0  0  0
  142.4150   76.5250  221.0110 H   0  0  0  0  0  0  0  0  0  0  0  0
  139.9483   77.2555  218.8683 H   0  0  0  0  0  0  0  0  0  0  0  0
  138.3118   79.0447  219.3490 H   0  0  0  0  0  0  0  0  0  0  0  0
  137.8837   81.3805  220.1024 H   0  0  0  0  0  0  0  0  0  0  0  0
  138.7689   83.5470  220.8935 H   0  0  0  0  0  0  0  0  0  0  0  0
  141.2207   83.8750  221.1830 H   0  0  0  0  0  0  0  0  0  0  0  0
  142.7715   81.9998  220.6644 H   0  0  0  0  0  0  0  0  0  0  0  0
  139.9333   73.5380  220.9726 H   0  0  0  0  0  0  0  0  0  0  0  0
  141.1224   72.8504  222.1479 H   0  0  0  0  0  0  0  0  0  0  0  0
  142.1750   75.2140  222.1800 H   0  0  0  0  0  0  0  0  0  0  0  0
  138.1507   77.3659  222.6032 H   0  0  0  0  0  0  0  0  0  0  0  0
  138.2370   79.6940  223.4765 H   0  0  0  0  0  0  0  0  0  0  0  0
  139.5844   81.5892  224.1147 H   0  0  0  0  0  0  0  0  0  0  0  0
  141.8280   82.5977  224.3653 H   0  0  0  0  0  0  0  0  0  0  0  0
  143.8857   81.3808  223.7869 H   0  0  0  0  0  0  0  0  0  0  0  0
  143.7319   79.0268  222.9067 H   0  0  0  0  0  0  0  0  0  0  0  0
  1  2  1  0
  2  3  1  0
  3  4  1  0
  4  5  1  0
  5  6  1  0
  6  7  2  0
  6  8  1  0
  8  9  2  0
  9 10  1  0
 10 11  2  0
 11 12  1  0
 12 13  2  0
 13 14  1  0
 14 15  2  0
 15 16  1  0
 16 17  2  0
  2 18  1  0
 18 19  2  0
 18 20  1  0
 20 21  1  0
 21 22  1  0
 22 23  2  0
 22 24  1  0
 24 25  2  0
 25 26  1  0
 26 27  2  0
 27 28  1  0
 28 29  2  0
 29 30  1  0
 30 31  2  0
 31 32  1  0
 32 33  2  0
 17  8  1  0
 33 24  1  0
 16 11  1  0
 32 27  1  0
  1 34  1  0
  1 35  1  0
  1 36  1  0
  3 37  1  0
  3 38  1  0
  4 39  1  0
  4 40  1  0
  5 41  1  0
  9 42  1  0
 10 43  1  0
 12 44  1  0
 13 45  1  0
 14 46  1  0
 15 47  1  0
 20 48  1  0
 20 49  1  0
 21 50  1  0
 25 51  1  0
 26 52  1  0
 28 53  1  0
 29 54  1  0
 30 55  1  0
 31 56  1  0
M  END
>  <smiles>  (40) 
CN(CCNC(=O)c1ccc2ccccc2n1)C(=O)CNC(=O)c1ccc2ccccc2n1

>  <score_type>  (40) 
oracle

>  <origin>  (40) 
autodockgpu

>  <m_score__min__energy>  (40) 
-9.2200000000000006

>  <m_primary>  (40) 
energy

>  <rmsd>  (40) 
6.7561622150752125

>  <m_score__min__rmsd>  (40) 
6.7561622150752125

>  <meeko>  (40) 
{"free_energy": -6.22, "intermolecular_energy": -8.61, "internal_energy": -4.81, "cluster_size": 22, "cluster_id": 4, "rank_in_cluster": 11}

>  <energy>  (40) 
-5.94

>  <cluster_rmsd>  (40) 
1.8

>  <cluster>  (40) 
4

$$$$

     RDKit          3D

 56 59  0  0  0  0  0  0  0  0999 V2000
  143.7340   72.9710  218.6750 C   0  0  0  0  0  0  0  0  0  0  0  0
  142.9600   73.6410  219.7120 N   0  0  0  0  0  0  0  0  0  0  0  0
  143.4200   74.7810  220.4540 C   0  0  0  0  0  0  0  0  0  0  0  0
  143.6590   75.9410  219.5300 C   0  0  0  0  0  0  0  0  0  0  0  0
  142.9370   77.0890  219.9790 N   0  0  0  0  0  0  0  0  0  0  0  0
  141.9300   77.6120  219.0980 C   0  0  0  0  0  0  0  0  0  0  0  0
  141.7720   77.0070  218.0030 O   0  0  0  0  0  0  0  0  0  0  0  0
  141.1450   78.7850  219.4780 C   0  0  0  0  0  0  0  0  0  0  0  0
  139.7730   78.6810  219.3740 C   0  0  0  0  0  0  0  0  0  0  0  0
  138.9850   79.7530  219.7180 C   0  0  0  0  0  0  0  0  0  0  0  0
  139.5530   80.9300  220.1660 C   0  0  0  0  0  0  0  0  0  0  0  0
  138.8370   82.0380  220.5280 C   0  0  0  0  0  0  0  0  0  0  0  0
  139.4740   83.1830  220.9680 C   0  0  0  0  0  0  0  0  0  0  0  0
  140.8570   83.2310  221.0540 C   0  0  0  0  0  0  0  0  0  0  0  0
  141.5900   82.1210  220.6930 C   0  0  0  0  0  0  0  0  0  0  0  0
  140.9360   80.9780  220.2530 C   0  0  0  0  0  0  0  0  0  0  0  0
  141.7090   79.9290  219.9150 N   0  0  0  0  0  0  0  0  0  0  0  0
  141.6740   73.0920  219.9810 C   0  0  0  0  0  0  0  0  0  0  0  0
  141.6510   71.9310  220.4640 O   0  0  0  0  0  0  0  0  0  0  0  0
  140.4010   73.7700  219.7430 C   0  0  0  0  0  0  0  0  0  0  0  0
  140.4590   75.1700  220.1870 N   0  0  0  0  0  0  0  0  0  0  0  0
  140.2670   75.3650  221.5950 C   0  0  0  0  0  0  0  0  0  0  0  0
  140.0700   74.3500  222.3130 O   0  0  0  0  0  0  0  0  0  0  0  0
  140.3050   76.7180  222.1400 C   0  0  0  0  0  0  0  0  0  0  0  0
  139.1050   77.2970  222.4930 C   0  0  0  0  0  0  0  0  0  0  0  0
  139.0200   78.5720  223.0190 C   0  0  0  0  0  0  0  0  0  0  0  0
  140.2190   79.2610  223.1810 C   0  0  0  0  0  0  0  0  0  0  0  0
  140.1750   80.5390  223.7040 C   0  0  0  0  0  0  0  0  0  0  0  0
  141.3760   81.1940  223.8530 C   0  0  0  0  0  0  0  0  0  0  0  0
  142.5940   80.6400  223.5080 C   0  0  0  0  0  0  0  0  0  0  0  0
  142.6310   79.3480  222.9800 C   0  0  0  0  0  0  0  0  0  0  0  0
  141.4350   78.6770  222.8250 C   0  0  0  0  0  0  0  0  0  0  0  0
  141.4450   77.4120  222.3110 N   0  0  0  0  0  0  0  0  0  0  0  0
  144.4868   72.3194  219.1426 H   0  0  0  0  0  0  0  0  0  0  0  0
  143.0619   72.3649  218.0498 H   0  0  0  0  0  0  0  0  0  0  0  0
  144.2376   73.7230  218.0498 H   0  0  0  0  0  0  0  0  0  0  0  0
  142.6600   75.0604  221.1985 H   0  0  0  0  0  0  0  0  0  0  0  0
  144.3634   74.5238  220.9578 H   0  0  0  0  0  0  0  0  0  0  0  0
  144.7340   76.1734  219.5097 H   0  0  0  0  0  0  0  0  0  0  0  0
  143.3126   75.6723  218.5211 H   0  0  0  0  0  0  0  0  0  0  0  0
  143.0530   77.5890  220.8700 H   0  0  0  0  0  0  0  0  0  0  0  0
  139.3135   77.7470  219.0184 H   0  0  0  0  0  0  0  0  0  0  0  0
  137.8910   79.6731  219.6358 H   0  0  0  0  0  0  0  0  0  0  0  0
  137.7388   82.0174  220.4681 H   0  0  0  0  0  0  0  0  0  0  0  0
  138.8789   84.0633  221.2523 H   0  0  0  0  0  0  0  0  0  0  0  0
  141.3624   84.1426  221.4056 H   0  0  0  0  0  0  0  0  0  0  0  0
  142.6882   82.1406  220.7532 H   0  0  0  0  0  0  0  0  0  0  0  0
  140.1747   73.7429  218.6669 H   0  0  0  0  0  0  0  0  0  0  0  0
  139.6163   73.2531  220.3148 H   0  0  0  0  0  0  0  0  0  0  0  0
  140.6260   75.9480  219.5370 H   0  0  0  0  0  0  0  0  0  0  0  0
  138.1785   76.7215  222.3504 H   0  0  0  0  0  0  0  0  0  0  0  0
  138.0541   79.0198  223.2957 H   0  0  0  0  0  0  0  0  0  0  0  0
  139.2232   81.0115  223.9884 H   0  0  0  0  0  0  0  0  0  0  0  0
  141.3659   82.2124  224.2687 H   0  0  0  0  0  0  0  0  0  0  0  0
  143.5240   81.2105  223.6478 H   0  0  0  0  0  0  0  0  0  0  0  0
  143.5847   78.8791  222.6961 H   0  0  0  0  0  0  0  0  0  0  0  0
  1  2  1  0
  2  3  1  0
  3  4  1  0
  4  5  1  0
  5  6  1  0
  6  7  2  0
  6  8  1  0
  8  9  2  0
  9 10  1  0
 10 11  2  0
 11 12  1  0
 12 13  2  0
 13 14  1  0
 14 15  2  0
 15 16  1  0
 16 17  2  0
  2 18  1  0
 18 19  2  0
 18 20  1  0
 20 21  1  0
 21 22  1  0
 22 23  2  0
 22 24  1  0
 24 25  2  0
 25 26  1  0
 26 27  2  0
 27 28  1  0
 28 29  2  0
 29 30  1  0
 30 31  2  0
 31 32  1  0
 32 33  2  0
 17  8  1  0
 33 24  1  0
 16 11  1  0
 32 27  1  0
  1 34  1  0
  1 35  1  0
  1 36  1  0
  3 37  1  0
  3 38  1  0
  4 39  1  0
  4 40  1  0
  5 41  1  0
  9 42  1  0
 10 43  1  0
 12 44  1  0
 13 45  1  0
 14 46  1  0
 15 47  1  0
 20 48  1  0
 20 49  1  0
 21 50  1  0
 25 51  1  0
 26 52  1  0
 28 53  1  0
 29 54  1  0
 30 55  1  0
 31 56  1  0
M  END
>  <smiles>  (41) 
CN(CCNC(=O)c1ccc2ccccc2n1)C(=O)CNC(=O)c1ccc2ccccc2n1

>  <score_type>  (41) 
oracle

>  <origin>  (41) 
autodockgpu

>  <m_score__min__energy>  (41) 
-9.2200000000000006

>  <m_primary>  (41) 
energy

>  <rmsd>  (41) 
6.599865254752217

>  <m_score__min__rmsd>  (41) 
6.599865254752217

>  <meeko>  (41) 
{"free_energy": -6.28, "intermolecular_energy": -8.66, "internal_energy": -5.15, "cluster_size": 22, "cluster_id": 4, "rank_in_cluster": 10}

>  <energy>  (41) 
-5.94

>  <cluster_rmsd>  (41) 
1.79

>  <cluster>  (41) 
4

$$$$

     RDKit          3D

 56 59  0  0  0  0  0  0  0  0999 V2000
  142.8930   72.0330  219.6280 C   0  0  0  0  0  0  0  0  0  0  0  0
  142.3160   73.3620  219.7870 N   0  0  0  0  0  0  0  0  0  0  0  0
  142.9010   74.4070  220.5800 C   0  0  0  0  0  0  0  0  0  0  0  0
  143.4780   75.4720  219.6930 C   0  0  0  0  0  0  0  0  0  0  0  0
  142.9320   76.7480  220.0310 N   0  0  0  0  0  0  0  0  0  0  0  0
  142.0040   77.3280  219.1000 C   0  0  0  0  0  0  0  0  0  0  0  0
  141.7530   76.6550  218.0630 O   0  0  0  0  0  0  0  0  0  0  0  0
  141.3990   78.6310  219.3670 C   0  0  0  0  0  0  0  0  0  0  0  0
  142.2150   79.7370  219.2490 C   0  0  0  0  0  0  0  0  0  0  0  0
  141.6990   80.9880  219.4890 C   0  0  0  0  0  0  0  0  0  0  0  0
  140.3740   81.1470  219.8460 C   0  0  0  0  0  0  0  0  0  0  0  0
  139.7880   82.3570  220.1000 C   0  0  0  0  0  0  0  0  0  0  0  0
  138.4540   82.4410  220.4530 C   0  0  0  0  0  0  0  0  0  0  0  0
  137.6810   81.2950  220.5570 C   0  0  0  0  0  0  0  0  0  0  0  0
  138.2590   80.0700  220.3040 C   0  0  0  0  0  0  0  0  0  0  0  0
  139.6000   80.0020  219.9500 C   0  0  0  0  0  0  0  0  0  0  0  0
  140.1040   78.7760  219.7160 N   0  0  0  0  0  0  0  0  0  0  0  0
  141.0900   73.5930  219.1030 C   0  0  0  0  0  0  0  0  0  0  0  0
  141.0750   73.3270  217.8740 O   0  0  0  0  0  0  0  0  0  0  0  0
  139.8660   74.1070  219.7170 C   0  0  0  0  0  0  0  0  0  0  0  0
  140.0520   75.4870  220.1870 N   0  0  0  0  0  0  0  0  0  0  0  0
  140.0790   75.6410  221.6120 C   0  0  0  0  0  0  0  0  0  0  0  0
  139.9440   74.6110  222.3230 O   0  0  0  0  0  0  0  0  0  0  0  0
  140.2590   76.9720  222.1840 C   0  0  0  0  0  0  0  0  0  0  0  0
  139.1410   77.6100  222.6780 C   0  0  0  0  0  0  0  0  0  0  0  0
  139.1910   78.8710  223.2410 C   0  0  0  0  0  0  0  0  0  0  0  0
  140.4410   79.4820  223.2900 C   0  0  0  0  0  0  0  0  0  0  0  0
  140.5330   80.7430  223.8460 C   0  0  0  0  0  0  0  0  0  0  0  0
  141.7810   81.3220  223.8810 C   0  0  0  0  0  0  0  0  0  0  0  0
  142.9190   80.7070  223.3940 C   0  0  0  0  0  0  0  0  0  0  0  0
  142.8190   79.4330  222.8330 C   0  0  0  0  0  0  0  0  0  0  0  0
  141.5740   78.8390  222.7910 C   0  0  0  0  0  0  0  0  0  0  0  0
  141.4510   77.5920  222.2480 N   0  0  0  0  0  0  0  0  0  0  0  0
  143.0832   71.5949  220.6189 H   0  0  0  0  0  0  0  0  0  0  0  0
  142.1918   71.3929  219.0726 H   0  0  0  0  0  0  0  0  0  0  0  0
  143.8395   72.1082  219.0726 H   0  0  0  0  0  0  0  0  0  0  0  0
  142.1272   74.8506  221.2238 H   0  0  0  0  0  0  0  0  0  0  0  0
  143.7053   73.9805  221.1975 H   0  0  0  0  0  0  0  0  0  0  0  0
  144.5701   75.4990  219.8216 H   0  0  0  0  0  0  0  0  0  0  0  0
  143.2274   75.2412  218.6471 H   0  0  0  0  0  0  0  0  0  0  0  0
  143.1250   77.3050  220.8740 H   0  0  0  0  0  0  0  0  0  0  0  0
  143.2710   79.6185  218.9648 H   0  0  0  0  0  0  0  0  0  0  0  0
  142.3476   81.8715  219.3959 H   0  0  0  0  0  0  0  0  0  0  0  0
  140.3870   83.2763  220.0222 H   0  0  0  0  0  0  0  0  0  0  0  0
  138.0028   83.4241  220.6527 H   0  0  0  0  0  0  0  0  0  0  0  0
  136.6196   81.3627  220.8380 H   0  0  0  0  0  0  0  0  0  0  0  0
  137.6609   79.1502  220.3821 H   0  0  0  0  0  0  0  0  0  0  0  0
  139.0548   74.0862  218.9743 H   0  0  0  0  0  0  0  0  0  0  0  0
  139.6143   73.4736  220.5804 H   0  0  0  0  0  0  0  0  0  0  0  0
  140.1560   76.2790  219.5410 H   0  0  0  0  0  0  0  0  0  0  0  0
  138.1708   77.0948  222.6217 H   0  0  0  0  0  0  0  0  0  0  0  0
  138.2895   79.3666  223.6304 H   0  0  0  0  0  0  0  0  0  0  0  0
  139.6479   81.2615  224.2432 H   0  0  0  0  0  0  0  0  0  0  0  0
  141.8779   82.3263  224.3193 H   0  0  0  0  0  0  0  0  0  0  0  0
  143.8927   81.2160  223.4480 H   0  0  0  0  0  0  0  0  0  0  0  0
  143.7061   78.9177  222.4361 H   0  0  0  0  0  0  0  0  0  0  0  0
  1  2  1  0
  2  3  1  0
  3  4  1  0
  4  5  1  0
  5  6  1  0
  6  7  2  0
  6  8  1  0
  8  9  2  0
  9 10  1  0
 10 11  2  0
 11 12  1  0
 12 13  2  0
 13 14  1  0
 14 15  2  0
 15 16  1  0
 16 17  2  0
  2 18  1  0
 18 19  2  0
 18 20  1  0
 20 21  1  0
 21 22  1  0
 22 23  2  0
 22 24  1  0
 24 25  2  0
 25 26  1  0
 26 27  2  0
 27 28  1  0
 28 29  2  0
 29 30  1  0
 30 31  2  0
 31 32  1  0
 32 33  2  0
 17  8  1  0
 33 24  1  0
 16 11  1  0
 32 27  1  0
  1 34  1  0
  1 35  1  0
  1 36  1  0
  3 37  1  0
  3 38  1  0
  4 39  1  0
  4 40  1  0
  5 41  1  0
  9 42  1  0
 10 43  1  0
 12 44  1  0
 13 45  1  0
 14 46  1  0
 15 47  1  0
 20 48  1  0
 20 49  1  0
 21 50  1  0
 25 51  1  0
 26 52  1  0
 28 53  1  0
 29 54  1  0
 30 55  1  0
 31 56  1  0
M  END
>  <smiles>  (42) 
CN(CCNC(=O)c1ccc2ccccc2n1)C(=O)CNC(=O)c1ccc2ccccc2n1

>  <score_type>  (42) 
oracle

>  <origin>  (42) 
autodockgpu

>  <m_score__min__energy>  (42) 
-9.2200000000000006

>  <m_primary>  (42) 
energy

>  <rmsd>  (42) 
6.679217258740688

>  <m_score__min__rmsd>  (42) 
6.679217258740688

>  <meeko>  (42) 
{"free_energy": -5.94, "intermolecular_energy": -8.32, "internal_energy": -5.3, "cluster_size": 22, "cluster_id": 4, "rank_in_cluster": 17}

>  <energy>  (42) 
-5.88

>  <cluster_rmsd>  (42) 
1.85

>  <cluster>  (42) 
4

$$$$

     RDKit          3D

 56 59  0  0  0  0  0  0  0  0999 V2000
  135.8300   73.3400  219.6010 C   0  0  0  0  0  0  0  0  0  0  0  0
  136.6910   73.4430  220.7720 N   0  0  0  0  0  0  0  0  0  0  0  0
  136.2190   73.4050  222.1280 C   0  0  0  0  0  0  0  0  0  0  0  0
  136.1550   74.7950  222.6950 C   0  0  0  0  0  0  0  0  0  0  0  0
  137.4570   75.3840  222.7080 N   0  0  0  0  0  0  0  0  0  0  0  0
  137.5220   76.8200  222.7150 C   0  0  0  0  0  0  0  0  0  0  0  0
  136.4200   77.4330  222.7090 O   0  0  0  0  0  0  0  0  0  0  0  0
  138.8130   77.5060  222.7280 C   0  0  0  0  0  0  0  0  0  0  0  0
  139.8910   76.8210  222.2070 C   0  0  0  0  0  0  0  0  0  0  0  0
  141.1290   77.4170  222.1930 C   0  0  0  0  0  0  0  0  0  0  0  0
  141.3020   78.6920  222.6950 C   0  0  0  0  0  0  0  0  0  0  0  0
  142.5010   79.3520  222.7170 C   0  0  0  0  0  0  0  0  0  0  0  0
  142.6000   80.6290  223.2360 C   0  0  0  0  0  0  0  0  0  0  0  0
  141.4820   81.2700  223.7470 C   0  0  0  0  0  0  0  0  0  0  0  0
  140.2690   80.6170  223.7320 C   0  0  0  0  0  0  0  0  0  0  0  0
  140.1850   79.3340  223.2060 C   0  0  0  0  0  0  0  0  0  0  0  0
  138.9720   78.7510  223.2200 N   0  0  0  0  0  0  0  0  0  0  0  0
  138.0820   73.5980  220.5100 C   0  0  0  0  0  0  0  0  0  0  0  0
  138.5200   74.7770  220.4950 O   0  0  0  0  0  0  0  0  0  0  0  0
  139.0210   72.5050  220.2640 C   0  0  0  0  0  0  0  0  0  0  0  0
  139.1090   71.6140  221.4300 N   0  0  0  0  0  0  0  0  0  0  0  0
  139.6250   72.2260  222.6200 C   0  0  0  0  0  0  0  0  0  0  0  0
  139.9510   73.4410  222.5690 O   0  0  0  0  0  0  0  0  0  0  0  0
  139.7540   71.4280  223.8350 C   0  0  0  0  0  0  0  0  0  0  0  0
  139.2660   70.1380  223.8050 C   0  0  0  0  0  0  0  0  0  0  0  0
  139.3330   69.2920  224.8950 C   0  0  0  0  0  0  0  0  0  0  0  0
  139.9240   69.8040  226.0470 C   0  0  0  0  0  0  0  0  0  0  0  0
  140.0100   68.9880  227.1580 C   0  0  0  0  0  0  0  0  0  0  0  0
  140.5990   69.5220  228.2820 C   0  0  0  0  0  0  0  0  0  0  0  0
  141.0960   70.8110  228.3410 C   0  0  0  0  0  0  0  0  0  0  0  0
  141.0060   71.6290  227.2140 C   0  0  0  0  0  0  0  0  0  0  0  0
  140.4180   71.1090  226.0800 C   0  0  0  0  0  0  0  0  0  0  0  0
  140.3190   71.8900  224.9640 N   0  0  0  0  0  0  0  0  0  0  0  0
  134.7858   73.2151  219.9235 H   0  0  0  0  0  0  0  0  0  0  0  0
  135.9204   74.2554  218.9977 H   0  0  0  0  0  0  0  0  0  0  0  0
  136.1338   72.4718  218.9977 H   0  0  0  0  0  0  0  0  0  0  0  0
  135.2147   72.9569  222.1506 H   0  0  0  0  0  0  0  0  0  0  0  0
  136.9130   72.8027  222.7326 H   0  0  0  0  0  0  0  0  0  0  0  0
  135.4846   75.4093  222.0759 H   0  0  0  0  0  0  0  0  0  0  0  0
  135.7739   74.7446  223.7257 H   0  0  0  0  0  0  0  0  0  0  0  0
  138.3620   74.8970  222.7180 H   0  0  0  0  0  0  0  0  0  0  0  0
  139.7606   75.8051  221.8057 H   0  0  0  0  0  0  0  0  0  0  0  0
  141.9906   76.8734  221.7780 H   0  0  0  0  0  0  0  0  0  0  0  0
  143.3987   78.8588  222.3158 H   0  0  0  0  0  0  0  0  0  0  0  0
  143.5736   81.1409  223.2437 H   0  0  0  0  0  0  0  0  0  0  0  0
  141.5624   82.2867  224.1591 H   0  0  0  0  0  0  0  0  0  0  0  0
  139.3714   81.1091  224.1346 H   0  0  0  0  0  0  0  0  0  0  0  0
  138.6789   71.9258  219.3936 H   0  0  0  0  0  0  0  0  0  0  0  0
  140.0161   72.9337  220.0745 H   0  0  0  0  0  0  0  0  0  0  0  0
  138.8200   70.6290  221.3930 H   0  0  0  0  0  0  0  0  0  0  0  0
  138.8056   69.7686  222.8768 H   0  0  0  0  0  0  0  0  0  0  0  0
  138.9393   68.2657  224.8548 H   0  0  0  0  0  0  0  0  0  0  0  0
  139.6251   67.9576  227.1454 H   0  0  0  0  0  0  0  0  0  0  0  0
  140.6783   68.8907  229.1793 H   0  0  0  0  0  0  0  0  0  0  0  0
  141.5572   71.1874  229.2660 H   0  0  0  0  0  0  0  0  0  0  0  0
  141.3928   72.6586  227.2296 H   0  0  0  0  0  0  0  0  0  0  0  0
  1  2  1  0
  2  3  1  0
  3  4  1  0
  4  5  1  0
  5  6  1  0
  6  7  2  0
  6  8  1  0
  8  9  2  0
  9 10  1  0
 10 11  2  0
 11 12  1  0
 12 13  2  0
 13 14  1  0
 14 15  2  0
 15 16  1  0
 16 17  2  0
  2 18  1  0
 18 19  2  0
 18 20  1  0
 20 21  1  0
 21 22  1  0
 22 23  2  0
 22 24  1  0
 24 25  2  0
 25 26  1  0
 26 27  2  0
 27 28  1  0
 28 29  2  0
 29 30  1  0
 30 31  2  0
 31 32  1  0
 32 33  2  0
 17  8  1  0
 33 24  1  0
 16 11  1  0
 32 27  1  0
  1 34  1  0
  1 35  1  0
  1 36  1  0
  3 37  1  0
  3 38  1  0
  4 39  1  0
  4 40  1  0
  5 41  1  0
  9 42  1  0
 10 43  1  0
 12 44  1  0
 13 45  1  0
 14 46  1  0
 15 47  1  0
 20 48  1  0
 20 49  1  0
 21 50  1  0
 25 51  1  0
 26 52  1  0
 28 53  1  0
 29 54  1  0
 30 55  1  0
 31 56  1  0
M  END
>  <smiles>  (43) 
CN(CCNC(=O)c1ccc2ccccc2n1)C(=O)CNC(=O)c1ccc2ccccc2n1

>  <score_type>  (43) 
oracle

>  <origin>  (43) 
autodockgpu

>  <m_score__min__energy>  (43) 
-9.2200000000000006

>  <m_primary>  (43) 
energy

>  <rmsd>  (43) 
3.6638518402830718

>  <m_score__min__rmsd>  (43) 
3.6638518402830718

>  <meeko>  (43) 
{"free_energy": -8.98, "intermolecular_energy": -11.36, "internal_energy": -2.83, "cluster_size": 19, "cluster_id": 1, "rank_in_cluster": 5}

>  <energy>  (43) 
-5.85

>  <cluster_rmsd>  (43) 
1.88

>  <cluster>  (43) 
4

$$$$

     RDKit          3D

 56 59  0  0  0  0  0  0  0  0999 V2000
  139.9750   72.0610  221.0840 C   0  0  0  0  0  0  0  0  0  0  0  0
  139.6220   73.4700  220.9690 N   0  0  0  0  0  0  0  0  0  0  0  0
  138.2950   73.9510  220.7000 C   0  0  0  0  0  0  0  0  0  0  0  0
  137.6850   74.5160  221.9500 C   0  0  0  0  0  0  0  0  0  0  0  0
  138.5090   75.5570  222.4770 N   0  0  0  0  0  0  0  0  0  0  0  0
  138.2990   76.8810  221.9590 C   0  0  0  0  0  0  0  0  0  0  0  0
  137.4010   77.0050  221.0810 O   0  0  0  0  0  0  0  0  0  0  0  0
  139.0990   78.0050  222.4410 C   0  0  0  0  0  0  0  0  0  0  0  0
  138.4200   79.0400  223.0510 C   0  0  0  0  0  0  0  0  0  0  0  0
  139.1220   80.1230  223.5240 C   0  0  0  0  0  0  0  0  0  0  0  0
  140.4960   80.1830  223.3950 C   0  0  0  0  0  0  0  0  0  0  0  0
  141.2630   81.2250  223.8400 C   0  0  0  0  0  0  0  0  0  0  0  0
  142.6360   81.2180  223.6760 C   0  0  0  0  0  0  0  0  0  0  0  0
  143.2650   80.1500  223.0560 C   0  0  0  0  0  0  0  0  0  0  0  0
  142.5040   79.0940  222.6030 C   0  0  0  0  0  0  0  0  0  0  0  0
  141.1260   79.1150  222.7750 C   0  0  0  0  0  0  0  0  0  0  0  0
  140.4400   78.0550  222.3110 N   0  0  0  0  0  0  0  0  0  0  0  0
  140.6910   74.3950  221.1290 C   0  0  0  0  0  0  0  0  0  0  0  0
  141.0380   74.6510  222.3120 O   0  0  0  0  0  0  0  0  0  0  0  0
  141.4050   75.0570  220.0380 C   0  0  0  0  0  0  0  0  0  0  0  0
  141.5040   76.5040  220.2740 N   0  0  0  0  0  0  0  0  0  0  0  0
  141.0110   77.3240  219.2060 C   0  0  0  0  0  0  0  0  0  0  0  0
  140.5480   76.7530  218.1840 O   0  0  0  0  0  0  0  0  0  0  0  0
  141.0620   78.7770  219.3390 C   0  0  0  0  0  0  0  0  0  0  0  0
  142.1850   79.4210  218.8650 C   0  0  0  0  0  0  0  0  0  0  0  0
  142.3440   80.7920  218.9380 C   0  0  0  0  0  0  0  0  0  0  0  0
  141.3030   81.5100  219.5200 C   0  0  0  0  0  0  0  0  0  0  0  0
  141.4240   82.8820  219.6110 C   0  0  0  0  0  0  0  0  0  0  0  0
  140.3790   83.5650  220.1910 C   0  0  0  0  0  0  0  0  0  0  0  0
  139.2410   82.9470  220.6750 C   0  0  0  0  0  0  0  0  0  0  0  0
  139.1260   81.5590  220.5800 C   0  0  0  0  0  0  0  0  0  0  0  0
  140.1650   80.8600  220.0010 C   0  0  0  0  0  0  0  0  0  0  0  0
  140.0750   79.5020  219.8960 N   0  0  0  0  0  0  0  0  0  0  0  0
  140.0439   71.7858  222.1468 H   0  0  0  0  0  0  0  0  0  0  0  0
  139.2026   71.4485  220.5960 H   0  0  0  0  0  0  0  0  0  0  0  0
  140.9450   71.8850  220.5960 H   0  0  0  0  0  0  0  0  0  0  0  0
  138.3421   74.7366  219.9315 H   0  0  0  0  0  0  0  0  0  0  0  0
  137.6752   73.1146  220.3445 H   0  0  0  0  0  0  0  0  0  0  0  0
  136.6904   74.9237  221.7162 H   0  0  0  0  0  0  0  0  0  0  0  0
  137.5974   73.7152  222.6990 H   0  0  0  0  0  0  0  0  0  0  0  0
  139.2410   75.4710  223.1950 H   0  0  0  0  0  0  0  0  0  0  0  0
  137.3260   78.9987  223.1578 H   0  0  0  0  0  0  0  0  0  0  0  0
  138.5842   80.9503  224.0102 H   0  0  0  0  0  0  0  0  0  0  0  0
  140.7805   82.0805  224.3353 H   0  0  0  0  0  0  0  0  0  0  0  0
  143.2335   82.0666  224.0404 H   0  0  0  0  0  0  0  0  0  0  0  0
  144.3574   80.1452  222.9271 H   0  0  0  0  0  0  0  0  0  0  0  0
  142.9859   78.2383  222.1074 H   0  0  0  0  0  0  0  0  0  0  0  0
  142.4180   74.6348  219.9628 H   0  0  0  0  0  0  0  0  0  0  0  0
  140.8479   74.8919  219.1040 H   0  0  0  0  0  0  0  0  0  0  0  0
  141.8950   76.8950  221.1390 H   0  0  0  0  0  0  0  0  0  0  0  0
  142.9863   78.8198  218.4107 H   0  0  0  0  0  0  0  0  0  0  0  0
  143.2470   81.2904  218.5557 H   0  0  0  0  0  0  0  0  0  0  0  0
  142.3157   83.4062  219.2367 H   0  0  0  0  0  0  0  0  0  0  0  0
  140.4533   84.6594  220.2737 H   0  0  0  0  0  0  0  0  0  0  0  0
  138.4354   83.5421  221.1298 H   0  0  0  0  0  0  0  0  0  0  0  0
  138.2331   81.0379  220.9558 H   0  0  0  0  0  0  0  0  0  0  0  0
  1  2  1  0
  2  3  1  0
  3  4  1  0
  4  5  1  0
  5  6  1  0
  6  7  2  0
  6  8  1  0
  8  9  2  0
  9 10  1  0
 10 11  2  0
 11 12  1  0
 12 13  2  0
 13 14  1  0
 14 15  2  0
 15 16  1  0
 16 17  2  0
  2 18  1  0
 18 19  2  0
 18 20  1  0
 20 21  1  0
 21 22  1  0
 22 23  2  0
 22 24  1  0
 24 25  2  0
 25 26  1  0
 26 27  2  0
 27 28  1  0
 28 29  2  0
 29 30  1  0
 30 31  2  0
 31 32  1  0
 32 33  2  0
 17  8  1  0
 33 24  1  0
 16 11  1  0
 32 27  1  0
  1 34  1  0
  1 35  1  0
  1 36  1  0
  3 37  1  0
  3 38  1  0
  4 39  1  0
  4 40  1  0
  5 41  1  0
  9 42  1  0
 10 43  1  0
 12 44  1  0
 13 45  1  0
 14 46  1  0
 15 47  1  0
 20 48  1  0
 20 49  1  0
 21 50  1  0
 25 51  1  0
 26 52  1  0
 28 53  1  0
 29 54  1  0
 30 55  1  0
 31 56  1  0
M  END
>  <smiles>  (44) 
CN(CCNC(=O)c1ccc2ccccc2n1)C(=O)CNC(=O)c1ccc2ccccc2n1

>  <score_type>  (44) 
oracle

>  <origin>  (44) 
autodockgpu

>  <m_score__min__energy>  (44) 
-9.2200000000000006

>  <m_primary>  (44) 
energy

>  <rmsd>  (44) 
8.700395245659163

>  <m_score__min__rmsd>  (44) 
8.700395245659163

>  <meeko>  (44) 
{"free_energy": -6.07, "intermolecular_energy": -8.46, "internal_energy": -5.14, "cluster_size": 22, "cluster_id": 4, "rank_in_cluster": 15}

>  <energy>  (44) 
-5.83

>  <cluster_rmsd>  (44) 
1.8

>  <cluster>  (44) 
4

$$$$

     RDKit          3D

 56 59  0  0  0  0  0  0  0  0999 V2000
  135.3310   74.1110  219.3780 C   0  0  0  0  0  0  0  0  0  0  0  0
  136.4260   73.4120  220.0400 N   0  0  0  0  0  0  0  0  0  0  0  0
  137.5830   72.8980  219.3610 C   0  0  0  0  0  0  0  0  0  0  0  0
  138.8080   73.0850  220.2090 C   0  0  0  0  0  0  0  0  0  0  0  0
  138.8020   72.1620  221.3000 N   0  0  0  0  0  0  0  0  0  0  0  0
  139.6430   72.4730  222.4220 C   0  0  0  0  0  0  0  0  0  0  0  0
  140.3150   73.5370  222.3430 O   0  0  0  0  0  0  0  0  0  0  0  0
  139.6980   71.5830  223.5800 C   0  0  0  0  0  0  0  0  0  0  0  0
  139.0550   70.3670  223.4670 C   0  0  0  0  0  0  0  0  0  0  0  0
  139.0740   69.4910  224.5250 C   0  0  0  0  0  0  0  0  0  0  0  0
  139.7290   69.8150  225.6970 C   0  0  0  0  0  0  0  0  0  0  0  0
  139.7920   68.9970  226.7920 C   0  0  0  0  0  0  0  0  0  0  0  0
  140.4660   69.3880  227.9340 C   0  0  0  0  0  0  0  0  0  0  0  0
  141.0950   70.6220  227.9910 C   0  0  0  0  0  0  0  0  0  0  0  0
  141.0390   71.4560  226.8960 C   0  0  0  0  0  0  0  0  0  0  0  0
  140.3580   71.0490  225.7560 C   0  0  0  0  0  0  0  0  0  0  0  0
  140.3400   71.9090  224.7210 N   0  0  0  0  0  0  0  0  0  0  0  0
  136.2960   73.2420  221.4470 C   0  0  0  0  0  0  0  0  0  0  0  0
  136.2420   72.0570  221.8660 O   0  0  0  0  0  0  0  0  0  0  0  0
  136.2230   74.3280  222.4240 C   0  0  0  0  0  0  0  0  0  0  0  0
  137.5200   75.0080  222.5530 N   0  0  0  0  0  0  0  0  0  0  0  0
  137.4680   76.4350  222.4200 C   0  0  0  0  0  0  0  0  0  0  0  0
  136.3490   76.9710  222.2100 O   0  0  0  0  0  0  0  0  0  0  0  0
  138.7020   77.2070  222.5320 C   0  0  0  0  0  0  0  0  0  0  0  0
  139.8660   76.6170  222.0890 C   0  0  0  0  0  0  0  0  0  0  0  0
  141.0920   77.2520  222.1460 C   0  0  0  0  0  0  0  0  0  0  0  0
  141.1030   78.5380  222.6790 C   0  0  0  0  0  0  0  0  0  0  0  0
  142.3090   79.2070  222.7520 C   0  0  0  0  0  0  0  0  0  0  0  0
  142.2890   80.4770  223.2830 C   0  0  0  0  0  0  0  0  0  0  0  0
  141.1380   81.0940  223.7350 C   0  0  0  0  0  0  0  0  0  0  0  0
  139.9220   80.4130  223.6580 C   0  0  0  0  0  0  0  0  0  0  0  0
  139.9260   79.1380  223.1280 C   0  0  0  0  0  0  0  0  0  0  0  0
  138.7490   78.4510  223.0410 N   0  0  0  0  0  0  0  0  0  0  0  0
  134.6587   74.5401  220.1356 H   0  0  0  0  0  0  0  0  0  0  0  0
  135.7373   74.9172  218.7495 H   0  0  0  0  0  0  0  0  0  0  0  0
  134.7708   73.4031  218.7495 H   0  0  0  0  0  0  0  0  0  0  0  0
  137.4401   71.8259  219.1605 H   0  0  0  0  0  0  0  0  0  0  0  0
  137.7152   73.4429  218.4146 H   0  0  0  0  0  0  0  0  0  0  0  0
  139.7042   72.9144  219.5944 H   0  0  0  0  0  0  0  0  0  0  0  0
  138.8138   74.1101  220.6078 H   0  0  0  0  0  0  0  0  0  0  0  0
  138.2560   71.2940  221.3790 H   0  0  0  0  0  0  0  0  0  0  0  0
  138.5313   70.1013  222.5369 H   0  0  0  0  0  0  0  0  0  0  0  0
  138.5622   68.5212  224.4378 H   0  0  0  0  0  0  0  0  0  0  0  0
  139.2992   68.0140  226.7633 H   0  0  0  0  0  0  0  0  0  0  0  0
  140.5034   68.7152  228.8035 H   0  0  0  0  0  0  0  0  0  0  0  0
  141.6323   70.9315  228.8996 H   0  0  0  0  0  0  0  0  0  0  0  0
  141.5312   72.4393  226.9244 H   0  0  0  0  0  0  0  0  0  0  0  0
  135.4660   75.0560  222.0969 H   0  0  0  0  0  0  0  0  0  0  0  0
  135.9513   73.9027  223.4014 H   0  0  0  0  0  0  0  0  0  0  0  0
  138.3940   74.4980  222.7270 H   0  0  0  0  0  0  0  0  0  0  0  0
  139.8172   75.5997  221.6734 H   0  0  0  0  0  0  0  0  0  0  0  0
  142.0120   76.7663  221.7886 H   0  0  0  0  0  0  0  0  0  0  0  0
  143.2440   78.7456  222.4014 H   0  0  0  0  0  0  0  0  0  0  0  0
  143.2380   81.0290  223.3510 H   0  0  0  0  0  0  0  0  0  0  0  0
  141.1797   82.1114  224.1512 H   0  0  0  0  0  0  0  0  0  0  0  0
  138.9889   80.8779  224.0089 H   0  0  0  0  0  0  0  0  0  0  0  0
  1  2  1  0
  2  3  1  0
  3  4  1  0
  4  5  1  0
  5  6  1  0
  6  7  2  0
  6  8  1  0
  8  9  2  0
  9 10  1  0
 10 11  2  0
 11 12  1  0
 12 13  2  0
 13 14  1  0
 14 15  2  0
 15 16  1  0
 16 17  2  0
  2 18  1  0
 18 19  2  0
 18 20  1  0
 20 21  1  0
 21 22  1  0
 22 23  2  0
 22 24  1  0
 24 25  2  0
 25 26  1  0
 26 27  2  0
 27 28  1  0
 28 29  2  0
 29 30  1  0
 30 31  2  0
 31 32  1  0
 32 33  2  0
 17  8  1  0
 33 24  1  0
 16 11  1  0
 32 27  1  0
  1 34  1  0
  1 35  1  0
  1 36  1  0
  3 37  1  0
  3 38  1  0
  4 39  1  0
  4 40  1  0
  5 41  1  0
  9 42  1  0
 10 43  1  0
 12 44  1  0
 13 45  1  0
 14 46  1  0
 15 47  1  0
 20 48  1  0
 20 49  1  0
 21 50  1  0
 25 51  1  0
 26 52  1  0
 28 53  1  0
 29 54  1  0
 30 55  1  0
 31 56  1  0
M  END
>  <smiles>  (45) 
CN(CCNC(=O)c1ccc2ccccc2n1)C(=O)CNC(=O)c1ccc2ccccc2n1

>  <score_type>  (45) 
oracle

>  <origin>  (45) 
autodockgpu

>  <m_score__min__energy>  (45) 
-9.2200000000000006

>  <m_primary>  (45) 
energy

>  <rmsd>  (45) 
9.034431906629013

>  <m_score__min__rmsd>  (45) 
9.034431906629013

>  <meeko>  (45) 
{"free_energy": -8.55, "intermolecular_energy": -10.94, "internal_energy": -2.95, "cluster_size": 19, "cluster_id": 1, "rank_in_cluster": 11}

>  <energy>  (45) 
-5.82

>  <cluster_rmsd>  (45) 
1.79

>  <cluster>  (45) 
4

$$$$

     RDKit          3D

 56 59  0  0  0  0  0  0  0  0999 V2000
  139.1150   73.6990  217.9860 C   0  0  0  0  0  0  0  0  0  0  0  0
  139.2220   73.0080  219.2650 N   0  0  0  0  0  0  0  0  0  0  0  0
  140.2570   72.0670  219.5900 C   0  0  0  0  0  0  0  0  0  0  0  0
  140.9380   72.4660  220.8680 C   0  0  0  0  0  0  0  0  0  0  0  0
  141.3800   73.8220  220.7920 N   0  0  0  0  0  0  0  0  0  0  0  0
  140.6980   74.7780  221.6190 C   0  0  0  0  0  0  0  0  0  0  0  0
  139.7650   74.3320  222.3410 O   0  0  0  0  0  0  0  0  0  0  0  0
  141.0850   76.1870  221.6030 C   0  0  0  0  0  0  0  0  0  0  0  0
  141.4690   76.7170  220.3880 C   0  0  0  0  0  0  0  0  0  0  0  0
  141.8440   78.0370  220.3140 C   0  0  0  0  0  0  0  0  0  0  0  0
  141.8400   78.8350  221.4420 C   0  0  0  0  0  0  0  0  0  0  0  0
  142.1980   80.1550  221.4490 C   0  0  0  0  0  0  0  0  0  0  0  0
  142.1690   80.8940  222.6170 C   0  0  0  0  0  0  0  0  0  0  0  0
  141.7740   80.3090  223.8100 C   0  0  0  0  0  0  0  0  0  0  0  0
  141.4100   78.9800  223.8170 C   0  0  0  0  0  0  0  0  0  0  0  0
  141.4440   78.2510  222.6360 C   0  0  0  0  0  0  0  0  0  0  0  0
  141.0770   76.9580  222.7090 N   0  0  0  0  0  0  0  0  0  0  0  0
  138.2100   73.3080  220.2200 C   0  0  0  0  0  0  0  0  0  0  0  0
  137.9630   74.5270  220.4110 O   0  0  0  0  0  0  0  0  0  0  0  0
  137.4500   72.3180  220.9810 C   0  0  0  0  0  0  0  0  0  0  0  0
  138.0400   72.1080  222.3100 N   0  0  0  0  0  0  0  0  0  0  0  0
  138.2840   70.7370  222.6520 C   0  0  0  0  0  0  0  0  0  0  0  0
  137.9810   69.8520  221.8100 O   0  0  0  0  0  0  0  0  0  0  0  0
  138.8690   70.4180  223.9510 C   0  0  0  0  0  0  0  0  0  0  0  0
  138.6930   69.1390  224.4330 C   0  0  0  0  0  0  0  0  0  0  0  0
  139.2010   68.7240  225.6490 C   0  0  0  0  0  0  0  0  0  0  0  0
  139.9130   69.6700  226.3820 C   0  0  0  0  0  0  0  0  0  0  0  0
  140.4370   69.2940  227.6030 C   0  0  0  0  0  0  0  0  0  0  0  0
  141.1360   70.2510  228.3050 C   0  0  0  0  0  0  0  0  0  0  0  0
  141.3280   71.5410  227.8480 C   0  0  0  0  0  0  0  0  0  0  0  0
  140.7960   71.9130  226.6130 C   0  0  0  0  0  0  0  0  0  0  0  0
  140.0930   70.9660  225.8970 C   0  0  0  0  0  0  0  0  0  0  0  0
  139.5630   71.3070  224.6850 N   0  0  0  0  0  0  0  0  0  0  0  0
  138.9488   74.7721  218.1618 H   0  0  0  0  0  0  0  0  0  0  0  0
  140.0453   73.5606  217.4155 H   0  0  0  0  0  0  0  0  0  0  0  0
  138.2701   73.2857  217.4155 H   0  0  0  0  0  0  0  0  0  0  0  0
  139.8143   71.0673  219.7109 H   0  0  0  0  0  0  0  0  0  0  0  0
  140.9982   72.0537  218.7773 H   0  0  0  0  0  0  0  0  0  0  0  0
  140.2308   72.3612  221.7040 H   0  0  0  0  0  0  0  0  0  0  0  0
  141.8095   71.8141  221.0275 H   0  0  0  0  0  0  0  0  0  0  0  0
  142.1420   74.1980  220.2110 H   0  0  0  0  0  0  0  0  0  0  0  0
  141.4748   76.0877  219.4858 H   0  0  0  0  0  0  0  0  0  0  0  0
  142.1504   78.4626  219.3471 H   0  0  0  0  0  0  0  0  0  0  0  0
  142.5137   80.6358  220.5113 H   0  0  0  0  0  0  0  0  0  0  0  0
  142.4616   81.9542  222.5995 H   0  0  0  0  0  0  0  0  0  0  0  0
  141.7514   80.8979  224.7388 H   0  0  0  0  0  0  0  0  0  0  0  0
  141.0939   78.4988  224.7543 H   0  0  0  0  0  0  0  0  0  0  0  0
  136.4152   72.6721  221.0989 H   0  0  0  0  0  0  0  0  0  0  0  0
  137.4714   71.3640  220.4338 H   0  0  0  0  0  0  0  0  0  0  0  0
  138.2620   72.8860  222.9430 H   0  0  0  0  0  0  0  0  0  0  0  0
  138.1251   68.4194  223.8250 H   0  0  0  0  0  0  0  0  0  0  0  0
  139.0508   67.6991  226.0191 H   0  0  0  0  0  0  0  0  0  0  0  0
  140.3023   68.2760  227.9973 H   0  0  0  0  0  0  0  0  0  0  0  0
  141.5636   69.9741  229.2799 H   0  0  0  0  0  0  0  0  0  0  0  0
  141.8939   72.2663  228.4511 H   0  0  0  0  0  0  0  0  0  0  0  0
  140.9331   72.9318  226.2215 H   0  0  0  0  0  0  0  0  0  0  0  0
  1  2  1  0
  2  3  1  0
  3  4  1  0
  4  5  1  0
  5  6  1  0
  6  7  2  0
  6  8  1  0
  8  9  2  0
  9 10  1  0
 10 11  2  0
 11 12  1  0
 12 13  2  0
 13 14  1  0
 14 15  2  0
 15 16  1  0
 16 17  2  0
  2 18  1  0
 18 19  2  0
 18 20  1  0
 20 21  1  0
 21 22  1  0
 22 23  2  0
 22 24  1  0
 24 25  2  0
 25 26  1  0
 26 27  2  0
 27 28  1  0
 28 29  2  0
 29 30  1  0
 30 31  2  0
 31 32  1  0
 32 33  2  0
 17  8  1  0
 33 24  1  0
 16 11  1  0
 32 27  1  0
  1 34  1  0
  1 35  1  0
  1 36  1  0
  3 37  1  0
  3 38  1  0
  4 39  1  0
  4 40  1  0
  5 41  1  0
  9 42  1  0
 10 43  1  0
 12 44  1  0
 13 45  1  0
 14 46  1  0
 15 47  1  0
 20 48  1  0
 20 49  1  0
 21 50  1  0
 25 51  1  0
 26 52  1  0
 28 53  1  0
 29 54  1  0
 30 55  1  0
 31 56  1  0
M  END
>  <smiles>  (46) 
CN(CCNC(=O)c1ccc2ccccc2n1)C(=O)CNC(=O)c1ccc2ccccc2n1

>  <score_type>  (46) 
oracle

>  <origin>  (46) 
autodockgpu

>  <m_score__min__energy>  (46) 
-9.2200000000000006

>  <m_primary>  (46) 
energy

>  <rmsd>  (46) 
3.044855872783022

>  <m_score__min__rmsd>  (46) 
3.044855872783022

>  <meeko>  (46) 
{"free_energy": -8.66, "intermolecular_energy": -11.04, "internal_energy": -2.64, "cluster_size": 19, "cluster_id": 1, "rank_in_cluster": 9}

>  <energy>  (46) 
-5.76

>  <cluster_rmsd>  (46) 
1.81

>  <cluster>  (46) 
4

$$$$

     RDKit          3D

 56 59  0  0  0  0  0  0  0  0999 V2000
  140.4830   81.7250  221.6860 C   0  0  0  0  0  0  0  0  0  0  0  0
  141.6510   80.8620  221.5600 N   0  0  0  0  0  0  0  0  0  0  0  0
  142.6610   80.7160  222.5710 C   0  0  0  0  0  0  0  0  0  0  0  0
  142.1710   79.8170  223.6690 C   0  0  0  0  0  0  0  0  0  0  0  0
  141.8850   78.5150  223.1530 N   0  0  0  0  0  0  0  0  0  0  0  0
  140.5010   78.1480  223.0390 C   0  0  0  0  0  0  0  0  0  0  0  0
  139.6580   79.0110  223.4070 O   0  0  0  0  0  0  0  0  0  0  0  0
  140.1200   76.8350  222.5220 C   0  0  0  0  0  0  0  0  0  0  0  0
  138.7700   76.5560  222.4570 C   0  0  0  0  0  0  0  0  0  0  0  0
  138.3540   75.3360  221.9780 C   0  0  0  0  0  0  0  0  0  0  0  0
  139.2720   74.3920  221.5640 C   0  0  0  0  0  0  0  0  0  0  0  0
  138.9370   73.1580  221.0760 C   0  0  0  0  0  0  0  0  0  0  0  0
  139.9110   72.2610  220.6790 C   0  0  0  0  0  0  0  0  0  0  0  0
  141.2530   72.5970  220.7670 C   0  0  0  0  0  0  0  0  0  0  0  0
  141.6050   73.8360  221.2560 C   0  0  0  0  0  0  0  0  0  0  0  0
  140.6150   74.7260  221.6510 C   0  0  0  0  0  0  0  0  0  0  0  0
  141.0240   75.9190  222.1190 N   0  0  0  0  0  0  0  0  0  0  0  0
  141.7640   80.1420  220.3370 C   0  0  0  0  0  0  0  0  0  0  0  0
  142.5640   80.6070  219.4850 O   0  0  0  0  0  0  0  0  0  0  0  0
  141.0300   78.9220  220.0070 C   0  0  0  0  0  0  0  0  0  0  0  0
  141.8770   77.7330  220.1840 N   0  0  0  0  0  0  0  0  0  0  0  0
  142.2050   77.0390  218.9730 C   0  0  0  0  0  0  0  0  0  0  0  0
  141.7520   77.4920  217.8890 O   0  0  0  0  0  0  0  0  0  0  0  0
  143.0420   75.8450  219.0380 C   0  0  0  0  0  0  0  0  0  0  0  0
  142.9890   74.9710  217.9730 C   0  0  0  0  0  0  0  0  0  0  0  0
  143.7360   73.8100  217.9260 C   0  0  0  0  0  0  0  0  0  0  0  0
  144.5610   73.5540  219.0180 C   0  0  0  0  0  0  0  0  0  0  0  0
  145.3250   72.4030  219.0080 C   0  0  0  0  0  0  0  0  0  0  0  0
  146.1300   72.1780  220.1010 C   0  0  0  0  0  0  0  0  0  0  0  0
  146.2040   73.0360  221.1820 C   0  0  0  0  0  0  0  0  0  0  0  0
  145.4300   74.1970  221.1850 C   0  0  0  0  0  0  0  0  0  0  0  0
  144.6170   74.4370  220.0970 C   0  0  0  0  0  0  0  0  0  0  0  0
  143.8500   75.5670  220.0770 N   0  0  0  0  0  0  0  0  0  0  0  0
  140.2613   81.8888  222.7509 H   0  0  0  0  0  0  0  0  0  0  0  0
  140.6869   82.6911  221.2011 H   0  0  0  0  0  0  0  0  0  0  0  0
  139.6194   81.2464  221.2011 H   0  0  0  0  0  0  0  0  0  0  0  0
  143.5650   80.2799  222.1209 H   0  0  0  0  0  0  0  0  0  0  0  0
  142.8909   81.7053  222.9935 H   0  0  0  0  0  0  0  0  0  0  0  0
  142.9457   79.7374  224.4459 H   0  0  0  0  0  0  0  0  0  0  0  0
  141.2512   80.2427  224.0966 H   0  0  0  0  0  0  0  0  0  0  0  0
  142.5620   77.8040  222.8460 H   0  0  0  0  0  0  0  0  0  0  0  0
  138.0328   77.3034  222.7856 H   0  0  0  0  0  0  0  0  0  0  0  0
  137.2788   75.1101  221.9242 H   0  0  0  0  0  0  0  0  0  0  0  0
  137.8767   72.8757  220.9985 H   0  0  0  0  0  0  0  0  0  0  0  0
  139.6192   71.2741  220.2907 H   0  0  0  0  0  0  0  0  0  0  0  0
  142.0275   71.8830  220.4502 H   0  0  0  0  0  0  0  0  0  0  0  0
  142.6652   74.1189  221.3331 H   0  0  0  0  0  0  0  0  0  0  0  0
  140.1532   78.8403  220.6662 H   0  0  0  0  0  0  0  0  0  0  0  0
  140.7169   78.9755  218.9539 H   0  0  0  0  0  0  0  0  0  0  0  0
  142.2090   77.4270  221.1070 H   0  0  0  0  0  0  0  0  0  0  0  0
  142.3260   75.2075  217.1277 H   0  0  0  0  0  0  0  0  0  0  0  0
  143.6818   73.1224  217.0691 H   0  0  0  0  0  0  0  0  0  0  0  0
  145.2913   71.6981  218.1642 H   0  0  0  0  0  0  0  0  0  0  0  0
  146.7470   71.2675  220.1152 H   0  0  0  0  0  0  0  0  0  0  0  0
  146.8655   72.8062  222.0303 H   0  0  0  0  0  0  0  0  0  0  0  0
  145.4671   74.9001  222.0301 H   0  0  0  0  0  0  0  0  0  0  0  0
  1  2  1  0
  2  3  1  0
  3  4  1  0
  4  5  1  0
  5  6  1  0
  6  7  2  0
  6  8  1  0
  8  9  2  0
  9 10  1  0
 10 11  2  0
 11 12  1  0
 12 13  2  0
 13 14  1  0
 14 15  2  0
 15 16  1  0
 16 17  2  0
  2 18  1  0
 18 19  2  0
 18 20  1  0
 20 21  1  0
 21 22  1  0
 22 23  2  0
 22 24  1  0
 24 25  2  0
 25 26  1  0
 26 27  2  0
 27 28  1  0
 28 29  2  0
 29 30  1  0
 30 31  2  0
 31 32  1  0
 32 33  2  0
 17  8  1  0
 33 24  1  0
 16 11  1  0
 32 27  1  0
  1 34  1  0
  1 35  1  0
  1 36  1  0
  3 37  1  0
  3 38  1  0
  4 39  1  0
  4 40  1  0
  5 41  1  0
  9 42  1  0
 10 43  1  0
 12 44  1  0
 13 45  1  0
 14 46  1  0
 15 47  1  0
 20 48  1  0
 20 49  1  0
 21 50  1  0
 25 51  1  0
 26 52  1  0
 28 53  1  0
 29 54  1  0
 30 55  1  0
 31 56  1  0
M  END
>  <smiles>  (47) 
CN(CCNC(=O)c1ccc2ccccc2n1)C(=O)CNC(=O)c1ccc2ccccc2n1

>  <score_type>  (47) 
oracle

>  <origin>  (47) 
autodockgpu

>  <m_score__min__energy>  (47) 
-9.2200000000000006

>  <m_primary>  (47) 
energy

>  <rmsd>  (47) 
7.554490147814791

>  <m_score__min__rmsd>  (47) 
7.554490147814791

>  <meeko>  (47) 
{"free_energy": -6.79, "intermolecular_energy": -9.18, "internal_energy": -3.94, "cluster_size": 1, "cluster_id": 5, "rank_in_cluster": 1}

>  <energy>  (47) 
-6.79

>  <cluster_rmsd>  (47) 
0.0

>  <cluster>  (47) 
5

$$$$

     RDKit          3D

 56 59  0  0  0  0  0  0  0  0999 V2000
  136.1790   70.4780  220.9240 C   0  0  0  0  0  0  0  0  0  0  0  0
  136.6750   71.8140  221.2290 N   0  0  0  0  0  0  0  0  0  0  0  0
  136.1970   72.6250  222.3140 C   0  0  0  0  0  0  0  0  0  0  0  0
  136.1450   74.0670  221.8990 C   0  0  0  0  0  0  0  0  0  0  0  0
  137.3380   74.7420  222.3010 N   0  0  0  0  0  0  0  0  0  0  0  0
  137.5270   76.0800  221.8130 C   0  0  0  0  0  0  0  0  0  0  0  0
  136.6170   76.5410  221.0700 O   0  0  0  0  0  0  0  0  0  0  0  0
  138.7200   76.8430  222.1740 C   0  0  0  0  0  0  0  0  0  0  0  0
  139.9390   76.2180  222.0020 C   0  0  0  0  0  0  0  0  0  0  0  0
  141.0940   76.8870  222.3250 C   0  0  0  0  0  0  0  0  0  0  0  0
  141.0470   78.1770  222.8190 C   0  0  0  0  0  0  0  0  0  0  0  0
  142.1510   78.9080  223.1620 C   0  0  0  0  0  0  0  0  0  0  0  0
  142.0280   80.1950  223.6500 C   0  0  0  0  0  0  0  0  0  0  0  0
  140.7770   80.7730  223.8020 C   0  0  0  0  0  0  0  0  0  0  0  0
  139.6570   80.0480  223.4600 C   0  0  0  0  0  0  0  0  0  0  0  0
  139.7960   78.7560  222.9700 C   0  0  0  0  0  0  0  0  0  0  0  0
  138.6640   78.1010  222.6550 N   0  0  0  0  0  0  0  0  0  0  0  0
  137.6920   72.3120  220.3670 C   0  0  0  0  0  0  0  0  0  0  0  0
  137.3060   72.9760  219.3700 O   0  0  0  0  0  0  0  0  0  0  0  0
  139.1280   72.1120  220.5530 C   0  0  0  0  0  0  0  0  0  0  0  0
  139.3950   71.2840  221.7380 N   0  0  0  0  0  0  0  0  0  0  0  0
  139.8160   72.0120  222.9000 C   0  0  0  0  0  0  0  0  0  0  0  0
  139.9200   73.2630  222.8110 O   0  0  0  0  0  0  0  0  0  0  0  0
  140.1070   71.2840  224.1320 C   0  0  0  0  0  0  0  0  0  0  0  0
  140.7770   71.9610  225.1290 C   0  0  0  0  0  0  0  0  0  0  0  0
  141.1060   71.3750  226.3350 C   0  0  0  0  0  0  0  0  0  0  0  0
  140.7250   70.0460  226.5070 C   0  0  0  0  0  0  0  0  0  0  0  0
  141.0360   69.4250  227.7010 C   0  0  0  0  0  0  0  0  0  0  0  0
  140.6460   68.1120  227.8420 C   0  0  0  0  0  0  0  0  0  0  0  0
  139.9740   67.4080  226.8610 C   0  0  0  0  0  0  0  0  0  0  0  0
  139.6630   68.0430  225.6570 C   0  0  0  0  0  0  0  0  0  0  0  0
  140.0470   69.3590  225.5000 C   0  0  0  0  0  0  0  0  0  0  0  0
  139.7540   70.0020  224.3320 N   0  0  0  0  0  0  0  0  0  0  0  0
  135.9787   69.9384  221.8614 H   0  0  0  0  0  0  0  0  0  0  0  0
  135.2500   70.5562  220.3402 H   0  0  0  0  0  0  0  0  0  0  0  0
  136.9340   69.9310  220.3402 H   0  0  0  0  0  0  0  0  0  0  0  0
  135.1881   72.2923  222.5994 H   0  0  0  0  0  0  0  0  0  0  0  0
  136.8820   72.5217  223.1685 H   0  0  0  0  0  0  0  0  0  0  0  0
  136.0455   74.1264  220.8051 H   0  0  0  0  0  0  0  0  0  0  0  0
  135.2818   74.5476  222.3826 H   0  0  0  0  0  0  0  0  0  0  0  0
  138.0850   74.3800  222.9080 H   0  0  0  0  0  0  0  0  0  0  0  0
  139.9847   75.1916  221.6091 H   0  0  0  0  0  0  0  0  0  0  0  0
  142.0665   76.3912  222.1892 H   0  0  0  0  0  0  0  0  0  0  0  0
  143.1513   78.4650  223.0477 H   0  0  0  0  0  0  0  0  0  0  0  0
  142.9292   80.7651  223.9198 H   0  0  0  0  0  0  0  0  0  0  0  0
  140.6802   81.7975  224.1907 H   0  0  0  0  0  0  0  0  0  0  0  0
  138.6565   80.4905  223.5745 H   0  0  0  0  0  0  0  0  0  0  0  0
  139.5397   71.6115  219.6642 H   0  0  0  0  0  0  0  0  0  0  0  0
  139.6030   73.0937  220.6969 H   0  0  0  0  0  0  0  0  0  0  0  0
  139.2860   70.2630  221.7330 H   0  0  0  0  0  0  0  0  0  0  0  0
  141.0606   73.0097  224.9566 H   0  0  0  0  0  0  0  0  0  0  0  0
  141.6416   71.9291  227.1200 H   0  0  0  0  0  0  0  0  0  0  0  0
  141.5709   69.9553  228.5027 H   0  0  0  0  0  0  0  0  0  0  0  0
  140.8817   67.5966  228.7848 H   0  0  0  0  0  0  0  0  0  0  0  0
  139.6873   66.3590  227.0268 H   0  0  0  0  0  0  0  0  0  0  0  0
  139.1277   67.5100  224.8574 H   0  0  0  0  0  0  0  0  0  0  0  0
  1  2  1  0
  2  3  1  0
  3  4  1  0
  4  5  1  0
  5  6  1  0
  6  7  2  0
  6  8  1  0
  8  9  2  0
  9 10  1  0
 10 11  2  0
 11 12  1  0
 12 13  2  0
 13 14  1  0
 14 15  2  0
 15 16  1  0
 16 17  2  0
  2 18  1  0
 18 19  2  0
 18 20  1  0
 20 21  1  0
 21 22  1  0
 22 23  2  0
 22 24  1  0
 24 25  2  0
 25 26  1  0
 26 27  2  0
 27 28  1  0
 28 29  2  0
 29 30  1  0
 30 31  2  0
 31 32  1  0
 32 33  2  0
 17  8  1  0
 33 24  1  0
 16 11  1  0
 32 27  1  0
  1 34  1  0
  1 35  1  0
  1 36  1  0
  3 37  1  0
  3 38  1  0
  4 39  1  0
  4 40  1  0
  5 41  1  0
  9 42  1  0
 10 43  1  0
 12 44  1  0
 13 45  1  0
 14 46  1  0
 15 47  1  0
 20 48  1  0
 20 49  1  0
 21 50  1  0
 25 51  1  0
 26 52  1  0
 28 53  1  0
 29 54  1  0
 30 55  1  0
 31 56  1  0
M  END
>  <smiles>  (48) 
CN(CCNC(=O)c1ccc2ccccc2n1)C(=O)CNC(=O)c1ccc2ccccc2n1

>  <score_type>  (48) 
oracle

>  <origin>  (48) 
autodockgpu

>  <m_score__min__energy>  (48) 
-9.2200000000000006

>  <m_primary>  (48) 
energy

>  <rmsd>  (48) 
4.62739420523542

>  <m_score__min__rmsd>  (48) 
4.62739420523542

>  <meeko>  (48) 
{"free_energy": -8.32, "intermolecular_energy": -10.71, "internal_energy": -2.71, "cluster_size": 19, "cluster_id": 1, "rank_in_cluster": 16}

>  <energy>  (48) 
-6.52

>  <cluster_rmsd>  (48) 
0.0

>  <cluster>  (48) 
6

$$$$

     RDKit          3D

 56 59  0  0  0  0  0  0  0  0999 V2000
  140.2910   73.5550  217.6470 C   0  0  0  0  0  0  0  0  0  0  0  0
  140.3730   73.3070  219.0810 N   0  0  0  0  0  0  0  0  0  0  0  0
  141.6020   73.2390  219.8200 C   0  0  0  0  0  0  0  0  0  0  0  0
  141.3430   73.4660  221.2820 C   0  0  0  0  0  0  0  0  0  0  0  0
  141.4490   74.8560  221.5950 N   0  0  0  0  0  0  0  0  0  0  0  0
  140.2840   75.4910  222.1480 C   0  0  0  0  0  0  0  0  0  0  0  0
  139.2690   74.7600  222.3080 O   0  0  0  0  0  0  0  0  0  0  0  0
  140.3050   76.9100  222.4960 C   0  0  0  0  0  0  0  0  0  0  0  0
  139.0850   77.5330  222.6600 C   0  0  0  0  0  0  0  0  0  0  0  0
  139.0440   78.8670  222.9880 C   0  0  0  0  0  0  0  0  0  0  0  0
  140.2110   79.5870  223.1540 C   0  0  0  0  0  0  0  0  0  0  0  0
  140.2530   80.9150  223.4790 C   0  0  0  0  0  0  0  0  0  0  0  0
  141.4590   81.5730  223.6300 C   0  0  0  0  0  0  0  0  0  0  0  0
  142.6560   80.8960  223.4520 C   0  0  0  0  0  0  0  0  0  0  0  0
  142.6290   79.5580  223.1240 C   0  0  0  0  0  0  0  0  0  0  0  0
  141.4090   78.9110  222.9770 C   0  0  0  0  0  0  0  0  0  0  0  0
  141.4500   77.6050  222.6560 N   0  0  0  0  0  0  0  0  0  0  0  0
  139.1320   73.1160  219.7510 C   0  0  0  0  0  0  0  0  0  0  0  0
  138.3790   74.1210  219.8340 O   0  0  0  0  0  0  0  0  0  0  0  0
  138.6750   71.8560  220.3370 C   0  0  0  0  0  0  0  0  0  0  0  0
  139.0290   71.7800  221.7620 N   0  0  0  0  0  0  0  0  0  0  0  0
  139.1240   70.4500  222.2890 C   0  0  0  0  0  0  0  0  0  0  0  0
  138.9020   69.4860  221.5110 O   0  0  0  0  0  0  0  0  0  0  0  0
  139.4700   70.2620  223.6950 C   0  0  0  0  0  0  0  0  0  0  0  0
  139.1550   69.0510  224.2720 C   0  0  0  0  0  0  0  0  0  0  0  0
  139.4340   68.7610  225.5940 C   0  0  0  0  0  0  0  0  0  0  0  0
  140.0590   69.7620  226.3330 C   0  0  0  0  0  0  0  0  0  0  0  0
  140.3550   69.5100  227.6580 C   0  0  0  0  0  0  0  0  0  0  0  0
  140.9730   70.5190  228.3630 C   0  0  0  0  0  0  0  0  0  0  0  0
  141.3010   71.7430  227.8110 C   0  0  0  0  0  0  0  0  0  0  0  0
  140.9980   71.9900  226.4710 C   0  0  0  0  0  0  0  0  0  0  0  0
  140.3790   70.9890  225.7510 C   0  0  0  0  0  0  0  0  0  0  0  0
  140.0740   71.2070  224.4380 N   0  0  0  0  0  0  0  0  0  0  0  0
  139.9501   74.5861  217.4721 H   0  0  0  0  0  0  0  0  0  0  0  0
  141.2833   73.4150  217.1933 H   0  0  0  0  0  0  0  0  0  0  0  0
  139.5778   72.8511  217.1933 H   0  0  0  0  0  0  0  0  0  0  0  0
  142.0546   72.2461  219.6813 H   0  0  0  0  0  0  0  0  0  0  0  0
  142.2851   74.0186  219.4518 H   0  0  0  0  0  0  0  0  0  0  0  0
  140.3306   73.1145  221.5299 H   0  0  0  0  0  0  0  0  0  0  0  0
  142.0894   72.9096  221.8679 H   0  0  0  0  0  0  0  0  0  0  0  0
  142.2710   75.4620  221.4730 H   0  0  0  0  0  0  0  0  0  0  0  0
  138.1516   76.9659  222.5291 H   0  0  0  0  0  0  0  0  0  0  0  0
  138.0726   79.3660  223.1196 H   0  0  0  0  0  0  0  0  0  0  0  0
  139.3128   81.4676  223.6223 H   0  0  0  0  0  0  0  0  0  0  0  0
  141.4694   82.6410  223.8932 H   0  0  0  0  0  0  0  0  0  0  0  0
  143.6154   81.4207  223.5712 H   0  0  0  0  0  0  0  0  0  0  0  0
  143.5689   79.0052  222.9793 H   0  0  0  0  0  0  0  0  0  0  0  0
  137.5821   71.7863  220.2334 H   0  0  0  0  0  0  0  0  0  0  0  0
  139.1653   71.0250  219.8087 H   0  0  0  0  0  0  0  0  0  0  0  0
  139.1960   72.6170  222.3330 H   0  0  0  0  0  0  0  0  0  0  0  0
  138.6619   68.2847  223.6559 H   0  0  0  0  0  0  0  0  0  0  0  0
  139.1756   67.7891  226.0397 H   0  0  0  0  0  0  0  0  0  0  0  0
  140.1084   68.5471  228.1291 H   0  0  0  0  0  0  0  0  0  0  0  0
  141.2183   70.3415  229.4205 H   0  0  0  0  0  0  0  0  0  0  0  0
  141.7952   72.5137  228.4208 H   0  0  0  0  0  0  0  0  0  0  0  0
  141.2454   72.9542  226.0029 H   0  0  0  0  0  0  0  0  0  0  0  0
  1  2  1  0
  2  3  1  0
  3  4  1  0
  4  5  1  0
  5  6  1  0
  6  7  2  0
  6  8  1  0
  8  9  2  0
  9 10  1  0
 10 11  2  0
 11 12  1  0
 12 13  2  0
 13 14  1  0
 14 15  2  0
 15 16  1  0
 16 17  2  0
  2 18  1  0
 18 19  2  0
 18 20  1  0
 20 21  1  0
 21 22  1  0
 22 23  2  0
 22 24  1  0
 24 25  2  0
 25 26  1  0
 26 27  2  0
 27 28  1  0
 28 29  2  0
 29 30  1  0
 30 31  2  0
 31 32  1  0
 32 33  2  0
 17  8  1  0
 33 24  1  0
 16 11  1  0
 32 27  1  0
  1 34  1  0
  1 35  1  0
  1 36  1  0
  3 37  1  0
  3 38  1  0
  4 39  1  0
  4 40  1  0
  5 41  1  0
  9 42  1  0
 10 43  1  0
 12 44  1  0
 13 45  1  0
 14 46  1  0
 15 47  1  0
 20 48  1  0
 20 49  1  0
 21 50  1  0
 25 51  1  0
 26 52  1  0
 28 53  1  0
 29 54  1  0
 30 55  1  0
 31 56  1  0
M  END
>  <smiles>  (49) 
CN(CCNC(=O)c1ccc2ccccc2n1)C(=O)CNC(=O)c1ccc2ccccc2n1

>  <score_type>  (49) 
oracle

>  <origin>  (49) 
autodockgpu

>  <m_score__min__energy>  (49) 
-9.2200000000000006

>  <m_primary>  (49) 
energy

>  <rmsd>  (49) 
2.791937459909857

>  <m_score__min__rmsd>  (49) 
2.791937459909857

>  <meeko>  (49) 
{"free_energy": -8.44, "intermolecular_energy": -10.83, "internal_energy": -2.65, "cluster_size": 19, "cluster_id": 1, "rank_in_cluster": 14}

>  <energy>  (49) 
-6.38

>  <cluster_rmsd>  (49) 
0.6

>  <cluster>  (49) 
6

$$$$

     RDKit          3D

 56 59  0  0  0  0  0  0  0  0999 V2000
  137.3390   76.0180  219.6000 C   0  0  0  0  0  0  0  0  0  0  0  0
  137.5230   75.1050  220.7220 N   0  0  0  0  0  0  0  0  0  0  0  0
  136.4470   74.5540  221.4990 C   0  0  0  0  0  0  0  0  0  0  0  0
  136.3450   75.2620  222.8190 C   0  0  0  0  0  0  0  0  0  0  0  0
  137.4690   76.1230  223.0080 N   0  0  0  0  0  0  0  0  0  0  0  0
  137.2320   77.5370  222.9090 C   0  0  0  0  0  0  0  0  0  0  0  0
  136.0470   77.8920  222.6630 O   0  0  0  0  0  0  0  0  0  0  0  0
  138.3260   78.4900  223.0880 C   0  0  0  0  0  0  0  0  0  0  0  0
  137.9820   79.7800  223.4360 C   0  0  0  0  0  0  0  0  0  0  0  0
  138.9700   80.7180  223.6170 C   0  0  0  0  0  0  0  0  0  0  0  0
  140.3000   80.3800  223.4560 C   0  0  0  0  0  0  0  0  0  0  0  0
  141.3390   81.2560  223.6190 C   0  0  0  0  0  0  0  0  0  0  0  0
  142.6470   80.8480  223.4410 C   0  0  0  0  0  0  0  0  0  0  0  0
  142.9340   79.5370  223.0920 C   0  0  0  0  0  0  0  0  0  0  0  0
  141.8970   78.6450  222.9240 C   0  0  0  0  0  0  0  0  0  0  0  0
  140.5880   79.0700  223.1070 C   0  0  0  0  0  0  0  0  0  0  0  0
  139.6210   78.1510  222.9290 N   0  0  0  0  0  0  0  0  0  0  0  0
  138.8690   74.7730  221.0390 C   0  0  0  0  0  0  0  0  0  0  0  0
  139.6180   75.7260  221.3750 O   0  0  0  0  0  0  0  0  0  0  0  0
  139.4350   73.4250  221.0060 C   0  0  0  0  0  0  0  0  0  0  0  0
  139.5720   72.8780  222.3640 N   0  0  0  0  0  0  0  0  0  0  0  0
  139.6890   71.4500  222.4300 C   0  0  0  0  0  0  0  0  0  0  0  0
  139.6640   70.8020  221.3510 O   0  0  0  0  0  0  0  0  0  0  0  0
  139.8300   70.8050  223.7320 C   0  0  0  0  0  0  0  0  0  0  0  0
  139.4290   69.4900  223.8380 C   0  0  0  0  0  0  0  0  0  0  0  0
  139.5150   68.7790  225.0190 C   0  0  0  0  0  0  0  0  0  0  0  0
  140.0350   69.4560  226.1190 C   0  0  0  0  0  0  0  0  0  0  0  0
  140.1390   68.7790  227.3180 C   0  0  0  0  0  0  0  0  0  0  0  0
  140.6560   69.4750  228.3860 C   0  0  0  0  0  0  0  0  0  0  0  0
  141.0670   70.7920  228.3100 C   0  0  0  0  0  0  0  0  0  0  0  0
  140.9600   71.4710  227.0940 C   0  0  0  0  0  0  0  0  0  0  0  0
  140.4420   70.7870  226.0130 C   0  0  0  0  0  0  0  0  0  0  0  0
  140.3280   71.4290  224.8140 N   0  0  0  0  0  0  0  0  0  0  0  0
  137.1351   77.0298  219.9803 H   0  0  0  0  0  0  0  0  0  0  0  0
  138.2520   76.0339  218.9867 H   0  0  0  0  0  0  0  0  0  0  0  0
  136.4911   75.6790  218.9867 H   0  0  0  0  0  0  0  0  0  0  0  0
  135.5024   74.6743  220.9482 H   0  0  0  0  0  0  0  0  0  0  0  0
  136.6439   73.4867  221.6785 H   0  0  0  0  0  0  0  0  0  0  0  0
  135.4221   75.8603  222.8395 H   0  0  0  0  0  0  0  0  0  0  0  0
  136.3274   74.5143  223.6256 H   0  0  0  0  0  0  0  0  0  0  0  0
  138.4390   75.8480  223.2140 H   0  0  0  0  0  0  0  0  0  0  0  0
  136.9252   80.0556  223.5676 H   0  0  0  0  0  0  0  0  0  0  0  0
  138.6993   81.7479  223.8927 H   0  0  0  0  0  0  0  0  0  0  0  0
  141.1296   82.2998  223.8957 H   0  0  0  0  0  0  0  0  0  0  0  0
  143.4669   81.5686  223.5772 H   0  0  0  0  0  0  0  0  0  0  0  0
  143.9758   79.2132  222.9511 H   0  0  0  0  0  0  0  0  0  0  0  0
  142.1054   77.6012  222.6462 H   0  0  0  0  0  0  0  0  0  0  0  0
  138.7727   72.7710  220.4198 H   0  0  0  0  0  0  0  0  0  0  0  0
  140.4329   73.4749  220.5458 H   0  0  0  0  0  0  0  0  0  0  0  0
  139.5850   73.4750  223.1990 H   0  0  0  0  0  0  0  0  0  0  0  0
  139.0247   68.9874  222.9469 H   0  0  0  0  0  0  0  0  0  0  0  0
  139.1891   67.7306  225.0871 H   0  0  0  0  0  0  0  0  0  0  0  0
  139.8226   67.7300  227.4148 H   0  0  0  0  0  0  0  0  0  0  0  0
  140.7470   68.9557  229.3514 H   0  0  0  0  0  0  0  0  0  0  0  0
  141.4738   71.2999  229.1969 H   0  0  0  0  0  0  0  0  0  0  0  0
  141.2791   72.5196  227.0008 H   0  0  0  0  0  0  0  0  0  0  0  0
  1  2  1  0
  2  3  1  0
  3  4  1  0
  4  5  1  0
  5  6  1  0
  6  7  2  0
  6  8  1  0
  8  9  2  0
  9 10  1  0
 10 11  2  0
 11 12  1  0
 12 13  2  0
 13 14  1  0
 14 15  2  0
 15 16  1  0
 16 17  2  0
  2 18  1  0
 18 19  2  0
 18 20  1  0
 20 21  1  0
 21 22  1  0
 22 23  2  0
 22 24  1  0
 24 25  2  0
 25 26  1  0
 26 27  2  0
 27 28  1  0
 28 29  2  0
 29 30  1  0
 30 31  2  0
 31 32  1  0
 32 33  2  0
 17  8  1  0
 33 24  1  0
 16 11  1  0
 32 27  1  0
  1 34  1  0
  1 35  1  0
  1 36  1  0
  3 37  1  0
  3 38  1  0
  4 39  1  0
  4 40  1  0
  5 41  1  0
  9 42  1  0
 10 43  1  0
 12 44  1  0
 13 45  1  0
 14 46  1  0
 15 47  1  0
 20 48  1  0
 20 49  1  0
 21 50  1  0
 25 51  1  0
 26 52  1  0
 28 53  1  0
 29 54  1  0
 30 55  1  0
 31 56  1  0
M  END
>  <smiles>  (50) 
CN(CCNC(=O)c1ccc2ccccc2n1)C(=O)CNC(=O)c1ccc2ccccc2n1

>  <score_type>  (50) 
oracle

>  <origin>  (50) 
autodockgpu

>  <m_score__min__energy>  (50) 
-9.2200000000000006

>  <m_primary>  (50) 
energy

>  <rmsd>  (50) 
3.0034607395575104

>  <m_score__min__rmsd>  (50) 
3.0034607395575104

>  <meeko>  (50) 
{"free_energy": -8.74, "intermolecular_energy": -11.12, "internal_energy": -2.53, "cluster_size": 1, "cluster_id": 2, "rank_in_cluster": 1}

>  <energy>  (50) 
-6.26

>  <cluster_rmsd>  (50) 
0.23

>  <cluster>  (50) 
6

$$$$
