
     RDKit          3D

 54 57  0  0  0  0  0  0  0  0999 V2000
  138.3690   72.9220  220.7320 O   0  0  0  0  0  0  0  0  0  0  0  0
  138.1800   73.7050  221.7180 C   0  0  0  0  0  0  0  0  0  0  0  0
  137.1550   73.3180  222.6260 N   0  0  0  0  0  0  0  0  0  0  0  0
  136.4380   72.1070  222.3630 C   0  0  0  0  0  0  0  0  0  0  0  0
  137.0120   70.9250  223.0320 C   0  0  0  0  0  0  0  0  0  0  0  0
  136.2910   70.0370  223.5520 O   0  0  0  0  0  0  0  0  0  0  0  0
  138.4320   70.8170  223.0720 N   0  0  0  0  0  0  0  0  0  0  0  0
  139.3410   70.3670  222.0210 C   0  0  0  0  0  0  0  0  0  0  0  0
  140.6190   71.1840  222.2410 C   0  0  0  0  0  0  0  0  0  0  0  0
  140.3260   72.0090  223.4720 C   0  0  0  0  0  0  0  0  0  0  0  0
  139.3270   71.1360  224.1940 C   0  0  2  0  0  0  0  0  0  0  0  0
  139.9650   69.8660  224.7220 C   0  0  0  0  0  0  0  0  0  0  0  0
  138.9650   68.7900  224.8530 C   0  0  0  0  0  0  0  0  0  0  0  0
  138.9830   67.9660  226.0830 C   0  0  0  0  0  0  0  0  0  0  0  0
  140.1230   68.1300  227.0160 C   0  0  0  0  0  0  0  0  0  0  0  0
  141.3190   68.8540  226.4500 C   0  0  0  0  0  0  0  0  0  0  0  0
  140.7390   70.1910  225.9660 C   0  0  0  0  0  0  0  0  0  0  0  0
  138.9600   74.9180  221.9050 C   0  0  0  0  0  0  0  0  0  0  0  0
  140.2910   74.8940  221.5390 C   0  0  0  0  0  0  0  0  0  0  0  0
  141.1070   75.9720  221.6720 C   0  0  0  0  0  0  0  0  0  0  0  0
  140.5720   77.1330  222.1950 C   0  0  0  0  0  0  0  0  0  0  0  0
  141.3350   78.2710  222.3620 C   0  0  0  0  0  0  0  0  0  0  0  0
  140.7890   79.4220  222.8850 C   0  0  0  0  0  0  0  0  0  0  0  0
  141.8260   80.8230  223.0650 Cl  0  0  0  0  0  0  0  0  0  0  0  0
  139.4550   79.4330  223.2470 C   0  0  0  0  0  0  0  0  0  0  0  0
  138.6540   78.3050  223.0940 C   0  0  0  0  0  0  0  0  0  0  0  0
  139.2270   77.1660  222.5680 C   0  0  0  0  0  0  0  0  0  0  0  0
  138.4560   76.0570  222.4120 N   0  0  0  0  0  0  0  0  0  0  0  0
  136.9510   73.9320  223.4700 H   0  0  0  0  0  0  0  0  0  0  0  0
  135.4018   72.2339  222.7095 H   0  0  0  0  0  0  0  0  0  0  0  0
  136.4971   71.9255  221.2797 H   0  0  0  0  0  0  0  0  0  0  0  0
  139.5461   69.2908  222.1192 H   0  0  0  0  0  0  0  0  0  0  0  0
  138.9206   70.5120  221.0149 H   0  0  0  0  0  0  0  0  0  0  0  0
  141.4806   70.5217  222.4115 H   0  0  0  0  0  0  0  0  0  0  0  0
  140.8767   71.8046  221.3701 H   0  0  0  0  0  0  0  0  0  0  0  0
  141.2324   72.1649  224.0755 H   0  0  0  0  0  0  0  0  0  0  0  0
  139.9582   73.0224  223.2536 H   0  0  0  0  0  0  0  0  0  0  0  0
  138.8609   71.6052  225.0730 H   0  0  0  0  0  0  0  0  0  0  0  0
  140.6961   69.4590  224.0080 H   0  0  0  0  0  0  0  0  0  0  0  0
  137.9716   69.2579  224.7880 H   0  0  0  0  0  0  0  0  0  0  0  0
  139.2161   68.0841  224.0476 H   0  0  0  0  0  0  0  0  0  0  0  0
  138.0656   68.1968  226.6443 H   0  0  0  0  0  0  0  0  0  0  0  0
  139.0738   66.9321  225.7187 H   0  0  0  0  0  0  0  0  0  0  0  0
  139.7676   68.6932  227.8915 H   0  0  0  0  0  0  0  0  0  0  0  0
  140.4681   67.1137  227.2568 H   0  0  0  0  0  0  0  0  0  0  0  0
  142.0829   69.0153  227.2249 H   0  0  0  0  0  0  0  0  0  0  0  0
  141.8185   68.2905  225.6481 H   0  0  0  0  0  0  0  0  0  0  0  0
  140.0751   70.6212  226.7304 H   0  0  0  0  0  0  0  0  0  0  0  0
  141.5286   70.9322  225.7732 H   0  0  0  0  0  0  0  0  0  0  0  0
  140.7075   73.9647  221.1230 H   0  0  0  0  0  0  0  0  0  0  0  0
  142.1640   75.9216  221.3716 H   0  0  0  0  0  0  0  0  0  0  0  0
  142.3962   78.2584  222.0727 H   0  0  0  0  0  0  0  0  0  0  0  0
  139.0175   80.3519  223.6645 H   0  0  0  0  0  0  0  0  0  0  0  0
  137.5932   78.3215  223.3846 H   0  0  0  0  0  0  0  0  0  0  0  0
  1  2  2  0
  2  3  1  0
  3  4  1  0
  4  5  1  0
  5  6  2  0
  5  7  1  0
  7  8  1  0
  8  9  1  0
  9 10  1  0
 10 11  1  0
 11 12  1  0
 12 13  1  0
 13 14  1  0
 14 15  1  0
 15 16  1  0
 16 17  1  0
  2 18  1  0
 18 19  2  0
 19 20  1  0
 20 21  2  0
 21 22  1  0
 22 23  2  0
 23 24  1  0
 23 25  1  0
 25 26  2  0
 26 27  1  0
 27 28  2  0
 11  7  1  0
 17 12  1  0
 28 18  1  0
 27 21  1  0
  3 29  1  0
  4 30  1  0
  4 31  1  0
  8 32  1  0
  8 33  1  0
  9 34  1  0
  9 35  1  0
 10 36  1  0
 10 37  1  0
 11 38  1  1
 12 39  1  0
 13 40  1  0
 13 41  1  0
 14 42  1  0
 14 43  1  0
 15 44  1  0
 15 45  1  0
 16 46  1  0
 16 47  1  0
 17 48  1  0
 17 49  1  0
 19 50  1  0
 20 51  1  0
 22 52  1  0
 25 53  1  0
 26 54  1  0
M  END
>  <smiles>  (1) 
O=C(NCC(=O)N1CCCC1C1CCCCC1)c1ccc2cc(Cl)ccc2n1

>  <score_type>  (1) 
oracle

>  <origin>  (1) 
autodockgpu

>  <m_score__min__energy>  (1) 
-8.9700000000000006

>  <m_primary>  (1) 
energy

>  <rmsd>  (1) 
7.146923694851812

>  <m_score__min__rmsd>  (1) 
7.146923694851812

>  <meeko>  (1) 
{"free_energy": -7.42, "intermolecular_energy": -8.91, "internal_energy": -1.91, "cluster_size": 12, "cluster_id": 2, "rank_in_cluster": 12}

>  <energy>  (1) 
-8.97

>  <cluster_rmsd>  (1) 
0.0

>  <cluster>  (1) 
1

$$$$

     RDKit          3D

 54 57  0  0  0  0  0  0  0  0999 V2000
  139.2590   73.0730  220.8370 O   0  0  0  0  0  0  0  0  0  0  0  0
  140.2680   72.8230  221.5710 C   0  0  0  0  0  0  0  0  0  0  0  0
  141.4840   73.4510  221.1830 N   0  0  0  0  0  0  0  0  0  0  0  0
  141.4730   74.2920  220.0250 C   0  0  0  0  0  0  0  0  0  0  0  0
  141.7790   75.7040  220.3200 C   0  0  0  0  0  0  0  0  0  0  0  0
  142.9010   76.2110  220.0640 O   0  0  0  0  0  0  0  0  0  0  0  0
  140.7500   76.4910  220.9130 N   0  0  0  0  0  0  0  0  0  0  0  0
  139.5060   76.9640  220.3120 C   0  0  0  0  0  0  0  0  0  0  0  0
  138.5020   76.9840  221.4700 C   0  0  0  0  0  0  0  0  0  0  0  0
  139.3130   76.5590  222.6720 C   0  0  0  0  0  0  0  0  0  0  0  0
  140.6980   77.0180  222.2840 C   0  0  2  0  0  0  0  0  0  0  0  0
  140.8050   78.5300  222.2590 C   0  0  0  0  0  0  0  0  0  0  0  0
  142.1870   78.9550  221.9690 C   0  0  0  0  0  0  0  0  0  0  0  0
  142.7630   80.0560  222.7740 C   0  0  0  0  0  0  0  0  0  0  0  0
  141.8590   80.8050  223.6800 C   0  0  0  0  0  0  0  0  0  0  0  0
  140.3860   80.6040  223.4290 C   0  0  0  0  0  0  0  0  0  0  0  0
  140.2050   79.0820  223.5200 C   0  0  0  0  0  0  0  0  0  0  0  0
  140.1840   71.9520  222.7330 C   0  0  0  0  0  0  0  0  0  0  0  0
  139.5310   70.7440  222.5910 C   0  0  0  0  0  0  0  0  0  0  0  0
  139.3970   69.8580  223.6120 C   0  0  0  0  0  0  0  0  0  0  0  0
  139.9410   70.1920  224.8380 C   0  0  0  0  0  0  0  0  0  0  0  0
  139.8480   69.3470  225.9250 C   0  0  0  0  0  0  0  0  0  0  0  0
  140.3940   69.6910  227.1420 C   0  0  0  0  0  0  0  0  0  0  0  0
  140.2320   68.5620  228.4720 Cl  0  0  0  0  0  0  0  0  0  0  0  0
  141.0450   70.9030  227.2700 C   0  0  0  0  0  0  0  0  0  0  0  0
  141.1600   71.7820  226.1970 C   0  0  0  0  0  0  0  0  0  0  0  0
  140.6030   71.4120  224.9910 C   0  0  0  0  0  0  0  0  0  0  0  0
  140.7070   72.2600  223.9330 N   0  0  0  0  0  0  0  0  0  0  0  0
  142.3620   73.2800  221.7580 H   0  0  0  0  0  0  0  0  0  0  0  0
  142.2224   73.9147  219.3137 H   0  0  0  0  0  0  0  0  0  0  0  0
  140.4536   74.2614  219.6128 H   0  0  0  0  0  0  0  0  0  0  0  0
  139.6359   77.9727  219.8929 H   0  0  0  0  0  0  0  0  0  0  0  0
  139.1733   76.3237  219.4817 H   0  0  0  0  0  0  0  0  0  0  0  0
  138.0923   77.9947  221.6135 H   0  0  0  0  0  0  0  0  0  0  0  0
  137.6389   76.3261  221.2904 H   0  0  0  0  0  0  0  0  0  0  0  0
  138.9661   77.0605  223.5875 H   0  0  0  0  0  0  0  0  0  0  0  0
  139.2457   75.4848  222.8992 H   0  0  0  0  0  0  0  0  0  0  0  0
  141.4964   76.6886  222.9652 H   0  0  0  0  0  0  0  0  0  0  0  0
  140.2195   78.9582  221.4321 H   0  0  0  0  0  0  0  0  0  0  0  0
  142.8344   78.0765  222.1072 H   0  0  0  0  0  0  0  0  0  0  0  0
  142.1393   79.3599  220.9473 H   0  0  0  0  0  0  0  0  0  0  0  0
  143.5623   79.6239  223.3940 H   0  0  0  0  0  0  0  0  0  0  0  0
  143.0837   80.8003  222.0303 H   0  0  0  0  0  0  0  0  0  0  0  0
  142.0742   80.4901  224.7117 H   0  0  0  0  0  0  0  0  0  0  0  0
  142.0569   81.8711  223.4949 H   0  0  0  0  0  0  0  0  0  0  0  0
  139.7843   81.1169  224.1938 H   0  0  0  0  0  0  0  0  0  0  0  0
  140.0585   81.0150  222.4626 H   0  0  0  0  0  0  0  0  0  0  0  0
  140.7297   78.6846  224.4013 H   0  0  0  0  0  0  0  0  0  0  0  0
  139.1462   78.8027  223.6242 H   0  0  0  0  0  0  0  0  0  0  0  0
  139.1016   70.4885  221.6110 H   0  0  0  0  0  0  0  0  0  0  0  0
  138.8710   68.9028  223.4673 H   0  0  0  0  0  0  0  0  0  0  0  0
  139.3294   68.3829  225.8179 H   0  0  0  0  0  0  0  0  0  0  0  0
  141.4819   71.1792  228.2410 H   0  0  0  0  0  0  0  0  0  0  0  0
  141.6805   72.7447  226.3079 H   0  0  0  0  0  0  0  0  0  0  0  0
  1  2  2  0
  2  3  1  0
  3  4  1  0
  4  5  1  0
  5  6  2  0
  5  7  1  0
  7  8  1  0
  8  9  1  0
  9 10  1  0
 10 11  1  0
 11 12  1  0
 12 13  1  0
 13 14  1  0
 14 15  1  0
 15 16  1  0
 16 17  1  0
  2 18  1  0
 18 19  2  0
 19 20  1  0
 20 21  2  0
 21 22  1  0
 22 23  2  0
 23 24  1  0
 23 25  1  0
 25 26  2  0
 26 27  1  0
 27 28  2  0
 11  7  1  0
 17 12  1  0
 28 18  1  0
 27 21  1  0
  3 29  1  0
  4 30  1  0
  4 31  1  0
  8 32  1  0
  8 33  1  0
  9 34  1  0
  9 35  1  0
 10 36  1  0
 10 37  1  0
 11 38  1  1
 12 39  1  0
 13 40  1  0
 13 41  1  0
 14 42  1  0
 14 43  1  0
 15 44  1  0
 15 45  1  0
 16 46  1  0
 16 47  1  0
 17 48  1  0
 17 49  1  0
 19 50  1  0
 20 51  1  0
 22 52  1  0
 25 53  1  0
 26 54  1  0
M  END
>  <smiles>  (2) 
O=C(NCC(=O)N1CCCC1C1CCCCC1)c1ccc2cc(Cl)ccc2n1

>  <score_type>  (2) 
oracle

>  <origin>  (2) 
autodockgpu

>  <m_score__min__energy>  (2) 
-8.9700000000000006

>  <m_primary>  (2) 
energy

>  <rmsd>  (2) 
2.8854060210542283

>  <m_score__min__rmsd>  (2) 
2.8854060210542283

>  <meeko>  (2) 
{"free_energy": -8.04, "intermolecular_energy": -9.53, "internal_energy": -1.65, "cluster_size": 32, "cluster_id": 1, "rank_in_cluster": 30}

>  <energy>  (2) 
-8.97

>  <cluster_rmsd>  (2) 
0.37

>  <cluster>  (2) 
1

$$$$

     RDKit          3D

 54 57  0  0  0  0  0  0  0  0999 V2000
  141.0890   73.4770  220.7280 O   0  0  0  0  0  0  0  0  0  0  0  0
  140.3920   74.2980  221.4070 C   0  0  0  0  0  0  0  0  0  0  0  0
  139.3160   73.7310  222.1450 N   0  0  0  0  0  0  0  0  0  0  0  0
  139.1110   72.3160  222.0660 C   0  0  0  0  0  0  0  0  0  0  0  0
  139.8390   71.5560  223.0980 C   0  0  0  0  0  0  0  0  0  0  0  0
  141.0650   71.7320  223.3150 O   0  0  0  0  0  0  0  0  0  0  0  0
  139.1020   70.6000  223.8540 N   0  0  0  0  0  0  0  0  0  0  0  0
  137.6810   70.6070  224.1920 C   0  0  0  0  0  0  0  0  0  0  0  0
  137.2880   69.1270  224.2310 C   0  0  0  0  0  0  0  0  0  0  0  0
  138.5780   68.3910  223.9580 C   0  0  0  0  0  0  0  0  0  0  0  0
  139.6040   69.3680  224.4810 C   0  0  2  0  0  0  0  0  0  0  0  0
  139.5430   69.4960  225.9910 C   0  0  0  0  0  0  0  0  0  0  0  0
  140.1220   70.7780  226.4340 C   0  0  0  0  0  0  0  0  0  0  0  0
  141.0310   70.7680  227.6010 C   0  0  0  0  0  0  0  0  0  0  0  0
  141.1490   69.5140  228.3830 C   0  0  0  0  0  0  0  0  0  0  0  0
  140.0710   68.4910  228.1250 C   0  0  0  0  0  0  0  0  0  0  0  0
  140.1400   68.2650  226.6070 C   0  0  0  0  0  0  0  0  0  0  0  0
  140.6770   75.7240  221.4270 C   0  0  0  0  0  0  0  0  0  0  0  0
  141.5800   76.2170  220.5070 C   0  0  0  0  0  0  0  0  0  0  0  0
  141.9160   77.5320  220.4410 C   0  0  0  0  0  0  0  0  0  0  0  0
  141.3230   78.4000  221.3370 C   0  0  0  0  0  0  0  0  0  0  0  0
  141.6110   79.7500  221.3360 C   0  0  0  0  0  0  0  0  0  0  0  0
  141.0130   80.6050  222.2350 C   0  0  0  0  0  0  0  0  0  0  0  0
  141.4340   82.3050  222.1660 Cl  0  0  0  0  0  0  0  0  0  0  0  0
  140.1110   80.0990  223.1510 C   0  0  0  0  0  0  0  0  0  0  0  0
  139.7950   78.7430  223.1840 C   0  0  0  0  0  0  0  0  0  0  0  0
  140.4090   77.9100  222.2730 C   0  0  0  0  0  0  0  0  0  0  0  0
  140.1100   76.5840  222.2920 N   0  0  0  0  0  0  0  0  0  0  0  0
  138.6990   74.3670  222.7330 H   0  0  0  0  0  0  0  0  0  0  0  0
  138.0357   72.1135  222.1787 H   0  0  0  0  0  0  0  0  0  0  0  0
  139.4983   71.9878  221.0902 H   0  0  0  0  0  0  0  0  0  0  0  0
  137.5169   71.0787  225.1721 H   0  0  0  0  0  0  0  0  0  0  0  0
  137.0821   71.1796  223.4685 H   0  0  0  0  0  0  0  0  0  0  0  0
  136.8865   68.8564  225.2187 H   0  0  0  0  0  0  0  0  0  0  0  0
  136.5018   68.8816  223.5019 H   0  0  0  0  0  0  0  0  0  0  0  0
  138.6184   67.4366  224.5035 H   0  0  0  0  0  0  0  0  0  0  0  0
  138.7205   68.1158  222.9025 H   0  0  0  0  0  0  0  0  0  0  0  0
  140.6474   69.0974  224.2617 H   0  0  0  0  0  0  0  0  0  0  0  0
  138.5033   69.5405  226.3473 H   0  0  0  0  0  0  0  0  0  0  0  0
  140.6857   71.1921  225.5850 H   0  0  0  0  0  0  0  0  0  0  0  0
  139.2555   71.3675  226.7683 H   0  0  0  0  0  0  0  0  0  0  0  0
  142.0368   71.0199  227.2338 H   0  0  0  0  0  0  0  0  0  0  0  0
  140.5836   71.4873  228.3028 H   0  0  0  0  0  0  0  0  0  0  0  0
  142.1189   69.0538  228.1433 H   0  0  0  0  0  0  0  0  0  0  0  0
  141.0481   69.8031  229.4395 H   0  0  0  0  0  0  0  0  0  0  0  0
  140.2768   67.5581  228.6703 H   0  0  0  0  0  0  0  0  0  0  0  0
  139.0781   68.8235  228.4620 H   0  0  0  0  0  0  0  0  0  0  0  0
  141.1841   68.1411  226.2838 H   0  0  0  0  0  0  0  0  0  0  0  0
  139.6009   67.3550  226.3049 H   0  0  0  0  0  0  0  0  0  0  0  0
  142.0467   75.5170  219.7984 H   0  0  0  0  0  0  0  0  0  0  0  0
  142.6392   77.8947  219.6957 H   0  0  0  0  0  0  0  0  0  0  0  0
  142.3298   80.1494  220.6053 H   0  0  0  0  0  0  0  0  0  0  0  0
  139.6325   80.7812  223.8691 H   0  0  0  0  0  0  0  0  0  0  0  0
  139.0757   78.3477  223.9164 H   0  0  0  0  0  0  0  0  0  0  0  0
  1  2  2  0
  2  3  1  0
  3  4  1  0
  4  5  1  0
  5  6  2  0
  5  7  1  0
  7  8  1  0
  8  9  1  0
  9 10  1  0
 10 11  1  0
 11 12  1  0
 12 13  1  0
 13 14  1  0
 14 15  1  0
 15 16  1  0
 16 17  1  0
  2 18  1  0
 18 19  2  0
 19 20  1  0
 20 21  2  0
 21 22  1  0
 22 23  2  0
 23 24  1  0
 23 25  1  0
 25 26  2  0
 26 27  1  0
 27 28  2  0
 11  7  1  0
 17 12  1  0
 28 18  1  0
 27 21  1  0
  3 29  1  0
  4 30  1  0
  4 31  1  0
  8 32  1  0
  8 33  1  0
  9 34  1  0
  9 35  1  0
 10 36  1  0
 10 37  1  0
 11 38  1  1
 12 39  1  0
 13 40  1  0
 13 41  1  0
 14 42  1  0
 14 43  1  0
 15 44  1  0
 15 45  1  0
 16 46  1  0
 16 47  1  0
 17 48  1  0
 17 49  1  0
 19 50  1  0
 20 51  1  0
 22 52  1  0
 25 53  1  0
 26 54  1  0
M  END
>  <smiles>  (3) 
O=C(NCC(=O)N1CCCC1C1CCCCC1)c1ccc2cc(Cl)ccc2n1

>  <score_type>  (3) 
oracle

>  <origin>  (3) 
autodockgpu

>  <m_score__min__energy>  (3) 
-8.9700000000000006

>  <m_primary>  (3) 
energy

>  <rmsd>  (3) 
8.486905678998783

>  <m_score__min__rmsd>  (3) 
8.486905678998783

>  <meeko>  (3) 
{"free_energy": -8.5, "intermolecular_energy": -9.99, "internal_energy": -1.41, "cluster_size": 12, "cluster_id": 2, "rank_in_cluster": 3}

>  <energy>  (3) 
-8.97

>  <cluster_rmsd>  (3) 
0.1

>  <cluster>  (3) 
1

$$$$

     RDKit          3D

 54 57  0  0  0  0  0  0  0  0999 V2000
  141.0250   73.4550  220.9380 O   0  0  0  0  0  0  0  0  0  0  0  0
  140.2880   74.3180  221.5140 C   0  0  0  0  0  0  0  0  0  0  0  0
  139.1490   73.8020  222.1930 N   0  0  0  0  0  0  0  0  0  0  0  0
  138.9300   72.3870  222.1730 C   0  0  0  0  0  0  0  0  0  0  0  0
  139.7050   71.6570  223.1930 C   0  0  0  0  0  0  0  0  0  0  0  0
  140.8950   71.9540  223.4650 O   0  0  0  0  0  0  0  0  0  0  0  0
  139.0550   70.5870  223.8710 N   0  0  0  0  0  0  0  0  0  0  0  0
  137.6330   70.4260  224.1660 C   0  0  0  0  0  0  0  0  0  0  0  0
  137.3960   68.9130  224.1090 C   0  0  0  0  0  0  0  0  0  0  0  0
  138.7630   68.3320  223.8330 C   0  0  0  0  0  0  0  0  0  0  0  0
  139.6670   69.3780  224.4420 C   0  0  2  0  0  0  0  0  0  0  0  0
  139.5580   69.4090  225.9530 C   0  0  0  0  0  0  0  0  0  0  0  0
  140.1210   70.6590  226.4960 C   0  0  0  0  0  0  0  0  0  0  0  0
  140.9910   70.5720  227.6900 C   0  0  0  0  0  0  0  0  0  0  0  0
  141.0850   69.2700  228.3930 C   0  0  0  0  0  0  0  0  0  0  0  0
  140.0170   68.2680  228.0350 C   0  0  0  0  0  0  0  0  0  0  0  0
  140.1350   68.1390  226.5090 C   0  0  0  0  0  0  0  0  0  0  0  0
  140.5900   75.7400  221.4820 C   0  0  0  0  0  0  0  0  0  0  0  0
  141.4700   76.1930  220.5200 C   0  0  0  0  0  0  0  0  0  0  0  0
  141.8190   77.5010  220.4030 C   0  0  0  0  0  0  0  0  0  0  0  0
  141.2650   78.4040  221.2900 C   0  0  0  0  0  0  0  0  0  0  0  0
  141.5690   79.7500  221.2380 C   0  0  0  0  0  0  0  0  0  0  0  0
  141.0090   80.6390  222.1280 C   0  0  0  0  0  0  0  0  0  0  0  0
  141.4480   82.3310  221.9940 Cl  0  0  0  0  0  0  0  0  0  0  0  0
  140.1300   80.1720  223.0860 C   0  0  0  0  0  0  0  0  0  0  0  0
  139.7990   78.8230  223.1710 C   0  0  0  0  0  0  0  0  0  0  0  0
  140.3740   77.9540  222.2670 C   0  0  0  0  0  0  0  0  0  0  0  0
  140.0610   76.6330  222.3370 N   0  0  0  0  0  0  0  0  0  0  0  0
  138.4950   74.4750  222.6950 H   0  0  0  0  0  0  0  0  0  0  0  0
  137.8605   72.1978  222.3471 H   0  0  0  0  0  0  0  0  0  0  0  0
  139.2640   72.0220  221.1906 H   0  0  0  0  0  0  0  0  0  0  0  0
  137.3968   70.8188  225.1660 H   0  0  0  0  0  0  0  0  0  0  0  0
  136.9950   70.9754  223.4581 H   0  0  0  0  0  0  0  0  0  0  0  0
  137.0018   68.5438  225.0673 H   0  0  0  0  0  0  0  0  0  0  0  0
  136.6571   68.6315  223.3442 H   0  0  0  0  0  0  0  0  0  0  0  0
  138.8908   67.3560  224.3241 H   0  0  0  0  0  0  0  0  0  0  0  0
  138.9592   68.1363  222.7685 H   0  0  0  0  0  0  0  0  0  0  0  0
  140.7380   69.2299  224.2392 H   0  0  0  0  0  0  0  0  0  0  0  0
  138.5072   69.4322  226.2774 H   0  0  0  0  0  0  0  0  0  0  0  0
  140.7124   71.1258  225.6945 H   0  0  0  0  0  0  0  0  0  0  0  0
  139.2438   71.2277  226.8381 H   0  0  0  0  0  0  0  0  0  0  0  0
  142.0081   70.8463  227.3735 H   0  0  0  0  0  0  0  0  0  0  0  0
  140.5190   71.2442  228.4217 H   0  0  0  0  0  0  0  0  0  0  0  0
  142.0625   68.8249  228.1554 H   0  0  0  0  0  0  0  0  0  0  0  0
  140.9504   69.4903  229.4623 H   0  0  0  0  0  0  0  0  0  0  0  0
  140.2053   67.3018  228.5260 H   0  0  0  0  0  0  0  0  0  0  0  0
  139.0136   68.5803  228.3599 H   0  0  0  0  0  0  0  0  0  0  0  0
  141.1890   68.0336  226.2125 H   0  0  0  0  0  0  0  0  0  0  0  0
  139.6057   67.2513  226.1324 H   0  0  0  0  0  0  0  0  0  0  0  0
  141.9065   75.4657  219.8197 H   0  0  0  0  0  0  0  0  0  0  0  0
  142.5224   77.8315  219.6245 H   0  0  0  0  0  0  0  0  0  0  0  0
  142.2694   80.1178  220.4737 H   0  0  0  0  0  0  0  0  0  0  0  0
  139.6821   80.8818  223.7970 H   0  0  0  0  0  0  0  0  0  0  0  0
  139.0986   78.4598  223.9375 H   0  0  0  0  0  0  0  0  0  0  0  0
  1  2  2  0
  2  3  1  0
  3  4  1  0
  4  5  1  0
  5  6  2  0
  5  7  1  0
  7  8  1  0
  8  9  1  0
  9 10  1  0
 10 11  1  0
 11 12  1  0
 12 13  1  0
 13 14  1  0
 14 15  1  0
 15 16  1  0
 16 17  1  0
  2 18  1  0
 18 19  2  0
 19 20  1  0
 20 21  2  0
 21 22  1  0
 22 23  2  0
 23 24  1  0
 23 25  1  0
 25 26  2  0
 26 27  1  0
 27 28  2  0
 11  7  1  0
 17 12  1  0
 28 18  1  0
 27 21  1  0
  3 29  1  0
  4 30  1  0
  4 31  1  0
  8 32  1  0
  8 33  1  0
  9 34  1  0
  9 35  1  0
 10 36  1  0
 10 37  1  0
 11 38  1  1
 12 39  1  0
 13 40  1  0
 13 41  1  0
 14 42  1  0
 14 43  1  0
 15 44  1  0
 15 45  1  0
 16 46  1  0
 16 47  1  0
 17 48  1  0
 17 49  1  0
 19 50  1  0
 20 51  1  0
 22 52  1  0
 25 53  1  0
 26 54  1  0
M  END
>  <smiles>  (4) 
O=C(NCC(=O)N1CCCC1C1CCCCC1)c1ccc2cc(Cl)ccc2n1

>  <score_type>  (4) 
oracle

>  <origin>  (4) 
autodockgpu

>  <m_score__min__energy>  (4) 
-8.9700000000000006

>  <m_primary>  (4) 
energy

>  <rmsd>  (4) 
8.494273787198242

>  <m_score__min__rmsd>  (4) 
8.494273787198242

>  <meeko>  (4) 
{"free_energy": -8.51, "intermolecular_energy": -10.0, "internal_energy": -1.39, "cluster_size": 12, "cluster_id": 2, "rank_in_cluster": 2}

>  <energy>  (4) 
-8.96

>  <cluster_rmsd>  (4) 
0.19

>  <cluster>  (4) 
1

$$$$

     RDKit          3D

 54 57  0  0  0  0  0  0  0  0999 V2000
  138.3860   72.0120  221.1040 O   0  0  0  0  0  0  0  0  0  0  0  0
  139.1730   72.3470  222.0460 C   0  0  0  0  0  0  0  0  0  0  0  0
  139.7680   73.6340  221.9260 N   0  0  0  0  0  0  0  0  0  0  0  0
  139.4390   74.4280  220.7810 C   0  0  0  0  0  0  0  0  0  0  0  0
  139.4850   75.8800  221.0380 C   0  0  0  0  0  0  0  0  0  0  0  0
  138.5090   76.5010  221.5300 O   0  0  0  0  0  0  0  0  0  0  0  0
  140.6870   76.5680  220.7070 N   0  0  0  0  0  0  0  0  0  0  0  0
  142.0060   76.0100  220.4200 C   0  0  0  0  0  0  0  0  0  0  0  0
  142.6160   76.9730  219.3950 C   0  0  0  0  0  0  0  0  0  0  0  0
  141.5730   78.0540  219.2330 C   0  0  0  0  0  0  0  0  0  0  0  0
  140.8860   78.0190  220.5770 C   0  0  2  0  0  0  0  0  0  0  0  0
  141.7910   78.5180  221.6870 C   0  0  0  0  0  0  0  0  0  0  0  0
  141.2580   78.1420  223.0090 C   0  0  0  0  0  0  0  0  0  0  0  0
  141.2670   79.1620  224.0810 C   0  0  0  0  0  0  0  0  0  0  0  0
  141.9930   80.4300  223.8320 C   0  0  0  0  0  0  0  0  0  0  0  0
  142.9400   80.4090  222.6590 C   0  0  0  0  0  0  0  0  0  0  0  0
  142.0520   79.9820  221.4820 C   0  0  0  0  0  0  0  0  0  0  0  0
  139.4480   71.4710  223.1740 C   0  0  0  0  0  0  0  0  0  0  0  0
  139.0980   70.1410  223.0610 C   0  0  0  0  0  0  0  0  0  0  0  0
  139.3110   69.2390  224.0550 C   0  0  0  0  0  0  0  0  0  0  0  0
  139.9020   69.6850  225.2210 C   0  0  0  0  0  0  0  0  0  0  0  0
  140.1520   68.8320  226.2780 C   0  0  0  0  0  0  0  0  0  0  0  0
  140.7420   69.2890  227.4350 C   0  0  0  0  0  0  0  0  0  0  0  0
  141.0250   68.1420  228.7300 Cl  0  0  0  0  0  0  0  0  0  0  0  0
  141.0880   70.6230  227.5360 C   0  0  0  0  0  0  0  0  0  0  0  0
  140.8510   71.5140  226.4920 C   0  0  0  0  0  0  0  0  0  0  0  0
  140.2590   71.0290  225.3450 C   0  0  0  0  0  0  0  0  0  0  0  0
  140.0230   71.8870  224.3160 N   0  0  0  0  0  0  0  0  0  0  0  0
  140.4350   73.9700  222.6830 H   0  0  0  0  0  0  0  0  0  0  0  0
  140.1535   74.1938  219.9781 H   0  0  0  0  0  0  0  0  0  0  0  0
  138.4035   74.1815  220.5035 H   0  0  0  0  0  0  0  0  0  0  0  0
  142.6195   75.9735  221.3323 H   0  0  0  0  0  0  0  0  0  0  0  0
  141.9504   74.9782  220.0428 H   0  0  0  0  0  0  0  0  0  0  0  0
  143.5599   77.3951  219.7703 H   0  0  0  0  0  0  0  0  0  0  0  0
  142.8585   76.4766  218.4438 H   0  0  0  0  0  0  0  0  0  0  0  0
  142.0365   79.0337  219.0448 H   0  0  0  0  0  0  0  0  0  0  0  0
  140.8956   77.8973  218.3806 H   0  0  0  0  0  0  0  0  0  0  0  0
  139.9835   78.6440  220.6458 H   0  0  0  0  0  0  0  0  0  0  0  0
  142.7749   78.0274  221.6515 H   0  0  0  0  0  0  0  0  0  0  0  0
  140.2130   77.8309  222.8632 H   0  0  0  0  0  0  0  0  0  0  0  0
  141.9449   77.3617  223.3686 H   0  0  0  0  0  0  0  0  0  0  0  0
  140.2194   79.4217  224.2935 H   0  0  0  0  0  0  0  0  0  0  0  0
  141.8195   78.6877  224.9054 H   0  0  0  0  0  0  0  0  0  0  0  0
  141.2478   81.2192  223.6534 H   0  0  0  0  0  0  0  0  0  0  0  0
  142.6146   80.6052  224.7225 H   0  0  0  0  0  0  0  0  0  0  0  0
  143.3702   81.4062  222.4842 H   0  0  0  0  0  0  0  0  0  0  0  0
  143.7956   79.7352  222.8139 H   0  0  0  0  0  0  0  0  0  0  0  0
  141.1074   80.5456  221.4889 H   0  0  0  0  0  0  0  0  0  0  0  0
  142.5354   80.1787  220.5137 H   0  0  0  0  0  0  0  0  0  0  0  0
  138.6274   69.7968  222.1283 H   0  0  0  0  0  0  0  0  0  0  0  0
  139.0213   68.1847  223.9345 H   0  0  0  0  0  0  0  0  0  0  0  0
  139.8753   67.7707  226.1942 H   0  0  0  0  0  0  0  0  0  0  0  0
  141.5602   70.9887  228.4597 H   0  0  0  0  0  0  0  0  0  0  0  0
  141.1283   72.5748  226.5801 H   0  0  0  0  0  0  0  0  0  0  0  0
  1  2  2  0
  2  3  1  0
  3  4  1  0
  4  5  1  0
  5  6  2  0
  5  7  1  0
  7  8  1  0
  8  9  1  0
  9 10  1  0
 10 11  1  0
 11 12  1  0
 12 13  1  0
 13 14  1  0
 14 15  1  0
 15 16  1  0
 16 17  1  0
  2 18  1  0
 18 19  2  0
 19 20  1  0
 20 21  2  0
 21 22  1  0
 22 23  2  0
 23 24  1  0
 23 25  1  0
 25 26  2  0
 26 27  1  0
 27 28  2  0
 11  7  1  0
 17 12  1  0
 28 18  1  0
 27 21  1  0
  3 29  1  0
  4 30  1  0
  4 31  1  0
  8 32  1  0
  8 33  1  0
  9 34  1  0
  9 35  1  0
 10 36  1  0
 10 37  1  0
 11 38  1  6
 12 39  1  0
 13 40  1  0
 13 41  1  0
 14 42  1  0
 14 43  1  0
 15 44  1  0
 15 45  1  0
 16 46  1  0
 16 47  1  0
 17 48  1  0
 17 49  1  0
 19 50  1  0
 20 51  1  0
 22 52  1  0
 25 53  1  0
 26 54  1  0
M  END
>  <smiles>  (5) 
O=C(NCC(=O)N1CCCC1C1CCCCC1)c1ccc2cc(Cl)ccc2n1

>  <score_type>  (5) 
oracle

>  <origin>  (5) 
autodockgpu

>  <m_score__min__energy>  (5) 
-8.9700000000000006

>  <m_primary>  (5) 
energy

>  <rmsd>  (5) 
1.9961679394284078

>  <m_score__min__rmsd>  (5) 
1.9961679394284078

>  <meeko>  (5) 
{"free_energy": -8.28, "intermolecular_energy": -9.78, "internal_energy": -1.4, "cluster_size": 32, "cluster_id": 1, "rank_in_cluster": 24}

>  <energy>  (5) 
-8.93

>  <cluster_rmsd>  (5) 
0.5

>  <cluster>  (5) 
1

$$$$

     RDKit          3D

 54 57  0  0  0  0  0  0  0  0999 V2000
  140.8340   72.3110  220.9550 O   0  0  0  0  0  0  0  0  0  0  0  0
  140.2010   72.5850  222.0250 C   0  0  0  0  0  0  0  0  0  0  0  0
  139.5010   73.8240  222.0280 N   0  0  0  0  0  0  0  0  0  0  0  0
  139.5660   74.6420  220.8540 C   0  0  0  0  0  0  0  0  0  0  0  0
  139.3520   76.0760  221.1230 C   0  0  0  0  0  0  0  0  0  0  0  0
  138.3530   76.4930  221.7620 O   0  0  0  0  0  0  0  0  0  0  0  0
  140.3270   76.9900  220.6300 N   0  0  0  0  0  0  0  0  0  0  0  0
  141.4990   76.7130  219.8030 C   0  0  0  0  0  0  0  0  0  0  0  0
  141.6650   77.9670  218.9380 C   0  0  0  0  0  0  0  0  0  0  0  0
  140.5680   78.8930  219.4100 C   0  0  0  0  0  0  0  0  0  0  0  0
  140.3850   78.4440  220.8400 C   0  0  2  0  0  0  0  0  0  0  0  0
  141.5830   78.7940  221.7000 C   0  0  0  0  0  0  0  0  0  0  0  0
  141.4430   78.2270  223.0540 C   0  0  0  0  0  0  0  0  0  0  0  0
  141.7880   79.0850  224.2100 C   0  0  0  0  0  0  0  0  0  0  0  0
  142.4450   80.3870  223.9410 C   0  0  0  0  0  0  0  0  0  0  0  0
  143.0140   80.5450  222.5540 C   0  0  0  0  0  0  0  0  0  0  0  0
  141.8130   80.2760  221.6350 C   0  0  0  0  0  0  0  0  0  0  0  0
  140.1920   71.6900  223.1710 C   0  0  0  0  0  0  0  0  0  0  0  0
  139.6470   70.4330  223.0050 C   0  0  0  0  0  0  0  0  0  0  0  0
  139.5890   69.5200  224.0110 C   0  0  0  0  0  0  0  0  0  0  0  0
  140.0990   69.8780  225.2430 C   0  0  0  0  0  0  0  0  0  0  0  0
  140.0790   69.0080  226.3160 C   0  0  0  0  0  0  0  0  0  0  0  0
  140.5910   69.3770  227.5390 C   0  0  0  0  0  0  0  0  0  0  0  0
  140.5250   68.2140  228.8490 Cl  0  0  0  0  0  0  0  0  0  0  0  0
  141.1340   70.6390  227.6920 C   0  0  0  0  0  0  0  0  0  0  0  0
  141.1730   71.5440  226.6340 C   0  0  0  0  0  0  0  0  0  0  0  0
  140.6530   71.1480  225.4200 C   0  0  0  0  0  0  0  0  0  0  0  0
  140.6840   72.0200  224.3770 N   0  0  0  0  0  0  0  0  0  0  0  0
  138.9520   74.1080  222.8930 H   0  0  0  0  0  0  0  0  0  0  0  0
  140.5592   74.5179  220.3978 H   0  0  0  0  0  0  0  0  0  0  0  0
  138.7559   74.3139  220.1861 H   0  0  0  0  0  0  0  0  0  0  0  0
  142.3883   76.5532  220.4304 H   0  0  0  0  0  0  0  0  0  0  0  0
  141.3780   75.8018  219.1988 H   0  0  0  0  0  0  0  0  0  0  0  0
  142.6540   78.4217  219.0964 H   0  0  0  0  0  0  0  0  0  0  0  0
  141.5967   77.7480  217.8622 H   0  0  0  0  0  0  0  0  0  0  0  0
  140.8814   79.9461  219.3571 H   0  0  0  0  0  0  0  0  0  0  0  0
  139.6505   78.8443  218.8051 H   0  0  0  0  0  0  0  0  0  0  0  0
  139.5255   78.8980  221.3549 H   0  0  0  0  0  0  0  0  0  0  0  0
  142.5015   78.3275  221.3142 H   0  0  0  0  0  0  0  0  0  0  0  0
  140.3922   77.9247  223.1741 H   0  0  0  0  0  0  0  0  0  0  0  0
  142.1830   77.4138  223.0872 H   0  0  0  0  0  0  0  0  0  0  0  0
  140.8536   79.2960  224.7507 H   0  0  0  0  0  0  0  0  0  0  0  0
  142.5418   78.5071  224.7649 H   0  0  0  0  0  0  0  0  0  0  0  0
  141.7008   81.1821  224.0960 H   0  0  0  0  0  0  0  0  0  0  0  0
  143.3005   80.4451  224.6300 H   0  0  0  0  0  0  0  0  0  0  0  0
  143.4031   81.5628  222.4032 H   0  0  0  0  0  0  0  0  0  0  0  0
  143.8591   79.8681  222.3602 H   0  0  0  0  0  0  0  0  0  0  0  0
  140.9258   80.8189  221.9929 H   0  0  0  0  0  0  0  0  0  0  0  0
  142.0024   80.6151  220.6058 H   0  0  0  0  0  0  0  0  0  0  0  0
  139.2433   70.1587  222.0192 H   0  0  0  0  0  0  0  0  0  0  0  0
  139.1486   68.5253  223.8480 H   0  0  0  0  0  0  0  0  0  0  0  0
  139.6469   68.0042  226.1908 H   0  0  0  0  0  0  0  0  0  0  0  0
  141.5436   70.9345  228.6692 H   0  0  0  0  0  0  0  0  0  0  0  0
  141.6066   72.5466  226.7634 H   0  0  0  0  0  0  0  0  0  0  0  0
  1  2  2  0
  2  3  1  0
  3  4  1  0
  4  5  1  0
  5  6  2  0
  5  7  1  0
  7  8  1  0
  8  9  1  0
  9 10  1  0
 10 11  1  0
 11 12  1  0
 12 13  1  0
 13 14  1  0
 14 15  1  0
 15 16  1  0
 16 17  1  0
  2 18  1  0
 18 19  2  0
 19 20  1  0
 20 21  2  0
 21 22  1  0
 22 23  2  0
 23 24  1  0
 23 25  1  0
 25 26  2  0
 26 27  1  0
 27 28  2  0
 11  7  1  0
 17 12  1  0
 28 18  1  0
 27 21  1  0
  3 29  1  0
  4 30  1  0
  4 31  1  0
  8 32  1  0
  8 33  1  0
  9 34  1  0
  9 35  1  0
 10 36  1  0
 10 37  1  0
 11 38  1  1
 12 39  1  0
 13 40  1  0
 13 41  1  0
 14 42  1  0
 14 43  1  0
 15 44  1  0
 15 45  1  0
 16 46  1  0
 16 47  1  0
 17 48  1  0
 17 49  1  0
 19 50  1  0
 20 51  1  0
 22 52  1  0
 25 53  1  0
 26 54  1  0
M  END
>  <smiles>  (6) 
O=C(NCC(=O)N1CCCC1C1CCCCC1)c1ccc2cc(Cl)ccc2n1

>  <score_type>  (6) 
oracle

>  <origin>  (6) 
autodockgpu

>  <m_score__min__energy>  (6) 
-8.9700000000000006

>  <m_primary>  (6) 
energy

>  <rmsd>  (6) 
2.0785639629082158

>  <m_score__min__rmsd>  (6) 
2.0785639629082158

>  <meeko>  (6) 
{"free_energy": -8.6, "intermolecular_energy": -10.09, "internal_energy": -1.4, "cluster_size": 32, "cluster_id": 1, "rank_in_cluster": 18}

>  <energy>  (6) 
-8.92

>  <cluster_rmsd>  (6) 
0.21

>  <cluster>  (6) 
1

$$$$

     RDKit          3D

 54 57  0  0  0  0  0  0  0  0999 V2000
  135.0820   68.4350  224.7040 O   0  0  0  0  0  0  0  0  0  0  0  0
  135.1860   69.5820  224.1640 C   0  0  0  0  0  0  0  0  0  0  0  0
  135.8200   69.6090  222.8890 N   0  0  0  0  0  0  0  0  0  0  0  0
  136.2770   68.3710  222.3330 C   0  0  0  0  0  0  0  0  0  0  0  0
  137.6610   68.0320  222.7120 C   0  0  0  0  0  0  0  0  0  0  0  0
  138.1120   66.8630  222.6090 O   0  0  0  0  0  0  0  0  0  0  0  0
  138.4850   69.0830  223.2040 N   0  0  0  0  0  0  0  0  0  0  0  0
  139.5760   69.7790  222.5250 C   0  0  0  0  0  0  0  0  0  0  0  0
  139.5270   71.2060  223.0810 C   0  0  0  0  0  0  0  0  0  0  0  0
  138.4110   71.1710  224.1000 C   0  0  0  0  0  0  0  0  0  0  0  0
  138.4340   69.7230  224.5270 C   0  0  2  0  0  0  0  0  0  0  0  0
  139.6850   69.3850  225.3130 C   0  0  0  0  0  0  0  0  0  0  0  0
  139.6240   68.0070  225.8330 C   0  0  0  0  0  0  0  0  0  0  0  0
  140.0460   67.7700  227.2320 C   0  0  0  0  0  0  0  0  0  0  0  0
  140.6950   68.8830  227.9640 C   0  0  0  0  0  0  0  0  0  0  0  0
  141.1790   70.0230  227.1030 C   0  0  0  0  0  0  0  0  0  0  0  0
  139.9220   70.4580  226.3350 C   0  0  0  0  0  0  0  0  0  0  0  0
  134.6900   70.7890  224.8060 C   0  0  0  0  0  0  0  0  0  0  0  0
  133.7360   70.6510  225.7940 C   0  0  0  0  0  0  0  0  0  0  0  0
  133.2080   71.7140  226.4560 C   0  0  0  0  0  0  0  0  0  0  0  0
  133.6500   72.9770  226.1170 C   0  0  0  0  0  0  0  0  0  0  0  0
  133.1630   74.1080  226.7420 C   0  0  0  0  0  0  0  0  0  0  0  0
  133.6130   75.3620  226.3950 C   0  0  0  0  0  0  0  0  0  0  0  0
  132.9430   76.7450  227.2370 Cl  0  0  0  0  0  0  0  0  0  0  0  0
  134.5680   75.4860  225.4030 C   0  0  0  0  0  0  0  0  0  0  0  0
  135.0840   74.3700  224.7500 C   0  0  0  0  0  0  0  0  0  0  0  0
  134.6150   73.1260  225.1180 C   0  0  0  0  0  0  0  0  0  0  0  0
  135.1090   72.0270  224.4890 N   0  0  0  0  0  0  0  0  0  0  0  0
  135.9350   70.5400  222.3870 H   0  0  0  0  0  0  0  0  0  0  0  0
  135.6132   67.5663  222.6821 H   0  0  0  0  0  0  0  0  0  0  0  0
  136.2587   68.4812  221.2387 H   0  0  0  0  0  0  0  0  0  0  0  0
  140.5418   69.3053  222.7548 H   0  0  0  0  0  0  0  0  0  0  0  0
  139.4709   69.7532  221.4303 H   0  0  0  0  0  0  0  0  0  0  0  0
  140.4820   71.4715  223.5578 H   0  0  0  0  0  0  0  0  0  0  0  0
  139.3563   71.9575  222.2961 H   0  0  0  0  0  0  0  0  0  0  0  0
  138.6191   71.8422  224.9462 H   0  0  0  0  0  0  0  0  0  0  0  0
  137.4388   71.5069  223.7102 H   0  0  0  0  0  0  0  0  0  0  0  0
  137.6011   69.4264  225.1815 H   0  0  0  0  0  0  0  0  0  0  0  0
  140.5748   69.3810  224.6663 H   0  0  0  0  0  0  0  0  0  0  0  0
  138.5803   67.6708  225.7453 H   0  0  0  0  0  0  0  0  0  0  0  0
  140.3579   67.4539  225.2285 H   0  0  0  0  0  0  0  0  0  0  0  0
  139.1481   67.4853  227.8001 H   0  0  0  0  0  0  0  0  0  0  0  0
  140.8284   67.0006  227.1549 H   0  0  0  0  0  0  0  0  0  0  0  0
  139.9681   69.2858  228.6846 H   0  0  0  0  0  0  0  0  0  0  0  0
  141.5918   68.4555  228.4363 H   0  0  0  0  0  0  0  0  0  0  0  0
  141.5648   70.8461  227.7224 H   0  0  0  0  0  0  0  0  0  0  0  0
  142.0062   69.7338  226.4381 H   0  0  0  0  0  0  0  0  0  0  0  0
  139.0625   70.5358  227.0171 H   0  0  0  0  0  0  0  0  0  0  0  0
  140.0507   71.4454  225.8676 H   0  0  0  0  0  0  0  0  0  0  0  0
  133.3893   69.6405  226.0560 H   0  0  0  0  0  0  0  0  0  0  0  0
  132.4496   71.5719  227.2400 H   0  0  0  0  0  0  0  0  0  0  0  0
  132.4028   74.0053  227.5303 H   0  0  0  0  0  0  0  0  0  0  0  0
  134.9276   76.4874  225.1239 H   0  0  0  0  0  0  0  0  0  0  0  0
  135.8445   74.4772  223.9625 H   0  0  0  0  0  0  0  0  0  0  0  0
  1  2  2  0
  2  3  1  0
  3  4  1  0
  4  5  1  0
  5  6  2  0
  5  7  1  0
  7  8  1  0
  8  9  1  0
  9 10  1  0
 10 11  1  0
 11 12  1  0
 12 13  1  0
 13 14  1  0
 14 15  1  0
 15 16  1  0
 16 17  1  0
  2 18  1  0
 18 19  2  0
 19 20  1  0
 20 21  2  0
 21 22  1  0
 22 23  2  0
 23 24  1  0
 23 25  1  0
 25 26  2  0
 26 27  1  0
 27 28  2  0
 11  7  1  0
 17 12  1  0
 28 18  1  0
 27 21  1  0
  3 29  1  0
  4 30  1  0
  4 31  1  0
  8 32  1  0
  8 33  1  0
  9 34  1  0
  9 35  1  0
 10 36  1  0
 10 37  1  0
 11 38  1  1
 12 39  1  0
 13 40  1  0
 13 41  1  0
 14 42  1  0
 14 43  1  0
 15 44  1  0
 15 45  1  0
 16 46  1  0
 16 47  1  0
 17 48  1  0
 17 49  1  0
 19 50  1  0
 20 51  1  0
 22 52  1  0
 25 53  1  0
 26 54  1  0
M  END
>  <smiles>  (7) 
O=C(NCC(=O)N1CCCC1C1CCCCC1)c1ccc2cc(Cl)ccc2n1

>  <score_type>  (7) 
oracle

>  <origin>  (7) 
autodockgpu

>  <m_score__min__energy>  (7) 
-8.9700000000000006

>  <m_primary>  (7) 
energy

>  <rmsd>  (7) 
7.328171757670943

>  <m_score__min__rmsd>  (7) 
7.328171757670943

>  <meeko>  (7) 
{"free_energy": -7.26, "intermolecular_energy": -8.76, "internal_energy": -2.09, "cluster_size": 3, "cluster_id": 3, "rank_in_cluster": 3}

>  <energy>  (7) 
-8.91

>  <cluster_rmsd>  (7) 
0.5

>  <cluster>  (7) 
1

$$$$

     RDKit          3D

 54 57  0  0  0  0  0  0  0  0999 V2000
  138.6030   70.9070  221.2380 O   0  0  0  0  0  0  0  0  0  0  0  0
  138.7820   71.6470  222.2570 C   0  0  0  0  0  0  0  0  0  0  0  0
  138.3940   73.0090  222.1080 N   0  0  0  0  0  0  0  0  0  0  0  0
  137.8480   73.4240  220.8510 C   0  0  0  0  0  0  0  0  0  0  0  0
  138.8360   73.4420  219.7570 C   0  0  0  0  0  0  0  0  0  0  0  0
  138.6550   72.8110  218.6840 O   0  0  0  0  0  0  0  0  0  0  0  0
  140.0210   74.2070  219.9530 N   0  0  0  0  0  0  0  0  0  0  0  0
  140.4440   75.4230  219.2620 C   0  0  0  0  0  0  0  0  0  0  0  0
  141.2220   76.2150  220.3190 C   0  0  0  0  0  0  0  0  0  0  0  0
  141.2150   75.3190  221.5360 C   0  0  0  0  0  0  0  0  0  0  0  0
  141.1100   73.9510  220.9060 C   0  0  2  0  0  0  0  0  0  0  0  0
  142.3740   73.5760  220.1570 C   0  0  0  0  0  0  0  0  0  0  0  0
  142.4710   72.1150  219.9850 C   0  0  0  0  0  0  0  0  0  0  0  0
  143.7770   71.4670  220.2350 C   0  0  0  0  0  0  0  0  0  0  0  0
  144.9600   72.3370  220.4430 C   0  0  0  0  0  0  0  0  0  0  0  0
  144.7800   73.7750  220.0280 C   0  0  0  0  0  0  0  0  0  0  0  0
  143.5480   74.2320  220.8230 C   0  0  0  0  0  0  0  0  0  0  0  0
  139.3450   71.1360  223.4970 C   0  0  0  0  0  0  0  0  0  0  0  0
  140.3040   71.8970  224.1340 C   0  0  0  0  0  0  0  0  0  0  0  0
  140.8940   71.5110  225.2960 C   0  0  0  0  0  0  0  0  0  0  0  0
  140.5080   70.3070  225.8520 C   0  0  0  0  0  0  0  0  0  0  0  0
  141.0590   69.8440  227.0300 C   0  0  0  0  0  0  0  0  0  0  0  0
  140.6660   68.6420  227.5740 C   0  0  0  0  0  0  0  0  0  0  0  0
  141.4140   68.1260  229.0730 Cl  0  0  0  0  0  0  0  0  0  0  0  0
  139.7040   67.8900  226.9260 C   0  0  0  0  0  0  0  0  0  0  0  0
  139.1260   68.3230  225.7360 C   0  0  0  0  0  0  0  0  0  0  0  0
  139.5380   69.5300  225.2140 C   0  0  0  0  0  0  0  0  0  0  0  0
  138.9820   69.9670  224.0530 N   0  0  0  0  0  0  0  0  0  0  0  0
  138.5190   73.6760  222.9260 H   0  0  0  0  0  0  0  0  0  0  0  0
  137.0385   72.7313  220.5775 H   0  0  0  0  0  0  0  0  0  0  0  0
  137.4892   74.4559  220.9794 H   0  0  0  0  0  0  0  0  0  0  0  0
  141.0900   75.1788  218.4058 H   0  0  0  0  0  0  0  0  0  0  0  0
  139.5936   75.9907  218.8564 H   0  0  0  0  0  0  0  0  0  0  0  0
  142.2514   76.4073  219.9825 H   0  0  0  0  0  0  0  0  0  0  0  0
  140.7755   77.2001  220.5195 H   0  0  0  0  0  0  0  0  0  0  0  0
  142.1435   75.4233  222.1164 H   0  0  0  0  0  0  0  0  0  0  0  0
  140.4114   75.5443  222.2526 H   0  0  0  0  0  0  0  0  0  0  0  0
  140.9503   73.1301  221.6206 H   0  0  0  0  0  0  0  0  0  0  0  0
  142.3558   73.9607  219.1266 H   0  0  0  0  0  0  0  0  0  0  0  0
  141.7430   71.6568  220.6706 H   0  0  0  0  0  0  0  0  0  0  0  0
  142.2877   71.9540  218.9124 H   0  0  0  0  0  0  0  0  0  0  0  0
  143.6661   70.8455  221.1358 H   0  0  0  0  0  0  0  0  0  0  0  0
  143.9963   70.9250  219.3033 H   0  0  0  0  0  0  0  0  0  0  0  0
  145.2104   72.3207  221.5140 H   0  0  0  0  0  0  0  0  0  0  0  0
  145.7546   71.9308  219.7998 H   0  0  0  0  0  0  0  0  0  0  0  0
  145.6633   74.3738  220.2949 H   0  0  0  0  0  0  0  0  0  0  0  0
  144.6539   73.8925  218.9416 H   0  0  0  0  0  0  0  0  0  0  0  0
  143.6254   73.9082  221.8714 H   0  0  0  0  0  0  0  0  0  0  0  0
  143.4519   75.3278  220.8319 H   0  0  0  0  0  0  0  0  0  0  0  0
  140.6030   72.8547  223.6831 H   0  0  0  0  0  0  0  0  0  0  0  0
  141.6567   72.1391  225.7795 H   0  0  0  0  0  0  0  0  0  0  0  0
  141.8245   70.4453  227.5423 H   0  0  0  0  0  0  0  0  0  0  0  0
  139.3887   66.9295  227.3597 H   0  0  0  0  0  0  0  0  0  0  0  0
  138.3614   67.7183  225.2263 H   0  0  0  0  0  0  0  0  0  0  0  0
  1  2  2  0
  2  3  1  0
  3  4  1  0
  4  5  1  0
  5  6  2  0
  5  7  1  0
  7  8  1  0
  8  9  1  0
  9 10  1  0
 10 11  1  0
 11 12  1  0
 12 13  1  0
 13 14  1  0
 14 15  1  0
 15 16  1  0
 16 17  1  0
  2 18  1  0
 18 19  2  0
 19 20  1  0
 20 21  2  0
 21 22  1  0
 22 23  2  0
 23 24  1  0
 23 25  1  0
 25 26  2  0
 26 27  1  0
 27 28  2  0
 11  7  1  0
 17 12  1  0
 28 18  1  0
 27 21  1  0
  3 29  1  0
  4 30  1  0
  4 31  1  0
  8 32  1  0
  8 33  1  0
  9 34  1  0
  9 35  1  0
 10 36  1  0
 10 37  1  0
 11 38  1  1
 12 39  1  0
 13 40  1  0
 13 41  1  0
 14 42  1  0
 14 43  1  0
 15 44  1  0
 15 45  1  0
 16 46  1  0
 16 47  1  0
 17 48  1  0
 17 49  1  0
 19 50  1  0
 20 51  1  0
 22 52  1  0
 25 53  1  0
 26 54  1  0
M  END
>  <smiles>  (8) 
O=C(NCC(=O)N1CCCC1C1CCCCC1)c1ccc2cc(Cl)ccc2n1

>  <score_type>  (8) 
oracle

>  <origin>  (8) 
autodockgpu

>  <m_score__min__energy>  (8) 
-8.9700000000000006

>  <m_primary>  (8) 
energy

>  <rmsd>  (8) 
3.037099688730943

>  <m_score__min__rmsd>  (8) 
3.037099688730943

>  <meeko>  (8) 
{"free_energy": -7.14, "intermolecular_energy": -8.63, "internal_energy": -1.76, "cluster_size": 1, "cluster_id": 5, "rank_in_cluster": 1}

>  <energy>  (8) 
-8.78

>  <cluster_rmsd>  (8) 
0.53

>  <cluster>  (8) 
1

$$$$

     RDKit          3D

 54 57  0  0  0  0  0  0  0  0999 V2000
  136.2270   77.4780  223.2420 O   0  0  0  0  0  0  0  0  0  0  0  0
  136.4370   76.2400  223.4510 C   0  0  0  0  0  0  0  0  0  0  0  0
  137.6550   75.7240  222.9280 N   0  0  0  0  0  0  0  0  0  0  0  0
  138.5240   76.6180  222.2250 C   0  0  0  0  0  0  0  0  0  0  0  0
  139.7680   75.9820  221.7540 C   0  0  0  0  0  0  0  0  0  0  0  0
  140.0240   74.7720  221.9760 O   0  0  0  0  0  0  0  0  0  0  0  0
  140.6870   76.7920  221.0280 N   0  0  0  0  0  0  0  0  0  0  0  0
  141.9950   76.4260  220.4890 C   0  0  0  0  0  0  0  0  0  0  0  0
  142.1350   77.2660  219.2150 C   0  0  0  0  0  0  0  0  0  0  0  0
  140.8760   78.1000  219.1780 C   0  0  0  0  0  0  0  0  0  0  0  0
  140.5360   78.2040  220.6450 C   0  0  2  0  0  0  0  0  0  0  0  0
  141.5400   79.0530  221.3990 C   0  0  0  0  0  0  0  0  0  0  0  0
  141.6940   78.5790  222.7870 C   0  0  0  0  0  0  0  0  0  0  0  0
  141.7280   79.5870  223.8690 C   0  0  0  0  0  0  0  0  0  0  0  0
  141.8120   81.0180  223.4890 C   0  0  0  0  0  0  0  0  0  0  0  0
  142.2100   81.2800  222.0580 C   0  0  0  0  0  0  0  0  0  0  0  0
  141.1700   80.4990  221.2420 C   0  0  0  0  0  0  0  0  0  0  0  0
  135.4930   75.4060  224.1790 C   0  0  0  0  0  0  0  0  0  0  0  0
  135.3800   74.0820  223.8070 C   0  0  0  0  0  0  0  0  0  0  0  0
  134.5290   73.2180  224.4220 C   0  0  0  0  0  0  0  0  0  0  0  0
  133.7520   73.6970  225.4580 C   0  0  0  0  0  0  0  0  0  0  0  0
  132.8640   72.8840  226.1330 C   0  0  0  0  0  0  0  0  0  0  0  0
  132.0950   73.3740  227.1650 C   0  0  0  0  0  0  0  0  0  0  0  0
  130.9910   72.2760  227.9700 Cl  0  0  0  0  0  0  0  0  0  0  0  0
  132.2180   74.7020  227.5270 C   0  0  0  0  0  0  0  0  0  0  0  0
  133.1030   75.5540  226.8700 C   0  0  0  0  0  0  0  0  0  0  0  0
  133.8600   75.0360  225.8410 C   0  0  0  0  0  0  0  0  0  0  0  0
  134.7290   75.8550  225.1900 N   0  0  0  0  0  0  0  0  0  0  0  0
  137.8870   74.6950  223.0720 H   0  0  0  0  0  0  0  0  0  0  0  0
  137.9838   77.0141  221.3525 H   0  0  0  0  0  0  0  0  0  0  0  0
  138.8135   77.4095  222.9319 H   0  0  0  0  0  0  0  0  0  0  0  0
  142.7929   76.6708  221.2055 H   0  0  0  0  0  0  0  0  0  0  0  0
  142.0778   75.3474  220.2895 H   0  0  0  0  0  0  0  0  0  0  0  0
  143.0265   77.9082  219.2676 H   0  0  0  0  0  0  0  0  0  0  0  0
  142.2555   76.6465  218.3141 H   0  0  0  0  0  0  0  0  0  0  0  0
  141.0639   79.0907  218.7385 H   0  0  0  0  0  0  0  0  0  0  0  0
  140.0725   77.6694  218.5624 H   0  0  0  0  0  0  0  0  0  0  0  0
  139.5602   78.6659  220.8559 H   0  0  0  0  0  0  0  0  0  0  0  0
  142.5492   78.9502  220.9736 H   0  0  0  0  0  0  0  0  0  0  0  0
  140.8515   77.9035  222.9966 H   0  0  0  0  0  0  0  0  0  0  0  0
  142.6936   78.1204  222.8096 H   0  0  0  0  0  0  0  0  0  0  0  0
  140.8105   79.4601  224.4624 H   0  0  0  0  0  0  0  0  0  0  0  0
  142.6720   79.3887  224.3977 H   0  0  0  0  0  0  0  0  0  0  0  0
  140.8246   81.4731  223.6564 H   0  0  0  0  0  0  0  0  0  0  0  0
  142.6076   81.4531  224.1117 H   0  0  0  0  0  0  0  0  0  0  0  0
  142.1624   82.3547  221.8281 H   0  0  0  0  0  0  0  0  0  0  0  0
  143.2428   80.9710  221.8394 H   0  0  0  0  0  0  0  0  0  0  0  0
  140.1583   80.6816  221.6335 H   0  0  0  0  0  0  0  0  0  0  0  0
  141.1655   80.8065  220.1859 H   0  0  0  0  0  0  0  0  0  0  0  0
  136.0032   73.7107  222.9801 H   0  0  0  0  0  0  0  0  0  0  0  0
  134.4615   72.1674  224.1032 H   0  0  0  0  0  0  0  0  0  0  0  0
  132.7690   71.8275  225.8419 H   0  0  0  0  0  0  0  0  0  0  0  0
  131.6043   75.0945  228.3512 H   0  0  0  0  0  0  0  0  0  0  0  0
  133.1951   76.6100  227.1640 H   0  0  0  0  0  0  0  0  0  0  0  0
  1  2  2  0
  2  3  1  0
  3  4  1  0
  4  5  1  0
  5  6  2  0
  5  7  1  0
  7  8  1  0
  8  9  1  0
  9 10  1  0
 10 11  1  0
 11 12  1  0
 12 13  1  0
 13 14  1  0
 14 15  1  0
 15 16  1  0
 16 17  1  0
  2 18  1  0
 18 19  2  0
 19 20  1  0
 20 21  2  0
 21 22  1  0
 22 23  2  0
 23 24  1  0
 23 25  1  0
 25 26  2  0
 26 27  1  0
 27 28  2  0
 11  7  1  0
 17 12  1  0
 28 18  1  0
 27 21  1  0
  3 29  1  0
  4 30  1  0
  4 31  1  0
  8 32  1  0
  8 33  1  0
  9 34  1  0
  9 35  1  0
 10 36  1  0
 10 37  1  0
 11 38  1  6
 12 39  1  0
 13 40  1  0
 13 41  1  0
 14 42  1  0
 14 43  1  0
 15 44  1  0
 15 45  1  0
 16 46  1  0
 16 47  1  0
 17 48  1  0
 17 49  1  0
 19 50  1  0
 20 51  1  0
 22 52  1  0
 25 53  1  0
 26 54  1  0
M  END
>  <smiles>  (9) 
O=C(NCC(=O)N1CCCC1C1CCCCC1)c1ccc2cc(Cl)ccc2n1

>  <score_type>  (9) 
oracle

>  <origin>  (9) 
autodockgpu

>  <m_score__min__energy>  (9) 
-8.9700000000000006

>  <m_primary>  (9) 
energy

>  <rmsd>  (9) 
5.774791304023973

>  <m_score__min__rmsd>  (9) 
5.774791304023973

>  <meeko>  (9) 
{"free_energy": -7.66, "intermolecular_energy": -9.15, "internal_energy": -1.54, "cluster_size": 2, "cluster_id": 4, "rank_in_cluster": 2}

>  <energy>  (9) 
-8.72

>  <cluster_rmsd>  (9) 
1.23

>  <cluster>  (9) 
1

$$$$

     RDKit          3D

 54 57  0  0  0  0  0  0  0  0999 V2000
  141.8590   73.4200  220.9870 O   0  0  0  0  0  0  0  0  0  0  0  0
  141.0360   74.2080  221.5530 C   0  0  0  0  0  0  0  0  0  0  0  0
  139.9700   73.5830  222.2600 N   0  0  0  0  0  0  0  0  0  0  0  0
  139.9140   72.1520  222.2760 C   0  0  0  0  0  0  0  0  0  0  0  0
  138.5790   71.6190  222.6030 C   0  0  0  0  0  0  0  0  0  0  0  0
  137.5620   71.9040  221.9210 O   0  0  0  0  0  0  0  0  0  0  0  0
  138.4730   70.7570  223.7320 N   0  0  0  0  0  0  0  0  0  0  0  0
  137.2650   70.2640  224.3900 C   0  0  0  0  0  0  0  0  0  0  0  0
  137.6460   68.8690  224.8970 C   0  0  0  0  0  0  0  0  0  0  0  0
  139.1000   68.7170  224.5150 C   0  0  0  0  0  0  0  0  0  0  0  0
  139.5650   70.1540  224.5090 C   0  0  2  0  0  0  0  0  0  0  0  0
  139.5920   70.7450  225.9050 C   0  0  0  0  0  0  0  0  0  0  0  0
  140.5170   71.8910  225.9740 C   0  0  0  0  0  0  0  0  0  0  0  0
  141.4240   71.9860  227.1390 C   0  0  0  0  0  0  0  0  0  0  0  0
  141.2150   71.0460  228.2660 C   0  0  0  0  0  0  0  0  0  0  0  0
  139.8880   70.3300  228.2680 C   0  0  0  0  0  0  0  0  0  0  0  0
  139.8430   69.6440  226.8950 C   0  0  0  0  0  0  0  0  0  0  0  0
  141.1730   75.6540  221.4830 C   0  0  0  0  0  0  0  0  0  0  0  0
  141.7790   76.1920  220.3660 C   0  0  0  0  0  0  0  0  0  0  0  0
  141.9570   77.5290  220.2010 C   0  0  0  0  0  0  0  0  0  0  0  0
  141.5090   78.3730  221.1990 C   0  0  0  0  0  0  0  0  0  0  0  0
  141.6520   79.7430  221.1080 C   0  0  0  0  0  0  0  0  0  0  0  0
  141.2010   80.5730  222.1100 C   0  0  0  0  0  0  0  0  0  0  0  0
  141.4220   82.3010  221.9160 Cl  0  0  0  0  0  0  0  0  0  0  0  0
  140.5970   80.0200  223.2230 C   0  0  0  0  0  0  0  0  0  0  0  0
  140.4350   78.6440  223.3520 C   0  0  0  0  0  0  0  0  0  0  0  0
  140.8950   77.8360  222.3330 C   0  0  0  0  0  0  0  0  0  0  0  0
  140.7440   76.4900  222.4440 N   0  0  0  0  0  0  0  0  0  0  0  0
  139.2500   74.1900  222.7550 H   0  0  0  0  0  0  0  0  0  0  0  0
  140.2028   71.7812  221.2815 H   0  0  0  0  0  0  0  0  0  0  0  0
  140.6007   71.8103  223.0645 H   0  0  0  0  0  0  0  0  0  0  0  0
  136.9839   70.9188  225.2280 H   0  0  0  0  0  0  0  0  0  0  0  0
  136.3993   70.2404  223.7117 H   0  0  0  0  0  0  0  0  0  0  0  0
  137.5208   68.8033  225.9879 H   0  0  0  0  0  0  0  0  0  0  0  0
  137.0136   68.0784  224.4669 H   0  0  0  0  0  0  0  0  0  0  0  0
  139.6498   68.1204  225.2578 H   0  0  0  0  0  0  0  0  0  0  0  0
  139.2594   68.1914  223.5619 H   0  0  0  0  0  0  0  0  0  0  0  0
  140.5827   70.3031  224.1189 H   0  0  0  0  0  0  0  0  0  0  0  0
  138.6176   71.1786  226.1743 H   0  0  0  0  0  0  0  0  0  0  0  0
  141.1461   71.8575  225.0723 H   0  0  0  0  0  0  0  0  0  0  0  0
  139.8594   72.7679  226.0673 H   0  0  0  0  0  0  0  0  0  0  0  0
  142.4481   71.8296  226.7691 H   0  0  0  0  0  0  0  0  0  0  0  0
  141.2153   72.9773  227.5677 H   0  0  0  0  0  0  0  0  0  0  0  0
  142.0107   70.2875  228.2283 H   0  0  0  0  0  0  0  0  0  0  0  0
  141.2331   71.6573  229.1803 H   0  0  0  0  0  0  0  0  0  0  0  0
  139.8437   69.5881  229.0789 H   0  0  0  0  0  0  0  0  0  0  0  0
  139.0379   71.0080  228.4340 H   0  0  0  0  0  0  0  0  0  0  0  0
  140.8007   69.1465  226.6822 H   0  0  0  0  0  0  0  0  0  0  0  0
  139.0631   68.8696  226.8509 H   0  0  0  0  0  0  0  0  0  0  0  0
  142.1322   75.5112  219.5775 H   0  0  0  0  0  0  0  0  0  0  0  0
  142.4438   77.9279  219.2988 H   0  0  0  0  0  0  0  0  0  0  0  0
  142.1341   80.1788  220.2205 H   0  0  0  0  0  0  0  0  0  0  0  0
  140.2365   80.6818  224.0243 H   0  0  0  0  0  0  0  0  0  0  0  0
  139.9535   78.2125  224.2419 H   0  0  0  0  0  0  0  0  0  0  0  0
  1  2  2  0
  2  3  1  0
  3  4  1  0
  4  5  1  0
  5  6  2  0
  5  7  1  0
  7  8  1  0
  8  9  1  0
  9 10  1  0
 10 11  1  0
 11 12  1  0
 12 13  1  0
 13 14  1  0
 14 15  1  0
 15 16  1  0
 16 17  1  0
  2 18  1  0
 18 19  2  0
 19 20  1  0
 20 21  2  0
 21 22  1  0
 22 23  2  0
 23 24  1  0
 23 25  1  0
 25 26  2  0
 26 27  1  0
 27 28  2  0
 11  7  1  0
 17 12  1  0
 28 18  1  0
 27 21  1  0
  3 29  1  0
  4 30  1  0
  4 31  1  0
  8 32  1  0
  8 33  1  0
  9 34  1  0
  9 35  1  0
 10 36  1  0
 10 37  1  0
 11 38  1  6
 12 39  1  0
 13 40  1  0
 13 41  1  0
 14 42  1  0
 14 43  1  0
 15 44  1  0
 15 45  1  0
 16 46  1  0
 16 47  1  0
 17 48  1  0
 17 49  1  0
 19 50  1  0
 20 51  1  0
 22 52  1  0
 25 53  1  0
 26 54  1  0
M  END
>  <smiles>  (10) 
O=C(NCC(=O)N1CCCC1C1CCCCC1)c1ccc2cc(Cl)ccc2n1

>  <score_type>  (10) 
oracle

>  <origin>  (10) 
autodockgpu

>  <m_score__min__energy>  (10) 
-8.9700000000000006

>  <m_primary>  (10) 
energy

>  <rmsd>  (10) 
8.515887642041553

>  <m_score__min__rmsd>  (10) 
8.515887642041553

>  <meeko>  (10) 
{"free_energy": -8.22, "intermolecular_energy": -9.71, "internal_energy": -1.34, "cluster_size": 12, "cluster_id": 2, "rank_in_cluster": 5}

>  <energy>  (10) 
-8.71

>  <cluster_rmsd>  (10) 
0.6

>  <cluster>  (10) 
1

$$$$

     RDKit          3D

 54 57  0  0  0  0  0  0  0  0999 V2000
  139.8840   72.1910  220.8430 O   0  0  0  0  0  0  0  0  0  0  0  0
  139.8050   72.5900  222.0490 C   0  0  0  0  0  0  0  0  0  0  0  0
  139.5920   73.9860  222.2240 N   0  0  0  0  0  0  0  0  0  0  0  0
  139.4870   74.8080  221.0570 C   0  0  0  0  0  0  0  0  0  0  0  0
  138.8880   76.1300  221.3190 C   0  0  0  0  0  0  0  0  0  0  0  0
  137.8520   76.2650  222.0170 O   0  0  0  0  0  0  0  0  0  0  0  0
  139.5280   77.2670  220.7480 N   0  0  0  0  0  0  0  0  0  0  0  0
  140.3760   77.3330  219.5610 C   0  0  0  0  0  0  0  0  0  0  0  0
  140.0970   78.7170  218.9640 C   0  0  0  0  0  0  0  0  0  0  0  0
  139.1240   79.3500  219.9320 C   0  0  0  0  0  0  0  0  0  0  0  0
  139.4850   78.6570  221.2240 C   0  0  2  0  0  0  0  0  0  0  0  0
  140.8550   79.0730  221.7240 C   0  0  0  0  0  0  0  0  0  0  0  0
  141.2570   78.2650  222.8900 C   0  0  0  0  0  0  0  0  0  0  0  0
  141.8720   78.9590  224.0430 C   0  0  0  0  0  0  0  0  0  0  0  0
  142.2350   80.3880  223.8850 C   0  0  0  0  0  0  0  0  0  0  0  0
  142.2690   80.8890  222.4630 C   0  0  0  0  0  0  0  0  0  0  0  0
  140.8680   80.5600  221.9270 C   0  0  0  0  0  0  0  0  0  0  0  0
  139.9240   71.6790  223.1770 C   0  0  0  0  0  0  0  0  0  0  0  0
  139.5170   70.3720  222.9980 C   0  0  0  0  0  0  0  0  0  0  0  0
  139.5860   69.4410  223.9850 C   0  0  0  0  0  0  0  0  0  0  0  0
  140.0850   69.8310  225.2120 C   0  0  0  0  0  0  0  0  0  0  0  0
  140.1880   68.9460  226.2670 C   0  0  0  0  0  0  0  0  0  0  0  0
  140.6880   69.3470  227.4860 C   0  0  0  0  0  0  0  0  0  0  0  0
  140.7840   68.1610  228.7720 Cl  0  0  0  0  0  0  0  0  0  0  0  0
  141.0920   70.6580  227.6510 C   0  0  0  0  0  0  0  0  0  0  0  0
  141.0040   71.5800  226.6120 C   0  0  0  0  0  0  0  0  0  0  0  0
  140.4990   71.1510  225.4020 C   0  0  0  0  0  0  0  0  0  0  0  0
  140.4080   72.0400  224.3780 N   0  0  0  0  0  0  0  0  0  0  0  0
  139.5170   74.3800  223.2100 H   0  0  0  0  0  0  0  0  0  0  0  0
  140.4960   74.9586  220.6456 H   0  0  0  0  0  0  0  0  0  0  0  0
  138.8222   74.2860  220.3530 H   0  0  0  0  0  0  0  0  0  0  0  0
  141.4367   77.2349  219.8354 H   0  0  0  0  0  0  0  0  0  0  0  0
  140.1631   76.5210  218.8501 H   0  0  0  0  0  0  0  0  0  0  0  0
  141.0227   79.3077  218.8993 H   0  0  0  0  0  0  0  0  0  0  0  0
  139.6969   78.6613  217.9409 H   0  0  0  0  0  0  0  0  0  0  0  0
  139.2784   80.4368  220.0029 H   0  0  0  0  0  0  0  0  0  0  0  0
  138.0686   79.2363  219.6435 H   0  0  0  0  0  0  0  0  0  0  0  0
  138.8022   78.8661  222.0607 H   0  0  0  0  0  0  0  0  0  0  0  0
  141.6343   78.8619  220.9769 H   0  0  0  0  0  0  0  0  0  0  0  0
  140.3554   77.7546  223.2596 H   0  0  0  0  0  0  0  0  0  0  0  0
  142.0555   77.6124  222.5071 H   0  0  0  0  0  0  0  0  0  0  0  0
  141.1621   78.8929  224.8807 H   0  0  0  0  0  0  0  0  0  0  0  0
  142.8343   78.4466  224.1895 H   0  0  0  0  0  0  0  0  0  0  0  0
  141.4997   80.9891  224.4400 H   0  0  0  0  0  0  0  0  0  0  0  0
  143.2617   80.4860  224.2675 H   0  0  0  0  0  0  0  0  0  0  0  0
  142.4557   81.9726  222.4333 H   0  0  0  0  0  0  0  0  0  0  0  0
  143.0717   80.4288  221.8682 H   0  0  0  0  0  0  0  0  0  0  0  0
  140.0986   80.8552  222.6556 H   0  0  0  0  0  0  0  0  0  0  0  0
  140.6506   81.1010  220.9942 H   0  0  0  0  0  0  0  0  0  0  0  0
  139.1208   70.0723  222.0166 H   0  0  0  0  0  0  0  0  0  0  0  0
  139.2540   68.4067  223.8117 H   0  0  0  0  0  0  0  0  0  0  0  0
  139.8653   67.9032  226.1315 H   0  0  0  0  0  0  0  0  0  0  0  0
  141.4916   70.9798  228.6240 H   0  0  0  0  0  0  0  0  0  0  0  0
  141.3281   72.6218  226.7518 H   0  0  0  0  0  0  0  0  0  0  0  0
  1  2  2  0
  2  3  1  0
  3  4  1  0
  4  5  1  0
  5  6  2  0
  5  7  1  0
  7  8  1  0
  8  9  1  0
  9 10  1  0
 10 11  1  0
 11 12  1  0
 12 13  1  0
 13 14  1  0
 14 15  1  0
 15 16  1  0
 16 17  1  0
  2 18  1  0
 18 19  2  0
 19 20  1  0
 20 21  2  0
 21 22  1  0
 22 23  2  0
 23 24  1  0
 23 25  1  0
 25 26  2  0
 26 27  1  0
 27 28  2  0
 11  7  1  0
 17 12  1  0
 28 18  1  0
 27 21  1  0
  3 29  1  0
  4 30  1  0
  4 31  1  0
  8 32  1  0
  8 33  1  0
  9 34  1  0
  9 35  1  0
 10 36  1  0
 10 37  1  0
 11 38  1  1
 12 39  1  0
 13 40  1  0
 13 41  1  0
 14 42  1  0
 14 43  1  0
 15 44  1  0
 15 45  1  0
 16 46  1  0
 16 47  1  0
 17 48  1  0
 17 49  1  0
 19 50  1  0
 20 51  1  0
 22 52  1  0
 25 53  1  0
 26 54  1  0
M  END
>  <smiles>  (11) 
O=C(NCC(=O)N1CCCC1C1CCCCC1)c1ccc2cc(Cl)ccc2n1

>  <score_type>  (11) 
oracle

>  <origin>  (11) 
autodockgpu

>  <m_score__min__energy>  (11) 
-8.9700000000000006

>  <m_primary>  (11) 
energy

>  <rmsd>  (11) 
2.218881841729464

>  <m_score__min__rmsd>  (11) 
2.218881841729464

>  <meeko>  (11) 
{"free_energy": -8.18, "intermolecular_energy": -9.67, "internal_energy": -1.43, "cluster_size": 32, "cluster_id": 1, "rank_in_cluster": 27}

>  <energy>  (11) 
-8.71

>  <cluster_rmsd>  (11) 
0.52

>  <cluster>  (11) 
1

$$$$

     RDKit          3D

 54 57  0  0  0  0  0  0  0  0999 V2000
  141.8290   73.1210  220.5040 O   0  0  0  0  0  0  0  0  0  0  0  0
  141.2250   73.8700  221.3360 C   0  0  0  0  0  0  0  0  0  0  0  0
  140.4260   73.1990  222.3040 N   0  0  0  0  0  0  0  0  0  0  0  0
  140.3700   71.7690  222.2630 C   0  0  0  0  0  0  0  0  0  0  0  0
  139.0090   71.2280  222.4340 C   0  0  0  0  0  0  0  0  0  0  0  0
  138.1200   71.3670  221.5550 O   0  0  0  0  0  0  0  0  0  0  0  0
  138.7250   70.5320  223.6430 N   0  0  0  0  0  0  0  0  0  0  0  0
  137.4250   70.2530  224.2490 C   0  0  0  0  0  0  0  0  0  0  0  0
  137.6090   68.9010  224.9490 C   0  0  0  0  0  0  0  0  0  0  0  0
  139.0600   68.5540  224.7130 C   0  0  0  0  0  0  0  0  0  0  0  0
  139.6830   69.9230  224.5780 C   0  0  2  0  0  0  0  0  0  0  0  0
  139.6750   70.6800  225.8910 C   0  0  0  0  0  0  0  0  0  0  0  0
  140.5710   71.8500  225.8300 C   0  0  0  0  0  0  0  0  0  0  0  0
  141.4580   72.1100  226.9850 C   0  0  0  0  0  0  0  0  0  0  0  0
  141.2550   71.3090  228.2160 C   0  0  0  0  0  0  0  0  0  0  0  0
  139.9460   70.5650  228.2900 C   0  0  0  0  0  0  0  0  0  0  0  0
  139.9380   69.7160  227.0110 C   0  0  0  0  0  0  0  0  0  0  0  0
  141.3420   75.3200  221.3010 C   0  0  0  0  0  0  0  0  0  0  0  0
  142.0500   75.8860  220.2610 C   0  0  0  0  0  0  0  0  0  0  0  0
  142.2180   77.2290  220.1350 C   0  0  0  0  0  0  0  0  0  0  0  0
  141.6540   78.0480  221.0930 C   0  0  0  0  0  0  0  0  0  0  0  0
  141.7800   79.4220  221.0370 C   0  0  0  0  0  0  0  0  0  0  0  0
  141.2130   80.2280  221.9990 C   0  0  0  0  0  0  0  0  0  0  0  0
  141.4200   81.9620  221.8550 Cl  0  0  0  0  0  0  0  0  0  0  0  0
  140.5070   79.6470  223.0350 C   0  0  0  0  0  0  0  0  0  0  0  0
  140.3580   78.2650  223.1270 C   0  0  0  0  0  0  0  0  0  0  0  0
  140.9370   77.4830  222.1500 C   0  0  0  0  0  0  0  0  0  0  0  0
  140.7990   76.1320  222.2250 N   0  0  0  0  0  0  0  0  0  0  0  0
  139.8960   73.7720  223.0270 H   0  0  0  0  0  0  0  0  0  0  0  0
  140.7583   71.4332  221.2902 H   0  0  0  0  0  0  0  0  0  0  0  0
  140.9736   71.3976  223.1042 H   0  0  0  0  0  0  0  0  0  0  0  0
  137.1595   71.0343  224.9763 H   0  0  0  0  0  0  0  0  0  0  0  0
  136.6136   70.2323  223.5066 H   0  0  0  0  0  0  0  0  0  0  0  0
  137.3989   68.9875  226.0253 H   0  0  0  0  0  0  0  0  0  0  0  0
  136.9243   68.1311  224.5636 H   0  0  0  0  0  0  0  0  0  0  0  0
  139.4843   68.0024  225.5649 H   0  0  0  0  0  0  0  0  0  0  0  0
  139.2275   67.8992  223.8452 H   0  0  0  0  0  0  0  0  0  0  0  0
  140.7368   69.9161  224.2627 H   0  0  0  0  0  0  0  0  0  0  0  0
  138.6862   71.1173  226.0936 H   0  0  0  0  0  0  0  0  0  0  0  0
  141.2140   71.7231  224.9466 H   0  0  0  0  0  0  0  0  0  0  0  0
  139.8909   72.7143  225.8076 H   0  0  0  0  0  0  0  0  0  0  0  0
  142.4910   71.9364  226.6491 H   0  0  0  0  0  0  0  0  0  0  0  0
  141.2191   73.1405  227.2867 H   0  0  0  0  0  0  0  0  0  0  0  0
  142.0692   70.5721  228.2805 H   0  0  0  0  0  0  0  0  0  0  0  0
  141.2449   72.0273  229.0490 H   0  0  0  0  0  0  0  0  0  0  0  0
  139.9076   69.9266  229.1850 H   0  0  0  0  0  0  0  0  0  0  0  0
  139.0774   71.2361  228.3620 H   0  0  0  0  0  0  0  0  0  0  0  0
  140.9106   69.2213  226.8719 H   0  0  0  0  0  0  0  0  0  0  0  0
  139.1777   68.9222  227.0530 H   0  0  0  0  0  0  0  0  0  0  0  0
  142.4962   75.2244  219.5039 H   0  0  0  0  0  0  0  0  0  0  0  0
  142.7871   77.6514  219.2937 H   0  0  0  0  0  0  0  0  0  0  0  0
  142.3426   79.8803  220.2103 H   0  0  0  0  0  0  0  0  0  0  0  0
  140.0529   80.2896  223.8037 H   0  0  0  0  0  0  0  0  0  0  0  0
  139.7946   77.8106  223.9553 H   0  0  0  0  0  0  0  0  0  0  0  0
  1  2  2  0
  2  3  1  0
  3  4  1  0
  4  5  1  0
  5  6  2  0
  5  7  1  0
  7  8  1  0
  8  9  1  0
  9 10  1  0
 10 11  1  0
 11 12  1  0
 12 13  1  0
 13 14  1  0
 14 15  1  0
 15 16  1  0
 16 17  1  0
  2 18  1  0
 18 19  2  0
 19 20  1  0
 20 21  2  0
 21 22  1  0
 22 23  2  0
 23 24  1  0
 23 25  1  0
 25 26  2  0
 26 27  1  0
 27 28  2  0
 11  7  1  0
 17 12  1  0
 28 18  1  0
 27 21  1  0
  3 29  1  0
  4 30  1  0
  4 31  1  0
  8 32  1  0
  8 33  1  0
  9 34  1  0
  9 35  1  0
 10 36  1  0
 10 37  1  0
 11 38  1  6
 12 39  1  0
 13 40  1  0
 13 41  1  0
 14 42  1  0
 14 43  1  0
 15 44  1  0
 15 45  1  0
 16 46  1  0
 16 47  1  0
 17 48  1  0
 17 49  1  0
 19 50  1  0
 20 51  1  0
 22 52  1  0
 25 53  1  0
 26 54  1  0
M  END
>  <smiles>  (12) 
O=C(NCC(=O)N1CCCC1C1CCCCC1)c1ccc2cc(Cl)ccc2n1

>  <score_type>  (12) 
oracle

>  <origin>  (12) 
autodockgpu

>  <m_score__min__energy>  (12) 
-8.9700000000000006

>  <m_primary>  (12) 
energy

>  <rmsd>  (12) 
8.475829024836466

>  <m_score__min__rmsd>  (12) 
8.475829024836466

>  <meeko>  (12) 
{"free_energy": -8.15, "intermolecular_energy": -9.64, "internal_energy": -1.46, "cluster_size": 12, "cluster_id": 2, "rank_in_cluster": 7}

>  <energy>  (12) 
-8.71

>  <cluster_rmsd>  (12) 
0.66

>  <cluster>  (12) 
1

$$$$

     RDKit          3D

 54 57  0  0  0  0  0  0  0  0999 V2000
  140.8860   74.3620  221.4900 O   0  0  0  0  0  0  0  0  0  0  0  0
  139.7750   74.7340  221.9860 C   0  0  0  0  0  0  0  0  0  0  0  0
  138.8380   73.6970  222.2520 N   0  0  0  0  0  0  0  0  0  0  0  0
  139.2140   72.3490  221.9450 C   0  0  0  0  0  0  0  0  0  0  0  0
  139.8710   71.6510  223.0660 C   0  0  0  0  0  0  0  0  0  0  0  0
  141.0720   71.8600  223.3690 O   0  0  0  0  0  0  0  0  0  0  0  0
  139.0910   70.7180  223.8070 N   0  0  0  0  0  0  0  0  0  0  0  0
  137.6700   70.7820  224.1410 C   0  0  0  0  0  0  0  0  0  0  0  0
  137.2130   69.3190  224.1590 C   0  0  0  0  0  0  0  0  0  0  0  0
  138.4720   68.5320  223.8790 C   0  0  0  0  0  0  0  0  0  0  0  0
  139.5360   69.4570  224.4180 C   0  0  2  0  0  0  0  0  0  0  0  0
  139.4770   69.5670  225.9290 C   0  0  0  0  0  0  0  0  0  0  0  0
  140.0910   70.8260  226.3900 C   0  0  0  0  0  0  0  0  0  0  0  0
  140.9970   70.7740  227.5590 C   0  0  0  0  0  0  0  0  0  0  0  0
  141.0770   69.5070  228.3240 C   0  0  0  0  0  0  0  0  0  0  0  0
  139.9710   68.5190  228.0510 C   0  0  0  0  0  0  0  0  0  0  0  0
  140.0360   68.3110  226.5310 C   0  0  0  0  0  0  0  0  0  0  0  0
  139.4810   76.1310  222.2660 C   0  0  0  0  0  0  0  0  0  0  0  0
  140.5390   77.0140  222.3310 C   0  0  0  0  0  0  0  0  0  0  0  0
  140.3740   78.3390  222.5860 C   0  0  0  0  0  0  0  0  0  0  0  0
  139.0900   78.8080  222.7850 C   0  0  0  0  0  0  0  0  0  0  0  0
  138.8370   80.1390  223.0490 C   0  0  0  0  0  0  0  0  0  0  0  0
  137.5530   80.5940  223.2450 C   0  0  0  0  0  0  0  0  0  0  0  0
  137.3190   82.2990  223.5750 Cl  0  0  0  0  0  0  0  0  0  0  0  0
  136.5020   79.6980  223.1770 C   0  0  0  0  0  0  0  0  0  0  0  0
  136.7160   78.3480  222.9130 C   0  0  0  0  0  0  0  0  0  0  0  0
  138.0130   77.9210  222.7210 C   0  0  0  0  0  0  0  0  0  0  0  0
  138.2380   76.6050  222.4620 N   0  0  0  0  0  0  0  0  0  0  0  0
  137.8920   73.9460  222.6680 H   0  0  0  0  0  0  0  0  0  0  0  0
  138.3081   71.7892  221.6694 H   0  0  0  0  0  0  0  0  0  0  0  0
  139.9424   72.3960  221.1220 H   0  0  0  0  0  0  0  0  0  0  0  0
  137.5230   71.2473  225.1269 H   0  0  0  0  0  0  0  0  0  0  0  0
  137.0989   71.3895  223.4235 H   0  0  0  0  0  0  0  0  0  0  0  0
  136.7972   69.0525  225.1419 H   0  0  0  0  0  0  0  0  0  0  0  0
  136.4189   69.1173  223.4250 H   0  0  0  0  0  0  0  0  0  0  0  0
  138.4701   67.5694  224.4113 H   0  0  0  0  0  0  0  0  0  0  0  0
  138.6062   68.2652  222.8203 H   0  0  0  0  0  0  0  0  0  0  0  0
  140.5672   69.1442  224.1973 H   0  0  0  0  0  0  0  0  0  0  0  0
  138.4382   69.6369  226.2840 H   0  0  0  0  0  0  0  0  0  0  0  0
  140.6682   71.2352  225.5477 H   0  0  0  0  0  0  0  0  0  0  0  0
  139.2410   71.4358  226.7302 H   0  0  0  0  0  0  0  0  0  0  0  0
  142.0105   71.0017  227.1972 H   0  0  0  0  0  0  0  0  0  0  0  0
  140.5688   71.4963  228.2696 H   0  0  0  0  0  0  0  0  0  0  0  0
  142.0338   69.0223  228.0798 H   0  0  0  0  0  0  0  0  0  0  0  0
  140.9820   69.7850  229.3841 H   0  0  0  0  0  0  0  0  0  0  0  0
  140.1491   67.5735  228.5843 H   0  0  0  0  0  0  0  0  0  0  0  0
  138.9874   68.8754  228.3909 H   0  0  0  0  0  0  0  0  0  0  0  0
  141.0766   68.1602  226.2080 H   0  0  0  0  0  0  0  0  0  0  0  0
  139.4703   67.4215  226.2167 H   0  0  0  0  0  0  0  0  0  0  0  0
  141.5573   76.6304  222.1699 H   0  0  0  0  0  0  0  0  0  0  0  0
  141.2380   79.0182  222.6325 H   0  0  0  0  0  0  0  0  0  0  0  0
  139.6761   80.8482  223.1037 H   0  0  0  0  0  0  0  0  0  0  0  0
  135.4752   80.0596  223.3348 H   0  0  0  0  0  0  0  0  0  0  0  0
  135.8743   77.6419  222.8591 H   0  0  0  0  0  0  0  0  0  0  0  0
  1  2  2  0
  2  3  1  0
  3  4  1  0
  4  5  1  0
  5  6  2  0
  5  7  1  0
  7  8  1  0
  8  9  1  0
  9 10  1  0
 10 11  1  0
 11 12  1  0
 12 13  1  0
 13 14  1  0
 14 15  1  0
 15 16  1  0
 16 17  1  0
  2 18  1  0
 18 19  2  0
 19 20  1  0
 20 21  2  0
 21 22  1  0
 22 23  2  0
 23 24  1  0
 23 25  1  0
 25 26  2  0
 26 27  1  0
 27 28  2  0
 11  7  1  0
 17 12  1  0
 28 18  1  0
 27 21  1  0
  3 29  1  0
  4 30  1  0
  4 31  1  0
  8 32  1  0
  8 33  1  0
  9 34  1  0
  9 35  1  0
 10 36  1  0
 10 37  1  0
 11 38  1  1
 12 39  1  0
 13 40  1  0
 13 41  1  0
 14 42  1  0
 14 43  1  0
 15 44  1  0
 15 45  1  0
 16 46  1  0
 16 47  1  0
 17 48  1  0
 17 49  1  0
 19 50  1  0
 20 51  1  0
 22 52  1  0
 25 53  1  0
 26 54  1  0
M  END
>  <smiles>  (13) 
O=C(NCC(=O)N1CCCC1C1CCCCC1)c1ccc2cc(Cl)ccc2n1

>  <score_type>  (13) 
oracle

>  <origin>  (13) 
autodockgpu

>  <m_score__min__energy>  (13) 
-8.9700000000000006

>  <m_primary>  (13) 
energy

>  <rmsd>  (13) 
8.51404429176264

>  <m_score__min__rmsd>  (13) 
8.51404429176264

>  <meeko>  (13) 
{"free_energy": -7.88, "intermolecular_energy": -9.37, "internal_energy": -1.41, "cluster_size": 12, "cluster_id": 2, "rank_in_cluster": 10}

>  <energy>  (13) 
-8.68

>  <cluster_rmsd>  (13) 
1.22

>  <cluster>  (13) 
1

$$$$

     RDKit          3D

 54 57  0  0  0  0  0  0  0  0999 V2000
  141.0280   72.8200  221.4180 O   0  0  0  0  0  0  0  0  0  0  0  0
  140.1330   72.7900  222.3230 C   0  0  0  0  0  0  0  0  0  0  0  0
  139.0840   73.7410  222.1860 N   0  0  0  0  0  0  0  0  0  0  0  0
  139.1210   74.6350  221.0680 C   0  0  0  0  0  0  0  0  0  0  0  0
  140.0670   75.7530  221.2380 C   0  0  0  0  0  0  0  0  0  0  0  0
  141.3120   75.5800  221.2290 O   0  0  0  0  0  0  0  0  0  0  0  0
  139.5200   77.0560  221.4160 N   0  0  0  0  0  0  0  0  0  0  0  0
  138.7860   77.8740  220.4540 C   0  0  0  0  0  0  0  0  0  0  0  0
  137.7940   78.6720  221.3070 C   0  0  0  0  0  0  0  0  0  0  0  0
  138.1060   78.2600  222.7260 C   0  0  0  0  0  0  0  0  0  0  0  0
  139.5670   77.8940  222.6230 C   0  0  2  0  0  0  0  0  0  0  0  0
  140.4380   79.1100  222.3730 C   0  0  0  0  0  0  0  0  0  0  0  0
  141.8330   78.7130  222.1080 C   0  0  0  0  0  0  0  0  0  0  0  0
  142.9140   79.4790  222.7680 C   0  0  0  0  0  0  0  0  0  0  0  0
  142.5490   80.7210  223.4900 C   0  0  0  0  0  0  0  0  0  0  0  0
  141.1770   81.2650  223.1810 C   0  0  0  0  0  0  0  0  0  0  0  0
  140.2410   80.0890  223.4940 C   0  0  0  0  0  0  0  0  0  0  0  0
  140.1790   71.8430  223.4260 C   0  0  0  0  0  0  0  0  0  0  0  0
  139.7430   70.5540  223.1910 C   0  0  0  0  0  0  0  0  0  0  0  0
  139.7440   69.5930  224.1520 C   0  0  0  0  0  0  0  0  0  0  0  0
  140.2010   69.9330  225.4100 C   0  0  0  0  0  0  0  0  0  0  0  0
  140.2340   69.0140  226.4410 C   0  0  0  0  0  0  0  0  0  0  0  0
  140.6930   69.3650  227.6910 C   0  0  0  0  0  0  0  0  0  0  0  0
  140.7010   68.1400  228.9440 Cl  0  0  0  0  0  0  0  0  0  0  0  0
  141.1260   70.6590  227.9130 C   0  0  0  0  0  0  0  0  0  0  0  0
  141.1080   71.6130  226.8990 C   0  0  0  0  0  0  0  0  0  0  0  0
  140.6440   71.2340  225.6570 C   0  0  0  0  0  0  0  0  0  0  0  0
  140.6210   72.1550  224.6570 N   0  0  0  0  0  0  0  0  0  0  0  0
  138.3060   73.7640  222.9120 H   0  0  0  0  0  0  0  0  0  0  0  0
  139.4147   74.0635  220.1752 H   0  0  0  0  0  0  0  0  0  0  0  0
  138.1168   75.0736  220.9720 H   0  0  0  0  0  0  0  0  0  0  0  0
  139.4684   78.5494  219.9172 H   0  0  0  0  0  0  0  0  0  0  0  0
  138.2838   77.2672  219.6861 H   0  0  0  0  0  0  0  0  0  0  0  0
  137.9463   79.7531  221.1727 H   0  0  0  0  0  0  0  0  0  0  0  0
  136.7478   78.4725  221.0319 H   0  0  0  0  0  0  0  0  0  0  0  0
  137.9493   79.0916  223.4288 H   0  0  0  0  0  0  0  0  0  0  0  0
  137.4678   77.4489  223.1065 H   0  0  0  0  0  0  0  0  0  0  0  0
  139.9859   77.4270  223.5266 H   0  0  0  0  0  0  0  0  0  0  0  0
  140.1362   79.6356  221.4550 H   0  0  0  0  0  0  0  0  0  0  0  0
  141.9388   77.6636  222.4205 H   0  0  0  0  0  0  0  0  0  0  0  0
  141.9741   78.9102  221.0351 H   0  0  0  0  0  0  0  0  0  0  0  0
  143.3932   78.8072  223.4954 H   0  0  0  0  0  0  0  0  0  0  0  0
  143.5518   79.8213  221.9398 H   0  0  0  0  0  0  0  0  0  0  0  0
  142.5975   80.5138  224.5692 H   0  0  0  0  0  0  0  0  0  0  0  0
  143.2632   81.4883  223.1567 H   0  0  0  0  0  0  0  0  0  0  0  0
  140.9456   82.1311  223.8185 H   0  0  0  0  0  0  0  0  0  0  0  0
  141.0828   81.6210  222.1445 H   0  0  0  0  0  0  0  0  0  0  0  0
  140.5093   79.6299  224.4569 H   0  0  0  0  0  0  0  0  0  0  0  0
  139.1926   80.4121  223.5740 H   0  0  0  0  0  0  0  0  0  0  0  0
  139.3802   70.2946  222.1855 H   0  0  0  0  0  0  0  0  0  0  0  0
  139.3911   68.5742  223.9341 H   0  0  0  0  0  0  0  0  0  0  0  0
  139.8881   67.9855  226.2605 H   0  0  0  0  0  0  0  0  0  0  0  0
  141.4923   70.9407  228.9112 H   0  0  0  0  0  0  0  0  0  0  0  0
  141.4543   72.6406  227.0836 H   0  0  0  0  0  0  0  0  0  0  0  0
  1  2  2  0
  2  3  1  0
  3  4  1  0
  4  5  1  0
  5  6  2  0
  5  7  1  0
  7  8  1  0
  8  9  1  0
  9 10  1  0
 10 11  1  0
 11 12  1  0
 12 13  1  0
 13 14  1  0
 14 15  1  0
 15 16  1  0
 16 17  1  0
  2 18  1  0
 18 19  2  0
 19 20  1  0
 20 21  2  0
 21 22  1  0
 22 23  2  0
 23 24  1  0
 23 25  1  0
 25 26  2  0
 26 27  1  0
 27 28  2  0
 11  7  1  0
 17 12  1  0
 28 18  1  0
 27 21  1  0
  3 29  1  0
  4 30  1  0
  4 31  1  0
  8 32  1  0
  8 33  1  0
  9 34  1  0
  9 35  1  0
 10 36  1  0
 10 37  1  0
 11 38  1  1
 12 39  1  0
 13 40  1  0
 13 41  1  0
 14 42  1  0
 14 43  1  0
 15 44  1  0
 15 45  1  0
 16 46  1  0
 16 47  1  0
 17 48  1  0
 17 49  1  0
 19 50  1  0
 20 51  1  0
 22 52  1  0
 25 53  1  0
 26 54  1  0
M  END
>  <smiles>  (14) 
O=C(NCC(=O)N1CCCC1C1CCCCC1)c1ccc2cc(Cl)ccc2n1

>  <score_type>  (14) 
oracle

>  <origin>  (14) 
autodockgpu

>  <m_score__min__energy>  (14) 
-8.9700000000000006

>  <m_primary>  (14) 
energy

>  <rmsd>  (14) 
2.813218704363076

>  <m_score__min__rmsd>  (14) 
2.813218704363076

>  <meeko>  (14) 
{"free_energy": -8.68, "intermolecular_energy": -10.17, "internal_energy": -1.26, "cluster_size": 32, "cluster_id": 1, "rank_in_cluster": 13}

>  <energy>  (14) 
-8.66

>  <cluster_rmsd>  (14) 
1.25

>  <cluster>  (14) 
1

$$$$

     RDKit          3D

 54 57  0  0  0  0  0  0  0  0999 V2000
  140.2460   72.5200  220.8440 O   0  0  0  0  0  0  0  0  0  0  0  0
  139.7580   72.7750  221.9910 C   0  0  0  0  0  0  0  0  0  0  0  0
  139.0710   74.0150  222.1080 N   0  0  0  0  0  0  0  0  0  0  0  0
  138.9880   74.8560  220.9520 C   0  0  0  0  0  0  0  0  0  0  0  0
  139.9610   75.9650  220.9590 C   0  0  0  0  0  0  0  0  0  0  0  0
  141.1790   75.7840  220.7110 O   0  0  0  0  0  0  0  0  0  0  0  0
  139.4710   77.2670  221.2600 N   0  0  0  0  0  0  0  0  0  0  0  0
  138.7890   78.2100  220.3770 C   0  0  0  0  0  0  0  0  0  0  0  0
  137.8210   78.9660  221.2940 C   0  0  0  0  0  0  0  0  0  0  0  0
  138.0930   78.4010  222.6690 C   0  0  0  0  0  0  0  0  0  0  0  0
  139.5380   77.9790  222.5450 C   0  0  2  0  0  0  0  0  0  0  0  0
  140.4660   79.1720  222.4260 C   0  0  0  0  0  0  0  0  0  0  0  0
  141.8590   78.7360  222.2200 C   0  0  0  0  0  0  0  0  0  0  0  0
  142.9250   79.4150  222.9910 C   0  0  0  0  0  0  0  0  0  0  0  0
  142.5620   80.6230  223.7690 C   0  0  0  0  0  0  0  0  0  0  0  0
  141.2330   81.2410  223.4140 C   0  0  0  0  0  0  0  0  0  0  0  0
  140.2360   80.0870  223.5940 C   0  0  0  0  0  0  0  0  0  0  0  0
  139.8910   71.8560  223.1110 C   0  0  0  0  0  0  0  0  0  0  0  0
  139.4970   70.5470  222.9250 C   0  0  0  0  0  0  0  0  0  0  0  0
  139.5800   69.6100  223.9060 C   0  0  0  0  0  0  0  0  0  0  0  0
  140.0820   69.9960  225.1330 C   0  0  0  0  0  0  0  0  0  0  0  0
  140.1990   69.1040  226.1810 C   0  0  0  0  0  0  0  0  0  0  0  0
  140.7010   69.5020  227.4000 C   0  0  0  0  0  0  0  0  0  0  0  0
  140.8160   68.3080  228.6770 Cl  0  0  0  0  0  0  0  0  0  0  0  0
  141.0920   70.8160  227.5720 C   0  0  0  0  0  0  0  0  0  0  0  0
  140.9900   71.7450  226.5400 C   0  0  0  0  0  0  0  0  0  0  0  0
  140.4830   71.3190  225.3300 C   0  0  0  0  0  0  0  0  0  0  0  0
  140.3780   72.2140  224.3120 N   0  0  0  0  0  0  0  0  0  0  0  0
  138.6390   74.2830  223.0430 H   0  0  0  0  0  0  0  0  0  0  0  0
  139.1695   74.2394  220.0593 H   0  0  0  0  0  0  0  0  0  0  0  0
  137.9845   75.3065  220.9514 H   0  0  0  0  0  0  0  0  0  0  0  0
  139.5095   78.9025  219.9173 H   0  0  0  0  0  0  0  0  0  0  0  0
  138.2710   77.7058  219.5479 H   0  0  0  0  0  0  0  0  0  0  0  0
  138.0244   80.0468  221.2694 H   0  0  0  0  0  0  0  0  0  0  0  0
  136.7711   78.8444  220.9893 H   0  0  0  0  0  0  0  0  0  0  0  0
  137.9638   79.1653  223.4495 H   0  0  0  0  0  0  0  0  0  0  0  0
  137.4130   77.5869  222.9603 H   0  0  0  0  0  0  0  0  0  0  0  0
  139.9221   77.4059  223.4017 H   0  0  0  0  0  0  0  0  0  0  0  0
  140.2407   79.7653  221.5275 H   0  0  0  0  0  0  0  0  0  0  0  0
  141.9064   77.6659  222.4703 H   0  0  0  0  0  0  0  0  0  0  0  0
  142.0735   78.9937  221.1723 H   0  0  0  0  0  0  0  0  0  0  0  0
  143.3337   78.6802  223.7003 H   0  0  0  0  0  0  0  0  0  0  0  0
  143.6247   79.7823  222.2258 H   0  0  0  0  0  0  0  0  0  0  0  0
  142.5352   80.3467  224.8334 H   0  0  0  0  0  0  0  0  0  0  0  0
  143.3237   81.3798  223.5301 H   0  0  0  0  0  0  0  0  0  0  0  0
  140.9946   82.0746  224.0909 H   0  0  0  0  0  0  0  0  0  0  0  0
  141.2169   81.6641  222.3988 H   0  0  0  0  0  0  0  0  0  0  0  0
  140.4265   79.5584  224.5397 H   0  0  0  0  0  0  0  0  0  0  0  0
  139.1974   80.4473  223.6317 H   0  0  0  0  0  0  0  0  0  0  0  0
  139.0997   70.2497  221.9433 H   0  0  0  0  0  0  0  0  0  0  0  0
  139.2565   68.5739  223.7276 H   0  0  0  0  0  0  0  0  0  0  0  0
  139.8862   68.0589  226.0397 H   0  0  0  0  0  0  0  0  0  0  0  0
  141.4926   71.1351  228.5455 H   0  0  0  0  0  0  0  0  0  0  0  0
  141.3048   72.7889  226.6854 H   0  0  0  0  0  0  0  0  0  0  0  0
  1  2  2  0
  2  3  1  0
  3  4  1  0
  4  5  1  0
  5  6  2  0
  5  7  1  0
  7  8  1  0
  8  9  1  0
  9 10  1  0
 10 11  1  0
 11 12  1  0
 12 13  1  0
 13 14  1  0
 14 15  1  0
 15 16  1  0
 16 17  1  0
  2 18  1  0
 18 19  2  0
 19 20  1  0
 20 21  2  0
 21 22  1  0
 22 23  2  0
 23 24  1  0
 23 25  1  0
 25 26  2  0
 26 27  1  0
 27 28  2  0
 11  7  1  0
 17 12  1  0
 28 18  1  0
 27 21  1  0
  3 29  1  0
  4 30  1  0
  4 31  1  0
  8 32  1  0
  8 33  1  0
  9 34  1  0
  9 35  1  0
 10 36  1  0
 10 37  1  0
 11 38  1  1
 12 39  1  0
 13 40  1  0
 13 41  1  0
 14 42  1  0
 14 43  1  0
 15 44  1  0
 15 45  1  0
 16 46  1  0
 16 47  1  0
 17 48  1  0
 17 49  1  0
 19 50  1  0
 20 51  1  0
 22 52  1  0
 25 53  1  0
 26 54  1  0
M  END
>  <smiles>  (15) 
O=C(NCC(=O)N1CCCC1C1CCCCC1)c1ccc2cc(Cl)ccc2n1

>  <score_type>  (15) 
oracle

>  <origin>  (15) 
autodockgpu

>  <m_score__min__energy>  (15) 
-8.9700000000000006

>  <m_primary>  (15) 
energy

>  <rmsd>  (15) 
2.855123235253388

>  <m_score__min__rmsd>  (15) 
2.855123235253388

>  <meeko>  (15) 
{"free_energy": -8.56, "intermolecular_energy": -10.05, "internal_energy": -1.31, "cluster_size": 32, "cluster_id": 1, "rank_in_cluster": 19}

>  <energy>  (15) 
-8.63

>  <cluster_rmsd>  (15) 
1.29

>  <cluster>  (15) 
1

$$$$

     RDKit          3D

 54 57  0  0  0  0  0  0  0  0999 V2000
  140.4950   72.2940  220.6910 O   0  0  0  0  0  0  0  0  0  0  0  0
  140.0080   72.6780  221.8020 C   0  0  0  0  0  0  0  0  0  0  0  0
  139.4840   74.0010  221.8220 N   0  0  0  0  0  0  0  0  0  0  0  0
  139.5460   74.7730  220.6180 C   0  0  0  0  0  0  0  0  0  0  0  0
  139.4590   76.2270  220.8460 C   0  0  0  0  0  0  0  0  0  0  0  0
  138.4290   76.7670  221.3230 O   0  0  0  0  0  0  0  0  0  0  0  0
  140.5950   77.0160  220.5050 N   0  0  0  0  0  0  0  0  0  0  0  0
  141.8730   76.5780  219.9480 C   0  0  0  0  0  0  0  0  0  0  0  0
  142.3250   77.7420  219.0600 C   0  0  0  0  0  0  0  0  0  0  0  0
  141.2530   78.7910  219.2460 C   0  0  0  0  0  0  0  0  0  0  0  0
  140.7520   78.4720  220.6350 C   0  0  2  0  0  0  0  0  0  0  0  0
  141.7890   78.7860  221.6950 C   0  0  0  0  0  0  0  0  0  0  0  0
  141.3640   78.2810  223.0130 C   0  0  0  0  0  0  0  0  0  0  0  0
  141.5400   79.1620  224.1890 C   0  0  0  0  0  0  0  0  0  0  0  0
  142.3150   80.4130  224.0140 C   0  0  0  0  0  0  0  0  0  0  0  0
  143.1420   80.4860  222.7550 C   0  0  0  0  0  0  0  0  0  0  0  0
  142.1190   80.2490  221.6340 C   0  0  0  0  0  0  0  0  0  0  0  0
  139.9880   71.8200  222.9770 C   0  0  0  0  0  0  0  0  0  0  0  0
  139.3140   70.6190  222.8890 C   0  0  0  0  0  0  0  0  0  0  0  0
  139.2340   69.7460  223.9280 C   0  0  0  0  0  0  0  0  0  0  0  0
  139.8570   70.0860  225.1130 C   0  0  0  0  0  0  0  0  0  0  0  0
  139.8230   69.2540  226.2140 C   0  0  0  0  0  0  0  0  0  0  0  0
  140.4480   69.6040  227.3890 C   0  0  0  0  0  0  0  0  0  0  0  0
  140.3560   68.4910  228.7400 Cl  0  0  0  0  0  0  0  0  0  0  0  0
  141.1190   70.8100  227.4630 C   0  0  0  0  0  0  0  0  0  0  0  0
  141.1760   71.6760  226.3750 C   0  0  0  0  0  0  0  0  0  0  0  0
  140.5410   71.3000  225.2100 C   0  0  0  0  0  0  0  0  0  0  0  0
  140.5880   72.1350  224.1380 N   0  0  0  0  0  0  0  0  0  0  0  0
  139.0620   74.3780  222.7230 H   0  0  0  0  0  0  0  0  0  0  0  0
  140.4995   74.5561  220.1142 H   0  0  0  0  0  0  0  0  0  0  0  0
  138.6767   74.4890  220.0067 H   0  0  0  0  0  0  0  0  0  0  0  0
  142.6037   76.3942  220.7495 H   0  0  0  0  0  0  0  0  0  0  0  0
  141.7836   75.6355  219.3879 H   0  0  0  0  0  0  0  0  0  0  0  0
  143.3041   78.1233  219.3856 H   0  0  0  0  0  0  0  0  0  0  0  0
  142.4454   77.4458  218.0075 H   0  0  0  0  0  0  0  0  0  0  0  0
  141.6722   79.8067  219.1941 H   0  0  0  0  0  0  0  0  0  0  0  0
  140.4704   78.7724  218.4732 H   0  0  0  0  0  0  0  0  0  0  0  0
  139.8572   79.0351  220.9387 H   0  0  0  0  0  0  0  0  0  0  0  0
  142.7320   78.2536  221.5018 H   0  0  0  0  0  0  0  0  0  0  0  0
  140.2925   78.0430  222.9411 H   0  0  0  0  0  0  0  0  0  0  0  0
  142.0329   77.4296  223.2075 H   0  0  0  0  0  0  0  0  0  0  0  0
  140.5361   79.4458  224.5377 H   0  0  0  0  0  0  0  0  0  0  0  0
  142.1397   78.5645  224.8914 H   0  0  0  0  0  0  0  0  0  0  0  0
  141.6059   81.2539  224.0045 H   0  0  0  0  0  0  0  0  0  0  0  0
  143.0288   80.4490  224.8502 H   0  0  0  0  0  0  0  0  0  0  0  0
  143.6144   81.4741  222.6526 H   0  0  0  0  0  0  0  0  0  0  0  0
  143.9652   79.7565  222.7425 H   0  0  0  0  0  0  0  0  0  0  0  0
  141.2161   80.8541  221.8032 H   0  0  0  0  0  0  0  0  0  0  0  0
  142.5178   80.5367  220.6500 H   0  0  0  0  0  0  0  0  0  0  0  0
  138.8220   70.3577  221.9405 H   0  0  0  0  0  0  0  0  0  0  0  0
  138.6887   68.7959  223.8279 H   0  0  0  0  0  0  0  0  0  0  0  0
  139.2874   68.2953  226.1511 H   0  0  0  0  0  0  0  0  0  0  0  0
  141.6186   71.0914  228.4017 H   0  0  0  0  0  0  0  0  0  0  0  0
  141.7127   72.6338  226.4425 H   0  0  0  0  0  0  0  0  0  0  0  0
  1  2  2  0
  2  3  1  0
  3  4  1  0
  4  5  1  0
  5  6  2  0
  5  7  1  0
  7  8  1  0
  8  9  1  0
  9 10  1  0
 10 11  1  0
 11 12  1  0
 12 13  1  0
 13 14  1  0
 14 15  1  0
 15 16  1  0
 16 17  1  0
  2 18  1  0
 18 19  2  0
 19 20  1  0
 20 21  2  0
 21 22  1  0
 22 23  2  0
 23 24  1  0
 23 25  1  0
 25 26  2  0
 26 27  1  0
 27 28  2  0
 11  7  1  0
 17 12  1  0
 28 18  1  0
 27 21  1  0
  3 29  1  0
  4 30  1  0
  4 31  1  0
  8 32  1  0
  8 33  1  0
  9 34  1  0
  9 35  1  0
 10 36  1  0
 10 37  1  0
 11 38  1  1
 12 39  1  0
 13 40  1  0
 13 41  1  0
 14 42  1  0
 14 43  1  0
 15 44  1  0
 15 45  1  0
 16 46  1  0
 16 47  1  0
 17 48  1  0
 17 49  1  0
 19 50  1  0
 20 51  1  0
 22 52  1  0
 25 53  1  0
 26 54  1  0
M  END
>  <smiles>  (16) 
O=C(NCC(=O)N1CCCC1C1CCCCC1)c1ccc2cc(Cl)ccc2n1

>  <score_type>  (16) 
oracle

>  <origin>  (16) 
autodockgpu

>  <m_score__min__energy>  (16) 
-8.9700000000000006

>  <m_primary>  (16) 
energy

>  <rmsd>  (16) 
2.1705422594440558

>  <m_score__min__rmsd>  (16) 
2.1705422594440558

>  <meeko>  (16) 
{"free_energy": -8.71, "intermolecular_energy": -10.21, "internal_energy": -1.37, "cluster_size": 32, "cluster_id": 1, "rank_in_cluster": 11}

>  <energy>  (16) 
-8.61

>  <cluster_rmsd>  (16) 
0.76

>  <cluster>  (16) 
1

$$$$

     RDKit          3D

 54 57  0  0  0  0  0  0  0  0999 V2000
  140.9200   72.8820  221.2740 O   0  0  0  0  0  0  0  0  0  0  0  0
  140.0240   72.8410  222.1750 C   0  0  0  0  0  0  0  0  0  0  0  0
  138.9700   73.7880  222.0410 N   0  0  0  0  0  0  0  0  0  0  0  0
  139.0050   74.6880  220.9270 C   0  0  0  0  0  0  0  0  0  0  0  0
  139.2710   76.0870  221.3090 C   0  0  0  0  0  0  0  0  0  0  0  0
  138.4470   76.7660  221.9710 O   0  0  0  0  0  0  0  0  0  0  0  0
  140.5110   76.6560  220.8980 N   0  0  0  0  0  0  0  0  0  0  0  0
  141.7760   75.9800  220.6240 C   0  0  0  0  0  0  0  0  0  0  0  0
  142.4250   76.8140  219.5140 C   0  0  0  0  0  0  0  0  0  0  0  0
  141.4610   77.9550  219.2930 C   0  0  0  0  0  0  0  0  0  0  0  0
  140.8120   78.0740  220.6520 C   0  0  2  0  0  0  0  0  0  0  0  0
  141.7830   78.5850  221.6980 C   0  0  0  0  0  0  0  0  0  0  0  0
  141.3670   78.1670  223.0500 C   0  0  0  0  0  0  0  0  0  0  0  0
  141.4250   79.1670  224.1390 C   0  0  0  0  0  0  0  0  0  0  0  0
  142.0850   80.4650  223.8600 C   0  0  0  0  0  0  0  0  0  0  0  0
  142.9380   80.4990  222.6180 C   0  0  0  0  0  0  0  0  0  0  0  0
  141.9760   80.0610  221.5040 C   0  0  0  0  0  0  0  0  0  0  0  0
  140.0710   71.8880  223.2740 C   0  0  0  0  0  0  0  0  0  0  0  0
  139.5980   70.6130  223.0430 C   0  0  0  0  0  0  0  0  0  0  0  0
  139.5970   69.6480  224.0000 C   0  0  0  0  0  0  0  0  0  0  0  0
  140.0920   69.9690  225.2490 C   0  0  0  0  0  0  0  0  0  0  0  0
  140.1260   69.0460  226.2750 C   0  0  0  0  0  0  0  0  0  0  0  0
  140.6220   69.3790  227.5150 C   0  0  0  0  0  0  0  0  0  0  0  0
  140.6290   68.1480  228.7630 Cl  0  0  0  0  0  0  0  0  0  0  0  0
  141.0920   70.6600  227.7320 C   0  0  0  0  0  0  0  0  0  0  0  0
  141.0750   71.6200  226.7230 C   0  0  0  0  0  0  0  0  0  0  0  0
  140.5720   71.2580  225.4910 C   0  0  0  0  0  0  0  0  0  0  0  0
  140.5490   72.1840  224.4950 N   0  0  0  0  0  0  0  0  0  0  0  0
  138.1900   73.8030  222.7640 H   0  0  0  0  0  0  0  0  0  0  0  0
  139.7968   74.3587  220.2381 H   0  0  0  0  0  0  0  0  0  0  0  0
  138.0092   74.6639  220.4603 H   0  0  0  0  0  0  0  0  0  0  0  0
  142.4116   75.9659  221.5217 H   0  0  0  0  0  0  0  0  0  0  0  0
  141.6335   74.9300  220.3289 H   0  0  0  0  0  0  0  0  0  0  0  0
  143.4079   77.1906  219.8335 H   0  0  0  0  0  0  0  0  0  0  0  0
  142.6024   76.2303  218.5987 H   0  0  0  0  0  0  0  0  0  0  0  0
  141.9900   78.8796  219.0187 H   0  0  0  0  0  0  0  0  0  0  0  0
  140.7495   77.7861  218.4712 H   0  0  0  0  0  0  0  0  0  0  0  0
  139.9603   78.7689  220.6936 H   0  0  0  0  0  0  0  0  0  0  0  0
  142.7774   78.1307  221.5761 H   0  0  0  0  0  0  0  0  0  0  0  0
  140.3249   77.8222  222.9787 H   0  0  0  0  0  0  0  0  0  0  0  0
  142.1057   77.4051  223.3395 H   0  0  0  0  0  0  0  0  0  0  0  0
  140.3891   79.3848  224.4381 H   0  0  0  0  0  0  0  0  0  0  0  0
  142.0566   78.6982  224.9080 H   0  0  0  0  0  0  0  0  0  0  0  0
  141.3010   81.2294  223.7551 H   0  0  0  0  0  0  0  0  0  0  0  0
  142.7675   80.6471  224.7033 H   0  0  0  0  0  0  0  0  0  0  0  0
  143.3185   81.5140  222.4311 H   0  0  0  0  0  0  0  0  0  0  0  0
  143.8259   79.8540  222.6927 H   0  0  0  0  0  0  0  0  0  0  0  0
  141.0157   80.5896  221.5956 H   0  0  0  0  0  0  0  0  0  0  0  0
  142.3754   80.2926  220.5056 H   0  0  0  0  0  0  0  0  0  0  0  0
  139.2062   70.3676  222.0449 H   0  0  0  0  0  0  0  0  0  0  0  0
  139.2128   68.6397  223.7860 H   0  0  0  0  0  0  0  0  0  0  0  0
  139.7504   68.0273  226.0986 H   0  0  0  0  0  0  0  0  0  0  0  0
  141.4881   70.9274  228.7228 H   0  0  0  0  0  0  0  0  0  0  0  0
  141.4519   72.6375  226.9036 H   0  0  0  0  0  0  0  0  0  0  0  0
  1  2  2  0
  2  3  1  0
  3  4  1  0
  4  5  1  0
  5  6  2  0
  5  7  1  0
  7  8  1  0
  8  9  1  0
  9 10  1  0
 10 11  1  0
 11 12  1  0
 12 13  1  0
 13 14  1  0
 14 15  1  0
 15 16  1  0
 16 17  1  0
  2 18  1  0
 18 19  2  0
 19 20  1  0
 20 21  2  0
 21 22  1  0
 22 23  2  0
 23 24  1  0
 23 25  1  0
 25 26  2  0
 26 27  1  0
 27 28  2  0
 11  7  1  0
 17 12  1  0
 28 18  1  0
 27 21  1  0
  3 29  1  0
  4 30  1  0
  4 31  1  0
  8 32  1  0
  8 33  1  0
  9 34  1  0
  9 35  1  0
 10 36  1  0
 10 37  1  0
 11 38  1  6
 12 39  1  0
 13 40  1  0
 13 41  1  0
 14 42  1  0
 14 43  1  0
 15 44  1  0
 15 45  1  0
 16 46  1  0
 16 47  1  0
 17 48  1  0
 17 49  1  0
 19 50  1  0
 20 51  1  0
 22 52  1  0
 25 53  1  0
 26 54  1  0
M  END
>  <smiles>  (17) 
O=C(NCC(=O)N1CCCC1C1CCCCC1)c1ccc2cc(Cl)ccc2n1

>  <score_type>  (17) 
oracle

>  <origin>  (17) 
autodockgpu

>  <m_score__min__energy>  (17) 
-8.9700000000000006

>  <m_primary>  (17) 
energy

>  <rmsd>  (17) 
2.071657672158288

>  <m_score__min__rmsd>  (17) 
2.071657672158288

>  <meeko>  (17) 
{"free_energy": -8.97, "intermolecular_energy": -10.47, "internal_energy": -1.4, "cluster_size": 32, "cluster_id": 1, "rank_in_cluster": 1}

>  <energy>  (17) 
-8.6

>  <cluster_rmsd>  (17) 
0.72

>  <cluster>  (17) 
1

$$$$

     RDKit          3D

 54 57  0  0  0  0  0  0  0  0999 V2000
  139.7960   72.3340  220.8300 O   0  0  0  0  0  0  0  0  0  0  0  0
  139.6690   72.7020  222.0410 C   0  0  0  0  0  0  0  0  0  0  0  0
  139.3790   74.0810  222.2400 N   0  0  0  0  0  0  0  0  0  0  0  0
  139.2560   74.9210  221.0870 C   0  0  0  0  0  0  0  0  0  0  0  0
  140.2840   75.9750  221.0140 C   0  0  0  0  0  0  0  0  0  0  0  0
  140.3330   76.9170  221.8440 O   0  0  0  0  0  0  0  0  0  0  0  0
  141.2350   75.8940  219.9570 N   0  0  0  0  0  0  0  0  0  0  0  0
  140.9960   75.7000  218.5290 C   0  0  0  0  0  0  0  0  0  0  0  0
  142.1210   76.4800  217.8410 C   0  0  0  0  0  0  0  0  0  0  0  0
  142.9540   77.0170  218.9810 C   0  0  0  0  0  0  0  0  0  0  0  0
  142.6990   75.9870  220.0560 C   0  0  2  0  0  0  0  0  0  0  0  0
  143.3250   74.6480  219.7160 C   0  0  0  0  0  0  0  0  0  0  0  0
  142.4260   73.5390  220.0810 C   0  0  0  0  0  0  0  0  0  0  0  0
  143.0100   72.3630  220.7640 C   0  0  0  0  0  0  0  0  0  0  0  0
  144.4860   72.2730  220.8590 C   0  0  0  0  0  0  0  0  0  0  0  0
  145.2470   73.2010  219.9470 C   0  0  0  0  0  0  0  0  0  0  0  0
  144.7040   74.5910  220.3070 C   0  0  0  0  0  0  0  0  0  0  0  0
  139.8120   71.7740  223.1520 C   0  0  0  0  0  0  0  0  0  0  0  0
  139.4050   70.4690  222.9610 C   0  0  0  0  0  0  0  0  0  0  0  0
  139.4950   69.5240  223.9340 C   0  0  0  0  0  0  0  0  0  0  0  0
  140.0160   69.8970  225.1570 C   0  0  0  0  0  0  0  0  0  0  0  0
  140.1410   68.9960  226.1960 C   0  0  0  0  0  0  0  0  0  0  0  0
  140.6620   69.3810  227.4110 C   0  0  0  0  0  0  0  0  0  0  0  0
  140.7860   68.1760  228.6780 Cl  0  0  0  0  0  0  0  0  0  0  0  0
  141.0660   70.6900  227.5880 C   0  0  0  0  0  0  0  0  0  0  0  0
  140.9560   71.6280  226.5650 C   0  0  0  0  0  0  0  0  0  0  0  0
  140.4300   71.2150  225.3590 C   0  0  0  0  0  0  0  0  0  0  0  0
  140.3170   72.1190  224.3490 N   0  0  0  0  0  0  0  0  0  0  0  0
  139.2610   74.4490  223.2310 H   0  0  0  0  0  0  0  0  0  0  0  0
  139.3377   74.2923  220.1881 H   0  0  0  0  0  0  0  0  0  0  0  0
  138.2808   75.4250  221.1569 H   0  0  0  0  0  0  0  0  0  0  0  0
  141.0472   74.6327  218.2679 H   0  0  0  0  0  0  0  0  0  0  0  0
  139.9985   76.0469  218.2215 H   0  0  0  0  0  0  0  0  0  0  0  0
  142.7197   75.8164  217.1998 H   0  0  0  0  0  0  0  0  0  0  0  0
  141.7400   77.2779  217.1866 H   0  0  0  0  0  0  0  0  0  0  0  0
  144.0199   77.0617  218.7128 H   0  0  0  0  0  0  0  0  0  0  0  0
  142.6975   78.0450  219.2768 H   0  0  0  0  0  0  0  0  0  0  0  0
  143.1069   76.2472  221.0439 H   0  0  0  0  0  0  0  0  0  0  0  0
  143.4559   74.5322  218.6300 H   0  0  0  0  0  0  0  0  0  0  0  0
  141.6520   73.9512  220.7451 H   0  0  0  0  0  0  0  0  0  0  0  0
  142.0709   73.1465  219.1167 H   0  0  0  0  0  0  0  0  0  0  0  0
  142.6153   72.3522  221.7907 H   0  0  0  0  0  0  0  0  0  0  0  0
  142.7238   71.5093  220.1320 H   0  0  0  0  0  0  0  0  0  0  0  0
  144.7746   72.5025  221.8953 H   0  0  0  0  0  0  0  0  0  0  0  0
  144.7498   71.2526  220.5442 H   0  0  0  0  0  0  0  0  0  0  0  0
  146.3284   73.1404  220.1393 H   0  0  0  0  0  0  0  0  0  0  0  0
  145.1164   72.9548  218.8829 H   0  0  0  0  0  0  0  0  0  0  0  0
  144.6597   74.7155  221.3990 H   0  0  0  0  0  0  0  0  0  0  0  0
  145.3480   75.3939  219.9189 H   0  0  0  0  0  0  0  0  0  0  0  0
  138.9915   70.1824  221.9828 H   0  0  0  0  0  0  0  0  0  0  0  0
  139.1622   68.4914  223.7522 H   0  0  0  0  0  0  0  0  0  0  0  0
  139.8193   67.9542  226.0507 H   0  0  0  0  0  0  0  0  0  0  0  0
  141.4836   70.9979  228.5580 H   0  0  0  0  0  0  0  0  0  0  0  0
  141.2794   72.6687  226.7145 H   0  0  0  0  0  0  0  0  0  0  0  0
  1  2  2  0
  2  3  1  0
  3  4  1  0
  4  5  1  0
  5  6  2  0
  5  7  1  0
  7  8  1  0
  8  9  1  0
  9 10  1  0
 10 11  1  0
 11 12  1  0
 12 13  1  0
 13 14  1  0
 14 15  1  0
 15 16  1  0
 16 17  1  0
  2 18  1  0
 18 19  2  0
 19 20  1  0
 20 21  2  0
 21 22  1  0
 22 23  2  0
 23 24  1  0
 23 25  1  0
 25 26  2  0
 26 27  1  0
 27 28  2  0
 11  7  1  0
 17 12  1  0
 28 18  1  0
 27 21  1  0
  3 29  1  0
  4 30  1  0
  4 31  1  0
  8 32  1  0
  8 33  1  0
  9 34  1  0
  9 35  1  0
 10 36  1  0
 10 37  1  0
 11 38  1  1
 12 39  1  0
 13 40  1  0
 13 41  1  0
 14 42  1  0
 14 43  1  0
 15 44  1  0
 15 45  1  0
 16 46  1  0
 16 47  1  0
 17 48  1  0
 17 49  1  0
 19 50  1  0
 20 51  1  0
 22 52  1  0
 25 53  1  0
 26 54  1  0
M  END
>  <smiles>  (18) 
O=C(NCC(=O)N1CCCC1C1CCCCC1)c1ccc2cc(Cl)ccc2n1

>  <score_type>  (18) 
oracle

>  <origin>  (18) 
autodockgpu

>  <m_score__min__energy>  (18) 
-8.9700000000000006

>  <m_primary>  (18) 
energy

>  <rmsd>  (18) 
1.7519776260565092

>  <m_score__min__rmsd>  (18) 
1.7519776260565092

>  <meeko>  (18) 
{"free_energy": -7.88, "intermolecular_energy": -9.37, "internal_energy": -1.81, "cluster_size": 32, "cluster_id": 1, "rank_in_cluster": 31}

>  <energy>  (18) 
-8.6

>  <cluster_rmsd>  (18) 
0.46

>  <cluster>  (18) 
1

$$$$

     RDKit          3D

 54 57  0  0  0  0  0  0  0  0999 V2000
  141.6970   73.6850  221.0150 O   0  0  0  0  0  0  0  0  0  0  0  0
  140.8830   74.5020  221.5520 C   0  0  0  0  0  0  0  0  0  0  0  0
  139.7870   73.9150  222.2460 N   0  0  0  0  0  0  0  0  0  0  0  0
  139.6940   72.4870  222.2810 C   0  0  0  0  0  0  0  0  0  0  0  0
  138.3780   71.9940  222.7270 C   0  0  0  0  0  0  0  0  0  0  0  0
  137.3160   72.6250  222.4960 O   0  0  0  0  0  0  0  0  0  0  0  0
  138.3440   70.7620  223.4400 N   0  0  0  0  0  0  0  0  0  0  0  0
  137.1840   69.9520  223.8050 C   0  0  0  0  0  0  0  0  0  0  0  0
  137.6950   68.5080  223.7650 C   0  0  0  0  0  0  0  0  0  0  0  0
  139.1610   68.6400  223.4240 C   0  0  0  0  0  0  0  0  0  0  0  0
  139.4820   70.0050  223.9840 C   0  0  2  0  0  0  0  0  0  0  0  0
  139.4340   70.0200  225.5000 C   0  0  0  0  0  0  0  0  0  0  0  0
  140.0730   71.2370  226.0340 C   0  0  0  0  0  0  0  0  0  0  0  0
  140.9850   71.0950  227.1910 C   0  0  0  0  0  0  0  0  0  0  0  0
  141.0480   69.7810  227.8740 C   0  0  0  0  0  0  0  0  0  0  0  0
  139.9230   68.8320  227.5470 C   0  0  0  0  0  0  0  0  0  0  0  0
  139.9750   68.7190  226.0170 C   0  0  0  0  0  0  0  0  0  0  0  0
  141.0600   75.9430  221.4640 C   0  0  0  0  0  0  0  0  0  0  0  0
  141.7360   76.4460  220.3720 C   0  0  0  0  0  0  0  0  0  0  0  0
  141.9550   77.7760  220.1940 C   0  0  0  0  0  0  0  0  0  0  0  0
  141.4760   78.6480  221.1520 C   0  0  0  0  0  0  0  0  0  0  0  0
  141.6570   80.0120  221.0440 C   0  0  0  0  0  0  0  0  0  0  0  0
  141.1750   80.8710  222.0060 C   0  0  0  0  0  0  0  0  0  0  0  0
  141.4470   82.5890  221.7950 Cl  0  0  0  0  0  0  0  0  0  0  0  0
  140.4990   80.3540  223.0950 C   0  0  0  0  0  0  0  0  0  0  0  0
  140.2960   78.9840  223.2390 C   0  0  0  0  0  0  0  0  0  0  0  0
  140.7900   78.1470  222.2610 C   0  0  0  0  0  0  0  0  0  0  0  0
  140.6000   76.8070  222.3860 N   0  0  0  0  0  0  0  0  0  0  0  0
  139.0730   74.5480  222.7160 H   0  0  0  0  0  0  0  0  0  0  0  0
  139.8858   72.1007  221.2691 H   0  0  0  0  0  0  0  0  0  0  0  0
  140.4367   72.1322  223.0108 H   0  0  0  0  0  0  0  0  0  0  0  0
  136.8308   70.2114  224.8139 H   0  0  0  0  0  0  0  0  0  0  0  0
  136.3323   70.1127  223.1276 H   0  0  0  0  0  0  0  0  0  0  0  0
  137.5647   68.0213  224.7428 H   0  0  0  0  0  0  0  0  0  0  0  0
  137.1486   67.8889  223.0383 H   0  0  0  0  0  0  0  0  0  0  0  0
  139.7586   67.8556  223.9115 H   0  0  0  0  0  0  0  0  0  0  0  0
  139.3821   68.5332  222.3518 H   0  0  0  0  0  0  0  0  0  0  0  0
  140.4846   70.3789  223.7291 H   0  0  0  0  0  0  0  0  0  0  0  0
  138.3991   70.0845  225.8672 H   0  0  0  0  0  0  0  0  0  0  0  0
  140.6523   71.6881  225.2149 H   0  0  0  0  0  0  0  0  0  0  0  0
  139.2364   71.8397  226.4173 H   0  0  0  0  0  0  0  0  0  0  0  0
  142.0001   71.3280  226.8371 H   0  0  0  0  0  0  0  0  0  0  0  0
  140.5732   71.7776  227.9490 H   0  0  0  0  0  0  0  0  0  0  0  0
  141.9945   69.2964  227.5924 H   0  0  0  0  0  0  0  0  0  0  0  0
  140.9653   69.9926  228.9503 H   0  0  0  0  0  0  0  0  0  0  0  0
  140.0872   67.8518  228.0185 H   0  0  0  0  0  0  0  0  0  0  0  0
  138.9481   69.1837  227.9155 H   0  0  0  0  0  0  0  0  0  0  0  0
  141.0108   68.5714  225.6774 H   0  0  0  0  0  0  0  0  0  0  0  0
  139.3923   67.8607  225.6512 H   0  0  0  0  0  0  0  0  0  0  0  0
  142.1130   75.7429  219.6147 H   0  0  0  0  0  0  0  0  0  0  0  0
  142.4981   78.1469  219.3123 H   0  0  0  0  0  0  0  0  0  0  0  0
  142.1950   80.4194  220.1753 H   0  0  0  0  0  0  0  0  0  0  0  0
  140.1132   81.0392  223.8642 H   0  0  0  0  0  0  0  0  0  0  0  0
  139.7566   78.5807  224.1087 H   0  0  0  0  0  0  0  0  0  0  0  0
  1  2  2  0
  2  3  1  0
  3  4  1  0
  4  5  1  0
  5  6  2  0
  5  7  1  0
  7  8  1  0
  8  9  1  0
  9 10  1  0
 10 11  1  0
 11 12  1  0
 12 13  1  0
 13 14  1  0
 14 15  1  0
 15 16  1  0
 16 17  1  0
  2 18  1  0
 18 19  2  0
 19 20  1  0
 20 21  2  0
 21 22  1  0
 22 23  2  0
 23 24  1  0
 23 25  1  0
 25 26  2  0
 26 27  1  0
 27 28  2  0
 11  7  1  0
 17 12  1  0
 28 18  1  0
 27 21  1  0
  3 29  1  0
  4 30  1  0
  4 31  1  0
  8 32  1  0
  8 33  1  0
  9 34  1  0
  9 35  1  0
 10 36  1  0
 10 37  1  0
 11 38  1  1
 12 39  1  0
 13 40  1  0
 13 41  1  0
 14 42  1  0
 14 43  1  0
 15 44  1  0
 15 45  1  0
 16 46  1  0
 16 47  1  0
 17 48  1  0
 17 49  1  0
 19 50  1  0
 20 51  1  0
 22 52  1  0
 25 53  1  0
 26 54  1  0
M  END
>  <smiles>  (19) 
O=C(NCC(=O)N1CCCC1C1CCCCC1)c1ccc2cc(Cl)ccc2n1

>  <score_type>  (19) 
oracle

>  <origin>  (19) 
autodockgpu

>  <m_score__min__energy>  (19) 
-8.9700000000000006

>  <m_primary>  (19) 
energy

>  <rmsd>  (19) 
8.5249903384096

>  <m_score__min__rmsd>  (19) 
8.5249903384096

>  <meeko>  (19) 
{"free_energy": -7.98, "intermolecular_energy": -9.47, "internal_energy": -1.48, "cluster_size": 12, "cluster_id": 2, "rank_in_cluster": 9}

>  <energy>  (19) 
-8.56

>  <cluster_rmsd>  (19) 
1.28

>  <cluster>  (19) 
1

$$$$

     RDKit          3D

 54 57  0  0  0  0  0  0  0  0999 V2000
  142.0070   73.4520  220.9670 O   0  0  0  0  0  0  0  0  0  0  0  0
  141.1880   74.2140  221.5750 C   0  0  0  0  0  0  0  0  0  0  0  0
  140.1910   73.5570  222.3490 N   0  0  0  0  0  0  0  0  0  0  0  0
  140.1910   72.1260  222.3800 C   0  0  0  0  0  0  0  0  0  0  0  0
  138.8410   71.5360  222.3380 C   0  0  0  0  0  0  0  0  0  0  0  0
  138.0450   71.7590  221.3910 O   0  0  0  0  0  0  0  0  0  0  0  0
  138.4570   70.6920  223.4190 N   0  0  0  0  0  0  0  0  0  0  0  0
  137.1250   70.4800  223.9800 C   0  0  0  0  0  0  0  0  0  0  0  0
  137.1320   69.0210  224.4480 C   0  0  0  0  0  0  0  0  0  0  0  0
  138.5330   68.5410  224.1490 C   0  0  0  0  0  0  0  0  0  0  0  0
  139.3210   69.8260  224.2350 C   0  0  2  0  0  0  0  0  0  0  0  0
  139.3870   70.3540  225.6550 C   0  0  0  0  0  0  0  0  0  0  0  0
  140.2940   71.5130  225.7440 C   0  0  0  0  0  0  0  0  0  0  0  0
  141.2410   71.5730  226.8800 C   0  0  0  0  0  0  0  0  0  0  0  0
  141.0880   70.5800  227.9690 C   0  0  0  0  0  0  0  0  0  0  0  0
  139.7740   69.8400  227.9850 C   0  0  0  0  0  0  0  0  0  0  0  0
  139.6910   69.2160  226.5840 C   0  0  0  0  0  0  0  0  0  0  0  0
  141.2660   75.6640  221.4840 C   0  0  0  0  0  0  0  0  0  0  0  0
  141.6460   76.2170  220.2780 C   0  0  0  0  0  0  0  0  0  0  0  0
  141.7500   77.5590  220.0880 C   0  0  0  0  0  0  0  0  0  0  0  0
  141.4610   78.3910  221.1510 C   0  0  0  0  0  0  0  0  0  0  0  0
  141.5420   79.7650  221.0390 C   0  0  0  0  0  0  0  0  0  0  0  0
  141.2510   80.5840  222.1070 C   0  0  0  0  0  0  0  0  0  0  0  0
  141.3800   82.3170  221.8820 Cl  0  0  0  0  0  0  0  0  0  0  0  0
  140.8720   80.0160  223.3090 C   0  0  0  0  0  0  0  0  0  0  0  0
  140.7790   78.6350  223.4620 C   0  0  0  0  0  0  0  0  0  0  0  0
  141.0760   77.8400  222.3750 C   0  0  0  0  0  0  0  0  0  0  0  0
  140.9880   76.4890  222.5090 N   0  0  0  0  0  0  0  0  0  0  0  0
  139.4790   74.1420  222.8810 H   0  0  0  0  0  0  0  0  0  0  0  0
  140.7582   71.7591  221.5119 H   0  0  0  0  0  0  0  0  0  0  0  0
  140.6462   71.8235  223.3346 H   0  0  0  0  0  0  0  0  0  0  0  0
  136.9476   71.1589  224.8271 H   0  0  0  0  0  0  0  0  0  0  0  0
  136.3274   70.6806  223.2496 H   0  0  0  0  0  0  0  0  0  0  0  0
  136.9192   68.9561  225.5253 H   0  0  0  0  0  0  0  0  0  0  0  0
  136.3635   68.4146  223.9464 H   0  0  0  0  0  0  0  0  0  0  0  0
  138.8747   67.8102  224.8967 H   0  0  0  0  0  0  0  0  0  0  0  0
  138.6308   68.0206  223.1848 H   0  0  0  0  0  0  0  0  0  0  0  0
  140.3702   69.7413  223.9156 H   0  0  0  0  0  0  0  0  0  0  0  0
  138.4153   70.7564  225.9772 H   0  0  0  0  0  0  0  0  0  0  0  0
  140.8908   71.5321  224.8202 H   0  0  0  0  0  0  0  0  0  0  0  0
  139.6249   72.3720  225.9005 H   0  0  0  0  0  0  0  0  0  0  0  0
  142.2537   71.4524  226.4678 H   0  0  0  0  0  0  0  0  0  0  0  0
  141.0316   72.5403  227.3601 H   0  0  0  0  0  0  0  0  0  0  0  0
  141.8945   69.8387  227.8690 H   0  0  0  0  0  0  0  0  0  0  0  0
  141.1281   71.1500  228.9089 H   0  0  0  0  0  0  0  0  0  0  0  0
  139.7717   69.0614  228.7620 H   0  0  0  0  0  0  0  0  0  0  0  0
  138.9191   70.4939  228.2120 H   0  0  0  0  0  0  0  0  0  0  0  0
  140.6485   68.7459  226.3153 H   0  0  0  0  0  0  0  0  0  0  0  0
  138.9224   68.4308  226.5322 H   0  0  0  0  0  0  0  0  0  0  0  0
  141.8737   75.5452  219.4372 H   0  0  0  0  0  0  0  0  0  0  0  0
  142.0558   77.9704  219.1147 H   0  0  0  0  0  0  0  0  0  0  0  0
  141.8440   80.2127  220.0807 H   0  0  0  0  0  0  0  0  0  0  0  0
  140.6388   80.6690  224.1630 H   0  0  0  0  0  0  0  0  0  0  0  0
  140.4774   78.1911  224.4222 H   0  0  0  0  0  0  0  0  0  0  0  0
  1  2  2  0
  2  3  1  0
  3  4  1  0
  4  5  1  0
  5  6  2  0
  5  7  1  0
  7  8  1  0
  8  9  1  0
  9 10  1  0
 10 11  1  0
 11 12  1  0
 12 13  1  0
 13 14  1  0
 14 15  1  0
 15 16  1  0
 16 17  1  0
  2 18  1  0
 18 19  2  0
 19 20  1  0
 20 21  2  0
 21 22  1  0
 22 23  2  0
 23 24  1  0
 23 25  1  0
 25 26  2  0
 26 27  1  0
 27 28  2  0
 11  7  1  0
 17 12  1  0
 28 18  1  0
 27 21  1  0
  3 29  1  0
  4 30  1  0
  4 31  1  0
  8 32  1  0
  8 33  1  0
  9 34  1  0
  9 35  1  0
 10 36  1  0
 10 37  1  0
 11 38  1  6
 12 39  1  0
 13 40  1  0
 13 41  1  0
 14 42  1  0
 14 43  1  0
 15 44  1  0
 15 45  1  0
 16 46  1  0
 16 47  1  0
 17 48  1  0
 17 49  1  0
 19 50  1  0
 20 51  1  0
 22 52  1  0
 25 53  1  0
 26 54  1  0
M  END
>  <smiles>  (20) 
O=C(NCC(=O)N1CCCC1C1CCCCC1)c1ccc2cc(Cl)ccc2n1

>  <score_type>  (20) 
oracle

>  <origin>  (20) 
autodockgpu

>  <m_score__min__energy>  (20) 
-8.9700000000000006

>  <m_primary>  (20) 
energy

>  <rmsd>  (20) 
8.494894504959694

>  <m_score__min__rmsd>  (20) 
8.494894504959694

>  <meeko>  (20) 
{"free_energy": -8.18, "intermolecular_energy": -9.67, "internal_energy": -1.37, "cluster_size": 12, "cluster_id": 2, "rank_in_cluster": 6}

>  <energy>  (20) 
-8.54

>  <cluster_rmsd>  (20) 
0.66

>  <cluster>  (20) 
1

$$$$

     RDKit          3D

 54 57  0  0  0  0  0  0  0  0999 V2000
  139.8480   72.1310  220.7820 O   0  0  0  0  0  0  0  0  0  0  0  0
  139.7520   72.5430  221.9820 C   0  0  0  0  0  0  0  0  0  0  0  0
  139.5330   73.9410  222.1390 N   0  0  0  0  0  0  0  0  0  0  0  0
  139.4410   74.7490  220.9600 C   0  0  0  0  0  0  0  0  0  0  0  0
  140.2920   75.9530  221.0040 C   0  0  0  0  0  0  0  0  0  0  0  0
  141.5260   75.9060  220.7670 O   0  0  0  0  0  0  0  0  0  0  0  0
  139.6660   77.1900  221.3280 N   0  0  0  0  0  0  0  0  0  0  0  0
  138.8630   78.0560  220.4680 C   0  0  0  0  0  0  0  0  0  0  0  0
  137.8360   78.6910  221.4120 C   0  0  0  0  0  0  0  0  0  0  0  0
  138.1990   78.1500  222.7750 C   0  0  0  0  0  0  0  0  0  0  0  0
  139.6790   77.8950  222.6180 C   0  0  2  0  0  0  0  0  0  0  0  0
  140.4650   79.1860  222.4920 C   0  0  0  0  0  0  0  0  0  0  0  0
  141.8670   78.9150  222.1260 C   0  0  0  0  0  0  0  0  0  0  0  0
  142.9300   79.6600  222.8370 C   0  0  0  0  0  0  0  0  0  0  0  0
  142.5260   80.7770  223.7240 C   0  0  0  0  0  0  0  0  0  0  0  0
  141.1120   81.2660  223.5380 C   0  0  0  0  0  0  0  0  0  0  0  0
  140.2610   80.0030  223.7340 C   0  0  0  0  0  0  0  0  0  0  0  0
  139.8580   71.6450  223.1210 C   0  0  0  0  0  0  0  0  0  0  0  0
  139.4270   70.3440  222.9610 C   0  0  0  0  0  0  0  0  0  0  0  0
  139.4830   69.4250  223.9610 C   0  0  0  0  0  0  0  0  0  0  0  0
  139.9920   69.8220  225.1810 C   0  0  0  0  0  0  0  0  0  0  0  0
  140.0830   68.9490  226.2470 C   0  0  0  0  0  0  0  0  0  0  0  0
  140.5930   69.3580  227.4590 C   0  0  0  0  0  0  0  0  0  0  0  0
  140.6720   68.1870  228.7610 Cl  0  0  0  0  0  0  0  0  0  0  0  0
  141.0210   70.6640  227.6060 C   0  0  0  0  0  0  0  0  0  0  0  0
  140.9460   71.5730  226.5540 C   0  0  0  0  0  0  0  0  0  0  0  0
  140.4310   71.1370  225.3520 C   0  0  0  0  0  0  0  0  0  0  0  0
  140.3520   72.0140  224.3160 N   0  0  0  0  0  0  0  0  0  0  0  0
  139.4430   74.3450  223.1190 H   0  0  0  0  0  0  0  0  0  0  0  0
  139.7442   74.1397  220.0958 H   0  0  0  0  0  0  0  0  0  0  0  0
  138.3987   75.0921  220.8834 H   0  0  0  0  0  0  0  0  0  0  0  0
  139.4906   78.8288  220.0001 H   0  0  0  0  0  0  0  0  0  0  0  0
  138.3875   77.5024  219.6449 H   0  0  0  0  0  0  0  0  0  0  0  0
  137.9159   79.7879  221.3940 H   0  0  0  0  0  0  0  0  0  0  0  0
  136.8002   78.4541  221.1275 H   0  0  0  0  0  0  0  0  0  0  0  0
  138.0009   78.8888  223.5656 H   0  0  0  0  0  0  0  0  0  0  0  0
  137.6216   77.2620  223.0716 H   0  0  0  0  0  0  0  0  0  0  0  0
  140.1426   77.3627  223.4616 H   0  0  0  0  0  0  0  0  0  0  0  0
  140.0922   79.8019  221.6603 H   0  0  0  0  0  0  0  0  0  0  0  0
  142.0482   77.8437  222.2980 H   0  0  0  0  0  0  0  0  0  0  0  0
  141.9474   79.2531  221.0823 H   0  0  0  0  0  0  0  0  0  0  0  0
  143.4798   78.9348  223.4548 H   0  0  0  0  0  0  0  0  0  0  0  0
  143.5088   80.1425  222.0357 H   0  0  0  0  0  0  0  0  0  0  0  0
  142.6355   80.4409  224.7657 H   0  0  0  0  0  0  0  0  0  0  0  0
  143.1782   81.6239  223.4643 H   0  0  0  0  0  0  0  0  0  0  0  0
  140.8592   82.0296  224.2883 H   0  0  0  0  0  0  0  0  0  0  0  0
  140.9506   81.7409  222.5590 H   0  0  0  0  0  0  0  0  0  0  0  0
  140.5983   79.4458  224.6205 H   0  0  0  0  0  0  0  0  0  0  0  0
  139.2001   80.2462  223.8931 H   0  0  0  0  0  0  0  0  0  0  0  0
  139.0219   70.0383  221.9851 H   0  0  0  0  0  0  0  0  0  0  0  0
  139.1327   68.3944  223.8025 H   0  0  0  0  0  0  0  0  0  0  0  0
  139.7426   67.9100  226.1261 H   0  0  0  0  0  0  0  0  0  0  0  0
  141.4290   70.9918  228.5735 H   0  0  0  0  0  0  0  0  0  0  0  0
  141.2884   72.6109  226.6787 H   0  0  0  0  0  0  0  0  0  0  0  0
  1  2  2  0
  2  3  1  0
  3  4  1  0
  4  5  1  0
  5  6  2  0
  5  7  1  0
  7  8  1  0
  8  9  1  0
  9 10  1  0
 10 11  1  0
 11 12  1  0
 12 13  1  0
 13 14  1  0
 14 15  1  0
 15 16  1  0
 16 17  1  0
  2 18  1  0
 18 19  2  0
 19 20  1  0
 20 21  2  0
 21 22  1  0
 22 23  2  0
 23 24  1  0
 23 25  1  0
 25 26  2  0
 26 27  1  0
 27 28  2  0
 11  7  1  0
 17 12  1  0
 28 18  1  0
 27 21  1  0
  3 29  1  0
  4 30  1  0
  4 31  1  0
  8 32  1  0
  8 33  1  0
  9 34  1  0
  9 35  1  0
 10 36  1  0
 10 37  1  0
 11 38  1  1
 12 39  1  0
 13 40  1  0
 13 41  1  0
 14 42  1  0
 14 43  1  0
 15 44  1  0
 15 45  1  0
 16 46  1  0
 16 47  1  0
 17 48  1  0
 17 49  1  0
 19 50  1  0
 20 51  1  0
 22 52  1  0
 25 53  1  0
 26 54  1  0
M  END
>  <smiles>  (21) 
O=C(NCC(=O)N1CCCC1C1CCCCC1)c1ccc2cc(Cl)ccc2n1

>  <score_type>  (21) 
oracle

>  <origin>  (21) 
autodockgpu

>  <m_score__min__energy>  (21) 
-8.9700000000000006

>  <m_primary>  (21) 
energy

>  <rmsd>  (21) 
2.8171218978649337

>  <m_score__min__rmsd>  (21) 
2.8171218978649337

>  <meeko>  (21) 
{"free_energy": -8.63, "intermolecular_energy": -10.12, "internal_energy": -1.36, "cluster_size": 32, "cluster_id": 1, "rank_in_cluster": 15}

>  <energy>  (21) 
-8.53

>  <cluster_rmsd>  (21) 
1.31

>  <cluster>  (21) 
1

$$$$

     RDKit          3D

 54 57  0  0  0  0  0  0  0  0999 V2000
  141.0650   73.4490  221.0570 O   0  0  0  0  0  0  0  0  0  0  0  0
  140.3100   74.3180  221.6010 C   0  0  0  0  0  0  0  0  0  0  0  0
  139.1550   73.8070  222.2570 N   0  0  0  0  0  0  0  0  0  0  0  0
  138.9420   72.3910  222.2510 C   0  0  0  0  0  0  0  0  0  0  0  0
  139.7120   71.6760  223.2850 C   0  0  0  0  0  0  0  0  0  0  0  0
  140.8900   71.9980  223.5810 O   0  0  0  0  0  0  0  0  0  0  0  0
  139.0710   70.5920  223.9500 N   0  0  0  0  0  0  0  0  0  0  0  0
  137.6510   70.4140  224.2410 C   0  0  0  0  0  0  0  0  0  0  0  0
  137.4290   68.9000  224.1660 C   0  0  0  0  0  0  0  0  0  0  0  0
  138.8020   68.3350  223.8850 C   0  0  0  0  0  0  0  0  0  0  0  0
  139.6950   69.3820  224.5070 C   0  0  2  0  0  0  0  0  0  0  0  0
  139.5840   69.3940  226.0190 C   0  0  0  0  0  0  0  0  0  0  0  0
  140.1500   70.6350  226.5780 C   0  0  0  0  0  0  0  0  0  0  0  0
  141.0180   70.5310  227.7720 C   0  0  0  0  0  0  0  0  0  0  0  0
  141.1070   69.2190  228.4580 C   0  0  0  0  0  0  0  0  0  0  0  0
  140.0360   68.2250  228.0860 C   0  0  0  0  0  0  0  0  0  0  0  0
  140.1560   68.1160  226.5590 C   0  0  0  0  0  0  0  0  0  0  0  0
  140.6080   75.7410  221.5560 C   0  0  0  0  0  0  0  0  0  0  0  0
  141.4840   76.1880  220.5880 C   0  0  0  0  0  0  0  0  0  0  0  0
  141.8290   77.4960  220.4590 C   0  0  0  0  0  0  0  0  0  0  0  0
  141.2740   78.4040  221.3390 C   0  0  0  0  0  0  0  0  0  0  0  0
  141.5730   79.7510  221.2750 C   0  0  0  0  0  0  0  0  0  0  0  0
  141.0130   80.6460  222.1580 C   0  0  0  0  0  0  0  0  0  0  0  0
  141.4460   82.3380  222.0090 Cl  0  0  0  0  0  0  0  0  0  0  0  0
  140.1370   80.1850  223.1220 C   0  0  0  0  0  0  0  0  0  0  0  0
  139.8100   78.8350  223.2190 C   0  0  0  0  0  0  0  0  0  0  0  0
  140.3860   77.9610  222.3220 C   0  0  0  0  0  0  0  0  0  0  0  0
  140.0770   76.6390  222.4030 N   0  0  0  0  0  0  0  0  0  0  0  0
  138.4860   74.4850  222.7310 H   0  0  0  0  0  0  0  0  0  0  0  0
  137.8719   72.1992  222.4189 H   0  0  0  0  0  0  0  0  0  0  0  0
  139.2850   72.0164  221.2753 H   0  0  0  0  0  0  0  0  0  0  0  0
  137.4098   70.7928  225.2452 H   0  0  0  0  0  0  0  0  0  0  0  0
  137.0085   70.9655  223.5388 H   0  0  0  0  0  0  0  0  0  0  0  0
  137.0372   68.5159  225.1194 H   0  0  0  0  0  0  0  0  0  0  0  0
  136.6940   68.6205  223.3968 H   0  0  0  0  0  0  0  0  0  0  0  0
  138.9385   67.3547  224.3649 H   0  0  0  0  0  0  0  0  0  0  0  0
  139.0013   68.1535  222.8185 H   0  0  0  0  0  0  0  0  0  0  0  0
  140.7675   69.2469  224.3034 H   0  0  0  0  0  0  0  0  0  0  0  0
  138.5330   69.4161  226.3427 H   0  0  0  0  0  0  0  0  0  0  0  0
  140.7440   71.1097  225.7831 H   0  0  0  0  0  0  0  0  0  0  0  0
  139.2740   71.2020  226.9260 H   0  0  0  0  0  0  0  0  0  0  0  0
  142.0364   70.8067  227.4607 H   0  0  0  0  0  0  0  0  0  0  0  0
  140.5474   71.1955  228.5116 H   0  0  0  0  0  0  0  0  0  0  0  0
  142.0832   68.7739  228.2154 H   0  0  0  0  0  0  0  0  0  0  0  0
  140.9719   69.4257  229.5299 H   0  0  0  0  0  0  0  0  0  0  0  0
  140.2205   67.2519  228.5645 H   0  0  0  0  0  0  0  0  0  0  0  0
  139.0331   68.5359  228.4139 H   0  0  0  0  0  0  0  0  0  0  0  0
  141.2102   68.0114  226.2628 H   0  0  0  0  0  0  0  0  0  0  0  0
  139.6246   67.2349  226.1700 H   0  0  0  0  0  0  0  0  0  0  0  0
  141.9206   75.4559  219.8927 H   0  0  0  0  0  0  0  0  0  0  0  0
  142.5299   77.8220  219.6764 H   0  0  0  0  0  0  0  0  0  0  0  0
  142.2702   80.1144  220.5056 H   0  0  0  0  0  0  0  0  0  0  0  0
  139.6884   80.8996  223.8278 H   0  0  0  0  0  0  0  0  0  0  0  0
  139.1118   78.4761  223.9896 H   0  0  0  0  0  0  0  0  0  0  0  0
  1  2  2  0
  2  3  1  0
  3  4  1  0
  4  5  1  0
  5  6  2  0
  5  7  1  0
  7  8  1  0
  8  9  1  0
  9 10  1  0
 10 11  1  0
 11 12  1  0
 12 13  1  0
 13 14  1  0
 14 15  1  0
 15 16  1  0
 16 17  1  0
  2 18  1  0
 18 19  2  0
 19 20  1  0
 20 21  2  0
 21 22  1  0
 22 23  2  0
 23 24  1  0
 23 25  1  0
 25 26  2  0
 26 27  1  0
 27 28  2  0
 11  7  1  0
 17 12  1  0
 28 18  1  0
 27 21  1  0
  3 29  1  0
  4 30  1  0
  4 31  1  0
  8 32  1  0
  8 33  1  0
  9 34  1  0
  9 35  1  0
 10 36  1  0
 10 37  1  0
 11 38  1  1
 12 39  1  0
 13 40  1  0
 13 41  1  0
 14 42  1  0
 14 43  1  0
 15 44  1  0
 15 45  1  0
 16 46  1  0
 16 47  1  0
 17 48  1  0
 17 49  1  0
 19 50  1  0
 20 51  1  0
 22 52  1  0
 25 53  1  0
 26 54  1  0
M  END
>  <smiles>  (22) 
O=C(NCC(=O)N1CCCC1C1CCCCC1)c1ccc2cc(Cl)ccc2n1

>  <score_type>  (22) 
oracle

>  <origin>  (22) 
autodockgpu

>  <m_score__min__energy>  (22) 
-8.9700000000000006

>  <m_primary>  (22) 
energy

>  <rmsd>  (22) 
8.501736887270678

>  <m_score__min__rmsd>  (22) 
8.501736887270678

>  <meeko>  (22) 
{"free_energy": -8.52, "intermolecular_energy": -10.01, "internal_energy": -1.39, "cluster_size": 12, "cluster_id": 2, "rank_in_cluster": 1}

>  <energy>  (22) 
-8.4

>  <cluster_rmsd>  (22) 
0.88

>  <cluster>  (22) 
1

$$$$

     RDKit          3D

 54 57  0  0  0  0  0  0  0  0999 V2000
  139.8920   72.3910  220.7520 O   0  0  0  0  0  0  0  0  0  0  0  0
  139.8180   72.7960  221.9560 C   0  0  0  0  0  0  0  0  0  0  0  0
  139.6450   74.1980  222.1270 N   0  0  0  0  0  0  0  0  0  0  0  0
  139.5720   75.0190  220.9560 C   0  0  0  0  0  0  0  0  0  0  0  0
  140.8520   75.1300  220.2340 C   0  0  0  0  0  0  0  0  0  0  0  0
  141.4830   74.1190  219.8340 O   0  0  0  0  0  0  0  0  0  0  0  0
  141.3630   76.4390  219.9970 N   0  0  0  0  0  0  0  0  0  0  0  0
  142.5980   76.8250  219.3190 C   0  0  0  0  0  0  0  0  0  0  0  0
  142.2640   78.1580  218.6420 C   0  0  0  0  0  0  0  0  0  0  0  0
  140.8400   78.4410  219.0570 C   0  0  0  0  0  0  0  0  0  0  0  0
  140.7610   77.7230  220.3830 C   0  0  2  0  0  0  0  0  0  0  0  0
  141.6130   78.3950  221.4420 C   0  0  0  0  0  0  0  0  0  0  0  0
  141.1810   77.9990  222.7950 C   0  0  0  0  0  0  0  0  0  0  0  0
  141.0700   79.0530  223.8280 C   0  0  0  0  0  0  0  0  0  0  0  0
  141.5920   80.4030  223.5070 C   0  0  0  0  0  0  0  0  0  0  0  0
  142.4960   80.4730  222.3030 C   0  0  0  0  0  0  0  0  0  0  0  0
  141.6470   79.8720  221.1740 C   0  0  0  0  0  0  0  0  0  0  0  0
  139.9030   71.8840  223.0870 C   0  0  0  0  0  0  0  0  0  0  0  0
  139.4340   70.5970  222.9170 C   0  0  0  0  0  0  0  0  0  0  0  0
  139.4670   69.6680  223.9080 C   0  0  0  0  0  0  0  0  0  0  0  0
  139.9930   70.0390  225.1300 C   0  0  0  0  0  0  0  0  0  0  0  0
  140.0620   69.1550  226.1880 C   0  0  0  0  0  0  0  0  0  0  0  0
  140.5890   69.5370  227.4010 C   0  0  0  0  0  0  0  0  0  0  0  0
  140.6400   68.3530  228.6920 Cl  0  0  0  0  0  0  0  0  0  0  0  0
  141.0550   70.8290  227.5580 C   0  0  0  0  0  0  0  0  0  0  0  0
  141.0020   71.7500  226.5150 C   0  0  0  0  0  0  0  0  0  0  0  0
  140.4690   71.3400  225.3110 C   0  0  0  0  0  0  0  0  0  0  0  0
  140.4120   72.2280  224.2830 N   0  0  0  0  0  0  0  0  0  0  0  0
  139.5750   74.5960  223.1110 H   0  0  0  0  0  0  0  0  0  0  0  0
  138.8243   74.5873  220.2744 H   0  0  0  0  0  0  0  0  0  0  0  0
  139.2993   76.0317  221.2878 H   0  0  0  0  0  0  0  0  0  0  0  0
  143.4161   76.9512  220.0435 H   0  0  0  0  0  0  0  0  0  0  0  0
  142.9357   76.0640  218.6001 H   0  0  0  0  0  0  0  0  0  0  0  0
  142.9377   78.9532  218.9938 H   0  0  0  0  0  0  0  0  0  0  0  0
  142.3827   78.1156  217.5492 H   0  0  0  0  0  0  0  0  0  0  0  0
  140.6631   79.5204  219.1740 H   0  0  0  0  0  0  0  0  0  0  0  0
  140.0873   78.1127  218.3252 H   0  0  0  0  0  0  0  0  0  0  0  0
  139.7520   77.6786  220.8189 H   0  0  0  0  0  0  0  0  0  0  0  0
  142.6575   78.0538  221.3909 H   0  0  0  0  0  0  0  0  0  0  0  0
  140.1901   77.5315  222.6976 H   0  0  0  0  0  0  0  0  0  0  0  0
  141.9863   77.3436  223.1584 H   0  0  0  0  0  0  0  0  0  0  0  0
  140.0022   79.1642  224.0678 H   0  0  0  0  0  0  0  0  0  0  0  0
  141.7110   78.6999  224.6492 H   0  0  0  0  0  0  0  0  0  0  0  0
  140.7329   81.0657  223.3262 H   0  0  0  0  0  0  0  0  0  0  0  0
  142.2069   80.7047  224.3678 H   0  0  0  0  0  0  0  0  0  0  0  0
  142.7682   81.5146  222.0770 H   0  0  0  0  0  0  0  0  0  0  0  0
  143.4460   79.9390  222.4520 H   0  0  0  0  0  0  0  0  0  0  0  0
  140.6297   80.2900  221.1935 H   0  0  0  0  0  0  0  0  0  0  0  0
  142.0667   80.0978  220.1826 H   0  0  0  0  0  0  0  0  0  0  0  0
  139.0168   70.3120  221.9399 H   0  0  0  0  0  0  0  0  0  0  0  0
  139.0857   68.6497  223.7418 H   0  0  0  0  0  0  0  0  0  0  0  0
  139.6896   68.1280  226.0596 H   0  0  0  0  0  0  0  0  0  0  0  0
  141.4763   71.1358  228.5267 H   0  0  0  0  0  0  0  0  0  0  0  0
  141.3750   72.7763  226.6477 H   0  0  0  0  0  0  0  0  0  0  0  0
  1  2  2  0
  2  3  1  0
  3  4  1  0
  4  5  1  0
  5  6  2  0
  5  7  1  0
  7  8  1  0
  8  9  1  0
  9 10  1  0
 10 11  1  0
 11 12  1  0
 12 13  1  0
 13 14  1  0
 14 15  1  0
 15 16  1  0
 16 17  1  0
  2 18  1  0
 18 19  2  0
 19 20  1  0
 20 21  2  0
 21 22  1  0
 22 23  2  0
 23 24  1  0
 23 25  1  0
 25 26  2  0
 26 27  1  0
 27 28  2  0
 11  7  1  0
 17 12  1  0
 28 18  1  0
 27 21  1  0
  3 29  1  0
  4 30  1  0
  4 31  1  0
  8 32  1  0
  8 33  1  0
  9 34  1  0
  9 35  1  0
 10 36  1  0
 10 37  1  0
 11 38  1  1
 12 39  1  0
 13 40  1  0
 13 41  1  0
 14 42  1  0
 14 43  1  0
 15 44  1  0
 15 45  1  0
 16 46  1  0
 16 47  1  0
 17 48  1  0
 17 49  1  0
 19 50  1  0
 20 51  1  0
 22 52  1  0
 25 53  1  0
 26 54  1  0
M  END
>  <smiles>  (23) 
O=C(NCC(=O)N1CCCC1C1CCCCC1)c1ccc2cc(Cl)ccc2n1

>  <score_type>  (23) 
oracle

>  <origin>  (23) 
autodockgpu

>  <m_score__min__energy>  (23) 
-8.9700000000000006

>  <m_primary>  (23) 
energy

>  <rmsd>  (23) 
2.1823054538002595

>  <m_score__min__rmsd>  (23) 
2.1823054538002595

>  <meeko>  (23) 
{"free_energy": -8.61, "intermolecular_energy": -10.11, "internal_energy": -1.22, "cluster_size": 32, "cluster_id": 1, "rank_in_cluster": 16}

>  <energy>  (23) 
-8.39

>  <cluster_rmsd>  (23) 
0.86

>  <cluster>  (23) 
1

$$$$

     RDKit          3D

 54 57  0  0  0  0  0  0  0  0999 V2000
  141.3010   73.5350  221.4120 O   0  0  0  0  0  0  0  0  0  0  0  0
  140.3390   74.3320  221.6550 C   0  0  0  0  0  0  0  0  0  0  0  0
  139.1070   73.7200  222.0200 N   0  0  0  0  0  0  0  0  0  0  0  0
  139.0530   72.2900  222.0830 C   0  0  0  0  0  0  0  0  0  0  0  0
  139.6710   71.7300  223.2990 C   0  0  0  0  0  0  0  0  0  0  0  0
  140.7440   72.1830  223.7710 O   0  0  0  0  0  0  0  0  0  0  0  0
  139.0050   70.6430  223.9340 N   0  0  0  0  0  0  0  0  0  0  0  0
  137.5830   70.4990  224.2370 C   0  0  0  0  0  0  0  0  0  0  0  0
  137.3140   68.9950  224.1130 C   0  0  0  0  0  0  0  0  0  0  0  0
  138.6660   68.4000  223.7950 C   0  0  0  0  0  0  0  0  0  0  0  0
  139.5980   69.3970  224.4410 C   0  0  2  0  0  0  0  0  0  0  0  0
  139.5050   69.3590  225.9540 C   0  0  0  0  0  0  0  0  0  0  0  0
  140.0100   70.6120  226.5440 C   0  0  0  0  0  0  0  0  0  0  0  0
  140.8970   70.5210  227.7240 C   0  0  0  0  0  0  0  0  0  0  0  0
  141.0640   69.1970  228.3710 C   0  0  0  0  0  0  0  0  0  0  0  0
  140.0440   68.1570  227.9810 C   0  0  0  0  0  0  0  0  0  0  0  0
  140.1510   68.0980  226.4500 C   0  0  0  0  0  0  0  0  0  0  0  0
  140.4870   75.7760  221.5660 C   0  0  0  0  0  0  0  0  0  0  0  0
  140.1520   76.3890  220.3750 C   0  0  0  0  0  0  0  0  0  0  0  0
  140.2530   77.7310  220.1880 C   0  0  0  0  0  0  0  0  0  0  0  0
  140.7120   78.5010  221.2380 C   0  0  0  0  0  0  0  0  0  0  0  0
  140.8440   79.8710  221.1280 C   0  0  0  0  0  0  0  0  0  0  0  0
  141.3020   80.6290  222.1820 C   0  0  0  0  0  0  0  0  0  0  0  0
  141.4410   82.3610  221.9600 Cl  0  0  0  0  0  0  0  0  0  0  0  0
  141.6350   80.0020  223.3680 C   0  0  0  0  0  0  0  0  0  0  0  0
  141.5160   78.6230  223.5180 C   0  0  0  0  0  0  0  0  0  0  0  0
  141.0540   77.8900  222.4460 C   0  0  0  0  0  0  0  0  0  0  0  0
  140.9320   76.5420  222.5770 N   0  0  0  0  0  0  0  0  0  0  0  0
  138.2660   74.3340  222.2370 H   0  0  0  0  0  0  0  0  0  0  0  0
  137.9980   71.9800  222.0545 H   0  0  0  0  0  0  0  0  0  0  0  0
  139.6243   71.9070  221.2245 H   0  0  0  0  0  0  0  0  0  0  0  0
  137.3653   70.8501  225.2565 H   0  0  0  0  0  0  0  0  0  0  0  0
  136.9495   71.0940  223.5627 H   0  0  0  0  0  0  0  0  0  0  0  0
  136.9222   68.5899  225.0577 H   0  0  0  0  0  0  0  0  0  0  0  0
  136.5615   68.7642  223.3446 H   0  0  0  0  0  0  0  0  0  0  0  0
  138.7785   67.3998  224.2388 H   0  0  0  0  0  0  0  0  0  0  0  0
  138.8468   68.2506  222.7203 H   0  0  0  0  0  0  0  0  0  0  0  0
  140.6635   69.2373  224.2193 H   0  0  0  0  0  0  0  0  0  0  0  0
  138.4582   69.3151  226.2892 H   0  0  0  0  0  0  0  0  0  0  0  0
  140.5671   71.1417  225.7572 H   0  0  0  0  0  0  0  0  0  0  0  0
  139.1089   71.1194  226.9189 H   0  0  0  0  0  0  0  0  0  0  0  0
  141.8953   70.8591  227.4092 H   0  0  0  0  0  0  0  0  0  0  0  0
  140.4014   71.1385  228.4876 H   0  0  0  0  0  0  0  0  0  0  0  0
  142.0600   68.8124  228.1063 H   0  0  0  0  0  0  0  0  0  0  0  0
  140.9297   69.3659  229.4496 H   0  0  0  0  0  0  0  0  0  0  0  0
  140.2868   67.1821  228.4290 H   0  0  0  0  0  0  0  0  0  0  0  0
  139.0298   68.4035  228.3282 H   0  0  0  0  0  0  0  0  0  0  0  0
  141.2055   68.0585  226.1396 H   0  0  0  0  0  0  0  0  0  0  0  0
  139.6627   67.2012  226.0410 H   0  0  0  0  0  0  0  0  0  0  0  0
  139.7888   75.7660  219.5444 H   0  0  0  0  0  0  0  0  0  0  0  0
  139.9770   78.1908  219.2276 H   0  0  0  0  0  0  0  0  0  0  0  0
  140.5786   80.3653  220.1819 H   0  0  0  0  0  0  0  0  0  0  0  0
  142.0019   80.6055  224.2113 H   0  0  0  0  0  0  0  0  0  0  0  0
  141.7832   78.1322  224.4655 H   0  0  0  0  0  0  0  0  0  0  0  0
  1  2  2  0
  2  3  1  0
  3  4  1  0
  4  5  1  0
  5  6  2  0
  5  7  1  0
  7  8  1  0
  8  9  1  0
  9 10  1  0
 10 11  1  0
 11 12  1  0
 12 13  1  0
 13 14  1  0
 14 15  1  0
 15 16  1  0
 16 17  1  0
  2 18  1  0
 18 19  2  0
 19 20  1  0
 20 21  2  0
 21 22  1  0
 22 23  2  0
 23 24  1  0
 23 25  1  0
 25 26  2  0
 26 27  1  0
 27 28  2  0
 11  7  1  0
 17 12  1  0
 28 18  1  0
 27 21  1  0
  3 29  1  0
  4 30  1  0
  4 31  1  0
  8 32  1  0
  8 33  1  0
  9 34  1  0
  9 35  1  0
 10 36  1  0
 10 37  1  0
 11 38  1  1
 12 39  1  0
 13 40  1  0
 13 41  1  0
 14 42  1  0
 14 43  1  0
 15 44  1  0
 15 45  1  0
 16 46  1  0
 16 47  1  0
 17 48  1  0
 17 49  1  0
 19 50  1  0
 20 51  1  0
 22 52  1  0
 25 53  1  0
 26 54  1  0
M  END
>  <smiles>  (24) 
O=C(NCC(=O)N1CCCC1C1CCCCC1)c1ccc2cc(Cl)ccc2n1

>  <score_type>  (24) 
oracle

>  <origin>  (24) 
autodockgpu

>  <m_score__min__energy>  (24) 
-8.9700000000000006

>  <m_primary>  (24) 
energy

>  <rmsd>  (24) 
8.440751028673432

>  <m_score__min__rmsd>  (24) 
8.440751028673432

>  <meeko>  (24) 
{"free_energy": -8.35, "intermolecular_energy": -9.85, "internal_energy": -1.21, "cluster_size": 12, "cluster_id": 2, "rank_in_cluster": 4}

>  <energy>  (24) 
-8.28

>  <cluster_rmsd>  (24) 
0.77

>  <cluster>  (24) 
1

$$$$

     RDKit          3D

 54 57  0  0  0  0  0  0  0  0999 V2000
  140.7060   72.5370  220.9640 O   0  0  0  0  0  0  0  0  0  0  0  0
  140.0370   72.7320  222.0280 C   0  0  0  0  0  0  0  0  0  0  0  0
  139.2500   73.9180  222.0530 N   0  0  0  0  0  0  0  0  0  0  0  0
  139.2760   74.7730  220.9050 C   0  0  0  0  0  0  0  0  0  0  0  0
  140.1850   75.9250  221.0500 C   0  0  0  0  0  0  0  0  0  0  0  0
  141.4310   75.8110  220.9300 O   0  0  0  0  0  0  0  0  0  0  0  0
  139.6010   77.1920  221.3350 N   0  0  0  0  0  0  0  0  0  0  0  0
  138.8390   78.0650  220.4440 C   0  0  0  0  0  0  0  0  0  0  0  0
  137.8270   78.7610  221.3600 C   0  0  0  0  0  0  0  0  0  0  0  0
  138.1550   78.2420  222.7410 C   0  0  0  0  0  0  0  0  0  0  0  0
  139.6270   77.9300  222.6070 C   0  0  2  0  0  0  0  0  0  0  0  0
  140.4600   79.1880  222.4570 C   0  0  0  0  0  0  0  0  0  0  0  0
  141.8420   78.8590  222.0620 C   0  0  0  0  0  0  0  0  0  0  0  0
  142.9500   79.5630  222.7440 C   0  0  0  0  0  0  0  0  0  0  0  0
  142.6110   80.6990  223.6360 C   0  0  0  0  0  0  0  0  0  0  0  0
  141.2140   81.2440  223.4800 C   0  0  0  0  0  0  0  0  0  0  0  0
  140.3180   80.0170  223.7000 C   0  0  0  0  0  0  0  0  0  0  0  0
  140.0710   71.8040  223.1470 C   0  0  0  0  0  0  0  0  0  0  0  0
  139.5860   70.5280  222.9450 C   0  0  0  0  0  0  0  0  0  0  0  0
  139.5730   69.5850  223.9230 C   0  0  0  0  0  0  0  0  0  0  0  0
  140.0680   69.9300  225.1650 C   0  0  0  0  0  0  0  0  0  0  0  0
  140.0900   69.0290  226.2120 C   0  0  0  0  0  0  0  0  0  0  0  0
  140.5860   69.3860  227.4460 C   0  0  0  0  0  0  0  0  0  0  0  0
  140.5780   68.1830  228.7210 Cl  0  0  0  0  0  0  0  0  0  0  0  0
  141.0690   70.6670  227.6350 C   0  0  0  0  0  0  0  0  0  0  0  0
  141.0640   71.6030  226.6040 C   0  0  0  0  0  0  0  0  0  0  0  0
  140.5610   71.2190  225.3790 C   0  0  0  0  0  0  0  0  0  0  0  0
  140.5500   72.1220  224.3630 N   0  0  0  0  0  0  0  0  0  0  0  0
  138.6670   74.1350  222.9160 H   0  0  0  0  0  0  0  0  0  0  0  0
  139.6006   74.1805  220.0369 H   0  0  0  0  0  0  0  0  0  0  0  0
  138.2604   75.1762  220.7788 H   0  0  0  0  0  0  0  0  0  0  0  0
  139.4995   78.8020  219.9637 H   0  0  0  0  0  0  0  0  0  0  0  0
  138.3518   77.5084  219.6299 H   0  0  0  0  0  0  0  0  0  0  0  0
  137.9479   79.8534  221.3154 H   0  0  0  0  0  0  0  0  0  0  0  0
  136.7862   78.5550  221.0698 H   0  0  0  0  0  0  0  0  0  0  0  0
  137.9754   79.0073  223.5105 H   0  0  0  0  0  0  0  0  0  0  0  0
  137.5424   77.3834  223.0534 H   0  0  0  0  0  0  0  0  0  0  0  0
  140.0630   77.4036  223.4688 H   0  0  0  0  0  0  0  0  0  0  0  0
  140.0927   79.8149  221.6312 H   0  0  0  0  0  0  0  0  0  0  0  0
  141.9835   77.7821  222.2362 H   0  0  0  0  0  0  0  0  0  0  0  0
  141.9124   79.1893  221.0151 H   0  0  0  0  0  0  0  0  0  0  0  0
  143.4851   78.8186  223.3519 H   0  0  0  0  0  0  0  0  0  0  0  0
  143.5288   80.0191  221.9273 H   0  0  0  0  0  0  0  0  0  0  0  0
  142.7304   80.3620  224.6763 H   0  0  0  0  0  0  0  0  0  0  0  0
  143.2906   81.5181  223.3582 H   0  0  0  0  0  0  0  0  0  0  0  0
  141.0091   82.0194  224.2329 H   0  0  0  0  0  0  0  0  0  0  0  0
  141.0496   81.7222  222.5031 H   0  0  0  0  0  0  0  0  0  0  0  0
  140.6529   79.4495  224.5808 H   0  0  0  0  0  0  0  0  0  0  0  0
  139.2716   80.3034  223.8819 H   0  0  0  0  0  0  0  0  0  0  0  0
  139.1940   70.2636  221.9518 H   0  0  0  0  0  0  0  0  0  0  0  0
  139.1795   68.5759  223.7310 H   0  0  0  0  0  0  0  0  0  0  0  0
  139.7052   68.0102  226.0575 H   0  0  0  0  0  0  0  0  0  0  0  0
  141.4656   70.9531  228.6203 H   0  0  0  0  0  0  0  0  0  0  0  0
  141.4506   72.6205  226.7625 H   0  0  0  0  0  0  0  0  0  0  0  0
  1  2  2  0
  2  3  1  0
  3  4  1  0
  4  5  1  0
  5  6  2  0
  5  7  1  0
  7  8  1  0
  8  9  1  0
  9 10  1  0
 10 11  1  0
 11 12  1  0
 12 13  1  0
 13 14  1  0
 14 15  1  0
 15 16  1  0
 16 17  1  0
  2 18  1  0
 18 19  2  0
 19 20  1  0
 20 21  2  0
 21 22  1  0
 22 23  2  0
 23 24  1  0
 23 25  1  0
 25 26  2  0
 26 27  1  0
 27 28  2  0
 11  7  1  0
 17 12  1  0
 28 18  1  0
 27 21  1  0
  3 29  1  0
  4 30  1  0
  4 31  1  0
  8 32  1  0
  8 33  1  0
  9 34  1  0
  9 35  1  0
 10 36  1  0
 10 37  1  0
 11 38  1  1
 12 39  1  0
 13 40  1  0
 13 41  1  0
 14 42  1  0
 14 43  1  0
 15 44  1  0
 15 45  1  0
 16 46  1  0
 16 47  1  0
 17 48  1  0
 17 49  1  0
 19 50  1  0
 20 51  1  0
 22 52  1  0
 25 53  1  0
 26 54  1  0
M  END
>  <smiles>  (25) 
O=C(NCC(=O)N1CCCC1C1CCCCC1)c1ccc2cc(Cl)ccc2n1

>  <score_type>  (25) 
oracle

>  <origin>  (25) 
autodockgpu

>  <m_score__min__energy>  (25) 
-8.9700000000000006

>  <m_primary>  (25) 
energy

>  <rmsd>  (25) 
2.845202831849819

>  <m_score__min__rmsd>  (25) 
2.845202831849819

>  <meeko>  (25) 
{"free_energy": -8.72, "intermolecular_energy": -10.21, "internal_energy": -1.29, "cluster_size": 32, "cluster_id": 1, "rank_in_cluster": 9}

>  <energy>  (25) 
-8.22

>  <cluster_rmsd>  (25) 
1.44

>  <cluster>  (25) 
1

$$$$

     RDKit          3D

 54 57  0  0  0  0  0  0  0  0999 V2000
  139.6910   71.9050  220.7960 O   0  0  0  0  0  0  0  0  0  0  0  0
  139.6910   72.3500  221.9880 C   0  0  0  0  0  0  0  0  0  0  0  0
  139.5390   73.7590  222.1210 N   0  0  0  0  0  0  0  0  0  0  0  0
  139.4030   74.5410  220.9300 C   0  0  0  0  0  0  0  0  0  0  0  0
  139.4490   75.9950  221.1720 C   0  0  0  0  0  0  0  0  0  0  0  0
  138.5030   76.6090  221.7260 O   0  0  0  0  0  0  0  0  0  0  0  0
  140.6170   76.6950  220.7520 N   0  0  0  0  0  0  0  0  0  0  0  0
  141.9040   76.1480  220.3310 C   0  0  0  0  0  0  0  0  0  0  0  0
  142.4190   77.1380  219.2810 C   0  0  0  0  0  0  0  0  0  0  0  0
  141.3660   78.2210  219.2420 C   0  0  0  0  0  0  0  0  0  0  0  0
  140.8030   78.1490  220.6420 C   0  0  2  0  0  0  0  0  0  0  0  0
  141.8050   78.6210  221.6780 C   0  0  0  0  0  0  0  0  0  0  0  0
  141.3980   78.2030  223.0320 C   0  0  0  0  0  0  0  0  0  0  0  0
  141.5020   79.1900  224.1290 C   0  0  0  0  0  0  0  0  0  0  0  0
  142.1970   80.4700  223.8520 C   0  0  0  0  0  0  0  0  0  0  0  0
  143.0320   80.4900  222.5960 C   0  0  0  0  0  0  0  0  0  0  0  0
  142.0400   80.0920  221.4940 C   0  0  0  0  0  0  0  0  0  0  0  0
  139.8350   71.4760  223.1420 C   0  0  0  0  0  0  0  0  0  0  0  0
  139.4370   70.1610  223.0110 C   0  0  0  0  0  0  0  0  0  0  0  0
  139.5290   69.2630  224.0270 C   0  0  0  0  0  0  0  0  0  0  0  0
  140.0440   69.6960  225.2330 C   0  0  0  0  0  0  0  0  0  0  0  0
  140.1710   68.8450  226.3130 C   0  0  0  0  0  0  0  0  0  0  0  0
  140.6850   69.2890  227.5110 C   0  0  0  0  0  0  0  0  0  0  0  0
  140.8120   68.1460  228.8330 Cl  0  0  0  0  0  0  0  0  0  0  0  0
  141.0800   70.6090  227.6280 C   0  0  0  0  0  0  0  0  0  0  0  0
  140.9680   71.4970  226.5620 C   0  0  0  0  0  0  0  0  0  0  0  0
  140.4490   71.0250  225.3750 C   0  0  0  0  0  0  0  0  0  0  0  0
  140.3340   71.8800  224.3240 N   0  0  0  0  0  0  0  0  0  0  0  0
  139.5310   74.1900  223.0930 H   0  0  0  0  0  0  0  0  0  0  0  0
  140.2214   74.2762  220.2443 H   0  0  0  0  0  0  0  0  0  0  0  0
  138.4135   74.3149  220.5060 H   0  0  0  0  0  0  0  0  0  0  0  0
  142.5981   76.0886  221.1823 H   0  0  0  0  0  0  0  0  0  0  0  0
  141.8133   75.1267  219.9327 H   0  0  0  0  0  0  0  0  0  0  0  0
  143.3931   77.5521  219.5804 H   0  0  0  0  0  0  0  0  0  0  0  0
  142.5744   76.6669  218.2992 H   0  0  0  0  0  0  0  0  0  0  0  0
  141.8110   79.2062  219.0387 H   0  0  0  0  0  0  0  0  0  0  0  0
  140.6144   78.0856  218.4503 H   0  0  0  0  0  0  0  0  0  0  0  0
  139.9101   78.7696  220.8082 H   0  0  0  0  0  0  0  0  0  0  0  0
  142.7831   78.1380  221.5367 H   0  0  0  0  0  0  0  0  0  0  0  0
  140.3452   77.8896  222.9739 H   0  0  0  0  0  0  0  0  0  0  0  0
  142.1187   77.4174  223.3029 H   0  0  0  0  0  0  0  0  0  0  0  0
  140.4776   79.4361  224.4454 H   0  0  0  0  0  0  0  0  0  0  0  0
  142.1300   78.6950  224.8844 H   0  0  0  0  0  0  0  0  0  0  0  0
  141.4353   81.2590  223.7666 H   0  0  0  0  0  0  0  0  0  0  0  0
  142.8976   80.6231  224.6861 H   0  0  0  0  0  0  0  0  0  0  0  0
  143.4403   81.4947  222.4122 H   0  0  0  0  0  0  0  0  0  0  0  0
  143.9010   79.8178  222.6507 H   0  0  0  0  0  0  0  0  0  0  0  0
  141.0978   80.6487  221.6055 H   0  0  0  0  0  0  0  0  0  0  0  0
  142.4306   80.3206  220.4914 H   0  0  0  0  0  0  0  0  0  0  0  0
  139.0290   69.8264  222.0458 H   0  0  0  0  0  0  0  0  0  0  0  0
  139.2026   68.2212  223.8925 H   0  0  0  0  0  0  0  0  0  0  0  0
  139.8565   67.7955  226.2149 H   0  0  0  0  0  0  0  0  0  0  0  0
  141.4916   70.9649  228.5840 H   0  0  0  0  0  0  0  0  0  0  0  0
  141.2846   72.5456  226.6637 H   0  0  0  0  0  0  0  0  0  0  0  0
  1  2  2  0
  2  3  1  0
  3  4  1  0
  4  5  1  0
  5  6  2  0
  5  7  1  0
  7  8  1  0
  8  9  1  0
  9 10  1  0
 10 11  1  0
 11 12  1  0
 12 13  1  0
 13 14  1  0
 14 15  1  0
 15 16  1  0
 16 17  1  0
  2 18  1  0
 18 19  2  0
 19 20  1  0
 20 21  2  0
 21 22  1  0
 22 23  2  0
 23 24  1  0
 23 25  1  0
 25 26  2  0
 26 27  1  0
 27 28  2  0
 11  7  1  0
 17 12  1  0
 28 18  1  0
 27 21  1  0
  3 29  1  0
  4 30  1  0
  4 31  1  0
  8 32  1  0
  8 33  1  0
  9 34  1  0
  9 35  1  0
 10 36  1  0
 10 37  1  0
 11 38  1  6
 12 39  1  0
 13 40  1  0
 13 41  1  0
 14 42  1  0
 14 43  1  0
 15 44  1  0
 15 45  1  0
 16 46  1  0
 16 47  1  0
 17 48  1  0
 17 49  1  0
 19 50  1  0
 20 51  1  0
 22 52  1  0
 25 53  1  0
 26 54  1  0
M  END
>  <smiles>  (26) 
O=C(NCC(=O)N1CCCC1C1CCCCC1)c1ccc2cc(Cl)ccc2n1

>  <score_type>  (26) 
oracle

>  <origin>  (26) 
autodockgpu

>  <m_score__min__energy>  (26) 
-8.9700000000000006

>  <m_primary>  (26) 
energy

>  <rmsd>  (26) 
1.9802302575228925

>  <m_score__min__rmsd>  (26) 
1.9802302575228925

>  <meeko>  (26) 
{"free_energy": -8.91, "intermolecular_energy": -10.4, "internal_energy": -1.42, "cluster_size": 32, "cluster_id": 1, "rank_in_cluster": 7}

>  <energy>  (26) 
-8.2

>  <cluster_rmsd>  (26) 
1.06

>  <cluster>  (26) 
1

$$$$

     RDKit          3D

 54 57  0  0  0  0  0  0  0  0999 V2000
  140.7740   72.4750  220.7920 O   0  0  0  0  0  0  0  0  0  0  0  0
  140.1660   72.7690  221.8710 C   0  0  0  0  0  0  0  0  0  0  0  0
  139.4980   74.0250  221.8790 N   0  0  0  0  0  0  0  0  0  0  0  0
  139.5630   74.8360  220.7010 C   0  0  0  0  0  0  0  0  0  0  0  0
  140.3920   76.0450  220.8630 C   0  0  0  0  0  0  0  0  0  0  0  0
  141.6260   76.0430  220.6250 O   0  0  0  0  0  0  0  0  0  0  0  0
  139.7430   77.2330  221.3030 N   0  0  0  0  0  0  0  0  0  0  0  0
  138.8390   78.1060  220.5580 C   0  0  0  0  0  0  0  0  0  0  0  0
  137.8660   78.6430  221.6140 C   0  0  0  0  0  0  0  0  0  0  0  0
  138.3600   78.0490  222.9120 C   0  0  0  0  0  0  0  0  0  0  0  0
  139.8320   77.8700  222.6260 C   0  0  2  0  0  0  0  0  0  0  0  0
  140.5510   79.2000  222.5110 C   0  0  0  0  0  0  0  0  0  0  0  0
  141.9500   79.0070  222.0890 C   0  0  0  0  0  0  0  0  0  0  0  0
  143.0020   79.7820  222.7840 C   0  0  0  0  0  0  0  0  0  0  0  0
  142.5780   80.8530  223.7180 C   0  0  0  0  0  0  0  0  0  0  0  0
  141.1370   81.2790  223.5960 C   0  0  0  0  0  0  0  0  0  0  0  0
  140.3540   79.9710  223.7830 C   0  0  0  0  0  0  0  0  0  0  0  0
  140.1540   71.8790  223.0220 C   0  0  0  0  0  0  0  0  0  0  0  0
  139.6220   70.6170  222.8570 C   0  0  0  0  0  0  0  0  0  0  0  0
  139.5630   69.7090  223.8670 C   0  0  0  0  0  0  0  0  0  0  0  0
  140.0580   70.0770  225.1020 C   0  0  0  0  0  0  0  0  0  0  0  0
  140.0350   69.2130  226.1790 C   0  0  0  0  0  0  0  0  0  0  0  0
  140.5330   69.5920  227.4050 C   0  0  0  0  0  0  0  0  0  0  0  0
  140.4650   68.4360  228.7200 Cl  0  0  0  0  0  0  0  0  0  0  0  0
  141.0620   70.8600  227.5560 C   0  0  0  0  0  0  0  0  0  0  0  0
  141.1040   71.7590  226.4940 C   0  0  0  0  0  0  0  0  0  0  0  0
  140.5980   71.3530  225.2780 C   0  0  0  0  0  0  0  0  0  0  0  0
  140.6320   72.2200  224.2310 N   0  0  0  0  0  0  0  0  0  0  0  0
  138.9710   74.3270  222.7530 H   0  0  0  0  0  0  0  0  0  0  0  0
  139.9854   74.2312  219.8850 H   0  0  0  0  0  0  0  0  0  0  0  0
  138.5387   75.1732  220.4839 H   0  0  0  0  0  0  0  0  0  0  0  0
  139.3949   78.9300  220.0868 H   0  0  0  0  0  0  0  0  0  0  0  0
  138.3221   77.5760  219.7444 H   0  0  0  0  0  0  0  0  0  0  0  0
  137.8984   79.7419  221.6509 H   0  0  0  0  0  0  0  0  0  0  0  0
  136.8214   78.3737  221.3989 H   0  0  0  0  0  0  0  0  0  0  0  0
  138.1960   78.7359  223.7554 H   0  0  0  0  0  0  0  0  0  0  0  0
  137.8456   77.1213  223.2029 H   0  0  0  0  0  0  0  0  0  0  0  0
  140.3842   77.3162  223.3995 H   0  0  0  0  0  0  0  0  0  0  0  0
  140.1198   79.8201  221.7113 H   0  0  0  0  0  0  0  0  0  0  0  0
  142.1873   77.9413  222.2230 H   0  0  0  0  0  0  0  0  0  0  0  0
  141.9766   79.3776  221.0537 H   0  0  0  0  0  0  0  0  0  0  0  0
  143.6077   79.0670  223.3601 H   0  0  0  0  0  0  0  0  0  0  0  0
  143.5279   80.3142  221.9776 H   0  0  0  0  0  0  0  0  0  0  0  0
  142.7405   80.4930  224.7446 H   0  0  0  0  0  0  0  0  0  0  0  0
  143.1800   81.7372  223.4614 H   0  0  0  0  0  0  0  0  0  0  0  0
  140.8758   82.0077  224.3775 H   0  0  0  0  0  0  0  0  0  0  0  0
  140.9182   81.7738  222.6382 H   0  0  0  0  0  0  0  0  0  0  0  0
  140.7489   79.4058  224.6401 H   0  0  0  0  0  0  0  0  0  0  0  0
  139.2892   80.1584  223.9857 H   0  0  0  0  0  0  0  0  0  0  0  0
  139.2299   70.3341  221.8689 H   0  0  0  0  0  0  0  0  0  0  0  0
  139.1331   68.7096  223.7048 H   0  0  0  0  0  0  0  0  0  0  0  0
  139.6117   68.2053  226.0551 H   0  0  0  0  0  0  0  0  0  0  0  0
  141.4581   71.1651  228.5358 H   0  0  0  0  0  0  0  0  0  0  0  0
  141.5292   72.7654  226.6218 H   0  0  0  0  0  0  0  0  0  0  0  0
  1  2  2  0
  2  3  1  0
  3  4  1  0
  4  5  1  0
  5  6  2  0
  5  7  1  0
  7  8  1  0
  8  9  1  0
  9 10  1  0
 10 11  1  0
 11 12  1  0
 12 13  1  0
 13 14  1  0
 14 15  1  0
 15 16  1  0
 16 17  1  0
  2 18  1  0
 18 19  2  0
 19 20  1  0
 20 21  2  0
 21 22  1  0
 22 23  2  0
 23 24  1  0
 23 25  1  0
 25 26  2  0
 26 27  1  0
 27 28  2  0
 11  7  1  0
 17 12  1  0
 28 18  1  0
 27 21  1  0
  3 29  1  0
  4 30  1  0
  4 31  1  0
  8 32  1  0
  8 33  1  0
  9 34  1  0
  9 35  1  0
 10 36  1  0
 10 37  1  0
 11 38  1  1
 12 39  1  0
 13 40  1  0
 13 41  1  0
 14 42  1  0
 14 43  1  0
 15 44  1  0
 15 45  1  0
 16 46  1  0
 16 47  1  0
 17 48  1  0
 17 49  1  0
 19 50  1  0
 20 51  1  0
 22 52  1  0
 25 53  1  0
 26 54  1  0
M  END
>  <smiles>  (27) 
O=C(NCC(=O)N1CCCC1C1CCCCC1)c1ccc2cc(Cl)ccc2n1

>  <score_type>  (27) 
oracle

>  <origin>  (27) 
autodockgpu

>  <m_score__min__energy>  (27) 
-8.9700000000000006

>  <m_primary>  (27) 
energy

>  <rmsd>  (27) 
2.9216620287068173

>  <m_score__min__rmsd>  (27) 
2.9216620287068173

>  <meeko>  (27) 
{"free_energy": -8.66, "intermolecular_energy": -10.15, "internal_energy": -1.32, "cluster_size": 32, "cluster_id": 1, "rank_in_cluster": 14}

>  <energy>  (27) 
-8.18

>  <cluster_rmsd>  (27) 
0.88

>  <cluster>  (27) 
1

$$$$

     RDKit          3D

 54 57  0  0  0  0  0  0  0  0999 V2000
  138.6980   71.8250  220.9670 O   0  0  0  0  0  0  0  0  0  0  0  0
  139.0900   72.2800  222.0890 C   0  0  0  0  0  0  0  0  0  0  0  0
  139.1900   73.6970  222.1790 N   0  0  0  0  0  0  0  0  0  0  0  0
  138.8500   74.4750  221.0270 C   0  0  0  0  0  0  0  0  0  0  0  0
  139.1090   75.9170  221.1930 C   0  0  0  0  0  0  0  0  0  0  0  0
  138.2160   76.7160  221.5740 O   0  0  0  0  0  0  0  0  0  0  0  0
  140.4220   76.3870  220.9030 N   0  0  0  0  0  0  0  0  0  0  0  0
  141.6820   75.6500  220.9440 C   0  0  0  0  0  0  0  0  0  0  0  0
  142.5330   76.2800  219.8370 C   0  0  0  0  0  0  0  0  0  0  0  0
  141.6680   77.3910  219.2890 C   0  0  0  0  0  0  0  0  0  0  0  0
  140.8230   77.7400  220.4900 C   0  0  2  0  0  0  0  0  0  0  0  0
  141.6420   78.3930  221.5870 C   0  0  0  0  0  0  0  0  0  0  0  0
  141.0360   78.1530  222.9100 C   0  0  0  0  0  0  0  0  0  0  0  0
  140.9500   79.2890  223.8550 C   0  0  0  0  0  0  0  0  0  0  0  0
  141.6560   80.5440  223.5030 C   0  0  0  0  0  0  0  0  0  0  0  0
  142.6770   80.4200  222.4000 C   0  0  0  0  0  0  0  0  0  0  0  0
  141.8760   79.8310  221.2290 C   0  0  0  0  0  0  0  0  0  0  0  0
  139.4140   71.4090  223.2080 C   0  0  0  0  0  0  0  0  0  0  0  0
  139.1300   70.0640  223.0850 C   0  0  0  0  0  0  0  0  0  0  0  0
  139.3930   69.1660  224.0700 C   0  0  0  0  0  0  0  0  0  0  0  0
  139.9670   69.6310  225.2370 C   0  0  0  0  0  0  0  0  0  0  0  0
  140.2660   68.7830  226.2850 C   0  0  0  0  0  0  0  0  0  0  0  0
  140.8380   69.2590  227.4430 C   0  0  0  0  0  0  0  0  0  0  0  0
  141.1850   68.1160  228.7260 Cl  0  0  0  0  0  0  0  0  0  0  0  0
  141.1170   70.6080  227.5540 C   0  0  0  0  0  0  0  0  0  0  0  0
  140.8310   71.4940  226.5190 C   0  0  0  0  0  0  0  0  0  0  0  0
  140.2580   70.9910  225.3710 C   0  0  0  0  0  0  0  0  0  0  0  0
  139.9730   71.8440  224.3510 N   0  0  0  0  0  0  0  0  0  0  0  0
  139.5110   74.1370  223.0930 H   0  0  0  0  0  0  0  0  0  0  0  0
  139.4418   74.1110  220.1742 H   0  0  0  0  0  0  0  0  0  0  0  0
  137.7683   74.3574  220.8652 H   0  0  0  0  0  0  0  0  0  0  0  0
  142.1692   75.7677  221.9232 H   0  0  0  0  0  0  0  0  0  0  0  0
  141.5387   74.5694  220.7967 H   0  0  0  0  0  0  0  0  0  0  0  0
  143.4708   76.6825  220.2476 H   0  0  0  0  0  0  0  0  0  0  0  0
  142.8234   75.5529  219.0643 H   0  0  0  0  0  0  0  0  0  0  0  0
  142.2751   78.2483  218.9628 H   0  0  0  0  0  0  0  0  0  0  0  0
  141.0857   77.1070  218.4000 H   0  0  0  0  0  0  0  0  0  0  0  0
  140.0083   78.4501  220.2847 H   0  0  0  0  0  0  0  0  0  0  0  0
  142.6388   77.9350  221.6683 H   0  0  0  0  0  0  0  0  0  0  0  0
  140.0110   77.7924  222.7389 H   0  0  0  0  0  0  0  0  0  0  0  0
  141.7190   77.4425  223.3985 H   0  0  0  0  0  0  0  0  0  0  0  0
  139.8846   79.5356  223.9734 H   0  0  0  0  0  0  0  0  0  0  0  0
  141.4619   78.9314  224.7606 H   0  0  0  0  0  0  0  0  0  0  0  0
  140.9027   81.2811  223.1879 H   0  0  0  0  0  0  0  0  0  0  0  0
  142.2141   80.8424  224.4027 H   0  0  0  0  0  0  0  0  0  0  0  0
  143.0915   81.4042  222.1363 H   0  0  0  0  0  0  0  0  0  0  0  0
  143.5385   79.7977  222.6837 H   0  0  0  0  0  0  0  0  0  0  0  0
  140.9181   80.3594  221.1141 H   0  0  0  0  0  0  0  0  0  0  0  0
  142.4139   79.9318  220.2748 H   0  0  0  0  0  0  0  0  0  0  0  0
  138.6722   69.7045  222.1517 H   0  0  0  0  0  0  0  0  0  0  0  0
  139.1557   68.0996  223.9418 H   0  0  0  0  0  0  0  0  0  0  0  0
  140.0435   67.7097  226.1929 H   0  0  0  0  0  0  0  0  0  0  0  0
  141.5743   70.9894  228.4789 H   0  0  0  0  0  0  0  0  0  0  0  0
  141.0562   72.5664  226.6149 H   0  0  0  0  0  0  0  0  0  0  0  0
  1  2  2  0
  2  3  1  0
  3  4  1  0
  4  5  1  0
  5  6  2  0
  5  7  1  0
  7  8  1  0
  8  9  1  0
  9 10  1  0
 10 11  1  0
 11 12  1  0
 12 13  1  0
 13 14  1  0
 14 15  1  0
 15 16  1  0
 16 17  1  0
  2 18  1  0
 18 19  2  0
 19 20  1  0
 20 21  2  0
 21 22  1  0
 22 23  2  0
 23 24  1  0
 23 25  1  0
 25 26  2  0
 26 27  1  0
 27 28  2  0
 11  7  1  0
 17 12  1  0
 28 18  1  0
 27 21  1  0
  3 29  1  0
  4 30  1  0
  4 31  1  0
  8 32  1  0
  8 33  1  0
  9 34  1  0
  9 35  1  0
 10 36  1  0
 10 37  1  0
 11 38  1  6
 12 39  1  0
 13 40  1  0
 13 41  1  0
 14 42  1  0
 14 43  1  0
 15 44  1  0
 15 45  1  0
 16 46  1  0
 16 47  1  0
 17 48  1  0
 17 49  1  0
 19 50  1  0
 20 51  1  0
 22 52  1  0
 25 53  1  0
 26 54  1  0
M  END
>  <smiles>  (28) 
O=C(NCC(=O)N1CCCC1C1CCCCC1)c1ccc2cc(Cl)ccc2n1

>  <score_type>  (28) 
oracle

>  <origin>  (28) 
autodockgpu

>  <m_score__min__energy>  (28) 
-8.9700000000000006

>  <m_primary>  (28) 
energy

>  <rmsd>  (28) 
1.930929687192417

>  <m_score__min__rmsd>  (28) 
1.930929687192417

>  <meeko>  (28) 
{"free_energy": -8.6, "intermolecular_energy": -10.09, "internal_energy": -1.44, "cluster_size": 32, "cluster_id": 1, "rank_in_cluster": 17}

>  <energy>  (28) 
-8.14

>  <cluster_rmsd>  (28) 
1.12

>  <cluster>  (28) 
1

$$$$

     RDKit          3D

 54 57  0  0  0  0  0  0  0  0999 V2000
  137.8900   71.2670  221.0450 O   0  0  0  0  0  0  0  0  0  0  0  0
  138.3460   71.8070  222.1030 C   0  0  0  0  0  0  0  0  0  0  0  0
  138.3670   73.2290  222.1110 N   0  0  0  0  0  0  0  0  0  0  0  0
  137.8850   73.9210  220.9530 C   0  0  0  0  0  0  0  0  0  0  0  0
  138.9440   74.2530  219.9820 C   0  0  0  0  0  0  0  0  0  0  0  0
  138.7970   74.0710  218.7470 O   0  0  0  0  0  0  0  0  0  0  0  0
  140.1580   74.7950  220.4930 N   0  0  0  0  0  0  0  0  0  0  0  0
  141.2210   74.1140  221.2270 C   0  0  0  0  0  0  0  0  0  0  0  0
  142.5050   74.8380  220.8050 C   0  0  0  0  0  0  0  0  0  0  0  0
  142.0270   75.9350  219.8820 C   0  0  0  0  0  0  0  0  0  0  0  0
  140.6320   76.1840  220.4020 C   0  0  2  0  0  0  0  0  0  0  0  0
  140.6460   76.8160  221.7800 C   0  0  0  0  0  0  0  0  0  0  0  0
  139.2770   76.9510  222.3110 C   0  0  0  0  0  0  0  0  0  0  0  0
  138.9060   78.2230  222.9700 C   0  0  0  0  0  0  0  0  0  0  0  0
  139.9810   79.2080  223.2420 C   0  0  0  0  0  0  0  0  0  0  0  0
  141.3860   78.6690  223.1440 C   0  0  0  0  0  0  0  0  0  0  0  0
  141.4520   78.0810  221.7270 C   0  0  0  0  0  0  0  0  0  0  0  0
  138.8150   71.0210  223.2340 C   0  0  0  0  0  0  0  0  0  0  0  0
  138.5220   69.6720  223.2500 C   0  0  0  0  0  0  0  0  0  0  0  0
  138.9130   68.8490  224.2580 C   0  0  0  0  0  0  0  0  0  0  0  0
  139.6310   69.3970  225.3030 C   0  0  0  0  0  0  0  0  0  0  0  0
  140.0650   68.6280  226.3650 C   0  0  0  0  0  0  0  0  0  0  0  0
  140.7810   69.1860  227.4000 C   0  0  0  0  0  0  0  0  0  0  0  0
  141.2940   68.1410  228.7100 Cl  0  0  0  0  0  0  0  0  0  0  0  0
  141.0670   70.5380  227.3720 C   0  0  0  0  0  0  0  0  0  0  0  0
  140.6460   71.3460  226.3190 C   0  0  0  0  0  0  0  0  0  0  0  0
  139.9320   70.7610  225.2950 C   0  0  0  0  0  0  0  0  0  0  0  0
  139.5150   71.5360  224.2590 N   0  0  0  0  0  0  0  0  0  0  0  0
  138.7360   73.7380  222.9690 H   0  0  0  0  0  0  0  0  0  0  0  0
  137.1406   73.2847  220.4521 H   0  0  0  0  0  0  0  0  0  0  0  0
  137.4553   74.8721  221.3004 H   0  0  0  0  0  0  0  0  0  0  0  0
  141.0630   74.2034  222.3119 H   0  0  0  0  0  0  0  0  0  0  0  0
  141.2570   73.0368  221.0069 H   0  0  0  0  0  0  0  0  0  0  0  0
  143.0196   75.2614  221.6802 H   0  0  0  0  0  0  0  0  0  0  0  0
  143.2277   74.1652  220.3202 H   0  0  0  0  0  0  0  0  0  0  0  0
  142.6542   76.8344  219.9692 H   0  0  0  0  0  0  0  0  0  0  0  0
  142.0659   75.6702  218.8151 H   0  0  0  0  0  0  0  0  0  0  0  0
  140.0297   76.8668  219.7847 H   0  0  0  0  0  0  0  0  0  0  0  0
  141.1484   76.1671  222.5125 H   0  0  0  0  0  0  0  0  0  0  0  0
  138.5845   76.8056  221.4688 H   0  0  0  0  0  0  0  0  0  0  0  0
  139.2202   76.2009  223.1136 H   0  0  0  0  0  0  0  0  0  0  0  0
  138.1632   78.7190  222.3280 H   0  0  0  0  0  0  0  0  0  0  0  0
  138.5520   77.9218  223.9670 H   0  0  0  0  0  0  0  0  0  0  0  0
  139.8806   80.0299  222.5178 H   0  0  0  0  0  0  0  0  0  0  0  0
  139.8477   79.5242  224.2871 H   0  0  0  0  0  0  0  0  0  0  0  0
  142.1248   79.4743  223.2694 H   0  0  0  0  0  0  0  0  0  0  0  0
  141.6137   77.9278  223.9242 H   0  0  0  0  0  0  0  0  0  0  0  0
  141.0188   78.7827  220.9990 H   0  0  0  0  0  0  0  0  0  0  0  0
  142.4886   77.8915  221.4116 H   0  0  0  0  0  0  0  0  0  0  0  0
  137.9490   69.2463  222.4131 H   0  0  0  0  0  0  0  0  0  0  0  0
  138.6649   67.7775  224.2423 H   0  0  0  0  0  0  0  0  0  0  0  0
  139.8349   67.5525  226.3841 H   0  0  0  0  0  0  0  0  0  0  0  0
  141.6390   70.9849  228.1986 H   0  0  0  0  0  0  0  0  0  0  0  0
  140.8767   72.4214  226.3046 H   0  0  0  0  0  0  0  0  0  0  0  0
  1  2  2  0
  2  3  1  0
  3  4  1  0
  4  5  1  0
  5  6  2  0
  5  7  1  0
  7  8  1  0
  8  9  1  0
  9 10  1  0
 10 11  1  0
 11 12  1  0
 12 13  1  0
 13 14  1  0
 14 15  1  0
 15 16  1  0
 16 17  1  0
  2 18  1  0
 18 19  2  0
 19 20  1  0
 20 21  2  0
 21 22  1  0
 22 23  2  0
 23 24  1  0
 23 25  1  0
 25 26  2  0
 26 27  1  0
 27 28  2  0
 11  7  1  0
 17 12  1  0
 28 18  1  0
 27 21  1  0
  3 29  1  0
  4 30  1  0
  4 31  1  0
  8 32  1  0
  8 33  1  0
  9 34  1  0
  9 35  1  0
 10 36  1  0
 10 37  1  0
 11 38  1  6
 12 39  1  0
 13 40  1  0
 13 41  1  0
 14 42  1  0
 14 43  1  0
 15 44  1  0
 15 45  1  0
 16 46  1  0
 16 47  1  0
 17 48  1  0
 17 49  1  0
 19 50  1  0
 20 51  1  0
 22 52  1  0
 25 53  1  0
 26 54  1  0
M  END
>  <smiles>  (29) 
O=C(NCC(=O)N1CCCC1C1CCCCC1)c1ccc2cc(Cl)ccc2n1

>  <score_type>  (29) 
oracle

>  <origin>  (29) 
autodockgpu

>  <m_score__min__energy>  (29) 
-8.9700000000000006

>  <m_primary>  (29) 
energy

>  <rmsd>  (29) 
2.0448437221452793

>  <m_score__min__rmsd>  (29) 
2.0448437221452793

>  <meeko>  (29) 
{"free_energy": -7.6, "intermolecular_energy": -9.09, "internal_energy": -1.71, "cluster_size": 32, "cluster_id": 1, "rank_in_cluster": 32}

>  <energy>  (29) 
-8.12

>  <cluster_rmsd>  (29) 
1.48

>  <cluster>  (29) 
1

$$$$

     RDKit          3D

 54 57  0  0  0  0  0  0  0  0999 V2000
  140.0030   72.1240  220.7720 O   0  0  0  0  0  0  0  0  0  0  0  0
  139.7470   72.5010  221.9600 C   0  0  0  0  0  0  0  0  0  0  0  0
  139.3180   73.8510  222.1010 N   0  0  0  0  0  0  0  0  0  0  0  0
  139.2120   74.6550  220.9210 C   0  0  0  0  0  0  0  0  0  0  0  0
  139.3730   76.0980  221.1750 C   0  0  0  0  0  0  0  0  0  0  0  0
  138.4700   76.7850  221.7150 O   0  0  0  0  0  0  0  0  0  0  0  0
  140.6030   76.7010  220.7850 N   0  0  0  0  0  0  0  0  0  0  0  0
  141.8790   76.0560  220.4870 C   0  0  0  0  0  0  0  0  0  0  0  0
  142.5140   76.9390  219.4080 C   0  0  0  0  0  0  0  0  0  0  0  0
  141.5310   78.0720  219.2270 C   0  0  0  0  0  0  0  0  0  0  0  0
  140.8820   78.1320  220.5890 C   0  0  2  0  0  0  0  0  0  0  0  0
  141.8440   78.6200  221.6540 C   0  0  0  0  0  0  0  0  0  0  0  0
  141.4250   78.1650  222.9920 C   0  0  0  0  0  0  0  0  0  0  0  0
  141.4720   79.1370  224.1070 C   0  0  0  0  0  0  0  0  0  0  0  0
  142.1260   80.4450  223.8650 C   0  0  0  0  0  0  0  0  0  0  0  0
  142.9850   80.5160  222.6280 C   0  0  0  0  0  0  0  0  0  0  0  0
  142.0310   80.1020  221.4980 C   0  0  0  0  0  0  0  0  0  0  0  0
  139.8840   71.6100  223.1020 C   0  0  0  0  0  0  0  0  0  0  0  0
  139.4930   70.2960  222.9470 C   0  0  0  0  0  0  0  0  0  0  0  0
  139.5790   69.3830  223.9500 C   0  0  0  0  0  0  0  0  0  0  0  0
  140.0800   69.8000  225.1680 C   0  0  0  0  0  0  0  0  0  0  0  0
  140.2000   68.9340  226.2360 C   0  0  0  0  0  0  0  0  0  0  0  0
  140.7020   69.3620  227.4450 C   0  0  0  0  0  0  0  0  0  0  0  0
  140.8210   68.1990  228.7510 Cl  0  0  0  0  0  0  0  0  0  0  0  0
  141.0900   70.6800  227.5860 C   0  0  0  0  0  0  0  0  0  0  0  0
  140.9850   71.5840  226.5320 C   0  0  0  0  0  0  0  0  0  0  0  0
  140.4790   71.1280  225.3330 C   0  0  0  0  0  0  0  0  0  0  0  0
  140.3700   71.9980  224.2940 N   0  0  0  0  0  0  0  0  0  0  0  0
  139.0890   74.2240  223.0700 H   0  0  0  0  0  0  0  0  0  0  0  0
  139.9911   74.3374  220.2124 H   0  0  0  0  0  0  0  0  0  0  0  0
  138.1981   74.5086  220.5204 H   0  0  0  0  0  0  0  0  0  0  0  0
  142.5151   76.0202  221.3837 H   0  0  0  0  0  0  0  0  0  0  0  0
  141.7533   75.0151  220.1543 H   0  0  0  0  0  0  0  0  0  0  0  0
  143.4907   77.3199  219.7412 H   0  0  0  0  0  0  0  0  0  0  0  0
  142.7008   76.3911  218.4727 H   0  0  0  0  0  0  0  0  0  0  0  0
  142.0447   79.0142  218.9854 H   0  0  0  0  0  0  0  0  0  0  0  0
  140.8218   77.9210  218.3998 H   0  0  0  0  0  0  0  0  0  0  0  0
  140.0201   78.8124  220.6542 H   0  0  0  0  0  0  0  0  0  0  0  0
  142.8410   78.1730  221.5269 H   0  0  0  0  0  0  0  0  0  0  0  0
  140.3854   77.8158  222.9072 H   0  0  0  0  0  0  0  0  0  0  0  0
  142.1673   77.4005  223.2650 H   0  0  0  0  0  0  0  0  0  0  0  0
  140.4334   79.3414  224.4063 H   0  0  0  0  0  0  0  0  0  0  0  0
  142.1023   78.6520  224.8669 H   0  0  0  0  0  0  0  0  0  0  0  0
  141.3383   81.2077  223.7762 H   0  0  0  0  0  0  0  0  0  0  0  0
  142.8035   80.6087  224.7160 H   0  0  0  0  0  0  0  0  0  0  0  0
  143.3608   81.5376  222.4695 H   0  0  0  0  0  0  0  0  0  0  0  0
  143.8760   79.8739  222.6903 H   0  0  0  0  0  0  0  0  0  0  0  0
  141.0677   80.6237  221.5976 H   0  0  0  0  0  0  0  0  0  0  0  0
  142.4345   80.3606  220.5079 H   0  0  0  0  0  0  0  0  0  0  0  0
  139.0959   69.9746  221.9729 H   0  0  0  0  0  0  0  0  0  0  0  0
  139.2589   68.3419  223.7964 H   0  0  0  0  0  0  0  0  0  0  0  0
  139.8897   67.8851  226.1197 H   0  0  0  0  0  0  0  0  0  0  0  0
  141.4905   71.0229  228.5514 H   0  0  0  0  0  0  0  0  0  0  0  0
  141.2968   72.6320  226.6524 H   0  0  0  0  0  0  0  0  0  0  0  0
  1  2  2  0
  2  3  1  0
  3  4  1  0
  4  5  1  0
  5  6  2  0
  5  7  1  0
  7  8  1  0
  8  9  1  0
  9 10  1  0
 10 11  1  0
 11 12  1  0
 12 13  1  0
 13 14  1  0
 14 15  1  0
 15 16  1  0
 16 17  1  0
  2 18  1  0
 18 19  2  0
 19 20  1  0
 20 21  2  0
 21 22  1  0
 22 23  2  0
 23 24  1  0
 23 25  1  0
 25 26  2  0
 26 27  1  0
 27 28  2  0
 11  7  1  0
 17 12  1  0
 28 18  1  0
 27 21  1  0
  3 29  1  0
  4 30  1  0
  4 31  1  0
  8 32  1  0
  8 33  1  0
  9 34  1  0
  9 35  1  0
 10 36  1  0
 10 37  1  0
 11 38  1  6
 12 39  1  0
 13 40  1  0
 13 41  1  0
 14 42  1  0
 14 43  1  0
 15 44  1  0
 15 45  1  0
 16 46  1  0
 16 47  1  0
 17 48  1  0
 17 49  1  0
 19 50  1  0
 20 51  1  0
 22 52  1  0
 25 53  1  0
 26 54  1  0
M  END
>  <smiles>  (30) 
O=C(NCC(=O)N1CCCC1C1CCCCC1)c1ccc2cc(Cl)ccc2n1

>  <score_type>  (30) 
oracle

>  <origin>  (30) 
autodockgpu

>  <m_score__min__energy>  (30) 
-8.9700000000000006

>  <m_primary>  (30) 
energy

>  <rmsd>  (30) 
2.015165765743698

>  <m_score__min__rmsd>  (30) 
2.015165765743698

>  <meeko>  (30) 
{"free_energy": -8.97, "intermolecular_energy": -10.46, "internal_energy": -1.41, "cluster_size": 32, "cluster_id": 1, "rank_in_cluster": 2}

>  <energy>  (30) 
-8.04

>  <cluster_rmsd>  (30) 
1.52

>  <cluster>  (30) 
1

$$$$

     RDKit          3D

 54 57  0  0  0  0  0  0  0  0999 V2000
  140.2000   72.3200  220.8690 O   0  0  0  0  0  0  0  0  0  0  0  0
  139.6230   72.5180  221.9850 C   0  0  0  0  0  0  0  0  0  0  0  0
  138.7940   73.6730  222.0550 N   0  0  0  0  0  0  0  0  0  0  0  0
  138.6820   74.4980  220.8900 C   0  0  0  0  0  0  0  0  0  0  0  0
  138.8710   75.9340  221.1650 C   0  0  0  0  0  0  0  0  0  0  0  0
  137.9220   76.6750  221.5250 O   0  0  0  0  0  0  0  0  0  0  0  0
  140.1830   76.4670  221.0070 N   0  0  0  0  0  0  0  0  0  0  0  0
  141.4620   75.7620  221.0450 C   0  0  0  0  0  0  0  0  0  0  0  0
  142.3540   76.5320  220.0650 C   0  0  0  0  0  0  0  0  0  0  0  0
  141.4860   77.6720  219.5880 C   0  0  0  0  0  0  0  0  0  0  0  0
  140.5630   77.8670  220.7660 C   0  0  2  0  0  0  0  0  0  0  0  0
  141.2960   78.4170  221.9740 C   0  0  0  0  0  0  0  0  0  0  0  0
  140.3630   78.6620  223.0890 C   0  0  0  0  0  0  0  0  0  0  0  0
  140.4950   79.9270  223.8460 C   0  0  0  0  0  0  0  0  0  0  0  0
  141.6770   80.7800  223.5780 C   0  0  0  0  0  0  0  0  0  0  0  0
  142.7990   80.1070  222.8260 C   0  0  0  0  0  0  0  0  0  0  0  0
  142.1230   79.5940  221.5470 C   0  0  0  0  0  0  0  0  0  0  0  0
  139.7970   71.6220  223.1180 C   0  0  0  0  0  0  0  0  0  0  0  0
  139.4310   70.3010  222.9590 C   0  0  0  0  0  0  0  0  0  0  0  0
  139.5530   69.3830  223.9540 C   0  0  0  0  0  0  0  0  0  0  0  0
  140.0640   69.8010  225.1660 C   0  0  0  0  0  0  0  0  0  0  0  0
  140.2190   68.9300  226.2260 C   0  0  0  0  0  0  0  0  0  0  0  0
  140.7300   69.3600  227.4310 C   0  0  0  0  0  0  0  0  0  0  0  0
  140.8940   68.1900  228.7250 Cl  0  0  0  0  0  0  0  0  0  0  0  0
  141.0920   70.6860  227.5760 C   0  0  0  0  0  0  0  0  0  0  0  0
  140.9500   71.5940  226.5300 C   0  0  0  0  0  0  0  0  0  0  0  0
  140.4360   71.1370  225.3360 C   0  0  0  0  0  0  0  0  0  0  0  0
  140.2920   72.0120  224.3050 N   0  0  0  0  0  0  0  0  0  0  0  0
  138.2840   73.8920  222.9620 H   0  0  0  0  0  0  0  0  0  0  0  0
  139.4441   74.1795  220.1635 H   0  0  0  0  0  0  0  0  0  0  0  0
  137.6594   74.3747  220.5038 H   0  0  0  0  0  0  0  0  0  0  0  0
  141.8884   75.7845  222.0588 H   0  0  0  0  0  0  0  0  0  0  0  0
  141.3626   74.7004  220.7745 H   0  0  0  0  0  0  0  0  0  0  0  0
  143.2528   76.9124  220.5724 H   0  0  0  0  0  0  0  0  0  0  0  0
  142.7120   75.9014  219.2378 H   0  0  0  0  0  0  0  0  0  0  0  0
  142.0823   78.5753  219.3919 H   0  0  0  0  0  0  0  0  0  0  0  0
  140.9646   77.4703  218.6406 H   0  0  0  0  0  0  0  0  0  0  0  0
  139.7394   78.5743  220.5888 H   0  0  0  0  0  0  0  0  0  0  0  0
  142.0042   77.6804  222.3813 H   0  0  0  0  0  0  0  0  0  0  0  0
  139.3446   78.6349  222.6741 H   0  0  0  0  0  0  0  0  0  0  0  0
  140.6035   77.8787  223.8229 H   0  0  0  0  0  0  0  0  0  0  0  0
  139.6009   80.5309  223.6317 H   0  0  0  0  0  0  0  0  0  0  0  0
  140.6181   79.6089  224.8918 H   0  0  0  0  0  0  0  0  0  0  0  0
  141.3442   81.6468  222.9882 H   0  0  0  0  0  0  0  0  0  0  0  0
  142.0881   81.0492  224.5622 H   0  0  0  0  0  0  0  0  0  0  0  0
  143.5972   80.8252  222.5869 H   0  0  0  0  0  0  0  0  0  0  0  0
  143.2797   79.3050  223.4053 H   0  0  0  0  0  0  0  0  0  0  0  0
  141.4832   80.3752  221.1107 H   0  0  0  0  0  0  0  0  0  0  0  0
  142.8603   79.3172  220.7790 H   0  0  0  0  0  0  0  0  0  0  0  0
  139.0246   69.9783  221.9891 H   0  0  0  0  0  0  0  0  0  0  0  0
  139.2529   68.3364  223.7976 H   0  0  0  0  0  0  0  0  0  0  0  0
  139.9297   67.8755  226.1064 H   0  0  0  0  0  0  0  0  0  0  0  0
  141.5006   71.0310  228.5373 H   0  0  0  0  0  0  0  0  0  0  0  0
  141.2403   72.6478  226.6535 H   0  0  0  0  0  0  0  0  0  0  0  0
  1  2  2  0
  2  3  1  0
  3  4  1  0
  4  5  1  0
  5  6  2  0
  5  7  1  0
  7  8  1  0
  8  9  1  0
  9 10  1  0
 10 11  1  0
 11 12  1  0
 12 13  1  0
 13 14  1  0
 14 15  1  0
 15 16  1  0
 16 17  1  0
  2 18  1  0
 18 19  2  0
 19 20  1  0
 20 21  2  0
 21 22  1  0
 22 23  2  0
 23 24  1  0
 23 25  1  0
 25 26  2  0
 26 27  1  0
 27 28  2  0
 11  7  1  0
 17 12  1  0
 28 18  1  0
 27 21  1  0
  3 29  1  0
  4 30  1  0
  4 31  1  0
  8 32  1  0
  8 33  1  0
  9 34  1  0
  9 35  1  0
 10 36  1  0
 10 37  1  0
 11 38  1  6
 12 39  1  0
 13 40  1  0
 13 41  1  0
 14 42  1  0
 14 43  1  0
 15 44  1  0
 15 45  1  0
 16 46  1  0
 16 47  1  0
 17 48  1  0
 17 49  1  0
 19 50  1  0
 20 51  1  0
 22 52  1  0
 25 53  1  0
 26 54  1  0
M  END
>  <smiles>  (31) 
O=C(NCC(=O)N1CCCC1C1CCCCC1)c1ccc2cc(Cl)ccc2n1

>  <score_type>  (31) 
oracle

>  <origin>  (31) 
autodockgpu

>  <m_score__min__energy>  (31) 
-8.9700000000000006

>  <m_primary>  (31) 
energy

>  <rmsd>  (31) 
2.016099363686224

>  <m_score__min__rmsd>  (31) 
2.016099363686224

>  <meeko>  (31) 
{"free_energy": -8.78, "intermolecular_energy": -10.27, "internal_energy": -1.4, "cluster_size": 32, "cluster_id": 1, "rank_in_cluster": 8}

>  <energy>  (31) 
-7.88

>  <cluster_rmsd>  (31) 
1.81

>  <cluster>  (31) 
1

$$$$

     RDKit          3D

 54 57  0  0  0  0  0  0  0  0999 V2000
  139.4310   71.9010  220.7170 O   0  0  0  0  0  0  0  0  0  0  0  0
  139.3380   72.3210  221.9140 C   0  0  0  0  0  0  0  0  0  0  0  0
  138.9810   73.6910  222.0610 N   0  0  0  0  0  0  0  0  0  0  0  0
  138.7610   74.4650  220.8770 C   0  0  0  0  0  0  0  0  0  0  0  0
  138.9360   75.9150  221.0800 C   0  0  0  0  0  0  0  0  0  0  0  0
  137.9710   76.6700  221.3610 O   0  0  0  0  0  0  0  0  0  0  0  0
  140.2520   76.4440  220.9480 N   0  0  0  0  0  0  0  0  0  0  0  0
  141.5280   75.7340  221.0000 C   0  0  0  0  0  0  0  0  0  0  0  0
  142.4380   76.5080  220.0400 C   0  0  0  0  0  0  0  0  0  0  0  0
  141.5820   77.6570  219.5600 C   0  0  0  0  0  0  0  0  0  0  0  0
  140.6410   77.8440  220.7260 C   0  0  2  0  0  0  0  0  0  0  0  0
  141.3570   78.3810  221.9490 C   0  0  0  0  0  0  0  0  0  0  0  0
  140.4080   78.6180  223.0530 C   0  0  0  0  0  0  0  0  0  0  0  0
  140.5330   79.8760  223.8230 C   0  0  0  0  0  0  0  0  0  0  0  0
  141.7220   80.7270  223.5810 C   0  0  0  0  0  0  0  0  0  0  0  0
  142.8520   80.0580  222.8400 C   0  0  0  0  0  0  0  0  0  0  0  0
  142.1950   79.5590  221.5450 C   0  0  0  0  0  0  0  0  0  0  0  0
  139.5800   71.4580  223.0600 C   0  0  0  0  0  0  0  0  0  0  0  0
  139.2350   70.1260  222.9510 C   0  0  0  0  0  0  0  0  0  0  0  0
  139.4200   69.2360  223.9610 C   0  0  0  0  0  0  0  0  0  0  0  0
  139.9750   69.6960  225.1390 C   0  0  0  0  0  0  0  0  0  0  0  0
  140.1940   68.8550  226.2120 C   0  0  0  0  0  0  0  0  0  0  0  0
  140.7490   69.3260  227.3820 C   0  0  0  0  0  0  0  0  0  0  0  0
  140.9940   68.1940  228.6970 Cl  0  0  0  0  0  0  0  0  0  0  0  0
  141.0890   70.6620  227.4780 C   0  0  0  0  0  0  0  0  0  0  0  0
  140.8830   71.5410  226.4170 C   0  0  0  0  0  0  0  0  0  0  0  0
  140.3260   71.0420  225.2590 C   0  0  0  0  0  0  0  0  0  0  0  0
  140.1190   71.8880  224.2140 N   0  0  0  0  0  0  0  0  0  0  0  0
  138.8870   74.1010  223.0390 H   0  0  0  0  0  0  0  0  0  0  0  0
  139.4729   74.1330  220.1070 H   0  0  0  0  0  0  0  0  0  0  0  0
  137.7152   74.3048  220.5759 H   0  0  0  0  0  0  0  0  0  0  0  0
  141.9387   75.7470  222.0204 H   0  0  0  0  0  0  0  0  0  0  0  0
  141.4288   74.6750  220.7195 H   0  0  0  0  0  0  0  0  0  0  0  0
  143.3311   76.8796  220.5638 H   0  0  0  0  0  0  0  0  0  0  0  0
  142.8052   75.8829  219.2127 H   0  0  0  0  0  0  0  0  0  0  0  0
  142.1850   78.5597  219.3824 H   0  0  0  0  0  0  0  0  0  0  0  0
  141.0750   77.4671  218.6024 H   0  0  0  0  0  0  0  0  0  0  0  0
  139.8222   78.5554  220.5429 H   0  0  0  0  0  0  0  0  0  0  0  0
  142.0570   77.6389  222.3604 H   0  0  0  0  0  0  0  0  0  0  0  0
  139.3956   78.5975  222.6233 H   0  0  0  0  0  0  0  0  0  0  0  0
  140.6351   77.8271  223.7830 H   0  0  0  0  0  0  0  0  0  0  0  0
  139.6445   80.4851  223.6002 H   0  0  0  0  0  0  0  0  0  0  0  0
  140.6390   79.5482  224.8677 H   0  0  0  0  0  0  0  0  0  0  0  0
  141.4012   81.6007  222.9948 H   0  0  0  0  0  0  0  0  0  0  0  0
  142.1192   80.9848  224.5738 H   0  0  0  0  0  0  0  0  0  0  0  0
  143.6560   80.7759  222.6203 H   0  0  0  0  0  0  0  0  0  0  0  0
  143.3205   79.2485  223.4190 H   0  0  0  0  0  0  0  0  0  0  0  0
  141.5650   80.3463  221.1053 H   0  0  0  0  0  0  0  0  0  0  0  0
  142.9434   79.2866  220.7862 H   0  0  0  0  0  0  0  0  0  0  0  0
  138.7925   69.7707  222.0087 H   0  0  0  0  0  0  0  0  0  0  0  0
  139.1359   68.1798  223.8437 H   0  0  0  0  0  0  0  0  0  0  0  0
  139.9212   67.7924  226.1316 H   0  0  0  0  0  0  0  0  0  0  0  0
  141.5316   71.0393  228.4117 H   0  0  0  0  0  0  0  0  0  0  0  0
  141.1570   72.6030  226.5009 H   0  0  0  0  0  0  0  0  0  0  0  0
  1  2  2  0
  2  3  1  0
  3  4  1  0
  4  5  1  0
  5  6  2  0
  5  7  1  0
  7  8  1  0
  8  9  1  0
  9 10  1  0
 10 11  1  0
 11 12  1  0
 12 13  1  0
 13 14  1  0
 14 15  1  0
 15 16  1  0
 16 17  1  0
  2 18  1  0
 18 19  2  0
 19 20  1  0
 20 21  2  0
 21 22  1  0
 22 23  2  0
 23 24  1  0
 23 25  1  0
 25 26  2  0
 26 27  1  0
 27 28  2  0
 11  7  1  0
 17 12  1  0
 28 18  1  0
 27 21  1  0
  3 29  1  0
  4 30  1  0
  4 31  1  0
  8 32  1  0
  8 33  1  0
  9 34  1  0
  9 35  1  0
 10 36  1  0
 10 37  1  0
 11 38  1  6
 12 39  1  0
 13 40  1  0
 13 41  1  0
 14 42  1  0
 14 43  1  0
 15 44  1  0
 15 45  1  0
 16 46  1  0
 16 47  1  0
 17 48  1  0
 17 49  1  0
 19 50  1  0
 20 51  1  0
 22 52  1  0
 25 53  1  0
 26 54  1  0
M  END
>  <smiles>  (32) 
O=C(NCC(=O)N1CCCC1C1CCCCC1)c1ccc2cc(Cl)ccc2n1

>  <score_type>  (32) 
oracle

>  <origin>  (32) 
autodockgpu

>  <m_score__min__energy>  (32) 
-8.9700000000000006

>  <m_primary>  (32) 
energy

>  <rmsd>  (32) 
1.9768482455902598

>  <m_score__min__rmsd>  (32) 
1.9768482455902598

>  <meeko>  (32) 
{"free_energy": -8.71, "intermolecular_energy": -10.2, "internal_energy": -1.41, "cluster_size": 32, "cluster_id": 1, "rank_in_cluster": 12}

>  <energy>  (32) 
-7.6

>  <cluster_rmsd>  (32) 
1.5

>  <cluster>  (32) 
1

$$$$

     RDKit          3D

 54 57  0  0  0  0  0  0  0  0999 V2000
  140.4930   72.7010  221.0120 O   0  0  0  0  0  0  0  0  0  0  0  0
  139.8010   72.8100  222.0740 C   0  0  0  0  0  0  0  0  0  0  0  0
  138.9030   73.9130  222.1150 N   0  0  0  0  0  0  0  0  0  0  0  0
  138.8540   74.7900  220.9840 C   0  0  0  0  0  0  0  0  0  0  0  0
  139.1830   76.1900  221.3090 C   0  0  0  0  0  0  0  0  0  0  0  0
  138.3650   76.9510  221.8830 O   0  0  0  0  0  0  0  0  0  0  0  0
  140.4770   76.6620  220.9460 N   0  0  0  0  0  0  0  0  0  0  0  0
  141.7180   75.9020  220.8100 C   0  0  0  0  0  0  0  0  0  0  0  0
  142.4850   76.6160  219.6920 C   0  0  0  0  0  0  0  0  0  0  0  0
  141.6030   77.7860  219.3230 C   0  0  0  0  0  0  0  0  0  0  0  0
  140.8740   78.0390  220.6210 C   0  0  2  0  0  0  0  0  0  0  0  0
  141.8010   78.5760  221.6940 C   0  0  0  0  0  0  0  0  0  0  0  0
  141.3380   78.1790  223.0360 C   0  0  0  0  0  0  0  0  0  0  0  0
  141.3470   79.1990  224.1090 C   0  0  0  0  0  0  0  0  0  0  0  0
  142.0080   80.4970  223.8320 C   0  0  0  0  0  0  0  0  0  0  0  0
  142.9070   80.5150  222.6210 C   0  0  0  0  0  0  0  0  0  0  0  0
  141.9910   80.0500  221.4800 C   0  0  0  0  0  0  0  0  0  0  0  0
  139.9190   71.8680  223.1760 C   0  0  0  0  0  0  0  0  0  0  0  0
  139.5140   70.5660  222.9600 C   0  0  0  0  0  0  0  0  0  0  0  0
  139.5820   69.6090  223.9220 C   0  0  0  0  0  0  0  0  0  0  0  0
  140.0790   69.9650  225.1600 C   0  0  0  0  0  0  0  0  0  0  0  0
  140.1800   69.0510  226.1900 C   0  0  0  0  0  0  0  0  0  0  0  0
  140.6770   69.4190  227.4210 C   0  0  0  0  0  0  0  0  0  0  0  0
  140.7730   68.1980  228.6740 Cl  0  0  0  0  0  0  0  0  0  0  0  0
  141.0790   70.7250  227.6230 C   0  0  0  0  0  0  0  0  0  0  0  0
  140.9920   71.6760  226.6100 C   0  0  0  0  0  0  0  0  0  0  0  0
  140.4910   71.2800  225.3880 C   0  0  0  0  0  0  0  0  0  0  0  0
  140.4000   72.1970  224.3880 N   0  0  0  0  0  0  0  0  0  0  0  0
  138.2960   74.0570  222.9770 H   0  0  0  0  0  0  0  0  0  0  0  0
  139.5719   74.4293  220.2327 H   0  0  0  0  0  0  0  0  0  0  0  0
  137.8189   74.7795  220.6118 H   0  0  0  0  0  0  0  0  0  0  0  0
  142.2910   75.9221  221.7487 H   0  0  0  0  0  0  0  0  0  0  0  0
  141.5360   74.8416  220.5810 H   0  0  0  0  0  0  0  0  0  0  0  0
  143.4642   76.9645  220.0522 H   0  0  0  0  0  0  0  0  0  0  0  0
  142.6896   75.9571  218.8353 H   0  0  0  0  0  0  0  0  0  0  0  0
  142.2001   78.6592  219.0214 H   0  0  0  0  0  0  0  0  0  0  0  0
  140.9390   77.5931  218.4675 H   0  0  0  0  0  0  0  0  0  0  0  0
  140.0623   78.7783  220.5528 H   0  0  0  0  0  0  0  0  0  0  0  0
  142.8024   78.1270  221.6185 H   0  0  0  0  0  0  0  0  0  0  0  0
  140.3020   77.8242  222.9319 H   0  0  0  0  0  0  0  0  0  0  0  0
  142.0715   77.4289  223.3667 H   0  0  0  0  0  0  0  0  0  0  0  0
  140.2989   79.4139  224.3643 H   0  0  0  0  0  0  0  0  0  0  0  0
  141.9519   78.7489  224.9099 H   0  0  0  0  0  0  0  0  0  0  0  0
  141.2234   81.2537  223.6845 H   0  0  0  0  0  0  0  0  0  0  0  0
  142.6571   80.6994  224.6967 H   0  0  0  0  0  0  0  0  0  0  0  0
  143.2873   81.5293  222.4300 H   0  0  0  0  0  0  0  0  0  0  0  0
  143.7956   79.8778  222.7406 H   0  0  0  0  0  0  0  0  0  0  0  0
  141.0243   80.5729  221.5256 H   0  0  0  0  0  0  0  0  0  0  0  0
  142.4260   80.2665  220.4932 H   0  0  0  0  0  0  0  0  0  0  0  0
  139.1207   70.2926  221.9698 H   0  0  0  0  0  0  0  0  0  0  0  0
  139.2505   68.5797  223.7203 H   0  0  0  0  0  0  0  0  0  0  0  0
  139.8584   68.0121  226.0249 H   0  0  0  0  0  0  0  0  0  0  0  0
  141.4764   71.0199  228.6054 H   0  0  0  0  0  0  0  0  0  0  0  0
  141.3139   72.7141  226.7797 H   0  0  0  0  0  0  0  0  0  0  0  0
  1  2  2  0
  2  3  1  0
  3  4  1  0
  4  5  1  0
  5  6  2  0
  5  7  1  0
  7  8  1  0
  8  9  1  0
  9 10  1  0
 10 11  1  0
 11 12  1  0
 12 13  1  0
 13 14  1  0
 14 15  1  0
 15 16  1  0
 16 17  1  0
  2 18  1  0
 18 19  2  0
 19 20  1  0
 20 21  2  0
 21 22  1  0
 22 23  2  0
 23 24  1  0
 23 25  1  0
 25 26  2  0
 26 27  1  0
 27 28  2  0
 11  7  1  0
 17 12  1  0
 28 18  1  0
 27 21  1  0
  3 29  1  0
  4 30  1  0
  4 31  1  0
  8 32  1  0
  8 33  1  0
  9 34  1  0
  9 35  1  0
 10 36  1  0
 10 37  1  0
 11 38  1  6
 12 39  1  0
 13 40  1  0
 13 41  1  0
 14 42  1  0
 14 43  1  0
 15 44  1  0
 15 45  1  0
 16 46  1  0
 16 47  1  0
 17 48  1  0
 17 49  1  0
 19 50  1  0
 20 51  1  0
 22 52  1  0
 25 53  1  0
 26 54  1  0
M  END
>  <smiles>  (33) 
O=C(NCC(=O)N1CCCC1C1CCCCC1)c1ccc2cc(Cl)ccc2n1

>  <score_type>  (33) 
oracle

>  <origin>  (33) 
autodockgpu

>  <m_score__min__energy>  (33) 
-8.9700000000000006

>  <m_primary>  (33) 
energy

>  <rmsd>  (33) 
2.075427975584723

>  <m_score__min__rmsd>  (33) 
2.075427975584723

>  <meeko>  (33) 
{"free_energy": -8.96, "intermolecular_energy": -10.45, "internal_energy": -1.4, "cluster_size": 32, "cluster_id": 1, "rank_in_cluster": 4}

>  <energy>  (33) 
-8.52

>  <cluster_rmsd>  (33) 
0.0

>  <cluster>  (33) 
2

$$$$

     RDKit          3D

 54 57  0  0  0  0  0  0  0  0999 V2000
  140.9570   72.8410  221.2080 O   0  0  0  0  0  0  0  0  0  0  0  0
  140.0720   72.8350  222.1230 C   0  0  0  0  0  0  0  0  0  0  0  0
  139.0460   73.8120  221.9950 N   0  0  0  0  0  0  0  0  0  0  0  0
  139.0920   74.7020  220.8740 C   0  0  0  0  0  0  0  0  0  0  0  0
  139.2980   76.1130  221.2510 C   0  0  0  0  0  0  0  0  0  0  0  0
  138.4490   76.7550  221.9190 O   0  0  0  0  0  0  0  0  0  0  0  0
  140.5060   76.7370  220.8280 N   0  0  0  0  0  0  0  0  0  0  0  0
  141.7770   76.1110  220.4720 C   0  0  0  0  0  0  0  0  0  0  0  0
  142.3630   77.0220  219.3870 C   0  0  0  0  0  0  0  0  0  0  0  0
  141.3630   78.1470  219.2650 C   0  0  0  0  0  0  0  0  0  0  0  0
  140.7630   78.1730  220.6510 C   0  0  2  0  0  0  0  0  0  0  0  0
  141.7590   78.6520  221.6890 C   0  0  0  0  0  0  0  0  0  0  0  0
  141.3530   78.2300  223.0420 C   0  0  0  0  0  0  0  0  0  0  0  0
  141.4480   79.2180  224.1390 C   0  0  0  0  0  0  0  0  0  0  0  0
  142.1330   80.5030  223.8640 C   0  0  0  0  0  0  0  0  0  0  0  0
  142.9700   80.5300  222.6100 C   0  0  0  0  0  0  0  0  0  0  0  0
  141.9830   80.1250  221.5060 C   0  0  0  0  0  0  0  0  0  0  0  0
  140.1060   71.8890  223.2270 C   0  0  0  0  0  0  0  0  0  0  0  0
  139.6260   70.6150  223.0030 C   0  0  0  0  0  0  0  0  0  0  0  0
  139.6130   69.6560  223.9660 C   0  0  0  0  0  0  0  0  0  0  0  0
  140.1020   69.9830  225.2150 C   0  0  0  0  0  0  0  0  0  0  0  0
  140.1230   69.0660  226.2480 C   0  0  0  0  0  0  0  0  0  0  0  0
  140.6140   69.4050  227.4890 C   0  0  0  0  0  0  0  0  0  0  0  0
  140.6050   68.1820  228.7450 Cl  0  0  0  0  0  0  0  0  0  0  0  0
  141.0920   70.6840  227.7000 C   0  0  0  0  0  0  0  0  0  0  0  0
  141.0870   71.6370  226.6840 C   0  0  0  0  0  0  0  0  0  0  0  0
  140.5900   71.2700  225.4520 C   0  0  0  0  0  0  0  0  0  0  0  0
  140.5790   72.1890  224.4500 N   0  0  0  0  0  0  0  0  0  0  0  0
  138.2770   73.8550  222.7290 H   0  0  0  0  0  0  0  0  0  0  0  0
  139.9187   74.3927  220.2176 H   0  0  0  0  0  0  0  0  0  0  0  0
  138.1152   74.6406  220.3719 H   0  0  0  0  0  0  0  0  0  0  0  0
  142.4457   76.0653  221.3442 H   0  0  0  0  0  0  0  0  0  0  0  0
  141.6502   75.0750  220.1247 H   0  0  0  0  0  0  0  0  0  0  0  0
  143.3475   77.4069  219.6912 H   0  0  0  0  0  0  0  0  0  0  0  0
  142.5205   76.4943  218.4348 H   0  0  0  0  0  0  0  0  0  0  0  0
  141.8579   79.0994  219.0241 H   0  0  0  0  0  0  0  0  0  0  0  0
  140.6257   78.0046  218.4612 H   0  0  0  0  0  0  0  0  0  0  0  0
  139.8966   78.8416  220.7619 H   0  0  0  0  0  0  0  0  0  0  0  0
  142.7411   78.1765  221.5495 H   0  0  0  0  0  0  0  0  0  0  0  0
  140.3027   77.9086  222.9823 H   0  0  0  0  0  0  0  0  0  0  0  0
  142.0787   77.4493  223.3139 H   0  0  0  0  0  0  0  0  0  0  0  0
  140.4213   79.4561  224.4539 H   0  0  0  0  0  0  0  0  0  0  0  0
  142.0793   78.7278  224.8947 H   0  0  0  0  0  0  0  0  0  0  0  0
  141.3652   81.2860  223.7774 H   0  0  0  0  0  0  0  0  0  0  0  0
  142.8306   80.6614  224.6996 H   0  0  0  0  0  0  0  0  0  0  0  0
  143.3710   81.5379  222.4275 H   0  0  0  0  0  0  0  0  0  0  0  0
  143.8441   79.8645  222.6660 H   0  0  0  0  0  0  0  0  0  0  0  0
  141.0364   80.6744  221.6161 H   0  0  0  0  0  0  0  0  0  0  0  0
  142.3735   80.3571  220.5042 H   0  0  0  0  0  0  0  0  0  0  0  0
  139.2381   70.3653  222.0044 H   0  0  0  0  0  0  0  0  0  0  0  0
  139.2242   68.6486  223.7564 H   0  0  0  0  0  0  0  0  0  0  0  0
  139.7414   68.0487  226.0764 H   0  0  0  0  0  0  0  0  0  0  0  0
  141.4847   70.9554  228.6910 H   0  0  0  0  0  0  0  0  0  0  0  0
  141.4688   72.6535  226.8600 H   0  0  0  0  0  0  0  0  0  0  0  0
  1  2  2  0
  2  3  1  0
  3  4  1  0
  4  5  1  0
  5  6  2  0
  5  7  1  0
  7  8  1  0
  8  9  1  0
  9 10  1  0
 10 11  1  0
 11 12  1  0
 12 13  1  0
 13 14  1  0
 14 15  1  0
 15 16  1  0
 16 17  1  0
  2 18  1  0
 18 19  2  0
 19 20  1  0
 20 21  2  0
 21 22  1  0
 22 23  2  0
 23 24  1  0
 23 25  1  0
 25 26  2  0
 26 27  1  0
 27 28  2  0
 11  7  1  0
 17 12  1  0
 28 18  1  0
 27 21  1  0
  3 29  1  0
  4 30  1  0
  4 31  1  0
  8 32  1  0
  8 33  1  0
  9 34  1  0
  9 35  1  0
 10 36  1  0
 10 37  1  0
 11 38  1  6
 12 39  1  0
 13 40  1  0
 13 41  1  0
 14 42  1  0
 14 43  1  0
 15 44  1  0
 15 45  1  0
 16 46  1  0
 16 47  1  0
 17 48  1  0
 17 49  1  0
 19 50  1  0
 20 51  1  0
 22 52  1  0
 25 53  1  0
 26 54  1  0
M  END
>  <smiles>  (34) 
O=C(NCC(=O)N1CCCC1C1CCCCC1)c1ccc2cc(Cl)ccc2n1

>  <score_type>  (34) 
oracle

>  <origin>  (34) 
autodockgpu

>  <m_score__min__energy>  (34) 
-8.9700000000000006

>  <m_primary>  (34) 
energy

>  <rmsd>  (34) 
2.0775911995549947

>  <m_score__min__rmsd>  (34) 
2.0775911995549947

>  <meeko>  (34) 
{"free_energy": -8.97, "intermolecular_energy": -10.46, "internal_energy": -1.4, "cluster_size": 32, "cluster_id": 1, "rank_in_cluster": 3}

>  <energy>  (34) 
-8.51

>  <cluster_rmsd>  (34) 
0.07

>  <cluster>  (34) 
2

$$$$

     RDKit          3D

 54 57  0  0  0  0  0  0  0  0999 V2000
  139.1020   71.8030  220.7380 O   0  0  0  0  0  0  0  0  0  0  0  0
  139.0010   72.2350  221.9300 C   0  0  0  0  0  0  0  0  0  0  0  0
  138.5550   73.5800  222.0630 N   0  0  0  0  0  0  0  0  0  0  0  0
  138.2640   74.3190  220.8720 C   0  0  0  0  0  0  0  0  0  0  0  0
  138.5930   75.7530  220.9730 C   0  0  0  0  0  0  0  0  0  0  0  0
  137.7030   76.6380  221.0380 O   0  0  0  0  0  0  0  0  0  0  0  0
  139.9710   76.1120  220.9950 N   0  0  0  0  0  0  0  0  0  0  0  0
  141.1240   75.2740  221.3160 C   0  0  0  0  0  0  0  0  0  0  0  0
  142.2540   75.8230  220.4380 C   0  0  0  0  0  0  0  0  0  0  0  0
  141.6300   76.9950  219.7170 C   0  0  0  0  0  0  0  0  0  0  0  0
  140.5640   77.4230  220.6970 C   0  0  2  0  0  0  0  0  0  0  0  0
  141.1610   78.0180  221.9570 C   0  0  0  0  0  0  0  0  0  0  0  0
  140.1080   78.3400  222.9370 C   0  0  0  0  0  0  0  0  0  0  0  0
  140.1840   79.6380  223.6430 C   0  0  0  0  0  0  0  0  0  0  0  0
  141.4140   80.4500  223.4810 C   0  0  0  0  0  0  0  0  0  0  0  0
  142.5980   79.7150  222.9050 C   0  0  0  0  0  0  0  0  0  0  0  0
  142.0670   79.1530  221.5780 C   0  0  0  0  0  0  0  0  0  0  0  0
  139.3190   71.4090  223.0850 C   0  0  0  0  0  0  0  0  0  0  0  0
  138.9930   70.0690  223.0300 C   0  0  0  0  0  0  0  0  0  0  0  0
  139.2470   69.2110  224.0530 C   0  0  0  0  0  0  0  0  0  0  0  0
  139.8560   69.7120  225.1870 C   0  0  0  0  0  0  0  0  0  0  0  0
  140.1480   68.9060  226.2690 C   0  0  0  0  0  0  0  0  0  0  0  0
  140.7550   69.4190  227.3930 C   0  0  0  0  0  0  0  0  0  0  0  0
  141.0910   68.3280  228.7230 Cl  0  0  0  0  0  0  0  0  0  0  0  0
  141.0760   70.7620  227.4340 C   0  0  0  0  0  0  0  0  0  0  0  0
  140.7980   71.6070  226.3630 C   0  0  0  0  0  0  0  0  0  0  0  0
  140.1890   71.0670  225.2500 C   0  0  0  0  0  0  0  0  0  0  0  0
  139.9120   71.8800  224.1960 N   0  0  0  0  0  0  0  0  0  0  0  0
  138.4490   73.9980  223.0360 H   0  0  0  0  0  0  0  0  0  0  0  0
  138.8442   73.8864  220.0436 H   0  0  0  0  0  0  0  0  0  0  0  0
  137.1792   74.2475  220.7044 H   0  0  0  0  0  0  0  0  0  0  0  0
  141.3827   75.3603  222.3816 H   0  0  0  0  0  0  0  0  0  0  0  0
  140.9304   74.2073  221.1299 H   0  0  0  0  0  0  0  0  0  0  0  0
  143.1026   76.1523  221.0557 H   0  0  0  0  0  0  0  0  0  0  0  0
  142.6533   75.0674  219.7454 H   0  0  0  0  0  0  0  0  0  0  0  0
  142.3630   77.7972  219.5458 H   0  0  0  0  0  0  0  0  0  0  0  0
  141.2450   76.7506  218.7160 H   0  0  0  0  0  0  0  0  0  0  0  0
  139.8780   78.1947  220.3177 H   0  0  0  0  0  0  0  0  0  0  0  0
  141.7939   77.2877  222.4824 H   0  0  0  0  0  0  0  0  0  0  0  0
  139.1466   78.3148  222.4030 H   0  0  0  0  0  0  0  0  0  0  0  0
  140.2357   77.5896  223.7311 H   0  0  0  0  0  0  0  0  0  0  0  0
  139.3399   80.2503  223.2928 H   0  0  0  0  0  0  0  0  0  0  0  0
  140.1712   79.3704  224.7099 H   0  0  0  0  0  0  0  0  0  0  0  0
  141.1797   81.2930  222.8143 H   0  0  0  0  0  0  0  0  0  0  0  0
  141.7106   80.7597  224.4940 H   0  0  0  0  0  0  0  0  0  0  0  0
  143.4395   80.4018  222.7314 H   0  0  0  0  0  0  0  0  0  0  0  0
  142.9818   78.9326  223.5762 H   0  0  0  0  0  0  0  0  0  0  0  0
  141.5072   79.9252  221.0301 H   0  0  0  0  0  0  0  0  0  0  0  0
  142.8833   78.8211  220.9196 H   0  0  0  0  0  0  0  0  0  0  0  0
  138.5084   69.6801  222.1223 H   0  0  0  0  0  0  0  0  0  0  0  0
  138.9752   68.1476  223.9799 H   0  0  0  0  0  0  0  0  0  0  0  0
  139.8916   67.8369  226.2324 H   0  0  0  0  0  0  0  0  0  0  0  0
  141.5615   71.1724  228.3317 H   0  0  0  0  0  0  0  0  0  0  0  0
  141.0569   72.6753  226.4036 H   0  0  0  0  0  0  0  0  0  0  0  0
  1  2  2  0
  2  3  1  0
  3  4  1  0
  4  5  1  0
  5  6  2  0
  5  7  1  0
  7  8  1  0
  8  9  1  0
  9 10  1  0
 10 11  1  0
 11 12  1  0
 12 13  1  0
 13 14  1  0
 14 15  1  0
 15 16  1  0
 16 17  1  0
  2 18  1  0
 18 19  2  0
 19 20  1  0
 20 21  2  0
 21 22  1  0
 22 23  2  0
 23 24  1  0
 23 25  1  0
 25 26  2  0
 26 27  1  0
 27 28  2  0
 11  7  1  0
 17 12  1  0
 28 18  1  0
 27 21  1  0
  3 29  1  0
  4 30  1  0
  4 31  1  0
  8 32  1  0
  8 33  1  0
  9 34  1  0
  9 35  1  0
 10 36  1  0
 10 37  1  0
 11 38  1  6
 12 39  1  0
 13 40  1  0
 13 41  1  0
 14 42  1  0
 14 43  1  0
 15 44  1  0
 15 45  1  0
 16 46  1  0
 16 47  1  0
 17 48  1  0
 17 49  1  0
 19 50  1  0
 20 51  1  0
 22 52  1  0
 25 53  1  0
 26 54  1  0
M  END
>  <smiles>  (35) 
O=C(NCC(=O)N1CCCC1C1CCCCC1)c1ccc2cc(Cl)ccc2n1

>  <score_type>  (35) 
oracle

>  <origin>  (35) 
autodockgpu

>  <m_score__min__energy>  (35) 
-8.9700000000000006

>  <m_primary>  (35) 
energy

>  <rmsd>  (35) 
1.9477272770972986

>  <m_score__min__rmsd>  (35) 
1.9477272770972986

>  <meeko>  (35) 
{"free_energy": -8.4, "intermolecular_energy": -9.89, "internal_energy": -1.48, "cluster_size": 32, "cluster_id": 1, "rank_in_cluster": 22}

>  <energy>  (35) 
-8.5

>  <cluster_rmsd>  (35) 
0.21

>  <cluster>  (35) 
2

$$$$

     RDKit          3D

 54 57  0  0  0  0  0  0  0  0999 V2000
  139.1730   71.9230  220.8130 O   0  0  0  0  0  0  0  0  0  0  0  0
  139.3650   72.3760  221.9870 C   0  0  0  0  0  0  0  0  0  0  0  0
  139.3530   73.7930  222.1120 N   0  0  0  0  0  0  0  0  0  0  0  0
  139.1310   74.5760  220.9330 C   0  0  0  0  0  0  0  0  0  0  0  0
  140.2560   74.5360  219.9800 C   0  0  0  0  0  0  0  0  0  0  0  0
  140.3910   73.6060  219.1460 O   0  0  0  0  0  0  0  0  0  0  0  0
  141.2010   75.6010  220.0330 N   0  0  0  0  0  0  0  0  0  0  0  0
  142.6570   75.5210  220.1190 C   0  0  0  0  0  0  0  0  0  0  0  0
  143.1550   76.7480  219.3460 C   0  0  0  0  0  0  0  0  0  0  0  0
  141.8910   77.4630  218.9280 C   0  0  0  0  0  0  0  0  0  0  0  0
  140.9300   77.0460  220.0160 C   0  0  2  0  0  0  0  0  0  0  0  0
  141.2940   77.6550  221.3550 C   0  0  0  0  0  0  0  0  0  0  0  0
  140.1780   77.5300  222.3110 C   0  0  0  0  0  0  0  0  0  0  0  0
  139.8370   78.7050  223.1430 C   0  0  0  0  0  0  0  0  0  0  0  0
  140.7560   79.8680  223.1200 C   0  0  0  0  0  0  0  0  0  0  0  0
  142.1180   79.5990  222.5320 C   0  0  0  0  0  0  0  0  0  0  0  0
  141.8080   79.0480  221.1330 C   0  0  0  0  0  0  0  0  0  0  0  0
  139.5820   71.5010  223.1290 C   0  0  0  0  0  0  0  0  0  0  0  0
  139.1960   70.1810  223.0160 C   0  0  0  0  0  0  0  0  0  0  0  0
  139.3540   69.2820  224.0220 C   0  0  0  0  0  0  0  0  0  0  0  0
  139.9250   69.7200  225.2010 C   0  0  0  0  0  0  0  0  0  0  0  0
  140.1200   68.8690  226.2710 C   0  0  0  0  0  0  0  0  0  0  0  0
  140.6910   69.3170  227.4410 C   0  0  0  0  0  0  0  0  0  0  0  0
  140.9030   68.1730  228.7510 Cl  0  0  0  0  0  0  0  0  0  0  0  0
  141.0730   70.6420  227.5410 C   0  0  0  0  0  0  0  0  0  0  0  0
  140.8930   71.5300  226.4850 C   0  0  0  0  0  0  0  0  0  0  0  0
  140.3180   71.0540  225.3250 C   0  0  0  0  0  0  0  0  0  0  0  0
  140.1360   71.9100  224.2840 N   0  0  0  0  0  0  0  0  0  0  0  0
  139.5060   74.2310  223.0690 H   0  0  0  0  0  0  0  0  0  0  0  0
  138.2318   74.1954  220.4264 H   0  0  0  0  0  0  0  0  0  0  0  0
  139.0170   75.6215  221.2555 H   0  0  0  0  0  0  0  0  0  0  0  0
  142.9874   75.5615  221.1674 H   0  0  0  0  0  0  0  0  0  0  0  0
  143.0493   74.5795  219.7072 H   0  0  0  0  0  0  0  0  0  0  0  0
  143.7716   77.3912  219.9910 H   0  0  0  0  0  0  0  0  0  0  0  0
  143.7880   76.4765  218.4883 H   0  0  0  0  0  0  0  0  0  0  0  0
  142.0329   78.5537  218.9146 H   0  0  0  0  0  0  0  0  0  0  0  0
  141.5514   77.2130  217.9120 H   0  0  0  0  0  0  0  0  0  0  0  0
  139.8858   77.3460  219.8439 H   0  0  0  0  0  0  0  0  0  0  0  0
  142.1145   77.1019  221.8354 H   0  0  0  0  0  0  0  0  0  0  0  0
  139.2800   77.2683  221.7321 H   0  0  0  0  0  0  0  0  0  0  0  0
  140.5202   76.7740  223.0331 H   0  0  0  0  0  0  0  0  0  0  0  0
  138.8499   79.0623  222.8144 H   0  0  0  0  0  0  0  0  0  0  0  0
  139.8924   78.3333  224.1768 H   0  0  0  0  0  0  0  0  0  0  0  0
  140.2815   80.6649  222.5286 H   0  0  0  0  0  0  0  0  0  0  0  0
  140.9265   80.1429  224.1714 H   0  0  0  0  0  0  0  0  0  0  0  0
  142.7071   80.5256  222.4669 H   0  0  0  0  0  0  0  0  0  0  0  0
  142.7156   78.9046  223.1409 H   0  0  0  0  0  0  0  0  0  0  0  0
  141.0441   79.6651  220.6374 H   0  0  0  0  0  0  0  0  0  0  0  0
  142.6969   79.0564  220.4850 H   0  0  0  0  0  0  0  0  0  0  0  0
  138.7418   69.8430  222.0729 H   0  0  0  0  0  0  0  0  0  0  0  0
  139.0365   68.2358  223.9013 H   0  0  0  0  0  0  0  0  0  0  0  0
  139.8140   67.8157  226.1871 H   0  0  0  0  0  0  0  0  0  0  0  0
  141.5289   71.0018  228.4752 H   0  0  0  0  0  0  0  0  0  0  0  0
  141.2007   72.5824  226.5728 H   0  0  0  0  0  0  0  0  0  0  0  0
  1  2  2  0
  2  3  1  0
  3  4  1  0
  4  5  1  0
  5  6  2  0
  5  7  1  0
  7  8  1  0
  8  9  1  0
  9 10  1  0
 10 11  1  0
 11 12  1  0
 12 13  1  0
 13 14  1  0
 14 15  1  0
 15 16  1  0
 16 17  1  0
  2 18  1  0
 18 19  2  0
 19 20  1  0
 20 21  2  0
 21 22  1  0
 22 23  2  0
 23 24  1  0
 23 25  1  0
 25 26  2  0
 26 27  1  0
 27 28  2  0
 11  7  1  0
 17 12  1  0
 28 18  1  0
 27 21  1  0
  3 29  1  0
  4 30  1  0
  4 31  1  0
  8 32  1  0
  8 33  1  0
  9 34  1  0
  9 35  1  0
 10 36  1  0
 10 37  1  0
 11 38  1  6
 12 39  1  0
 13 40  1  0
 13 41  1  0
 14 42  1  0
 14 43  1  0
 15 44  1  0
 15 45  1  0
 16 46  1  0
 16 47  1  0
 17 48  1  0
 17 49  1  0
 19 50  1  0
 20 51  1  0
 22 52  1  0
 25 53  1  0
 26 54  1  0
M  END
>  <smiles>  (36) 
O=C(NCC(=O)N1CCCC1C1CCCCC1)c1ccc2cc(Cl)ccc2n1

>  <score_type>  (36) 
oracle

>  <origin>  (36) 
autodockgpu

>  <m_score__min__energy>  (36) 
-8.9700000000000006

>  <m_primary>  (36) 
energy

>  <rmsd>  (36) 
2.0252295271369283

>  <m_score__min__rmsd>  (36) 
2.0252295271369283

>  <meeko>  (36) 
{"free_energy": -8.2, "intermolecular_energy": -9.7, "internal_energy": -1.41, "cluster_size": 32, "cluster_id": 1, "rank_in_cluster": 26}

>  <energy>  (36) 
-8.35

>  <cluster_rmsd>  (36) 
0.67

>  <cluster>  (36) 
2

$$$$

     RDKit          3D

 54 57  0  0  0  0  0  0  0  0999 V2000
  138.8980   72.8880  221.1180 O   0  0  0  0  0  0  0  0  0  0  0  0
  139.9450   72.7710  221.8320 C   0  0  0  0  0  0  0  0  0  0  0  0
  141.0590   73.5600  221.4290 N   0  0  0  0  0  0  0  0  0  0  0  0
  140.9130   74.4000  220.2790 C   0  0  0  0  0  0  0  0  0  0  0  0
  141.3840   75.7810  220.4950 C   0  0  0  0  0  0  0  0  0  0  0  0
  142.5630   76.1320  220.2380 O   0  0  0  0  0  0  0  0  0  0  0  0
  140.4480   76.7210  221.0140 N   0  0  0  0  0  0  0  0  0  0  0  0
  139.3110   77.3410  220.3380 C   0  0  0  0  0  0  0  0  0  0  0  0
  138.2680   77.5380  221.4430 C   0  0  0  0  0  0  0  0  0  0  0  0
  138.9540   77.0460  222.6960 C   0  0  0  0  0  0  0  0  0  0  0  0
  140.4060   77.2960  222.3660 C   0  0  2  0  0  0  0  0  0  0  0  0
  140.7250   78.7770  222.3070 C   0  0  0  0  0  0  0  0  0  0  0  0
  142.1400   78.9980  221.9570 C   0  0  0  0  0  0  0  0  0  0  0  0
  142.8970   80.0180  222.7170 C   0  0  0  0  0  0  0  0  0  0  0  0
  142.1450   80.9000  223.6410 C   0  0  0  0  0  0  0  0  0  0  0  0
  140.6490   80.9060  223.4500 C   0  0  0  0  0  0  0  0  0  0  0  0
  140.2590   79.4260  223.5790 C   0  0  0  0  0  0  0  0  0  0  0  0
  140.0010   71.8880  222.9870 C   0  0  0  0  0  0  0  0  0  0  0  0
  139.5140   70.6050  222.8440 C   0  0  0  0  0  0  0  0  0  0  0  0
  139.5200   69.7020  223.8590 C   0  0  0  0  0  0  0  0  0  0  0  0
  140.0350   70.0970  225.0780 C   0  0  0  0  0  0  0  0  0  0  0  0
  140.0760   69.2390  226.1600 C   0  0  0  0  0  0  0  0  0  0  0  0
  140.5930   69.6450  227.3700 C   0  0  0  0  0  0  0  0  0  0  0  0
  140.6080   68.4950  228.6920 Cl  0  0  0  0  0  0  0  0  0  0  0  0
  141.0760   70.9340  227.4990 C   0  0  0  0  0  0  0  0  0  0  0  0
  141.0520   71.8280  226.4320 C   0  0  0  0  0  0  0  0  0  0  0  0
  140.5290   71.3940  225.2320 C   0  0  0  0  0  0  0  0  0  0  0  0
  140.4990   72.2560  224.1800 N   0  0  0  0  0  0  0  0  0  0  0  0
  141.9620   73.5050  221.9870 H   0  0  0  0  0  0  0  0  0  0  0  0
  141.4898   73.9609  219.4517 H   0  0  0  0  0  0  0  0  0  0  0  0
  139.8377   74.4565  220.0543 H   0  0  0  0  0  0  0  0  0  0  0  0
  139.5995   78.3075  219.8990 H   0  0  0  0  0  0  0  0  0  0  0  0
  138.9310   76.7256  219.5092 H   0  0  0  0  0  0  0  0  0  0  0  0
  137.9972   78.5999  221.5384 H   0  0  0  0  0  0  0  0  0  0  0  0
  137.3313   76.9992  221.2376 H   0  0  0  0  0  0  0  0  0  0  0  0
  138.6382   77.6214  223.5787 H   0  0  0  0  0  0  0  0  0  0  0  0
  138.7265   76.0000  222.9491 H   0  0  0  0  0  0  0  0  0  0  0  0
  141.1180   76.8822  223.0952 H   0  0  0  0  0  0  0  0  0  0  0  0
  140.1742   79.2723  221.4938 H   0  0  0  0  0  0  0  0  0  0  0  0
  142.6623   78.0389  222.0886 H   0  0  0  0  0  0  0  0  0  0  0  0
  142.1088   79.3906  220.9299 H   0  0  0  0  0  0  0  0  0  0  0  0
  143.6520   79.4864  223.3148 H   0  0  0  0  0  0  0  0  0  0  0  0
  143.2888   80.6986  221.9468 H   0  0  0  0  0  0  0  0  0  0  0  0
  142.3551   80.5727  224.6699 H   0  0  0  0  0  0  0  0  0  0  0  0
  142.4835   81.9246  223.4273 H   0  0  0  0  0  0  0  0  0  0  0  0
  140.1570   81.5103  224.2263 H   0  0  0  0  0  0  0  0  0  0  0  0
  140.3440   81.3447  222.4885 H   0  0  0  0  0  0  0  0  0  0  0  0
  140.7574   78.9712  224.4478 H   0  0  0  0  0  0  0  0  0  0  0  0
  139.1765   79.3003  223.7290 H   0  0  0  0  0  0  0  0  0  0  0  0
  139.1046   70.3012  221.8693 H   0  0  0  0  0  0  0  0  0  0  0  0
  139.1259   68.6853  223.7140 H   0  0  0  0  0  0  0  0  0  0  0  0
  139.6893   68.2148  226.0532 H   0  0  0  0  0  0  0  0  0  0  0  0
  141.4881   71.2602  228.4653 H   0  0  0  0  0  0  0  0  0  0  0  0
  141.4392   72.8516  226.5430 H   0  0  0  0  0  0  0  0  0  0  0  0
  1  2  2  0
  2  3  1  0
  3  4  1  0
  4  5  1  0
  5  6  2  0
  5  7  1  0
  7  8  1  0
  8  9  1  0
  9 10  1  0
 10 11  1  0
 11 12  1  0
 12 13  1  0
 13 14  1  0
 14 15  1  0
 15 16  1  0
 16 17  1  0
  2 18  1  0
 18 19  2  0
 19 20  1  0
 20 21  2  0
 21 22  1  0
 22 23  2  0
 23 24  1  0
 23 25  1  0
 25 26  2  0
 26 27  1  0
 27 28  2  0
 11  7  1  0
 17 12  1  0
 28 18  1  0
 27 21  1  0
  3 29  1  0
  4 30  1  0
  4 31  1  0
  8 32  1  0
  8 33  1  0
  9 34  1  0
  9 35  1  0
 10 36  1  0
 10 37  1  0
 11 38  1  1
 12 39  1  0
 13 40  1  0
 13 41  1  0
 14 42  1  0
 14 43  1  0
 15 44  1  0
 15 45  1  0
 16 46  1  0
 16 47  1  0
 17 48  1  0
 17 49  1  0
 19 50  1  0
 20 51  1  0
 22 52  1  0
 25 53  1  0
 26 54  1  0
M  END
>  <smiles>  (37) 
O=C(NCC(=O)N1CCCC1C1CCCCC1)c1ccc2cc(Cl)ccc2n1

>  <score_type>  (37) 
oracle

>  <origin>  (37) 
autodockgpu

>  <m_score__min__energy>  (37) 
-8.9700000000000006

>  <m_primary>  (37) 
energy

>  <rmsd>  (37) 
2.8087909613127247

>  <m_score__min__rmsd>  (37) 
2.8087909613127247

>  <meeko>  (37) 
{"free_energy": -8.22, "intermolecular_energy": -9.72, "internal_energy": -1.5, "cluster_size": 32, "cluster_id": 1, "rank_in_cluster": 25}

>  <energy>  (37) 
-8.22

>  <cluster_rmsd>  (37) 
1.04

>  <cluster>  (37) 
2

$$$$

     RDKit          3D

 54 57  0  0  0  0  0  0  0  0999 V2000
  138.1590   73.2910  220.3900 O   0  0  0  0  0  0  0  0  0  0  0  0
  138.1290   73.8690  221.5240 C   0  0  0  0  0  0  0  0  0  0  0  0
  137.2590   73.2900  222.4890 N   0  0  0  0  0  0  0  0  0  0  0  0
  136.5050   72.1310  222.1140 C   0  0  0  0  0  0  0  0  0  0  0  0
  137.1620   70.8600  222.4720 C   0  0  0  0  0  0  0  0  0  0  0  0
  136.5220   69.7820  222.5610 O   0  0  0  0  0  0  0  0  0  0  0  0
  138.5640   70.8910  222.7190 N   0  0  0  0  0  0  0  0  0  0  0  0
  139.6570   70.6070  221.7920 C   0  0  0  0  0  0  0  0  0  0  0  0
  140.7950   71.5290  222.2460 C   0  0  0  0  0  0  0  0  0  0  0  0
  140.2410   72.2330  223.4620 C   0  0  0  0  0  0  0  0  0  0  0  0
  139.2500   71.2170  223.9780 C   0  0  2  0  0  0  0  0  0  0  0  0
  139.9390   69.9830  224.5250 C   0  0  0  0  0  0  0  0  0  0  0  0
  138.9620   68.9120  224.7970 C   0  0  0  0  0  0  0  0  0  0  0  0
  139.0850   68.1610  226.0660 C   0  0  0  0  0  0  0  0  0  0  0  0
  140.2940   68.3830  226.8950 C   0  0  0  0  0  0  0  0  0  0  0  0
  141.4340   69.0780  226.1950 C   0  0  0  0  0  0  0  0  0  0  0  0
  140.8060   70.3830  225.6830 C   0  0  0  0  0  0  0  0  0  0  0  0
  138.9330   75.0460  221.8160 C   0  0  0  0  0  0  0  0  0  0  0  0
  140.2890   74.9810  221.5640 C   0  0  0  0  0  0  0  0  0  0  0  0
  141.1290   76.0230  221.8010 C   0  0  0  0  0  0  0  0  0  0  0  0
  140.5920   77.1870  222.3140 C   0  0  0  0  0  0  0  0  0  0  0  0
  141.3770   78.2910  222.5820 C   0  0  0  0  0  0  0  0  0  0  0  0
  140.8290   79.4460  223.0930 C   0  0  0  0  0  0  0  0  0  0  0  0
  141.8960   80.8010  223.4060 Cl  0  0  0  0  0  0  0  0  0  0  0  0
  139.4700   79.4970  223.3400 C   0  0  0  0  0  0  0  0  0  0  0  0
  138.6450   78.4050  223.0830 C   0  0  0  0  0  0  0  0  0  0  0  0
  139.2210   77.2610  222.5710 C   0  0  0  0  0  0  0  0  0  0  0  0
  138.4280   76.1870  222.3140 N   0  0  0  0  0  0  0  0  0  0  0  0
  137.1910   73.7280  223.4560 H   0  0  0  0  0  0  0  0  0  0  0  0
  135.5287   72.1725  222.6190 H   0  0  0  0  0  0  0  0  0  0  0  0
  136.4093   72.1481  221.0183 H   0  0  0  0  0  0  0  0  0  0  0  0
  139.9606   69.5520  221.8605 H   0  0  0  0  0  0  0  0  0  0  0  0
  139.3718   70.7796  220.7437 H   0  0  0  0  0  0  0  0  0  0  0  0
  141.6894   70.9446  222.5076 H   0  0  0  0  0  0  0  0  0  0  0  0
  141.1068   72.2314  221.4589 H   0  0  0  0  0  0  0  0  0  0  0  0
  141.0293   72.4360  224.2018 H   0  0  0  0  0  0  0  0  0  0  0  0
  139.8003   73.2175  223.2463 H   0  0  0  0  0  0  0  0  0  0  0  0
  138.6155   71.5747  224.8023 H   0  0  0  0  0  0  0  0  0  0  0  0
  140.6148   69.5386  223.7795 H   0  0  0  0  0  0  0  0  0  0  0  0
  137.9625   69.3712  224.7850 H   0  0  0  0  0  0  0  0  0  0  0  0
  139.1544   68.1618  224.0158 H   0  0  0  0  0  0  0  0  0  0  0  0
  138.2130   68.4199  226.6845 H   0  0  0  0  0  0  0  0  0  0  0  0
  139.1563   67.1083  225.7549 H   0  0  0  0  0  0  0  0  0  0  0  0
  140.0042   68.9941  227.7625 H   0  0  0  0  0  0  0  0  0  0  0  0
  140.6660   67.3838  227.1657 H   0  0  0  0  0  0  0  0  0  0  0  0
  142.2557   69.2868  226.8959 H   0  0  0  0  0  0  0  0  0  0  0  0
  141.8726   68.4713  225.3891 H   0  0  0  0  0  0  0  0  0  0  0  0
  140.2009   70.8539  226.4718 H   0  0  0  0  0  0  0  0  0  0  0  0
  141.5712   71.1153  225.3862 H   0  0  0  0  0  0  0  0  0  0  0  0
  140.7061   74.0489  221.1552 H   0  0  0  0  0  0  0  0  0  0  0  0
  142.2055   75.9413  221.5902 H   0  0  0  0  0  0  0  0  0  0  0  0
  142.4581   78.2469  222.3839 H   0  0  0  0  0  0  0  0  0  0  0  0
  139.0310   80.4194  223.7481 H   0  0  0  0  0  0  0  0  0  0  0  0
  137.5644   78.4533  223.2827 H   0  0  0  0  0  0  0  0  0  0  0  0
  1  2  2  0
  2  3  1  0
  3  4  1  0
  4  5  1  0
  5  6  2  0
  5  7  1  0
  7  8  1  0
  8  9  1  0
  9 10  1  0
 10 11  1  0
 11 12  1  0
 12 13  1  0
 13 14  1  0
 14 15  1  0
 15 16  1  0
 16 17  1  0
  2 18  1  0
 18 19  2  0
 19 20  1  0
 20 21  2  0
 21 22  1  0
 22 23  2  0
 23 24  1  0
 23 25  1  0
 25 26  2  0
 26 27  1  0
 27 28  2  0
 11  7  1  0
 17 12  1  0
 28 18  1  0
 27 21  1  0
  3 29  1  0
  4 30  1  0
  4 31  1  0
  8 32  1  0
  8 33  1  0
  9 34  1  0
  9 35  1  0
 10 36  1  0
 10 37  1  0
 11 38  1  1
 12 39  1  0
 13 40  1  0
 13 41  1  0
 14 42  1  0
 14 43  1  0
 15 44  1  0
 15 45  1  0
 16 46  1  0
 16 47  1  0
 17 48  1  0
 17 49  1  0
 19 50  1  0
 20 51  1  0
 22 52  1  0
 25 53  1  0
 26 54  1  0
M  END
>  <smiles>  (38) 
O=C(NCC(=O)N1CCCC1C1CCCCC1)c1ccc2cc(Cl)ccc2n1

>  <score_type>  (38) 
oracle

>  <origin>  (38) 
autodockgpu

>  <m_score__min__energy>  (38) 
-8.9700000000000006

>  <m_primary>  (38) 
energy

>  <rmsd>  (38) 
7.086468696505133

>  <m_score__min__rmsd>  (38) 
7.086468696505133

>  <meeko>  (38) 
{"free_energy": -7.46, "intermolecular_energy": -8.95, "internal_energy": -1.94, "cluster_size": 12, "cluster_id": 2, "rank_in_cluster": 11}

>  <energy>  (38) 
-8.18

>  <cluster_rmsd>  (38) 
1.03

>  <cluster>  (38) 
2

$$$$

     RDKit          3D

 54 57  0  0  0  0  0  0  0  0999 V2000
  139.2120   72.8770  220.7360 O   0  0  0  0  0  0  0  0  0  0  0  0
  140.1630   72.8210  221.5800 C   0  0  0  0  0  0  0  0  0  0  0  0
  141.2790   73.6620  221.3090 N   0  0  0  0  0  0  0  0  0  0  0  0
  141.2400   74.4820  220.1360 C   0  0  0  0  0  0  0  0  0  0  0  0
  141.6190   75.8850  220.3860 C   0  0  0  0  0  0  0  0  0  0  0  0
  142.7630   76.3270  220.1080 O   0  0  0  0  0  0  0  0  0  0  0  0
  140.6360   76.7400  220.9620 N   0  0  0  0  0  0  0  0  0  0  0  0
  139.4480   77.3130  220.3330 C   0  0  0  0  0  0  0  0  0  0  0  0
  138.4160   77.3950  221.4630 C   0  0  0  0  0  0  0  0  0  0  0  0
  139.1570   76.8940  222.6810 C   0  0  0  0  0  0  0  0  0  0  0  0
  140.5830   77.2520  222.3390 C   0  0  2  0  0  0  0  0  0  0  0  0
  140.8050   78.7520  222.3400 C   0  0  0  0  0  0  0  0  0  0  0  0
  142.1950   79.0790  221.9710 C   0  0  0  0  0  0  0  0  0  0  0  0
  142.9030   80.1110  222.7590 C   0  0  0  0  0  0  0  0  0  0  0  0
  142.1180   80.9020  223.7380 C   0  0  0  0  0  0  0  0  0  0  0  0
  140.6210   80.8200  223.5780 C   0  0  0  0  0  0  0  0  0  0  0  0
  140.3300   79.3140  223.6480 C   0  0  0  0  0  0  0  0  0  0  0  0
  140.1140   71.9540  222.7470 C   0  0  0  0  0  0  0  0  0  0  0  0
  139.4740   70.7380  222.6230 C   0  0  0  0  0  0  0  0  0  0  0  0
  139.3720   69.8550  223.6510 C   0  0  0  0  0  0  0  0  0  0  0  0
  139.9360   70.2010  224.8630 C   0  0  0  0  0  0  0  0  0  0  0  0
  139.8750   69.3590  225.9570 C   0  0  0  0  0  0  0  0  0  0  0  0
  140.4410   69.7160  227.1600 C   0  0  0  0  0  0  0  0  0  0  0  0
  140.3200   68.5910  228.4980 Cl  0  0  0  0  0  0  0  0  0  0  0  0
  141.0790   70.9370  227.2710 C   0  0  0  0  0  0  0  0  0  0  0  0
  141.1600   71.8130  226.1910 C   0  0  0  0  0  0  0  0  0  0  0  0
  140.5850   71.4300  224.9980 C   0  0  0  0  0  0  0  0  0  0  0  0
  140.6570   72.2740  223.9350 N   0  0  0  0  0  0  0  0  0  0  0  0
  142.1050   73.6590  221.9790 H   0  0  0  0  0  0  0  0  0  0  0  0
  141.9340   74.0609  219.3936 H   0  0  0  0  0  0  0  0  0  0  0  0
  140.1995   74.4867  219.7791 H   0  0  0  0  0  0  0  0  0  0  0  0
  139.6652   78.3139  219.9317 H   0  0  0  0  0  0  0  0  0  0  0  0
  139.0920   76.7096  219.4849 H   0  0  0  0  0  0  0  0  0  0  0  0
  138.0805   78.4322  221.6101 H   0  0  0  0  0  0  0  0  0  0  0  0
  137.5111   76.8071  221.2498 H   0  0  0  0  0  0  0  0  0  0  0  0
  138.8222   77.4082  223.5939 H   0  0  0  0  0  0  0  0  0  0  0  0
  139.0023   75.8252  222.8900 H   0  0  0  0  0  0  0  0  0  0  0  0
  141.3337   76.8543  223.0378 H   0  0  0  0  0  0  0  0  0  0  0  0
  140.2037   79.2448  221.5618 H   0  0  0  0  0  0  0  0  0  0  0  0
  142.7801   78.1508  222.0489 H   0  0  0  0  0  0  0  0  0  0  0  0
  142.1146   79.5130  220.9634 H   0  0  0  0  0  0  0  0  0  0  0  0
  143.7045   79.6040  223.3162 H   0  0  0  0  0  0  0  0  0  0  0  0
  143.2322   80.8483  222.0120 H   0  0  0  0  0  0  0  0  0  0  0  0
  142.3724   80.5440  224.7465 H   0  0  0  0  0  0  0  0  0  0  0  0
  142.3859   81.9546  223.5642 H   0  0  0  0  0  0  0  0  0  0  0  0
  140.1096   81.3566  224.3907 H   0  0  0  0  0  0  0  0  0  0  0  0
  140.2661   81.2800  222.6440 H   0  0  0  0  0  0  0  0  0  0  0  0
  140.8772   78.8553  224.4848 H   0  0  0  0  0  0  0  0  0  0  0  0
  139.2615   79.1124  223.8146 H   0  0  0  0  0  0  0  0  0  0  0  0
  139.0284   70.4725  221.6530 H   0  0  0  0  0  0  0  0  0  0  0  0
  138.8552   68.8927  223.5214 H   0  0  0  0  0  0  0  0  0  0  0  0
  139.3661   68.3881  225.8651 H   0  0  0  0  0  0  0  0  0  0  0  0
  141.5320   71.2228  228.2318 H   0  0  0  0  0  0  0  0  0  0  0  0
  141.6687   72.7835  226.2874 H   0  0  0  0  0  0  0  0  0  0  0  0
  1  2  2  0
  2  3  1  0
  3  4  1  0
  4  5  1  0
  5  6  2  0
  5  7  1  0
  7  8  1  0
  8  9  1  0
  9 10  1  0
 10 11  1  0
 11 12  1  0
 12 13  1  0
 13 14  1  0
 14 15  1  0
 15 16  1  0
 16 17  1  0
  2 18  1  0
 18 19  2  0
 19 20  1  0
 20 21  2  0
 21 22  1  0
 22 23  2  0
 23 24  1  0
 23 25  1  0
 25 26  2  0
 26 27  1  0
 27 28  2  0
 11  7  1  0
 17 12  1  0
 28 18  1  0
 27 21  1  0
  3 29  1  0
  4 30  1  0
  4 31  1  0
  8 32  1  0
  8 33  1  0
  9 34  1  0
  9 35  1  0
 10 36  1  0
 10 37  1  0
 11 38  1  1
 12 39  1  0
 13 40  1  0
 13 41  1  0
 14 42  1  0
 14 43  1  0
 15 44  1  0
 15 45  1  0
 16 46  1  0
 16 47  1  0
 17 48  1  0
 17 49  1  0
 19 50  1  0
 20 51  1  0
 22 52  1  0
 25 53  1  0
 26 54  1  0
M  END
>  <smiles>  (39) 
O=C(NCC(=O)N1CCCC1C1CCCCC1)c1ccc2cc(Cl)ccc2n1

>  <score_type>  (39) 
oracle

>  <origin>  (39) 
autodockgpu

>  <m_score__min__energy>  (39) 
-8.9700000000000006

>  <m_primary>  (39) 
energy

>  <rmsd>  (39) 
2.888273550499939

>  <m_score__min__rmsd>  (39) 
2.888273550499939

>  <meeko>  (39) 
{"free_energy": -8.12, "intermolecular_energy": -9.61, "internal_energy": -1.58, "cluster_size": 32, "cluster_id": 1, "rank_in_cluster": 29}

>  <energy>  (39) 
-8.15

>  <cluster_rmsd>  (39) 
1.15

>  <cluster>  (39) 
2

$$$$

     RDKit          3D

 54 57  0  0  0  0  0  0  0  0999 V2000
  141.1980   72.7510  221.4460 O   0  0  0  0  0  0  0  0  0  0  0  0
  140.2480   72.7190  222.2920 C   0  0  0  0  0  0  0  0  0  0  0  0
  139.1960   73.6520  222.0740 N   0  0  0  0  0  0  0  0  0  0  0  0
  139.2910   74.5300  220.9470 C   0  0  0  0  0  0  0  0  0  0  0  0
  139.4350   75.9500  221.3170 C   0  0  0  0  0  0  0  0  0  0  0  0
  138.5750   76.5490  222.0110 O   0  0  0  0  0  0  0  0  0  0  0  0
  140.5960   76.6350  220.8570 N   0  0  0  0  0  0  0  0  0  0  0  0
  141.8810   76.0740  220.4460 C   0  0  0  0  0  0  0  0  0  0  0  0
  142.3830   77.0220  219.3520 C   0  0  0  0  0  0  0  0  0  0  0  0
  141.3270   78.1000  219.2790 C   0  0  0  0  0  0  0  0  0  0  0  0
  140.7780   78.0840  220.6860 C   0  0  2  0  0  0  0  0  0  0  0  0
  141.7890   78.5990  221.6920 C   0  0  0  0  0  0  0  0  0  0  0  0
  141.4510   78.1500  223.0550 C   0  0  0  0  0  0  0  0  0  0  0  0
  141.5410   79.1330  224.1580 C   0  0  0  0  0  0  0  0  0  0  0  0
  142.1580   80.4500  223.8690 C   0  0  0  0  0  0  0  0  0  0  0  0
  142.9470   80.5230  222.5860 C   0  0  0  0  0  0  0  0  0  0  0  0
  141.9410   80.0820  221.5140 C   0  0  0  0  0  0  0  0  0  0  0  0
  140.2360   71.7890  223.4100 C   0  0  0  0  0  0  0  0  0  0  0  0
  139.7300   70.5240  223.1930 C   0  0  0  0  0  0  0  0  0  0  0  0
  139.6730   69.5800  224.1690 C   0  0  0  0  0  0  0  0  0  0  0  0
  140.1450   69.9120  225.4240 C   0  0  0  0  0  0  0  0  0  0  0  0
  140.1230   69.0100  226.4690 C   0  0  0  0  0  0  0  0  0  0  0  0
  140.5970   69.3540  227.7150 C   0  0  0  0  0  0  0  0  0  0  0  0
  140.5330   68.1500  228.9870 Cl  0  0  0  0  0  0  0  0  0  0  0  0
  141.1020   70.6240  227.9180 C   0  0  0  0  0  0  0  0  0  0  0  0
  141.1410   71.5620  226.8900 C   0  0  0  0  0  0  0  0  0  0  0  0
  140.6600   71.1910  225.6520 C   0  0  0  0  0  0  0  0  0  0  0  0
  140.6920   72.0950  224.6370 N   0  0  0  0  0  0  0  0  0  0  0  0
  138.3730   73.6730  222.7470 H   0  0  0  0  0  0  0  0  0  0  0  0
  140.1663   74.2356  220.3494 H   0  0  0  0  0  0  0  0  0  0  0  0
  138.3504   74.4365  220.3844 H   0  0  0  0  0  0  0  0  0  0  0  0
  142.5833   76.0508  221.2923 H   0  0  0  0  0  0  0  0  0  0  0  0
  141.7895   75.0371  220.0904 H   0  0  0  0  0  0  0  0  0  0  0  0
  143.3588   77.4502  219.6250 H   0  0  0  0  0  0  0  0  0  0  0  0
  142.5301   76.5118  218.3887 H   0  0  0  0  0  0  0  0  0  0  0  0
  141.7674   79.0770  219.0312 H   0  0  0  0  0  0  0  0  0  0  0  0
  140.5681   77.9308  218.5009 H   0  0  0  0  0  0  0  0  0  0  0  0
  139.8856   78.7095  220.8355 H   0  0  0  0  0  0  0  0  0  0  0  0
  142.7853   78.1683  221.5133 H   0  0  0  0  0  0  0  0  0  0  0  0
  140.4146   77.7824  223.0296 H   0  0  0  0  0  0  0  0  0  0  0  0
  142.2206   77.4013  223.2939 H   0  0  0  0  0  0  0  0  0  0  0  0
  140.5167   79.3223  224.5116 H   0  0  0  0  0  0  0  0  0  0  0  0
  142.2196   78.6661  224.8870 H   0  0  0  0  0  0  0  0  0  0  0  0
  141.3535   81.1983  223.8165 H   0  0  0  0  0  0  0  0  0  0  0  0
  142.8778   80.6339  224.6802 H   0  0  0  0  0  0  0  0  0  0  0  0
  143.2958   81.5491  222.3980 H   0  0  0  0  0  0  0  0  0  0  0  0
  143.8510   79.8965  222.6055 H   0  0  0  0  0  0  0  0  0  0  0  0
  140.9754   80.5878  221.6617 H   0  0  0  0  0  0  0  0  0  0  0  0
  142.2855   80.3382  220.5012 H   0  0  0  0  0  0  0  0  0  0  0  0
  139.3577   70.2692  222.1897 H   0  0  0  0  0  0  0  0  0  0  0  0
  139.2626   68.5799  223.9654 H   0  0  0  0  0  0  0  0  0  0  0  0
  139.7201   67.9999  226.3034 H   0  0  0  0  0  0  0  0  0  0  0  0
  141.4813   70.8998  228.9130 H   0  0  0  0  0  0  0  0  0  0  0  0
  141.5443   72.5711  227.0605 H   0  0  0  0  0  0  0  0  0  0  0  0
  1  2  2  0
  2  3  1  0
  3  4  1  0
  4  5  1  0
  5  6  2  0
  5  7  1  0
  7  8  1  0
  8  9  1  0
  9 10  1  0
 10 11  1  0
 11 12  1  0
 12 13  1  0
 13 14  1  0
 14 15  1  0
 15 16  1  0
 16 17  1  0
  2 18  1  0
 18 19  2  0
 19 20  1  0
 20 21  2  0
 21 22  1  0
 22 23  2  0
 23 24  1  0
 23 25  1  0
 25 26  2  0
 26 27  1  0
 27 28  2  0
 11  7  1  0
 17 12  1  0
 28 18  1  0
 27 21  1  0
  3 29  1  0
  4 30  1  0
  4 31  1  0
  8 32  1  0
  8 33  1  0
  9 34  1  0
  9 35  1  0
 10 36  1  0
 10 37  1  0
 11 38  1  6
 12 39  1  0
 13 40  1  0
 13 41  1  0
 14 42  1  0
 14 43  1  0
 15 44  1  0
 15 45  1  0
 16 46  1  0
 16 47  1  0
 17 48  1  0
 17 49  1  0
 19 50  1  0
 20 51  1  0
 22 52  1  0
 25 53  1  0
 26 54  1  0
M  END
>  <smiles>  (40) 
O=C(NCC(=O)N1CCCC1C1CCCCC1)c1ccc2cc(Cl)ccc2n1

>  <score_type>  (40) 
oracle

>  <origin>  (40) 
autodockgpu

>  <m_score__min__energy>  (40) 
-8.9700000000000006

>  <m_primary>  (40) 
energy

>  <rmsd>  (40) 
2.067445340507696

>  <m_score__min__rmsd>  (40) 
2.067445340507696

>  <meeko>  (40) 
{"free_energy": -8.92, "intermolecular_energy": -10.41, "internal_energy": -1.38, "cluster_size": 32, "cluster_id": 1, "rank_in_cluster": 6}

>  <energy>  (40) 
-8.12

>  <cluster_rmsd>  (40) 
1.03

>  <cluster>  (40) 
2

$$$$

     RDKit          3D

 54 57  0  0  0  0  0  0  0  0999 V2000
  138.3670   72.1120  221.5470 O   0  0  0  0  0  0  0  0  0  0  0  0
  139.3300   72.3220  222.3520 C   0  0  0  0  0  0  0  0  0  0  0  0
  140.1260   73.4680  222.0760 N   0  0  0  0  0  0  0  0  0  0  0  0
  139.7870   74.2720  220.9410 C   0  0  0  0  0  0  0  0  0  0  0  0
  139.7190   75.7150  221.2400 C   0  0  0  0  0  0  0  0  0  0  0  0
  138.7470   76.2240  221.8530 O   0  0  0  0  0  0  0  0  0  0  0  0
  140.8060   76.5280  220.8080 N   0  0  0  0  0  0  0  0  0  0  0  0
  142.1340   76.1110  220.3630 C   0  0  0  0  0  0  0  0  0  0  0  0
  142.5320   77.1530  219.3130 C   0  0  0  0  0  0  0  0  0  0  0  0
  141.3780   78.1280  219.2990 C   0  0  0  0  0  0  0  0  0  0  0  0
  140.8480   77.9940  220.7060 C   0  0  2  0  0  0  0  0  0  0  0  0
  141.8150   78.5540  221.7300 C   0  0  0  0  0  0  0  0  0  0  0  0
  141.4220   78.1610  223.0960 C   0  0  0  0  0  0  0  0  0  0  0  0
  141.4660   79.1900  224.1590 C   0  0  0  0  0  0  0  0  0  0  0  0
  142.0910   80.4960  223.8410 C   0  0  0  0  0  0  0  0  0  0  0  0
  142.9320   80.5180  222.5890 C   0  0  0  0  0  0  0  0  0  0  0  0
  141.9710   80.0290  221.4970 C   0  0  0  0  0  0  0  0  0  0  0  0
  139.5990   71.4470  223.4830 C   0  0  0  0  0  0  0  0  0  0  0  0
  139.2920   70.1080  223.3530 C   0  0  0  0  0  0  0  0  0  0  0  0
  139.5040   69.2070  224.3480 C   0  0  0  0  0  0  0  0  0  0  0  0
  140.0500   69.6630  225.5320 C   0  0  0  0  0  0  0  0  0  0  0  0
  140.2960   68.8110  226.5910 C   0  0  0  0  0  0  0  0  0  0  0  0
  140.8410   69.2780  227.7660 C   0  0  0  0  0  0  0  0  0  0  0  0
  141.1220   68.1320  229.0620 Cl  0  0  0  0  0  0  0  0  0  0  0  0
  141.1440   70.6220  227.8830 C   0  0  0  0  0  0  0  0  0  0  0  0
  140.9100   71.5110  226.8380 C   0  0  0  0  0  0  0  0  0  0  0  0
  140.3640   71.0160  225.6730 C   0  0  0  0  0  0  0  0  0  0  0  0
  140.1300   71.8730  224.6430 N   0  0  0  0  0  0  0  0  0  0  0  0
  140.9460   73.6960  222.7150 H   0  0  0  0  0  0  0  0  0  0  0  0
  140.5478   74.1134  220.1625 H   0  0  0  0  0  0  0  0  0  0  0  0
  138.7836   73.9622  220.6137 H   0  0  0  0  0  0  0  0  0  0  0  0
  142.8443   76.1146  221.2029 H   0  0  0  0  0  0  0  0  0  0  0  0
  142.1374   75.0879  219.9589 H   0  0  0  0  0  0  0  0  0  0  0  0
  143.4658   77.6585  219.6001 H   0  0  0  0  0  0  0  0  0  0  0  0
  142.7161   76.7053  218.3252 H   0  0  0  0  0  0  0  0  0  0  0  0
  141.7214   79.1530  219.0957 H   0  0  0  0  0  0  0  0  0  0  0  0
  140.6302   77.9240  218.5185 H   0  0  0  0  0  0  0  0  0  0  0  0
  139.9022   78.5247  220.8902 H   0  0  0  0  0  0  0  0  0  0  0  0
  142.8185   78.1197  221.6103 H   0  0  0  0  0  0  0  0  0  0  0  0
  140.3879   77.7897  223.0439 H   0  0  0  0  0  0  0  0  0  0  0  0
  142.1816   77.4247  223.3973 H   0  0  0  0  0  0  0  0  0  0  0  0
  140.4280   79.3901  224.4631 H   0  0  0  0  0  0  0  0  0  0  0  0
  142.1166   78.7564  224.9328 H   0  0  0  0  0  0  0  0  0  0  0  0
  141.2876   81.2382  223.7243 H   0  0  0  0  0  0  0  0  0  0  0  0
  142.7762   80.7169  224.6727 H   0  0  0  0  0  0  0  0  0  0  0  0
  143.2864   81.5365  222.3723 H   0  0  0  0  0  0  0  0  0  0  0  0
  143.8357   79.8963  222.6714 H   0  0  0  0  0  0  0  0  0  0  0  0
  140.9992   80.5368  221.5847 H   0  0  0  0  0  0  0  0  0  0  0  0
  142.3555   80.2442  220.4891 H   0  0  0  0  0  0  0  0  0  0  0  0
  138.8581   69.7556  222.4056 H   0  0  0  0  0  0  0  0  0  0  0  0
  139.2482   68.1455  224.2144 H   0  0  0  0  0  0  0  0  0  0  0  0
  140.0527   67.7426  226.4941 H   0  0  0  0  0  0  0  0  0  0  0  0
  141.5790   70.9964  228.8214 H   0  0  0  0  0  0  0  0  0  0  0  0
  141.1540   72.5789  226.9389 H   0  0  0  0  0  0  0  0  0  0  0  0
  1  2  2  0
  2  3  1  0
  3  4  1  0
  4  5  1  0
  5  6  2  0
  5  7  1  0
  7  8  1  0
  8  9  1  0
  9 10  1  0
 10 11  1  0
 11 12  1  0
 12 13  1  0
 13 14  1  0
 14 15  1  0
 15 16  1  0
 16 17  1  0
  2 18  1  0
 18 19  2  0
 19 20  1  0
 20 21  2  0
 21 22  1  0
 22 23  2  0
 23 24  1  0
 23 25  1  0
 25 26  2  0
 26 27  1  0
 27 28  2  0
 11  7  1  0
 17 12  1  0
 28 18  1  0
 27 21  1  0
  3 29  1  0
  4 30  1  0
  4 31  1  0
  8 32  1  0
  8 33  1  0
  9 34  1  0
  9 35  1  0
 10 36  1  0
 10 37  1  0
 11 38  1  6
 12 39  1  0
 13 40  1  0
 13 41  1  0
 14 42  1  0
 14 43  1  0
 15 44  1  0
 15 45  1  0
 16 46  1  0
 16 47  1  0
 17 48  1  0
 17 49  1  0
 19 50  1  0
 20 51  1  0
 22 52  1  0
 25 53  1  0
 26 54  1  0
M  END
>  <smiles>  (41) 
O=C(NCC(=O)N1CCCC1C1CCCCC1)c1ccc2cc(Cl)ccc2n1

>  <score_type>  (41) 
oracle

>  <origin>  (41) 
autodockgpu

>  <m_score__min__energy>  (41) 
-8.9700000000000006

>  <m_primary>  (41) 
energy

>  <rmsd>  (41) 
2.039847155469342

>  <m_score__min__rmsd>  (41) 
2.039847155469342

>  <meeko>  (41) 
{"free_energy": -8.39, "intermolecular_energy": -9.88, "internal_energy": -1.35, "cluster_size": 32, "cluster_id": 1, "rank_in_cluster": 23}

>  <energy>  (41) 
-7.98

>  <cluster_rmsd>  (41) 
0.95

>  <cluster>  (41) 
2

$$$$

     RDKit          3D

 54 57  0  0  0  0  0  0  0  0999 V2000
  138.8950   71.9010  220.9210 O   0  0  0  0  0  0  0  0  0  0  0  0
  139.1840   72.3520  222.0750 C   0  0  0  0  0  0  0  0  0  0  0  0
  139.2310   73.7700  222.1890 N   0  0  0  0  0  0  0  0  0  0  0  0
  138.9550   74.5530  221.0230 C   0  0  0  0  0  0  0  0  0  0  0  0
  140.0130   74.4770  219.9990 C   0  0  0  0  0  0  0  0  0  0  0  0
  139.9450   73.6820  219.0280 O   0  0  0  0  0  0  0  0  0  0  0  0
  141.1330   75.3450  220.1440 N   0  0  0  0  0  0  0  0  0  0  0  0
  142.5130   75.0020  220.4780 C   0  0  0  0  0  0  0  0  0  0  0  0
  143.3590   76.0350  219.7260 C   0  0  0  0  0  0  0  0  0  0  0  0
  142.3440   76.9320  219.0570 C   0  0  0  0  0  0  0  0  0  0  0  0
  141.1640   76.8070  219.9910 C   0  0  2  0  0  0  0  0  0  0  0  0
  141.4340   77.4600  221.3320 C   0  0  0  0  0  0  0  0  0  0  0  0
  140.3130   77.2340  222.2630 C   0  0  0  0  0  0  0  0  0  0  0  0
  139.8370   78.3770  223.0750 C   0  0  0  0  0  0  0  0  0  0  0  0
  140.6380   79.6240  223.0610 C   0  0  0  0  0  0  0  0  0  0  0  0
  142.0340   79.4850  222.5080 C   0  0  0  0  0  0  0  0  0  0  0  0
  141.8140   78.8950  221.1070 C   0  0  0  0  0  0  0  0  0  0  0  0
  139.4490   71.4760  223.2060 C   0  0  0  0  0  0  0  0  0  0  0  0
  139.1040   70.1450  223.0870 C   0  0  0  0  0  0  0  0  0  0  0  0
  139.3090   69.2440  224.0840 C   0  0  0  0  0  0  0  0  0  0  0  0
  139.8870   69.6900  225.2560 C   0  0  0  0  0  0  0  0  0  0  0  0
  140.1290   68.8380  226.3150 C   0  0  0  0  0  0  0  0  0  0  0  0
  140.7060   69.2950  227.4780 C   0  0  0  0  0  0  0  0  0  0  0  0
  140.9780   68.1480  228.7750 Cl  0  0  0  0  0  0  0  0  0  0  0  0
  141.0460   70.6310  227.5830 C   0  0  0  0  0  0  0  0  0  0  0  0
  140.8180   71.5210  226.5370 C   0  0  0  0  0  0  0  0  0  0  0  0
  140.2390   71.0360  225.3840 C   0  0  0  0  0  0  0  0  0  0  0  0
  140.0110   71.8930  224.3540 N   0  0  0  0  0  0  0  0  0  0  0  0
  139.4660   74.2070  223.1300 H   0  0  0  0  0  0  0  0  0  0  0  0
  138.0142   74.1960  220.5786 H   0  0  0  0  0  0  0  0  0  0  0  0
  138.8923   75.6027  221.3458 H   0  0  0  0  0  0  0  0  0  0  0  0
  142.6807   75.0776  221.5625 H   0  0  0  0  0  0  0  0  0  0  0  0
  142.7668   73.9694  220.1965 H   0  0  0  0  0  0  0  0  0  0  0  0
  143.9856   76.6087  220.4247 H   0  0  0  0  0  0  0  0  0  0  0  0
  144.0485   75.5700  219.0060 H   0  0  0  0  0  0  0  0  0  0  0  0
  142.7022   77.9705  219.0000 H   0  0  0  0  0  0  0  0  0  0  0  0
  142.1211   76.6560  218.0158 H   0  0  0  0  0  0  0  0  0  0  0  0
  140.2403   77.2802  219.6266 H   0  0  0  0  0  0  0  0  0  0  0  0
  142.2928   76.9941  221.8373 H   0  0  0  0  0  0  0  0  0  0  0  0
  139.4595   76.8800  221.6661 H   0  0  0  0  0  0  0  0  0  0  0  0
  140.7108   76.5220  223.0011 H   0  0  0  0  0  0  0  0  0  0  0  0
  138.8280   78.6328  222.7193 H   0  0  0  0  0  0  0  0  0  0  0  0
  139.9023   78.0211  224.1138 H   0  0  0  0  0  0  0  0  0  0  0  0
  140.1024   80.3655  222.4501 H   0  0  0  0  0  0  0  0  0  0  0  0
  140.7551   79.9230  224.1131 H   0  0  0  0  0  0  0  0  0  0  0  0
  142.5312   80.4644  222.4475 H   0  0  0  0  0  0  0  0  0  0  0  0
  142.6813   78.8572  223.1379 H   0  0  0  0  0  0  0  0  0  0  0  0
  141.0056   79.4299  220.5871 H   0  0  0  0  0  0  0  0  0  0  0  0
  142.7131   78.9859  220.4798 H   0  0  0  0  0  0  0  0  0  0  0  0
  138.6452   69.7998  222.1487 H   0  0  0  0  0  0  0  0  0  0  0  0
  139.0225   68.1892  223.9606 H   0  0  0  0  0  0  0  0  0  0  0  0
  139.8561   67.7760  226.2278 H   0  0  0  0  0  0  0  0  0  0  0  0
  141.5062   70.9983  228.5122 H   0  0  0  0  0  0  0  0  0  0  0  0
  141.0924   72.5823  226.6282 H   0  0  0  0  0  0  0  0  0  0  0  0
  1  2  2  0
  2  3  1  0
  3  4  1  0
  4  5  1  0
  5  6  2  0
  5  7  1  0
  7  8  1  0
  8  9  1  0
  9 10  1  0
 10 11  1  0
 11 12  1  0
 12 13  1  0
 13 14  1  0
 14 15  1  0
 15 16  1  0
 16 17  1  0
  2 18  1  0
 18 19  2  0
 19 20  1  0
 20 21  2  0
 21 22  1  0
 22 23  2  0
 23 24  1  0
 23 25  1  0
 25 26  2  0
 26 27  1  0
 27 28  2  0
 11  7  1  0
 17 12  1  0
 28 18  1  0
 27 21  1  0
  3 29  1  0
  4 30  1  0
  4 31  1  0
  8 32  1  0
  8 33  1  0
  9 34  1  0
  9 35  1  0
 10 36  1  0
 10 37  1  0
 11 38  1  6
 12 39  1  0
 13 40  1  0
 13 41  1  0
 14 42  1  0
 14 43  1  0
 15 44  1  0
 15 45  1  0
 16 46  1  0
 16 47  1  0
 17 48  1  0
 17 49  1  0
 19 50  1  0
 20 51  1  0
 22 52  1  0
 25 53  1  0
 26 54  1  0
M  END
>  <smiles>  (42) 
O=C(NCC(=O)N1CCCC1C1CCCCC1)c1ccc2cc(Cl)ccc2n1

>  <score_type>  (42) 
oracle

>  <origin>  (42) 
autodockgpu

>  <m_score__min__energy>  (42) 
-8.9700000000000006

>  <m_primary>  (42) 
energy

>  <rmsd>  (42) 
2.0652510108814086

>  <m_score__min__rmsd>  (42) 
2.0652510108814086

>  <meeko>  (42) 
{"free_energy": -8.14, "intermolecular_energy": -9.63, "internal_energy": -1.53, "cluster_size": 32, "cluster_id": 1, "rank_in_cluster": 28}

>  <energy>  (42) 
-7.88

>  <cluster_rmsd>  (42) 
1.5

>  <cluster>  (42) 
2

$$$$

     RDKit          3D

 54 57  0  0  0  0  0  0  0  0999 V2000
  139.5800   71.9600  220.8020 O   0  0  0  0  0  0  0  0  0  0  0  0
  139.6190   72.3960  221.9970 C   0  0  0  0  0  0  0  0  0  0  0  0
  139.4850   73.8050  222.1440 N   0  0  0  0  0  0  0  0  0  0  0  0
  139.3220   74.5980  220.9630 C   0  0  0  0  0  0  0  0  0  0  0  0
  139.4140   76.0490  221.2100 C   0  0  0  0  0  0  0  0  0  0  0  0
  138.4770   76.6950  221.7440 O   0  0  0  0  0  0  0  0  0  0  0  0
  140.6140   76.7080  220.8200 N   0  0  0  0  0  0  0  0  0  0  0  0
  141.9010   76.1170  220.4580 C   0  0  0  0  0  0  0  0  0  0  0  0
  142.4800   77.0710  219.4080 C   0  0  0  0  0  0  0  0  0  0  0  0
  141.4600   78.1810  219.3090 C   0  0  0  0  0  0  0  0  0  0  0  0
  140.8460   78.1540  220.6890 C   0  0  2  0  0  0  0  0  0  0  0  0
  141.8220   78.6190  221.7520 C   0  0  0  0  0  0  0  0  0  0  0  0
  141.3640   78.2240  223.0960 C   0  0  0  0  0  0  0  0  0  0  0  0
  141.4520   79.2220  224.1850 C   0  0  0  0  0  0  0  0  0  0  0  0
  142.1800   80.4860  223.9160 C   0  0  0  0  0  0  0  0  0  0  0  0
  143.0550   80.4750  222.6880 C   0  0  0  0  0  0  0  0  0  0  0  0
  142.0920   80.0830  221.5590 C   0  0  0  0  0  0  0  0  0  0  0  0
  139.7890   71.5120  223.1390 C   0  0  0  0  0  0  0  0  0  0  0  0
  139.4190   70.1910  222.9950 C   0  0  0  0  0  0  0  0  0  0  0  0
  139.5360   69.2830  223.9990 C   0  0  0  0  0  0  0  0  0  0  0  0
  140.0490   69.7120  225.2080 C   0  0  0  0  0  0  0  0  0  0  0  0
  140.2000   68.8520  226.2770 C   0  0  0  0  0  0  0  0  0  0  0  0
  140.7120   69.2930  227.4770 C   0  0  0  0  0  0  0  0  0  0  0  0
  140.8710   68.1380  228.7850 Cl  0  0  0  0  0  0  0  0  0  0  0  0
  141.0790   70.6190  227.6080 C   0  0  0  0  0  0  0  0  0  0  0  0
  140.9420   71.5170  226.5520 C   0  0  0  0  0  0  0  0  0  0  0  0
  140.4260   71.0480  225.3630 C   0  0  0  0  0  0  0  0  0  0  0  0
  140.2860   71.9130  224.3220 N   0  0  0  0  0  0  0  0  0  0  0  0
  139.5090   74.2300  223.1190 H   0  0  0  0  0  0  0  0  0  0  0  0
  140.1059   74.3170  220.2443 H   0  0  0  0  0  0  0  0  0  0  0  0
  138.3111   74.3994  220.5775 H   0  0  0  0  0  0  0  0  0  0  0  0
  142.5618   76.0572  221.3353 H   0  0  0  0  0  0  0  0  0  0  0  0
  141.7973   75.0900  220.0778 H   0  0  0  0  0  0  0  0  0  0  0  0
  143.4539   77.4648  219.7342 H   0  0  0  0  0  0  0  0  0  0  0  0
  142.6567   76.5754  218.4420 H   0  0  0  0  0  0  0  0  0  0  0  0
  141.9393   79.1492  219.1019 H   0  0  0  0  0  0  0  0  0  0  0  0
  140.7335   78.0495  218.4936 H   0  0  0  0  0  0  0  0  0  0  0  0
  139.9665   78.8034  220.8105 H   0  0  0  0  0  0  0  0  0  0  0  0
  142.7948   78.1160  221.6487 H   0  0  0  0  0  0  0  0  0  0  0  0
  140.3078   77.9298  223.0075 H   0  0  0  0  0  0  0  0  0  0  0  0
  142.0600   77.4277  223.3985 H   0  0  0  0  0  0  0  0  0  0  0  0
  140.4230   79.4909  224.4657 H   0  0  0  0  0  0  0  0  0  0  0  0
  142.0463   78.7243  224.9655 H   0  0  0  0  0  0  0  0  0  0  0  0
  141.4366   81.2879  223.7968 H   0  0  0  0  0  0  0  0  0  0  0  0
  142.8559   80.6364  224.7707 H   0  0  0  0  0  0  0  0  0  0  0  0
  143.4885   81.4695  222.5063 H   0  0  0  0  0  0  0  0  0  0  0  0
  143.9084   79.7869  222.7787 H   0  0  0  0  0  0  0  0  0  0  0  0
  141.1579   80.6592  221.6332 H   0  0  0  0  0  0  0  0  0  0  0  0
  142.5195   80.2917  220.5672 H   0  0  0  0  0  0  0  0  0  0  0  0
  139.0128   69.8592  222.0281 H   0  0  0  0  0  0  0  0  0  0  0  0
  139.2310   68.2362  223.8534 H   0  0  0  0  0  0  0  0  0  0  0  0
  139.9067   67.7974  226.1687 H   0  0  0  0  0  0  0  0  0  0  0  0
  141.4878   70.9726  228.5661 H   0  0  0  0  0  0  0  0  0  0  0  0
  141.2373   72.5707  226.6638 H   0  0  0  0  0  0  0  0  0  0  0  0
  1  2  2  0
  2  3  1  0
  3  4  1  0
  4  5  1  0
  5  6  2  0
  5  7  1  0
  7  8  1  0
  8  9  1  0
  9 10  1  0
 10 11  1  0
 11 12  1  0
 12 13  1  0
 13 14  1  0
 14 15  1  0
 15 16  1  0
 16 17  1  0
  2 18  1  0
 18 19  2  0
 19 20  1  0
 20 21  2  0
 21 22  1  0
 22 23  2  0
 23 24  1  0
 23 25  1  0
 25 26  2  0
 26 27  1  0
 27 28  2  0
 11  7  1  0
 17 12  1  0
 28 18  1  0
 27 21  1  0
  3 29  1  0
  4 30  1  0
  4 31  1  0
  8 32  1  0
  8 33  1  0
  9 34  1  0
  9 35  1  0
 10 36  1  0
 10 37  1  0
 11 38  1  6
 12 39  1  0
 13 40  1  0
 13 41  1  0
 14 42  1  0
 14 43  1  0
 15 44  1  0
 15 45  1  0
 16 46  1  0
 16 47  1  0
 17 48  1  0
 17 49  1  0
 19 50  1  0
 20 51  1  0
 22 52  1  0
 25 53  1  0
 26 54  1  0
M  END
>  <smiles>  (43) 
O=C(NCC(=O)N1CCCC1C1CCCCC1)c1ccc2cc(Cl)ccc2n1

>  <score_type>  (43) 
oracle

>  <origin>  (43) 
autodockgpu

>  <m_score__min__energy>  (43) 
-8.9700000000000006

>  <m_primary>  (43) 
energy

>  <rmsd>  (43) 
2.007790937578229

>  <m_score__min__rmsd>  (43) 
2.007790937578229

>  <meeko>  (43) 
{"free_energy": -8.93, "intermolecular_energy": -10.42, "internal_energy": -1.42, "cluster_size": 32, "cluster_id": 1, "rank_in_cluster": 5}

>  <energy>  (43) 
-7.46

>  <cluster_rmsd>  (43) 
1.74

>  <cluster>  (43) 
2

$$$$

     RDKit          3D

 54 57  0  0  0  0  0  0  0  0999 V2000
  141.9540   73.4240  220.8570 O   0  0  0  0  0  0  0  0  0  0  0  0
  141.1790   74.1860  221.5200 C   0  0  0  0  0  0  0  0  0  0  0  0
  140.2190   73.5280  222.3390 N   0  0  0  0  0  0  0  0  0  0  0  0
  140.2040   72.0960  222.3500 C   0  0  0  0  0  0  0  0  0  0  0  0
  138.8480   71.5220  222.2780 C   0  0  0  0  0  0  0  0  0  0  0  0
  138.0800   71.7420  221.3070 O   0  0  0  0  0  0  0  0  0  0  0  0
  138.4250   70.6950  223.3580 N   0  0  0  0  0  0  0  0  0  0  0  0
  137.0820   70.5350  223.9100 C   0  0  0  0  0  0  0  0  0  0  0  0
  137.0320   69.0770  224.3810 C   0  0  0  0  0  0  0  0  0  0  0  0
  138.4160   68.5440  224.0930 C   0  0  0  0  0  0  0  0  0  0  0  0
  139.2500   69.8000  224.1820 C   0  0  2  0  0  0  0  0  0  0  0  0
  139.3260   70.3280  225.6010 C   0  0  0  0  0  0  0  0  0  0  0  0
  140.2330   71.4890  225.6820 C   0  0  0  0  0  0  0  0  0  0  0  0
  141.1880   71.5510  226.8110 C   0  0  0  0  0  0  0  0  0  0  0  0
  141.0450   70.5580  227.9020 C   0  0  0  0  0  0  0  0  0  0  0  0
  139.7330   69.8160  227.9280 C   0  0  0  0  0  0  0  0  0  0  0  0
  139.6400   69.1910  226.5280 C   0  0  0  0  0  0  0  0  0  0  0  0
  141.2690   75.6360  221.4470 C   0  0  0  0  0  0  0  0  0  0  0  0
  141.7060   76.1970  220.2640 C   0  0  0  0  0  0  0  0  0  0  0  0
  141.8260   77.5400  220.0910 C   0  0  0  0  0  0  0  0  0  0  0  0
  141.4940   78.3640  221.1480 C   0  0  0  0  0  0  0  0  0  0  0  0
  141.5880   79.7390  221.0520 C   0  0  0  0  0  0  0  0  0  0  0  0
  141.2540   80.5500  222.1140 C   0  0  0  0  0  0  0  0  0  0  0  0
  141.4020   82.2840  221.9100 Cl  0  0  0  0  0  0  0  0  0  0  0  0
  140.8180   79.9740  223.2920 C   0  0  0  0  0  0  0  0  0  0  0  0
  140.7100   78.5920  223.4270 C   0  0  0  0  0  0  0  0  0  0  0  0
  141.0510   77.8040  222.3490 C   0  0  0  0  0  0  0  0  0  0  0  0
  140.9500   76.4530  222.4650 N   0  0  0  0  0  0  0  0  0  0  0  0
  139.5440   74.1120  222.9180 H   0  0  0  0  0  0  0  0  0  0  0  0
  140.7813   71.7350  221.4861 H   0  0  0  0  0  0  0  0  0  0  0  0
  140.6411   71.7750  223.3070 H   0  0  0  0  0  0  0  0  0  0  0  0
  136.9243   71.2221  224.7545 H   0  0  0  0  0  0  0  0  0  0  0  0
  136.2972   70.7641  223.1741 H   0  0  0  0  0  0  0  0  0  0  0  0
  136.8095   69.0225  225.4569 H   0  0  0  0  0  0  0  0  0  0  0  0
  136.2451   68.4986  223.8748 H   0  0  0  0  0  0  0  0  0  0  0  0
  138.7251   67.8028  224.8448 H   0  0  0  0  0  0  0  0  0  0  0  0
  138.5014   68.0175  223.1310 H   0  0  0  0  0  0  0  0  0  0  0  0
  140.2976   69.6763  223.8702 H   0  0  0  0  0  0  0  0  0  0  0  0
  138.3560   70.7283  225.9310 H   0  0  0  0  0  0  0  0  0  0  0  0
  140.8231   71.5077  224.7539 H   0  0  0  0  0  0  0  0  0  0  0  0
  139.5643   72.3476  225.8422 H   0  0  0  0  0  0  0  0  0  0  0  0
  142.1979   71.4320  226.3914 H   0  0  0  0  0  0  0  0  0  0  0  0
  140.9801   72.5180  227.2923 H   0  0  0  0  0  0  0  0  0  0  0  0
  141.8521   69.8181  227.7964 H   0  0  0  0  0  0  0  0  0  0  0  0
  141.0912   71.1285  228.8414 H   0  0  0  0  0  0  0  0  0  0  0  0
  139.7379   69.0378  228.7054 H   0  0  0  0  0  0  0  0  0  0  0  0
  138.8788   70.4688  228.1609 H   0  0  0  0  0  0  0  0  0  0  0  0
  140.5963   68.7228  226.2518 H   0  0  0  0  0  0  0  0  0  0  0  0
  138.8728   68.4040  226.4828 H   0  0  0  0  0  0  0  0  0  0  0  0
  141.9674   75.5312  219.4284 H   0  0  0  0  0  0  0  0  0  0  0  0
  142.1775   77.9583  219.1363 H   0  0  0  0  0  0  0  0  0  0  0  0
  141.9352   80.1934  220.1123 H   0  0  0  0  0  0  0  0  0  0  0  0
  140.5506   80.6205  224.1409 H   0  0  0  0  0  0  0  0  0  0  0  0
  140.3620   78.1417  224.3684 H   0  0  0  0  0  0  0  0  0  0  0  0
  1  2  2  0
  2  3  1  0
  3  4  1  0
  4  5  1  0
  5  6  2  0
  5  7  1  0
  7  8  1  0
  8  9  1  0
  9 10  1  0
 10 11  1  0
 11 12  1  0
 12 13  1  0
 13 14  1  0
 14 15  1  0
 15 16  1  0
 16 17  1  0
  2 18  1  0
 18 19  2  0
 19 20  1  0
 20 21  2  0
 21 22  1  0
 22 23  2  0
 23 24  1  0
 23 25  1  0
 25 26  2  0
 26 27  1  0
 27 28  2  0
 11  7  1  0
 17 12  1  0
 28 18  1  0
 27 21  1  0
  3 29  1  0
  4 30  1  0
  4 31  1  0
  8 32  1  0
  8 33  1  0
  9 34  1  0
  9 35  1  0
 10 36  1  0
 10 37  1  0
 11 38  1  6
 12 39  1  0
 13 40  1  0
 13 41  1  0
 14 42  1  0
 14 43  1  0
 15 44  1  0
 15 45  1  0
 16 46  1  0
 16 47  1  0
 17 48  1  0
 17 49  1  0
 19 50  1  0
 20 51  1  0
 22 52  1  0
 25 53  1  0
 26 54  1  0
M  END
>  <smiles>  (44) 
O=C(NCC(=O)N1CCCC1C1CCCCC1)c1ccc2cc(Cl)ccc2n1

>  <score_type>  (44) 
oracle

>  <origin>  (44) 
autodockgpu

>  <m_score__min__energy>  (44) 
-8.9700000000000006

>  <m_primary>  (44) 
energy

>  <rmsd>  (44) 
8.47842332540457

>  <m_score__min__rmsd>  (44) 
8.47842332540457

>  <meeko>  (44) 
{"free_energy": -8.12, "intermolecular_energy": -9.61, "internal_energy": -1.39, "cluster_size": 12, "cluster_id": 2, "rank_in_cluster": 8}

>  <energy>  (44) 
-7.42

>  <cluster_rmsd>  (44) 
1.7

>  <cluster>  (44) 
2

$$$$

     RDKit          3D

 54 57  0  0  0  0  0  0  0  0999 V2000
  139.4210   72.0510  220.8400 O   0  0  0  0  0  0  0  0  0  0  0  0
  139.5410   72.4770  222.0340 C   0  0  0  0  0  0  0  0  0  0  0  0
  139.4640   73.8880  222.1960 N   0  0  0  0  0  0  0  0  0  0  0  0
  139.2610   74.6950  221.0300 C   0  0  0  0  0  0  0  0  0  0  0  0
  140.1480   75.8720  220.9680 C   0  0  0  0  0  0  0  0  0  0  0  0
  141.3600   75.7770  220.6490 O   0  0  0  0  0  0  0  0  0  0  0  0
  139.5810   77.1390  221.2840 N   0  0  0  0  0  0  0  0  0  0  0  0
  138.8190   78.0370  220.4190 C   0  0  0  0  0  0  0  0  0  0  0  0
  137.8250   78.7260  221.3600 C   0  0  0  0  0  0  0  0  0  0  0  0
  138.1640   78.1780  222.7270 C   0  0  0  0  0  0  0  0  0  0  0  0
  139.6300   77.8520  222.5690 C   0  0  2  0  0  0  0  0  0  0  0  0
  140.4760   79.1030  222.4330 C   0  0  0  0  0  0  0  0  0  0  0  0
  141.8690   78.7620  222.0910 C   0  0  0  0  0  0  0  0  0  0  0  0
  142.9560   79.4690  222.8040 C   0  0  0  0  0  0  0  0  0  0  0  0
  142.5930   80.6170  223.6680 C   0  0  0  0  0  0  0  0  0  0  0  0
  141.2060   81.1680  223.4560 C   0  0  0  0  0  0  0  0  0  0  0  0
  140.2950   79.9490  223.6600 C   0  0  0  0  0  0  0  0  0  0  0  0
  139.7440   71.5790  223.1600 C   0  0  0  0  0  0  0  0  0  0  0  0
  139.4080   70.2500  222.9970 C   0  0  0  0  0  0  0  0  0  0  0  0
  139.5590   69.3300  223.9850 C   0  0  0  0  0  0  0  0  0  0  0  0
  140.0690   69.7530  225.1960 C   0  0  0  0  0  0  0  0  0  0  0  0
  140.2530   68.8800  226.2500 C   0  0  0  0  0  0  0  0  0  0  0  0
  140.7630   69.3150  227.4530 C   0  0  0  0  0  0  0  0  0  0  0  0
  140.9640   68.1430  228.7400 Cl  0  0  0  0  0  0  0  0  0  0  0  0
  141.0950   70.6480  227.6030 C   0  0  0  0  0  0  0  0  0  0  0  0
  140.9250   71.5590  226.5630 C   0  0  0  0  0  0  0  0  0  0  0  0
  140.4120   71.0960  225.3700 C   0  0  0  0  0  0  0  0  0  0  0  0
  140.2400   71.9730  224.3460 N   0  0  0  0  0  0  0  0  0  0  0  0
  139.5560   74.3040  223.1710 H   0  0  0  0  0  0  0  0  0  0  0  0
  139.4436   74.0741  220.1406 H   0  0  0  0  0  0  0  0  0  0  0  0
  138.2277   75.0700  221.0716 H   0  0  0  0  0  0  0  0  0  0  0  0
  139.4821   78.7760  219.9455 H   0  0  0  0  0  0  0  0  0  0  0  0
  138.3166   77.5016  219.5998 H   0  0  0  0  0  0  0  0  0  0  0  0
  137.9566   79.8178  221.3342 H   0  0  0  0  0  0  0  0  0  0  0  0
  136.7787   78.5359  221.0785 H   0  0  0  0  0  0  0  0  0  0  0  0
  138.0027   78.9310  223.5125 H   0  0  0  0  0  0  0  0  0  0  0  0
  137.5454   77.3208  223.0313 H   0  0  0  0  0  0  0  0  0  0  0  0
  140.0697   77.3041  223.4155 H   0  0  0  0  0  0  0  0  0  0  0  0
  140.1420   79.7210  221.5865 H   0  0  0  0  0  0  0  0  0  0  0  0
  141.9983   77.6866  222.2828 H   0  0  0  0  0  0  0  0  0  0  0  0
  141.9784   79.0788  221.0433 H   0  0  0  0  0  0  0  0  0  0  0  0
  143.4644   78.7294  223.4401 H   0  0  0  0  0  0  0  0  0  0  0  0
  143.5660   79.9117  222.0028 H   0  0  0  0  0  0  0  0  0  0  0  0
  142.6736   80.2927  224.7160 H   0  0  0  0  0  0  0  0  0  0  0  0
  143.2870   81.4286  223.4039 H   0  0  0  0  0  0  0  0  0  0  0  0
  140.9797   81.9543  224.1912 H   0  0  0  0  0  0  0  0  0  0  0  0
  141.0790   81.6345  222.4679 H   0  0  0  0  0  0  0  0  0  0  0  0
  140.5950   79.3911  224.5593 H   0  0  0  0  0  0  0  0  0  0  0  0
  139.2446   80.2436  223.8012 H   0  0  0  0  0  0  0  0  0  0  0  0
  139.0018   69.9230  222.0285 H   0  0  0  0  0  0  0  0  0  0  0  0
  139.2826   68.2774  223.8245 H   0  0  0  0  0  0  0  0  0  0  0  0
  139.9878   67.8196  226.1267 H   0  0  0  0  0  0  0  0  0  0  0  0
  141.5019   70.9969  228.5635 H   0  0  0  0  0  0  0  0  0  0  0  0
  141.1926   72.6184  226.6901 H   0  0  0  0  0  0  0  0  0  0  0  0
  1  2  2  0
  2  3  1  0
  3  4  1  0
  4  5  1  0
  5  6  2  0
  5  7  1  0
  7  8  1  0
  8  9  1  0
  9 10  1  0
 10 11  1  0
 11 12  1  0
 12 13  1  0
 13 14  1  0
 14 15  1  0
 15 16  1  0
 16 17  1  0
  2 18  1  0
 18 19  2  0
 19 20  1  0
 20 21  2  0
 21 22  1  0
 22 23  2  0
 23 24  1  0
 23 25  1  0
 25 26  2  0
 26 27  1  0
 27 28  2  0
 11  7  1  0
 17 12  1  0
 28 18  1  0
 27 21  1  0
  3 29  1  0
  4 30  1  0
  4 31  1  0
  8 32  1  0
  8 33  1  0
  9 34  1  0
  9 35  1  0
 10 36  1  0
 10 37  1  0
 11 38  1  1
 12 39  1  0
 13 40  1  0
 13 41  1  0
 14 42  1  0
 14 43  1  0
 15 44  1  0
 15 45  1  0
 16 46  1  0
 16 47  1  0
 17 48  1  0
 17 49  1  0
 19 50  1  0
 20 51  1  0
 22 52  1  0
 25 53  1  0
 26 54  1  0
M  END
>  <smiles>  (45) 
O=C(NCC(=O)N1CCCC1C1CCCCC1)c1ccc2cc(Cl)ccc2n1

>  <score_type>  (45) 
oracle

>  <origin>  (45) 
autodockgpu

>  <m_score__min__energy>  (45) 
-8.9700000000000006

>  <m_primary>  (45) 
energy

>  <rmsd>  (45) 
2.7763002133661354

>  <m_score__min__rmsd>  (45) 
2.7763002133661354

>  <meeko>  (45) 
{"free_energy": -8.53, "intermolecular_energy": -10.02, "internal_energy": -1.39, "cluster_size": 32, "cluster_id": 1, "rank_in_cluster": 21}

>  <energy>  (45) 
-7.93

>  <cluster_rmsd>  (45) 
0.0

>  <cluster>  (45) 
3

$$$$

     RDKit          3D

 54 57  0  0  0  0  0  0  0  0999 V2000
  134.8520   68.4850  224.8870 O   0  0  0  0  0  0  0  0  0  0  0  0
  135.0130   69.6170  224.3280 C   0  0  0  0  0  0  0  0  0  0  0  0
  135.6610   69.5920  223.0610 N   0  0  0  0  0  0  0  0  0  0  0  0
  136.0690   68.3260  222.5330 C   0  0  0  0  0  0  0  0  0  0  0  0
  137.5300   68.1260  222.5450 C   0  0  0  0  0  0  0  0  0  0  0  0
  138.0650   67.0880  222.0790 O   0  0  0  0  0  0  0  0  0  0  0  0
  138.3310   69.1590  223.1100 N   0  0  0  0  0  0  0  0  0  0  0  0
  139.3690   69.9610  222.4670 C   0  0  0  0  0  0  0  0  0  0  0  0
  139.2860   71.3250  223.1600 C   0  0  0  0  0  0  0  0  0  0  0  0
  138.2090   71.1480  224.2050 C   0  0  0  0  0  0  0  0  0  0  0  0
  138.3020   69.6680  224.4900 C   0  0  2  0  0  0  0  0  0  0  0  0
  139.5930   69.3090  225.1990 C   0  0  0  0  0  0  0  0  0  0  0  0
  139.6420   67.8670  225.5040 C   0  0  0  0  0  0  0  0  0  0  0  0
  140.1120   67.4530  226.8450 C   0  0  0  0  0  0  0  0  0  0  0  0
  140.6980   68.4880  227.7300 C   0  0  0  0  0  0  0  0  0  0  0  0
  141.0790   69.7770  227.0470 C   0  0  0  0  0  0  0  0  0  0  0  0
  139.7770   70.2290  226.3710 C   0  0  0  0  0  0  0  0  0  0  0  0
  134.5630   70.8560  224.9420 C   0  0  0  0  0  0  0  0  0  0  0  0
  133.5980   70.7770  225.9260 C   0  0  0  0  0  0  0  0  0  0  0  0
  133.1100   71.8740  226.5630 C   0  0  0  0  0  0  0  0  0  0  0  0
  133.6080   73.1110  226.2030 C   0  0  0  0  0  0  0  0  0  0  0  0
  133.1640   74.2730  226.8020 C   0  0  0  0  0  0  0  0  0  0  0  0
  133.6690   75.5000  226.4340 C   0  0  0  0  0  0  0  0  0  0  0  0
  133.0510   76.9260  227.2440 Cl  0  0  0  0  0  0  0  0  0  0  0  0
  134.6350   75.5640  225.4480 C   0  0  0  0  0  0  0  0  0  0  0  0
  135.1070   74.4150  224.8200 C   0  0  0  0  0  0  0  0  0  0  0  0
  134.5850   73.2000  225.2080 C   0  0  0  0  0  0  0  0  0  0  0  0
  135.0370   72.0680  224.6050 N   0  0  0  0  0  0  0  0  0  0  0  0
  135.8240   70.5080  222.5440 H   0  0  0  0  0  0  0  0  0  0  0  0
  135.6040   67.5316  223.1353 H   0  0  0  0  0  0  0  0  0  0  0  0
  135.7472   68.2955  221.4816 H   0  0  0  0  0  0  0  0  0  0  0  0
  140.3598   69.5078  222.6184 H   0  0  0  0  0  0  0  0  0  0  0  0
  139.2253   70.0357  221.3790 H   0  0  0  0  0  0  0  0  0  0  0  0
  140.2466   71.5823  223.6302 H   0  0  0  0  0  0  0  0  0  0  0  0
  139.0597   72.1404  222.4572 H   0  0  0  0  0  0  0  0  0  0  0  0
  138.4211   71.7441  225.1048 H   0  0  0  0  0  0  0  0  0  0  0  0
  137.2116   71.4791  223.8800 H   0  0  0  0  0  0  0  0  0  0  0  0
  137.5047   69.2768  225.1390 H   0  0  0  0  0  0  0  0  0  0  0  0
  140.4648   69.4696  224.5477 H   0  0  0  0  0  0  0  0  0  0  0  0
  138.6230   67.4720  225.3789 H   0  0  0  0  0  0  0  0  0  0  0  0
  140.3992   67.4672  224.8135 H   0  0  0  0  0  0  0  0  0  0  0  0
  139.2499   67.0208  227.3742 H   0  0  0  0  0  0  0  0  0  0  0  0
  140.9445   66.7632  226.6422 H   0  0  0  0  0  0  0  0  0  0  0  0
  139.9618   68.7226  228.5129 H   0  0  0  0  0  0  0  0  0  0  0  0
  141.6339   68.0614  228.1199 H   0  0  0  0  0  0  0  0  0  0  0  0
  141.4202   70.5232  227.7796 H   0  0  0  0  0  0  0  0  0  0  0  0
  141.9084   69.6534  226.3351 H   0  0  0  0  0  0  0  0  0  0  0  0
  138.9305   70.1381  227.0676 H   0  0  0  0  0  0  0  0  0  0  0  0
  139.8237   71.2828  226.0591 H   0  0  0  0  0  0  0  0  0  0  0  0
  133.2086   69.7870  226.2056 H   0  0  0  0  0  0  0  0  0  0  0  0
  132.3403   71.7794  227.3431 H   0  0  0  0  0  0  0  0  0  0  0  0
  132.3943   74.2177  227.5859 H   0  0  0  0  0  0  0  0  0  0  0  0
  135.0394   76.5436  225.1532 H   0  0  0  0  0  0  0  0  0  0  0  0
  135.8757   74.4751  224.0354 H   0  0  0  0  0  0  0  0  0  0  0  0
  1  2  2  0
  2  3  1  0
  3  4  1  0
  4  5  1  0
  5  6  2  0
  5  7  1  0
  7  8  1  0
  8  9  1  0
  9 10  1  0
 10 11  1  0
 11 12  1  0
 12 13  1  0
 13 14  1  0
 14 15  1  0
 15 16  1  0
 16 17  1  0
  2 18  1  0
 18 19  2  0
 19 20  1  0
 20 21  2  0
 21 22  1  0
 22 23  2  0
 23 24  1  0
 23 25  1  0
 25 26  2  0
 26 27  1  0
 27 28  2  0
 11  7  1  0
 17 12  1  0
 28 18  1  0
 27 21  1  0
  3 29  1  0
  4 30  1  0
  4 31  1  0
  8 32  1  0
  8 33  1  0
  9 34  1  0
  9 35  1  0
 10 36  1  0
 10 37  1  0
 11 38  1  1
 12 39  1  0
 13 40  1  0
 13 41  1  0
 14 42  1  0
 14 43  1  0
 15 44  1  0
 15 45  1  0
 16 46  1  0
 16 47  1  0
 17 48  1  0
 17 49  1  0
 19 50  1  0
 20 51  1  0
 22 52  1  0
 25 53  1  0
 26 54  1  0
M  END
>  <smiles>  (46) 
O=C(NCC(=O)N1CCCC1C1CCCCC1)c1ccc2cc(Cl)ccc2n1

>  <score_type>  (46) 
oracle

>  <origin>  (46) 
autodockgpu

>  <m_score__min__energy>  (46) 
-8.9700000000000006

>  <m_primary>  (46) 
energy

>  <rmsd>  (46) 
7.395040314143783

>  <m_score__min__rmsd>  (46) 
7.395040314143783

>  <meeko>  (46) 
{"free_energy": -7.27, "intermolecular_energy": -8.76, "internal_energy": -2.05, "cluster_size": 3, "cluster_id": 3, "rank_in_cluster": 2}

>  <energy>  (46) 
-7.27

>  <cluster_rmsd>  (46) 
1.56

>  <cluster>  (46) 
3

$$$$

     RDKit          3D

 54 57  0  0  0  0  0  0  0  0999 V2000
  136.2420   77.2180  223.0470 O   0  0  0  0  0  0  0  0  0  0  0  0
  136.3890   75.9640  223.2080 C   0  0  0  0  0  0  0  0  0  0  0  0
  137.5210   75.3870  222.5670 N   0  0  0  0  0  0  0  0  0  0  0  0
  138.3820   76.2460  221.8110 C   0  0  0  0  0  0  0  0  0  0  0  0
  139.7420   75.7040  221.6300 C   0  0  0  0  0  0  0  0  0  0  0  0
  140.0530   74.5450  222.0020 O   0  0  0  0  0  0  0  0  0  0  0  0
  140.7080   76.5480  221.0120 N   0  0  0  0  0  0  0  0  0  0  0  0
  142.0130   76.1860  220.4630 C   0  0  0  0  0  0  0  0  0  0  0  0
  142.2160   77.1490  219.2870 C   0  0  0  0  0  0  0  0  0  0  0  0
  140.9910   78.0330  219.3140 C   0  0  0  0  0  0  0  0  0  0  0  0
  140.6210   77.9960  220.7770 C   0  0  2  0  0  0  0  0  0  0  0  0
  141.6390   78.7210  221.6360 C   0  0  0  0  0  0  0  0  0  0  0  0
  141.5270   78.3070  223.0470 C   0  0  0  0  0  0  0  0  0  0  0  0
  141.5780   79.3560  224.0890 C   0  0  0  0  0  0  0  0  0  0  0  0
  141.9420   80.7330  223.6760 C   0  0  0  0  0  0  0  0  0  0  0  0
  142.5650   80.8500  222.3070 C   0  0  0  0  0  0  0  0  0  0  0  0
  141.5310   80.1960  221.3800 C   0  0  0  0  0  0  0  0  0  0  0  0
  135.4590   75.1700  223.9970 C   0  0  0  0  0  0  0  0  0  0  0  0
  135.4310   73.8070  223.7840 C   0  0  0  0  0  0  0  0  0  0  0  0
  134.6010   72.9750  224.4670 C   0  0  0  0  0  0  0  0  0  0  0  0
  133.7570   73.5290  225.4100 C   0  0  0  0  0  0  0  0  0  0  0  0
  132.8840   72.7530  226.1460 C   0  0  0  0  0  0  0  0  0  0  0  0
  132.0480   73.3180  227.0830 C   0  0  0  0  0  0  0  0  0  0  0  0
  130.9700   72.2620  227.9740 Cl  0  0  0  0  0  0  0  0  0  0  0  0
  132.0870   74.6840  227.2860 C   0  0  0  0  0  0  0  0  0  0  0  0
  132.9530   75.5000  226.5640 C   0  0  0  0  0  0  0  0  0  0  0  0
  133.7790   74.9080  225.6320 C   0  0  0  0  0  0  0  0  0  0  0  0
  134.6310   75.6920  224.9190 N   0  0  0  0  0  0  0  0  0  0  0  0
  137.6970   74.3430  222.6660 H   0  0  0  0  0  0  0  0  0  0  0  0
  137.9343   76.4018  220.8184 H   0  0  0  0  0  0  0  0  0  0  0  0
  138.4802   77.1846  222.3762 H   0  0  0  0  0  0  0  0  0  0  0  0
  142.8028   76.3209  221.2167 H   0  0  0  0  0  0  0  0  0  0  0  0
  142.0581   75.1317  220.1525 H   0  0  0  0  0  0  0  0  0  0  0  0
  143.1301   77.7452  219.4247 H   0  0  0  0  0  0  0  0  0  0  0  0
  142.3342   76.6230  218.3281 H   0  0  0  0  0  0  0  0  0  0  0  0
  141.2271   79.0559  218.9856 H   0  0  0  0  0  0  0  0  0  0  0  0
  140.1863   77.7026  218.6408 H   0  0  0  0  0  0  0  0  0  0  0  0
  139.6588   78.4722  221.0165 H   0  0  0  0  0  0  0  0  0  0  0  0
  142.6662   78.4402  221.3604 H   0  0  0  0  0  0  0  0  0  0  0  0
  140.5661   77.7833  223.1580 H   0  0  0  0  0  0  0  0  0  0  0  0
  142.4274   77.7009  223.2258 H   0  0  0  0  0  0  0  0  0  0  0  0
  140.5810   79.4063  224.5511 H   0  0  0  0  0  0  0  0  0  0  0  0
  142.3978   79.0433  224.7525 H   0  0  0  0  0  0  0  0  0  0  0  0
  141.0276   81.3444  223.6870 H   0  0  0  0  0  0  0  0  0  0  0  0
  142.7071   81.0732  224.3894 H   0  0  0  0  0  0  0  0  0  0  0  0
  142.7228   81.9045  222.0366 H   0  0  0  0  0  0  0  0  0  0  0  0
  143.5542   80.3727  222.2465 H   0  0  0  0  0  0  0  0  0  0  0  0
  140.5190   80.5546  221.6193 H   0  0  0  0  0  0  0  0  0  0  0  0
  141.7167   80.4415  220.3240 H   0  0  0  0  0  0  0  0  0  0  0  0
  136.1076   73.3764  223.0312 H   0  0  0  0  0  0  0  0  0  0  0  0
  134.6013   71.8920  224.2744 H   0  0  0  0  0  0  0  0  0  0  0  0
  132.8558   71.6658  225.9812 H   0  0  0  0  0  0  0  0  0  0  0  0
  131.4194   75.1363  228.0342 H   0  0  0  0  0  0  0  0  0  0  0  0
  132.9778   76.5868  226.7321 H   0  0  0  0  0  0  0  0  0  0  0  0
  1  2  2  0
  2  3  1  0
  3  4  1  0
  4  5  1  0
  5  6  2  0
  5  7  1  0
  7  8  1  0
  8  9  1  0
  9 10  1  0
 10 11  1  0
 11 12  1  0
 12 13  1  0
 13 14  1  0
 14 15  1  0
 15 16  1  0
 16 17  1  0
  2 18  1  0
 18 19  2  0
 19 20  1  0
 20 21  2  0
 21 22  1  0
 22 23  2  0
 23 24  1  0
 23 25  1  0
 25 26  2  0
 26 27  1  0
 27 28  2  0
 11  7  1  0
 17 12  1  0
 28 18  1  0
 27 21  1  0
  3 29  1  0
  4 30  1  0
  4 31  1  0
  8 32  1  0
  8 33  1  0
  9 34  1  0
  9 35  1  0
 10 36  1  0
 10 37  1  0
 11 38  1  6
 12 39  1  0
 13 40  1  0
 13 41  1  0
 14 42  1  0
 14 43  1  0
 15 44  1  0
 15 45  1  0
 16 46  1  0
 16 47  1  0
 17 48  1  0
 17 49  1  0
 19 50  1  0
 20 51  1  0
 22 52  1  0
 25 53  1  0
 26 54  1  0
M  END
>  <smiles>  (47) 
O=C(NCC(=O)N1CCCC1C1CCCCC1)c1ccc2cc(Cl)ccc2n1

>  <score_type>  (47) 
oracle

>  <origin>  (47) 
autodockgpu

>  <m_score__min__energy>  (47) 
-8.9700000000000006

>  <m_primary>  (47) 
energy

>  <rmsd>  (47) 
5.682913261270189

>  <m_score__min__rmsd>  (47) 
5.682913261270189

>  <meeko>  (47) 
{"free_energy": -7.75, "intermolecular_energy": -9.25, "internal_energy": -1.52, "cluster_size": 2, "cluster_id": 4, "rank_in_cluster": 1}

>  <energy>  (47) 
-7.26

>  <cluster_rmsd>  (47) 
1.57

>  <cluster>  (47) 
3

$$$$

     RDKit          3D

 54 57  0  0  0  0  0  0  0  0999 V2000
  133.6320   69.5280  226.4760 O   0  0  0  0  0  0  0  0  0  0  0  0
  134.1580   70.6290  226.1140 C   0  0  0  0  0  0  0  0  0  0  0  0
  135.3520   70.5200  225.3470 N   0  0  0  0  0  0  0  0  0  0  0  0
  135.8510   69.2110  225.0520 C   0  0  0  0  0  0  0  0  0  0  0  0
  136.4330   69.0930  223.7020 C   0  0  0  0  0  0  0  0  0  0  0  0
  135.8180   68.5350  222.7580 O   0  0  0  0  0  0  0  0  0  0  0  0
  137.7330   69.6370  223.4960 N   0  0  0  0  0  0  0  0  0  0  0  0
  138.7540   69.2160  222.5400 C   0  0  0  0  0  0  0  0  0  0  0  0
  139.4890   70.5090  222.1690 C   0  0  0  0  0  0  0  0  0  0  0  0
  138.8290   71.5700  223.0190 C   0  0  0  0  0  0  0  0  0  0  0  0
  138.3600   70.7610  224.2050 C   0  0  2  0  0  0  0  0  0  0  0  0
  139.5210   70.2600  225.0420 C   0  0  0  0  0  0  0  0  0  0  0  0
  139.0560   69.3200  226.0780 C   0  0  0  0  0  0  0  0  0  0  0  0
  139.6010   69.4620  227.4460 C   0  0  0  0  0  0  0  0  0  0  0  0
  140.7280   70.4010  227.6540 C   0  0  0  0  0  0  0  0  0  0  0  0
  141.4340   70.8470  226.3980 C   0  0  0  0  0  0  0  0  0  0  0  0
  140.3080   71.4380  225.5390 C   0  0  0  0  0  0  0  0  0  0  0  0
  133.5780   71.9170  226.4610 C   0  0  0  0  0  0  0  0  0  0  0  0
  132.3960   71.9220  227.1740 C   0  0  0  0  0  0  0  0  0  0  0  0
  131.7710   73.0690  227.5480 C   0  0  0  0  0  0  0  0  0  0  0  0
  132.3520   74.2720  227.1950 C   0  0  0  0  0  0  0  0  0  0  0  0
  131.7810   75.4810  227.5380 C   0  0  0  0  0  0  0  0  0  0  0  0
  132.3700   76.6730  227.1800 C   0  0  0  0  0  0  0  0  0  0  0  0
  131.5800   78.1630  227.6530 Cl  0  0  0  0  0  0  0  0  0  0  0  0
  133.5540   76.6520  226.4670 C   0  0  0  0  0  0  0  0  0  0  0  0
  134.1610   75.4540  226.1030 C   0  0  0  0  0  0  0  0  0  0  0  0
  133.5480   74.2750  226.4740 C   0  0  0  0  0  0  0  0  0  0  0  0
  134.1290   73.0960  226.1270 N   0  0  0  0  0  0  0  0  0  0  0  0
  135.8370   71.4060  225.0140 H   0  0  0  0  0  0  0  0  0  0  0  0
  136.6281   68.9605  225.7891 H   0  0  0  0  0  0  0  0  0  0  0  0
  134.9953   68.5212  225.0965 H   0  0  0  0  0  0  0  0  0  0  0  0
  139.4447   68.4948  223.0012 H   0  0  0  0  0  0  0  0  0  0  0  0
  138.3227   68.7133  221.6617 H   0  0  0  0  0  0  0  0  0  0  0  0
  140.5602   70.4302  222.4062 H   0  0  0  0  0  0  0  0  0  0  0  0
  139.4283   70.7336  221.0939 H   0  0  0  0  0  0  0  0  0  0  0  0
  139.5473   72.3462  223.3214 H   0  0  0  0  0  0  0  0  0  0  0  0
  138.0255   72.1186  222.5057 H   0  0  0  0  0  0  0  0  0  0  0  0
  137.7204   71.3122  224.9100 H   0  0  0  0  0  0  0  0  0  0  0  0
  140.2190   69.6617  224.4380 H   0  0  0  0  0  0  0  0  0  0  0  0
  137.9636   69.4275  226.1493 H   0  0  0  0  0  0  0  0  0  0  0  0
  139.4209   68.3390  225.7396 H   0  0  0  0  0  0  0  0  0  0  0  0
  138.7759   69.7934  228.0936 H   0  0  0  0  0  0  0  0  0  0  0  0
  140.0229   68.4726  227.6766 H   0  0  0  0  0  0  0  0  0  0  0  0
  140.3362   71.2958  228.1599 H   0  0  0  0  0  0  0  0  0  0  0  0
  141.4760   69.8530  228.2458 H   0  0  0  0  0  0  0  0  0  0  0  0
  142.1951   71.6080  226.6249 H   0  0  0  0  0  0  0  0  0  0  0  0
  141.9688   70.0276  225.8954 H   0  0  0  0  0  0  0  0  0  0  0  0
  139.6698   72.0990  226.1438 H   0  0  0  0  0  0  0  0  0  0  0  0
  140.7027   72.0437  224.7100 H   0  0  0  0  0  0  0  0  0  0  0  0
  131.9420   70.9589  227.4504 H   0  0  0  0  0  0  0  0  0  0  0  0
  130.8292   73.0407  228.1157 H   0  0  0  0  0  0  0  0  0  0  0  0
  130.8396   75.4924  228.1069 H   0  0  0  0  0  0  0  0  0  0  0  0
  134.0267   77.6032  226.1811 H   0  0  0  0  0  0  0  0  0  0  0  0
  135.1032   75.4471  225.5353 H   0  0  0  0  0  0  0  0  0  0  0  0
  1  2  2  0
  2  3  1  0
  3  4  1  0
  4  5  1  0
  5  6  2  0
  5  7  1  0
  7  8  1  0
  8  9  1  0
  9 10  1  0
 10 11  1  0
 11 12  1  0
 12 13  1  0
 13 14  1  0
 14 15  1  0
 15 16  1  0
 16 17  1  0
  2 18  1  0
 18 19  2  0
 19 20  1  0
 20 21  2  0
 21 22  1  0
 22 23  2  0
 23 24  1  0
 23 25  1  0
 25 26  2  0
 26 27  1  0
 27 28  2  0
 11  7  1  0
 17 12  1  0
 28 18  1  0
 27 21  1  0
  3 29  1  0
  4 30  1  0
  4 31  1  0
  8 32  1  0
  8 33  1  0
  9 34  1  0
  9 35  1  0
 10 36  1  0
 10 37  1  0
 11 38  1  1
 12 39  1  0
 13 40  1  0
 13 41  1  0
 14 42  1  0
 14 43  1  0
 15 44  1  0
 15 45  1  0
 16 46  1  0
 16 47  1  0
 17 48  1  0
 17 49  1  0
 19 50  1  0
 20 51  1  0
 22 52  1  0
 25 53  1  0
 26 54  1  0
M  END
>  <smiles>  (48) 
O=C(NCC(=O)N1CCCC1C1CCCCC1)c1ccc2cc(Cl)ccc2n1

>  <score_type>  (48) 
oracle

>  <origin>  (48) 
autodockgpu

>  <m_score__min__energy>  (48) 
-8.9700000000000006

>  <m_primary>  (48) 
energy

>  <rmsd>  (48) 
8.041989708923822

>  <m_score__min__rmsd>  (48) 
8.041989708923822

>  <meeko>  (48) 
{"free_energy": -7.93, "intermolecular_energy": -9.42, "internal_energy": -1.59, "cluster_size": 3, "cluster_id": 3, "rank_in_cluster": 1}

>  <energy>  (48) 
-7.75

>  <cluster_rmsd>  (48) 
0.0

>  <cluster>  (48) 
4

$$$$

     RDKit          3D

 54 57  0  0  0  0  0  0  0  0999 V2000
  139.6900   72.0160  220.7760 O   0  0  0  0  0  0  0  0  0  0  0  0
  139.3970   72.3590  221.9660 C   0  0  0  0  0  0  0  0  0  0  0  0
  138.8310   73.6560  222.1130 N   0  0  0  0  0  0  0  0  0  0  0  0
  138.6410   74.4500  220.9370 C   0  0  0  0  0  0  0  0  0  0  0  0
  138.9190   75.8840  221.1430 C   0  0  0  0  0  0  0  0  0  0  0  0
  138.0150   76.7010  221.4490 O   0  0  0  0  0  0  0  0  0  0  0  0
  140.2640   76.3230  220.9810 N   0  0  0  0  0  0  0  0  0  0  0  0
  141.4960   75.5470  221.1040 C   0  0  0  0  0  0  0  0  0  0  0  0
  142.4560   76.1860  220.0950 C   0  0  0  0  0  0  0  0  0  0  0  0
  141.6710   77.3390  219.5130 C   0  0  0  0  0  0  0  0  0  0  0  0
  140.7360   77.6750  220.6500 C   0  0  2  0  0  0  0  0  0  0  0  0
  141.4750   78.2680  221.8340 C   0  0  0  0  0  0  0  0  0  0  0  0
  140.6160   78.2950  223.0310 C   0  0  0  0  0  0  0  0  0  0  0  0
  140.6130   79.5200  223.8620 C   0  0  0  0  0  0  0  0  0  0  0  0
  141.6200   80.5670  223.5640 C   0  0  0  0  0  0  0  0  0  0  0  0
  142.7630   80.1280  222.6840 C   0  0  0  0  0  0  0  0  0  0  0  0
  142.0680   79.5860  221.4270 C   0  0  0  0  0  0  0  0  0  0  0  0
  139.6260   71.4830  223.1040 C   0  0  0  0  0  0  0  0  0  0  0  0
  139.2930   70.1500  222.9710 C   0  0  0  0  0  0  0  0  0  0  0  0
  139.4670   69.2480  223.9720 C   0  0  0  0  0  0  0  0  0  0  0  0
  139.9980   69.6950  225.1660 C   0  0  0  0  0  0  0  0  0  0  0  0
  140.2060   68.8420  226.2320 C   0  0  0  0  0  0  0  0  0  0  0  0
  140.7360   69.3000  227.4170 C   0  0  0  0  0  0  0  0  0  0  0  0
  140.9670   68.1520  228.7200 Cl  0  0  0  0  0  0  0  0  0  0  0  0
  141.0650   70.6370  227.5360 C   0  0  0  0  0  0  0  0  0  0  0  0
  140.8700   71.5290  226.4850 C   0  0  0  0  0  0  0  0  0  0  0  0
  140.3370   71.0420  225.3100 C   0  0  0  0  0  0  0  0  0  0  0  0
  140.1420   71.9000  224.2730 N   0  0  0  0  0  0  0  0  0  0  0  0
  138.5640   73.9990  223.0840 H   0  0  0  0  0  0  0  0  0  0  0  0
  139.3131   74.0746  220.1513 H   0  0  0  0  0  0  0  0  0  0  0  0
  137.5810   74.3634  220.6563 H   0  0  0  0  0  0  0  0  0  0  0  0
  141.9004   75.6190  222.1244 H   0  0  0  0  0  0  0  0  0  0  0  0
  141.3365   74.4763  220.9086 H   0  0  0  0  0  0  0  0  0  0  0  0
  143.3654   76.5476  220.5972 H   0  0  0  0  0  0  0  0  0  0  0  0
  142.7923   75.4752  219.3258 H   0  0  0  0  0  0  0  0  0  0  0  0
  142.3265   78.1878  219.2683 H   0  0  0  0  0  0  0  0  0  0  0  0
  141.1595   77.1005  218.5688 H   0  0  0  0  0  0  0  0  0  0  0  0
  139.9618   78.4156  220.4007 H   0  0  0  0  0  0  0  0  0  0  0  0
  142.3224   77.6342  222.1345 H   0  0  0  0  0  0  0  0  0  0  0  0
  139.5823   78.1265  222.6946 H   0  0  0  0  0  0  0  0  0  0  0  0
  141.0393   77.5209  223.6879 H   0  0  0  0  0  0  0  0  0  0  0  0
  139.6203   79.9825  223.7590 H   0  0  0  0  0  0  0  0  0  0  0  0
  140.8740   79.1677  224.8709 H   0  0  0  0  0  0  0  0  0  0  0  0
  141.1059   81.4006  223.0631 H   0  0  0  0  0  0  0  0  0  0  0  0
  142.0677   80.8430  224.5301 H   0  0  0  0  0  0  0  0  0  0  0  0
  143.4156   80.9780  222.4356 H   0  0  0  0  0  0  0  0  0  0  0  0
  143.4109   79.3822  223.1677 H   0  0  0  0  0  0  0  0  0  0  0  0
  141.2787   80.2769  221.0958 H   0  0  0  0  0  0  0  0  0  0  0  0
  142.7702   79.4760  220.5875 H   0  0  0  0  0  0  0  0  0  0  0  0
  138.8698   69.8042  222.0163 H   0  0  0  0  0  0  0  0  0  0  0  0
  139.1927   68.1916  223.8353 H   0  0  0  0  0  0  0  0  0  0  0  0
  139.9437   67.7784  226.1324 H   0  0  0  0  0  0  0  0  0  0  0  0
  141.4902   71.0044  228.4816 H   0  0  0  0  0  0  0  0  0  0  0  0
  141.1335   72.5919  226.5889 H   0  0  0  0  0  0  0  0  0  0  0  0
  1  2  2  0
  2  3  1  0
  3  4  1  0
  4  5  1  0
  5  6  2  0
  5  7  1  0
  7  8  1  0
  8  9  1  0
  9 10  1  0
 10 11  1  0
 11 12  1  0
 12 13  1  0
 13 14  1  0
 14 15  1  0
 15 16  1  0
 16 17  1  0
  2 18  1  0
 18 19  2  0
 19 20  1  0
 20 21  2  0
 21 22  1  0
 22 23  2  0
 23 24  1  0
 23 25  1  0
 25 26  2  0
 26 27  1  0
 27 28  2  0
 11  7  1  0
 17 12  1  0
 28 18  1  0
 27 21  1  0
  3 29  1  0
  4 30  1  0
  4 31  1  0
  8 32  1  0
  8 33  1  0
  9 34  1  0
  9 35  1  0
 10 36  1  0
 10 37  1  0
 11 38  1  6
 12 39  1  0
 13 40  1  0
 13 41  1  0
 14 42  1  0
 14 43  1  0
 15 44  1  0
 15 45  1  0
 16 46  1  0
 16 47  1  0
 17 48  1  0
 17 49  1  0
 19 50  1  0
 20 51  1  0
 22 52  1  0
 25 53  1  0
 26 54  1  0
M  END
>  <smiles>  (49) 
O=C(NCC(=O)N1CCCC1C1CCCCC1)c1ccc2cc(Cl)ccc2n1

>  <score_type>  (49) 
oracle

>  <origin>  (49) 
autodockgpu

>  <m_score__min__energy>  (49) 
-8.9700000000000006

>  <m_primary>  (49) 
energy

>  <rmsd>  (49) 
1.9617685510529186

>  <m_score__min__rmsd>  (49) 
1.9617685510529186

>  <meeko>  (49) 
{"free_energy": -8.71, "intermolecular_energy": -10.21, "internal_energy": -1.44, "cluster_size": 32, "cluster_id": 1, "rank_in_cluster": 10}

>  <energy>  (49) 
-7.66

>  <cluster_rmsd>  (49) 
0.34

>  <cluster>  (49) 
4

$$$$

     RDKit          3D

 54 57  0  0  0  0  0  0  0  0999 V2000
  140.8810   72.6800  221.0810 O   0  0  0  0  0  0  0  0  0  0  0  0
  140.1900   72.8510  222.1360 C   0  0  0  0  0  0  0  0  0  0  0  0
  139.4050   74.0370  222.1740 N   0  0  0  0  0  0  0  0  0  0  0  0
  139.4570   74.9210  221.0480 C   0  0  0  0  0  0  0  0  0  0  0  0
  139.5970   76.3410  221.4200 C   0  0  0  0  0  0  0  0  0  0  0  0
  138.8860   76.8710  222.3100 O   0  0  0  0  0  0  0  0  0  0  0  0
  140.5790   77.1070  220.7300 N   0  0  0  0  0  0  0  0  0  0  0  0
  141.9320   76.7150  220.3400 C   0  0  0  0  0  0  0  0  0  0  0  0
  142.1890   77.4700  219.0310 C   0  0  0  0  0  0  0  0  0  0  0  0
  140.9380   78.2910  218.8220 C   0  0  0  0  0  0  0  0  0  0  0  0
  140.4630   78.4890  220.2420 C   0  0  2  0  0  0  0  0  0  0  0  0
  141.3930   79.3930  221.0280 C   0  0  0  0  0  0  0  0  0  0  0  0
  141.6580   78.8390  222.3680 C   0  0  0  0  0  0  0  0  0  0  0  0
  141.6200   79.7610  223.5250 C   0  0  0  0  0  0  0  0  0  0  0  0
  141.5220   81.2160  223.2560 C   0  0  0  0  0  0  0  0  0  0  0  0
  141.8270   81.6290  221.8380 C   0  0  0  0  0  0  0  0  0  0  0  0
  140.8520   80.7930  220.9970 C   0  0  0  0  0  0  0  0  0  0  0  0
  140.2000   71.8950  223.2320 C   0  0  0  0  0  0  0  0  0  0  0  0
  139.7400   70.6190  222.9820 C   0  0  0  0  0  0  0  0  0  0  0  0
  139.7070   69.6510  223.9360 C   0  0  0  0  0  0  0  0  0  0  0  0
  140.1550   69.9710  225.2020 C   0  0  0  0  0  0  0  0  0  0  0  0
  140.1550   69.0450  226.2260 C   0  0  0  0  0  0  0  0  0  0  0  0
  140.6040   69.3770  227.4850 C   0  0  0  0  0  0  0  0  0  0  0  0
  140.5700   68.1430  228.7290 Cl  0  0  0  0  0  0  0  0  0  0  0  0
  141.0620   70.6590  227.7220 C   0  0  0  0  0  0  0  0  0  0  0  0
  141.0790   71.6210  226.7150 C   0  0  0  0  0  0  0  0  0  0  0  0
  140.6230   71.2610  225.4650 C   0  0  0  0  0  0  0  0  0  0  0  0
  140.6330   72.1890  224.4710 N   0  0  0  0  0  0  0  0  0  0  0  0
  138.8050   74.2350  223.0300 H   0  0  0  0  0  0  0  0  0  0  0  0
  140.3171   74.6385  220.4232 H   0  0  0  0  0  0  0  0  0  0  0  0
  138.5011   74.8197  220.5132 H   0  0  0  0  0  0  0  0  0  0  0  0
  142.6598   77.0122  221.1094 H   0  0  0  0  0  0  0  0  0  0  0  0
  142.0338   75.6262  220.2214 H   0  0  0  0  0  0  0  0  0  0  0  0
  143.0712   78.1206  219.1231 H   0  0  0  0  0  0  0  0  0  0  0  0
  142.3931   76.7930  218.1884 H   0  0  0  0  0  0  0  0  0  0  0  0
  141.1650   79.2519  218.3372 H   0  0  0  0  0  0  0  0  0  0  0  0
  140.1956   77.8153  218.1643 H   0  0  0  0  0  0  0  0  0  0  0  0
  139.4714   78.9569  220.3306 H   0  0  0  0  0  0  0  0  0  0  0  0
  142.3890   79.4424  220.5636 H   0  0  0  0  0  0  0  0  0  0  0  0
  140.9087   78.0548  222.5509 H   0  0  0  0  0  0  0  0  0  0  0  0
  142.7040   78.5017  222.3220 H   0  0  0  0  0  0  0  0  0  0  0  0
  140.7488   79.4825  224.1361 H   0  0  0  0  0  0  0  0  0  0  0  0
  142.6016   79.6372  224.0057 H   0  0  0  0  0  0  0  0  0  0  0  0
  140.4965   81.5371  223.4908 H   0  0  0  0  0  0  0  0  0  0  0  0
  142.2873   81.6948  223.8846 H   0  0  0  0  0  0  0  0  0  0  0  0
  141.6455   82.7045  221.6951 H   0  0  0  0  0  0  0  0  0  0  0  0
  142.8787   81.4619  221.5625 H   0  0  0  0  0  0  0  0  0  0  0  0
  139.8429   80.8248  221.4337 H   0  0  0  0  0  0  0  0  0  0  0  0
  140.7688   81.1754  219.9689 H   0  0  0  0  0  0  0  0  0  0  0  0
  139.3855   70.3747  221.9698 H   0  0  0  0  0  0  0  0  0  0  0  0
  139.3341   68.6420  223.7058 H   0  0  0  0  0  0  0  0  0  0  0  0
  139.7904   68.0253  226.0332 H   0  0  0  0  0  0  0  0  0  0  0  0
  141.4207   70.9254  228.7272 H   0  0  0  0  0  0  0  0  0  0  0  0
  141.4459   72.6392  226.9116 H   0  0  0  0  0  0  0  0  0  0  0  0
  1  2  2  0
  2  3  1  0
  3  4  1  0
  4  5  1  0
  5  6  2  0
  5  7  1  0
  7  8  1  0
  8  9  1  0
  9 10  1  0
 10 11  1  0
 11 12  1  0
 12 13  1  0
 13 14  1  0
 14 15  1  0
 15 16  1  0
 16 17  1  0
  2 18  1  0
 18 19  2  0
 19 20  1  0
 20 21  2  0
 21 22  1  0
 22 23  2  0
 23 24  1  0
 23 25  1  0
 25 26  2  0
 26 27  1  0
 27 28  2  0
 11  7  1  0
 17 12  1  0
 28 18  1  0
 27 21  1  0
  3 29  1  0
  4 30  1  0
  4 31  1  0
  8 32  1  0
  8 33  1  0
  9 34  1  0
  9 35  1  0
 10 36  1  0
 10 37  1  0
 11 38  1  6
 12 39  1  0
 13 40  1  0
 13 41  1  0
 14 42  1  0
 14 43  1  0
 15 44  1  0
 15 45  1  0
 16 46  1  0
 16 47  1  0
 17 48  1  0
 17 49  1  0
 19 50  1  0
 20 51  1  0
 22 52  1  0
 25 53  1  0
 26 54  1  0
M  END
>  <smiles>  (50) 
O=C(NCC(=O)N1CCCC1C1CCCCC1)c1ccc2cc(Cl)ccc2n1

>  <score_type>  (50) 
oracle

>  <origin>  (50) 
autodockgpu

>  <m_score__min__energy>  (50) 
-8.9700000000000006

>  <m_primary>  (50) 
energy

>  <rmsd>  (50) 
2.176310794097688

>  <m_score__min__rmsd>  (50) 
2.176310794097688

>  <meeko>  (50) 
{"free_energy": -8.54, "intermolecular_energy": -10.03, "internal_energy": -1.25, "cluster_size": 32, "cluster_id": 1, "rank_in_cluster": 20}

>  <energy>  (50) 
-7.14

>  <cluster_rmsd>  (50) 
0.0

>  <cluster>  (50) 
5

$$$$

     RDKit          3D

 54 57  0  0  0  0  0  0  0  0999 V2000
  134.6970   68.5140  225.3070 O   0  0  0  0  0  0  0  0  0  0  0  0
  134.9830   69.7170  224.9900 C   0  0  0  0  0  0  0  0  0  0  0  0
  136.0020   69.9530  224.0000 N   0  0  0  0  0  0  0  0  0  0  0  0
  136.7210   68.9430  223.3290 C   0  0  0  0  0  0  0  0  0  0  0  0
  138.1610   68.9120  223.3110 C   0  0  0  0  0  0  0  0  0  0  0  0
  138.6750   67.7180  223.3430 O   0  0  0  0  0  0  0  0  0  0  0  0
  139.1140   69.9570  223.2700 N   0  0  0  0  0  0  0  0  0  0  0  0
  139.1850   70.9040  222.1400 C   0  0  0  0  0  0  0  0  0  0  0  0
  139.7300   72.1770  222.7920 C   0  0  0  0  0  0  0  0  0  0  0  0
  140.6750   71.5870  223.7920 C   0  0  0  0  0  0  0  0  0  0  0  0
  140.1460   70.2840  224.2250 C   0  0  1  0  0  0  0  0  0  0  0  0
  139.7510   70.2020  225.6770 C   0  0  0  0  0  0  0  0  0  0  0  0
  140.4520   71.1350  226.5720 C   0  0  0  0  0  0  0  0  0  0  0  0
  140.7880   70.7510  227.9480 C   0  0  0  0  0  0  0  0  0  0  0  0
  140.2480   69.4030  228.3750 C   0  0  0  0  0  0  0  0  0  0  0  0
  140.6900   68.4570  227.2460 C   0  0  0  0  0  0  0  0  0  0  0  0
  139.7850   68.7330  226.1030 C   0  0  0  0  0  0  0  0  0  0  0  0
  134.2790   70.8330  225.6290 C   0  0  0  0  0  0  0  0  0  0  0  0
  133.2450   70.5440  226.4940 C   0  0  0  0  0  0  0  0  0  0  0  0
  132.5600   71.5680  227.1090 C   0  0  0  0  0  0  0  0  0  0  0  0
  132.9050   72.8800  226.8650 C   0  0  0  0  0  0  0  0  0  0  0  0
  132.2520   73.9460  227.4540 C   0  0  0  0  0  0  0  0  0  0  0  0
  132.6010   75.2440  227.2030 C   0  0  0  0  0  0  0  0  0  0  0  0
  131.7590   76.6010  227.9610 Cl  0  0  0  0  0  0  0  0  0  0  0  0
  133.6530   75.5020  226.3240 C   0  0  0  0  0  0  0  0  0  0  0  0
  134.3170   74.4490  225.7260 C   0  0  0  0  0  0  0  0  0  0  0  0
  133.9470   73.1300  225.9920 C   0  0  0  0  0  0  0  0  0  0  0  0
  134.6090   72.1150  225.3970 N   0  0  0  0  0  0  0  0  0  0  0  0
  136.1720   70.9820  223.8070 H   0  0  0  0  0  0  0  0  0  0  0  0
  136.3984   67.9895  223.7726 H   0  0  0  0  0  0  0  0  0  0  0  0
  136.4823   69.1519  222.2757 H   0  0  0  0  0  0  0  0  0  0  0  0
  139.8667   70.5369  221.3586 H   0  0  0  0  0  0  0  0  0  0  0  0
  138.2176   71.0537  221.6382 H   0  0  0  0  0  0  0  0  0  0  0  0
  140.2542   72.8138  222.0642 H   0  0  0  0  0  0  0  0  0  0  0  0
  138.9621   72.8378  223.2207 H   0  0  0  0  0  0  0  0  0  0  0  0
  141.6646   71.4508  223.3314 H   0  0  0  0  0  0  0  0  0  0  0  0
  140.7745   72.2588  224.6573 H   0  0  0  0  0  0  0  0  0  0  0  0
  140.9319   69.5144  224.2152 H   0  0  0  0  0  0  0  0  0  0  0  0
  138.7195   70.5699  225.7807 H   0  0  0  0  0  0  0  0  0  0  0  0
  141.4009   71.3901  226.0775 H   0  0  0  0  0  0  0  0  0  0  0  0
  139.7112   71.9351  226.7172 H   0  0  0  0  0  0  0  0  0  0  0  0
  141.8839   70.7264  228.0396 H   0  0  0  0  0  0  0  0  0  0  0  0
  140.3172   71.4978  228.6042 H   0  0  0  0  0  0  0  0  0  0  0  0
  140.6817   69.0941  229.3375 H   0  0  0  0  0  0  0  0  0  0  0  0
  139.1580   69.4087  228.5232 H   0  0  0  0  0  0  0  0  0  0  0  0
  141.7339   68.6595  226.9645 H   0  0  0  0  0  0  0  0  0  0  0  0
  140.6348   67.4037  227.5583 H   0  0  0  0  0  0  0  0  0  0  0  0
  140.1186   68.1315  225.2446 H   0  0  0  0  0  0  0  0  0  0  0  0
  138.7681   68.4735  226.4323 H   0  0  0  0  0  0  0  0  0  0  0  0
  132.9680   69.4981  226.6923 H   0  0  0  0  0  0  0  0  0  0  0  0
  131.7339   71.3380  227.7980 H   0  0  0  0  0  0  0  0  0  0  0  0
  131.4233   73.7434  228.1484 H   0  0  0  0  0  0  0  0  0  0  0  0
  133.9520   76.5384  226.1084 H   0  0  0  0  0  0  0  0  0  0  0  0
  135.1464   74.6522  225.0326 H   0  0  0  0  0  0  0  0  0  0  0  0
  1  2  2  0
  2  3  1  0
  3  4  1  0
  4  5  1  0
  5  6  2  0
  5  7  1  0
  7  8  1  0
  8  9  1  0
  9 10  1  0
 10 11  1  0
 11 12  1  0
 12 13  1  0
 13 14  1  0
 14 15  1  0
 15 16  1  0
 16 17  1  0
  2 18  1  0
 18 19  2  0
 19 20  1  0
 20 21  2  0
 21 22  1  0
 22 23  2  0
 23 24  1  0
 23 25  1  0
 25 26  2  0
 26 27  1  0
 27 28  2  0
 11  7  1  0
 17 12  1  0
 28 18  1  0
 27 21  1  0
  3 29  1  0
  4 30  1  0
  4 31  1  0
  8 32  1  0
  8 33  1  0
  9 34  1  0
  9 35  1  0
 10 36  1  0
 10 37  1  0
 11 38  1  1
 12 39  1  0
 13 40  1  0
 13 41  1  0
 14 42  1  0
 14 43  1  0
 15 44  1  0
 15 45  1  0
 16 46  1  0
 16 47  1  0
 17 48  1  0
 17 49  1  0
 19 50  1  0
 20 51  1  0
 22 52  1  0
 25 53  1  0
 26 54  1  0
M  END
>  <smiles>  (51) 
O=C(NCC(=O)N1CCCC1C1CCCCC1)c1ccc2cc(Cl)ccc2n1

>  <score_type>  (51) 
oracle

>  <origin>  (51) 
autodockgpu

>  <m_score__min__energy>  (51) 
-8.8399999999999999

>  <m_primary>  (51) 
energy

>  <rmsd>  (51) 
7.1762997494509335

>  <m_score__min__rmsd>  (51) 
7.1762997494509335

>  <meeko>  (51) 
{"free_energy": -8.32, "intermolecular_energy": -9.81, "internal_energy": -1.69, "cluster_size": 10, "cluster_id": 2, "rank_in_cluster": 6}

>  <energy>  (51) 
-8.84

>  <cluster_rmsd>  (51) 
0.0

>  <cluster>  (51) 
1

$$$$

     RDKit          3D

 54 57  0  0  0  0  0  0  0  0999 V2000
  140.0520   72.2180  220.6850 O   0  0  0  0  0  0  0  0  0  0  0  0
  139.8980   72.6390  221.8800 C   0  0  0  0  0  0  0  0  0  0  0  0
  139.6680   74.0450  222.1000 N   0  0  0  0  0  0  0  0  0  0  0  0
  139.5880   75.0160  221.0820 C   0  0  0  0  0  0  0  0  0  0  0  0
  139.8280   76.4130  221.3370 C   0  0  0  0  0  0  0  0  0  0  0  0
  139.3330   76.8500  222.4580 O   0  0  0  0  0  0  0  0  0  0  0  0
  140.5030   77.3960  220.5760 N   0  0  0  0  0  0  0  0  0  0  0  0
  140.1590   77.6640  219.1660 C   0  0  0  0  0  0  0  0  0  0  0  0
  140.5180   79.1420  218.9990 C   0  0  0  0  0  0  0  0  0  0  0  0
  141.7340   79.2260  219.8680 C   0  0  0  0  0  0  0  0  0  0  0  0
  141.5920   78.2590  220.9670 C   0  0  1  0  0  0  0  0  0  0  0  0
  141.4940   78.8620  222.3450 C   0  0  0  0  0  0  0  0  0  0  0  0
  140.3650   79.7820  222.5490 C   0  0  0  0  0  0  0  0  0  0  0  0
  140.4970   80.9550  223.4220 C   0  0  0  0  0  0  0  0  0  0  0  0
  141.8150   81.0450  224.1610 C   0  0  0  0  0  0  0  0  0  0  0  0
  142.8680   80.8620  223.0560 C   0  0  0  0  0  0  0  0  0  0  0  0
  142.8690   79.4140  222.7270 C   0  0  0  0  0  0  0  0  0  0  0  0
  139.9540   71.7000  223.0030 C   0  0  0  0  0  0  0  0  0  0  0  0
  139.4820   70.4190  222.8090 C   0  0  0  0  0  0  0  0  0  0  0  0
  139.5180   69.5110  223.8430 C   0  0  0  0  0  0  0  0  0  0  0  0
  140.0240   69.8770  225.0720 C   0  0  0  0  0  0  0  0  0  0  0  0
  140.0820   69.0070  226.1440 C   0  0  0  0  0  0  0  0  0  0  0  0
  140.5860   69.3810  227.3600 C   0  0  0  0  0  0  0  0  0  0  0  0
  140.6560   68.2610  228.7250 Cl  0  0  0  0  0  0  0  0  0  0  0  0
  141.0580   70.6840  227.5230 C   0  0  0  0  0  0  0  0  0  0  0  0
  141.0060   71.5660  226.4620 C   0  0  0  0  0  0  0  0  0  0  0  0
  140.4890   71.1690  225.2280 C   0  0  0  0  0  0  0  0  0  0  0  0
  140.4480   72.0480  224.2050 N   0  0  0  0  0  0  0  0  0  0  0  0
  139.5560   74.2980  223.1240 H   0  0  0  0  0  0  0  0  0  0  0  0
  140.3136   74.7148  220.3120 H   0  0  0  0  0  0  0  0  0  0  0  0
  138.5151   75.0073  220.8395 H   0  0  0  0  0  0  0  0  0  0  0  0
  140.7528   77.0338  218.4875 H   0  0  0  0  0  0  0  0  0  0  0  0
  139.1082   77.4435  218.9267 H   0  0  0  0  0  0  0  0  0  0  0  0
  140.7490   79.3882  217.9521 H   0  0  0  0  0  0  0  0  0  0  0  0
  139.7134   79.8427  219.2667 H   0  0  0  0  0  0  0  0  0  0  0  0
  142.6298   78.9860  219.2764 H   0  0  0  0  0  0  0  0  0  0  0  0
  141.8372   80.2434  220.2732 H   0  0  0  0  0  0  0  0  0  0  0  0
  142.5135   77.6731  221.0995 H   0  0  0  0  0  0  0  0  0  0  0  0
  141.2285   78.0673  223.0577 H   0  0  0  0  0  0  0  0  0  0  0  0
  140.0863   80.1612  221.5548 H   0  0  0  0  0  0  0  0  0  0  0  0
  139.6373   79.1580  223.0885 H   0  0  0  0  0  0  0  0  0  0  0  0
  140.3885   81.8576  222.8027 H   0  0  0  0  0  0  0  0  0  0  0  0
  139.7147   80.8621  224.1897 H   0  0  0  0  0  0  0  0  0  0  0  0
  141.9248   82.0249  224.6486 H   0  0  0  0  0  0  0  0  0  0  0  0
  141.9052   80.2972  224.9627 H   0  0  0  0  0  0  0  0  0  0  0  0
  142.5988   81.4551  222.1696 H   0  0  0  0  0  0  0  0  0  0  0  0
  143.8612   81.2008  223.3859 H   0  0  0  0  0  0  0  0  0  0  0  0
  143.5540   79.2518  221.8817 H   0  0  0  0  0  0  0  0  0  0  0  0
  143.1847   78.8811  223.6361 H   0  0  0  0  0  0  0  0  0  0  0  0
  139.0774   70.1232  221.8298 H   0  0  0  0  0  0  0  0  0  0  0  0
  139.1415   68.4891  223.6880 H   0  0  0  0  0  0  0  0  0  0  0  0
  139.7107   67.9796  226.0156 H   0  0  0  0  0  0  0  0  0  0  0  0
  141.4690   71.0065  228.4910 H   0  0  0  0  0  0  0  0  0  0  0  0
  141.3764   72.5937  226.5909 H   0  0  0  0  0  0  0  0  0  0  0  0
  1  2  2  0
  2  3  1  0
  3  4  1  0
  4  5  1  0
  5  6  2  0
  5  7  1  0
  7  8  1  0
  8  9  1  0
  9 10  1  0
 10 11  1  0
 11 12  1  0
 12 13  1  0
 13 14  1  0
 14 15  1  0
 15 16  1  0
 16 17  1  0
  2 18  1  0
 18 19  2  0
 19 20  1  0
 20 21  2  0
 21 22  1  0
 22 23  2  0
 23 24  1  0
 23 25  1  0
 25 26  2  0
 26 27  1  0
 27 28  2  0
 11  7  1  0
 17 12  1  0
 28 18  1  0
 27 21  1  0
  3 29  1  0
  4 30  1  0
  4 31  1  0
  8 32  1  0
  8 33  1  0
  9 34  1  0
  9 35  1  0
 10 36  1  0
 10 37  1  0
 11 38  1  1
 12 39  1  0
 13 40  1  0
 13 41  1  0
 14 42  1  0
 14 43  1  0
 15 44  1  0
 15 45  1  0
 16 46  1  0
 16 47  1  0
 17 48  1  0
 17 49  1  0
 19 50  1  0
 20 51  1  0
 22 52  1  0
 25 53  1  0
 26 54  1  0
M  END
>  <smiles>  (52) 
O=C(NCC(=O)N1CCCC1C1CCCCC1)c1ccc2cc(Cl)ccc2n1

>  <score_type>  (52) 
oracle

>  <origin>  (52) 
autodockgpu

>  <m_score__min__energy>  (52) 
-8.8399999999999999

>  <m_primary>  (52) 
energy

>  <rmsd>  (52) 
1.995930995961155

>  <m_score__min__rmsd>  (52) 
1.995930995961155

>  <meeko>  (52) 
{"free_energy": -8.48, "intermolecular_energy": -9.97, "internal_energy": -1.48, "cluster_size": 24, "cluster_id": 1, "rank_in_cluster": 6}

>  <energy>  (52) 
-8.64

>  <cluster_rmsd>  (52) 
0.27

>  <cluster>  (52) 
1

$$$$

     RDKit          3D

 54 57  0  0  0  0  0  0  0  0999 V2000
  139.6740   71.9930  220.9040 O   0  0  0  0  0  0  0  0  0  0  0  0
  139.6780   72.4360  222.1010 C   0  0  0  0  0  0  0  0  0  0  0  0
  139.5310   73.8520  222.3210 N   0  0  0  0  0  0  0  0  0  0  0  0
  139.3710   74.8130  221.3020 C   0  0  0  0  0  0  0  0  0  0  0  0
  139.7350   76.1940  221.4870 C   0  0  0  0  0  0  0  0  0  0  0  0
  139.2910   76.7250  222.5890 O   0  0  0  0  0  0  0  0  0  0  0  0
  140.4870   77.0760  220.6760 N   0  0  0  0  0  0  0  0  0  0  0  0
  140.2700   77.1710  219.2190 C   0  0  0  0  0  0  0  0  0  0  0  0
  140.6610   78.6180  218.9080 C   0  0  0  0  0  0  0  0  0  0  0  0
  141.7970   78.8040  219.8640 C   0  0  0  0  0  0  0  0  0  0  0  0
  141.5470   77.9780  221.0560 C   0  0  1  0  0  0  0  0  0  0  0  0
  141.3360   78.7440  222.3360 C   0  0  0  0  0  0  0  0  0  0  0  0
  140.1590   79.6250  222.3540 C   0  0  0  0  0  0  0  0  0  0  0  0
  140.1850   80.9030  223.0760 C   0  0  0  0  0  0  0  0  0  0  0  0
  141.4480   81.1510  223.8720 C   0  0  0  0  0  0  0  0  0  0  0  0
  142.5770   80.8830  222.8620 C   0  0  0  0  0  0  0  0  0  0  0  0
  142.6600   79.4080  222.7230 C   0  0  0  0  0  0  0  0  0  0  0  0
  139.8290   71.5100  223.2270 C   0  0  0  0  0  0  0  0  0  0  0  0
  139.4560   70.1950  223.0460 C   0  0  0  0  0  0  0  0  0  0  0  0
  139.5820   69.2980  224.0830 C   0  0  0  0  0  0  0  0  0  0  0  0
  140.0800   69.7090  225.3010 C   0  0  0  0  0  0  0  0  0  0  0  0
  140.2270   68.8520  226.3750 C   0  0  0  0  0  0  0  0  0  0  0  0
  140.7210   69.2710  227.5800 C   0  0  0  0  0  0  0  0  0  0  0  0
  140.9040   68.1680  228.9480 Cl  0  0  0  0  0  0  0  0  0  0  0  0
  141.0920   70.6080  227.7290 C   0  0  0  0  0  0  0  0  0  0  0  0
  140.9510   71.4780  226.6660 C   0  0  0  0  0  0  0  0  0  0  0  0
  140.4440   71.0340  225.4430 C   0  0  0  0  0  0  0  0  0  0  0  0
  140.3150   71.9020  224.4170 N   0  0  0  0  0  0  0  0  0  0  0  0
  139.5510   74.1240  223.3460 H   0  0  0  0  0  0  0  0  0  0  0  0
  139.9587   74.4526  220.4449 H   0  0  0  0  0  0  0  0  0  0  0  0
  138.2762   74.8742  221.2144 H   0  0  0  0  0  0  0  0  0  0  0  0
  140.9126   76.4621  218.6762 H   0  0  0  0  0  0  0  0  0  0  0  0
  139.2416   76.9245  218.9162 H   0  0  0  0  0  0  0  0  0  0  0  0
  140.9856   78.7356  217.8636 H   0  0  0  0  0  0  0  0  0  0  0  0
  139.8450   79.3474  219.0178 H   0  0  0  0  0  0  0  0  0  0  0  0
  142.7377   78.4915  219.3871 H   0  0  0  0  0  0  0  0  0  0  0  0
  141.8777   79.8629  220.1506 H   0  0  0  0  0  0  0  0  0  0  0  0
  142.4456   77.4113  221.3412 H   0  0  0  0  0  0  0  0  0  0  0  0
  141.0589   78.0331  223.1284 H   0  0  0  0  0  0  0  0  0  0  0  0
  139.9295   79.8626  221.3048 H   0  0  0  0  0  0  0  0  0  0  0  0
  139.4248   79.0380  222.9253 H   0  0  0  0  0  0  0  0  0  0  0  0
  140.0776   81.7145  222.3412 H   0  0  0  0  0  0  0  0  0  0  0  0
  139.3602   80.8674  223.8029 H   0  0  0  0  0  0  0  0  0  0  0  0
  141.4850   82.1888  224.2349 H   0  0  0  0  0  0  0  0  0  0  0  0
  141.5183   80.5155  224.7671 H   0  0  0  0  0  0  0  0  0  0  0  0
  142.3402   81.3455  221.8925 H   0  0  0  0  0  0  0  0  0  0  0  0
  143.5319   81.3099  223.2025 H   0  0  0  0  0  0  0  0  0  0  0  0
  143.4038   79.1749  221.9468 H   0  0  0  0  0  0  0  0  0  0  0  0
  142.9392   79.0104  223.7099 H   0  0  0  0  0  0  0  0  0  0  0  0
  139.0587   69.8633  222.0754 H   0  0  0  0  0  0  0  0  0  0  0  0
  139.2840   68.2490  223.9390 H   0  0  0  0  0  0  0  0  0  0  0  0
  139.9371   67.7975  226.2571 H   0  0  0  0  0  0  0  0  0  0  0  0
  141.4945   70.9668  228.6878 H   0  0  0  0  0  0  0  0  0  0  0  0
  141.2413   72.5324  226.7839 H   0  0  0  0  0  0  0  0  0  0  0  0
  1  2  2  0
  2  3  1  0
  3  4  1  0
  4  5  1  0
  5  6  2  0
  5  7  1  0
  7  8  1  0
  8  9  1  0
  9 10  1  0
 10 11  1  0
 11 12  1  0
 12 13  1  0
 13 14  1  0
 14 15  1  0
 15 16  1  0
 16 17  1  0
  2 18  1  0
 18 19  2  0
 19 20  1  0
 20 21  2  0
 21 22  1  0
 22 23  2  0
 23 24  1  0
 23 25  1  0
 25 26  2  0
 26 27  1  0
 27 28  2  0
 11  7  1  0
 17 12  1  0
 28 18  1  0
 27 21  1  0
  3 29  1  0
  4 30  1  0
  4 31  1  0
  8 32  1  0
  8 33  1  0
  9 34  1  0
  9 35  1  0
 10 36  1  0
 10 37  1  0
 11 38  1  1
 12 39  1  0
 13 40  1  0
 13 41  1  0
 14 42  1  0
 14 43  1  0
 15 44  1  0
 15 45  1  0
 16 46  1  0
 16 47  1  0
 17 48  1  0
 17 49  1  0
 19 50  1  0
 20 51  1  0
 22 52  1  0
 25 53  1  0
 26 54  1  0
M  END
>  <smiles>  (53) 
O=C(NCC(=O)N1CCCC1C1CCCCC1)c1ccc2cc(Cl)ccc2n1

>  <score_type>  (53) 
oracle

>  <origin>  (53) 
autodockgpu

>  <m_score__min__energy>  (53) 
-8.8399999999999999

>  <m_primary>  (53) 
energy

>  <rmsd>  (53) 
1.7494454583052645

>  <m_score__min__rmsd>  (53) 
1.7494454583052645

>  <meeko>  (53) 
{"free_energy": -8.61, "intermolecular_energy": -10.1, "internal_energy": -1.47, "cluster_size": 24, "cluster_id": 1, "rank_in_cluster": 3}

>  <energy>  (53) 
-8.61

>  <cluster_rmsd>  (53) 
0.56

>  <cluster>  (53) 
1

$$$$

     RDKit          3D

 54 57  0  0  0  0  0  0  0  0999 V2000
  139.2900   72.2900  220.6090 O   0  0  0  0  0  0  0  0  0  0  0  0
  140.0930   72.4770  221.5830 C   0  0  0  0  0  0  0  0  0  0  0  0
  141.0640   73.5380  221.4930 N   0  0  0  0  0  0  0  0  0  0  0  0
  141.1990   74.4140  220.3960 C   0  0  0  0  0  0  0  0  0  0  0  0
  140.7600   75.7840  220.4520 C   0  0  0  0  0  0  0  0  0  0  0  0
  141.3770   76.5820  219.6310 O   0  0  0  0  0  0  0  0  0  0  0  0
  139.7760   76.4150  221.2490 N   0  0  0  0  0  0  0  0  0  0  0  0
  138.5330   75.7240  221.6450 C   0  0  0  0  0  0  0  0  0  0  0  0
  138.1860   76.3810  222.9830 C   0  0  0  0  0  0  0  0  0  0  0  0
  138.6240   77.7870  222.7180 C   0  0  0  0  0  0  0  0  0  0  0  0
  139.7620   77.7550  221.7850 C   0  0  1  0  0  0  0  0  0  0  0  0
  141.0680   78.2560  222.3460 C   0  0  0  0  0  0  0  0  0  0  0  0
  140.9640   78.9950  223.6130 C   0  0  0  0  0  0  0  0  0  0  0  0
  141.8610   80.1200  223.9050 C   0  0  0  0  0  0  0  0  0  0  0  0
  142.9400   80.3500  222.8690 C   0  0  0  0  0  0  0  0  0  0  0  0
  142.1710   80.3820  221.5380 C   0  0  0  0  0  0  0  0  0  0  0  0
  141.8290   78.9710  221.2290 C   0  0  0  0  0  0  0  0  0  0  0  0
  140.0190   71.6220  222.7710 C   0  0  0  0  0  0  0  0  0  0  0  0
  139.3380   70.4280  222.6750 C   0  0  0  0  0  0  0  0  0  0  0  0
  139.2460   69.6000  223.7730 C   0  0  0  0  0  0  0  0  0  0  0  0
  139.8340   69.9620  224.9660 C   0  0  0  0  0  0  0  0  0  0  0  0
  139.7720   69.1710  226.0980 C   0  0  0  0  0  0  0  0  0  0  0  0
  140.3580   69.5410  227.2770 C   0  0  0  0  0  0  0  0  0  0  0  0
  140.2730   68.5220  228.7200 Cl  0  0  0  0  0  0  0  0  0  0  0  0
  141.0420   70.7550  227.3410 C   0  0  0  0  0  0  0  0  0  0  0  0
  141.1120   71.5570  226.2190 C   0  0  0  0  0  0  0  0  0  0  0  0
  140.5090   71.1670  225.0230 C   0  0  0  0  0  0  0  0  0  0  0  0
  140.5900   71.9660  223.9390 N   0  0  0  0  0  0  0  0  0  0  0  0
  141.6870   73.6130  222.3470 H   0  0  0  0  0  0  0  0  0  0  0  0
  142.2724   74.4447  220.1575 H   0  0  0  0  0  0  0  0  0  0  0  0
  140.5000   73.9784  219.6669 H   0  0  0  0  0  0  0  0  0  0  0  0
  137.7360   75.8888  220.9050 H   0  0  0  0  0  0  0  0  0  0  0  0
  138.6470   74.6321  221.7146 H   0  0  0  0  0  0  0  0  0  0  0  0
  137.1082   76.3246  223.1957 H   0  0  0  0  0  0  0  0  0  0  0  0
  138.6564   75.9118  223.8597 H   0  0  0  0  0  0  0  0  0  0  0  0
  137.7948   78.3559  222.2721 H   0  0  0  0  0  0  0  0  0  0  0  0
  138.9224   78.2719  223.6591 H   0  0  0  0  0  0  0  0  0  0  0  0
  139.6304   78.4877  220.9752 H   0  0  0  0  0  0  0  0  0  0  0  0
  141.6641   77.3912  222.6729 H   0  0  0  0  0  0  0  0  0  0  0  0
  139.9389   79.3909  223.6616 H   0  0  0  0  0  0  0  0  0  0  0  0
  141.2654   78.2440  224.3580 H   0  0  0  0  0  0  0  0  0  0  0  0
  141.2532   81.0340  223.9762 H   0  0  0  0  0  0  0  0  0  0  0  0
  142.3777   79.8716  224.8438 H   0  0  0  0  0  0  0  0  0  0  0  0
  143.4561   81.3051  223.0463 H   0  0  0  0  0  0  0  0  0  0  0  0
  143.7213   79.5759  222.8900 H   0  0  0  0  0  0  0  0  0  0  0  0
  141.2558   80.9836  221.6398 H   0  0  0  0  0  0  0  0  0  0  0  0
  142.7721   80.8357  220.7362 H   0  0  0  0  0  0  0  0  0  0  0  0
  141.2064   78.9567  220.3223 H   0  0  0  0  0  0  0  0  0  0  0  0
  142.7804   78.4345  221.0984 H   0  0  0  0  0  0  0  0  0  0  0  0
  138.8687   70.1362  221.7239 H   0  0  0  0  0  0  0  0  0  0  0  0
  138.7016   68.6472  223.6970 H   0  0  0  0  0  0  0  0  0  0  0  0
  139.2339   68.2129  226.0489 H   0  0  0  0  0  0  0  0  0  0  0  0
  141.5223   71.0713  228.2787 H   0  0  0  0  0  0  0  0  0  0  0  0
  141.6499   72.5152  226.2689 H   0  0  0  0  0  0  0  0  0  0  0  0
  1  2  2  0
  2  3  1  0
  3  4  1  0
  4  5  1  0
  5  6  2  0
  5  7  1  0
  7  8  1  0
  8  9  1  0
  9 10  1  0
 10 11  1  0
 11 12  1  0
 12 13  1  0
 13 14  1  0
 14 15  1  0
 15 16  1  0
 16 17  1  0
  2 18  1  0
 18 19  2  0
 19 20  1  0
 20 21  2  0
 21 22  1  0
 22 23  2  0
 23 24  1  0
 23 25  1  0
 25 26  2  0
 26 27  1  0
 27 28  2  0
 11  7  1  0
 17 12  1  0
 28 18  1  0
 27 21  1  0
  3 29  1  0
  4 30  1  0
  4 31  1  0
  8 32  1  0
  8 33  1  0
  9 34  1  0
  9 35  1  0
 10 36  1  0
 10 37  1  0
 11 38  1  6
 12 39  1  0
 13 40  1  0
 13 41  1  0
 14 42  1  0
 14 43  1  0
 15 44  1  0
 15 45  1  0
 16 46  1  0
 16 47  1  0
 17 48  1  0
 17 49  1  0
 19 50  1  0
 20 51  1  0
 22 52  1  0
 25 53  1  0
 26 54  1  0
M  END
>  <smiles>  (54) 
O=C(NCC(=O)N1CCCC1C1CCCCC1)c1ccc2cc(Cl)ccc2n1

>  <score_type>  (54) 
oracle

>  <origin>  (54) 
autodockgpu

>  <m_score__min__energy>  (54) 
-8.8399999999999999

>  <m_primary>  (54) 
energy

>  <rmsd>  (54) 
2.955324790088392

>  <m_score__min__rmsd>  (54) 
2.955324790088392

>  <meeko>  (54) 
{"free_energy": -8.01, "intermolecular_energy": -9.5, "internal_energy": -1.63, "cluster_size": 24, "cluster_id": 1, "rank_in_cluster": 14}

>  <energy>  (54) 
-8.56

>  <cluster_rmsd>  (54) 
0.57

>  <cluster>  (54) 
1

$$$$

     RDKit          3D

 54 57  0  0  0  0  0  0  0  0999 V2000
  141.9110   72.9240  220.5720 O   0  0  0  0  0  0  0  0  0  0  0  0
  141.2660   73.6800  221.3730 C   0  0  0  0  0  0  0  0  0  0  0  0
  140.4140   73.0770  222.3670 N   0  0  0  0  0  0  0  0  0  0  0  0
  140.2340   71.6900  222.5380 C   0  0  0  0  0  0  0  0  0  0  0  0
  138.9670   71.0470  222.3010 C   0  0  0  0  0  0  0  0  0  0  0  0
  138.6770   70.8720  221.0450 O   0  0  0  0  0  0  0  0  0  0  0  0
  137.9800   70.5780  223.1990 N   0  0  0  0  0  0  0  0  0  0  0  0
  136.5910   70.3230  222.7670 C   0  0  0  0  0  0  0  0  0  0  0  0
  136.1360   69.2100  223.7150 C   0  0  0  0  0  0  0  0  0  0  0  0
  136.8380   69.6190  224.9710 C   0  0  0  0  0  0  0  0  0  0  0  0
  138.0950   70.2910  224.6090 C   0  0  1  0  0  0  0  0  0  0  0  0
  139.3520   69.5770  225.0370 C   0  0  0  0  0  0  0  0  0  0  0  0
  139.1730   68.1720  225.4290 C   0  0  0  0  0  0  0  0  0  0  0  0
  139.9810   67.5790  226.5010 C   0  0  0  0  0  0  0  0  0  0  0  0
  141.0600   68.4870  227.0510 C   0  0  0  0  0  0  0  0  0  0  0  0
  140.3150   69.7950  227.3640 C   0  0  0  0  0  0  0  0  0  0  0  0
  140.0810   70.4560  226.0550 C   0  0  0  0  0  0  0  0  0  0  0  0
  141.3990   75.1370  221.2770 C   0  0  0  0  0  0  0  0  0  0  0  0
  142.0640   75.6620  220.1900 C   0  0  0  0  0  0  0  0  0  0  0  0
  142.2090   77.0260  220.0690 C   0  0  0  0  0  0  0  0  0  0  0  0
  141.6920   77.8680  221.0300 C   0  0  0  0  0  0  0  0  0  0  0  0
  141.8090   79.2430  220.9590 C   0  0  0  0  0  0  0  0  0  0  0  0
  141.2920   80.0690  221.9190 C   0  0  0  0  0  0  0  0  0  0  0  0
  141.4480   81.8270  221.8200 Cl  0  0  0  0  0  0  0  0  0  0  0  0
  140.6230   79.5060  223.0050 C   0  0  0  0  0  0  0  0  0  0  0  0
  140.4970   78.1330  223.0910 C   0  0  0  0  0  0  0  0  0  0  0  0
  141.0300   77.3040  222.1040 C   0  0  0  0  0  0  0  0  0  0  0  0
  140.8960   75.9650  222.2090 N   0  0  0  0  0  0  0  0  0  0  0  0
  139.9180   73.7840  222.9810 H   0  0  0  0  0  0  0  0  0  0  0  0
  140.9566   71.2014  221.8679 H   0  0  0  0  0  0  0  0  0  0  0  0
  140.3493   71.5760  223.6260 H   0  0  0  0  0  0  0  0  0  0  0  0
  135.9686   71.2222  222.8850 H   0  0  0  0  0  0  0  0  0  0  0  0
  136.5102   70.0486  221.7049 H   0  0  0  0  0  0  0  0  0  0  0  0
  135.0435   69.2067  223.8429 H   0  0  0  0  0  0  0  0  0  0  0  0
  136.3677   68.1912  223.3710 H   0  0  0  0  0  0  0  0  0  0  0  0
  136.2007   70.3088  225.5438 H   0  0  0  0  0  0  0  0  0  0  0  0
  137.0498   68.7335  225.5883 H   0  0  0  0  0  0  0  0  0  0  0  0
  138.2233   71.2234  225.1783 H   0  0  0  0  0  0  0  0  0  0  0  0
  140.0015   69.4521  224.1580 H   0  0  0  0  0  0  0  0  0  0  0  0
  138.1214   68.0633  225.7330 H   0  0  0  0  0  0  0  0  0  0  0  0
  139.5147   67.6260  224.5373 H   0  0  0  0  0  0  0  0  0  0  0  0
  139.3080   67.3059  227.3272 H   0  0  0  0  0  0  0  0  0  0  0  0
  140.4964   66.7126  226.0608 H   0  0  0  0  0  0  0  0  0  0  0  0
  141.5034   68.0608  227.9630 H   0  0  0  0  0  0  0  0  0  0  0  0
  141.8940   68.6304  226.3482 H   0  0  0  0  0  0  0  0  0  0  0  0
  139.3571   69.5800  227.8602 H   0  0  0  0  0  0  0  0  0  0  0  0
  140.8963   70.4376  228.0416 H   0  0  0  0  0  0  0  0  0  0  0  0
  139.4780   71.3599  226.2265 H   0  0  0  0  0  0  0  0  0  0  0  0
  141.0703   70.6819  225.6305 H   0  0  0  0  0  0  0  0  0  0  0  0
  142.4779   74.9931  219.4210 H   0  0  0  0  0  0  0  0  0  0  0  0
  142.7397   77.4455  219.2016 H   0  0  0  0  0  0  0  0  0  0  0  0
  142.3355   79.6882  220.1019 H   0  0  0  0  0  0  0  0  0  0  0  0
  140.1982   80.1510  223.7883 H   0  0  0  0  0  0  0  0  0  0  0  0
  139.9701   77.6882  223.9480 H   0  0  0  0  0  0  0  0  0  0  0  0
  1  2  2  0
  2  3  1  0
  3  4  1  0
  4  5  1  0
  5  6  2  0
  5  7  1  0
  7  8  1  0
  8  9  1  0
  9 10  1  0
 10 11  1  0
 11 12  1  0
 12 13  1  0
 13 14  1  0
 14 15  1  0
 15 16  1  0
 16 17  1  0
  2 18  1  0
 18 19  2  0
 19 20  1  0
 20 21  2  0
 21 22  1  0
 22 23  2  0
 23 24  1  0
 23 25  1  0
 25 26  2  0
 26 27  1  0
 27 28  2  0
 11  7  1  0
 17 12  1  0
 28 18  1  0
 27 21  1  0
  3 29  1  0
  4 30  1  0
  4 31  1  0
  8 32  1  0
  8 33  1  0
  9 34  1  0
  9 35  1  0
 10 36  1  0
 10 37  1  0
 11 38  1  1
 12 39  1  0
 13 40  1  0
 13 41  1  0
 14 42  1  0
 14 43  1  0
 15 44  1  0
 15 45  1  0
 16 46  1  0
 16 47  1  0
 17 48  1  0
 17 49  1  0
 19 50  1  0
 20 51  1  0
 22 52  1  0
 25 53  1  0
 26 54  1  0
M  END
>  <smiles>  (55) 
O=C(NCC(=O)N1CCCC1C1CCCCC1)c1ccc2cc(Cl)ccc2n1

>  <score_type>  (55) 
oracle

>  <origin>  (55) 
autodockgpu

>  <m_score__min__energy>  (55) 
-8.8399999999999999

>  <m_primary>  (55) 
energy

>  <rmsd>  (55) 
8.320157392344344

>  <m_score__min__rmsd>  (55) 
8.320157392344344

>  <meeko>  (55) 
{"free_energy": -7.7, "intermolecular_energy": -9.19, "internal_energy": -1.45, "cluster_size": 3, "cluster_id": 3, "rank_in_cluster": 3}

>  <energy>  (55) 
-8.51

>  <cluster_rmsd>  (55) 
1.27

>  <cluster>  (55) 
1

$$$$

     RDKit          3D

 54 57  0  0  0  0  0  0  0  0999 V2000
  139.1020   71.9460  220.7990 O   0  0  0  0  0  0  0  0  0  0  0  0
  139.3270   72.4000  221.9700 C   0  0  0  0  0  0  0  0  0  0  0  0
  139.3440   73.8260  222.1730 N   0  0  0  0  0  0  0  0  0  0  0  0
  139.1170   74.7850  221.1650 C   0  0  0  0  0  0  0  0  0  0  0  0
  139.6420   76.1240  221.2510 C   0  0  0  0  0  0  0  0  0  0  0  0
  140.9060   76.2270  220.9580 O   0  0  0  0  0  0  0  0  0  0  0  0
  139.0230   77.3460  221.6040 N   0  0  0  0  0  0  0  0  0  0  0  0
  137.6270   77.4040  222.0810 C   0  0  0  0  0  0  0  0  0  0  0  0
  137.6280   78.6310  222.9950 C   0  0  0  0  0  0  0  0  0  0  0  0
  138.5720   79.5230  222.2520 C   0  0  0  0  0  0  0  0  0  0  0  0
  139.5620   78.6840  221.5590 C   0  0  1  0  0  0  0  0  0  0  0  0
  140.9830   78.8400  222.0360 C   0  0  0  0  0  0  0  0  0  0  0  0
  141.1480   78.9500  223.4930 C   0  0  0  0  0  0  0  0  0  0  0  0
  142.1970   79.7990  224.0710 C   0  0  0  0  0  0  0  0  0  0  0  0
  143.1320   80.4230  223.0570 C   0  0  0  0  0  0  0  0  0  0  0  0
  142.1840   81.0640  222.0300 C   0  0  0  0  0  0  0  0  0  0  0  0
  141.6480   79.9460  221.2140 C   0  0  0  0  0  0  0  0  0  0  0  0
  139.5640   71.4760  223.0830 C   0  0  0  0  0  0  0  0  0  0  0  0
  139.2340   70.1490  222.9130 C   0  0  0  0  0  0  0  0  0  0  0  0
  139.4410   69.2540  223.9390 C   0  0  0  0  0  0  0  0  0  0  0  0
  139.9770   69.6800  225.1350 C   0  0  0  0  0  0  0  0  0  0  0  0
  140.2040   68.8270  226.1970 C   0  0  0  0  0  0  0  0  0  0  0  0
  140.7350   69.2610  227.3810 C   0  0  0  0  0  0  0  0  0  0  0  0
  141.0220   68.1610  228.7350 Cl  0  0  0  0  0  0  0  0  0  0  0  0
  141.0600   70.6100  227.5210 C   0  0  0  0  0  0  0  0  0  0  0  0
  140.8390   71.4770  226.4680 C   0  0  0  0  0  0  0  0  0  0  0  0
  140.2950   71.0180  225.2680 C   0  0  0  0  0  0  0  0  0  0  0  0
  140.0870   71.8830  224.2530 N   0  0  0  0  0  0  0  0  0  0  0  0
  139.5440   74.1060  223.1760 H   0  0  0  0  0  0  0  0  0  0  0  0
  139.5198   74.3558  220.2358 H   0  0  0  0  0  0  0  0  0  0  0  0
  138.0338   74.9565  221.2501 H   0  0  0  0  0  0  0  0  0  0  0  0
  136.9275   77.5360  221.2423 H   0  0  0  0  0  0  0  0  0  0  0  0
  137.3035   76.4839  222.5898 H   0  0  0  0  0  0  0  0  0  0  0  0
  136.6261   79.0777  223.0764 H   0  0  0  0  0  0  0  0  0  0  0  0
  137.9147   78.4264  224.0371 H   0  0  0  0  0  0  0  0  0  0  0  0
  138.0147   80.1225  221.5171 H   0  0  0  0  0  0  0  0  0  0  0  0
  139.0792   80.2016  222.9536 H   0  0  0  0  0  0  0  0  0  0  0  0
  139.6939   79.0067  220.5157 H   0  0  0  0  0  0  0  0  0  0  0  0
  141.5203   77.8984  221.8500 H   0  0  0  0  0  0  0  0  0  0  0  0
  140.1912   79.3207  223.8895 H   0  0  0  0  0  0  0  0  0  0  0  0
  141.4702   77.9376  223.7782 H   0  0  0  0  0  0  0  0  0  0  0  0
  141.7111   80.6095  224.6341 H   0  0  0  0  0  0  0  0  0  0  0  0
  142.8147   79.1446  224.7036 H   0  0  0  0  0  0  0  0  0  0  0  0
  143.7707   81.1840  223.5292 H   0  0  0  0  0  0  0  0  0  0  0  0
  143.8180   79.6919  222.6044 H   0  0  0  0  0  0  0  0  0  0  0  0
  141.3650   81.5902  222.5422 H   0  0  0  0  0  0  0  0  0  0  0  0
  142.7069   81.8036  221.4058 H   0  0  0  0  0  0  0  0  0  0  0  0
  140.9026   80.3538  220.5154 H   0  0  0  0  0  0  0  0  0  0  0  0
  142.5051   79.4883  220.6984 H   0  0  0  0  0  0  0  0  0  0  0  0
  138.8061   69.8053  221.9597 H   0  0  0  0  0  0  0  0  0  0  0  0
  139.1774   68.1947  223.8033 H   0  0  0  0  0  0  0  0  0  0  0  0
  139.9493   67.7625  226.0874 H   0  0  0  0  0  0  0  0  0  0  0  0
  141.4893   70.9813  228.4632 H   0  0  0  0  0  0  0  0  0  0  0  0
  141.0949   72.5412  226.5771 H   0  0  0  0  0  0  0  0  0  0  0  0
  1  2  2  0
  2  3  1  0
  3  4  1  0
  4  5  1  0
  5  6  2  0
  5  7  1  0
  7  8  1  0
  8  9  1  0
  9 10  1  0
 10 11  1  0
 11 12  1  0
 12 13  1  0
 13 14  1  0
 14 15  1  0
 15 16  1  0
 16 17  1  0
  2 18  1  0
 18 19  2  0
 19 20  1  0
 20 21  2  0
 21 22  1  0
 22 23  2  0
 23 24  1  0
 23 25  1  0
 25 26  2  0
 26 27  1  0
 27 28  2  0
 11  7  1  0
 17 12  1  0
 28 18  1  0
 27 21  1  0
  3 29  1  0
  4 30  1  0
  4 31  1  0
  8 32  1  0
  8 33  1  0
  9 34  1  0
  9 35  1  0
 10 36  1  0
 10 37  1  0
 11 38  1  6
 12 39  1  0
 13 40  1  0
 13 41  1  0
 14 42  1  0
 14 43  1  0
 15 44  1  0
 15 45  1  0
 16 46  1  0
 16 47  1  0
 17 48  1  0
 17 49  1  0
 19 50  1  0
 20 51  1  0
 22 52  1  0
 25 53  1  0
 26 54  1  0
M  END
>  <smiles>  (56) 
O=C(NCC(=O)N1CCCC1C1CCCCC1)c1ccc2cc(Cl)ccc2n1

>  <score_type>  (56) 
oracle

>  <origin>  (56) 
autodockgpu

>  <m_score__min__energy>  (56) 
-8.8399999999999999

>  <m_primary>  (56) 
energy

>  <rmsd>  (56) 
2.9516513818758745

>  <m_score__min__rmsd>  (56) 
2.9516513818758745

>  <meeko>  (56) 
{"free_energy": -8.51, "intermolecular_energy": -10.01, "internal_energy": -1.37, "cluster_size": 24, "cluster_id": 1, "rank_in_cluster": 5}

>  <energy>  (56) 
-8.48

>  <cluster_rmsd>  (56) 
0.54

>  <cluster>  (56) 
1

$$$$

     RDKit          3D

 54 57  0  0  0  0  0  0  0  0999 V2000
  139.1840   72.2580  220.7550 O   0  0  0  0  0  0  0  0  0  0  0  0
  139.3060   72.6670  221.9570 C   0  0  0  0  0  0  0  0  0  0  0  0
  139.1890   74.0780  222.2290 N   0  0  0  0  0  0  0  0  0  0  0  0
  138.9370   75.0660  221.2560 C   0  0  0  0  0  0  0  0  0  0  0  0
  139.6890   75.1420  220.0300 C   0  0  0  0  0  0  0  0  0  0  0  0
  139.0360   74.7590  218.9720 O   0  0  0  0  0  0  0  0  0  0  0  0
  141.0170   75.5580  219.7760 N   0  0  0  0  0  0  0  0  0  0  0  0
  141.7820   75.0610  218.6150 C   0  0  0  0  0  0  0  0  0  0  0  0
  142.7330   76.2200  218.3090 C   0  0  0  0  0  0  0  0  0  0  0  0
  143.0290   76.7020  219.6940 C   0  0  0  0  0  0  0  0  0  0  0  0
  141.8490   76.4580  220.5380 C   0  0  1  0  0  0  0  0  0  0  0  0
  141.1700   77.6960  221.0670 C   0  0  0  0  0  0  0  0  0  0  0  0
  141.7440   78.9710  220.6090 C   0  0  0  0  0  0  0  0  0  0  0  0
  141.7730   80.1430  221.4920 C   0  0  0  0  0  0  0  0  0  0  0  0
  141.0670   79.9520  222.8170 C   0  0  0  0  0  0  0  0  0  0  0  0
  141.6560   78.6400  223.3610 C   0  0  0  0  0  0  0  0  0  0  0  0
  141.0160   77.5500  222.5820 C   0  0  0  0  0  0  0  0  0  0  0  0
  139.5590   71.7100  223.0380 C   0  0  0  0  0  0  0  0  0  0  0  0
  139.2470   70.3840  222.8230 C   0  0  0  0  0  0  0  0  0  0  0  0
  139.4690   69.4580  223.8180 C   0  0  0  0  0  0  0  0  0  0  0  0
  140.0030   69.8510  225.0260 C   0  0  0  0  0  0  0  0  0  0  0  0
  140.2460   68.9650  226.0580 C   0  0  0  0  0  0  0  0  0  0  0  0
  140.7750   69.3660  227.2540 C   0  0  0  0  0  0  0  0  0  0  0  0
  141.0820   68.2240  228.5680 Cl  0  0  0  0  0  0  0  0  0  0  0  0
  141.0820   70.7140  227.4380 C   0  0  0  0  0  0  0  0  0  0  0  0
  140.8450   71.6130  226.4170 C   0  0  0  0  0  0  0  0  0  0  0  0
  140.3040   71.1880  225.2030 C   0  0  0  0  0  0  0  0  0  0  0  0
  140.0810   72.0840  224.2190 N   0  0  0  0  0  0  0  0  0  0  0  0
  139.3090   74.3210  223.2530 H   0  0  0  0  0  0  0  0  0  0  0  0
  137.8832   74.9477  220.9635 H   0  0  0  0  0  0  0  0  0  0  0  0
  139.2494   75.9844  221.7746 H   0  0  0  0  0  0  0  0  0  0  0  0
  142.3402   74.1483  218.8705 H   0  0  0  0  0  0  0  0  0  0  0  0
  141.1451   74.7855  217.7615 H   0  0  0  0  0  0  0  0  0  0  0  0
  143.6427   75.8744  217.7961 H   0  0  0  0  0  0  0  0  0  0  0  0
  142.3209   76.9857  217.6352 H   0  0  0  0  0  0  0  0  0  0  0  0
  143.8938   76.1563  220.0994 H   0  0  0  0  0  0  0  0  0  0  0  0
  143.2625   77.7768  219.6760 H   0  0  0  0  0  0  0  0  0  0  0  0
  142.1351   75.9954  221.4941 H   0  0  0  0  0  0  0  0  0  0  0  0
  140.1664   77.7637  220.6218 H   0  0  0  0  0  0  0  0  0  0  0  0
  142.7874   78.7628  220.3298 H   0  0  0  0  0  0  0  0  0  0  0  0
  141.0479   79.2807  219.8155 H   0  0  0  0  0  0  0  0  0  0  0  0
  142.8246   80.3924  221.6966 H   0  0  0  0  0  0  0  0  0  0  0  0
  141.2340   80.9438  220.9645 H   0  0  0  0  0  0  0  0  0  0  0  0
  141.2794   80.7890  223.4984 H   0  0  0  0  0  0  0  0  0  0  0  0
  139.9724   79.9164  222.7144 H   0  0  0  0  0  0  0  0  0  0  0  0
  142.7465   78.6224  223.2181 H   0  0  0  0  0  0  0  0  0  0  0  0
  141.4665   78.5297  224.4389 H   0  0  0  0  0  0  0  0  0  0  0  0
  141.4699   76.5951  222.8856 H   0  0  0  0  0  0  0  0  0  0  0  0
  139.9384   77.5940  222.7985 H   0  0  0  0  0  0  0  0  0  0  0  0
  138.8219   70.0668  221.8593 H   0  0  0  0  0  0  0  0  0  0  0  0
  139.2190   68.4004  223.6477 H   0  0  0  0  0  0  0  0  0  0  0  0
  140.0060   67.9014  225.9129 H   0  0  0  0  0  0  0  0  0  0  0  0
  141.5103   71.0589  228.3907 H   0  0  0  0  0  0  0  0  0  0  0  0
  141.0855   72.6765  226.5624 H   0  0  0  0  0  0  0  0  0  0  0  0
  1  2  2  0
  2  3  1  0
  3  4  1  0
  4  5  1  0
  5  6  2  0
  5  7  1  0
  7  8  1  0
  8  9  1  0
  9 10  1  0
 10 11  1  0
 11 12  1  0
 12 13  1  0
 13 14  1  0
 14 15  1  0
 15 16  1  0
 16 17  1  0
  2 18  1  0
 18 19  2  0
 19 20  1  0
 20 21  2  0
 21 22  1  0
 22 23  2  0
 23 24  1  0
 23 25  1  0
 25 26  2  0
 26 27  1  0
 27 28  2  0
 11  7  1  0
 17 12  1  0
 28 18  1  0
 27 21  1  0
  3 29  1  0
  4 30  1  0
  4 31  1  0
  8 32  1  0
  8 33  1  0
  9 34  1  0
  9 35  1  0
 10 36  1  0
 10 37  1  0
 11 38  1  1
 12 39  1  0
 13 40  1  0
 13 41  1  0
 14 42  1  0
 14 43  1  0
 15 44  1  0
 15 45  1  0
 16 46  1  0
 16 47  1  0
 17 48  1  0
 17 49  1  0
 19 50  1  0
 20 51  1  0
 22 52  1  0
 25 53  1  0
 26 54  1  0
M  END
>  <smiles>  (57) 
O=C(NCC(=O)N1CCCC1C1CCCCC1)c1ccc2cc(Cl)ccc2n1

>  <score_type>  (57) 
oracle

>  <origin>  (57) 
autodockgpu

>  <m_score__min__energy>  (57) 
-8.8399999999999999

>  <m_primary>  (57) 
energy

>  <rmsd>  (57) 
1.9007664473753636

>  <m_score__min__rmsd>  (57) 
1.9007664473753636

>  <meeko>  (57) 
{"free_energy": -7.87, "intermolecular_energy": -9.37, "internal_energy": -1.58, "cluster_size": 24, "cluster_id": 1, "rank_in_cluster": 18}

>  <energy>  (57) 
-8.45

>  <cluster_rmsd>  (57) 
1.04

>  <cluster>  (57) 
1

$$$$

     RDKit          3D

 54 57  0  0  0  0  0  0  0  0999 V2000
  134.7130   68.5080  225.3210 O   0  0  0  0  0  0  0  0  0  0  0  0
  134.9890   69.7100  224.9940 C   0  0  0  0  0  0  0  0  0  0  0  0
  135.9980   69.9460  223.9920 N   0  0  0  0  0  0  0  0  0  0  0  0
  136.7170   68.9360  223.3210 C   0  0  0  0  0  0  0  0  0  0  0  0
  138.1570   68.8950  223.3180 C   0  0  0  0  0  0  0  0  0  0  0  0
  138.6620   67.6970  223.3500 O   0  0  0  0  0  0  0  0  0  0  0  0
  139.1180   69.9330  223.2920 N   0  0  0  0  0  0  0  0  0  0  0  0
  139.2060   70.8860  222.1680 C   0  0  0  0  0  0  0  0  0  0  0  0
  139.7540   72.1520  222.8320 C   0  0  0  0  0  0  0  0  0  0  0  0
  140.6850   71.5490  223.8370 C   0  0  0  0  0  0  0  0  0  0  0  0
  140.1420   70.2480  224.2590 C   0  0  1  0  0  0  0  0  0  0  0  0
  139.7340   70.1610  225.7070 C   0  0  0  0  0  0  0  0  0  0  0  0
  140.4320   71.0850  226.6130 C   0  0  0  0  0  0  0  0  0  0  0  0
  140.7520   70.6910  227.9900 C   0  0  0  0  0  0  0  0  0  0  0  0
  140.2010   69.3440  228.4050 C   0  0  0  0  0  0  0  0  0  0  0  0
  140.6480   68.4020  227.2750 C   0  0  0  0  0  0  0  0  0  0  0  0
  139.7550   68.6890  226.1250 C   0  0  0  0  0  0  0  0  0  0  0  0
  134.2840   70.8260  225.6310 C   0  0  0  0  0  0  0  0  0  0  0  0
  133.2530   70.5370  226.5000 C   0  0  0  0  0  0  0  0  0  0  0  0
  132.5680   71.5610  227.1150 C   0  0  0  0  0  0  0  0  0  0  0  0
  132.9090   72.8740  226.8660 C   0  0  0  0  0  0  0  0  0  0  0  0
  132.2550   73.9390  227.4540 C   0  0  0  0  0  0  0  0  0  0  0  0
  132.6000   75.2370  227.1990 C   0  0  0  0  0  0  0  0  0  0  0  0
  131.7570   76.5940  227.9560 Cl  0  0  0  0  0  0  0  0  0  0  0  0
  133.6490   75.4960  226.3160 C   0  0  0  0  0  0  0  0  0  0  0  0
  134.3130   74.4420  225.7190 C   0  0  0  0  0  0  0  0  0  0  0  0
  133.9480   73.1230  225.9900 C   0  0  0  0  0  0  0  0  0  0  0  0
  134.6110   72.1090  225.3950 N   0  0  0  0  0  0  0  0  0  0  0  0
  136.1600   70.9740  223.7920 H   0  0  0  0  0  0  0  0  0  0  0  0
  136.3831   67.9815  223.7540 H   0  0  0  0  0  0  0  0  0  0  0  0
  136.4909   69.1544  222.2669 H   0  0  0  0  0  0  0  0  0  0  0  0
  139.8922   70.5185  221.3908 H   0  0  0  0  0  0  0  0  0  0  0  0
  138.2442   71.0453  221.6585 H   0  0  0  0  0  0  0  0  0  0  0  0
  140.2896   72.7890  222.1127 H   0  0  0  0  0  0  0  0  0  0  0  0
  138.9872   72.8164  223.2570 H   0  0  0  0  0  0  0  0  0  0  0  0
  141.6774   71.4071  223.3843 H   0  0  0  0  0  0  0  0  0  0  0  0
  140.7820   72.2156  224.7067 H   0  0  0  0  0  0  0  0  0  0  0  0
  140.9218   69.4722  224.2537 H   0  0  0  0  0  0  0  0  0  0  0  0
  138.7041   70.5350  225.8041 H   0  0  0  0  0  0  0  0  0  0  0  0
  141.3872   71.3367  226.1290 H   0  0  0  0  0  0  0  0  0  0  0  0
  139.6954   71.8895  226.7550 H   0  0  0  0  0  0  0  0  0  0  0  0
  141.8468   70.6599  228.0922 H   0  0  0  0  0  0  0  0  0  0  0  0
  140.2780   71.4366  228.6453 H   0  0  0  0  0  0  0  0  0  0  0  0
  140.6244   69.0276  229.3697 H   0  0  0  0  0  0  0  0  0  0  0  0
  139.1098   69.3548  228.5437 H   0  0  0  0  0  0  0  0  0  0  0  0
  141.6955   68.6003  227.0041 H   0  0  0  0  0  0  0  0  0  0  0  0
  140.5840   67.3474  227.5810 H   0  0  0  0  0  0  0  0  0  0  0  0
  140.0930   68.0902  225.2664 H   0  0  0  0  0  0  0  0  0  0  0  0
  138.7335   68.4333  226.4430 H   0  0  0  0  0  0  0  0  0  0  0  0
  132.9785   69.4910  226.7014 H   0  0  0  0  0  0  0  0  0  0  0  0
  131.7452   71.3308  227.8079 H   0  0  0  0  0  0  0  0  0  0  0  0
  131.4286   73.7359  228.1510 H   0  0  0  0  0  0  0  0  0  0  0  0
  133.9452   76.5325  226.0968 H   0  0  0  0  0  0  0  0  0  0  0  0
  135.1392   74.6450  225.0218 H   0  0  0  0  0  0  0  0  0  0  0  0
  1  2  2  0
  2  3  1  0
  3  4  1  0
  4  5  1  0
  5  6  2  0
  5  7  1  0
  7  8  1  0
  8  9  1  0
  9 10  1  0
 10 11  1  0
 11 12  1  0
 12 13  1  0
 13 14  1  0
 14 15  1  0
 15 16  1  0
 16 17  1  0
  2 18  1  0
 18 19  2  0
 19 20  1  0
 20 21  2  0
 21 22  1  0
 22 23  2  0
 23 24  1  0
 23 25  1  0
 25 26  2  0
 26 27  1  0
 27 28  2  0
 11  7  1  0
 17 12  1  0
 28 18  1  0
 27 21  1  0
  3 29  1  0
  4 30  1  0
  4 31  1  0
  8 32  1  0
  8 33  1  0
  9 34  1  0
  9 35  1  0
 10 36  1  0
 10 37  1  0
 11 38  1  1
 12 39  1  0
 13 40  1  0
 13 41  1  0
 14 42  1  0
 14 43  1  0
 15 44  1  0
 15 45  1  0
 16 46  1  0
 16 47  1  0
 17 48  1  0
 17 49  1  0
 19 50  1  0
 20 51  1  0
 22 52  1  0
 25 53  1  0
 26 54  1  0
M  END
>  <smiles>  (58) 
O=C(NCC(=O)N1CCCC1C1CCCCC1)c1ccc2cc(Cl)ccc2n1

>  <score_type>  (58) 
oracle

>  <origin>  (58) 
autodockgpu

>  <m_score__min__energy>  (58) 
-8.8399999999999999

>  <m_primary>  (58) 
energy

>  <rmsd>  (58) 
7.1921212240769945

>  <m_score__min__rmsd>  (58) 
7.1921212240769945

>  <meeko>  (58) 
{"free_energy": -8.31, "intermolecular_energy": -9.8, "internal_energy": -1.7, "cluster_size": 10, "cluster_id": 2, "rank_in_cluster": 7}

>  <energy>  (58) 
-8.39

>  <cluster_rmsd>  (58) 
1.11

>  <cluster>  (58) 
1

$$$$

     RDKit          3D

 54 57  0  0  0  0  0  0  0  0999 V2000
  139.3920   72.1050  220.8170 O   0  0  0  0  0  0  0  0  0  0  0  0
  139.5100   72.5390  222.0120 C   0  0  0  0  0  0  0  0  0  0  0  0
  139.4660   73.9600  222.2450 N   0  0  0  0  0  0  0  0  0  0  0  0
  139.2920   74.9350  221.2420 C   0  0  0  0  0  0  0  0  0  0  0  0
  139.7750   76.2840  221.3940 C   0  0  0  0  0  0  0  0  0  0  0  0
  139.4060   76.8690  222.4950 O   0  0  0  0  0  0  0  0  0  0  0  0
  140.5790   77.0850  220.5490 N   0  0  0  0  0  0  0  0  0  0  0  0
  140.5630   76.9310  219.0810 C   0  0  0  0  0  0  0  0  0  0  0  0
  140.9060   78.3380  218.5840 C   0  0  0  0  0  0  0  0  0  0  0  0
  141.8850   78.7640  219.6330 C   0  0  0  0  0  0  0  0  0  0  0  0
  141.5210   78.1190  220.9040 C   0  0  1  0  0  0  0  0  0  0  0  0
  141.0890   79.0580  222.0010 C   0  0  0  0  0  0  0  0  0  0  0  0
  140.8390   80.4440  221.5780 C   0  0  0  0  0  0  0  0  0  0  0  0
  141.1500   81.5710  222.4670 C   0  0  0  0  0  0  0  0  0  0  0  0
  141.6120   81.1710  223.8520 C   0  0  0  0  0  0  0  0  0  0  0  0
  142.7300   80.1490  223.5850 C   0  0  0  0  0  0  0  0  0  0  0  0
  142.0480   78.8930  223.1820 C   0  0  0  0  0  0  0  0  0  0  0  0
  139.6850   71.5980  223.1210 C   0  0  0  0  0  0  0  0  0  0  0  0
  139.2910   70.2900  222.9380 C   0  0  0  0  0  0  0  0  0  0  0  0
  139.4380   69.3790  223.9600 C   0  0  0  0  0  0  0  0  0  0  0  0
  139.9790   69.7700  225.1660 C   0  0  0  0  0  0  0  0  0  0  0  0
  140.1490   68.8990  226.2250 C   0  0  0  0  0  0  0  0  0  0  0  0
  140.6850   69.2980  227.4180 C   0  0  0  0  0  0  0  0  0  0  0  0
  140.8980   68.1760  228.7680 Cl  0  0  0  0  0  0  0  0  0  0  0  0
  141.0760   70.6280  227.5720 C   0  0  0  0  0  0  0  0  0  0  0  0
  140.9120   71.5120  226.5230 C   0  0  0  0  0  0  0  0  0  0  0  0
  140.3630   71.0890  225.3120 C   0  0  0  0  0  0  0  0  0  0  0  0
  140.2120   71.9700  224.3010 N   0  0  0  0  0  0  0  0  0  0  0  0
  139.5770   74.2230  223.2660 H   0  0  0  0  0  0  0  0  0  0  0  0
  139.7747   74.5356  220.3379 H   0  0  0  0  0  0  0  0  0  0  0  0
  138.2015   75.0791  221.2480 H   0  0  0  0  0  0  0  0  0  0  0  0
  141.3167   76.2006  218.7517 H   0  0  0  0  0  0  0  0  0  0  0  0
  139.6036   76.5564  218.6946 H   0  0  0  0  0  0  0  0  0  0  0  0
  141.3651   78.3154  217.5847 H   0  0  0  0  0  0  0  0  0  0  0  0
  140.0407   79.0066  218.4646 H   0  0  0  0  0  0  0  0  0  0  0  0
  142.8998   78.4576  219.3392 H   0  0  0  0  0  0  0  0  0  0  0  0
  141.8620   79.8579  219.7465 H   0  0  0  0  0  0  0  0  0  0  0  0
  142.4035   77.6791  221.3915 H   0  0  0  0  0  0  0  0  0  0  0  0
  140.0801   78.7706  222.3318 H   0  0  0  0  0  0  0  0  0  0  0  0
  141.4213   80.6007  220.6580 H   0  0  0  0  0  0  0  0  0  0  0  0
  139.7418   80.4834  221.5099 H   0  0  0  0  0  0  0  0  0  0  0  0
  141.9463   82.1681  221.9986 H   0  0  0  0  0  0  0  0  0  0  0  0
  140.2128   82.1314  222.6002 H   0  0  0  0  0  0  0  0  0  0  0  0
  141.9996   82.0410  224.4023 H   0  0  0  0  0  0  0  0  0  0  0  0
  140.7994   80.7608  224.4696 H   0  0  0  0  0  0  0  0  0  0  0  0
  143.3870   80.5035  222.7771 H   0  0  0  0  0  0  0  0  0  0  0  0
  143.3594   79.9984  224.4745 H   0  0  0  0  0  0  0  0  0  0  0  0
  142.8159   78.1561  222.9039 H   0  0  0  0  0  0  0  0  0  0  0  0
  141.4425   78.5692  224.0414 H   0  0  0  0  0  0  0  0  0  0  0  0
  138.8596   69.9742  221.9767 H   0  0  0  0  0  0  0  0  0  0  0  0
  139.1226   68.3354  223.8135 H   0  0  0  0  0  0  0  0  0  0  0  0
  139.8429   67.8494  226.1044 H   0  0  0  0  0  0  0  0  0  0  0  0
  141.5119   70.9707  228.5220 H   0  0  0  0  0  0  0  0  0  0  0  0
  141.2178   72.5617  226.6439 H   0  0  0  0  0  0  0  0  0  0  0  0
  1  2  2  0
  2  3  1  0
  3  4  1  0
  4  5  1  0
  5  6  2  0
  5  7  1  0
  7  8  1  0
  8  9  1  0
  9 10  1  0
 10 11  1  0
 11 12  1  0
 12 13  1  0
 13 14  1  0
 14 15  1  0
 15 16  1  0
 16 17  1  0
  2 18  1  0
 18 19  2  0
 19 20  1  0
 20 21  2  0
 21 22  1  0
 22 23  2  0
 23 24  1  0
 23 25  1  0
 25 26  2  0
 26 27  1  0
 27 28  2  0
 11  7  1  0
 17 12  1  0
 28 18  1  0
 27 21  1  0
  3 29  1  0
  4 30  1  0
  4 31  1  0
  8 32  1  0
  8 33  1  0
  9 34  1  0
  9 35  1  0
 10 36  1  0
 10 37  1  0
 11 38  1  1
 12 39  1  0
 13 40  1  0
 13 41  1  0
 14 42  1  0
 14 43  1  0
 15 44  1  0
 15 45  1  0
 16 46  1  0
 16 47  1  0
 17 48  1  0
 17 49  1  0
 19 50  1  0
 20 51  1  0
 22 52  1  0
 25 53  1  0
 26 54  1  0
M  END
>  <smiles>  (59) 
O=C(NCC(=O)N1CCCC1C1CCCCC1)c1ccc2cc(Cl)ccc2n1

>  <score_type>  (59) 
oracle

>  <origin>  (59) 
autodockgpu

>  <m_score__min__energy>  (59) 
-8.8399999999999999

>  <m_primary>  (59) 
energy

>  <rmsd>  (59) 
1.7192394505555568

>  <m_score__min__rmsd>  (59) 
1.7192394505555568

>  <meeko>  (59) 
{"free_energy": -8.64, "intermolecular_energy": -10.13, "internal_energy": -1.42, "cluster_size": 24, "cluster_id": 1, "rank_in_cluster": 2}

>  <energy>  (59) 
-8.35

>  <cluster_rmsd>  (59) 
0.8

>  <cluster>  (59) 
1

$$$$

     RDKit          3D

 54 57  0  0  0  0  0  0  0  0999 V2000
  133.9620   69.6650  226.5120 O   0  0  0  0  0  0  0  0  0  0  0  0
  134.2070   70.7780  225.9380 C   0  0  0  0  0  0  0  0  0  0  0  0
  135.1220   70.8020  224.8250 N   0  0  0  0  0  0  0  0  0  0  0  0
  135.7790   69.6710  224.2990 C   0  0  0  0  0  0  0  0  0  0  0  0
  137.1990   69.4790  224.4350 C   0  0  0  0  0  0  0  0  0  0  0  0
  137.5390   68.5300  225.2580 O   0  0  0  0  0  0  0  0  0  0  0  0
  138.2910   70.1470  223.8330 N   0  0  0  0  0  0  0  0  0  0  0  0
  138.1970   70.7360  222.4830 C   0  0  0  0  0  0  0  0  0  0  0  0
  139.1880   71.9010  222.5460 C   0  0  0  0  0  0  0  0  0  0  0  0
  140.2530   71.3050  223.4120 C   0  0  0  0  0  0  0  0  0  0  0  0
  139.6220   70.3630  224.3500 C   0  0  1  0  0  0  0  0  0  0  0  0
  139.7110   70.7470  225.8040 C   0  0  0  0  0  0  0  0  0  0  0  0
  140.6770   71.8120  226.1140 C   0  0  0  0  0  0  0  0  0  0  0  0
  141.4290   71.8040  227.3750 C   0  0  0  0  0  0  0  0  0  0  0  0
  141.0330   70.7050  228.3370 C   0  0  0  0  0  0  0  0  0  0  0  0
  141.0750   69.4310  227.4780 C   0  0  0  0  0  0  0  0  0  0  0  0
  139.8560   69.4680  226.6310 C   0  0  0  0  0  0  0  0  0  0  0  0
  133.5610   72.0070  226.4090 C   0  0  0  0  0  0  0  0  0  0  0  0
  132.3990   71.8950  227.1430 C   0  0  0  0  0  0  0  0  0  0  0  0
  131.7650   73.0280  227.6000 C   0  0  0  0  0  0  0  0  0  0  0  0
  132.2870   74.2740  227.3270 C   0  0  0  0  0  0  0  0  0  0  0  0
  131.6920   75.4440  227.7600 C   0  0  0  0  0  0  0  0  0  0  0  0
  132.2180   76.6750  227.4830 C   0  0  0  0  0  0  0  0  0  0  0  0
  131.4490   78.1660  228.0400 Cl  0  0  0  0  0  0  0  0  0  0  0  0
  133.3970   76.7550  226.7400 C   0  0  0  0  0  0  0  0  0  0  0  0
  134.0040   75.5950  226.3000 C   0  0  0  0  0  0  0  0  0  0  0  0
  133.4540   74.3460  226.5900 C   0  0  0  0  0  0  0  0  0  0  0  0
  134.0640   73.2260  226.1490 N   0  0  0  0  0  0  0  0  0  0  0  0
  135.2640   71.7700  224.4170 H   0  0  0  0  0  0  0  0  0  0  0  0
  135.3043   68.7952  224.7655 H   0  0  0  0  0  0  0  0  0  0  0  0
  135.6708   69.8258  223.2153 H   0  0  0  0  0  0  0  0  0  0  0  0
  138.4911   70.0080  221.7126 H   0  0  0  0  0  0  0  0  0  0  0  0
  137.1766   71.0487  222.2165 H   0  0  0  0  0  0  0  0  0  0  0  0
  139.5733   72.1610  221.5490 H   0  0  0  0  0  0  0  0  0  0  0  0
  138.7645   72.8437  222.9227 H   0  0  0  0  0  0  0  0  0  0  0  0
  140.9840   70.7716  222.7865 H   0  0  0  0  0  0  0  0  0  0  0  0
  140.7728   72.0986  223.9688 H   0  0  0  0  0  0  0  0  0  0  0  0
  140.1749   69.4128  224.3886 H   0  0  0  0  0  0  0  0  0  0  0  0
  138.7733   71.2438  226.0936 H   0  0  0  0  0  0  0  0  0  0  0  0
  141.4221   71.8043  225.3049 H   0  0  0  0  0  0  0  0  0  0  0  0
  140.0352   72.6991  226.2194 H   0  0  0  0  0  0  0  0  0  0  0  0
  142.4963   71.6840  227.1374 H   0  0  0  0  0  0  0  0  0  0  0  0
  141.2038   72.7556  227.8786 H   0  0  0  0  0  0  0  0  0  0  0  0
  141.7470   70.6386  229.1711 H   0  0  0  0  0  0  0  0  0  0  0  0
  140.0477   70.8761  228.7952 H   0  0  0  0  0  0  0  0  0  0  0  0
  141.9774   69.4237  226.8490 H   0  0  0  0  0  0  0  0  0  0  0  0
  141.1049   68.5254  228.1017 H   0  0  0  0  0  0  0  0  0  0  0  0
  139.8882   68.6119  225.9411 H   0  0  0  0  0  0  0  0  0  0  0  0
  138.9936   69.4306  227.3129 H   0  0  0  0  0  0  0  0  0  0  0  0
  131.9796   70.9021  227.3629 H   0  0  0  0  0  0  0  0  0  0  0  0
  130.8380   72.9387  228.1854 H   0  0  0  0  0  0  0  0  0  0  0  0
  130.7639   75.3825  228.3473 H   0  0  0  0  0  0  0  0  0  0  0  0
  133.8394   77.7347  226.5066 H   0  0  0  0  0  0  0  0  0  0  0  0
  134.9326   75.6566  225.7136 H   0  0  0  0  0  0  0  0  0  0  0  0
  1  2  2  0
  2  3  1  0
  3  4  1  0
  4  5  1  0
  5  6  2  0
  5  7  1  0
  7  8  1  0
  8  9  1  0
  9 10  1  0
 10 11  1  0
 11 12  1  0
 12 13  1  0
 13 14  1  0
 14 15  1  0
 15 16  1  0
 16 17  1  0
  2 18  1  0
 18 19  2  0
 19 20  1  0
 20 21  2  0
 21 22  1  0
 22 23  2  0
 23 24  1  0
 23 25  1  0
 25 26  2  0
 26 27  1  0
 27 28  2  0
 11  7  1  0
 17 12  1  0
 28 18  1  0
 27 21  1  0
  3 29  1  0
  4 30  1  0
  4 31  1  0
  8 32  1  0
  8 33  1  0
  9 34  1  0
  9 35  1  0
 10 36  1  0
 10 37  1  0
 11 38  1  1
 12 39  1  0
 13 40  1  0
 13 41  1  0
 14 42  1  0
 14 43  1  0
 15 44  1  0
 15 45  1  0
 16 46  1  0
 16 47  1  0
 17 48  1  0
 17 49  1  0
 19 50  1  0
 20 51  1  0
 22 52  1  0
 25 53  1  0
 26 54  1  0
M  END
>  <smiles>  (60) 
O=C(NCC(=O)N1CCCC1C1CCCCC1)c1ccc2cc(Cl)ccc2n1

>  <score_type>  (60) 
oracle

>  <origin>  (60) 
autodockgpu

>  <m_score__min__energy>  (60) 
-8.8399999999999999

>  <m_primary>  (60) 
energy

>  <rmsd>  (60) 
7.853889940418303

>  <m_score__min__rmsd>  (60) 
7.853889940418303

>  <meeko>  (60) 
{"free_energy": -8.51, "intermolecular_energy": -10.0, "internal_energy": -1.44, "cluster_size": 10, "cluster_id": 2, "rank_in_cluster": 3}

>  <energy>  (60) 
-8.23

>  <cluster_rmsd>  (60) 
0.92

>  <cluster>  (60) 
1

$$$$

     RDKit          3D

 54 57  0  0  0  0  0  0  0  0999 V2000
  137.9100   79.1530  220.8720 O   0  0  0  0  0  0  0  0  0  0  0  0
  137.7300   79.0640  222.1320 C   0  0  0  0  0  0  0  0  0  0  0  0
  137.8320   77.7720  222.7610 N   0  0  0  0  0  0  0  0  0  0  0  0
  138.1280   76.5700  222.0870 C   0  0  0  0  0  0  0  0  0  0  0  0
  139.4790   76.1820  221.7720 C   0  0  0  0  0  0  0  0  0  0  0  0
  139.8740   75.0850  222.3490 O   0  0  0  0  0  0  0  0  0  0  0  0
  140.4530   76.7910  220.9460 N   0  0  0  0  0  0  0  0  0  0  0  0
  140.6030   76.4320  219.5220 C   0  0  0  0  0  0  0  0  0  0  0  0
  141.1380   77.7230  218.8970 C   0  0  0  0  0  0  0  0  0  0  0  0
  142.0160   78.2170  220.0030 C   0  0  0  0  0  0  0  0  0  0  0  0
  141.4390   77.7880  221.2870 C   0  0  1  0  0  0  0  0  0  0  0  0
  140.9670   78.9040  222.1840 C   0  0  0  0  0  0  0  0  0  0  0  0
  140.8710   80.2250  221.5450 C   0  0  0  0  0  0  0  0  0  0  0  0
  141.1710   81.4490  222.2960 C   0  0  0  0  0  0  0  0  0  0  0  0
  141.4540   81.2320  223.7670 C   0  0  0  0  0  0  0  0  0  0  0  0
  142.5110   80.1150  223.7770 C   0  0  0  0  0  0  0  0  0  0  0  0
  141.7810   78.8580  223.4780 C   0  0  0  0  0  0  0  0  0  0  0  0
  137.4270   80.2630  222.9180 C   0  0  0  0  0  0  0  0  0  0  0  0
  137.2670   81.4590  222.2510 C   0  0  0  0  0  0  0  0  0  0  0  0
  136.9840   82.6060  222.9580 C   0  0  0  0  0  0  0  0  0  0  0  0
  136.8600   82.5640  224.3300 C   0  0  0  0  0  0  0  0  0  0  0  0
  136.5790   83.6830  225.0890 C   0  0  0  0  0  0  0  0  0  0  0  0
  136.4590   83.6300  226.4500 C   0  0  0  0  0  0  0  0  0  0  0  0
  136.0990   85.0690  227.4130 Cl  0  0  0  0  0  0  0  0  0  0  0  0
  136.6250   82.4040  227.0960 C   0  0  0  0  0  0  0  0  0  0  0  0
  136.9070   81.2750  226.3520 C   0  0  0  0  0  0  0  0  0  0  0  0
  137.0270   81.3470  224.9630 C   0  0  0  0  0  0  0  0  0  0  0  0
  137.3030   80.2310  224.2560 N   0  0  0  0  0  0  0  0  0  0  0  0
  137.6620   77.7980  223.8070 H   0  0  0  0  0  0  0  0  0  0  0  0
  137.7117   75.7606  222.7047 H   0  0  0  0  0  0  0  0  0  0  0  0
  137.7034   76.7552  221.0893 H   0  0  0  0  0  0  0  0  0  0  0  0
  141.3179   75.6056  219.3956 H   0  0  0  0  0  0  0  0  0  0  0  0
  139.6670   76.0825  219.0617 H   0  0  0  0  0  0  0  0  0  0  0  0
  141.7127   77.5229  217.9807 H   0  0  0  0  0  0  0  0  0  0  0  0
  140.3617   78.4330  218.5757 H   0  0  0  0  0  0  0  0  0  0  0  0
  143.0258   77.7954  219.8911 H   0  0  0  0  0  0  0  0  0  0  0  0
  142.0826   79.3144  219.9686 H   0  0  0  0  0  0  0  0  0  0  0  0
  142.2089   77.3537  221.9417 H   0  0  0  0  0  0  0  0  0  0  0  0
  139.9096   78.7305  222.4327 H   0  0  0  0  0  0  0  0  0  0  0  0
  141.5582   80.2081  220.6862 H   0  0  0  0  0  0  0  0  0  0  0  0
  139.7935   80.3205  221.3453 H   0  0  0  0  0  0  0  0  0  0  0  0
  142.0547   81.9218  221.8427 H   0  0  0  0  0  0  0  0  0  0  0  0
  140.2698   82.0773  222.2412 H   0  0  0  0  0  0  0  0  0  0  0  0
  141.8485   82.1488  224.2295 H   0  0  0  0  0  0  0  0  0  0  0  0
  140.5521   80.9690  224.3392 H   0  0  0  0  0  0  0  0  0  0  0  0
  143.2752   80.3051  223.0089 H   0  0  0  0  0  0  0  0  0  0  0  0
  143.0290   80.0593  224.7458 H   0  0  0  0  0  0  0  0  0  0  0  0
  142.5150   78.0429  223.3961 H   0  0  0  0  0  0  0  0  0  0  0  0
  141.0653   78.7027  224.2988 H   0  0  0  0  0  0  0  0  0  0  0  0
  137.3653   81.4967  221.1561 H   0  0  0  0  0  0  0  0  0  0  0  0
  136.8563   83.5600  222.4255 H   0  0  0  0  0  0  0  0  0  0  0  0
  136.4472   84.6499  224.5813 H   0  0  0  0  0  0  0  0  0  0  0  0
  136.5319   82.3374  228.1900 H   0  0  0  0  0  0  0  0  0  0  0  0
  137.0385   80.3081  226.8597 H   0  0  0  0  0  0  0  0  0  0  0  0
  1  2  2  0
  2  3  1  0
  3  4  1  0
  4  5  1  0
  5  6  2  0
  5  7  1  0
  7  8  1  0
  8  9  1  0
  9 10  1  0
 10 11  1  0
 11 12  1  0
 12 13  1  0
 13 14  1  0
 14 15  1  0
 15 16  1  0
 16 17  1  0
  2 18  1  0
 18 19  2  0
 19 20  1  0
 20 21  2  0
 21 22  1  0
 22 23  2  0
 23 24  1  0
 23 25  1  0
 25 26  2  0
 26 27  1  0
 27 28  2  0
 11  7  1  0
 17 12  1  0
 28 18  1  0
 27 21  1  0
  3 29  1  0
  4 30  1  0
  4 31  1  0
  8 32  1  0
  8 33  1  0
  9 34  1  0
  9 35  1  0
 10 36  1  0
 10 37  1  0
 11 38  1  1
 12 39  1  0
 13 40  1  0
 13 41  1  0
 14 42  1  0
 14 43  1  0
 15 44  1  0
 15 45  1  0
 16 46  1  0
 16 47  1  0
 17 48  1  0
 17 49  1  0
 19 50  1  0
 20 51  1  0
 22 52  1  0
 25 53  1  0
 26 54  1  0
M  END
>  <smiles>  (61) 
O=C(NCC(=O)N1CCCC1C1CCCCC1)c1ccc2cc(Cl)ccc2n1

>  <score_type>  (61) 
oracle

>  <origin>  (61) 
autodockgpu

>  <m_score__min__energy>  (61) 
-8.8399999999999999

>  <m_primary>  (61) 
energy

>  <rmsd>  (61) 
8.917543332908886

>  <m_score__min__rmsd>  (61) 
8.917543332908886

>  <meeko>  (61) 
{"free_energy": -6.61, "intermolecular_energy": -8.1, "internal_energy": -2.68, "cluster_size": 2, "cluster_id": 6, "rank_in_cluster": 1}

>  <energy>  (61) 
-8.12

>  <cluster_rmsd>  (61) 
1.21

>  <cluster>  (61) 
1

$$$$

     RDKit          3D

 54 57  0  0  0  0  0  0  0  0999 V2000
  134.7510   68.5070  225.3900 O   0  0  0  0  0  0  0  0  0  0  0  0
  134.9750   69.7090  225.0240 C   0  0  0  0  0  0  0  0  0  0  0  0
  135.9410   69.9530  223.9830 N   0  0  0  0  0  0  0  0  0  0  0  0
  136.6700   68.9510  223.3110 C   0  0  0  0  0  0  0  0  0  0  0  0
  138.1080   68.8880  223.3610 C   0  0  0  0  0  0  0  0  0  0  0  0
  138.5930   67.6840  223.4470 O   0  0  0  0  0  0  0  0  0  0  0  0
  139.0860   69.9100  223.3360 N   0  0  0  0  0  0  0  0  0  0  0  0
  139.1790   70.8750  222.2220 C   0  0  0  0  0  0  0  0  0  0  0  0
  139.7540   72.1230  222.8960 C   0  0  0  0  0  0  0  0  0  0  0  0
  140.6860   71.4940  223.8840 C   0  0  0  0  0  0  0  0  0  0  0  0
  140.1260   70.1970  224.2950 C   0  0  1  0  0  0  0  0  0  0  0  0
  139.7310   70.0990  225.7470 C   0  0  0  0  0  0  0  0  0  0  0  0
  140.4160   71.0380  226.6480 C   0  0  0  0  0  0  0  0  0  0  0  0
  140.7560   70.6500  228.0230 C   0  0  0  0  0  0  0  0  0  0  0  0
  140.2370   69.2900  228.4400 C   0  0  0  0  0  0  0  0  0  0  0  0
  140.6960   68.3590  227.3060 C   0  0  0  0  0  0  0  0  0  0  0  0
  139.7880   68.6280  226.1630 C   0  0  0  0  0  0  0  0  0  0  0  0
  134.2550   70.8170  225.6590 C   0  0  0  0  0  0  0  0  0  0  0  0
  133.1870   70.5190  226.4780 C   0  0  0  0  0  0  0  0  0  0  0  0
  132.4870   71.5350  227.0880 C   0  0  0  0  0  0  0  0  0  0  0  0
  132.8500   72.8490  226.8850 C   0  0  0  0  0  0  0  0  0  0  0  0
  132.1820   73.9070  227.4710 C   0  0  0  0  0  0  0  0  0  0  0  0
  132.5500   75.2080  227.2610 C   0  0  0  0  0  0  0  0  0  0  0  0
  131.6900   76.5550  228.0160 Cl  0  0  0  0  0  0  0  0  0  0  0  0
  133.6370   75.4760  226.4290 C   0  0  0  0  0  0  0  0  0  0  0  0
  134.3150   74.4300  225.8350 C   0  0  0  0  0  0  0  0  0  0  0  0
  133.9270   73.1090  226.0580 C   0  0  0  0  0  0  0  0  0  0  0  0
  134.6040   72.1020  225.4670 N   0  0  0  0  0  0  0  0  0  0  0  0
  136.0610   70.9810  223.7520 H   0  0  0  0  0  0  0  0  0  0  0  0
  136.3062   67.9901  223.7039 H   0  0  0  0  0  0  0  0  0  0  0  0
  136.4871   69.2018  222.2557 H   0  0  0  0  0  0  0  0  0  0  0  0
  139.8517   70.5057  221.4339 H   0  0  0  0  0  0  0  0  0  0  0  0
  138.2154   71.0562  221.7234 H   0  0  0  0  0  0  0  0  0  0  0  0
  140.2920   72.7605  222.1789 H   0  0  0  0  0  0  0  0  0  0  0  0
  139.0019   72.7934  223.3375 H   0  0  0  0  0  0  0  0  0  0  0  0
  141.6715   71.3421  223.4196 H   0  0  0  0  0  0  0  0  0  0  0  0
  140.8032   72.1483  224.7605 H   0  0  0  0  0  0  0  0  0  0  0  0
  140.8934   69.4093  224.2705 H   0  0  0  0  0  0  0  0  0  0  0  0
  138.6936   70.4490  225.8532 H   0  0  0  0  0  0  0  0  0  0  0  0
  141.3614   71.3109  226.1564 H   0  0  0  0  0  0  0  0  0  0  0  0
  139.6632   71.8262  226.7964 H   0  0  0  0  0  0  0  0  0  0  0  0
  141.8520   70.6426  228.1165 H   0  0  0  0  0  0  0  0  0  0  0  0
  140.2720   71.3847  228.6833 H   0  0  0  0  0  0  0  0  0  0  0  0
  140.6739   68.9817  229.4013 H   0  0  0  0  0  0  0  0  0  0  0  0
  139.1468   69.2771  228.5861 H   0  0  0  0  0  0  0  0  0  0  0  0
  141.7369   68.5803  227.0275 H   0  0  0  0  0  0  0  0  0  0  0  0
  140.6575   67.3029  227.6113 H   0  0  0  0  0  0  0  0  0  0  0  0
  140.1326   68.0378  225.3011 H   0  0  0  0  0  0  0  0  0  0  0  0
  138.7749   68.3497  226.4888 H   0  0  0  0  0  0  0  0  0  0  0  0
  132.8948   69.4715  226.6437 H   0  0  0  0  0  0  0  0  0  0  0  0
  131.6340   71.2972  227.7405 H   0  0  0  0  0  0  0  0  0  0  0  0
  131.3256   73.6963  228.1284 H   0  0  0  0  0  0  0  0  0  0  0  0
  133.9521   76.5141  226.2472 H   0  0  0  0  0  0  0  0  0  0  0  0
  135.1716   74.6411  225.1779 H   0  0  0  0  0  0  0  0  0  0  0  0
  1  2  2  0
  2  3  1  0
  3  4  1  0
  4  5  1  0
  5  6  2  0
  5  7  1  0
  7  8  1  0
  8  9  1  0
  9 10  1  0
 10 11  1  0
 11 12  1  0
 12 13  1  0
 13 14  1  0
 14 15  1  0
 15 16  1  0
 16 17  1  0
  2 18  1  0
 18 19  2  0
 19 20  1  0
 20 21  2  0
 21 22  1  0
 22 23  2  0
 23 24  1  0
 23 25  1  0
 25 26  2  0
 26 27  1  0
 27 28  2  0
 11  7  1  0
 17 12  1  0
 28 18  1  0
 27 21  1  0
  3 29  1  0
  4 30  1  0
  4 31  1  0
  8 32  1  0
  8 33  1  0
  9 34  1  0
  9 35  1  0
 10 36  1  0
 10 37  1  0
 11 38  1  1
 12 39  1  0
 13 40  1  0
 13 41  1  0
 14 42  1  0
 14 43  1  0
 15 44  1  0
 15 45  1  0
 16 46  1  0
 16 47  1  0
 17 48  1  0
 17 49  1  0
 19 50  1  0
 20 51  1  0
 22 52  1  0
 25 53  1  0
 26 54  1  0
M  END
>  <smiles>  (62) 
O=C(NCC(=O)N1CCCC1C1CCCCC1)c1ccc2cc(Cl)ccc2n1

>  <score_type>  (62) 
oracle

>  <origin>  (62) 
autodockgpu

>  <m_score__min__energy>  (62) 
-8.8399999999999999

>  <m_primary>  (62) 
energy

>  <rmsd>  (62) 
7.223638715205042

>  <m_score__min__rmsd>  (62) 
7.223638715205042

>  <meeko>  (62) 
{"free_energy": -8.27, "intermolecular_energy": -9.76, "internal_energy": -1.69, "cluster_size": 10, "cluster_id": 2, "rank_in_cluster": 8}

>  <energy>  (62) 
-8.07

>  <cluster_rmsd>  (62) 
0.97

>  <cluster>  (62) 
1

$$$$

     RDKit          3D

 54 57  0  0  0  0  0  0  0  0999 V2000
  142.1490   73.5430  220.4960 O   0  0  0  0  0  0  0  0  0  0  0  0
  141.3580   74.2610  221.1940 C   0  0  0  0  0  0  0  0  0  0  0  0
  140.3690   73.6100  222.0160 N   0  0  0  0  0  0  0  0  0  0  0  0
  140.2030   72.2140  222.1230 C   0  0  0  0  0  0  0  0  0  0  0  0
  139.8970   71.5740  223.3760 C   0  0  0  0  0  0  0  0  0  0  0  0
  140.6440   71.9530  224.3720 O   0  0  0  0  0  0  0  0  0  0  0  0
  138.9280   70.5990  223.7110 N   0  0  0  0  0  0  0  0  0  0  0  0
  137.9860   70.0600  222.7110 C   0  0  0  0  0  0  0  0  0  0  0  0
  137.7060   68.6480  223.2300 C   0  0  0  0  0  0  0  0  0  0  0  0
  137.7180   68.8930  224.7060 C   0  0  0  0  0  0  0  0  0  0  0  0
  138.6570   69.9900  224.9910 C   0  0  1  0  0  0  0  0  0  0  0  0
  139.8640   69.6050  225.8090 C   0  0  0  0  0  0  0  0  0  0  0  0
  139.9520   68.1820  226.1670 C   0  0  0  0  0  0  0  0  0  0  0  0
  140.5200   67.7630  227.4550 C   0  0  0  0  0  0  0  0  0  0  0  0
  141.0980   68.8900  228.2840 C   0  0  0  0  0  0  0  0  0  0  0  0
  139.9750   69.9390  228.3120 C   0  0  0  0  0  0  0  0  0  0  0  0
  139.9860   70.5870  226.9760 C   0  0  0  0  0  0  0  0  0  0  0  0
  141.4620   75.7220  221.1550 C   0  0  0  0  0  0  0  0  0  0  0  0
  142.0550   76.3060  220.0560 C   0  0  0  0  0  0  0  0  0  0  0  0
  142.1720   77.6760  219.9860 C   0  0  0  0  0  0  0  0  0  0  0  0
  141.6980   78.4660  221.0110 C   0  0  0  0  0  0  0  0  0  0  0  0
  141.7900   79.8450  220.9940 C   0  0  0  0  0  0  0  0  0  0  0  0
  141.3180   80.6200  222.0170 C   0  0  0  0  0  0  0  0  0  0  0  0
  141.4410   82.3830  221.9870 Cl  0  0  0  0  0  0  0  0  0  0  0  0
  140.7210   79.9990  223.1150 C   0  0  0  0  0  0  0  0  0  0  0  0
  140.6210   78.6210  223.1480 C   0  0  0  0  0  0  0  0  0  0  0  0
  141.1090   77.8450  222.0960 C   0  0  0  0  0  0  0  0  0  0  0  0
  141.0020   76.5010  222.1490 N   0  0  0  0  0  0  0  0  0  0  0  0
  139.7560   74.2880  222.5540 H   0  0  0  0  0  0  0  0  0  0  0  0
  139.3875   71.9476  221.4345 H   0  0  0  0  0  0  0  0  0  0  0  0
  141.2189   71.8452  221.9184 H   0  0  0  0  0  0  0  0  0  0  0  0
  137.0635   70.6580  222.6739 H   0  0  0  0  0  0  0  0  0  0  0  0
  138.3856   70.0745  221.6862 H   0  0  0  0  0  0  0  0  0  0  0  0
  136.7290   68.2759  222.8880 H   0  0  0  0  0  0  0  0  0  0  0  0
  138.4183   67.8835  222.8863 H   0  0  0  0  0  0  0  0  0  0  0  0
  136.7089   69.1715  225.0439 H   0  0  0  0  0  0  0  0  0  0  0  0
  138.0318   67.9817  225.2362 H   0  0  0  0  0  0  0  0  0  0  0  0
  138.2113   70.7264  225.6759 H   0  0  0  0  0  0  0  0  0  0  0  0
  140.7609   69.7013  225.1795 H   0  0  0  0  0  0  0  0  0  0  0  0
  138.9262   67.7863  226.1333 H   0  0  0  0  0  0  0  0  0  0  0  0
  140.6813   67.7930  225.4412 H   0  0  0  0  0  0  0  0  0  0  0  0
  139.7239   67.2796  228.0403 H   0  0  0  0  0  0  0  0  0  0  0  0
  141.3554   67.0862  227.2225 H   0  0  0  0  0  0  0  0  0  0  0  0
  141.3376   68.5454  229.3008 H   0  0  0  0  0  0  0  0  0  0  0  0
  142.0375   69.2841  227.8693 H   0  0  0  0  0  0  0  0  0  0  0  0
  139.0042   69.4547  228.4938 H   0  0  0  0  0  0  0  0  0  0  0  0
  140.1295   70.6729  229.1167 H   0  0  0  0  0  0  0  0  0  0  0  0
  139.1423   71.2910  226.9257 H   0  0  0  0  0  0  0  0  0  0  0  0
  140.9603   71.0868  226.8718 H   0  0  0  0  0  0  0  0  0  0  0  0
  142.4341   75.6783  219.2361 H   0  0  0  0  0  0  0  0  0  0  0  0
  142.6454   78.1416  219.1090 H   0  0  0  0  0  0  0  0  0  0  0  0
  142.2588   80.3357  220.1283 H   0  0  0  0  0  0  0  0  0  0  0  0
  140.3326   80.6024  223.9487 H   0  0  0  0  0  0  0  0  0  0  0  0
  140.1514   78.1304  224.0133 H   0  0  0  0  0  0  0  0  0  0  0  0
  1  2  2  0
  2  3  1  0
  3  4  1  0
  4  5  1  0
  5  6  2  0
  5  7  1  0
  7  8  1  0
  8  9  1  0
  9 10  1  0
 10 11  1  0
 11 12  1  0
 12 13  1  0
 13 14  1  0
 14 15  1  0
 15 16  1  0
 16 17  1  0
  2 18  1  0
 18 19  2  0
 19 20  1  0
 20 21  2  0
 21 22  1  0
 22 23  2  0
 23 24  1  0
 23 25  1  0
 25 26  2  0
 26 27  1  0
 27 28  2  0
 11  7  1  0
 17 12  1  0
 28 18  1  0
 27 21  1  0
  3 29  1  0
  4 30  1  0
  4 31  1  0
  8 32  1  0
  8 33  1  0
  9 34  1  0
  9 35  1  0
 10 36  1  0
 10 37  1  0
 11 38  1  1
 12 39  1  0
 13 40  1  0
 13 41  1  0
 14 42  1  0
 14 43  1  0
 15 44  1  0
 15 45  1  0
 16 46  1  0
 16 47  1  0
 17 48  1  0
 17 49  1  0
 19 50  1  0
 20 51  1  0
 22 52  1  0
 25 53  1  0
 26 54  1  0
M  END
>  <smiles>  (63) 
O=C(NCC(=O)N1CCCC1C1CCCCC1)c1ccc2cc(Cl)ccc2n1

>  <score_type>  (63) 
oracle

>  <origin>  (63) 
autodockgpu

>  <m_score__min__energy>  (63) 
-8.8399999999999999

>  <m_primary>  (63) 
energy

>  <rmsd>  (63) 
8.535565314719738

>  <m_score__min__rmsd>  (63) 
8.535565314719738

>  <meeko>  (63) 
{"free_energy": -8.28, "intermolecular_energy": -9.78, "internal_energy": -1.33, "cluster_size": 3, "cluster_id": 3, "rank_in_cluster": 1}

>  <energy>  (63) 
-8.05

>  <cluster_rmsd>  (63) 
0.92

>  <cluster>  (63) 
1

$$$$

     RDKit          3D

 54 57  0  0  0  0  0  0  0  0999 V2000
  133.6100   69.3960  226.4680 O   0  0  0  0  0  0  0  0  0  0  0  0
  134.1570   70.4910  226.1100 C   0  0  0  0  0  0  0  0  0  0  0  0
  135.3740   70.4430  225.3380 N   0  0  0  0  0  0  0  0  0  0  0  0
  136.0210   69.2600  224.9290 C   0  0  0  0  0  0  0  0  0  0  0  0
  136.9600   69.2390  223.8380 C   0  0  0  0  0  0  0  0  0  0  0  0
  136.6070   68.4870  222.8360 O   0  0  0  0  0  0  0  0  0  0  0  0
  138.2040   69.8910  223.6670 N   0  0  0  0  0  0  0  0  0  0  0  0
  138.4010   70.9400  222.6470 C   0  0  0  0  0  0  0  0  0  0  0  0
  139.4900   71.8200  223.2660 C   0  0  0  0  0  0  0  0  0  0  0  0
  140.3240   70.7820  223.9490 C   0  0  0  0  0  0  0  0  0  0  0  0
  139.4450   69.6800  224.3720 C   0  0  1  0  0  0  0  0  0  0  0  0
  139.3330   69.4840  225.8630 C   0  0  0  0  0  0  0  0  0  0  0  0
  140.0760   70.4550  226.6810 C   0  0  0  0  0  0  0  0  0  0  0  0
  140.6970   70.0530  227.9490 C   0  0  0  0  0  0  0  0  0  0  0  0
  140.3990   68.6310  228.3730 C   0  0  0  0  0  0  0  0  0  0  0  0
  140.7320   67.7980  227.1230 C   0  0  0  0  0  0  0  0  0  0  0  0
  139.6090   68.0130  226.1770 C   0  0  0  0  0  0  0  0  0  0  0  0
  133.5500   71.7720  226.4800 C   0  0  0  0  0  0  0  0  0  0  0  0
  132.3760   71.7540  227.2030 C   0  0  0  0  0  0  0  0  0  0  0  0
  131.7770   72.9400  227.5660 C   0  0  0  0  0  0  0  0  0  0  0  0
  132.3450   74.1440  227.2100 C   0  0  0  0  0  0  0  0  0  0  0  0
  131.7860   75.3610  227.5470 C   0  0  0  0  0  0  0  0  0  0  0  0
  132.3580   76.5500  227.1870 C   0  0  0  0  0  0  0  0  0  0  0  0
  131.6350   78.1040  227.6220 Cl  0  0  0  0  0  0  0  0  0  0  0  0
  133.5470   76.5350  226.4570 C   0  0  0  0  0  0  0  0  0  0  0  0
  134.1190   75.3260  226.1120 C   0  0  0  0  0  0  0  0  0  0  0  0
  133.5220   74.1210  226.4860 C   0  0  0  0  0  0  0  0  0  0  0  0
  134.0980   72.9510  226.1380 N   0  0  0  0  0  0  0  0  0  0  0  0
  135.7550   71.4010  225.0920 H   0  0  0  0  0  0  0  0  0  0  0  0
  136.5646   68.8869  225.8095 H   0  0  0  0  0  0  0  0  0  0  0  0
  135.1857   68.6696  224.5244 H   0  0  0  0  0  0  0  0  0  0  0  0
  138.7372   70.5065  221.6935 H   0  0  0  0  0  0  0  0  0  0  0  0
  137.4800   71.4923  222.4088 H   0  0  0  0  0  0  0  0  0  0  0  0
  140.0624   72.3592  222.4968 H   0  0  0  0  0  0  0  0  0  0  0  0
  139.1157   72.6153  223.9274 H   0  0  0  0  0  0  0  0  0  0  0  0
  141.0866   70.4021  223.2532 H   0  0  0  0  0  0  0  0  0  0  0  0
  140.8275   71.2192  224.8238 H   0  0  0  0  0  0  0  0  0  0  0  0
  139.8749   68.7045  224.1008 H   0  0  0  0  0  0  0  0  0  0  0  0
  138.3031   69.7170  226.1712 H   0  0  0  0  0  0  0  0  0  0  0  0
  140.8848   70.8457  226.0460 H   0  0  0  0  0  0  0  0  0  0  0  0
  139.2893   71.1520  227.0056 H   0  0  0  0  0  0  0  0  0  0  0  0
  141.7870   70.1592  227.8462 H   0  0  0  0  0  0  0  0  0  0  0  0
  140.2715   70.7057  228.7255 H   0  0  0  0  0  0  0  0  0  0  0  0
  141.0325   68.3342  229.2219 H   0  0  0  0  0  0  0  0  0  0  0  0
  139.3605   68.4962  228.7098 H   0  0  0  0  0  0  0  0  0  0  0  0
  141.6779   68.1392  226.6772 H   0  0  0  0  0  0  0  0  0  0  0  0
  140.8530   66.7328  227.3692 H   0  0  0  0  0  0  0  0  0  0  0  0
  139.8466   67.4970  225.2351 H   0  0  0  0  0  0  0  0  0  0  0  0
  138.7046   67.6159  226.6612 H   0  0  0  0  0  0  0  0  0  0  0  0
  131.9191   70.7951  227.4891 H   0  0  0  0  0  0  0  0  0  0  0  0
  130.8405   72.9260  228.1429 H   0  0  0  0  0  0  0  0  0  0  0  0
  130.8496   75.3745  228.1241 H   0  0  0  0  0  0  0  0  0  0  0  0
  134.0255   77.4794  226.1583 H   0  0  0  0  0  0  0  0  0  0  0  0
  135.0559   75.3126  225.5358 H   0  0  0  0  0  0  0  0  0  0  0  0
  1  2  2  0
  2  3  1  0
  3  4  1  0
  4  5  1  0
  5  6  2  0
  5  7  1  0
  7  8  1  0
  8  9  1  0
  9 10  1  0
 10 11  1  0
 11 12  1  0
 12 13  1  0
 13 14  1  0
 14 15  1  0
 15 16  1  0
 16 17  1  0
  2 18  1  0
 18 19  2  0
 19 20  1  0
 20 21  2  0
 21 22  1  0
 22 23  2  0
 23 24  1  0
 23 25  1  0
 25 26  2  0
 26 27  1  0
 27 28  2  0
 11  7  1  0
 17 12  1  0
 28 18  1  0
 27 21  1  0
  3 29  1  0
  4 30  1  0
  4 31  1  0
  8 32  1  0
  8 33  1  0
  9 34  1  0
  9 35  1  0
 10 36  1  0
 10 37  1  0
 11 38  1  6
 12 39  1  0
 13 40  1  0
 13 41  1  0
 14 42  1  0
 14 43  1  0
 15 44  1  0
 15 45  1  0
 16 46  1  0
 16 47  1  0
 17 48  1  0
 17 49  1  0
 19 50  1  0
 20 51  1  0
 22 52  1  0
 25 53  1  0
 26 54  1  0
M  END
>  <smiles>  (64) 
O=C(NCC(=O)N1CCCC1C1CCCCC1)c1ccc2cc(Cl)ccc2n1

>  <score_type>  (64) 
oracle

>  <origin>  (64) 
autodockgpu

>  <m_score__min__energy>  (64) 
-8.8399999999999999

>  <m_primary>  (64) 
energy

>  <rmsd>  (64) 
8.023964054764294

>  <m_score__min__rmsd>  (64) 
8.023964054764294

>  <meeko>  (64) 
{"free_energy": -8.56, "intermolecular_energy": -10.05, "internal_energy": -1.55, "cluster_size": 10, "cluster_id": 2, "rank_in_cluster": 2}

>  <energy>  (64) 
-8.01

>  <cluster_rmsd>  (64) 
1.35

>  <cluster>  (64) 
1

$$$$

     RDKit          3D

 54 57  0  0  0  0  0  0  0  0999 V2000
  139.2750   72.7270  220.5770 O   0  0  0  0  0  0  0  0  0  0  0  0
  140.1180   72.8320  221.5290 C   0  0  0  0  0  0  0  0  0  0  0  0
  141.1580   73.8250  221.4330 N   0  0  0  0  0  0  0  0  0  0  0  0
  141.3210   74.7180  220.3540 C   0  0  0  0  0  0  0  0  0  0  0  0
  140.4720   75.8680  220.1770 C   0  0  0  0  0  0  0  0  0  0  0  0
  140.5320   76.4070  218.9950 O   0  0  0  0  0  0  0  0  0  0  0  0
  139.5850   76.5160  221.0690 N   0  0  0  0  0  0  0  0  0  0  0  0
  138.3350   75.8800  221.5270 C   0  0  0  0  0  0  0  0  0  0  0  0
  138.1230   76.4950  222.9120 C   0  0  0  0  0  0  0  0  0  0  0  0
  138.6240   77.8850  222.6720 C   0  0  0  0  0  0  0  0  0  0  0  0
  139.6880   77.8300  221.6580 C   0  0  1  0  0  0  0  0  0  0  0  0
  141.0580   78.2320  222.1420 C   0  0  0  0  0  0  0  0  0  0  0  0
  141.1040   78.7920  223.5010 C   0  0  0  0  0  0  0  0  0  0  0  0
  142.0570   79.8540  223.8460 C   0  0  0  0  0  0  0  0  0  0  0  0
  143.0310   80.2090  222.7430 C   0  0  0  0  0  0  0  0  0  0  0  0
  142.1310   80.4340  221.5170 C   0  0  0  0  0  0  0  0  0  0  0  0
  141.7210   79.0830  221.0570 C   0  0  0  0  0  0  0  0  0  0  0  0
  140.0220   71.9530  222.6970 C   0  0  0  0  0  0  0  0  0  0  0  0
  139.2810   70.7950  222.5850 C   0  0  0  0  0  0  0  0  0  0  0  0
  139.1670   69.9470  223.6630 C   0  0  0  0  0  0  0  0  0  0  0  0
  139.7910   70.2500  224.8550 C   0  0  0  0  0  0  0  0  0  0  0  0
  139.7090   69.4360  225.9680 C   0  0  0  0  0  0  0  0  0  0  0  0
  140.3310   69.7470  227.1460 C   0  0  0  0  0  0  0  0  0  0  0  0
  140.2190   68.6990  228.5650 Cl  0  0  0  0  0  0  0  0  0  0  0  0
  141.0750   70.9240  227.2260 C   0  0  0  0  0  0  0  0  0  0  0  0
  141.1660   71.7490  226.1230 C   0  0  0  0  0  0  0  0  0  0  0  0
  140.5250   71.4180  224.9290 C   0  0  0  0  0  0  0  0  0  0  0  0
  140.6280   72.2400  223.8630 N   0  0  0  0  0  0  0  0  0  0  0  0
  141.8110   73.8340  222.2680 H   0  0  0  0  0  0  0  0  0  0  0  0
  142.3489   75.1030  220.4262 H   0  0  0  0  0  0  0  0  0  0  0  0
  141.0422   74.0920  219.4936 H   0  0  0  0  0  0  0  0  0  0  0  0
  137.4988   76.1223  220.8547 H   0  0  0  0  0  0  0  0  0  0  0  0
  138.3887   74.7814  221.5442 H   0  0  0  0  0  0  0  0  0  0  0  0
  137.0615   76.4899  223.2006 H   0  0  0  0  0  0  0  0  0  0  0  0
  138.6254   75.9617  223.7325 H   0  0  0  0  0  0  0  0  0  0  0  0
  137.8005   78.5190  222.3115 H   0  0  0  0  0  0  0  0  0  0  0  0
  139.0168   78.3103  223.6073 H   0  0  0  0  0  0  0  0  0  0  0  0
  139.5426   78.6033  220.8894 H   0  0  0  0  0  0  0  0  0  0  0  0
  141.6603   77.3229  222.2858 H   0  0  0  0  0  0  0  0  0  0  0  0
  140.1006   79.1915  223.7095 H   0  0  0  0  0  0  0  0  0  0  0  0
  141.4584   77.9420  224.1026 H   0  0  0  0  0  0  0  0  0  0  0  0
  141.4853   80.7579  224.1030 H   0  0  0  0  0  0  0  0  0  0  0  0
  142.6597   79.4723  224.6833 H   0  0  0  0  0  0  0  0  0  0  0  0
  143.5891   81.1235  222.9925 H   0  0  0  0  0  0  0  0  0  0  0  0
  143.7884   79.4288  222.5771 H   0  0  0  0  0  0  0  0  0  0  0  0
  141.2476   81.0275  221.7951 H   0  0  0  0  0  0  0  0  0  0  0  0
  142.6588   80.9862  220.7255 H   0  0  0  0  0  0  0  0  0  0  0  0
  141.0092   79.2013  220.2268 H   0  0  0  0  0  0  0  0  0  0  0  0
  142.6387   78.5568  220.7556 H   0  0  0  0  0  0  0  0  0  0  0  0
  138.7821   70.5497  221.6358 H   0  0  0  0  0  0  0  0  0  0  0  0
  138.5758   69.0237  223.5735 H   0  0  0  0  0  0  0  0  0  0  0  0
  139.1240   68.5066  225.9050 H   0  0  0  0  0  0  0  0  0  0  0  0
  141.5860   71.1932  228.1621 H   0  0  0  0  0  0  0  0  0  0  0  0
  141.7509   72.6785  226.1863 H   0  0  0  0  0  0  0  0  0  0  0  0
  1  2  2  0
  2  3  1  0
  3  4  1  0
  4  5  1  0
  5  6  2  0
  5  7  1  0
  7  8  1  0
  8  9  1  0
  9 10  1  0
 10 11  1  0
 11 12  1  0
 12 13  1  0
 13 14  1  0
 14 15  1  0
 15 16  1  0
 16 17  1  0
  2 18  1  0
 18 19  2  0
 19 20  1  0
 20 21  2  0
 21 22  1  0
 22 23  2  0
 23 24  1  0
 23 25  1  0
 25 26  2  0
 26 27  1  0
 27 28  2  0
 11  7  1  0
 17 12  1  0
 28 18  1  0
 27 21  1  0
  3 29  1  0
  4 30  1  0
  4 31  1  0
  8 32  1  0
  8 33  1  0
  9 34  1  0
  9 35  1  0
 10 36  1  0
 10 37  1  0
 11 38  1  6
 12 39  1  0
 13 40  1  0
 13 41  1  0
 14 42  1  0
 14 43  1  0
 15 44  1  0
 15 45  1  0
 16 46  1  0
 16 47  1  0
 17 48  1  0
 17 49  1  0
 19 50  1  0
 20 51  1  0
 22 52  1  0
 25 53  1  0
 26 54  1  0
M  END
>  <smiles>  (65) 
O=C(NCC(=O)N1CCCC1C1CCCCC1)c1ccc2cc(Cl)ccc2n1

>  <score_type>  (65) 
oracle

>  <origin>  (65) 
autodockgpu

>  <m_score__min__energy>  (65) 
-8.8399999999999999

>  <m_primary>  (65) 
energy

>  <rmsd>  (65) 
3.0679600045374755

>  <m_score__min__rmsd>  (65) 
3.0679600045374755

>  <meeko>  (65) 
{"free_energy": -7.83, "intermolecular_energy": -9.32, "internal_energy": -1.74, "cluster_size": 24, "cluster_id": 1, "rank_in_cluster": 20}

>  <energy>  (65) 
-8.0

>  <cluster_rmsd>  (65) 
1.39

>  <cluster>  (65) 
1

$$$$

     RDKit          3D

 54 57  0  0  0  0  0  0  0  0999 V2000
  134.7170   68.5270  225.3490 O   0  0  0  0  0  0  0  0  0  0  0  0
  135.0520   69.7200  225.0440 C   0  0  0  0  0  0  0  0  0  0  0  0
  136.1090   69.9240  224.0860 N   0  0  0  0  0  0  0  0  0  0  0  0
  136.8150   68.8920  223.4350 C   0  0  0  0  0  0  0  0  0  0  0  0
  138.2470   68.9250  223.2790 C   0  0  0  0  0  0  0  0  0  0  0  0
  138.8020   67.7560  223.1430 O   0  0  0  0  0  0  0  0  0  0  0  0
  139.1560   70.0090  223.2520 N   0  0  0  0  0  0  0  0  0  0  0  0
  139.2060   70.9570  222.1220 C   0  0  0  0  0  0  0  0  0  0  0  0
  139.6860   72.2520  222.7820 C   0  0  0  0  0  0  0  0  0  0  0  0
  140.6380   71.7030  223.7970 C   0  0  0  0  0  0  0  0  0  0  0  0
  140.1570   70.3800  224.2240 C   0  0  1  0  0  0  0  0  0  0  0  0
  139.7420   70.2820  225.6700 C   0  0  0  0  0  0  0  0  0  0  0  0
  140.4330   71.2020  226.5840 C   0  0  0  0  0  0  0  0  0  0  0  0
  140.7490   70.8010  227.9610 C   0  0  0  0  0  0  0  0  0  0  0  0
  140.2000   69.4490  228.3640 C   0  0  0  0  0  0  0  0  0  0  0  0
  140.6550   68.5150  227.2300 C   0  0  0  0  0  0  0  0  0  0  0  0
  139.7660   68.8070  226.0780 C   0  0  0  0  0  0  0  0  0  0  0  0
  134.3660   70.8570  225.6640 C   0  0  0  0  0  0  0  0  0  0  0  0
  133.3700   70.5990  226.5810 C   0  0  0  0  0  0  0  0  0  0  0  0
  132.7030   71.6430  227.1810 C   0  0  0  0  0  0  0  0  0  0  0  0
  133.0270   72.9460  226.8680 C   0  0  0  0  0  0  0  0  0  0  0  0
  132.3900   74.0310  227.4380 C   0  0  0  0  0  0  0  0  0  0  0  0
  132.7180   75.3200  227.1190 C   0  0  0  0  0  0  0  0  0  0  0  0
  131.8970   76.7020  227.8540 Cl  0  0  0  0  0  0  0  0  0  0  0  0
  133.7320   75.5480  226.1880 C   0  0  0  0  0  0  0  0  0  0  0  0
  134.3790   74.4740  225.6080 C   0  0  0  0  0  0  0  0  0  0  0  0
  134.0310   73.1650  225.9440 C   0  0  0  0  0  0  0  0  0  0  0  0
  134.6760   72.1310  225.3650 N   0  0  0  0  0  0  0  0  0  0  0  0
  136.3190   70.9470  223.9020 H   0  0  0  0  0  0  0  0  0  0  0  0
  136.5869   67.9680  223.9865 H   0  0  0  0  0  0  0  0  0  0  0  0
  136.4679   68.9953  222.3963 H   0  0  0  0  0  0  0  0  0  0  0  0
  139.9156   70.6184  221.3527 H   0  0  0  0  0  0  0  0  0  0  0  0
  138.2420   71.0655  221.6034 H   0  0  0  0  0  0  0  0  0  0  0  0
  140.1946   72.9104  222.0624 H   0  0  0  0  0  0  0  0  0  0  0  0
  138.8840   72.8797  223.1976 H   0  0  0  0  0  0  0  0  0  0  0  0
  141.6395   71.6074  223.3522 H   0  0  0  0  0  0  0  0  0  0  0  0
  140.6958   72.3793  224.6626 H   0  0  0  0  0  0  0  0  0  0  0  0
  140.9747   69.6442  224.2295 H   0  0  0  0  0  0  0  0  0  0  0  0
  138.7103   70.6515  225.7657 H   0  0  0  0  0  0  0  0  0  0  0  0
  141.3894   71.4595  226.1054 H   0  0  0  0  0  0  0  0  0  0  0  0
  139.6930   72.0031  226.7279 H   0  0  0  0  0  0  0  0  0  0  0  0
  141.8434   70.7729  228.0678 H   0  0  0  0  0  0  0  0  0  0  0  0
  140.2708   71.5412  228.6194 H   0  0  0  0  0  0  0  0  0  0  0  0
  140.6196   69.1274  229.3286 H   0  0  0  0  0  0  0  0  0  0  0  0
  139.1081   69.4559  228.4969 H   0  0  0  0  0  0  0  0  0  0  0  0
  141.7031   68.7180  226.9650 H   0  0  0  0  0  0  0  0  0  0  0  0
  140.5930   67.4583  227.5291 H   0  0  0  0  0  0  0  0  0  0  0  0
  140.1097   68.2152  225.2168 H   0  0  0  0  0  0  0  0  0  0  0  0
  138.7440   68.5458  226.3898 H   0  0  0  0  0  0  0  0  0  0  0  0
  133.1085   69.5607  226.8330 H   0  0  0  0  0  0  0  0  0  0  0  0
  131.9083   71.4368  227.9131 H   0  0  0  0  0  0  0  0  0  0  0  0
  131.5918   73.8524  228.1735 H   0  0  0  0  0  0  0  0  0  0  0  0
  134.0144   76.5762  225.9176 H   0  0  0  0  0  0  0  0  0  0  0  0
  135.1776   74.6527  224.8729 H   0  0  0  0  0  0  0  0  0  0  0  0
  1  2  2  0
  2  3  1  0
  3  4  1  0
  4  5  1  0
  5  6  2  0
  5  7  1  0
  7  8  1  0
  8  9  1  0
  9 10  1  0
 10 11  1  0
 11 12  1  0
 12 13  1  0
 13 14  1  0
 14 15  1  0
 15 16  1  0
 16 17  1  0
  2 18  1  0
 18 19  2  0
 19 20  1  0
 20 21  2  0
 21 22  1  0
 22 23  2  0
 23 24  1  0
 23 25  1  0
 25 26  2  0
 26 27  1  0
 27 28  2  0
 11  7  1  0
 17 12  1  0
 28 18  1  0
 27 21  1  0
  3 29  1  0
  4 30  1  0
  4 31  1  0
  8 32  1  0
  8 33  1  0
  9 34  1  0
  9 35  1  0
 10 36  1  0
 10 37  1  0
 11 38  1  1
 12 39  1  0
 13 40  1  0
 13 41  1  0
 14 42  1  0
 14 43  1  0
 15 44  1  0
 15 45  1  0
 16 46  1  0
 16 47  1  0
 17 48  1  0
 17 49  1  0
 19 50  1  0
 20 51  1  0
 22 52  1  0
 25 53  1  0
 26 54  1  0
M  END
>  <smiles>  (66) 
O=C(NCC(=O)N1CCCC1C1CCCCC1)c1ccc2cc(Cl)ccc2n1

>  <score_type>  (66) 
oracle

>  <origin>  (66) 
autodockgpu

>  <m_score__min__energy>  (66) 
-8.8399999999999999

>  <m_primary>  (66) 
energy

>  <rmsd>  (66) 
7.137464899222764

>  <m_score__min__rmsd>  (66) 
7.137464899222764

>  <meeko>  (66) 
{"free_energy": -8.24, "intermolecular_energy": -9.73, "internal_energy": -1.72, "cluster_size": 10, "cluster_id": 2, "rank_in_cluster": 9}

>  <energy>  (66) 
-7.92

>  <cluster_rmsd>  (66) 
1.29

>  <cluster>  (66) 
1

$$$$

     RDKit          3D

 54 57  0  0  0  0  0  0  0  0999 V2000
  133.3990   70.3780  226.7490 O   0  0  0  0  0  0  0  0  0  0  0  0
  133.7140   71.4870  226.2020 C   0  0  0  0  0  0  0  0  0  0  0  0
  134.6460   71.4840  225.1030 N   0  0  0  0  0  0  0  0  0  0  0  0
  135.2490   70.3290  224.5630 C   0  0  0  0  0  0  0  0  0  0  0  0
  136.5370   70.3680  223.9200 C   0  0  0  0  0  0  0  0  0  0  0  0
  136.9130   71.5520  223.5360 O   0  0  0  0  0  0  0  0  0  0  0  0
  137.4630   69.3390  223.6280 N   0  0  0  0  0  0  0  0  0  0  0  0
  137.7540   68.9210  222.2430 C   0  0  0  0  0  0  0  0  0  0  0  0
  139.2000   68.4270  222.3300 C   0  0  0  0  0  0  0  0  0  0  0  0
  139.1910   67.7970  223.6870 C   0  0  0  0  0  0  0  0  0  0  0  0
  138.2400   68.5300  224.5370 C   0  0  1  0  0  0  0  0  0  0  0  0
  138.8520   69.2560  225.7080 C   0  0  0  0  0  0  0  0  0  0  0  0
  139.6640   70.4320  225.3630 C   0  0  0  0  0  0  0  0  0  0  0  0
  140.8560   70.7800  226.1450 C   0  0  0  0  0  0  0  0  0  0  0  0
  141.0810   69.9170  227.3680 C   0  0  0  0  0  0  0  0  0  0  0  0
  140.9820   68.4810  226.8270 C   0  0  0  0  0  0  0  0  0  0  0  0
  139.5360   68.2250  226.6080 C   0  0  0  0  0  0  0  0  0  0  0  0
  133.1290   72.7400  226.6890 C   0  0  0  0  0  0  0  0  0  0  0  0
  131.9470   72.6780  227.3970 C   0  0  0  0  0  0  0  0  0  0  0  0
  131.3690   73.8350  227.8680 C   0  0  0  0  0  0  0  0  0  0  0  0
  131.9660   75.0550  227.6350 C   0  0  0  0  0  0  0  0  0  0  0  0
  131.4290   76.2460  228.0840 C   0  0  0  0  0  0  0  0  0  0  0  0
  132.0300   77.4520  227.8460 C   0  0  0  0  0  0  0  0  0  0  0  0
  131.3340   78.9710  228.4240 Cl  0  0  0  0  0  0  0  0  0  0  0  0
  133.2260   77.4810  227.1290 C   0  0  0  0  0  0  0  0  0  0  0  0
  133.7760   76.2990  226.6730 C   0  0  0  0  0  0  0  0  0  0  0  0
  133.1500   75.0770  226.9230 C   0  0  0  0  0  0  0  0  0  0  0  0
  133.7050   73.9340  226.4680 N   0  0  0  0  0  0  0  0  0  0  0  0
  134.8480   72.4510  224.7180 H   0  0  0  0  0  0  0  0  0  0  0  0
  135.3414   69.6135  225.3934 H   0  0  0  0  0  0  0  0  0  0  0  0
  134.5797   70.0914  223.7230 H   0  0  0  0  0  0  0  0  0  0  0  0
  137.0788   68.1136  221.9234 H   0  0  0  0  0  0  0  0  0  0  0  0
  137.6146   69.7275  221.5081 H   0  0  0  0  0  0  0  0  0  0  0  0
  139.4265   67.6928  221.5428 H   0  0  0  0  0  0  0  0  0  0  0  0
  139.9610   69.2093  222.1926 H   0  0  0  0  0  0  0  0  0  0  0  0
  138.8806   66.7449  223.6053 H   0  0  0  0  0  0  0  0  0  0  0  0
  140.1981   67.8375  224.1275 H   0  0  0  0  0  0  0  0  0  0  0  0
  137.5849   67.8374  225.0857 H   0  0  0  0  0  0  0  0  0  0  0  0
  138.0470   69.7382  226.2820 H   0  0  0  0  0  0  0  0  0  0  0  0
  140.0010   70.2868  224.3260 H   0  0  0  0  0  0  0  0  0  0  0  0
  138.9819   71.2688  225.5740 H   0  0  0  0  0  0  0  0  0  0  0  0
  141.7354   70.6844  225.4911 H   0  0  0  0  0  0  0  0  0  0  0  0
  140.7003   71.8055  226.5113 H   0  0  0  0  0  0  0  0  0  0  0  0
  142.0740   70.1044  227.8026 H   0  0  0  0  0  0  0  0  0  0  0  0
  140.3569   70.1199  228.1708 H   0  0  0  0  0  0  0  0  0  0  0  0
  141.5339   68.3905  225.8798 H   0  0  0  0  0  0  0  0  0  0  0  0
  141.4179   67.7550  227.5291 H   0  0  0  0  0  0  0  0  0  0  0  0
  139.4264   67.2337  226.1441 H   0  0  0  0  0  0  0  0  0  0  0  0
  139.0486   68.2877  227.5921 H   0  0  0  0  0  0  0  0  0  0  0  0
  131.4673   71.7061  227.5849 H   0  0  0  0  0  0  0  0  0  0  0  0
  130.4264   73.7856  228.4329 H   0  0  0  0  0  0  0  0  0  0  0  0
  130.4870   76.2241  228.6517 H   0  0  0  0  0  0  0  0  0  0  0  0
  133.7279   78.4390  226.9280 H   0  0  0  0  0  0  0  0  0  0  0  0
  134.7185   76.3210  226.1062 H   0  0  0  0  0  0  0  0  0  0  0  0
  1  2  2  0
  2  3  1  0
  3  4  1  0
  4  5  1  0
  5  6  2  0
  5  7  1  0
  7  8  1  0
  8  9  1  0
  9 10  1  0
 10 11  1  0
 11 12  1  0
 12 13  1  0
 13 14  1  0
 14 15  1  0
 15 16  1  0
 16 17  1  0
  2 18  1  0
 18 19  2  0
 19 20  1  0
 20 21  2  0
 21 22  1  0
 22 23  2  0
 23 24  1  0
 23 25  1  0
 25 26  2  0
 26 27  1  0
 27 28  2  0
 11  7  1  0
 17 12  1  0
 28 18  1  0
 27 21  1  0
  3 29  1  0
  4 30  1  0
  4 31  1  0
  8 32  1  0
  8 33  1  0
  9 34  1  0
  9 35  1  0
 10 36  1  0
 10 37  1  0
 11 38  1  1
 12 39  1  0
 13 40  1  0
 13 41  1  0
 14 42  1  0
 14 43  1  0
 15 44  1  0
 15 45  1  0
 16 46  1  0
 16 47  1  0
 17 48  1  0
 17 49  1  0
 19 50  1  0
 20 51  1  0
 22 52  1  0
 25 53  1  0
 26 54  1  0
M  END
>  <smiles>  (67) 
O=C(NCC(=O)N1CCCC1C1CCCCC1)c1ccc2cc(Cl)ccc2n1

>  <score_type>  (67) 
oracle

>  <origin>  (67) 
autodockgpu

>  <m_score__min__energy>  (67) 
-8.8399999999999999

>  <m_primary>  (67) 
energy

>  <rmsd>  (67) 
8.915845025488531

>  <m_score__min__rmsd>  (67) 
8.915845025488531

>  <meeko>  (67) 
{"free_energy": -7.7, "intermolecular_energy": -9.2, "internal_energy": -1.7, "cluster_size": 10, "cluster_id": 2, "rank_in_cluster": 10}

>  <energy>  (67) 
-7.91

>  <cluster_rmsd>  (67) 
1.42

>  <cluster>  (67) 
1

$$$$

     RDKit          3D

 54 57  0  0  0  0  0  0  0  0999 V2000
  140.0940   72.3930  220.7440 O   0  0  0  0  0  0  0  0  0  0  0  0
  139.9120   72.7820  221.9460 C   0  0  0  0  0  0  0  0  0  0  0  0
  139.6330   74.1740  222.1930 N   0  0  0  0  0  0  0  0  0  0  0  0
  139.5330   75.1640  221.1950 C   0  0  0  0  0  0  0  0  0  0  0  0
  140.5900   76.1110  220.9480 C   0  0  0  0  0  0  0  0  0  0  0  0
  140.7980   76.9530  221.9170 O   0  0  0  0  0  0  0  0  0  0  0  0
  141.4390   76.2870  219.8300 N   0  0  0  0  0  0  0  0  0  0  0  0
  141.5330   77.5770  219.1180 C   0  0  0  0  0  0  0  0  0  0  0  0
  142.9620   77.5640  218.5710 C   0  0  0  0  0  0  0  0  0  0  0  0
  143.1130   76.1120  218.2390 C   0  0  0  0  0  0  0  0  0  0  0  0
  142.3040   75.3290  219.1850 C   0  0  1  0  0  0  0  0  0  0  0  0
  143.0850   74.4230  220.1020 C   0  0  0  0  0  0  0  0  0  0  0  0
  144.4400   74.8860  220.4370 C   0  0  0  0  0  0  0  0  0  0  0  0
  145.5380   73.9310  220.6280 C   0  0  0  0  0  0  0  0  0  0  0  0
  145.1230   72.4760  220.5730 C   0  0  0  0  0  0  0  0  0  0  0  0
  144.3120   72.3750  219.2700 C   0  0  0  0  0  0  0  0  0  0  0  0
  142.9950   72.9950  219.5590 C   0  0  0  0  0  0  0  0  0  0  0  0
  139.9870   71.8200  223.0500 C   0  0  0  0  0  0  0  0  0  0  0  0
  139.5550   70.5310  222.8240 C   0  0  0  0  0  0  0  0  0  0  0  0
  139.6080   69.6020  223.8390 C   0  0  0  0  0  0  0  0  0  0  0  0
  140.0930   69.9560  225.0800 C   0  0  0  0  0  0  0  0  0  0  0  0
  140.1690   69.0660  226.1330 C   0  0  0  0  0  0  0  0  0  0  0  0
  140.6500   69.4280  227.3610 C   0  0  0  0  0  0  0  0  0  0  0  0
  140.7420   68.2820  228.7030 Cl  0  0  0  0  0  0  0  0  0  0  0  0
  141.0820   70.7400  227.5570 C   0  0  0  0  0  0  0  0  0  0  0  0
  141.0130   71.6430  226.5140 C   0  0  0  0  0  0  0  0  0  0  0  0
  140.5180   71.2580  225.2680 C   0  0  0  0  0  0  0  0  0  0  0  0
  140.4600   72.1570  224.2630 N   0  0  0  0  0  0  0  0  0  0  0  0
  139.5020   74.4010  223.2200 H   0  0  0  0  0  0  0  0  0  0  0  0
  139.3710   74.6298  220.2471 H   0  0  0  0  0  0  0  0  0  0  0  0
  138.7341   75.8088  221.5899 H   0  0  0  0  0  0  0  0  0  0  0  0
  140.7976   77.6328  218.3018 H   0  0  0  0  0  0  0  0  0  0  0  0
  141.3227   78.4440  219.7615 H   0  0  0  0  0  0  0  0  0  0  0  0
  143.0606   78.1975  217.6771 H   0  0  0  0  0  0  0  0  0  0  0  0
  143.7214   77.9578  219.2625 H   0  0  0  0  0  0  0  0  0  0  0  0
  142.7641   75.9282  217.2121 H   0  0  0  0  0  0  0  0  0  0  0  0
  144.1700   75.8169  218.3138 H   0  0  0  0  0  0  0  0  0  0  0  0
  141.7061   74.5699  218.6594 H   0  0  0  0  0  0  0  0  0  0  0  0
  142.6186   74.4462  221.0980 H   0  0  0  0  0  0  0  0  0  0  0  0
  144.7498   75.5609  219.6255 H   0  0  0  0  0  0  0  0  0  0  0  0
  144.3095   75.3101  221.4435 H   0  0  0  0  0  0  0  0  0  0  0  0
  146.2853   74.1049  219.8398 H   0  0  0  0  0  0  0  0  0  0  0  0
  145.9311   74.1055  221.6404 H   0  0  0  0  0  0  0  0  0  0  0  0
  146.0040   71.8182  220.5383 H   0  0  0  0  0  0  0  0  0  0  0  0
  144.5480   72.1638  221.4573 H   0  0  0  0  0  0  0  0  0  0  0  0
  144.8207   72.9183  218.4600 H   0  0  0  0  0  0  0  0  0  0  0  0
  144.2026   71.3303  218.9434 H   0  0  0  0  0  0  0  0  0  0  0  0
  142.4104   73.0154  218.6274 H   0  0  0  0  0  0  0  0  0  0  0  0
  142.5215   72.3857  220.3429 H   0  0  0  0  0  0  0  0  0  0  0  0
  139.1686   70.2448  221.8347 H   0  0  0  0  0  0  0  0  0  0  0  0
  139.2620   68.5735  223.6590 H   0  0  0  0  0  0  0  0  0  0  0  0
  139.8312   68.0306  225.9789 H   0  0  0  0  0  0  0  0  0  0  0  0
  141.4749   71.0532  228.5355 H   0  0  0  0  0  0  0  0  0  0  0  0
  141.3524   72.6780  226.6678 H   0  0  0  0  0  0  0  0  0  0  0  0
  1  2  2  0
  2  3  1  0
  3  4  1  0
  4  5  1  0
  5  6  2  0
  5  7  1  0
  7  8  1  0
  8  9  1  0
  9 10  1  0
 10 11  1  0
 11 12  1  0
 12 13  1  0
 13 14  1  0
 14 15  1  0
 15 16  1  0
 16 17  1  0
  2 18  1  0
 18 19  2  0
 19 20  1  0
 20 21  2  0
 21 22  1  0
 22 23  2  0
 23 24  1  0
 23 25  1  0
 25 26  2  0
 26 27  1  0
 27 28  2  0
 11  7  1  0
 17 12  1  0
 28 18  1  0
 27 21  1  0
  3 29  1  0
  4 30  1  0
  4 31  1  0
  8 32  1  0
  8 33  1  0
  9 34  1  0
  9 35  1  0
 10 36  1  0
 10 37  1  0
 11 38  1  6
 12 39  1  0
 13 40  1  0
 13 41  1  0
 14 42  1  0
 14 43  1  0
 15 44  1  0
 15 45  1  0
 16 46  1  0
 16 47  1  0
 17 48  1  0
 17 49  1  0
 19 50  1  0
 20 51  1  0
 22 52  1  0
 25 53  1  0
 26 54  1  0
M  END
>  <smiles>  (68) 
O=C(NCC(=O)N1CCCC1C1CCCCC1)c1ccc2cc(Cl)ccc2n1

>  <score_type>  (68) 
oracle

>  <origin>  (68) 
autodockgpu

>  <m_score__min__energy>  (68) 
-8.8399999999999999

>  <m_primary>  (68) 
energy

>  <rmsd>  (68) 
2.2352368536841047

>  <m_score__min__rmsd>  (68) 
2.2352368536841047

>  <meeko>  (68) 
{"free_energy": -8.05, "intermolecular_energy": -9.54, "internal_energy": -1.83, "cluster_size": 10, "cluster_id": 4, "rank_in_cluster": 5}

>  <energy>  (68) 
-7.87

>  <cluster_rmsd>  (68) 
1.25

>  <cluster>  (68) 
1

$$$$

     RDKit          3D

 54 57  0  0  0  0  0  0  0  0999 V2000
  140.4990   72.4690  220.7770 O   0  0  0  0  0  0  0  0  0  0  0  0
  140.1400   72.8430  221.9430 C   0  0  0  0  0  0  0  0  0  0  0  0
  139.7550   74.2170  222.1460 N   0  0  0  0  0  0  0  0  0  0  0  0
  139.7330   75.2040  221.1390 C   0  0  0  0  0  0  0  0  0  0  0  0
  140.9360   75.8240  220.6480 C   0  0  0  0  0  0  0  0  0  0  0  0
  142.0220   75.1390  220.8610 O   0  0  0  0  0  0  0  0  0  0  0  0
  141.1440   77.0520  219.9770 N   0  0  0  0  0  0  0  0  0  0  0  0
  140.6410   77.2880  218.6100 C   0  0  0  0  0  0  0  0  0  0  0  0
  140.4040   78.8000  218.5880 C   0  0  0  0  0  0  0  0  0  0  0  0
  141.5470   79.2670  219.4340 C   0  0  0  0  0  0  0  0  0  0  0  0
  141.8470   78.2280  220.4310 C   0  0  1  0  0  0  0  0  0  0  0  0
  141.6090   78.6270  221.8650 C   0  0  0  0  0  0  0  0  0  0  0  0
  140.1990   78.8000  222.2440 C   0  0  0  0  0  0  0  0  0  0  0  0
  139.8000   79.8250  223.2170 C   0  0  0  0  0  0  0  0  0  0  0  0
  140.9530   80.5660  223.8590 C   0  0  0  0  0  0  0  0  0  0  0  0
  141.8100   81.0160  222.6640 C   0  0  0  0  0  0  0  0  0  0  0  0
  142.5280   79.8050  222.1950 C   0  0  0  0  0  0  0  0  0  0  0  0
  140.1230   71.8840  223.0510 C   0  0  0  0  0  0  0  0  0  0  0  0
  139.5860   70.6350  222.8250 C   0  0  0  0  0  0  0  0  0  0  0  0
  139.5510   69.7090  223.8440 C   0  0  0  0  0  0  0  0  0  0  0  0
  140.0510   70.0270  225.0890 C   0  0  0  0  0  0  0  0  0  0  0  0
  140.0400   69.1380  226.1470 C   0  0  0  0  0  0  0  0  0  0  0  0
  140.5370   69.4650  227.3780 C   0  0  0  0  0  0  0  0  0  0  0  0
  140.5190   68.3200  228.7260 Cl  0  0  0  0  0  0  0  0  0  0  0  0
  141.0750   70.7370  227.5740 C   0  0  0  0  0  0  0  0  0  0  0  0
  141.0930   71.6380  226.5270 C   0  0  0  0  0  0  0  0  0  0  0  0
  140.5810   71.2890  225.2770 C   0  0  0  0  0  0  0  0  0  0  0  0
  140.6090   72.1850  224.2680 N   0  0  0  0  0  0  0  0  0  0  0  0
  139.4780   74.4340  223.1460 H   0  0  0  0  0  0  0  0  0  0  0  0
  139.2473   74.7422  220.2667 H   0  0  0  0  0  0  0  0  0  0  0  0
  139.2351   76.0416  221.6495 H   0  0  0  0  0  0  0  0  0  0  0  0
  141.3874   76.9936  217.8575 H   0  0  0  0  0  0  0  0  0  0  0  0
  139.7397   76.7039  218.3723 H   0  0  0  0  0  0  0  0  0  0  0  0
  140.4621   79.2054  217.5671 H   0  0  0  0  0  0  0  0  0  0  0  0
  139.4117   79.1139  218.9440 H   0  0  0  0  0  0  0  0  0  0  0  0
  142.4301   79.4398  218.8014 H   0  0  0  0  0  0  0  0  0  0  0  0
  141.2815   80.2075  219.9390 H   0  0  0  0  0  0  0  0  0  0  0  0
  142.9276   78.0290  220.4832 H   0  0  0  0  0  0  0  0  0  0  0  0
  141.8812   77.7814  222.5138 H   0  0  0  0  0  0  0  0  0  0  0  0
  139.6498   79.0181  221.3162 H   0  0  0  0  0  0  0  0  0  0  0  0
  139.9725   77.8621  222.7723 H   0  0  0  0  0  0  0  0  0  0  0  0
  139.1648   80.5597  222.7006 H   0  0  0  0  0  0  0  0  0  0  0  0
  139.2770   79.2980  224.0287 H   0  0  0  0  0  0  0  0  0  0  0  0
  140.5916   81.4334  224.4309 H   0  0  0  0  0  0  0  0  0  0  0  0
  141.5125   79.9451  224.5741 H   0  0  0  0  0  0  0  0  0  0  0  0
  141.1697   81.4145  221.8633 H   0  0  0  0  0  0  0  0  0  0  0  0
  142.5110   81.8142  222.9494 H   0  0  0  0  0  0  0  0  0  0  0  0
  143.0937   80.0672  221.2888 H   0  0  0  0  0  0  0  0  0  0  0  0
  143.1786   79.4804  223.0204 H   0  0  0  0  0  0  0  0  0  0  0  0
  139.1862   70.3782  221.8329 H   0  0  0  0  0  0  0  0  0  0  0  0
  139.1225   68.7120  223.6639 H   0  0  0  0  0  0  0  0  0  0  0  0
  139.6174   68.1341  225.9937 H   0  0  0  0  0  0  0  0  0  0  0  0
  141.4822   71.0207  228.5557 H   0  0  0  0  0  0  0  0  0  0  0  0
  141.5158   72.6418  226.6806 H   0  0  0  0  0  0  0  0  0  0  0  0
  1  2  2  0
  2  3  1  0
  3  4  1  0
  4  5  1  0
  5  6  2  0
  5  7  1  0
  7  8  1  0
  8  9  1  0
  9 10  1  0
 10 11  1  0
 11 12  1  0
 12 13  1  0
 13 14  1  0
 14 15  1  0
 15 16  1  0
 16 17  1  0
  2 18  1  0
 18 19  2  0
 19 20  1  0
 20 21  2  0
 21 22  1  0
 22 23  2  0
 23 24  1  0
 23 25  1  0
 25 26  2  0
 26 27  1  0
 27 28  2  0
 11  7  1  0
 17 12  1  0
 28 18  1  0
 27 21  1  0
  3 29  1  0
  4 30  1  0
  4 31  1  0
  8 32  1  0
  8 33  1  0
  9 34  1  0
  9 35  1  0
 10 36  1  0
 10 37  1  0
 11 38  1  1
 12 39  1  0
 13 40  1  0
 13 41  1  0
 14 42  1  0
 14 43  1  0
 15 44  1  0
 15 45  1  0
 16 46  1  0
 16 47  1  0
 17 48  1  0
 17 49  1  0
 19 50  1  0
 20 51  1  0
 22 52  1  0
 25 53  1  0
 26 54  1  0
M  END
>  <smiles>  (69) 
O=C(NCC(=O)N1CCCC1C1CCCCC1)c1ccc2cc(Cl)ccc2n1

>  <score_type>  (69) 
oracle

>  <origin>  (69) 
autodockgpu

>  <m_score__min__energy>  (69) 
-8.8399999999999999

>  <m_primary>  (69) 
energy

>  <rmsd>  (69) 
1.9978735664016223

>  <m_score__min__rmsd>  (69) 
1.9978735664016223

>  <meeko>  (69) 
{"free_energy": -8.23, "intermolecular_energy": -9.73, "internal_energy": -1.37, "cluster_size": 24, "cluster_id": 1, "rank_in_cluster": 10}

>  <energy>  (69) 
-7.85

>  <cluster_rmsd>  (69) 
1.42

>  <cluster>  (69) 
1

$$$$

     RDKit          3D

 54 57  0  0  0  0  0  0  0  0999 V2000
  139.6740   72.2760  220.7970 O   0  0  0  0  0  0  0  0  0  0  0  0
  139.6580   72.6720  222.0100 C   0  0  0  0  0  0  0  0  0  0  0  0
  139.4910   74.0770  222.2820 N   0  0  0  0  0  0  0  0  0  0  0  0
  139.3300   75.0740  221.2980 C   0  0  0  0  0  0  0  0  0  0  0  0
  140.3270   76.0870  221.0650 C   0  0  0  0  0  0  0  0  0  0  0  0
  140.4850   76.9250  222.0480 O   0  0  0  0  0  0  0  0  0  0  0  0
  141.1620   76.3320  219.9500 N   0  0  0  0  0  0  0  0  0  0  0  0
  141.1190   77.6080  219.2090 C   0  0  0  0  0  0  0  0  0  0  0  0
  142.5460   77.7430  218.6730 C   0  0  0  0  0  0  0  0  0  0  0  0
  142.8620   76.3100  218.3760 C   0  0  0  0  0  0  0  0  0  0  0  0
  142.1360   75.4620  219.3340 C   0  0  1  0  0  0  0  0  0  0  0  0
  143.0040   74.6700  220.2780 C   0  0  0  0  0  0  0  0  0  0  0  0
  144.4520   74.8740  220.1190 C   0  0  0  0  0  0  0  0  0  0  0  0
  145.3960   73.7720  220.3360 C   0  0  0  0  0  0  0  0  0  0  0  0
  144.7660   72.4930  220.8430 C   0  0  0  0  0  0  0  0  0  0  0  0
  143.6000   72.2480  219.8710 C   0  0  0  0  0  0  0  0  0  0  0  0
  142.5390   73.2130  220.2520 C   0  0  0  0  0  0  0  0  0  0  0  0
  139.8080   71.7060  223.1020 C   0  0  0  0  0  0  0  0  0  0  0  0
  139.4300   70.4000  222.8750 C   0  0  0  0  0  0  0  0  0  0  0  0
  139.5540   69.4650  223.8790 C   0  0  0  0  0  0  0  0  0  0  0  0
  140.0550   69.8310  225.1100 C   0  0  0  0  0  0  0  0  0  0  0  0
  140.2000   68.9360  226.1520 C   0  0  0  0  0  0  0  0  0  0  0  0
  140.6980   69.3100  227.3700 C   0  0  0  0  0  0  0  0  0  0  0  0
  140.8790   68.1570  228.6980 Cl  0  0  0  0  0  0  0  0  0  0  0  0
  141.0730   70.6390  227.5670 C   0  0  0  0  0  0  0  0  0  0  0  0
  140.9340   71.5460  226.5350 C   0  0  0  0  0  0  0  0  0  0  0  0
  140.4240   71.1490  225.2990 C   0  0  0  0  0  0  0  0  0  0  0  0
  140.2970   72.0530  224.3050 N   0  0  0  0  0  0  0  0  0  0  0  0
  139.4950   74.3100  223.3160 H   0  0  0  0  0  0  0  0  0  0  0  0
  139.2002   74.5448  220.3424 H   0  0  0  0  0  0  0  0  0  0  0  0
  138.4936   75.6631  221.7022 H   0  0  0  0  0  0  0  0  0  0  0  0
  140.3902   77.5631  218.3863 H   0  0  0  0  0  0  0  0  0  0  0  0
  140.8071   78.4601  219.8308 H   0  0  0  0  0  0  0  0  0  0  0  0
  142.5820   78.3634  217.7654 H   0  0  0  0  0  0  0  0  0  0  0  0
  143.2496   78.2347  219.3608 H   0  0  0  0  0  0  0  0  0  0  0  0
  142.5463   76.0655  217.3510 H   0  0  0  0  0  0  0  0  0  0  0  0
  143.9446   76.1371  218.4657 H   0  0  0  0  0  0  0  0  0  0  0  0
  141.6325   74.6288  218.8219 H   0  0  0  0  0  0  0  0  0  0  0  0
  142.8623   75.0608  221.2964 H   0  0  0  0  0  0  0  0  0  0  0  0
  144.6080   75.2216  219.0871 H   0  0  0  0  0  0  0  0  0  0  0  0
  144.6919   75.5651  220.9405 H   0  0  0  0  0  0  0  0  0  0  0  0
  145.8939   73.5535  219.3798 H   0  0  0  0  0  0  0  0  0  0  0  0
  146.0924   74.1078  221.1185 H   0  0  0  0  0  0  0  0  0  0  0  0
  145.4855   71.6616  220.8093 H   0  0  0  0  0  0  0  0  0  0  0  0
  144.4383   72.5664  221.8905 H   0  0  0  0  0  0  0  0  0  0  0  0
  143.9231   72.4249  218.8345 H   0  0  0  0  0  0  0  0  0  0  0  0
  143.2396   71.2103  219.9281 H   0  0  0  0  0  0  0  0  0  0  0  0
  141.7155   73.1255  219.5280 H   0  0  0  0  0  0  0  0  0  0  0  0
  142.2304   72.9589  221.2768 H   0  0  0  0  0  0  0  0  0  0  0  0
  139.0300   70.1049  221.8937 H   0  0  0  0  0  0  0  0  0  0  0  0
  139.2522   68.4228  223.6978 H   0  0  0  0  0  0  0  0  0  0  0  0
  139.9052   67.8876  225.9973 H   0  0  0  0  0  0  0  0  0  0  0  0
  141.4767   70.9624  228.5378 H   0  0  0  0  0  0  0  0  0  0  0  0
  141.2291   72.5943  226.6896 H   0  0  0  0  0  0  0  0  0  0  0  0
  1  2  2  0
  2  3  1  0
  3  4  1  0
  4  5  1  0
  5  6  2  0
  5  7  1  0
  7  8  1  0
  8  9  1  0
  9 10  1  0
 10 11  1  0
 11 12  1  0
 12 13  1  0
 13 14  1  0
 14 15  1  0
 15 16  1  0
 16 17  1  0
  2 18  1  0
 18 19  2  0
 19 20  1  0
 20 21  2  0
 21 22  1  0
 22 23  2  0
 23 24  1  0
 23 25  1  0
 25 26  2  0
 26 27  1  0
 27 28  2  0
 11  7  1  0
 17 12  1  0
 28 18  1  0
 27 21  1  0
  3 29  1  0
  4 30  1  0
  4 31  1  0
  8 32  1  0
  8 33  1  0
  9 34  1  0
  9 35  1  0
 10 36  1  0
 10 37  1  0
 11 38  1  6
 12 39  1  0
 13 40  1  0
 13 41  1  0
 14 42  1  0
 14 43  1  0
 15 44  1  0
 15 45  1  0
 16 46  1  0
 16 47  1  0
 17 48  1  0
 17 49  1  0
 19 50  1  0
 20 51  1  0
 22 52  1  0
 25 53  1  0
 26 54  1  0
M  END
>  <smiles>  (70) 
O=C(NCC(=O)N1CCCC1C1CCCCC1)c1ccc2cc(Cl)ccc2n1

>  <score_type>  (70) 
oracle

>  <origin>  (70) 
autodockgpu

>  <m_score__min__energy>  (70) 
-8.8399999999999999

>  <m_primary>  (70) 
energy

>  <rmsd>  (70) 
2.05783221881334

>  <m_score__min__rmsd>  (70) 
2.05783221881334

>  <meeko>  (70) 
{"free_energy": -8.08, "intermolecular_energy": -9.57, "internal_energy": -1.89, "cluster_size": 10, "cluster_id": 4, "rank_in_cluster": 4}

>  <energy>  (70) 
-7.83

>  <cluster_rmsd>  (70) 
1.43

>  <cluster>  (70) 
1

$$$$

     RDKit          3D

 54 57  0  0  0  0  0  0  0  0999 V2000
  139.1210   72.6450  220.7060 O   0  0  0  0  0  0  0  0  0  0  0  0
  140.0360   72.7100  221.5930 C   0  0  0  0  0  0  0  0  0  0  0  0
  141.1190   73.6440  221.4110 N   0  0  0  0  0  0  0  0  0  0  0  0
  141.2500   74.5190  220.3130 C   0  0  0  0  0  0  0  0  0  0  0  0
  140.7420   75.8670  220.3440 C   0  0  0  0  0  0  0  0  0  0  0  0
  141.2850   76.6680  219.4750 O   0  0  0  0  0  0  0  0  0  0  0  0
  139.7570   76.4720  221.1600 N   0  0  0  0  0  0  0  0  0  0  0  0
  138.5160   75.7660  221.5370 C   0  0  0  0  0  0  0  0  0  0  0  0
  138.1690   76.3850  222.8940 C   0  0  0  0  0  0  0  0  0  0  0  0
  138.6020   77.7990  222.6660 C   0  0  0  0  0  0  0  0  0  0  0  0
  139.7380   77.7970  221.7310 C   0  0  1  0  0  0  0  0  0  0  0  0
  141.0430   78.2860  222.3050 C   0  0  0  0  0  0  0  0  0  0  0  0
  140.9330   79.0340  223.5670 C   0  0  0  0  0  0  0  0  0  0  0  0
  141.8390   80.1510  223.8620 C   0  0  0  0  0  0  0  0  0  0  0  0
  142.9330   80.3630  222.8380 C   0  0  0  0  0  0  0  0  0  0  0  0
  142.1790   80.3960  221.4980 C   0  0  0  0  0  0  0  0  0  0  0  0
  141.8260   78.9870  221.1920 C   0  0  0  0  0  0  0  0  0  0  0  0
  139.9780   71.8450  222.7740 C   0  0  0  0  0  0  0  0  0  0  0  0
  139.2880   70.6550  222.6800 C   0  0  0  0  0  0  0  0  0  0  0  0
  139.2110   69.8190  223.7720 C   0  0  0  0  0  0  0  0  0  0  0  0
  139.8220   70.1670  224.9580 C   0  0  0  0  0  0  0  0  0  0  0  0
  139.7750   69.3670  226.0830 C   0  0  0  0  0  0  0  0  0  0  0  0
  140.3840   69.7220  227.2550 C   0  0  0  0  0  0  0  0  0  0  0  0
  140.3190   68.6920  228.6900 Cl  0  0  0  0  0  0  0  0  0  0  0  0
  141.0770   70.9310  227.3170 C   0  0  0  0  0  0  0  0  0  0  0  0
  141.1320   71.7430  226.2010 C   0  0  0  0  0  0  0  0  0  0  0  0
  140.5050   71.3660  225.0130 C   0  0  0  0  0  0  0  0  0  0  0  0
  140.5720   72.1750  223.9350 N   0  0  0  0  0  0  0  0  0  0  0  0
  141.8310   73.6220  222.1960 H   0  0  0  0  0  0  0  0  0  0  0  0
  142.3284   74.6013  220.1123 H   0  0  0  0  0  0  0  0  0  0  0  0
  140.6001   74.0454  219.5625 H   0  0  0  0  0  0  0  0  0  0  0  0
  137.7178   75.9493  220.8027 H   0  0  0  0  0  0  0  0  0  0  0  0
  138.6326   74.6729  221.5753 H   0  0  0  0  0  0  0  0  0  0  0  0
  137.0918   76.3193  223.1071 H   0  0  0  0  0  0  0  0  0  0  0  0
  138.6422   75.8937  223.7569 H   0  0  0  0  0  0  0  0  0  0  0  0
  137.7700   78.3768  222.2371 H   0  0  0  0  0  0  0  0  0  0  0  0
  138.9008   78.2589  223.6195 H   0  0  0  0  0  0  0  0  0  0  0  0
  139.6020   78.5507  220.9415 H   0  0  0  0  0  0  0  0  0  0  0  0
  141.6246   77.4160  222.6439 H   0  0  0  0  0  0  0  0  0  0  0  0
  139.9117   79.4412  223.6019 H   0  0  0  0  0  0  0  0  0  0  0  0
  141.2179   78.2843  224.3199 H   0  0  0  0  0  0  0  0  0  0  0  0
  141.2404   81.0720  223.9200 H   0  0  0  0  0  0  0  0  0  0  0  0
  142.3420   79.9026  224.8082 H   0  0  0  0  0  0  0  0  0  0  0  0
  143.4577   81.3133  223.0160 H   0  0  0  0  0  0  0  0  0  0  0  0
  143.7056   79.5808  222.8725 H   0  0  0  0  0  0  0  0  0  0  0  0
  141.2689   81.0074  221.5866 H   0  0  0  0  0  0  0  0  0  0  0  0
  142.7936   80.8395  220.7008 H   0  0  0  0  0  0  0  0  0  0  0  0
  141.2144   78.9743  220.2778 H   0  0  0  0  0  0  0  0  0  0  0  0
  142.7730   78.4396  221.0754 H   0  0  0  0  0  0  0  0  0  0  0  0
  138.8001   70.3739  221.7351 H   0  0  0  0  0  0  0  0  0  0  0  0
  138.6598   68.8700  223.6976 H   0  0  0  0  0  0  0  0  0  0  0  0
  139.2297   68.4129  226.0347 H   0  0  0  0  0  0  0  0  0  0  0  0
  141.5764   71.2357  228.2485 H   0  0  0  0  0  0  0  0  0  0  0  0
  141.6763   72.6977  226.2494 H   0  0  0  0  0  0  0  0  0  0  0  0
  1  2  2  0
  2  3  1  0
  3  4  1  0
  4  5  1  0
  5  6  2  0
  5  7  1  0
  7  8  1  0
  8  9  1  0
  9 10  1  0
 10 11  1  0
 11 12  1  0
 12 13  1  0
 13 14  1  0
 14 15  1  0
 15 16  1  0
 16 17  1  0
  2 18  1  0
 18 19  2  0
 19 20  1  0
 20 21  2  0
 21 22  1  0
 22 23  2  0
 23 24  1  0
 23 25  1  0
 25 26  2  0
 26 27  1  0
 27 28  2  0
 11  7  1  0
 17 12  1  0
 28 18  1  0
 27 21  1  0
  3 29  1  0
  4 30  1  0
  4 31  1  0
  8 32  1  0
  8 33  1  0
  9 34  1  0
  9 35  1  0
 10 36  1  0
 10 37  1  0
 11 38  1  6
 12 39  1  0
 13 40  1  0
 13 41  1  0
 14 42  1  0
 14 43  1  0
 15 44  1  0
 15 45  1  0
 16 46  1  0
 16 47  1  0
 17 48  1  0
 17 49  1  0
 19 50  1  0
 20 51  1  0
 22 52  1  0
 25 53  1  0
 26 54  1  0
M  END
>  <smiles>  (71) 
O=C(NCC(=O)N1CCCC1C1CCCCC1)c1ccc2cc(Cl)ccc2n1

>  <score_type>  (71) 
oracle

>  <origin>  (71) 
autodockgpu

>  <m_score__min__energy>  (71) 
-8.8399999999999999

>  <m_primary>  (71) 
energy

>  <rmsd>  (71) 
2.991086082118654

>  <m_score__min__rmsd>  (71) 
2.991086082118654

>  <meeko>  (71) 
{"free_energy": -8.0, "intermolecular_energy": -9.49, "internal_energy": -1.65, "cluster_size": 24, "cluster_id": 1, "rank_in_cluster": 15}

>  <energy>  (71) 
-7.81

>  <cluster_rmsd>  (71) 
1.38

>  <cluster>  (71) 
1

$$$$

     RDKit          3D

 54 57  0  0  0  0  0  0  0  0999 V2000
  140.0920   72.5930  220.8520 O   0  0  0  0  0  0  0  0  0  0  0  0
  139.8690   72.9330  222.0610 C   0  0  0  0  0  0  0  0  0  0  0  0
  139.5390   74.3060  222.3500 N   0  0  0  0  0  0  0  0  0  0  0  0
  139.4300   75.3270  221.3840 C   0  0  0  0  0  0  0  0  0  0  0  0
  138.9720   76.6510  221.7180 C   0  0  0  0  0  0  0  0  0  0  0  0
  138.4830   76.7660  222.9180 O   0  0  0  0  0  0  0  0  0  0  0  0
  138.9570   77.8490  220.9660 N   0  0  0  0  0  0  0  0  0  0  0  0
  137.8740   78.1560  220.0110 C   0  0  0  0  0  0  0  0  0  0  0  0
  137.8280   79.6860  220.0250 C   0  0  0  0  0  0  0  0  0  0  0  0
  139.2830   80.0010  220.1730 C   0  0  0  0  0  0  0  0  0  0  0  0
  139.9180   78.9250  220.9510 C   0  0  1  0  0  0  0  0  0  0  0  0
  140.4670   79.3400  222.2920 C   0  0  0  0  0  0  0  0  0  0  0  0
  140.4410   80.7850  222.5620 C   0  0  0  0  0  0  0  0  0  0  0  0
  141.5060   81.4250  223.3440 C   0  0  0  0  0  0  0  0  0  0  0  0
  142.5210   80.4660  223.9280 C   0  0  0  0  0  0  0  0  0  0  0  0
  142.9430   79.6020  222.7280 C   0  0  0  0  0  0  0  0  0  0  0  0
  141.8230   78.6580  222.4890 C   0  0  0  0  0  0  0  0  0  0  0  0
  139.9500   71.9370  223.1330 C   0  0  0  0  0  0  0  0  0  0  0  0
  139.5220   70.6530  222.8650 C   0  0  0  0  0  0  0  0  0  0  0  0
  139.5810   69.6920  223.8490 C   0  0  0  0  0  0  0  0  0  0  0  0
  140.0660   70.0070  225.1010 C   0  0  0  0  0  0  0  0  0  0  0  0
  140.1470   69.0830  226.1240 C   0  0  0  0  0  0  0  0  0  0  0  0
  140.6290   69.4070  227.3630 C   0  0  0  0  0  0  0  0  0  0  0  0
  140.7270   68.2170  228.6660 Cl  0  0  0  0  0  0  0  0  0  0  0  0
  141.0550   70.7140  227.6010 C   0  0  0  0  0  0  0  0  0  0  0  0
  140.9810   71.6500  226.5880 C   0  0  0  0  0  0  0  0  0  0  0  0
  140.4860   71.3040  225.3300 C   0  0  0  0  0  0  0  0  0  0  0  0
  140.4220   72.2350  224.3560 N   0  0  0  0  0  0  0  0  0  0  0  0
  139.3770   74.4930  223.3800 H   0  0  0  0  0  0  0  0  0  0  0  0
  140.4338   75.4491  220.9511 H   0  0  0  0  0  0  0  0  0  0  0  0
  138.6134   74.9551  220.7477 H   0  0  0  0  0  0  0  0  0  0  0  0
  138.1130   77.7766  219.0065 H   0  0  0  0  0  0  0  0  0  0  0  0
  136.9141   77.6904  220.2790 H   0  0  0  0  0  0  0  0  0  0  0  0
  137.4187   80.0886  219.0867 H   0  0  0  0  0  0  0  0  0  0  0  0
  137.1837   80.1182  220.8048 H   0  0  0  0  0  0  0  0  0  0  0  0
  139.7512   80.0665  219.1798 H   0  0  0  0  0  0  0  0  0  0  0  0
  139.4091   80.9639  220.6896 H   0  0  0  0  0  0  0  0  0  0  0  0
  140.8534   78.5926  220.4771 H   0  0  0  0  0  0  0  0  0  0  0  0
  139.7824   78.9843  223.0761 H   0  0  0  0  0  0  0  0  0  0  0  0
  140.4267   81.2864  221.5830 H   0  0  0  0  0  0  0  0  0  0  0  0
  139.5616   80.8947  223.2136 H   0  0  0  0  0  0  0  0  0  0  0  0
  142.0376   82.1297  222.6877 H   0  0  0  0  0  0  0  0  0  0  0  0
  141.0147   81.9168  224.1965 H   0  0  0  0  0  0  0  0  0  0  0  0
  143.3828   81.0111  224.3406 H   0  0  0  0  0  0  0  0  0  0  0  0
  142.1144   79.8704  224.7586 H   0  0  0  0  0  0  0  0  0  0  0  0
  143.1068   80.2327  221.8418 H   0  0  0  0  0  0  0  0  0  0  0  0
  143.8840   79.0683  222.9272 H   0  0  0  0  0  0  0  0  0  0  0  0
  142.0505   78.0726  221.5859 H   0  0  0  0  0  0  0  0  0  0  0  0
  141.7369   78.0311  223.3888 H   0  0  0  0  0  0  0  0  0  0  0  0
  139.1346   70.3978  221.8676 H   0  0  0  0  0  0  0  0  0  0  0  0
  139.2397   68.6683  223.6357 H   0  0  0  0  0  0  0  0  0  0  0  0
  139.8129   68.0519  225.9366 H   0  0  0  0  0  0  0  0  0  0  0  0
  141.4472   70.9972  228.5889 H   0  0  0  0  0  0  0  0  0  0  0  0
  141.3164   72.6808  226.7752 H   0  0  0  0  0  0  0  0  0  0  0  0
  1  2  2  0
  2  3  1  0
  3  4  1  0
  4  5  1  0
  5  6  2  0
  5  7  1  0
  7  8  1  0
  8  9  1  0
  9 10  1  0
 10 11  1  0
 11 12  1  0
 12 13  1  0
 13 14  1  0
 14 15  1  0
 15 16  1  0
 16 17  1  0
  2 18  1  0
 18 19  2  0
 19 20  1  0
 20 21  2  0
 21 22  1  0
 22 23  2  0
 23 24  1  0
 23 25  1  0
 25 26  2  0
 26 27  1  0
 27 28  2  0
 11  7  1  0
 17 12  1  0
 28 18  1  0
 27 21  1  0
  3 29  1  0
  4 30  1  0
  4 31  1  0
  8 32  1  0
  8 33  1  0
  9 34  1  0
  9 35  1  0
 10 36  1  0
 10 37  1  0
 11 38  1  6
 12 39  1  0
 13 40  1  0
 13 41  1  0
 14 42  1  0
 14 43  1  0
 15 44  1  0
 15 45  1  0
 16 46  1  0
 16 47  1  0
 17 48  1  0
 17 49  1  0
 19 50  1  0
 20 51  1  0
 22 52  1  0
 25 53  1  0
 26 54  1  0
M  END
>  <smiles>  (72) 
O=C(NCC(=O)N1CCCC1C1CCCCC1)c1ccc2cc(Cl)ccc2n1

>  <score_type>  (72) 
oracle

>  <origin>  (72) 
autodockgpu

>  <m_score__min__energy>  (72) 
-8.8399999999999999

>  <m_primary>  (72) 
energy

>  <rmsd>  (72) 
2.524669094418488

>  <m_score__min__rmsd>  (72) 
2.524669094418488

>  <meeko>  (72) 
{"free_energy": -8.12, "intermolecular_energy": -9.61, "internal_energy": -1.59, "cluster_size": 24, "cluster_id": 1, "rank_in_cluster": 11}

>  <energy>  (72) 
-7.76

>  <cluster_rmsd>  (72) 
1.65

>  <cluster>  (72) 
1

$$$$

     RDKit          3D

 54 57  0  0  0  0  0  0  0  0999 V2000
  133.6420   69.3340  226.4610 O   0  0  0  0  0  0  0  0  0  0  0  0
  134.2020   70.4210  226.0950 C   0  0  0  0  0  0  0  0  0  0  0  0
  135.4080   70.3550  225.3090 N   0  0  0  0  0  0  0  0  0  0  0  0
  136.0320   69.1610  224.8930 C   0  0  0  0  0  0  0  0  0  0  0  0
  137.0190   69.1390  223.8450 C   0  0  0  0  0  0  0  0  0  0  0  0
  136.7660   68.3020  222.8820 O   0  0  0  0  0  0  0  0  0  0  0  0
  138.2210   69.8680  223.6830 N   0  0  0  0  0  0  0  0  0  0  0  0
  138.3590   70.9280  222.6650 C   0  0  0  0  0  0  0  0  0  0  0  0
  139.3870   71.8740  223.2910 C   0  0  0  0  0  0  0  0  0  0  0  0
  140.2790   70.8890  223.9790 C   0  0  0  0  0  0  0  0  0  0  0  0
  139.4680   69.7340  224.3960 C   0  0  1  0  0  0  0  0  0  0  0  0
  139.3590   69.5300  225.8860 C   0  0  0  0  0  0  0  0  0  0  0  0
  140.1280   70.4770  226.7070 C   0  0  0  0  0  0  0  0  0  0  0  0
  140.7450   70.0500  227.9690 C   0  0  0  0  0  0  0  0  0  0  0  0
  140.4160   68.6330  228.3840 C   0  0  0  0  0  0  0  0  0  0  0  0
  140.7230   67.8020  227.1270 C   0  0  0  0  0  0  0  0  0  0  0  0
  139.6000   68.0500  226.1880 C   0  0  0  0  0  0  0  0  0  0  0  0
  133.6190   71.7120  226.4730 C   0  0  0  0  0  0  0  0  0  0  0  0
  132.4580   71.7120  227.2170 C   0  0  0  0  0  0  0  0  0  0  0  0
  131.8810   72.9060  227.5880 C   0  0  0  0  0  0  0  0  0  0  0  0
  132.4600   74.1020  227.2180 C   0  0  0  0  0  0  0  0  0  0  0  0
  131.9240   75.3280  227.5610 C   0  0  0  0  0  0  0  0  0  0  0  0
  132.5060   76.5080  227.1880 C   0  0  0  0  0  0  0  0  0  0  0  0
  131.8120   78.0720  227.6310 Cl  0  0  0  0  0  0  0  0  0  0  0  0
  133.6810   76.4740  226.4370 C   0  0  0  0  0  0  0  0  0  0  0  0
  134.2300   75.2560  226.0850 C   0  0  0  0  0  0  0  0  0  0  0  0
  133.6230   74.0610  226.4730 C   0  0  0  0  0  0  0  0  0  0  0  0
  134.1770   72.8820  226.1180 N   0  0  0  0  0  0  0  0  0  0  0  0
  135.8000   71.3070  225.0580 H   0  0  0  0  0  0  0  0  0  0  0  0
  136.5212   68.7428  225.7850 H   0  0  0  0  0  0  0  0  0  0  0  0
  135.1964   68.6126  224.4336 H   0  0  0  0  0  0  0  0  0  0  0  0
  138.7277   70.5170  221.7136 H   0  0  0  0  0  0  0  0  0  0  0  0
  137.4068   71.4220  222.4214 H   0  0  0  0  0  0  0  0  0  0  0  0
  139.9297   72.4481  222.5256 H   0  0  0  0  0  0  0  0  0  0  0  0
  138.9600   72.6445  223.9498 H   0  0  0  0  0  0  0  0  0  0  0  0
  141.0682   70.5578  223.2880 H   0  0  0  0  0  0  0  0  0  0  0  0
  140.7482   71.3560  224.8575 H   0  0  0  0  0  0  0  0  0  0  0  0
  139.9596   68.7873  224.1275 H   0  0  0  0  0  0  0  0  0  0  0  0
  138.3367   69.7856  226.2016 H   0  0  0  0  0  0  0  0  0  0  0  0
  140.9429   70.8534  226.0712 H   0  0  0  0  0  0  0  0  0  0  0  0
  139.3599   71.1904  227.0402 H   0  0  0  0  0  0  0  0  0  0  0  0
  141.8367   70.1312  227.8617 H   0  0  0  0  0  0  0  0  0  0  0  0
  140.3380   70.7063  228.7523 H   0  0  0  0  0  0  0  0  0  0  0  0
  141.0466   68.3153  229.2275 H   0  0  0  0  0  0  0  0  0  0  0  0
  139.3763   68.5201  228.7251 H   0  0  0  0  0  0  0  0  0  0  0  0
  141.6744   68.1244  226.6787 H   0  0  0  0  0  0  0  0  0  0  0  0
  140.8204   66.7325  227.3650 H   0  0  0  0  0  0  0  0  0  0  0  0
  139.8201   67.5349  225.2413 H   0  0  0  0  0  0  0  0  0  0  0  0
  138.6886   67.6710  226.6735 H   0  0  0  0  0  0  0  0  0  0  0  0
  131.9936   70.7600  227.5136 H   0  0  0  0  0  0  0  0  0  0  0  0
  130.9549   72.9060  228.1816 H   0  0  0  0  0  0  0  0  0  0  0  0
  130.9980   75.3561  228.1541 H   0  0  0  0  0  0  0  0  0  0  0  0
  134.1673   77.4107  226.1271 H   0  0  0  0  0  0  0  0  0  0  0  0
  135.1561   75.2280  225.4921 H   0  0  0  0  0  0  0  0  0  0  0  0
  1  2  2  0
  2  3  1  0
  3  4  1  0
  4  5  1  0
  5  6  2  0
  5  7  1  0
  7  8  1  0
  8  9  1  0
  9 10  1  0
 10 11  1  0
 11 12  1  0
 12 13  1  0
 13 14  1  0
 14 15  1  0
 15 16  1  0
 16 17  1  0
  2 18  1  0
 18 19  2  0
 19 20  1  0
 20 21  2  0
 21 22  1  0
 22 23  2  0
 23 24  1  0
 23 25  1  0
 25 26  2  0
 26 27  1  0
 27 28  2  0
 11  7  1  0
 17 12  1  0
 28 18  1  0
 27 21  1  0
  3 29  1  0
  4 30  1  0
  4 31  1  0
  8 32  1  0
  8 33  1  0
  9 34  1  0
  9 35  1  0
 10 36  1  0
 10 37  1  0
 11 38  1  6
 12 39  1  0
 13 40  1  0
 13 41  1  0
 14 42  1  0
 14 43  1  0
 15 44  1  0
 15 45  1  0
 16 46  1  0
 16 47  1  0
 17 48  1  0
 17 49  1  0
 19 50  1  0
 20 51  1  0
 22 52  1  0
 25 53  1  0
 26 54  1  0
M  END
>  <smiles>  (73) 
O=C(NCC(=O)N1CCCC1C1CCCCC1)c1ccc2cc(Cl)ccc2n1

>  <score_type>  (73) 
oracle

>  <origin>  (73) 
autodockgpu

>  <m_score__min__energy>  (73) 
-8.8399999999999999

>  <m_primary>  (73) 
energy

>  <rmsd>  (73) 
7.969695917596686

>  <m_score__min__rmsd>  (73) 
7.969695917596686

>  <meeko>  (73) 
{"free_energy": -8.5, "intermolecular_energy": -9.99, "internal_energy": -1.57, "cluster_size": 10, "cluster_id": 2, "rank_in_cluster": 4}

>  <energy>  (73) 
-7.76

>  <cluster_rmsd>  (73) 
1.44

>  <cluster>  (73) 
1

$$$$

     RDKit          3D

 54 57  0  0  0  0  0  0  0  0999 V2000
  138.7680   71.6100  220.6760 O   0  0  0  0  0  0  0  0  0  0  0  0
  138.7840   72.1050  221.8520 C   0  0  0  0  0  0  0  0  0  0  0  0
  138.4500   73.4960  222.0280 N   0  0  0  0  0  0  0  0  0  0  0  0
  138.0910   74.3750  220.9860 C   0  0  0  0  0  0  0  0  0  0  0  0
  139.0460   74.8430  220.0160 C   0  0  0  0  0  0  0  0  0  0  0  0
  138.5230   75.2540  218.8980 O   0  0  0  0  0  0  0  0  0  0  0  0
  140.4580   74.9290  220.0660 N   0  0  0  0  0  0  0  0  0  0  0  0
  141.3190   74.1290  219.1720 C   0  0  0  0  0  0  0  0  0  0  0  0
  142.5630   75.0080  219.0180 C   0  0  0  0  0  0  0  0  0  0  0  0
  142.6510   75.5980  220.3900 C   0  0  0  0  0  0  0  0  0  0  0  0
  141.2900   75.7260  220.9340 C   0  0  1  0  0  0  0  0  0  0  0  0
  140.8260   77.1400  221.1780 C   0  0  0  0  0  0  0  0  0  0  0  0
  141.5830   78.1810  220.4660 C   0  0  0  0  0  0  0  0  0  0  0  0
  141.8150   79.4940  221.0780 C   0  0  0  0  0  0  0  0  0  0  0  0
  141.1180   79.7040  222.4040 C   0  0  0  0  0  0  0  0  0  0  0  0
  141.5050   78.4610  223.2230 C   0  0  0  0  0  0  0  0  0  0  0  0
  140.6850   77.3460  222.6870 C   0  0  0  0  0  0  0  0  0  0  0  0
  139.1360   71.2630  222.9990 C   0  0  0  0  0  0  0  0  0  0  0  0
  138.8440   69.9180  222.9360 C   0  0  0  0  0  0  0  0  0  0  0  0
  139.1590   69.0980  223.9970 C   0  0  0  0  0  0  0  0  0  0  0  0
  139.7650   69.6170  225.1210 C   0  0  0  0  0  0  0  0  0  0  0  0
  140.1010   68.8410  226.2130 C   0  0  0  0  0  0  0  0  0  0  0  0
  140.7010   69.3670  227.3240 C   0  0  0  0  0  0  0  0  0  0  0  0
  141.1270   68.3660  228.7170 Cl  0  0  0  0  0  0  0  0  0  0  0  0
  140.9850   70.7330  227.3560 C   0  0  0  0  0  0  0  0  0  0  0  0
  140.6550   71.5230  226.2720 C   0  0  0  0  0  0  0  0  0  0  0  0
  140.0420   70.9710  225.1460 C   0  0  0  0  0  0  0  0  0  0  0  0
  139.7280   71.7610  224.0990 N   0  0  0  0  0  0  0  0  0  0  0  0
  138.4960   73.8160  223.0380 H   0  0  0  0  0  0  0  0  0  0  0  0
  137.2976   73.8687  220.4166 H   0  0  0  0  0  0  0  0  0  0  0  0
  137.8517   75.2972  221.5359 H   0  0  0  0  0  0  0  0  0  0  0  0
  141.5726   73.1610  219.6288 H   0  0  0  0  0  0  0  0  0  0  0  0
  140.8396   73.8831  218.2130 H   0  0  0  0  0  0  0  0  0  0  0  0
  143.4544   74.4112  218.7746 H   0  0  0  0  0  0  0  0  0  0  0  0
  142.5051   75.7460  218.2044 H   0  0  0  0  0  0  0  0  0  0  0  0
  143.2490   74.9407  221.0384 H   0  0  0  0  0  0  0  0  0  0  0  0
  143.1318   76.5863  220.3440 H   0  0  0  0  0  0  0  0  0  0  0  0
  141.2383   75.3463  221.9651 H   0  0  0  0  0  0  0  0  0  0  0  0
  139.8361   77.2691  220.7160 H   0  0  0  0  0  0  0  0  0  0  0  0
  142.5744   77.7558  220.2509 H   0  0  0  0  0  0  0  0  0  0  0  0
  140.9269   78.4209  219.6163 H   0  0  0  0  0  0  0  0  0  0  0  0
  142.8971   79.6118  221.2370 H   0  0  0  0  0  0  0  0  0  0  0  0
  141.3965   80.2387  220.3850 H   0  0  0  0  0  0  0  0  0  0  0  0
  141.4749   80.6223  222.8932 H   0  0  0  0  0  0  0  0  0  0  0  0
  140.0294   79.8218  222.2984 H   0  0  0  0  0  0  0  0  0  0  0  0
  142.5758   78.2410  223.1008 H   0  0  0  0  0  0  0  0  0  0  0  0
  141.3239   78.6140  224.2972 H   0  0  0  0  0  0  0  0  0  0  0  0
  140.9900   76.4180  223.1928 H   0  0  0  0  0  0  0  0  0  0  0  0
  139.6328   77.6051  222.8760 H   0  0  0  0  0  0  0  0  0  0  0  0
  138.3605   69.5001  222.0407 H   0  0  0  0  0  0  0  0  0  0  0  0
  138.9259   68.0241  223.9471 H   0  0  0  0  0  0  0  0  0  0  0  0
  139.8787   67.7640  226.1884 H   0  0  0  0  0  0  0  0  0  0  0  0
  141.4684   71.1776  228.2385 H   0  0  0  0  0  0  0  0  0  0  0  0
  140.8779   72.5999  226.2964 H   0  0  0  0  0  0  0  0  0  0  0  0
  1  2  2  0
  2  3  1  0
  3  4  1  0
  4  5  1  0
  5  6  2  0
  5  7  1  0
  7  8  1  0
  8  9  1  0
  9 10  1  0
 10 11  1  0
 11 12  1  0
 12 13  1  0
 13 14  1  0
 14 15  1  0
 15 16  1  0
 16 17  1  0
  2 18  1  0
 18 19  2  0
 19 20  1  0
 20 21  2  0
 21 22  1  0
 22 23  2  0
 23 24  1  0
 23 25  1  0
 25 26  2  0
 26 27  1  0
 27 28  2  0
 11  7  1  0
 17 12  1  0
 28 18  1  0
 27 21  1  0
  3 29  1  0
  4 30  1  0
  4 31  1  0
  8 32  1  0
  8 33  1  0
  9 34  1  0
  9 35  1  0
 10 36  1  0
 10 37  1  0
 11 38  1  1
 12 39  1  0
 13 40  1  0
 13 41  1  0
 14 42  1  0
 14 43  1  0
 15 44  1  0
 15 45  1  0
 16 46  1  0
 16 47  1  0
 17 48  1  0
 17 49  1  0
 19 50  1  0
 20 51  1  0
 22 52  1  0
 25 53  1  0
 26 54  1  0
M  END
>  <smiles>  (74) 
O=C(NCC(=O)N1CCCC1C1CCCCC1)c1ccc2cc(Cl)ccc2n1

>  <score_type>  (74) 
oracle

>  <origin>  (74) 
autodockgpu

>  <m_score__min__energy>  (74) 
-8.8399999999999999

>  <m_primary>  (74) 
energy

>  <rmsd>  (74) 
1.865271416123774

>  <m_score__min__rmsd>  (74) 
1.865271416123774

>  <meeko>  (74) 
{"free_energy": -7.45, "intermolecular_energy": -8.94, "internal_energy": -1.64, "cluster_size": 24, "cluster_id": 1, "rank_in_cluster": 24}

>  <energy>  (74) 
-7.45

>  <cluster_rmsd>  (74) 
1.53

>  <cluster>  (74) 
1

$$$$

     RDKit          3D

 54 57  0  0  0  0  0  0  0  0999 V2000
  139.2070   72.9240  220.6090 O   0  0  0  0  0  0  0  0  0  0  0  0
  140.0640   72.9590  221.5530 C   0  0  0  0  0  0  0  0  0  0  0  0
  141.1530   73.9000  221.4720 N   0  0  0  0  0  0  0  0  0  0  0  0
  141.3500   74.8130  220.4160 C   0  0  0  0  0  0  0  0  0  0  0  0
  140.4580   75.9180  220.1820 C   0  0  0  0  0  0  0  0  0  0  0  0
  140.4480   76.3550  218.9570 O   0  0  0  0  0  0  0  0  0  0  0  0
  139.5920   76.6160  221.0570 N   0  0  0  0  0  0  0  0  0  0  0  0
  138.3600   76.0020  221.5890 C   0  0  0  0  0  0  0  0  0  0  0  0
  138.1820   76.7020  222.9380 C   0  0  0  0  0  0  0  0  0  0  0  0
  138.6650   78.0770  222.5970 C   0  0  0  0  0  0  0  0  0  0  0  0
  139.7010   77.9650  221.5580 C   0  0  1  0  0  0  0  0  0  0  0  0
  141.0800   78.4050  221.9770 C   0  0  0  0  0  0  0  0  0  0  0  0
  141.2470   78.6650  223.4140 C   0  0  0  0  0  0  0  0  0  0  0  0
  142.1400   79.7290  223.8890 C   0  0  0  0  0  0  0  0  0  0  0  0
  142.9350   80.4170  222.8000 C   0  0  0  0  0  0  0  0  0  0  0  0
  141.8730   80.7950  221.7540 C   0  0  0  0  0  0  0  0  0  0  0  0
  141.5270   79.5360  221.0480 C   0  0  0  0  0  0  0  0  0  0  0  0
  139.9340   72.0550  222.6990 C   0  0  0  0  0  0  0  0  0  0  0  0
  139.0820   70.9770  222.5870 C   0  0  0  0  0  0  0  0  0  0  0  0
  138.9340   70.1070  223.6450 C   0  0  0  0  0  0  0  0  0  0  0  0
  139.6340   70.3110  224.8150 C   0  0  0  0  0  0  0  0  0  0  0  0
  139.5220   69.4720  225.9070 C   0  0  0  0  0  0  0  0  0  0  0  0
  140.2200   69.6840  227.0630 C   0  0  0  0  0  0  0  0  0  0  0  0
  140.0700   68.6040  228.4550 Cl  0  0  0  0  0  0  0  0  0  0  0  0
  141.0760   70.7830  227.1440 C   0  0  0  0  0  0  0  0  0  0  0  0
  141.1980   71.6320  226.0620 C   0  0  0  0  0  0  0  0  0  0  0  0
  140.4780   71.4020  224.8890 C   0  0  0  0  0  0  0  0  0  0  0  0
  140.6140   72.2450  223.8440 N   0  0  0  0  0  0  0  0  0  0  0  0
  141.8140   73.8530  222.2990 H   0  0  0  0  0  0  0  0  0  0  0  0
  142.3472   75.2508  220.5706 H   0  0  0  0  0  0  0  0  0  0  0  0
  141.1712   74.1831  219.5321 H   0  0  0  0  0  0  0  0  0  0  0  0
  137.5035   76.1962  220.9267 H   0  0  0  0  0  0  0  0  0  0  0  0
  138.4227   74.9070  221.6735 H   0  0  0  0  0  0  0  0  0  0  0  0
  137.1291   76.7087  223.2564 H   0  0  0  0  0  0  0  0  0  0  0  0
  138.7114   76.2246  223.7758 H   0  0  0  0  0  0  0  0  0  0  0  0
  137.8267   78.6819  222.2211 H   0  0  0  0  0  0  0  0  0  0  0  0
  139.0807   78.5627  223.4922 H   0  0  0  0  0  0  0  0  0  0  0  0
  139.5283   78.6871  220.7463 H   0  0  0  0  0  0  0  0  0  0  0  0
  141.7711   77.5585  221.8514 H   0  0  0  0  0  0  0  0  0  0  0  0
  140.2466   78.8962  223.8088 H   0  0  0  0  0  0  0  0  0  0  0  0
  141.7466   77.7518  223.7696 H   0  0  0  0  0  0  0  0  0  0  0  0
  141.5286   80.4879  224.3991 H   0  0  0  0  0  0  0  0  0  0  0  0
  142.8728   79.2477  224.5534 H   0  0  0  0  0  0  0  0  0  0  0  0
  143.4382   81.3142  223.1895 H   0  0  0  0  0  0  0  0  0  0  0  0
  143.7310   79.7799  222.3871 H   0  0  0  0  0  0  0  0  0  0  0  0
  140.9832   81.2136  222.2469 H   0  0  0  0  0  0  0  0  0  0  0  0
  142.2488   81.5578  221.0562 H   0  0  0  0  0  0  0  0  0  0  0  0
  140.7098   79.7480  220.3429 H   0  0  0  0  0  0  0  0  0  0  0  0
  142.4420   79.1915  220.5440 H   0  0  0  0  0  0  0  0  0  0  0  0
  138.5216   70.8118  221.6550 H   0  0  0  0  0  0  0  0  0  0  0  0
  138.2548   69.2464  223.5558 H   0  0  0  0  0  0  0  0  0  0  0  0
  138.8487   68.6045  225.8440 H   0  0  0  0  0  0  0  0  0  0  0  0
  141.6496   70.9717  228.0634 H   0  0  0  0  0  0  0  0  0  0  0  0
  141.8707   72.5000  226.1254 H   0  0  0  0  0  0  0  0  0  0  0  0
  1  2  2  0
  2  3  1  0
  3  4  1  0
  4  5  1  0
  5  6  2  0
  5  7  1  0
  7  8  1  0
  8  9  1  0
  9 10  1  0
 10 11  1  0
 11 12  1  0
 12 13  1  0
 13 14  1  0
 14 15  1  0
 15 16  1  0
 16 17  1  0
  2 18  1  0
 18 19  2  0
 19 20  1  0
 20 21  2  0
 21 22  1  0
 22 23  2  0
 23 24  1  0
 23 25  1  0
 25 26  2  0
 26 27  1  0
 27 28  2  0
 11  7  1  0
 17 12  1  0
 28 18  1  0
 27 21  1  0
  3 29  1  0
  4 30  1  0
  4 31  1  0
  8 32  1  0
  8 33  1  0
  9 34  1  0
  9 35  1  0
 10 36  1  0
 10 37  1  0
 11 38  1  6
 12 39  1  0
 13 40  1  0
 13 41  1  0
 14 42  1  0
 14 43  1  0
 15 44  1  0
 15 45  1  0
 16 46  1  0
 16 47  1  0
 17 48  1  0
 17 49  1  0
 19 50  1  0
 20 51  1  0
 22 52  1  0
 25 53  1  0
 26 54  1  0
M  END
>  <smiles>  (75) 
O=C(NCC(=O)N1CCCC1C1CCCCC1)c1ccc2cc(Cl)ccc2n1

>  <score_type>  (75) 
oracle

>  <origin>  (75) 
autodockgpu

>  <m_score__min__energy>  (75) 
-8.8399999999999999

>  <m_primary>  (75) 
energy

>  <rmsd>  (75) 
3.107158533531178

>  <m_score__min__rmsd>  (75) 
3.107158533531178

>  <meeko>  (75) 
{"free_energy": -7.76, "intermolecular_energy": -9.25, "internal_energy": -1.76, "cluster_size": 24, "cluster_id": 1, "rank_in_cluster": 23}

>  <energy>  (75) 
-8.56

>  <cluster_rmsd>  (75) 
0.0

>  <cluster>  (75) 
2

$$$$

     RDKit          3D

 54 57  0  0  0  0  0  0  0  0999 V2000
  140.7110   73.1200  221.4010 O   0  0  0  0  0  0  0  0  0  0  0  0
  139.7490   72.9140  222.2140 C   0  0  0  0  0  0  0  0  0  0  0  0
  138.5390   73.6850  222.0720 N   0  0  0  0  0  0  0  0  0  0  0  0
  138.3210   74.6640  221.0820 C   0  0  0  0  0  0  0  0  0  0  0  0
  139.1000   75.8740  221.0180 C   0  0  0  0  0  0  0  0  0  0  0  0
  138.5250   76.9150  221.5450 O   0  0  0  0  0  0  0  0  0  0  0  0
  140.3820   76.1280  220.4760 N   0  0  0  0  0  0  0  0  0  0  0  0
  140.8240   75.5240  219.2040 C   0  0  0  0  0  0  0  0  0  0  0  0
  141.8090   76.5600  218.6560 C   0  0  0  0  0  0  0  0  0  0  0  0
  142.4430   77.0310  219.9270 C   0  0  0  0  0  0  0  0  0  0  0  0
  141.4490   76.9410  221.0080 C   0  0  1  0  0  0  0  0  0  0  0  0
  141.0370   78.2590  221.6120 C   0  0  0  0  0  0  0  0  0  0  0  0
  141.7750   79.4330  221.1220 C   0  0  0  0  0  0  0  0  0  0  0  0
  142.0770   80.5590  222.0130 C   0  0  0  0  0  0  0  0  0  0  0  0
  141.4670   80.4510  223.3940 C   0  0  0  0  0  0  0  0  0  0  0  0
  141.8720   79.0440  223.8650 C   0  0  0  0  0  0  0  0  0  0  0  0
  140.9930   78.0980  223.1330 C   0  0  0  0  0  0  0  0  0  0  0  0
  139.8810   71.9070  223.2700 C   0  0  0  0  0  0  0  0  0  0  0  0
  139.4960   70.6130  222.9920 C   0  0  0  0  0  0  0  0  0  0  0  0
  139.6050   69.6410  223.9610 C   0  0  0  0  0  0  0  0  0  0  0  0
  140.0970   69.9580  225.2100 C   0  0  0  0  0  0  0  0  0  0  0  0
  140.2260   69.0230  226.2190 C   0  0  0  0  0  0  0  0  0  0  0  0
  140.7150   69.3480  227.4550 C   0  0  0  0  0  0  0  0  0  0  0  0
  140.8760   68.1460  228.7400 Cl  0  0  0  0  0  0  0  0  0  0  0  0
  141.0980   70.6660  227.7040 C   0  0  0  0  0  0  0  0  0  0  0  0
  140.9750   71.6130  226.7060 C   0  0  0  0  0  0  0  0  0  0  0  0
  140.4740   71.2650  225.4510 C   0  0  0  0  0  0  0  0  0  0  0  0
  140.3620   72.2060  224.4900 N   0  0  0  0  0  0  0  0  0  0  0  0
  137.8010   73.4460  222.7940 H   0  0  0  0  0  0  0  0  0  0  0  0
  138.4577   74.1587  220.1145 H   0  0  0  0  0  0  0  0  0  0  0  0
  137.3250   75.0455  221.3511 H   0  0  0  0  0  0  0  0  0  0  0  0
  141.3212   74.5581  219.3765 H   0  0  0  0  0  0  0  0  0  0  0  0
  139.9942   75.3073  218.5151 H   0  0  0  0  0  0  0  0  0  0  0  0
  142.5459   76.1020  217.9798 H   0  0  0  0  0  0  0  0  0  0  0  0
  141.3491   77.3550  218.0507 H   0  0  0  0  0  0  0  0  0  0  0  0
  143.3094   76.3968  220.1663 H   0  0  0  0  0  0  0  0  0  0  0  0
  142.7833   78.0710  219.8146 H   0  0  0  0  0  0  0  0  0  0  0  0
  141.8784   76.4669  221.9029 H   0  0  0  0  0  0  0  0  0  0  0  0
  140.0246   78.5051  221.2592 H   0  0  0  0  0  0  0  0  0  0  0  0
  142.7405   79.0621  220.7476 H   0  0  0  0  0  0  0  0  0  0  0  0
  141.0742   79.8763  220.3992 H   0  0  0  0  0  0  0  0  0  0  0  0
  143.1693   80.6248  222.1246 H   0  0  0  0  0  0  0  0  0  0  0  0
  141.6363   81.4525  221.5466 H   0  0  0  0  0  0  0  0  0  0  0  0
  141.8758   81.2214  224.0643 H   0  0  0  0  0  0  0  0  0  0  0  0
  140.3773   80.6012  223.3906 H   0  0  0  0  0  0  0  0  0  0  0  0
  142.9275   78.8494  223.6239 H   0  0  0  0  0  0  0  0  0  0  0  0
  141.7608   78.9364  224.9541 H   0  0  0  0  0  0  0  0  0  0  0  0
  141.3048   77.0728  223.3817 H   0  0  0  0  0  0  0  0  0  0  0  0
  139.9610   78.3142  223.4466 H   0  0  0  0  0  0  0  0  0  0  0  0
  139.1022   70.3572  221.9973 H   0  0  0  0  0  0  0  0  0  0  0  0
  139.2987   68.6082  223.7384 H   0  0  0  0  0  0  0  0  0  0  0  0
  139.9258   67.9832  226.0223 H   0  0  0  0  0  0  0  0  0  0  0  0
  141.4958   70.9496  228.6896 H   0  0  0  0  0  0  0  0  0  0  0  0
  141.2753   72.6528  226.9027 H   0  0  0  0  0  0  0  0  0  0  0  0
  1  2  2  0
  2  3  1  0
  3  4  1  0
  4  5  1  0
  5  6  2  0
  5  7  1  0
  7  8  1  0
  8  9  1  0
  9 10  1  0
 10 11  1  0
 11 12  1  0
 12 13  1  0
 13 14  1  0
 14 15  1  0
 15 16  1  0
 16 17  1  0
  2 18  1  0
 18 19  2  0
 19 20  1  0
 20 21  2  0
 21 22  1  0
 22 23  2  0
 23 24  1  0
 23 25  1  0
 25 26  2  0
 26 27  1  0
 27 28  2  0
 11  7  1  0
 17 12  1  0
 28 18  1  0
 27 21  1  0
  3 29  1  0
  4 30  1  0
  4 31  1  0
  8 32  1  0
  8 33  1  0
  9 34  1  0
  9 35  1  0
 10 36  1  0
 10 37  1  0
 11 38  1  1
 12 39  1  0
 13 40  1  0
 13 41  1  0
 14 42  1  0
 14 43  1  0
 15 44  1  0
 15 45  1  0
 16 46  1  0
 16 47  1  0
 17 48  1  0
 17 49  1  0
 19 50  1  0
 20 51  1  0
 22 52  1  0
 25 53  1  0
 26 54  1  0
M  END
>  <smiles>  (76) 
O=C(NCC(=O)N1CCCC1C1CCCCC1)c1ccc2cc(Cl)ccc2n1

>  <score_type>  (76) 
oracle

>  <origin>  (76) 
autodockgpu

>  <m_score__min__energy>  (76) 
-8.8399999999999999

>  <m_primary>  (76) 
energy

>  <rmsd>  (76) 
1.650575208468439

>  <m_score__min__rmsd>  (76) 
1.650575208468439

>  <meeko>  (76) 
{"free_energy": -8.45, "intermolecular_energy": -9.94, "internal_energy": -1.37, "cluster_size": 24, "cluster_id": 1, "rank_in_cluster": 7}

>  <energy>  (76) 
-8.56

>  <cluster_rmsd>  (76) 
0.1

>  <cluster>  (76) 
2

$$$$

     RDKit          3D

 54 57  0  0  0  0  0  0  0  0999 V2000
  133.6770   69.4010  226.4560 O   0  0  0  0  0  0  0  0  0  0  0  0
  134.2200   70.4990  226.0990 C   0  0  0  0  0  0  0  0  0  0  0  0
  135.4380   70.4560  225.3300 N   0  0  0  0  0  0  0  0  0  0  0  0
  136.0920   69.2750  224.9220 C   0  0  0  0  0  0  0  0  0  0  0  0
  137.0220   69.2550  223.8230 C   0  0  0  0  0  0  0  0  0  0  0  0
  136.6790   68.4750  222.8400 O   0  0  0  0  0  0  0  0  0  0  0  0
  138.2480   69.9330  223.6290 N   0  0  0  0  0  0  0  0  0  0  0  0
  138.4150   70.9570  222.5790 C   0  0  0  0  0  0  0  0  0  0  0  0
  139.4830   71.8820  223.1670 C   0  0  0  0  0  0  0  0  0  0  0  0
  140.3450   70.8850  223.8770 C   0  0  0  0  0  0  0  0  0  0  0  0
  139.4970   69.7740  224.3350 C   0  0  1  0  0  0  0  0  0  0  0  0
  139.3940   69.6190  225.8310 C   0  0  0  0  0  0  0  0  0  0  0  0
  140.1680   70.5910  226.6180 C   0  0  0  0  0  0  0  0  0  0  0  0
  140.7920   70.2050  227.8900 C   0  0  0  0  0  0  0  0  0  0  0  0
  140.4630   68.8020  228.3520 C   0  0  0  0  0  0  0  0  0  0  0  0
  140.7630   67.9300  227.1210 C   0  0  0  0  0  0  0  0  0  0  0  0
  139.6370   68.1490  226.1800 C   0  0  0  0  0  0  0  0  0  0  0  0
  133.6070   71.7770  226.4680 C   0  0  0  0  0  0  0  0  0  0  0  0
  132.4330   71.7550  227.1900 C   0  0  0  0  0  0  0  0  0  0  0  0
  131.8270   72.9370  227.5520 C   0  0  0  0  0  0  0  0  0  0  0  0
  132.3910   74.1440  227.1950 C   0  0  0  0  0  0  0  0  0  0  0  0
  131.8260   75.3590  227.5300 C   0  0  0  0  0  0  0  0  0  0  0  0
  132.3930   76.5510  227.1700 C   0  0  0  0  0  0  0  0  0  0  0  0
  131.6620   78.1010  227.6030 Cl  0  0  0  0  0  0  0  0  0  0  0  0
  133.5820   76.5400  226.4410 C   0  0  0  0  0  0  0  0  0  0  0  0
  134.1600   75.3330  226.0970 C   0  0  0  0  0  0  0  0  0  0  0  0
  133.5680   74.1260  226.4720 C   0  0  0  0  0  0  0  0  0  0  0  0
  134.1500   72.9590  226.1250 N   0  0  0  0  0  0  0  0  0  0  0  0
  135.8160   71.4150  225.0840 H   0  0  0  0  0  0  0  0  0  0  0  0
  136.6461   68.9116  225.8000 H   0  0  0  0  0  0  0  0  0  0  0  0
  135.2582   68.6755  224.5279 H   0  0  0  0  0  0  0  0  0  0  0  0
  138.7587   70.5049  221.6369 H   0  0  0  0  0  0  0  0  0  0  0  0
  137.4793   71.4787  222.3296 H   0  0  0  0  0  0  0  0  0  0  0  0
  140.0391   72.4124  222.3800 H   0  0  0  0  0  0  0  0  0  0  0  0
  139.0913   72.6872  223.8059 H   0  0  0  0  0  0  0  0  0  0  0  0
  141.1149   70.5046  223.1896 H   0  0  0  0  0  0  0  0  0  0  0  0
  140.8391   71.3602  224.7373 H   0  0  0  0  0  0  0  0  0  0  0  0
  139.9517   68.8026  224.0907 H   0  0  0  0  0  0  0  0  0  0  0  0
  138.3731   69.8859  226.1416 H   0  0  0  0  0  0  0  0  0  0  0  0
  140.9796   70.9466  225.9661 H   0  0  0  0  0  0  0  0  0  0  0  0
  139.4014   71.3143  226.9329 H   0  0  0  0  0  0  0  0  0  0  0  0
  141.8832   70.2812  227.7741 H   0  0  0  0  0  0  0  0  0  0  0  0
  140.3911   70.8873  228.6540 H   0  0  0  0  0  0  0  0  0  0  0  0
  141.0971   68.5107  229.2024 H   0  0  0  0  0  0  0  0  0  0  0  0
  139.4247   68.7018  228.7012 H   0  0  0  0  0  0  0  0  0  0  0  0
  141.7128   68.2361  226.6582 H   0  0  0  0  0  0  0  0  0  0  0  0
  140.8598   66.8686  227.3932 H   0  0  0  0  0  0  0  0  0  0  0  0
  139.8530   67.6038  225.2494 H   0  0  0  0  0  0  0  0  0  0  0  0
  138.7278   67.7868  226.6821 H   0  0  0  0  0  0  0  0  0  0  0  0
  131.9808   70.7941  227.4766 H   0  0  0  0  0  0  0  0  0  0  0  0
  130.8899   72.9187  228.1278 H   0  0  0  0  0  0  0  0  0  0  0  0
  130.8887   75.3686  228.1056 H   0  0  0  0  0  0  0  0  0  0  0  0
  134.0566   77.4862  226.1418 H   0  0  0  0  0  0  0  0  0  0  0  0
  135.0972   75.3233  225.5212 H   0  0  0  0  0  0  0  0  0  0  0  0
  1  2  2  0
  2  3  1  0
  3  4  1  0
  4  5  1  0
  5  6  2  0
  5  7  1  0
  7  8  1  0
  8  9  1  0
  9 10  1  0
 10 11  1  0
 11 12  1  0
 12 13  1  0
 13 14  1  0
 14 15  1  0
 15 16  1  0
 16 17  1  0
  2 18  1  0
 18 19  2  0
 19 20  1  0
 20 21  2  0
 21 22  1  0
 22 23  2  0
 23 24  1  0
 23 25  1  0
 25 26  2  0
 26 27  1  0
 27 28  2  0
 11  7  1  0
 17 12  1  0
 28 18  1  0
 27 21  1  0
  3 29  1  0
  4 30  1  0
  4 31  1  0
  8 32  1  0
  8 33  1  0
  9 34  1  0
  9 35  1  0
 10 36  1  0
 10 37  1  0
 11 38  1  6
 12 39  1  0
 13 40  1  0
 13 41  1  0
 14 42  1  0
 14 43  1  0
 15 44  1  0
 15 45  1  0
 16 46  1  0
 16 47  1  0
 17 48  1  0
 17 49  1  0
 19 50  1  0
 20 51  1  0
 22 52  1  0
 25 53  1  0
 26 54  1  0
M  END
>  <smiles>  (77) 
O=C(NCC(=O)N1CCCC1C1CCCCC1)c1ccc2cc(Cl)ccc2n1

>  <score_type>  (77) 
oracle

>  <origin>  (77) 
autodockgpu

>  <m_score__min__energy>  (77) 
-8.8399999999999999

>  <m_primary>  (77) 
energy

>  <rmsd>  (77) 
7.9649360569890595

>  <m_score__min__rmsd>  (77) 
7.9649360569890595

>  <meeko>  (77) 
{"free_energy": -8.56, "intermolecular_energy": -10.05, "internal_energy": -1.55, "cluster_size": 10, "cluster_id": 2, "rank_in_cluster": 1}

>  <energy>  (77) 
-8.51

>  <cluster_rmsd>  (77) 
0.83

>  <cluster>  (77) 
2

$$$$

     RDKit          3D

 54 57  0  0  0  0  0  0  0  0999 V2000
  139.3090   72.0040  220.7830 O   0  0  0  0  0  0  0  0  0  0  0  0
  139.4600   72.4530  221.9680 C   0  0  0  0  0  0  0  0  0  0  0  0
  139.4340   73.8770  222.1830 N   0  0  0  0  0  0  0  0  0  0  0  0
  139.2440   74.8400  221.1710 C   0  0  0  0  0  0  0  0  0  0  0  0
  140.1610   75.9330  220.9720 C   0  0  0  0  0  0  0  0  0  0  0  0
  141.3290   75.7630  221.5180 O   0  0  0  0  0  0  0  0  0  0  0  0
  140.0090   77.1630  220.2890 N   0  0  0  0  0  0  0  0  0  0  0  0
  138.8980   77.4000  219.3480 C   0  0  0  0  0  0  0  0  0  0  0  0
  138.6780   78.9120  219.4490 C   0  0  0  0  0  0  0  0  0  0  0  0
  140.0890   79.3800  219.6240 C   0  0  0  0  0  0  0  0  0  0  0  0
  140.8430   78.3400  220.3420 C   0  0  1  0  0  0  0  0  0  0  0  0
  141.3420   78.7360  221.7080 C   0  0  0  0  0  0  0  0  0  0  0  0
  140.3170   78.7810  222.7620 C   0  0  0  0  0  0  0  0  0  0  0  0
  140.3860   79.7770  223.8380 C   0  0  0  0  0  0  0  0  0  0  0  0
  141.6340   80.6330  223.8240 C   0  0  0  0  0  0  0  0  0  0  0  0
  141.7120   81.1460  222.3760 C   0  0  0  0  0  0  0  0  0  0  0  0
  142.1910   80.0000  221.5620 C   0  0  0  0  0  0  0  0  0  0  0  0
  139.6540   71.5250  223.0860 C   0  0  0  0  0  0  0  0  0  0  0  0
  139.2750   70.2100  222.9180 C   0  0  0  0  0  0  0  0  0  0  0  0
  139.4400   69.3120  223.9480 C   0  0  0  0  0  0  0  0  0  0  0  0
  139.9840   69.7220  225.1470 C   0  0  0  0  0  0  0  0  0  0  0  0
  140.1720   68.8640  226.2130 C   0  0  0  0  0  0  0  0  0  0  0  0
  140.7120   69.2820  227.3990 C   0  0  0  0  0  0  0  0  0  0  0  0
  140.9470   68.1760  228.7580 Cl  0  0  0  0  0  0  0  0  0  0  0  0
  141.0870   70.6180  227.5360 C   0  0  0  0  0  0  0  0  0  0  0  0
  140.9060   71.4890  226.4800 C   0  0  0  0  0  0  0  0  0  0  0  0
  140.3530   71.0470  225.2770 C   0  0  0  0  0  0  0  0  0  0  0  0
  140.1850   71.9160  224.2580 N   0  0  0  0  0  0  0  0  0  0  0  0
  139.5720   74.1530  223.1970 H   0  0  0  0  0  0  0  0  0  0  0  0
  139.2153   74.2860  220.2211 H   0  0  0  0  0  0  0  0  0  0  0  0
  138.3382   75.3601  221.5160 H   0  0  0  0  0  0  0  0  0  0  0  0
  139.1775   77.1086  218.3248 H   0  0  0  0  0  0  0  0  0  0  0  0
  137.9974   76.8141  219.5840 H   0  0  0  0  0  0  0  0  0  0  0  0
  138.2255   79.3190  218.5327 H   0  0  0  0  0  0  0  0  0  0  0  0
  137.9887   79.2233  220.2477 H   0  0  0  0  0  0  0  0  0  0  0  0
  140.5460   79.5556  218.6390 H   0  0  0  0  0  0  0  0  0  0  0  0
  140.1052   80.3189  220.1968 H   0  0  0  0  0  0  0  0  0  0  0  0
  141.8100   78.1437  219.8558 H   0  0  0  0  0  0  0  0  0  0  0  0
  141.9832   77.9302  222.0947 H   0  0  0  0  0  0  0  0  0  0  0  0
  139.3528   78.9338  222.2550 H   0  0  0  0  0  0  0  0  0  0  0  0
  140.4768   77.8334  223.2972 H   0  0  0  0  0  0  0  0  0  0  0  0
  139.5135   80.4408  223.7478 H   0  0  0  0  0  0  0  0  0  0  0  0
  140.4039   79.2146  224.7832 H   0  0  0  0  0  0  0  0  0  0  0  0
  141.5428   81.4701  224.5318 H   0  0  0  0  0  0  0  0  0  0  0  0
  142.5338   80.0776  224.1272 H   0  0  0  0  0  0  0  0  0  0  0  0
  140.7192   81.4712  222.0316 H   0  0  0  0  0  0  0  0  0  0  0  0
  142.3860   82.0111  222.2904 H   0  0  0  0  0  0  0  0  0  0  0  0
  142.1849   80.3006  220.5039 H   0  0  0  0  0  0  0  0  0  0  0  0
  143.1988   79.7505  221.9253 H   0  0  0  0  0  0  0  0  0  0  0  0
  138.8416   69.8792  221.9626 H   0  0  0  0  0  0  0  0  0  0  0  0
  139.1367   68.2631  223.8142 H   0  0  0  0  0  0  0  0  0  0  0  0
  139.8779   67.8096  226.1051 H   0  0  0  0  0  0  0  0  0  0  0  0
  141.5244   70.9759  228.4797 H   0  0  0  0  0  0  0  0  0  0  0  0
  141.2010   72.5432  226.5880 H   0  0  0  0  0  0  0  0  0  0  0  0
  1  2  2  0
  2  3  1  0
  3  4  1  0
  4  5  1  0
  5  6  2  0
  5  7  1  0
  7  8  1  0
  8  9  1  0
  9 10  1  0
 10 11  1  0
 11 12  1  0
 12 13  1  0
 13 14  1  0
 14 15  1  0
 15 16  1  0
 16 17  1  0
  2 18  1  0
 18 19  2  0
 19 20  1  0
 20 21  2  0
 21 22  1  0
 22 23  2  0
 23 24  1  0
 23 25  1  0
 25 26  2  0
 26 27  1  0
 27 28  2  0
 11  7  1  0
 17 12  1  0
 28 18  1  0
 27 21  1  0
  3 29  1  0
  4 30  1  0
  4 31  1  0
  8 32  1  0
  8 33  1  0
  9 34  1  0
  9 35  1  0
 10 36  1  0
 10 37  1  0
 11 38  1  6
 12 39  1  0
 13 40  1  0
 13 41  1  0
 14 42  1  0
 14 43  1  0
 15 44  1  0
 15 45  1  0
 16 46  1  0
 16 47  1  0
 17 48  1  0
 17 49  1  0
 19 50  1  0
 20 51  1  0
 22 52  1  0
 25 53  1  0
 26 54  1  0
M  END
>  <smiles>  (78) 
O=C(NCC(=O)N1CCCC1C1CCCCC1)c1ccc2cc(Cl)ccc2n1

>  <score_type>  (78) 
oracle

>  <origin>  (78) 
autodockgpu

>  <m_score__min__energy>  (78) 
-8.8399999999999999

>  <m_primary>  (78) 
energy

>  <rmsd>  (78) 
1.8151081545579357

>  <m_score__min__rmsd>  (78) 
1.8151081545579357

>  <meeko>  (78) 
{"free_energy": -8.07, "intermolecular_energy": -9.56, "internal_energy": -1.5, "cluster_size": 24, "cluster_id": 1, "rank_in_cluster": 12}

>  <energy>  (78) 
-8.5

>  <cluster_rmsd>  (78) 
0.12

>  <cluster>  (78) 
2

$$$$

     RDKit          3D

 54 57  0  0  0  0  0  0  0  0999 V2000
  139.5880   73.6610  220.3630 O   0  0  0  0  0  0  0  0  0  0  0  0
  139.5710   73.7300  221.6380 C   0  0  0  0  0  0  0  0  0  0  0  0
  139.5750   75.0270  222.2660 N   0  0  0  0  0  0  0  0  0  0  0  0
  139.5880   76.2560  221.5760 C   0  0  0  0  0  0  0  0  0  0  0  0
  140.8110   76.8610  221.1130 C   0  0  0  0  0  0  0  0  0  0  0  0
  141.3840   77.6470  221.9770 O   0  0  0  0  0  0  0  0  0  0  0  0
  141.4950   76.7520  219.8800 N   0  0  0  0  0  0  0  0  0  0  0  0
  141.5930   77.8860  218.9400 C   0  0  0  0  0  0  0  0  0  0  0  0
  142.9190   77.6220  218.2210 C   0  0  0  0  0  0  0  0  0  0  0  0
  142.8910   76.1270  218.1400 C   0  0  0  0  0  0  0  0  0  0  0  0
  142.1670   75.6080  219.3110 C   0  0  1  0  0  0  0  0  0  0  0  0
  142.9960   74.7870  220.2660 C   0  0  0  0  0  0  0  0  0  0  0  0
  144.4520   74.9220  220.1100 C   0  0  0  0  0  0  0  0  0  0  0  0
  145.3430   73.7790  220.3420 C   0  0  0  0  0  0  0  0  0  0  0  0
  144.6520   72.5360  220.8600 C   0  0  0  0  0  0  0  0  0  0  0  0
  143.4800   72.3350  219.8860 C   0  0  0  0  0  0  0  0  0  0  0  0
  142.4630   73.3520  220.2530 C   0  0  0  0  0  0  0  0  0  0  0  0
  139.5460   72.5040  222.4400 C   0  0  0  0  0  0  0  0  0  0  0  0
  138.6900   71.4920  222.0610 C   0  0  0  0  0  0  0  0  0  0  0  0
  138.6390   70.3270  222.7930 C   0  0  0  0  0  0  0  0  0  0  0  0
  139.4410   70.1680  223.9030 C   0  0  0  0  0  0  0  0  0  0  0  0
  139.4290   69.0210  224.6730 C   0  0  0  0  0  0  0  0  0  0  0  0
  140.2290   68.8740  225.7730 C   0  0  0  0  0  0  0  0  0  0  0  0
  140.2070   67.4040  226.7540 Cl  0  0  0  0  0  0  0  0  0  0  0  0
  141.0860   69.9160  226.1290 C   0  0  0  0  0  0  0  0  0  0  0  0
  141.1090   71.0690  225.3690 C   0  0  0  0  0  0  0  0  0  0  0  0
  140.2870   71.2040  224.2500 C   0  0  0  0  0  0  0  0  0  0  0  0
  140.3260   72.3400  223.5230 N   0  0  0  0  0  0  0  0  0  0  0  0
  139.5640   74.9820  223.3250 H   0  0  0  0  0  0  0  0  0  0  0  0
  138.9582   76.1152  220.6852 H   0  0  0  0  0  0  0  0  0  0  0  0
  139.2635   76.9609  222.3556 H   0  0  0  0  0  0  0  0  0  0  0  0
  140.7518   77.8861  218.2312 H   0  0  0  0  0  0  0  0  0  0  0  0
  141.5567   78.8664  219.4374 H   0  0  0  0  0  0  0  0  0  0  0  0
  142.9385   78.0827  217.2223 H   0  0  0  0  0  0  0  0  0  0  0  0
  143.8045   78.0378  218.7240 H   0  0  0  0  0  0  0  0  0  0  0  0
  142.3776   75.8152  217.2185 H   0  0  0  0  0  0  0  0  0  0  0  0
  143.9174   75.7316  218.1266 H   0  0  0  0  0  0  0  0  0  0  0  0
  141.4333   74.8434  219.0161 H   0  0  0  0  0  0  0  0  0  0  0  0
  142.8712   75.1951  221.2798 H   0  0  0  0  0  0  0  0  0  0  0  0
  144.6272   75.2510  219.0751 H   0  0  0  0  0  0  0  0  0  0  0  0
  144.7214   75.6101  220.9248 H   0  0  0  0  0  0  0  0  0  0  0  0
  145.8332   73.5274  219.3900 H   0  0  0  0  0  0  0  0  0  0  0  0
  146.0518   74.0901  221.1235 H   0  0  0  0  0  0  0  0  0  0  0  0
  145.3321   71.6717  220.8383 H   0  0  0  0  0  0  0  0  0  0  0  0
  144.3241   72.6360  221.9052 H   0  0  0  0  0  0  0  0  0  0  0  0
  143.8147   72.4862  218.8491 H   0  0  0  0  0  0  0  0  0  0  0  0
  143.0720   71.3156  219.9520 H   0  0  0  0  0  0  0  0  0  0  0  0
  141.6390   73.2954  219.5265 H   0  0  0  0  0  0  0  0  0  0  0  0
  142.1388   73.1230  221.2789 H   0  0  0  0  0  0  0  0  0  0  0  0
  138.0490   71.6150  221.1756 H   0  0  0  0  0  0  0  0  0  0  0  0
  137.9555   69.5198  222.4909 H   0  0  0  0  0  0  0  0  0  0  0  0
  138.7541   68.1990  224.3924 H   0  0  0  0  0  0  0  0  0  0  0  0
  141.7389   69.8198  227.0090 H   0  0  0  0  0  0  0  0  0  0  0  0
  141.7839   71.8911  225.6496 H   0  0  0  0  0  0  0  0  0  0  0  0
  1  2  2  0
  2  3  1  0
  3  4  1  0
  4  5  1  0
  5  6  2  0
  5  7  1  0
  7  8  1  0
  8  9  1  0
  9 10  1  0
 10 11  1  0
 11 12  1  0
 12 13  1  0
 13 14  1  0
 14 15  1  0
 15 16  1  0
 16 17  1  0
  2 18  1  0
 18 19  2  0
 19 20  1  0
 20 21  2  0
 21 22  1  0
 22 23  2  0
 23 24  1  0
 23 25  1  0
 25 26  2  0
 26 27  1  0
 27 28  2  0
 11  7  1  0
 17 12  1  0
 28 18  1  0
 27 21  1  0
  3 29  1  0
  4 30  1  0
  4 31  1  0
  8 32  1  0
  8 33  1  0
  9 34  1  0
  9 35  1  0
 10 36  1  0
 10 37  1  0
 11 38  1  6
 12 39  1  0
 13 40  1  0
 13 41  1  0
 14 42  1  0
 14 43  1  0
 15 44  1  0
 15 45  1  0
 16 46  1  0
 16 47  1  0
 17 48  1  0
 17 49  1  0
 19 50  1  0
 20 51  1  0
 22 52  1  0
 25 53  1  0
 26 54  1  0
M  END
>  <smiles>  (79) 
O=C(NCC(=O)N1CCCC1C1CCCCC1)c1ccc2cc(Cl)ccc2n1

>  <score_type>  (79) 
oracle

>  <origin>  (79) 
autodockgpu

>  <m_score__min__energy>  (79) 
-8.8399999999999999

>  <m_primary>  (79) 
energy

>  <rmsd>  (79) 
2.7318540268972797

>  <m_score__min__rmsd>  (79) 
2.7318540268972797

>  <meeko>  (79) 
{"free_energy": -7.37, "intermolecular_energy": -8.86, "internal_energy": -1.94, "cluster_size": 10, "cluster_id": 4, "rank_in_cluster": 9}

>  <energy>  (79) 
-8.33

>  <cluster_rmsd>  (79) 
1.1

>  <cluster>  (79) 
2

$$$$

     RDKit          3D

 54 57  0  0  0  0  0  0  0  0999 V2000
  140.0410   72.2590  220.7070 O   0  0  0  0  0  0  0  0  0  0  0  0
  139.8920   72.6570  221.9110 C   0  0  0  0  0  0  0  0  0  0  0  0
  139.6460   74.0560  222.1570 N   0  0  0  0  0  0  0  0  0  0  0  0
  139.5460   75.0440  221.1560 C   0  0  0  0  0  0  0  0  0  0  0  0
  140.5850   76.0160  220.9340 C   0  0  0  0  0  0  0  0  0  0  0  0
  140.7700   76.8430  221.9210 O   0  0  0  0  0  0  0  0  0  0  0  0
  141.4380   76.2300  219.8250 N   0  0  0  0  0  0  0  0  0  0  0  0
  141.5120   77.5360  219.1400 C   0  0  0  0  0  0  0  0  0  0  0  0
  142.9450   77.5600  218.6020 C   0  0  0  0  0  0  0  0  0  0  0  0
  143.1250   76.1190  218.2420 C   0  0  0  0  0  0  0  0  0  0  0  0
  142.3250   75.3010  219.1670 C   0  0  1  0  0  0  0  0  0  0  0  0
  143.1170   74.3920  220.0710 C   0  0  0  0  0  0  0  0  0  0  0  0
  144.4540   74.8830  220.4400 C   0  0  0  0  0  0  0  0  0  0  0  0
  145.5740   73.9520  220.6210 C   0  0  0  0  0  0  0  0  0  0  0  0
  145.2010   72.4890  220.5200 C   0  0  0  0  0  0  0  0  0  0  0  0
  144.4120   72.4020  219.2030 C   0  0  0  0  0  0  0  0  0  0  0  0
  143.0740   72.9780  219.4890 C   0  0  0  0  0  0  0  0  0  0  0  0
  139.9690   71.7000  223.0170 C   0  0  0  0  0  0  0  0  0  0  0  0
  139.5290   70.4120  222.7990 C   0  0  0  0  0  0  0  0  0  0  0  0
  139.5850   69.4860  223.8170 C   0  0  0  0  0  0  0  0  0  0  0  0
  140.0790   69.8420  225.0530 C   0  0  0  0  0  0  0  0  0  0  0  0
  140.1570   68.9550  226.1100 C   0  0  0  0  0  0  0  0  0  0  0  0
  140.6480   69.3200  227.3330 C   0  0  0  0  0  0  0  0  0  0  0  0
  140.7430   68.1770  228.6790 Cl  0  0  0  0  0  0  0  0  0  0  0  0
  141.0870   70.6300  227.5210 C   0  0  0  0  0  0  0  0  0  0  0  0
  141.0160   71.5300  226.4760 C   0  0  0  0  0  0  0  0  0  0  0  0
  140.5110   71.1420  225.2340 C   0  0  0  0  0  0  0  0  0  0  0  0
  140.4510   72.0380  224.2260 N   0  0  0  0  0  0  0  0  0  0  0  0
  139.5400   74.2910  223.1850 H   0  0  0  0  0  0  0  0  0  0  0  0
  139.4197   74.5062  220.2048 H   0  0  0  0  0  0  0  0  0  0  0  0
  138.7226   75.6693  221.5315 H   0  0  0  0  0  0  0  0  0  0  0  0
  140.7807   77.5949  218.3204 H   0  0  0  0  0  0  0  0  0  0  0  0
  141.2815   78.3858  219.7994 H   0  0  0  0  0  0  0  0  0  0  0  0
  143.0375   78.2131  217.7217 H   0  0  0  0  0  0  0  0  0  0  0  0
  143.6927   77.9534  219.3064 H   0  0  0  0  0  0  0  0  0  0  0  0
  142.7858   75.9498  217.2094 H   0  0  0  0  0  0  0  0  0  0  0  0
  144.1869   75.8424  218.3178 H   0  0  0  0  0  0  0  0  0  0  0  0
  141.7455   74.5408  218.6226 H   0  0  0  0  0  0  0  0  0  0  0  0
  142.6358   74.3750  221.0600 H   0  0  0  0  0  0  0  0  0  0  0  0
  144.7571   75.5888  219.6526 H   0  0  0  0  0  0  0  0  0  0  0  0
  144.2975   75.2761  221.4554 H   0  0  0  0  0  0  0  0  0  0  0  0
  146.3275   74.1678  219.8492 H   0  0  0  0  0  0  0  0  0  0  0  0
  145.9465   74.1084  221.6441 H   0  0  0  0  0  0  0  0  0  0  0  0
  146.1005   71.8570  220.4805 H   0  0  0  0  0  0  0  0  0  0  0  0
  144.6225   72.1366  221.3867 H   0  0  0  0  0  0  0  0  0  0  0  0
  144.9171   72.9810  218.4159 H   0  0  0  0  0  0  0  0  0  0  0  0
  144.3361   71.3641  218.8465 H   0  0  0  0  0  0  0  0  0  0  0  0
  142.5022   73.0077  218.5497 H   0  0  0  0  0  0  0  0  0  0  0  0
  142.6065   72.3349  220.2492 H   0  0  0  0  0  0  0  0  0  0  0  0
  139.1338   70.1242  221.8136 H   0  0  0  0  0  0  0  0  0  0  0  0
  139.2340   68.4582  223.6426 H   0  0  0  0  0  0  0  0  0  0  0  0
  139.8126   67.9208  225.9626 H   0  0  0  0  0  0  0  0  0  0  0  0
  141.4875   70.9447  228.4959 H   0  0  0  0  0  0  0  0  0  0  0  0
  141.3612   72.5639  226.6240 H   0  0  0  0  0  0  0  0  0  0  0  0
  1  2  2  0
  2  3  1  0
  3  4  1  0
  4  5  1  0
  5  6  2  0
  5  7  1  0
  7  8  1  0
  8  9  1  0
  9 10  1  0
 10 11  1  0
 11 12  1  0
 12 13  1  0
 13 14  1  0
 14 15  1  0
 15 16  1  0
 16 17  1  0
  2 18  1  0
 18 19  2  0
 19 20  1  0
 20 21  2  0
 21 22  1  0
 22 23  2  0
 23 24  1  0
 23 25  1  0
 25 26  2  0
 26 27  1  0
 27 28  2  0
 11  7  1  0
 17 12  1  0
 28 18  1  0
 27 21  1  0
  3 29  1  0
  4 30  1  0
  4 31  1  0
  8 32  1  0
  8 33  1  0
  9 34  1  0
  9 35  1  0
 10 36  1  0
 10 37  1  0
 11 38  1  6
 12 39  1  0
 13 40  1  0
 13 41  1  0
 14 42  1  0
 14 43  1  0
 15 44  1  0
 15 45  1  0
 16 46  1  0
 16 47  1  0
 17 48  1  0
 17 49  1  0
 19 50  1  0
 20 51  1  0
 22 52  1  0
 25 53  1  0
 26 54  1  0
M  END
>  <smiles>  (80) 
O=C(NCC(=O)N1CCCC1C1CCCCC1)c1ccc2cc(Cl)ccc2n1

>  <score_type>  (80) 
oracle

>  <origin>  (80) 
autodockgpu

>  <m_score__min__energy>  (80) 
-8.8399999999999999

>  <m_primary>  (80) 
energy

>  <rmsd>  (80) 
2.197739326218974

>  <m_score__min__rmsd>  (80) 
2.197739326218974

>  <meeko>  (80) 
{"free_energy": -8.09, "intermolecular_energy": -9.58, "internal_energy": -1.81, "cluster_size": 10, "cluster_id": 4, "rank_in_cluster": 3}

>  <energy>  (80) 
-8.32

>  <cluster_rmsd>  (80) 
1.08

>  <cluster>  (80) 
2

$$$$

     RDKit          3D

 54 57  0  0  0  0  0  0  0  0999 V2000
  139.2470   72.6410  220.5670 O   0  0  0  0  0  0  0  0  0  0  0  0
  140.0940   72.7450  221.5160 C   0  0  0  0  0  0  0  0  0  0  0  0
  141.1770   73.6860  221.3850 N   0  0  0  0  0  0  0  0  0  0  0  0
  141.3800   74.5290  220.2730 C   0  0  0  0  0  0  0  0  0  0  0  0
  140.7670   75.8280  220.1750 C   0  0  0  0  0  0  0  0  0  0  0  0
  141.1750   76.5430  219.1680 O   0  0  0  0  0  0  0  0  0  0  0  0
  139.7990   76.4640  220.9870 N   0  0  0  0  0  0  0  0  0  0  0  0
  138.5490   75.7880  221.3860 C   0  0  0  0  0  0  0  0  0  0  0  0
  138.2230   76.4350  222.7340 C   0  0  0  0  0  0  0  0  0  0  0  0
  138.6800   77.8370  222.4800 C   0  0  0  0  0  0  0  0  0  0  0  0
  139.8090   77.7980  221.5370 C   0  0  1  0  0  0  0  0  0  0  0  0
  141.1270   78.2740  222.0930 C   0  0  0  0  0  0  0  0  0  0  0  0
  141.0750   78.8080  223.4630 C   0  0  0  0  0  0  0  0  0  0  0  0
  141.9420   79.9200  223.8710 C   0  0  0  0  0  0  0  0  0  0  0  0
  142.9430   80.3560  222.8220 C   0  0  0  0  0  0  0  0  0  0  0  0
  142.0890   80.5490  221.5580 C   0  0  0  0  0  0  0  0  0  0  0  0
  141.7860   79.1850  221.0560 C   0  0  0  0  0  0  0  0  0  0  0  0
  139.9570   71.9160  222.7170 C   0  0  0  0  0  0  0  0  0  0  0  0
  139.1110   70.8290  222.6690 C   0  0  0  0  0  0  0  0  0  0  0  0
  138.9570   70.0300  223.7800 C   0  0  0  0  0  0  0  0  0  0  0  0
  139.6450   70.3130  224.9400 C   0  0  0  0  0  0  0  0  0  0  0  0
  139.5270   69.5460  226.0830 C   0  0  0  0  0  0  0  0  0  0  0  0
  140.2150   69.8360  227.2290 C   0  0  0  0  0  0  0  0  0  0  0  0
  140.0570   68.8490  228.6880 Cl  0  0  0  0  0  0  0  0  0  0  0  0
  141.0650   70.9420  227.2460 C   0  0  0  0  0  0  0  0  0  0  0  0
  141.1940   71.7190  226.1110 C   0  0  0  0  0  0  0  0  0  0  0  0
  140.4850   71.4100  224.9500 C   0  0  0  0  0  0  0  0  0  0  0  0
  140.6260   72.1840  223.8530 N   0  0  0  0  0  0  0  0  0  0  0  0
  141.8290   73.6980  222.2200 H   0  0  0  0  0  0  0  0  0  0  0  0
  142.4653   74.6957  220.2078 H   0  0  0  0  0  0  0  0  0  0  0  0
  140.8732   73.9748  219.4692 H   0  0  0  0  0  0  0  0  0  0  0  0
  137.7485   75.9733  220.6546 H   0  0  0  0  0  0  0  0  0  0  0  0
  138.6469   74.6938  221.4427 H   0  0  0  0  0  0  0  0  0  0  0  0
  137.1463   76.3924  222.9553 H   0  0  0  0  0  0  0  0  0  0  0  0
  138.6933   75.9493  223.6017 H   0  0  0  0  0  0  0  0  0  0  0  0
  137.8557   78.4231  222.0475 H   0  0  0  0  0  0  0  0  0  0  0  0
  138.9939   78.3072  223.4236 H   0  0  0  0  0  0  0  0  0  0  0  0
  139.6814   78.5405  220.7355 H   0  0  0  0  0  0  0  0  0  0  0  0
  141.7773   77.4008  222.2501 H   0  0  0  0  0  0  0  0  0  0  0  0
  140.0398   79.1398  223.6310 H   0  0  0  0  0  0  0  0  0  0  0  0
  141.4545   77.9696  224.0656 H   0  0  0  0  0  0  0  0  0  0  0  0
  141.3031   80.7816  224.1148 H   0  0  0  0  0  0  0  0  0  0  0  0
  142.5272   79.5602  224.7301 H   0  0  0  0  0  0  0  0  0  0  0  0
  143.4305   81.2981  223.1132 H   0  0  0  0  0  0  0  0  0  0  0  0
  143.7548   79.6275  222.6798 H   0  0  0  0  0  0  0  0  0  0  0  0
  141.1582   81.0814  221.8033 H   0  0  0  0  0  0  0  0  0  0  0  0
  142.6181   81.1480  220.8021 H   0  0  0  0  0  0  0  0  0  0  0  0
  141.1081   79.2759  220.1945 H   0  0  0  0  0  0  0  0  0  0  0  0
  142.7478   78.7221  220.7903 H   0  0  0  0  0  0  0  0  0  0  0  0
  138.5598   70.6001  221.7450 H   0  0  0  0  0  0  0  0  0  0  0  0
  138.2820   69.1623  223.7413 H   0  0  0  0  0  0  0  0  0  0  0  0
  138.8576   68.6732  226.0710 H   0  0  0  0  0  0  0  0  0  0  0  0
  141.6285   71.1936  228.1566 H   0  0  0  0  0  0  0  0  0  0  0  0
  141.8637   72.5916  226.1229 H   0  0  0  0  0  0  0  0  0  0  0  0
  1  2  2  0
  2  3  1  0
  3  4  1  0
  4  5  1  0
  5  6  2  0
  5  7  1  0
  7  8  1  0
  8  9  1  0
  9 10  1  0
 10 11  1  0
 11 12  1  0
 12 13  1  0
 13 14  1  0
 14 15  1  0
 15 16  1  0
 16 17  1  0
  2 18  1  0
 18 19  2  0
 19 20  1  0
 20 21  2  0
 21 22  1  0
 22 23  2  0
 23 24  1  0
 23 25  1  0
 25 26  2  0
 26 27  1  0
 27 28  2  0
 11  7  1  0
 17 12  1  0
 28 18  1  0
 27 21  1  0
  3 29  1  0
  4 30  1  0
  4 31  1  0
  8 32  1  0
  8 33  1  0
  9 34  1  0
  9 35  1  0
 10 36  1  0
 10 37  1  0
 11 38  1  6
 12 39  1  0
 13 40  1  0
 13 41  1  0
 14 42  1  0
 14 43  1  0
 15 44  1  0
 15 45  1  0
 16 46  1  0
 16 47  1  0
 17 48  1  0
 17 49  1  0
 19 50  1  0
 20 51  1  0
 22 52  1  0
 25 53  1  0
 26 54  1  0
M  END
>  <smiles>  (81) 
O=C(NCC(=O)N1CCCC1C1CCCCC1)c1ccc2cc(Cl)ccc2n1

>  <score_type>  (81) 
oracle

>  <origin>  (81) 
autodockgpu

>  <m_score__min__energy>  (81) 
-8.8399999999999999

>  <m_primary>  (81) 
energy

>  <rmsd>  (81) 
2.9792617052211505

>  <m_score__min__rmsd>  (81) 
2.9792617052211505

>  <meeko>  (81) 
{"free_energy": -7.85, "intermolecular_energy": -9.34, "internal_energy": -1.74, "cluster_size": 24, "cluster_id": 1, "rank_in_cluster": 19}

>  <energy>  (81) 
-8.31

>  <cluster_rmsd>  (81) 
1.08

>  <cluster>  (81) 
2

$$$$

     RDKit          3D

 54 57  0  0  0  0  0  0  0  0999 V2000
  140.2740   72.4910  220.7410 O   0  0  0  0  0  0  0  0  0  0  0  0
  140.0100   72.8560  221.9350 C   0  0  0  0  0  0  0  0  0  0  0  0
  139.6700   74.2350  222.1840 N   0  0  0  0  0  0  0  0  0  0  0  0
  139.5950   75.2360  221.1950 C   0  0  0  0  0  0  0  0  0  0  0  0
  140.7440   76.0100  220.8010 C   0  0  0  0  0  0  0  0  0  0  0  0
  141.1560   76.8580  221.6980 O   0  0  0  0  0  0  0  0  0  0  0  0
  141.5000   76.0130  219.6050 N   0  0  0  0  0  0  0  0  0  0  0  0
  141.6300   77.2210  218.7670 C   0  0  0  0  0  0  0  0  0  0  0  0
  142.9990   77.0360  218.1080 C   0  0  0  0  0  0  0  0  0  0  0  0
  143.0050   75.5530  217.9050 C   0  0  0  0  0  0  0  0  0  0  0  0
  142.2250   74.9290  218.9860 C   0  0  1  0  0  0  0  0  0  0  0  0
  143.0130   74.0440  219.9180 C   0  0  0  0  0  0  0  0  0  0  0  0
  144.2350   74.6460  220.4720 C   0  0  0  0  0  0  0  0  0  0  0  0
  145.4280   73.8300  220.7260 C   0  0  0  0  0  0  0  0  0  0  0  0
  145.2390   72.3470  220.4890 C   0  0  0  0  0  0  0  0  0  0  0  0
  144.6160   72.2760  219.0850 C   0  0  0  0  0  0  0  0  0  0  0  0
  143.1970   72.6820  219.2470 C   0  0  0  0  0  0  0  0  0  0  0  0
  140.0530   71.8810  223.0290 C   0  0  0  0  0  0  0  0  0  0  0  0
  139.5910   70.6060  222.7850 C   0  0  0  0  0  0  0  0  0  0  0  0
  139.6140   69.6650  223.7900 C   0  0  0  0  0  0  0  0  0  0  0  0
  140.0980   69.9930  225.0390 C   0  0  0  0  0  0  0  0  0  0  0  0
  140.1430   69.0900  226.0830 C   0  0  0  0  0  0  0  0  0  0  0  0
  140.6240   69.4270  227.3180 C   0  0  0  0  0  0  0  0  0  0  0  0
  140.6780   68.2640  228.6480 Cl  0  0  0  0  0  0  0  0  0  0  0  0
  141.0860   70.7260  227.5320 C   0  0  0  0  0  0  0  0  0  0  0  0
  141.0470   71.6410  226.4980 C   0  0  0  0  0  0  0  0  0  0  0  0
  140.5530   71.2820  225.2440 C   0  0  0  0  0  0  0  0  0  0  0  0
  140.5240   72.1930  224.2490 N   0  0  0  0  0  0  0  0  0  0  0  0
  139.4720   74.4420  223.2050 H   0  0  0  0  0  0  0  0  0  0  0  0
  139.2307   74.7405  220.2830 H   0  0  0  0  0  0  0  0  0  0  0  0
  138.9634   75.9936  221.6820 H   0  0  0  0  0  0  0  0  0  0  0  0
  140.8308   77.2669  218.0125 H   0  0  0  0  0  0  0  0  0  0  0  0
  141.5468   78.1569  219.3390 H   0  0  0  0  0  0  0  0  0  0  0  0
  143.0664   77.5771  217.1526 H   0  0  0  0  0  0  0  0  0  0  0  0
  143.8461   77.4222  218.6940 H   0  0  0  0  0  0  0  0  0  0  0  0
  142.5516   75.3100  216.9327 H   0  0  0  0  0  0  0  0  0  0  0  0
  144.0380   75.1754  217.9201 H   0  0  0  0  0  0  0  0  0  0  0  0
  141.5241   74.1804  218.5880 H   0  0  0  0  0  0  0  0  0  0  0  0
  142.4316   73.9004  220.8407 H   0  0  0  0  0  0  0  0  0  0  0  0
  144.5399   75.4373  219.7714 H   0  0  0  0  0  0  0  0  0  0  0  0
  143.9229   74.9423  221.4843 H   0  0  0  0  0  0  0  0  0  0  0  0
  146.2327   74.1834  220.0645 H   0  0  0  0  0  0  0  0  0  0  0  0
  145.6646   73.9475  221.7938 H   0  0  0  0  0  0  0  0  0  0  0  0
  146.2040   71.8197  220.5166 H   0  0  0  0  0  0  0  0  0  0  0  0
  144.6122   71.8701  221.2570 H   0  0  0  0  0  0  0  0  0  0  0  0
  145.1349   72.9639  218.4012 H   0  0  0  0  0  0  0  0  0  0  0  0
  144.7002   71.2662  218.6570 H   0  0  0  0  0  0  0  0  0  0  0  0
  142.7325   72.7216  218.2506 H   0  0  0  0  0  0  0  0  0  0  0  0
  142.7255   71.9367  219.9045 H   0  0  0  0  0  0  0  0  0  0  0  0
  139.2048   70.3405  221.7898 H   0  0  0  0  0  0  0  0  0  0  0  0
  139.2447   68.6472  223.5957 H   0  0  0  0  0  0  0  0  0  0  0  0
  139.7798   68.0653  225.9155 H   0  0  0  0  0  0  0  0  0  0  0  0
  141.4784   71.0193  228.5169 H   0  0  0  0  0  0  0  0  0  0  0  0
  141.4101   72.6657  226.6656 H   0  0  0  0  0  0  0  0  0  0  0  0
  1  2  2  0
  2  3  1  0
  3  4  1  0
  4  5  1  0
  5  6  2  0
  5  7  1  0
  7  8  1  0
  8  9  1  0
  9 10  1  0
 10 11  1  0
 11 12  1  0
 12 13  1  0
 13 14  1  0
 14 15  1  0
 15 16  1  0
 16 17  1  0
  2 18  1  0
 18 19  2  0
 19 20  1  0
 20 21  2  0
 21 22  1  0
 22 23  2  0
 23 24  1  0
 23 25  1  0
 25 26  2  0
 26 27  1  0
 27 28  2  0
 11  7  1  0
 17 12  1  0
 28 18  1  0
 27 21  1  0
  3 29  1  0
  4 30  1  0
  4 31  1  0
  8 32  1  0
  8 33  1  0
  9 34  1  0
  9 35  1  0
 10 36  1  0
 10 37  1  0
 11 38  1  6
 12 39  1  0
 13 40  1  0
 13 41  1  0
 14 42  1  0
 14 43  1  0
 15 44  1  0
 15 45  1  0
 16 46  1  0
 16 47  1  0
 17 48  1  0
 17 49  1  0
 19 50  1  0
 20 51  1  0
 22 52  1  0
 25 53  1  0
 26 54  1  0
M  END
>  <smiles>  (82) 
O=C(NCC(=O)N1CCCC1C1CCCCC1)c1ccc2cc(Cl)ccc2n1

>  <score_type>  (82) 
oracle

>  <origin>  (82) 
autodockgpu

>  <m_score__min__energy>  (82) 
-8.8399999999999999

>  <m_primary>  (82) 
energy

>  <rmsd>  (82) 
2.2714630776141185

>  <m_score__min__rmsd>  (82) 
2.2714630776141185

>  <meeko>  (82) 
{"free_energy": -7.83, "intermolecular_energy": -9.32, "internal_energy": -1.87, "cluster_size": 10, "cluster_id": 4, "rank_in_cluster": 7}

>  <energy>  (82) 
-8.27

>  <cluster_rmsd>  (82) 
1.06

>  <cluster>  (82) 
2

$$$$

     RDKit          3D

 54 57  0  0  0  0  0  0  0  0999 V2000
  140.2790   72.4390  220.6810 O   0  0  0  0  0  0  0  0  0  0  0  0
  140.0390   72.8320  221.8710 C   0  0  0  0  0  0  0  0  0  0  0  0
  139.7430   74.2240  222.1000 N   0  0  0  0  0  0  0  0  0  0  0  0
  139.6870   75.2100  221.0940 C   0  0  0  0  0  0  0  0  0  0  0  0
  140.8760   75.7720  220.5060 C   0  0  0  0  0  0  0  0  0  0  0  0
  141.4170   76.7330  221.1960 O   0  0  0  0  0  0  0  0  0  0  0  0
  141.5560   75.4620  219.3050 N   0  0  0  0  0  0  0  0  0  0  0  0
  141.5360   76.3700  218.1410 C   0  0  0  0  0  0  0  0  0  0  0  0
  142.8740   76.0800  217.4560 C   0  0  0  0  0  0  0  0  0  0  0  0
  142.9890   74.6080  217.6980 C   0  0  0  0  0  0  0  0  0  0  0  0
  142.3300   74.2900  218.9740 C   0  0  1  0  0  0  0  0  0  0  0  0
  143.2420   73.7740  220.0580 C   0  0  0  0  0  0  0  0  0  0  0  0
  144.3140   74.6940  220.4670 C   0  0  0  0  0  0  0  0  0  0  0  0
  145.6320   74.1850  220.8670 C   0  0  0  0  0  0  0  0  0  0  0  0
  145.7300   72.6760  220.9360 C   0  0  0  0  0  0  0  0  0  0  0  0
  145.1710   72.2100  219.5820 C   0  0  0  0  0  0  0  0  0  0  0  0
  143.6970   72.3640  219.6720 C   0  0  0  0  0  0  0  0  0  0  0  0
  140.0640   71.8740  222.9800 C   0  0  0  0  0  0  0  0  0  0  0  0
  139.5980   70.5970  222.7530 C   0  0  0  0  0  0  0  0  0  0  0  0
  139.6050   69.6730  223.7740 C   0  0  0  0  0  0  0  0  0  0  0  0
  140.0770   70.0190  225.0210 C   0  0  0  0  0  0  0  0  0  0  0  0
  140.1060   69.1320  226.0810 C   0  0  0  0  0  0  0  0  0  0  0  0
  140.5760   69.4870  227.3150 C   0  0  0  0  0  0  0  0  0  0  0  0
  140.6090   68.3450  228.6650 Cl  0  0  0  0  0  0  0  0  0  0  0  0
  141.0430   70.7870  227.5120 C   0  0  0  0  0  0  0  0  0  0  0  0
  141.0210   71.6850  226.4640 C   0  0  0  0  0  0  0  0  0  0  0  0
  140.5380   71.3080  225.2110 C   0  0  0  0  0  0  0  0  0  0  0  0
  140.5250   72.2030  224.2000 N   0  0  0  0  0  0  0  0  0  0  0  0
  139.5630   74.4540  223.1180 H   0  0  0  0  0  0  0  0  0  0  0  0
  139.1120   74.7713  220.2652 H   0  0  0  0  0  0  0  0  0  0  0  0
  139.2709   76.0705  221.6384 H   0  0  0  0  0  0  0  0  0  0  0  0
  140.6921   76.1395  217.4741 H   0  0  0  0  0  0  0  0  0  0  0  0
  141.4105   77.4272  218.4177 H   0  0  0  0  0  0  0  0  0  0  0  0
  142.8396   76.3137  216.3817 H   0  0  0  0  0  0  0  0  0  0  0  0
  143.7201   76.6743  217.8313 H   0  0  0  0  0  0  0  0  0  0  0  0
  142.4990   74.0586  216.8807 H   0  0  0  0  0  0  0  0  0  0  0  0
  144.0485   74.3152  217.7387 H   0  0  0  0  0  0  0  0  0  0  0  0
  141.6713   73.4151  218.8709 H   0  0  0  0  0  0  0  0  0  0  0  0
  142.6716   73.7105  220.9964 H   0  0  0  0  0  0  0  0  0  0  0  0
  144.4846   75.3732  219.6187 H   0  0  0  0  0  0  0  0  0  0  0  0
  143.9240   75.1213  221.4026 H   0  0  0  0  0  0  0  0  0  0  0  0
  146.3740   74.5441  220.1387 H   0  0  0  0  0  0  0  0  0  0  0  0
  145.8135   74.5563  221.8864 H   0  0  0  0  0  0  0  0  0  0  0  0
  146.7753   72.3564  221.0593 H   0  0  0  0  0  0  0  0  0  0  0  0
  145.1821   72.2528  221.7908 H   0  0  0  0  0  0  0  0  0  0  0  0
  145.5713   72.8330  218.7686 H   0  0  0  0  0  0  0  0  0  0  0  0
  145.4546   71.1694  219.3660 H   0  0  0  0  0  0  0  0  0  0  0  0
  143.2626   72.1162  218.6923 H   0  0  0  0  0  0  0  0  0  0  0  0
  143.3540   71.6887  220.4697 H   0  0  0  0  0  0  0  0  0  0  0  0
  139.2213   70.3165  221.7583 H   0  0  0  0  0  0  0  0  0  0  0  0
  139.2320   68.6541  223.5930 H   0  0  0  0  0  0  0  0  0  0  0  0
  139.7388   68.1067  225.9266 H   0  0  0  0  0  0  0  0  0  0  0  0
  141.4263   71.0943  228.4962 H   0  0  0  0  0  0  0  0  0  0  0  0
  141.3887   72.7101  226.6188 H   0  0  0  0  0  0  0  0  0  0  0  0
  1  2  2  0
  2  3  1  0
  3  4  1  0
  4  5  1  0
  5  6  2  0
  5  7  1  0
  7  8  1  0
  8  9  1  0
  9 10  1  0
 10 11  1  0
 11 12  1  0
 12 13  1  0
 13 14  1  0
 14 15  1  0
 15 16  1  0
 16 17  1  0
  2 18  1  0
 18 19  2  0
 19 20  1  0
 20 21  2  0
 21 22  1  0
 22 23  2  0
 23 24  1  0
 23 25  1  0
 25 26  2  0
 26 27  1  0
 27 28  2  0
 11  7  1  0
 17 12  1  0
 28 18  1  0
 27 21  1  0
  3 29  1  0
  4 30  1  0
  4 31  1  0
  8 32  1  0
  8 33  1  0
  9 34  1  0
  9 35  1  0
 10 36  1  0
 10 37  1  0
 11 38  1  6
 12 39  1  0
 13 40  1  0
 13 41  1  0
 14 42  1  0
 14 43  1  0
 15 44  1  0
 15 45  1  0
 16 46  1  0
 16 47  1  0
 17 48  1  0
 17 49  1  0
 19 50  1  0
 20 51  1  0
 22 52  1  0
 25 53  1  0
 26 54  1  0
M  END
>  <smiles>  (83) 
O=C(NCC(=O)N1CCCC1C1CCCCC1)c1ccc2cc(Cl)ccc2n1

>  <score_type>  (83) 
oracle

>  <origin>  (83) 
autodockgpu

>  <m_score__min__energy>  (83) 
-8.8399999999999999

>  <m_primary>  (83) 
energy

>  <rmsd>  (83) 
2.3133713919847243

>  <m_score__min__rmsd>  (83) 
2.3133713919847243

>  <meeko>  (83) 
{"free_energy": -7.7, "intermolecular_energy": -9.19, "internal_energy": -1.89, "cluster_size": 10, "cluster_id": 4, "rank_in_cluster": 8}

>  <energy>  (83) 
-8.24

>  <cluster_rmsd>  (83) 
1.09

>  <cluster>  (83) 
2

$$$$

     RDKit          3D

 54 57  0  0  0  0  0  0  0  0999 V2000
  139.5650   72.0090  220.8700 O   0  0  0  0  0  0  0  0  0  0  0  0
  139.5980   72.4460  222.0680 C   0  0  0  0  0  0  0  0  0  0  0  0
  139.4660   73.8630  222.2970 N   0  0  0  0  0  0  0  0  0  0  0  0
  139.2920   74.8290  221.2850 C   0  0  0  0  0  0  0  0  0  0  0  0
  139.6700   76.2060  221.4700 C   0  0  0  0  0  0  0  0  0  0  0  0
  139.2100   76.7510  222.5580 O   0  0  0  0  0  0  0  0  0  0  0  0
  140.4500   77.0730  220.6690 N   0  0  0  0  0  0  0  0  0  0  0  0
  140.2370   77.1930  219.2130 C   0  0  0  0  0  0  0  0  0  0  0  0
  140.6750   78.6300  218.9190 C   0  0  0  0  0  0  0  0  0  0  0  0
  141.8160   78.7670  219.8770 C   0  0  0  0  0  0  0  0  0  0  0  0
  141.5400   77.9360  221.0590 C   0  0  1  0  0  0  0  0  0  0  0  0
  141.3540   78.6930  222.3480 C   0  0  0  0  0  0  0  0  0  0  0  0
  140.1850   79.5850  222.3900 C   0  0  0  0  0  0  0  0  0  0  0  0
  140.2330   80.8560  223.1210 C   0  0  0  0  0  0  0  0  0  0  0  0
  141.5090   81.0860  223.9020 C   0  0  0  0  0  0  0  0  0  0  0  0
  142.6210   80.8160  222.8750 C   0  0  0  0  0  0  0  0  0  0  0  0
  142.6880   79.3410  222.7220 C   0  0  0  0  0  0  0  0  0  0  0  0
  139.7650   71.5140  223.1860 C   0  0  0  0  0  0  0  0  0  0  0  0
  139.3930   70.1990  223.0030 C   0  0  0  0  0  0  0  0  0  0  0  0
  139.5340   69.2960  224.0330 C   0  0  0  0  0  0  0  0  0  0  0  0
  140.0460   69.7020  225.2470 C   0  0  0  0  0  0  0  0  0  0  0  0
  140.2080   68.8400  226.3140 C   0  0  0  0  0  0  0  0  0  0  0  0
  140.7150   69.2530  227.5150 C   0  0  0  0  0  0  0  0  0  0  0  0
  140.9180   68.1420  228.8750 Cl  0  0  0  0  0  0  0  0  0  0  0  0
  141.0840   70.5900  227.6680 C   0  0  0  0  0  0  0  0  0  0  0  0
  140.9280   71.4650  226.6110 C   0  0  0  0  0  0  0  0  0  0  0  0
  140.4080   71.0280  225.3930 C   0  0  0  0  0  0  0  0  0  0  0  0
  140.2640   71.9010  224.3740 N   0  0  0  0  0  0  0  0  0  0  0  0
  139.5100   74.1290  223.3220 H   0  0  0  0  0  0  0  0  0  0  0  0
  139.8597   74.4684  220.4146 H   0  0  0  0  0  0  0  0  0  0  0  0
  138.1962   74.8979  221.2182 H   0  0  0  0  0  0  0  0  0  0  0  0
  140.8564   76.4701  218.6618 H   0  0  0  0  0  0  0  0  0  0  0  0
  139.2011   76.9841  218.9075 H   0  0  0  0  0  0  0  0  0  0  0  0
  141.0035   78.7493  217.8760 H   0  0  0  0  0  0  0  0  0  0  0  0
  139.8833   79.3844  219.0373 H   0  0  0  0  0  0  0  0  0  0  0  0
  142.7460   78.4297  219.3960 H   0  0  0  0  0  0  0  0  0  0  0  0
  141.9305   79.8193  220.1764 H   0  0  0  0  0  0  0  0  0  0  0  0
  142.4201   77.3374  221.3367 H   0  0  0  0  0  0  0  0  0  0  0  0
  141.0815   77.9777  223.1380 H   0  0  0  0  0  0  0  0  0  0  0  0
  139.9426   79.8330  221.3461 H   0  0  0  0  0  0  0  0  0  0  0  0
  139.4538   79.0002  222.9673 H   0  0  0  0  0  0  0  0  0  0  0  0
  140.1235   81.6742  222.3940 H   0  0  0  0  0  0  0  0  0  0  0  0
  139.4178   80.8223  223.8588 H   0  0  0  0  0  0  0  0  0  0  0  0
  141.5606   82.1204  224.2727 H   0  0  0  0  0  0  0  0  0  0  0  0
  141.5855   80.4427  224.7910 H   0  0  0  0  0  0  0  0  0  0  0  0
  142.3756   81.2892  221.9128 H   0  0  0  0  0  0  0  0  0  0  0  0
  143.5845   81.2307  223.2063 H   0  0  0  0  0  0  0  0  0  0  0  0
  143.4188   79.1079  221.9336 H   0  0  0  0  0  0  0  0  0  0  0  0
  142.9767   78.9323  223.7016 H   0  0  0  0  0  0  0  0  0  0  0  0
  138.9842   69.8717  222.0357 H   0  0  0  0  0  0  0  0  0  0  0  0
  139.2371   68.2470  223.8867 H   0  0  0  0  0  0  0  0  0  0  0  0
  139.9193   67.7854  226.1936 H   0  0  0  0  0  0  0  0  0  0  0  0
  141.4964   70.9446  228.6241 H   0  0  0  0  0  0  0  0  0  0  0  0
  141.2174   72.5194  226.7312 H   0  0  0  0  0  0  0  0  0  0  0  0
  1  2  2  0
  2  3  1  0
  3  4  1  0
  4  5  1  0
  5  6  2  0
  5  7  1  0
  7  8  1  0
  8  9  1  0
  9 10  1  0
 10 11  1  0
 11 12  1  0
 12 13  1  0
 13 14  1  0
 14 15  1  0
 15 16  1  0
 16 17  1  0
  2 18  1  0
 18 19  2  0
 19 20  1  0
 20 21  2  0
 21 22  1  0
 22 23  2  0
 23 24  1  0
 23 25  1  0
 25 26  2  0
 26 27  1  0
 27 28  2  0
 11  7  1  0
 17 12  1  0
 28 18  1  0
 27 21  1  0
  3 29  1  0
  4 30  1  0
  4 31  1  0
  8 32  1  0
  8 33  1  0
  9 34  1  0
  9 35  1  0
 10 36  1  0
 10 37  1  0
 11 38  1  1
 12 39  1  0
 13 40  1  0
 13 41  1  0
 14 42  1  0
 14 43  1  0
 15 44  1  0
 15 45  1  0
 16 46  1  0
 16 47  1  0
 17 48  1  0
 17 49  1  0
 19 50  1  0
 20 51  1  0
 22 52  1  0
 25 53  1  0
 26 54  1  0
M  END
>  <smiles>  (84) 
O=C(NCC(=O)N1CCCC1C1CCCCC1)c1ccc2cc(Cl)ccc2n1

>  <score_type>  (84) 
oracle

>  <origin>  (84) 
autodockgpu

>  <m_score__min__energy>  (84) 
-8.8399999999999999

>  <m_primary>  (84) 
energy

>  <rmsd>  (84) 
1.7404366221744563

>  <m_score__min__rmsd>  (84) 
1.7404366221744563

>  <meeko>  (84) 
{"free_energy": -8.56, "intermolecular_energy": -10.06, "internal_energy": -1.46, "cluster_size": 24, "cluster_id": 1, "rank_in_cluster": 4}

>  <energy>  (84) 
-7.7

>  <cluster_rmsd>  (84) 
1.32

>  <cluster>  (84) 
2

$$$$

     RDKit          3D

 54 57  0  0  0  0  0  0  0  0999 V2000
  137.9220   78.9810  220.8520 O   0  0  0  0  0  0  0  0  0  0  0  0
  137.7890   78.9330  222.1210 C   0  0  0  0  0  0  0  0  0  0  0  0
  137.9470   77.6670  222.7910 N   0  0  0  0  0  0  0  0  0  0  0  0
  138.2510   76.4490  222.1500 C   0  0  0  0  0  0  0  0  0  0  0  0
  139.5930   76.1060  221.7560 C   0  0  0  0  0  0  0  0  0  0  0  0
  140.0380   74.9960  222.2690 O   0  0  0  0  0  0  0  0  0  0  0  0
  140.5140   76.7690  220.9120 N   0  0  0  0  0  0  0  0  0  0  0  0
  140.6270   76.4460  219.4760 C   0  0  0  0  0  0  0  0  0  0  0  0
  141.0900   77.7700  218.8620 C   0  0  0  0  0  0  0  0  0  0  0  0
  141.9870   78.2740  219.9490 C   0  0  0  0  0  0  0  0  0  0  0  0
  141.4720   77.7970  221.2410 C   0  0  1  0  0  0  0  0  0  0  0  0
  140.9890   78.8740  222.1780 C   0  0  0  0  0  0  0  0  0  0  0  0
  140.8480   80.2100  221.5790 C   0  0  0  0  0  0  0  0  0  0  0  0
  141.1320   81.4200  222.3600 C   0  0  0  0  0  0  0  0  0  0  0  0
  141.4460   81.1680  223.8190 C   0  0  0  0  0  0  0  0  0  0  0  0
  142.5310   80.0790  223.7780 C   0  0  0  0  0  0  0  0  0  0  0  0
  141.8270   78.8120  223.4560 C   0  0  0  0  0  0  0  0  0  0  0  0
  137.4830   80.1520  222.8740 C   0  0  0  0  0  0  0  0  0  0  0  0
  137.3210   81.3290  222.1750 C   0  0  0  0  0  0  0  0  0  0  0  0
  137.0350   82.4940  222.8510 C   0  0  0  0  0  0  0  0  0  0  0  0
  136.9100   82.4880  224.2240 C   0  0  0  0  0  0  0  0  0  0  0  0
  136.6250   83.6270  224.9520 C   0  0  0  0  0  0  0  0  0  0  0  0
  136.5040   83.6100  226.3150 C   0  0  0  0  0  0  0  0  0  0  0  0
  136.1400   85.0730  227.2380 Cl  0  0  0  0  0  0  0  0  0  0  0  0
  136.6720   82.4020  226.9930 C   0  0  0  0  0  0  0  0  0  0  0  0
  136.9580   81.2540  226.2790 C   0  0  0  0  0  0  0  0  0  0  0  0
  137.0780   81.2890  224.8900 C   0  0  0  0  0  0  0  0  0  0  0  0
  137.3580   80.1550  224.2130 N   0  0  0  0  0  0  0  0  0  0  0  0
  137.8140   77.7270  223.8410 H   0  0  0  0  0  0  0  0  0  0  0  0
  137.9170   75.6518  222.8304 H   0  0  0  0  0  0  0  0  0  0  0  0
  137.7496   76.5691  221.1783 H   0  0  0  0  0  0  0  0  0  0  0  0
  141.3679   75.6508  219.3065 H   0  0  0  0  0  0  0  0  0  0  0  0
  139.6894   76.0700  219.0406 H   0  0  0  0  0  0  0  0  0  0  0  0
  141.6395   77.6120  217.9223 H   0  0  0  0  0  0  0  0  0  0  0  0
  140.2765   78.4560  218.5832 H   0  0  0  0  0  0  0  0  0  0  0  0
  143.0074   77.8937  219.7936 H   0  0  0  0  0  0  0  0  0  0  0  0
  142.0109   79.3737  219.9368 H   0  0  0  0  0  0  0  0  0  0  0  0
  142.2806   77.3803  221.8594 H   0  0  0  0  0  0  0  0  0  0  0  0
  139.9411   78.6663  222.4403 H   0  0  0  0  0  0  0  0  0  0  0  0
  141.5189   80.2350  220.7076 H   0  0  0  0  0  0  0  0  0  0  0  0
  139.7649   80.2838  221.4018 H   0  0  0  0  0  0  0  0  0  0  0  0
  141.9960   81.9270  221.9055 H   0  0  0  0  0  0  0  0  0  0  0  0
  140.2153   82.0277  222.3385 H   0  0  0  0  0  0  0  0  0  0  0  0
  141.8251   82.0809  224.3016 H   0  0  0  0  0  0  0  0  0  0  0  0
  140.5613   80.8654  224.3984 H   0  0  0  0  0  0  0  0  0  0  0  0
  143.2757   80.3104  223.0021 H   0  0  0  0  0  0  0  0  0  0  0  0
  143.0684   80.0093  224.7353 H   0  0  0  0  0  0  0  0  0  0  0  0
  142.5795   78.0184  223.3382 H   0  0  0  0  0  0  0  0  0  0  0  0
  141.1305   78.6153  224.2843 H   0  0  0  0  0  0  0  0  0  0  0  0
  137.4200   81.3375  221.0795 H   0  0  0  0  0  0  0  0  0  0  0  0
  136.9057   83.4333  222.2933 H   0  0  0  0  0  0  0  0  0  0  0  0
  136.4908   84.5794  224.4182 H   0  0  0  0  0  0  0  0  0  0  0  0
  136.5774   82.3639  228.0883 H   0  0  0  0  0  0  0  0  0  0  0  0
  137.0926   80.3014  226.8124 H   0  0  0  0  0  0  0  0  0  0  0  0
  1  2  2  0
  2  3  1  0
  3  4  1  0
  4  5  1  0
  5  6  2  0
  5  7  1  0
  7  8  1  0
  8  9  1  0
  9 10  1  0
 10 11  1  0
 11 12  1  0
 12 13  1  0
 13 14  1  0
 14 15  1  0
 15 16  1  0
 16 17  1  0
  2 18  1  0
 18 19  2  0
 19 20  1  0
 20 21  2  0
 21 22  1  0
 22 23  2  0
 23 24  1  0
 23 25  1  0
 25 26  2  0
 26 27  1  0
 27 28  2  0
 11  7  1  0
 17 12  1  0
 28 18  1  0
 27 21  1  0
  3 29  1  0
  4 30  1  0
  4 31  1  0
  8 32  1  0
  8 33  1  0
  9 34  1  0
  9 35  1  0
 10 36  1  0
 10 37  1  0
 11 38  1  1
 12 39  1  0
 13 40  1  0
 13 41  1  0
 14 42  1  0
 14 43  1  0
 15 44  1  0
 15 45  1  0
 16 46  1  0
 16 47  1  0
 17 48  1  0
 17 49  1  0
 19 50  1  0
 20 51  1  0
 22 52  1  0
 25 53  1  0
 26 54  1  0
M  END
>  <smiles>  (85) 
O=C(NCC(=O)N1CCCC1C1CCCCC1)c1ccc2cc(Cl)ccc2n1

>  <score_type>  (85) 
oracle

>  <origin>  (85) 
autodockgpu

>  <m_score__min__energy>  (85) 
-8.8399999999999999

>  <m_primary>  (85) 
energy

>  <rmsd>  (85) 
8.860241090326582

>  <m_score__min__rmsd>  (85) 
8.860241090326582

>  <meeko>  (85) 
{"free_energy": -6.59, "intermolecular_energy": -8.08, "internal_energy": -2.73, "cluster_size": 2, "cluster_id": 6, "rank_in_cluster": 2}

>  <energy>  (85) 
-8.28

>  <cluster_rmsd>  (85) 
0.0

>  <cluster>  (85) 
3

$$$$

     RDKit          3D

 54 57  0  0  0  0  0  0  0  0999 V2000
  140.5460   72.5160  220.7800 O   0  0  0  0  0  0  0  0  0  0  0  0
  140.1000   72.8620  221.9240 C   0  0  0  0  0  0  0  0  0  0  0  0
  139.6010   74.2020  222.1030 N   0  0  0  0  0  0  0  0  0  0  0  0
  139.5540   75.1840  221.0930 C   0  0  0  0  0  0  0  0  0  0  0  0
  140.6670   76.0560  220.8210 C   0  0  0  0  0  0  0  0  0  0  0  0
  140.9800   76.8540  221.8000 O   0  0  0  0  0  0  0  0  0  0  0  0
  141.4790   76.1990  219.6700 N   0  0  0  0  0  0  0  0  0  0  0  0
  141.5460   77.4660  218.9160 C   0  0  0  0  0  0  0  0  0  0  0  0
  142.9570   77.4380  218.3230 C   0  0  0  0  0  0  0  0  0  0  0  0
  143.1000   75.9770  218.0310 C   0  0  0  0  0  0  0  0  0  0  0  0
  142.3250   75.2220  219.0280 C   0  0  1  0  0  0  0  0  0  0  0  0
  143.1380   74.3470  219.9460 C   0  0  0  0  0  0  0  0  0  0  0  0
  144.3810   74.9500  220.4510 C   0  0  0  0  0  0  0  0  0  0  0  0
  145.5780   74.1320  220.6770 C   0  0  0  0  0  0  0  0  0  0  0  0
  145.3750   72.6470  220.4680 C   0  0  0  0  0  0  0  0  0  0  0  0
  144.7050   72.5580  219.0870 C   0  0  0  0  0  0  0  0  0  0  0  0
  143.2940   72.9740  219.2890 C   0  0  0  0  0  0  0  0  0  0  0  0
  140.1000   71.9040  223.0330 C   0  0  0  0  0  0  0  0  0  0  0  0
  139.5880   70.6430  222.8070 C   0  0  0  0  0  0  0  0  0  0  0  0
  139.5700   69.7180  223.8270 C   0  0  0  0  0  0  0  0  0  0  0  0
  140.0610   70.0470  225.0730 C   0  0  0  0  0  0  0  0  0  0  0  0
  140.0660   69.1590  226.1310 C   0  0  0  0  0  0  0  0  0  0  0  0
  140.5540   69.4970  227.3630 C   0  0  0  0  0  0  0  0  0  0  0  0
  140.5560   68.3540  228.7120 Cl  0  0  0  0  0  0  0  0  0  0  0  0
  141.0660   70.7800  227.5590 C   0  0  0  0  0  0  0  0  0  0  0  0
  141.0680   71.6790  226.5110 C   0  0  0  0  0  0  0  0  0  0  0  0
  140.5660   71.3200  225.2600 C   0  0  0  0  0  0  0  0  0  0  0  0
  140.5770   72.2160  224.2510 N   0  0  0  0  0  0  0  0  0  0  0  0
  139.2570   74.3960  223.0870 H   0  0  0  0  0  0  0  0  0  0  0  0
  139.3455   74.6497  220.1543 H   0  0  0  0  0  0  0  0  0  0  0  0
  138.8043   75.8850  221.4888 H   0  0  0  0  0  0  0  0  0  0  0  0
  140.7842   77.4952  218.1231 H   0  0  0  0  0  0  0  0  0  0  0  0
  141.3544   78.3523  219.5387 H   0  0  0  0  0  0  0  0  0  0  0  0
  143.0250   78.0439  217.4074 H   0  0  0  0  0  0  0  0  0  0  0  0
  143.7378   77.8538  218.9768 H   0  0  0  0  0  0  0  0  0  0  0  0
  142.7170   75.7612  217.0227 H   0  0  0  0  0  0  0  0  0  0  0  0
  144.1597   75.6857  218.0790 H   0  0  0  0  0  0  0  0  0  0  0  0
  141.7125   74.4448  218.5476 H   0  0  0  0  0  0  0  0  0  0  0  0
  142.5858   74.2203  220.8889 H   0  0  0  0  0  0  0  0  0  0  0  0
  144.6663   75.7299  219.7297 H   0  0  0  0  0  0  0  0  0  0  0  0
  144.1038   75.2613  221.4690 H   0  0  0  0  0  0  0  0  0  0  0  0
  146.3617   74.4720  219.9841 H   0  0  0  0  0  0  0  0  0  0  0  0
  145.8503   74.2636  221.7346 H   0  0  0  0  0  0  0  0  0  0  0  0
  146.3382   72.1158  220.4710 H   0  0  0  0  0  0  0  0  0  0  0  0
  144.7722   72.1844  221.2634 H   0  0  0  0  0  0  0  0  0  0  0  0
  145.2042   73.2325  218.3758 H   0  0  0  0  0  0  0  0  0  0  0  0
  144.7698   71.5411  218.6726 H   0  0  0  0  0  0  0  0  0  0  0  0
  142.7977   73.0017  218.3077 H   0  0  0  0  0  0  0  0  0  0  0  0
  142.8408   72.2408  219.9724 H   0  0  0  0  0  0  0  0  0  0  0  0
  139.1951   70.3771  221.8146 H   0  0  0  0  0  0  0  0  0  0  0  0
  139.1622   68.7123  223.6471 H   0  0  0  0  0  0  0  0  0  0  0  0
  139.6642   68.1466  225.9775 H   0  0  0  0  0  0  0  0  0  0  0  0
  141.4651   71.0732  228.5412 H   0  0  0  0  0  0  0  0  0  0  0  0
  141.4705   72.6911  226.6645 H   0  0  0  0  0  0  0  0  0  0  0  0
  1  2  2  0
  2  3  1  0
  3  4  1  0
  4  5  1  0
  5  6  2  0
  5  7  1  0
  7  8  1  0
  8  9  1  0
  9 10  1  0
 10 11  1  0
 11 12  1  0
 12 13  1  0
 13 14  1  0
 14 15  1  0
 15 16  1  0
 16 17  1  0
  2 18  1  0
 18 19  2  0
 19 20  1  0
 20 21  2  0
 21 22  1  0
 22 23  2  0
 23 24  1  0
 23 25  1  0
 25 26  2  0
 26 27  1  0
 27 28  2  0
 11  7  1  0
 17 12  1  0
 28 18  1  0
 27 21  1  0
  3 29  1  0
  4 30  1  0
  4 31  1  0
  8 32  1  0
  8 33  1  0
  9 34  1  0
  9 35  1  0
 10 36  1  0
 10 37  1  0
 11 38  1  6
 12 39  1  0
 13 40  1  0
 13 41  1  0
 14 42  1  0
 14 43  1  0
 15 44  1  0
 15 45  1  0
 16 46  1  0
 16 47  1  0
 17 48  1  0
 17 49  1  0
 19 50  1  0
 20 51  1  0
 22 52  1  0
 25 53  1  0
 26 54  1  0
M  END
>  <smiles>  (86) 
O=C(NCC(=O)N1CCCC1C1CCCCC1)c1ccc2cc(Cl)ccc2n1

>  <score_type>  (86) 
oracle

>  <origin>  (86) 
autodockgpu

>  <m_score__min__energy>  (86) 
-8.8399999999999999

>  <m_primary>  (86) 
energy

>  <rmsd>  (86) 
2.259924074958612

>  <m_score__min__rmsd>  (86) 
2.259924074958612

>  <meeko>  (86) 
{"free_energy": -8.09, "intermolecular_energy": -9.59, "internal_energy": -1.77, "cluster_size": 10, "cluster_id": 4, "rank_in_cluster": 2}

>  <energy>  (86) 
-8.12

>  <cluster_rmsd>  (86) 
0.22

>  <cluster>  (86) 
3

$$$$

     RDKit          3D

 54 57  0  0  0  0  0  0  0  0999 V2000
  139.2340   72.7370  220.5890 O   0  0  0  0  0  0  0  0  0  0  0  0
  140.0930   72.8370  221.5280 C   0  0  0  0  0  0  0  0  0  0  0  0
  141.1450   73.8150  221.4100 N   0  0  0  0  0  0  0  0  0  0  0  0
  141.3040   74.6970  220.3220 C   0  0  0  0  0  0  0  0  0  0  0  0
  140.6180   75.9620  220.2560 C   0  0  0  0  0  0  0  0  0  0  0  0
  140.9430   76.6990  219.2340 O   0  0  0  0  0  0  0  0  0  0  0  0
  139.6550   76.5450  221.1130 N   0  0  0  0  0  0  0  0  0  0  0  0
  138.4110   75.8410  221.4810 C   0  0  0  0  0  0  0  0  0  0  0  0
  138.0950   76.4050  222.8680 C   0  0  0  0  0  0  0  0  0  0  0  0
  138.5450   77.8220  222.6950 C   0  0  0  0  0  0  0  0  0  0  0  0
  139.6660   77.8440  221.7420 C   0  0  1  0  0  0  0  0  0  0  0  0
  140.9870   78.2900  222.3140 C   0  0  0  0  0  0  0  0  0  0  0  0
  140.9030   79.0470  223.5720 C   0  0  0  0  0  0  0  0  0  0  0  0
  141.8470   80.1330  223.8630 C   0  0  0  0  0  0  0  0  0  0  0  0
  142.9480   80.3010  222.8380 C   0  0  0  0  0  0  0  0  0  0  0  0
  142.1970   80.3540  221.4980 C   0  0  0  0  0  0  0  0  0  0  0  0
  141.7940   78.9570  221.1980 C   0  0  0  0  0  0  0  0  0  0  0  0
  140.0010   71.9670  222.7040 C   0  0  0  0  0  0  0  0  0  0  0  0
  139.2580   70.8110  222.6060 C   0  0  0  0  0  0  0  0  0  0  0  0
  139.1480   69.9720  223.6920 C   0  0  0  0  0  0  0  0  0  0  0  0
  139.7790   70.2830  224.8780 C   0  0  0  0  0  0  0  0  0  0  0  0
  139.7020   69.4790  225.9980 C   0  0  0  0  0  0  0  0  0  0  0  0
  140.3310   69.7980  227.1690 C   0  0  0  0  0  0  0  0  0  0  0  0
  140.2260   68.7620  228.5980 Cl  0  0  0  0  0  0  0  0  0  0  0  0
  141.0780   70.9750  227.2360 C   0  0  0  0  0  0  0  0  0  0  0  0
  141.1650   71.7910  226.1250 C   0  0  0  0  0  0  0  0  0  0  0  0
  140.5160   71.4510  224.9370 C   0  0  0  0  0  0  0  0  0  0  0  0
  140.6140   72.2630  223.8640 N   0  0  0  0  0  0  0  0  0  0  0  0
  141.8100   73.8200  222.2350 H   0  0  0  0  0  0  0  0  0  0  0  0
  142.3784   74.9266  220.2667 H   0  0  0  0  0  0  0  0  0  0  0  0
  140.8329   74.1367  219.5009 H   0  0  0  0  0  0  0  0  0  0  0  0
  137.6035   76.0665  220.7689 H   0  0  0  0  0  0  0  0  0  0  0  0
  138.5130   74.7458  221.4709 H   0  0  0  0  0  0  0  0  0  0  0  0
  137.0205   76.3450  223.0957 H   0  0  0  0  0  0  0  0  0  0  0  0
  138.5749   75.8700  223.7007 H   0  0  0  0  0  0  0  0  0  0  0  0
  137.7150   78.4297  222.3054 H   0  0  0  0  0  0  0  0  0  0  0  0
  138.8652   78.2360  223.6625 H   0  0  0  0  0  0  0  0  0  0  0  0
  139.5294   78.6332  220.9880 H   0  0  0  0  0  0  0  0  0  0  0  0
  141.5380   77.4021  222.6577 H   0  0  0  0  0  0  0  0  0  0  0  0
  139.8966   79.4898  223.6045 H   0  0  0  0  0  0  0  0  0  0  0  0
  141.1617   78.2911  224.3281 H   0  0  0  0  0  0  0  0  0  0  0  0
  141.2810   81.0747  223.9164 H   0  0  0  0  0  0  0  0  0  0  0  0
  142.3402   79.8723  224.8111 H   0  0  0  0  0  0  0  0  0  0  0  0
  143.5060   81.2330  223.0115 H   0  0  0  0  0  0  0  0  0  0  0  0
  143.6921   79.4918  222.8767 H   0  0  0  0  0  0  0  0  0  0  0  0
  141.3092   80.9979  221.5829 H   0  0  0  0  0  0  0  0  0  0  0  0
  142.8279   80.7712  220.6993 H   0  0  0  0  0  0  0  0  0  0  0  0
  141.1821   78.9620  220.2839 H   0  0  0  0  0  0  0  0  0  0  0  0
  142.7207   78.3755  221.0835 H   0  0  0  0  0  0  0  0  0  0  0  0
  138.7535   70.5588  221.6616 H   0  0  0  0  0  0  0  0  0  0  0  0
  138.5541   69.0495  223.6133 H   0  0  0  0  0  0  0  0  0  0  0  0
  139.1146   68.5504  225.9462 H   0  0  0  0  0  0  0  0  0  0  0  0
  141.5941   71.2510  228.1674 H   0  0  0  0  0  0  0  0  0  0  0  0
  141.7525   72.7195  226.1771 H   0  0  0  0  0  0  0  0  0  0  0  0
  1  2  2  0
  2  3  1  0
  3  4  1  0
  4  5  1  0
  5  6  2  0
  5  7  1  0
  7  8  1  0
  8  9  1  0
  9 10  1  0
 10 11  1  0
 11 12  1  0
 12 13  1  0
 13 14  1  0
 14 15  1  0
 15 16  1  0
 16 17  1  0
  2 18  1  0
 18 19  2  0
 19 20  1  0
 20 21  2  0
 21 22  1  0
 22 23  2  0
 23 24  1  0
 23 25  1  0
 25 26  2  0
 26 27  1  0
 27 28  2  0
 11  7  1  0
 17 12  1  0
 28 18  1  0
 27 21  1  0
  3 29  1  0
  4 30  1  0
  4 31  1  0
  8 32  1  0
  8 33  1  0
  9 34  1  0
  9 35  1  0
 10 36  1  0
 10 37  1  0
 11 38  1  6
 12 39  1  0
 13 40  1  0
 13 41  1  0
 14 42  1  0
 14 43  1  0
 15 44  1  0
 15 45  1  0
 16 46  1  0
 16 47  1  0
 17 48  1  0
 17 49  1  0
 19 50  1  0
 20 51  1  0
 22 52  1  0
 25 53  1  0
 26 54  1  0
M  END
>  <smiles>  (87) 
O=C(NCC(=O)N1CCCC1C1CCCCC1)c1ccc2cc(Cl)ccc2n1

>  <score_type>  (87) 
oracle

>  <origin>  (87) 
autodockgpu

>  <m_score__min__energy>  (87) 
-8.8399999999999999

>  <m_primary>  (87) 
energy

>  <rmsd>  (87) 
3.060473953764803

>  <m_score__min__rmsd>  (87) 
3.060473953764803

>  <meeko>  (87) 
{"free_energy": -7.91, "intermolecular_energy": -9.4, "internal_energy": -1.73, "cluster_size": 24, "cluster_id": 1, "rank_in_cluster": 17}

>  <energy>  (87) 
-7.7

>  <cluster_rmsd>  (87) 
1.13

>  <cluster>  (87) 
3

$$$$

     RDKit          3D

 54 57  0  0  0  0  0  0  0  0999 V2000
  139.5130   72.0160  220.6700 O   0  0  0  0  0  0  0  0  0  0  0  0
  139.2430   72.3940  221.8580 C   0  0  0  0  0  0  0  0  0  0  0  0
  138.6850   73.7070  222.0620 N   0  0  0  0  0  0  0  0  0  0  0  0
  138.3970   74.6280  221.0340 C   0  0  0  0  0  0  0  0  0  0  0  0
  138.3750   76.0490  221.2640 C   0  0  0  0  0  0  0  0  0  0  0  0
  137.1850   76.5750  221.2740 O   0  0  0  0  0  0  0  0  0  0  0  0
  139.4230   76.9750  221.4760 N   0  0  0  0  0  0  0  0  0  0  0  0
  139.4600   77.8530  222.6620 C   0  0  0  0  0  0  0  0  0  0  0  0
  140.9590   78.0740  222.8790 C   0  0  0  0  0  0  0  0  0  0  0  0
  141.4350   78.1230  221.4610 C   0  0  0  0  0  0  0  0  0  0  0  0
  140.5710   77.2540  220.6470 C   0  0  1  0  0  0  0  0  0  0  0  0
  141.2550   76.0560  220.0400 C   0  0  0  0  0  0  0  0  0  0  0  0
  141.5190   74.9460  220.9680 C   0  0  0  0  0  0  0  0  0  0  0  0
  142.7240   74.1190  220.8300 C   0  0  0  0  0  0  0  0  0  0  0  0
  143.5650   74.4300  219.6110 C   0  0  0  0  0  0  0  0  0  0  0  0
  143.7540   75.9550  219.6740 C   0  0  0  0  0  0  0  0  0  0  0  0
  142.4630   76.5460  219.2400 C   0  0  0  0  0  0  0  0  0  0  0  0
  139.4980   71.5000  222.9910 C   0  0  0  0  0  0  0  0  0  0  0  0
  139.1530   70.1710  222.8650 C   0  0  0  0  0  0  0  0  0  0  0  0
  139.3770   69.3030  223.9100 C   0  0  0  0  0  0  0  0  0  0  0  0
  139.9440   69.7570  225.0820 C   0  0  0  0  0  0  0  0  0  0  0  0
  140.1900   68.9300  226.1610 C   0  0  0  0  0  0  0  0  0  0  0  0
  140.7520   69.3920  227.3190 C   0  0  0  0  0  0  0  0  0  0  0  0
  141.0620   68.3270  228.6960 Cl  0  0  0  0  0  0  0  0  0  0  0  0
  141.0920   70.7420  227.4140 C   0  0  0  0  0  0  0  0  0  0  0  0
  140.8520   71.5810  226.3440 C   0  0  0  0  0  0  0  0  0  0  0  0
  140.2770   71.0950  225.1700 C   0  0  0  0  0  0  0  0  0  0  0  0
  140.0520   71.9340  224.1360 N   0  0  0  0  0  0  0  0  0  0  0  0
  138.4990   73.9320  223.0810 H   0  0  0  0  0  0  0  0  0  0  0  0
  139.1467   74.4554  220.2477 H   0  0  0  0  0  0  0  0  0  0  0  0
  137.3392   74.4130  220.8225 H   0  0  0  0  0  0  0  0  0  0  0  0
  138.9442   78.8046  222.4659 H   0  0  0  0  0  0  0  0  0  0  0  0
  138.9540   77.4207  223.5378 H   0  0  0  0  0  0  0  0  0  0  0  0
  141.1581   79.0181  223.4072 H   0  0  0  0  0  0  0  0  0  0  0  0
  141.4497   77.3111  223.5013 H   0  0  0  0  0  0  0  0  0  0  0  0
  141.3800   79.1560  221.0869 H   0  0  0  0  0  0  0  0  0  0  0  0
  142.4780   77.7785  221.4020 H   0  0  0  0  0  0  0  0  0  0  0  0
  140.2576   77.7609  219.7224 H   0  0  0  0  0  0  0  0  0  0  0  0
  140.5552   75.5666  219.3467 H   0  0  0  0  0  0  0  0  0  0  0  0
  141.5524   75.3825  221.9771 H   0  0  0  0  0  0  0  0  0  0  0  0
  140.7100   74.2376  220.7363 H   0  0  0  0  0  0  0  0  0  0  0  0
  143.3471   74.2687  221.7241 H   0  0  0  0  0  0  0  0  0  0  0  0
  142.3784   73.0812  220.7139 H   0  0  0  0  0  0  0  0  0  0  0  0
  144.5345   73.9127  219.6616 H   0  0  0  0  0  0  0  0  0  0  0  0
  143.0941   74.0984  218.6738 H   0  0  0  0  0  0  0  0  0  0  0  0
  143.9917   76.2685  220.7012 H   0  0  0  0  0  0  0  0  0  0  0  0
  144.5840   76.2848  219.0319 H   0  0  0  0  0  0  0  0  0  0  0  0
  142.5291   77.6387  219.3476 H   0  0  0  0  0  0  0  0  0  0  0  0
  142.3034   76.2322  218.1979 H   0  0  0  0  0  0  0  0  0  0  0  0
  138.6999   69.8051  221.9318 H   0  0  0  0  0  0  0  0  0  0  0  0
  139.1024   68.2426  223.8095 H   0  0  0  0  0  0  0  0  0  0  0  0
  139.9251   67.8650  226.0862 H   0  0  0  0  0  0  0  0  0  0  0  0
  141.5479   71.1350  228.3347 H   0  0  0  0  0  0  0  0  0  0  0  0
  141.1176   72.6459  226.4184 H   0  0  0  0  0  0  0  0  0  0  0  0
  1  2  2  0
  2  3  1  0
  3  4  1  0
  4  5  1  0
  5  6  2  0
  5  7  1  0
  7  8  1  0
  8  9  1  0
  9 10  1  0
 10 11  1  0
 11 12  1  0
 12 13  1  0
 13 14  1  0
 14 15  1  0
 15 16  1  0
 16 17  1  0
  2 18  1  0
 18 19  2  0
 19 20  1  0
 20 21  2  0
 21 22  1  0
 22 23  2  0
 23 24  1  0
 23 25  1  0
 25 26  2  0
 26 27  1  0
 27 28  2  0
 11  7  1  0
 17 12  1  0
 28 18  1  0
 27 21  1  0
  3 29  1  0
  4 30  1  0
  4 31  1  0
  8 32  1  0
  8 33  1  0
  9 34  1  0
  9 35  1  0
 10 36  1  0
 10 37  1  0
 11 38  1  6
 12 39  1  0
 13 40  1  0
 13 41  1  0
 14 42  1  0
 14 43  1  0
 15 44  1  0
 15 45  1  0
 16 46  1  0
 16 47  1  0
 17 48  1  0
 17 49  1  0
 19 50  1  0
 20 51  1  0
 22 52  1  0
 25 53  1  0
 26 54  1  0
M  END
>  <smiles>  (88) 
O=C(NCC(=O)N1CCCC1C1CCCCC1)c1ccc2cc(Cl)ccc2n1

>  <score_type>  (88) 
oracle

>  <origin>  (88) 
autodockgpu

>  <m_score__min__energy>  (88) 
-8.8399999999999999

>  <m_primary>  (88) 
energy

>  <rmsd>  (88) 
2.72692720830687

>  <m_score__min__rmsd>  (88) 
2.72692720830687

>  <meeko>  (88) 
{"free_energy": -7.76, "intermolecular_energy": -9.25, "internal_energy": -1.68, "cluster_size": 24, "cluster_id": 1, "rank_in_cluster": 22}

>  <energy>  (88) 
-8.12

>  <cluster_rmsd>  (88) 
0.0

>  <cluster>  (88) 
4

$$$$

     RDKit          3D

 54 57  0  0  0  0  0  0  0  0999 V2000
  142.0990   73.5280  220.4170 O   0  0  0  0  0  0  0  0  0  0  0  0
  141.3660   74.2380  221.1830 C   0  0  0  0  0  0  0  0  0  0  0  0
  140.4560   73.5790  222.0850 N   0  0  0  0  0  0  0  0  0  0  0  0
  140.3100   72.1820  222.2020 C   0  0  0  0  0  0  0  0  0  0  0  0
  139.9010   71.5560  223.4330 C   0  0  0  0  0  0  0  0  0  0  0  0
  140.3830   72.1110  224.5070 O   0  0  0  0  0  0  0  0  0  0  0  0
  139.0700   70.4380  223.6780 N   0  0  0  0  0  0  0  0  0  0  0  0
  138.2820   69.8020  222.6040 C   0  0  0  0  0  0  0  0  0  0  0  0
  138.1840   68.3460  223.0660 C   0  0  0  0  0  0  0  0  0  0  0  0
  138.0700   68.5370  224.5450 C   0  0  0  0  0  0  0  0  0  0  0  0
  138.8150   69.7490  224.9200 C   0  0  1  0  0  0  0  0  0  0  0  0
  140.0140   69.5180  225.8050 C   0  0  0  0  0  0  0  0  0  0  0  0
  140.2490   68.1180  226.1910 C   0  0  0  0  0  0  0  0  0  0  0  0
  140.7920   67.7820  227.5120 C   0  0  0  0  0  0  0  0  0  0  0  0
  141.1900   68.9770  228.3520 C   0  0  0  0  0  0  0  0  0  0  0  0
  139.9520   69.8870  228.3050 C   0  0  0  0  0  0  0  0  0  0  0  0
  139.9580   70.5180  226.9610 C   0  0  0  0  0  0  0  0  0  0  0  0
  141.4560   75.7010  221.1380 C   0  0  0  0  0  0  0  0  0  0  0  0
  142.0300   76.2870  220.0300 C   0  0  0  0  0  0  0  0  0  0  0  0
  142.1340   77.6580  219.9560 C   0  0  0  0  0  0  0  0  0  0  0  0
  141.6660   78.4470  220.9850 C   0  0  0  0  0  0  0  0  0  0  0  0
  141.7450   79.8260  220.9630 C   0  0  0  0  0  0  0  0  0  0  0  0
  141.2790   80.5990  221.9900 C   0  0  0  0  0  0  0  0  0  0  0  0
  141.3850   82.3630  221.9540 Cl  0  0  0  0  0  0  0  0  0  0  0  0
  140.7020   79.9750  223.0970 C   0  0  0  0  0  0  0  0  0  0  0  0
  140.6150   78.5970  223.1350 C   0  0  0  0  0  0  0  0  0  0  0  0
  141.0970   77.8230  222.0790 C   0  0  0  0  0  0  0  0  0  0  0  0
  141.0020   76.4780  222.1370 N   0  0  0  0  0  0  0  0  0  0  0  0
  139.8870   74.2520  222.6760 H   0  0  0  0  0  0  0  0  0  0  0  0
  139.5686   71.8859  221.4453 H   0  0  0  0  0  0  0  0  0  0  0  0
  141.3482   71.8329  222.1002 H   0  0  0  0  0  0  0  0  0  0  0  0
  137.2847   70.2588  222.5217 H   0  0  0  0  0  0  0  0  0  0  0  0
  138.7374   69.9116  221.6087 H   0  0  0  0  0  0  0  0  0  0  0  0
  137.2957   67.8471  222.6512 H   0  0  0  0  0  0  0  0  0  0  0  0
  139.0215   67.7070  222.7493 H   0  0  0  0  0  0  0  0  0  0  0  0
  137.0120   68.6512  224.8236 H   0  0  0  0  0  0  0  0  0  0  0  0
  138.4841   67.6636  225.0700 H   0  0  0  0  0  0  0  0  0  0  0  0
  138.2221   70.3853  225.5935 H   0  0  0  0  0  0  0  0  0  0  0  0
  140.9249   69.7141  225.2203 H   0  0  0  0  0  0  0  0  0  0  0  0
  139.2798   67.6040  226.1107 H   0  0  0  0  0  0  0  0  0  0  0  0
  141.0568   67.8105  225.5106 H   0  0  0  0  0  0  0  0  0  0  0  0
  140.0276   67.2145  228.0630 H   0  0  0  0  0  0  0  0  0  0  0  0
  141.7119   67.2058  227.3337 H   0  0  0  0  0  0  0  0  0  0  0  0
  141.4137   68.6727  229.3851 H   0  0  0  0  0  0  0  0  0  0  0  0
  142.0980   69.4746  227.9806 H   0  0  0  0  0  0  0  0  0  0  0  0
  139.0362   69.2938  228.4445 H   0  0  0  0  0  0  0  0  0  0  0  0
  139.9767   70.6421  229.1045 H   0  0  0  0  0  0  0  0  0  0  0  0
  139.0415   71.1172  226.8560 H   0  0  0  0  0  0  0  0  0  0  0  0
  140.8716   71.1275  226.8994 H   0  0  0  0  0  0  0  0  0  0  0  0
  142.4041   75.6606  219.2068 H   0  0  0  0  0  0  0  0  0  0  0  0
  142.5924   78.1256  219.0721 H   0  0  0  0  0  0  0  0  0  0  0  0
  142.1980   80.3186  220.0900 H   0  0  0  0  0  0  0  0  0  0  0  0
  140.3188   80.5769  223.9342 H   0  0  0  0  0  0  0  0  0  0  0  0
  140.1607   78.1045  224.0074 H   0  0  0  0  0  0  0  0  0  0  0  0
  1  2  2  0
  2  3  1  0
  3  4  1  0
  4  5  1  0
  5  6  2  0
  5  7  1  0
  7  8  1  0
  8  9  1  0
  9 10  1  0
 10 11  1  0
 11 12  1  0
 12 13  1  0
 13 14  1  0
 14 15  1  0
 15 16  1  0
 16 17  1  0
  2 18  1  0
 18 19  2  0
 19 20  1  0
 20 21  2  0
 21 22  1  0
 22 23  2  0
 23 24  1  0
 23 25  1  0
 25 26  2  0
 26 27  1  0
 27 28  2  0
 11  7  1  0
 17 12  1  0
 28 18  1  0
 27 21  1  0
  3 29  1  0
  4 30  1  0
  4 31  1  0
  8 32  1  0
  8 33  1  0
  9 34  1  0
  9 35  1  0
 10 36  1  0
 10 37  1  0
 11 38  1  1
 12 39  1  0
 13 40  1  0
 13 41  1  0
 14 42  1  0
 14 43  1  0
 15 44  1  0
 15 45  1  0
 16 46  1  0
 16 47  1  0
 17 48  1  0
 17 49  1  0
 19 50  1  0
 20 51  1  0
 22 52  1  0
 25 53  1  0
 26 54  1  0
M  END
>  <smiles>  (89) 
O=C(NCC(=O)N1CCCC1C1CCCCC1)c1ccc2cc(Cl)ccc2n1

>  <score_type>  (89) 
oracle

>  <origin>  (89) 
autodockgpu

>  <m_score__min__energy>  (89) 
-8.8399999999999999

>  <m_primary>  (89) 
energy

>  <rmsd>  (89) 
8.562590883230193

>  <m_score__min__rmsd>  (89) 
8.562590883230193

>  <meeko>  (89) 
{"free_energy": -8.12, "intermolecular_energy": -9.61, "internal_energy": -1.39, "cluster_size": 3, "cluster_id": 3, "rank_in_cluster": 2}

>  <energy>  (89) 
-8.09

>  <cluster_rmsd>  (89) 
0.38

>  <cluster>  (89) 
4

$$$$

     RDKit          3D

 54 57  0  0  0  0  0  0  0  0999 V2000
  139.1520   71.9310  220.7240 O   0  0  0  0  0  0  0  0  0  0  0  0
  139.2770   72.3970  221.9060 C   0  0  0  0  0  0  0  0  0  0  0  0
  139.1760   73.8200  222.1080 N   0  0  0  0  0  0  0  0  0  0  0  0
  138.9370   74.7630  221.0880 C   0  0  0  0  0  0  0  0  0  0  0  0
  139.7500   74.8300  219.9010 C   0  0  0  0  0  0  0  0  0  0  0  0
  139.1860   74.3480  218.8320 O   0  0  0  0  0  0  0  0  0  0  0  0
  141.0600   75.3240  219.6970 N   0  0  0  0  0  0  0  0  0  0  0  0
  141.8780   74.9110  218.5400 C   0  0  0  0  0  0  0  0  0  0  0  0
  142.7720   76.1290  218.2980 C   0  0  0  0  0  0  0  0  0  0  0  0
  143.0090   76.5760  219.7070 C   0  0  0  0  0  0  0  0  0  0  0  0
  141.8230   76.2400  220.5110 C   0  0  1  0  0  0  0  0  0  0  0  0
  141.0660   77.4200  221.0640 C   0  0  0  0  0  0  0  0  0  0  0  0
  141.5690   78.7380  220.6500 C   0  0  0  0  0  0  0  0  0  0  0  0
  141.5180   79.8850  221.5650 C   0  0  0  0  0  0  0  0  0  0  0  0
  140.8080   79.6150  222.8750 C   0  0  0  0  0  0  0  0  0  0  0  0
  141.4680   78.3250  223.3900 C   0  0  0  0  0  0  0  0  0  0  0  0
  140.9030   77.2220  222.5730 C   0  0  0  0  0  0  0  0  0  0  0  0
  139.5170   71.4910  223.0320 C   0  0  0  0  0  0  0  0  0  0  0  0
  139.1730   70.1640  222.8880 C   0  0  0  0  0  0  0  0  0  0  0  0
  139.3830   69.2850  223.9270 C   0  0  0  0  0  0  0  0  0  0  0  0
  139.9360   69.7260  225.1100 C   0  0  0  0  0  0  0  0  0  0  0  0
  140.1670   68.8880  226.1840 C   0  0  0  0  0  0  0  0  0  0  0  0
  140.7160   69.3370  227.3540 C   0  0  0  0  0  0  0  0  0  0  0  0
  141.0070   68.2580  228.7230 Cl  0  0  0  0  0  0  0  0  0  0  0  0
  141.0550   70.6860  227.4670 C   0  0  0  0  0  0  0  0  0  0  0  0
  140.8300   71.5370  226.4020 C   0  0  0  0  0  0  0  0  0  0  0  0
  140.2690   71.0630  225.2160 C   0  0  0  0  0  0  0  0  0  0  0  0
  140.0580   71.9130  224.1890 N   0  0  0  0  0  0  0  0  0  0  0  0
  139.2970   74.1120  223.1200 H   0  0  0  0  0  0  0  0  0  0  0  0
  137.9062   74.5901  220.7451 H   0  0  0  0  0  0  0  0  0  0  0  0
  139.1838   75.7106  221.5891 H   0  0  0  0  0  0  0  0  0  0  0  0
  142.4787   74.0208  218.7781 H   0  0  0  0  0  0  0  0  0  0  0  0
  141.2772   74.6330  217.6615 H   0  0  0  0  0  0  0  0  0  0  0  0
  143.7107   75.8508  217.7966 H   0  0  0  0  0  0  0  0  0  0  0  0
  142.3354   76.8954  217.6407 H   0  0  0  0  0  0  0  0  0  0  0  0
  143.8916   76.0620  220.1155 H   0  0  0  0  0  0  0  0  0  0  0  0
  143.1857   77.6614  219.7326 H   0  0  0  0  0  0  0  0  0  0  0  0
  142.1097   75.7599  221.4582 H   0  0  0  0  0  0  0  0  0  0  0  0
  140.0658   77.4415  220.6068 H   0  0  0  0  0  0  0  0  0  0  0  0
  142.6263   78.5993  220.3800 H   0  0  0  0  0  0  0  0  0  0  0  0
  140.8654   79.0286  219.8560 H   0  0  0  0  0  0  0  0  0  0  0  0
  142.5505   80.1900  221.7908 H   0  0  0  0  0  0  0  0  0  0  0  0
  140.9394   80.6675  221.0522 H   0  0  0  0  0  0  0  0  0  0  0  0
  140.9618   80.4433  223.5822 H   0  0  0  0  0  0  0  0  0  0  0  0
  139.7187   79.5179  222.7567 H   0  0  0  0  0  0  0  0  0  0  0  0
  142.5592   78.3761  223.2608 H   0  0  0  0  0  0  0  0  0  0  0  0
  141.2733   78.1730  224.4619 H   0  0  0  0  0  0  0  0  0  0  0  0
  141.4091   76.2873  222.8561 H   0  0  0  0  0  0  0  0  0  0  0  0
  139.8222   77.1961  222.7762 H   0  0  0  0  0  0  0  0  0  0  0  0
  138.7318   69.8080  221.9453 H   0  0  0  0  0  0  0  0  0  0  0  0
  139.1081   68.2261  223.8123 H   0  0  0  0  0  0  0  0  0  0  0  0
  139.9006   67.8244  226.0954 H   0  0  0  0  0  0  0  0  0  0  0  0
  141.4984   71.0693  228.3978 H   0  0  0  0  0  0  0  0  0  0  0  0
  141.0963   72.6006  226.4903 H   0  0  0  0  0  0  0  0  0  0  0  0
  1  2  2  0
  2  3  1  0
  3  4  1  0
  4  5  1  0
  5  6  2  0
  5  7  1  0
  7  8  1  0
  8  9  1  0
  9 10  1  0
 10 11  1  0
 11 12  1  0
 12 13  1  0
 13 14  1  0
 14 15  1  0
 15 16  1  0
 16 17  1  0
  2 18  1  0
 18 19  2  0
 19 20  1  0
 20 21  2  0
 21 22  1  0
 22 23  2  0
 23 24  1  0
 23 25  1  0
 25 26  2  0
 26 27  1  0
 27 28  2  0
 11  7  1  0
 17 12  1  0
 28 18  1  0
 27 21  1  0
  3 29  1  0
  4 30  1  0
  4 31  1  0
  8 32  1  0
  8 33  1  0
  9 34  1  0
  9 35  1  0
 10 36  1  0
 10 37  1  0
 11 38  1  1
 12 39  1  0
 13 40  1  0
 13 41  1  0
 14 42  1  0
 14 43  1  0
 15 44  1  0
 15 45  1  0
 16 46  1  0
 16 47  1  0
 17 48  1  0
 17 49  1  0
 19 50  1  0
 20 51  1  0
 22 52  1  0
 25 53  1  0
 26 54  1  0
M  END
>  <smiles>  (90) 
O=C(NCC(=O)N1CCCC1C1CCCCC1)c1ccc2cc(Cl)ccc2n1

>  <score_type>  (90) 
oracle

>  <origin>  (90) 
autodockgpu

>  <m_score__min__energy>  (90) 
-8.8399999999999999

>  <m_primary>  (90) 
energy

>  <rmsd>  (90) 
1.851685769270057

>  <m_score__min__rmsd>  (90) 
1.851685769270057

>  <meeko>  (90) 
{"free_energy": -7.92, "intermolecular_energy": -9.42, "internal_energy": -1.57, "cluster_size": 24, "cluster_id": 1, "rank_in_cluster": 16}

>  <energy>  (90) 
-8.09

>  <cluster_rmsd>  (90) 
0.34

>  <cluster>  (90) 
4

$$$$

     RDKit          3D

 54 57  0  0  0  0  0  0  0  0999 V2000
  140.2440   72.4190  220.8010 O   0  0  0  0  0  0  0  0  0  0  0  0
  139.9880   72.7860  221.9960 C   0  0  0  0  0  0  0  0  0  0  0  0
  139.6520   74.1650  222.2450 N   0  0  0  0  0  0  0  0  0  0  0  0
  139.5730   75.1660  221.2550 C   0  0  0  0  0  0  0  0  0  0  0  0
  140.6890   76.0200  220.9390 C   0  0  0  0  0  0  0  0  0  0  0  0
  140.9720   76.8990  221.8560 O   0  0  0  0  0  0  0  0  0  0  0  0
  141.5290   76.0720  219.8020 N   0  0  0  0  0  0  0  0  0  0  0  0
  141.5020   77.2120  218.8640 C   0  0  0  0  0  0  0  0  0  0  0  0
  142.9320   77.2420  218.3190 C   0  0  0  0  0  0  0  0  0  0  0  0
  143.2310   75.7770  218.2590 C   0  0  0  0  0  0  0  0  0  0  0  0
  142.4930   75.1030  219.3390 C   0  0  1  0  0  0  0  0  0  0  0  0
  143.3510   74.4650  220.4020 C   0  0  0  0  0  0  0  0  0  0  0  0
  144.7370   74.9520  220.4660 C   0  0  0  0  0  0  0  0  0  0  0  0
  145.8380   74.0480  220.8210 C   0  0  0  0  0  0  0  0  0  0  0  0
  145.4040   72.6550  221.2220 C   0  0  0  0  0  0  0  0  0  0  0  0
  144.4680   72.2200  220.0830 C   0  0  0  0  0  0  0  0  0  0  0  0
  143.1920   72.9470  220.3010 C   0  0  0  0  0  0  0  0  0  0  0  0
  140.0350   71.8130  223.0900 C   0  0  0  0  0  0  0  0  0  0  0  0
  139.5690   70.5370  222.8520 C   0  0  0  0  0  0  0  0  0  0  0  0
  139.5960   69.5980  223.8580 C   0  0  0  0  0  0  0  0  0  0  0  0
  140.0880   69.9270  225.1030 C   0  0  0  0  0  0  0  0  0  0  0  0
  140.1370   69.0250  226.1480 C   0  0  0  0  0  0  0  0  0  0  0  0
  140.6270   69.3630  227.3800 C   0  0  0  0  0  0  0  0  0  0  0  0
  140.6850   68.2010  228.7110 Cl  0  0  0  0  0  0  0  0  0  0  0  0
  141.0930   70.6610  227.5890 C   0  0  0  0  0  0  0  0  0  0  0  0
  141.0500   71.5750  226.5540 C   0  0  0  0  0  0  0  0  0  0  0  0
  140.5470   71.2150  225.3040 C   0  0  0  0  0  0  0  0  0  0  0  0
  140.5140   72.1250  224.3070 N   0  0  0  0  0  0  0  0  0  0  0  0
  139.4600   74.3750  223.2660 H   0  0  0  0  0  0  0  0  0  0  0  0
  139.3041   74.6529  220.3199 H   0  0  0  0  0  0  0  0  0  0  0  0
  138.8603   75.8750  221.7015 H   0  0  0  0  0  0  0  0  0  0  0  0
  140.7744   77.0427  218.0565 H   0  0  0  0  0  0  0  0  0  0  0  0
  141.1985   78.1570  219.3382 H   0  0  0  0  0  0  0  0  0  0  0  0
  142.9775   77.7070  217.3232 H   0  0  0  0  0  0  0  0  0  0  0  0
  143.6401   77.8303  218.9211 H   0  0  0  0  0  0  0  0  0  0  0  0
  142.9143   75.3736  217.2859 H   0  0  0  0  0  0  0  0  0  0  0  0
  144.3113   75.6085  218.3798 H   0  0  0  0  0  0  0  0  0  0  0  0
  141.9803   74.2036  218.9673 H   0  0  0  0  0  0  0  0  0  0  0  0
  142.9857   74.7876  221.3881 H   0  0  0  0  0  0  0  0  0  0  0  0
  144.9729   75.3573  219.4710 H   0  0  0  0  0  0  0  0  0  0  0  0
  144.7107   75.6488  221.3167 H   0  0  0  0  0  0  0  0  0  0  0  0
  146.5058   73.9624  219.9511 H   0  0  0  0  0  0  0  0  0  0  0  0
  146.3306   74.4868  221.7012 H   0  0  0  0  0  0  0  0  0  0  0  0
  146.2701   71.9810  221.2964 H   0  0  0  0  0  0  0  0  0  0  0  0
  144.9155   72.6289  222.2072 H   0  0  0  0  0  0  0  0  0  0  0  0
  144.9004   72.4909  219.1085 H   0  0  0  0  0  0  0  0  0  0  0  0
  144.3155   71.1306  220.0809 H   0  0  0  0  0  0  0  0  0  0  0  0
  142.5191   72.7248  219.4597 H   0  0  0  0  0  0  0  0  0  0  0  0
  142.7907   72.6038  221.2660 H   0  0  0  0  0  0  0  0  0  0  0  0
  139.1763   70.2701  221.8597 H   0  0  0  0  0  0  0  0  0  0  0  0
  139.2234   68.5807  223.6677 H   0  0  0  0  0  0  0  0  0  0  0  0
  139.7699   68.0011  225.9843 H   0  0  0  0  0  0  0  0  0  0  0  0
  141.4920   70.9548  228.5711 H   0  0  0  0  0  0  0  0  0  0  0  0
  141.4169   72.5990  226.7177 H   0  0  0  0  0  0  0  0  0  0  0  0
  1  2  2  0
  2  3  1  0
  3  4  1  0
  4  5  1  0
  5  6  2  0
  5  7  1  0
  7  8  1  0
  8  9  1  0
  9 10  1  0
 10 11  1  0
 11 12  1  0
 12 13  1  0
 13 14  1  0
 14 15  1  0
 15 16  1  0
 16 17  1  0
  2 18  1  0
 18 19  2  0
 19 20  1  0
 20 21  2  0
 21 22  1  0
 22 23  2  0
 23 24  1  0
 23 25  1  0
 25 26  2  0
 26 27  1  0
 27 28  2  0
 11  7  1  0
 17 12  1  0
 28 18  1  0
 27 21  1  0
  3 29  1  0
  4 30  1  0
  4 31  1  0
  8 32  1  0
  8 33  1  0
  9 34  1  0
  9 35  1  0
 10 36  1  0
 10 37  1  0
 11 38  1  6
 12 39  1  0
 13 40  1  0
 13 41  1  0
 14 42  1  0
 14 43  1  0
 15 44  1  0
 15 45  1  0
 16 46  1  0
 16 47  1  0
 17 48  1  0
 17 49  1  0
 19 50  1  0
 20 51  1  0
 22 52  1  0
 25 53  1  0
 26 54  1  0
M  END
>  <smiles>  (91) 
O=C(NCC(=O)N1CCCC1C1CCCCC1)c1ccc2cc(Cl)ccc2n1

>  <score_type>  (91) 
oracle

>  <origin>  (91) 
autodockgpu

>  <m_score__min__energy>  (91) 
-8.8399999999999999

>  <m_primary>  (91) 
energy

>  <rmsd>  (91) 
2.204677103383295

>  <m_score__min__rmsd>  (91) 
2.204677103383295

>  <meeko>  (91) 
{"free_energy": -8.12, "intermolecular_energy": -9.61, "internal_energy": -1.84, "cluster_size": 10, "cluster_id": 4, "rank_in_cluster": 1}

>  <energy>  (91) 
-8.08

>  <cluster_rmsd>  (91) 
0.45

>  <cluster>  (91) 
4

$$$$

     RDKit          3D

 54 57  0  0  0  0  0  0  0  0999 V2000
  139.8690   72.3210  220.8230 O   0  0  0  0  0  0  0  0  0  0  0  0
  139.7830   72.7090  222.0360 C   0  0  0  0  0  0  0  0  0  0  0  0
  139.5830   74.1100  222.3070 N   0  0  0  0  0  0  0  0  0  0  0  0
  139.4630   75.1110  221.3220 C   0  0  0  0  0  0  0  0  0  0  0  0
  140.0760   76.4060  221.4680 C   0  0  0  0  0  0  0  0  0  0  0  0
  140.0150   76.8990  222.6710 O   0  0  0  0  0  0  0  0  0  0  0  0
  140.7290   77.2390  220.5290 N   0  0  0  0  0  0  0  0  0  0  0  0
  140.5690   77.0470  219.0740 C   0  0  0  0  0  0  0  0  0  0  0  0
  140.7590   78.4610  218.5190 C   0  0  0  0  0  0  0  0  0  0  0  0
  141.8100   78.9790  219.4490 C   0  0  0  0  0  0  0  0  0  0  0  0
  141.6280   78.3430  220.7630 C   0  0  1  0  0  0  0  0  0  0  0  0
  141.2480   79.2780  221.8830 C   0  0  0  0  0  0  0  0  0  0  0  0
  141.0970   80.6890  221.4990 C   0  0  0  0  0  0  0  0  0  0  0  0
  141.4730   81.7660  222.4230 C   0  0  0  0  0  0  0  0  0  0  0  0
  141.8940   81.2970  223.7990 C   0  0  0  0  0  0  0  0  0  0  0  0
  142.9420   80.2090  223.5120 C   0  0  0  0  0  0  0  0  0  0  0  0
  142.1820   79.0150  223.0670 C   0  0  0  0  0  0  0  0  0  0  0  0
  139.8870   71.7370  223.1280 C   0  0  0  0  0  0  0  0  0  0  0  0
  139.4770   70.4420  222.8920 C   0  0  0  0  0  0  0  0  0  0  0  0
  139.5580   69.5030  223.8960 C   0  0  0  0  0  0  0  0  0  0  0  0
  140.0470   69.8530  225.1360 C   0  0  0  0  0  0  0  0  0  0  0  0
  140.1480   68.9530  226.1790 C   0  0  0  0  0  0  0  0  0  0  0  0
  140.6340   69.3110  227.4070 C   0  0  0  0  0  0  0  0  0  0  0  0
  140.7600   68.1510  228.7350 Cl  0  0  0  0  0  0  0  0  0  0  0  0
  141.0420   70.6290  227.6130 C   0  0  0  0  0  0  0  0  0  0  0  0
  140.9470   71.5410  226.5810 C   0  0  0  0  0  0  0  0  0  0  0  0
  140.4480   71.1600  225.3350 C   0  0  0  0  0  0  0  0  0  0  0  0
  140.3630   72.0690  224.3400 N   0  0  0  0  0  0  0  0  0  0  0  0
  139.5290   74.3350  223.3410 H   0  0  0  0  0  0  0  0  0  0  0  0
  139.8705   74.6807  220.3953 H   0  0  0  0  0  0  0  0  0  0  0  0
  138.3920   75.3567  221.3734 H   0  0  0  0  0  0  0  0  0  0  0  0
  141.3328   76.3610  218.6791 H   0  0  0  0  0  0  0  0  0  0  0  0
  139.6029   76.5987  218.7988 H   0  0  0  0  0  0  0  0  0  0  0  0
  141.1110   78.4445  217.4770 H   0  0  0  0  0  0  0  0  0  0  0  0
  139.8412   79.0662  218.4813 H   0  0  0  0  0  0  0  0  0  0  0  0
  142.8073   78.7351  219.0541 H   0  0  0  0  0  0  0  0  0  0  0  0
  141.7223   80.0713  219.5446 H   0  0  0  0  0  0  0  0  0  0  0  0
  142.5857   77.9768  221.1613 H   0  0  0  0  0  0  0  0  0  0  0  0
  140.2182   79.0504  222.1957 H   0  0  0  0  0  0  0  0  0  0  0  0
  141.6988   80.8322  220.5894 H   0  0  0  0  0  0  0  0  0  0  0  0
  140.0058   80.8046  221.4222 H   0  0  0  0  0  0  0  0  0  0  0  0
  142.3115   82.3222  221.9786 H   0  0  0  0  0  0  0  0  0  0  0  0
  140.5735   82.3829  222.5655 H   0  0  0  0  0  0  0  0  0  0  0  0
  142.3349   82.1229  224.3765 H   0  0  0  0  0  0  0  0  0  0  0  0
  141.0495   80.9261  224.3984 H   0  0  0  0  0  0  0  0  0  0  0  0
  143.6301   80.5407  222.7205 H   0  0  0  0  0  0  0  0  0  0  0  0
  143.5496   79.9905  224.4025 H   0  0  0  0  0  0  0  0  0  0  0  0
  142.9015   78.2363  222.7738 H   0  0  0  0  0  0  0  0  0  0  0  0
  141.5473   78.7084  223.9115 H   0  0  0  0  0  0  0  0  0  0  0  0
  139.0859   70.1594  221.9035 H   0  0  0  0  0  0  0  0  0  0  0  0
  139.2312   68.4697  223.7075 H   0  0  0  0  0  0  0  0  0  0  0  0
  139.8269   67.9135  226.0169 H   0  0  0  0  0  0  0  0  0  0  0  0
  141.4369   70.9396  228.5916 H   0  0  0  0  0  0  0  0  0  0  0  0
  141.2685   72.5804  226.7429 H   0  0  0  0  0  0  0  0  0  0  0  0
  1  2  2  0
  2  3  1  0
  3  4  1  0
  4  5  1  0
  5  6  2  0
  5  7  1  0
  7  8  1  0
  8  9  1  0
  9 10  1  0
 10 11  1  0
 11 12  1  0
 12 13  1  0
 13 14  1  0
 14 15  1  0
 15 16  1  0
 16 17  1  0
  2 18  1  0
 18 19  2  0
 19 20  1  0
 20 21  2  0
 21 22  1  0
 22 23  2  0
 23 24  1  0
 23 25  1  0
 25 26  2  0
 26 27  1  0
 27 28  2  0
 11  7  1  0
 17 12  1  0
 28 18  1  0
 27 21  1  0
  3 29  1  0
  4 30  1  0
  4 31  1  0
  8 32  1  0
  8 33  1  0
  9 34  1  0
  9 35  1  0
 10 36  1  0
 10 37  1  0
 11 38  1  1
 12 39  1  0
 13 40  1  0
 13 41  1  0
 14 42  1  0
 14 43  1  0
 15 44  1  0
 15 45  1  0
 16 46  1  0
 16 47  1  0
 17 48  1  0
 17 49  1  0
 19 50  1  0
 20 51  1  0
 22 52  1  0
 25 53  1  0
 26 54  1  0
M  END
>  <smiles>  (92) 
O=C(NCC(=O)N1CCCC1C1CCCCC1)c1ccc2cc(Cl)ccc2n1

>  <score_type>  (92) 
oracle

>  <origin>  (92) 
autodockgpu

>  <m_score__min__energy>  (92) 
-8.8399999999999999

>  <m_primary>  (92) 
energy

>  <rmsd>  (92) 
1.8235044427693665

>  <m_score__min__rmsd>  (92) 
1.8235044427693665

>  <meeko>  (92) 
{"free_energy": -8.84, "intermolecular_energy": -10.33, "internal_energy": -1.4, "cluster_size": 24, "cluster_id": 1, "rank_in_cluster": 1}

>  <energy>  (92) 
-8.05

>  <cluster_rmsd>  (92) 
0.32

>  <cluster>  (92) 
4

$$$$

     RDKit          3D

 54 57  0  0  0  0  0  0  0  0999 V2000
  139.9720   70.1840  222.1700 O   0  0  0  0  0  0  0  0  0  0  0  0
  139.5120   71.3000  222.5830 C   0  0  0  0  0  0  0  0  0  0  0  0
  138.4350   71.2980  223.5410 N   0  0  0  0  0  0  0  0  0  0  0  0
  137.8400   70.1400  224.0800 C   0  0  0  0  0  0  0  0  0  0  0  0
  138.5820   68.9230  224.2850 C   0  0  0  0  0  0  0  0  0  0  0  0
  138.6750   68.1640  223.2320 O   0  0  0  0  0  0  0  0  0  0  0  0
  139.2230   68.4060  225.4350 N   0  0  0  0  0  0  0  0  0  0  0  0
  139.8410   67.0650  225.4480 C   0  0  0  0  0  0  0  0  0  0  0  0
  140.9690   67.2160  226.4710 C   0  0  0  0  0  0  0  0  0  0  0  0
  140.3200   68.1360  227.4570 C   0  0  0  0  0  0  0  0  0  0  0  0
  139.3820   69.0100  226.7360 C   0  0  1  0  0  0  0  0  0  0  0  0
  139.7350   70.4760  226.7450 C   0  0  0  0  0  0  0  0  0  0  0  0
  140.7820   70.8760  225.7930 C   0  0  0  0  0  0  0  0  0  0  0  0
  141.7370   71.9390  226.1270 C   0  0  0  0  0  0  0  0  0  0  0  0
  141.4650   72.6400  227.4410 C   0  0  0  0  0  0  0  0  0  0  0  0
  141.3080   71.4870  228.4460 C   0  0  0  0  0  0  0  0  0  0  0  0
  139.9650   70.9060  228.1950 C   0  0  0  0  0  0  0  0  0  0  0  0
  140.0760   72.5580  222.0860 C   0  0  0  0  0  0  0  0  0  0  0  0
  141.2300   72.5040  221.3330 C   0  0  0  0  0  0  0  0  0  0  0  0
  141.7890   73.6670  220.8510 C   0  0  0  0  0  0  0  0  0  0  0  0
  141.1990   74.8840  221.1190 C   0  0  0  0  0  0  0  0  0  0  0  0
  141.7180   76.0800  220.6620 C   0  0  0  0  0  0  0  0  0  0  0  0
  141.1250   77.2820  220.9340 C   0  0  0  0  0  0  0  0  0  0  0  0
  141.7960   78.8080  220.3450 Cl  0  0  0  0  0  0  0  0  0  0  0  0
  139.9570   77.3030  221.6970 C   0  0  0  0  0  0  0  0  0  0  0  0
  139.4260   76.1150  222.1610 C   0  0  0  0  0  0  0  0  0  0  0  0
  140.0430   74.8970  221.8760 C   0  0  0  0  0  0  0  0  0  0  0  0
  139.5070   73.7490  222.3400 N   0  0  0  0  0  0  0  0  0  0  0  0
  138.1180   72.2700  223.8200 H   0  0  0  0  0  0  0  0  0  0  0  0
  137.4437   70.4280  225.0649 H   0  0  0  0  0  0  0  0  0  0  0  0
  137.1385   69.8502  223.2838 H   0  0  0  0  0  0  0  0  0  0  0  0
  139.1181   66.2996  225.7666 H   0  0  0  0  0  0  0  0  0  0  0  0
  140.1941   66.7407  224.4580 H   0  0  0  0  0  0  0  0  0  0  0  0
  141.2342   66.2516  226.9287 H   0  0  0  0  0  0  0  0  0  0  0  0
  141.9187   67.5845  226.0558 H   0  0  0  0  0  0  0  0  0  0  0  0
  139.7745   67.5476  228.2095 H   0  0  0  0  0  0  0  0  0  0  0  0
  141.0844   68.7426  227.9647 H   0  0  0  0  0  0  0  0  0  0  0  0
  138.4120   69.0616  227.2522 H   0  0  0  0  0  0  0  0  0  0  0  0
  138.8825   71.0447  226.3454 H   0  0  0  0  0  0  0  0  0  0  0  0
  141.3768   69.9745  225.5843 H   0  0  0  0  0  0  0  0  0  0  0  0
  140.2045   71.3181  224.9678 H   0  0  0  0  0  0  0  0  0  0  0  0
  142.7419   71.4943  226.1769 H   0  0  0  0  0  0  0  0  0  0  0  0
  141.6417   72.7023  225.3407 H   0  0  0  0  0  0  0  0  0  0  0  0
  142.3069   73.2908  227.7196 H   0  0  0  0  0  0  0  0  0  0  0  0
  140.5801   73.2922  227.4001 H   0  0  0  0  0  0  0  0  0  0  0  0
  142.0887   70.7293  228.2836 H   0  0  0  0  0  0  0  0  0  0  0  0
  141.4071   71.8400  229.4831 H   0  0  0  0  0  0  0  0  0  0  0  0
  139.8433   70.0240  228.8410 H   0  0  0  0  0  0  0  0  0  0  0  0
  139.2305   71.6952  228.4136 H   0  0  0  0  0  0  0  0  0  0  0  0
  141.7030   71.5345  221.1178 H   0  0  0  0  0  0  0  0  0  0  0  0
  142.7094   73.6247  220.2501 H   0  0  0  0  0  0  0  0  0  0  0  0
  142.6383   76.0650  220.0597 H   0  0  0  0  0  0  0  0  0  0  0  0
  139.4627   78.2583  221.9274 H   0  0  0  0  0  0  0  0  0  0  0  0
  138.5052   76.1298  222.7626 H   0  0  0  0  0  0  0  0  0  0  0  0
  1  2  2  0
  2  3  1  0
  3  4  1  0
  4  5  1  0
  5  6  2  0
  5  7  1  0
  7  8  1  0
  8  9  1  0
  9 10  1  0
 10 11  1  0
 11 12  1  0
 12 13  1  0
 13 14  1  0
 14 15  1  0
 15 16  1  0
 16 17  1  0
  2 18  1  0
 18 19  2  0
 19 20  1  0
 20 21  2  0
 21 22  1  0
 22 23  2  0
 23 24  1  0
 23 25  1  0
 25 26  2  0
 26 27  1  0
 27 28  2  0
 11  7  1  0
 17 12  1  0
 28 18  1  0
 27 21  1  0
  3 29  1  0
  4 30  1  0
  4 31  1  0
  8 32  1  0
  8 33  1  0
  9 34  1  0
  9 35  1  0
 10 36  1  0
 10 37  1  0
 11 38  1  1
 12 39  1  0
 13 40  1  0
 13 41  1  0
 14 42  1  0
 14 43  1  0
 15 44  1  0
 15 45  1  0
 16 46  1  0
 16 47  1  0
 17 48  1  0
 17 49  1  0
 19 50  1  0
 20 51  1  0
 22 52  1  0
 25 53  1  0
 26 54  1  0
M  END
>  <smiles>  (93) 
O=C(NCC(=O)N1CCCC1C1CCCCC1)c1ccc2cc(Cl)ccc2n1

>  <score_type>  (93) 
oracle

>  <origin>  (93) 
autodockgpu

>  <m_score__min__energy>  (93) 
-8.8399999999999999

>  <m_primary>  (93) 
energy

>  <rmsd>  (93) 
8.581027995175551

>  <m_score__min__rmsd>  (93) 
8.581027995175551

>  <meeko>  (93) 
{"free_energy": -7.88, "intermolecular_energy": -9.37, "internal_energy": -1.98, "cluster_size": 1, "cluster_id": 5, "rank_in_cluster": 1}

>  <energy>  (93) 
-7.96

>  <cluster_rmsd>  (93) 
0.23

>  <cluster>  (93) 
4

$$$$

     RDKit          3D

 54 57  0  0  0  0  0  0  0  0999 V2000
  140.3580   72.7390  220.6120 O   0  0  0  0  0  0  0  0  0  0  0  0
  140.0580   73.0770  221.8050 C   0  0  0  0  0  0  0  0  0  0  0  0
  139.7780   74.4620  222.0890 N   0  0  0  0  0  0  0  0  0  0  0  0
  139.8000   75.4990  221.1330 C   0  0  0  0  0  0  0  0  0  0  0  0
  141.0210   75.9370  220.5080 C   0  0  0  0  0  0  0  0  0  0  0  0
  142.0150   75.1060  220.6230 O   0  0  0  0  0  0  0  0  0  0  0  0
  141.3280   77.1180  219.7920 N   0  0  0  0  0  0  0  0  0  0  0  0
  141.1660   77.2080  218.3280 C   0  0  0  0  0  0  0  0  0  0  0  0
  140.8700   78.6930  218.1050 C   0  0  0  0  0  0  0  0  0  0  0  0
  141.7460   79.3050  219.1530 C   0  0  0  0  0  0  0  0  0  0  0  0
  141.8410   78.3730  220.2880 C   0  0  1  0  0  0  0  0  0  0  0  0
  141.2400   78.8700  221.5780 C   0  0  0  0  0  0  0  0  0  0  0  0
  140.3490   80.0330  221.4490 C   0  0  0  0  0  0  0  0  0  0  0  0
  140.2910   81.0570  222.4990 C   0  0  0  0  0  0  0  0  0  0  0  0
  141.1090   80.7410  223.7330 C   0  0  0  0  0  0  0  0  0  0  0  0
  142.4940   80.3790  223.1720 C   0  0  0  0  0  0  0  0  0  0  0  0
  142.3620   79.0120  222.6080 C   0  0  0  0  0  0  0  0  0  0  0  0
  140.0010   72.0650  222.8640 C   0  0  0  0  0  0  0  0  0  0  0  0
  139.3220   70.8920  222.6110 C   0  0  0  0  0  0  0  0  0  0  0  0
  139.2460   69.9200  223.5840 C   0  0  0  0  0  0  0  0  0  0  0  0
  139.8460   70.1150  224.8090 C   0  0  0  0  0  0  0  0  0  0  0  0
  139.8010   69.1750  225.8200 C   0  0  0  0  0  0  0  0  0  0  0  0
  140.3990   69.3800  227.0330 C   0  0  0  0  0  0  0  0  0  0  0  0
  140.3340   68.1710  228.3220 Cl  0  0  0  0  0  0  0  0  0  0  0  0
  141.0790   70.5770  227.2580 C   0  0  0  0  0  0  0  0  0  0  0  0
  141.1340   71.5270  226.2570 C   0  0  0  0  0  0  0  0  0  0  0  0
  140.5180   71.3030  225.0250 C   0  0  0  0  0  0  0  0  0  0  0  0
  140.5840   72.2460  224.0620 N   0  0  0  0  0  0  0  0  0  0  0  0
  139.5440   74.6450  223.1060 H   0  0  0  0  0  0  0  0  0  0  0  0
  139.1345   75.1796  220.3175 H   0  0  0  0  0  0  0  0  0  0  0  0
  139.5238   76.3754  221.7377 H   0  0  0  0  0  0  0  0  0  0  0  0
  142.0877   76.9063  217.8090 H   0  0  0  0  0  0  0  0  0  0  0  0
  140.3793   76.5458  217.9374 H   0  0  0  0  0  0  0  0  0  0  0  0
  141.1584   79.0174  217.0943 H   0  0  0  0  0  0  0  0  0  0  0  0
  139.8068   78.9651  218.1795 H   0  0  0  0  0  0  0  0  0  0  0  0
  142.7483   79.4872  218.7381 H   0  0  0  0  0  0  0  0  0  0  0  0
  141.3196   80.2623  219.4873 H   0  0  0  0  0  0  0  0  0  0  0  0
  142.8836   78.2537  220.6179 H   0  0  0  0  0  0  0  0  0  0  0  0
  140.5256   78.1182  221.9447 H   0  0  0  0  0  0  0  0  0  0  0  0
  140.6405   80.5499  220.5228 H   0  0  0  0  0  0  0  0  0  0  0  0
  139.3480   79.5792  221.4959 H   0  0  0  0  0  0  0  0  0  0  0  0
  140.6594   82.0033  222.0761 H   0  0  0  0  0  0  0  0  0  0  0  0
  139.2419   81.1099  222.8254 H   0  0  0  0  0  0  0  0  0  0  0  0
  141.1714   81.6162  224.3965 H   0  0  0  0  0  0  0  0  0  0  0  0
  140.6710   79.9339  224.3386 H   0  0  0  0  0  0  0  0  0  0  0  0
  142.7858   81.0905  222.3855 H   0  0  0  0  0  0  0  0  0  0  0  0
  143.2683   80.4201  223.9522 H   0  0  0  0  0  0  0  0  0  0  0  0
  143.3125   78.7445  222.1233 H   0  0  0  0  0  0  0  0  0  0  0  0
  142.1115   78.3447  223.4458 H   0  0  0  0  0  0  0  0  0  0  0  0
  138.8420   70.7327  221.6342 H   0  0  0  0  0  0  0  0  0  0  0  0
  138.7041   68.9842  223.3823 H   0  0  0  0  0  0  0  0  0  0  0  0
  139.2664   68.2299  225.6438 H   0  0  0  0  0  0  0  0  0  0  0  0
  141.5679   70.7630  228.2257 H   0  0  0  0  0  0  0  0  0  0  0  0
  141.6698   72.4715  226.4330 H   0  0  0  0  0  0  0  0  0  0  0  0
  1  2  2  0
  2  3  1  0
  3  4  1  0
  4  5  1  0
  5  6  2  0
  5  7  1  0
  7  8  1  0
  8  9  1  0
  9 10  1  0
 10 11  1  0
 11 12  1  0
 12 13  1  0
 13 14  1  0
 14 15  1  0
 15 16  1  0
 16 17  1  0
  2 18  1  0
 18 19  2  0
 19 20  1  0
 20 21  2  0
 21 22  1  0
 22 23  2  0
 23 24  1  0
 23 25  1  0
 25 26  2  0
 26 27  1  0
 27 28  2  0
 11  7  1  0
 17 12  1  0
 28 18  1  0
 27 21  1  0
  3 29  1  0
  4 30  1  0
  4 31  1  0
  8 32  1  0
  8 33  1  0
  9 34  1  0
  9 35  1  0
 10 36  1  0
 10 37  1  0
 11 38  1  1
 12 39  1  0
 13 40  1  0
 13 41  1  0
 14 42  1  0
 14 43  1  0
 15 44  1  0
 15 45  1  0
 16 46  1  0
 16 47  1  0
 17 48  1  0
 17 49  1  0
 19 50  1  0
 20 51  1  0
 22 52  1  0
 25 53  1  0
 26 54  1  0
M  END
>  <smiles>  (94) 
O=C(NCC(=O)N1CCCC1C1CCCCC1)c1ccc2cc(Cl)ccc2n1

>  <score_type>  (94) 
oracle

>  <origin>  (94) 
autodockgpu

>  <m_score__min__energy>  (94) 
-8.8399999999999999

>  <m_primary>  (94) 
energy

>  <rmsd>  (94) 
2.1502714594922505

>  <m_score__min__rmsd>  (94) 
2.1502714594922505

>  <meeko>  (94) 
{"free_energy": -8.05, "intermolecular_energy": -9.54, "internal_energy": -1.31, "cluster_size": 24, "cluster_id": 1, "rank_in_cluster": 13}

>  <energy>  (94) 
-7.83

>  <cluster_rmsd>  (94) 
0.41

>  <cluster>  (94) 
4

$$$$

     RDKit          3D

 54 57  0  0  0  0  0  0  0  0999 V2000
  139.7570   73.1610  220.3210 O   0  0  0  0  0  0  0  0  0  0  0  0
  139.7080   73.3830  221.5770 C   0  0  0  0  0  0  0  0  0  0  0  0
  139.5860   74.7410  222.0420 N   0  0  0  0  0  0  0  0  0  0  0  0
  139.5050   75.8730  221.2050 C   0  0  0  0  0  0  0  0  0  0  0  0
  140.6790   76.5220  220.6800 C   0  0  0  0  0  0  0  0  0  0  0  0
  141.1220   77.5060  221.4070 O   0  0  0  0  0  0  0  0  0  0  0  0
  141.4310   76.2780  219.5070 N   0  0  0  0  0  0  0  0  0  0  0  0
  141.5040   77.2610  218.4090 C   0  0  0  0  0  0  0  0  0  0  0  0
  142.8790   76.9880  217.7930 C   0  0  0  0  0  0  0  0  0  0  0  0
  142.9530   75.5000  217.9430 C   0  0  0  0  0  0  0  0  0  0  0  0
  142.2050   75.1130  219.1500 C   0  0  1  0  0  0  0  0  0  0  0  0
  143.0350   74.5070  220.2530 C   0  0  0  0  0  0  0  0  0  0  0  0
  144.4530   74.8960  220.2580 C   0  0  0  0  0  0  0  0  0  0  0  0
  145.4930   73.9480  220.6760 C   0  0  0  0  0  0  0  0  0  0  0  0
  144.9680   72.6290  221.2010 C   0  0  0  0  0  0  0  0  0  0  0  0
  143.9820   72.1680  220.1150 C   0  0  0  0  0  0  0  0  0  0  0  0
  142.7660   73.0010  220.2850 C   0  0  0  0  0  0  0  0  0  0  0  0
  139.7740   72.2660  222.5240 C   0  0  0  0  0  0  0  0  0  0  0  0
  139.2280   71.0570  222.1480 C   0  0  0  0  0  0  0  0  0  0  0  0
  139.2710   69.9870  223.0140 C   0  0  0  0  0  0  0  0  0  0  0  0
  139.8580   70.1190  224.2540 C   0  0  0  0  0  0  0  0  0  0  0  0
  139.9280   69.0790  225.1610 C   0  0  0  0  0  0  0  0  0  0  0  0
  140.5110   69.2220  226.3900 C   0  0  0  0  0  0  0  0  0  0  0  0
  140.5950   67.8860  227.5440 Cl  0  0  0  0  0  0  0  0  0  0  0  0
  141.0570   70.4580  226.7390 C   0  0  0  0  0  0  0  0  0  0  0  0
  140.9950   71.5080  225.8440 C   0  0  0  0  0  0  0  0  0  0  0  0
  140.3950   71.3460  224.5940 C   0  0  0  0  0  0  0  0  0  0  0  0
  140.3460   72.3860  223.7350 N   0  0  0  0  0  0  0  0  0  0  0  0
  139.5580   74.8250  223.0980 H   0  0  0  0  0  0  0  0  0  0  0  0
  138.9062   75.5690  220.3338 H   0  0  0  0  0  0  0  0  0  0  0  0
  139.1064   76.6368  221.8890 H   0  0  0  0  0  0  0  0  0  0  0  0
  140.7018   77.0942  217.6750 H   0  0  0  0  0  0  0  0  0  0  0  0
  141.3796   78.2999  218.7484 H   0  0  0  0  0  0  0  0  0  0  0  0
  142.9187   77.2924  216.7367 H   0  0  0  0  0  0  0  0  0  0  0  0
  143.7088   77.5382  218.2606 H   0  0  0  0  0  0  0  0  0  0  0  0
  142.5092   75.0159  217.0606 H   0  0  0  0  0  0  0  0  0  0  0  0
  144.0024   75.1826  218.0328 H   0  0  0  0  0  0  0  0  0  0  0  0
  141.5388   74.2614  218.9475 H   0  0  0  0  0  0  0  0  0  0  0  0
  142.7122   74.9378  221.2123 H   0  0  0  0  0  0  0  0  0  0  0  0
  144.6989   75.1971  219.2290 H   0  0  0  0  0  0  0  0  0  0  0  0
  144.4920   75.6627  221.0458 H   0  0  0  0  0  0  0  0  0  0  0  0
  146.1369   73.7404  219.8086 H   0  0  0  0  0  0  0  0  0  0  0  0
  146.0319   74.4232  221.5089 H   0  0  0  0  0  0  0  0  0  0  0  0
  145.7850   71.9025  221.3224 H   0  0  0  0  0  0  0  0  0  0  0  0
  144.4974   72.7223  222.1908 H   0  0  0  0  0  0  0  0  0  0  0  0
  144.4146   72.3230  219.1156 H   0  0  0  0  0  0  0  0  0  0  0  0
  143.7521   71.0964  220.2088 H   0  0  0  0  0  0  0  0  0  0  0  0
  142.0636   72.7576  219.4742 H   0  0  0  0  0  0  0  0  0  0  0  0
  142.3588   72.7711  221.2807 H   0  0  0  0  0  0  0  0  0  0  0  0
  138.7593   70.9474  221.1589 H   0  0  0  0  0  0  0  0  0  0  0  0
  138.8348   69.0226  222.7147 H   0  0  0  0  0  0  0  0  0  0  0  0
  139.5006   68.1036  224.8855 H   0  0  0  0  0  0  0  0  0  0  0  0
  141.5338   70.5951  227.7208 H   0  0  0  0  0  0  0  0  0  0  0  0
  141.4233   72.4831  226.1193 H   0  0  0  0  0  0  0  0  0  0  0  0
  1  2  2  0
  2  3  1  0
  3  4  1  0
  4  5  1  0
  5  6  2  0
  5  7  1  0
  7  8  1  0
  8  9  1  0
  9 10  1  0
 10 11  1  0
 11 12  1  0
 12 13  1  0
 13 14  1  0
 14 15  1  0
 15 16  1  0
 16 17  1  0
  2 18  1  0
 18 19  2  0
 19 20  1  0
 20 21  2  0
 21 22  1  0
 22 23  2  0
 23 24  1  0
 23 25  1  0
 25 26  2  0
 26 27  1  0
 27 28  2  0
 11  7  1  0
 17 12  1  0
 28 18  1  0
 27 21  1  0
  3 29  1  0
  4 30  1  0
  4 31  1  0
  8 32  1  0
  8 33  1  0
  9 34  1  0
  9 35  1  0
 10 36  1  0
 10 37  1  0
 11 38  1  6
 12 39  1  0
 13 40  1  0
 13 41  1  0
 14 42  1  0
 14 43  1  0
 15 44  1  0
 15 45  1  0
 16 46  1  0
 16 47  1  0
 17 48  1  0
 17 49  1  0
 19 50  1  0
 20 51  1  0
 22 52  1  0
 25 53  1  0
 26 54  1  0
M  END
>  <smiles>  (95) 
O=C(NCC(=O)N1CCCC1C1CCCCC1)c1ccc2cc(Cl)ccc2n1

>  <score_type>  (95) 
oracle

>  <origin>  (95) 
autodockgpu

>  <m_score__min__energy>  (95) 
-8.8399999999999999

>  <m_primary>  (95) 
energy

>  <rmsd>  (95) 
2.4613474088947656

>  <m_score__min__rmsd>  (95) 
2.4613474088947656

>  <meeko>  (95) 
{"free_energy": -7.3, "intermolecular_energy": -8.79, "internal_energy": -2.05, "cluster_size": 10, "cluster_id": 4, "rank_in_cluster": 10}

>  <energy>  (95) 
-7.7

>  <cluster_rmsd>  (95) 
0.56

>  <cluster>  (95) 
4

$$$$

     RDKit          3D

 54 57  0  0  0  0  0  0  0  0999 V2000
  134.7010   68.5120  225.3150 O   0  0  0  0  0  0  0  0  0  0  0  0
  135.0140   69.7150  225.0260 C   0  0  0  0  0  0  0  0  0  0  0  0
  136.0670   69.9520  224.0710 N   0  0  0  0  0  0  0  0  0  0  0  0
  136.7920   68.9420  223.4070 C   0  0  0  0  0  0  0  0  0  0  0  0
  138.2310   68.9500  223.3430 C   0  0  0  0  0  0  0  0  0  0  0  0
  138.7780   67.7700  223.3590 O   0  0  0  0  0  0  0  0  0  0  0  0
  139.1540   70.0200  223.2720 N   0  0  0  0  0  0  0  0  0  0  0  0
  139.1920   70.9410  222.1190 C   0  0  0  0  0  0  0  0  0  0  0  0
  139.7040   72.2440  222.7380 C   0  0  0  0  0  0  0  0  0  0  0  0
  140.6710   71.7050  223.7450 C   0  0  0  0  0  0  0  0  0  0  0  0
  140.1810   70.3980  224.2130 C   0  0  1  0  0  0  0  0  0  0  0  0
  139.7970   70.3400  225.6690 C   0  0  0  0  0  0  0  0  0  0  0  0
  140.5480   71.2440  226.5530 C   0  0  0  0  0  0  0  0  0  0  0  0
  140.8790   70.8500  227.9280 C   0  0  0  0  0  0  0  0  0  0  0  0
  140.2830   69.5290  228.3650 C   0  0  0  0  0  0  0  0  0  0  0  0
  140.6720   68.5600  227.2360 C   0  0  0  0  0  0  0  0  0  0  0  0
  139.7690   68.8720  226.1000 C   0  0  0  0  0  0  0  0  0  0  0  0
  134.3060   70.8310  225.6600 C   0  0  0  0  0  0  0  0  0  0  0  0
  133.2820   70.5420  226.5370 C   0  0  0  0  0  0  0  0  0  0  0  0
  132.5940   71.5660  227.1490 C   0  0  0  0  0  0  0  0  0  0  0  0
  132.9250   72.8790  226.8880 C   0  0  0  0  0  0  0  0  0  0  0  0
  132.2680   73.9440  227.4730 C   0  0  0  0  0  0  0  0  0  0  0  0
  132.6040   75.2430  227.2060 C   0  0  0  0  0  0  0  0  0  0  0  0
  131.7570   76.5990  227.9590 Cl  0  0  0  0  0  0  0  0  0  0  0  0
  133.6460   75.5020  226.3160 C   0  0  0  0  0  0  0  0  0  0  0  0
  134.3130   74.4480  225.7230 C   0  0  0  0  0  0  0  0  0  0  0  0
  133.9580   73.1280  226.0040 C   0  0  0  0  0  0  0  0  0  0  0  0
  134.6230   72.1140  225.4130 N   0  0  0  0  0  0  0  0  0  0  0  0
  136.2570   70.9810  223.9000 H   0  0  0  0  0  0  0  0  0  0  0  0
  136.5108   67.9940  223.8889 H   0  0  0  0  0  0  0  0  0  0  0  0
  136.5138   69.1117  222.3564 H   0  0  0  0  0  0  0  0  0  0  0  0
  139.8798   70.5748  221.3426 H   0  0  0  0  0  0  0  0  0  0  0  0
  138.2184   71.0511  221.6190 H   0  0  0  0  0  0  0  0  0  0  0  0
  140.2054   72.8785  221.9923 H   0  0  0  0  0  0  0  0  0  0  0  0
  138.9199   72.8923  223.1562 H   0  0  0  0  0  0  0  0  0  0  0  0
  141.6611   71.5852  223.2810 H   0  0  0  0  0  0  0  0  0  0  0  0
  140.7571   72.4000  224.5932 H   0  0  0  0  0  0  0  0  0  0  0  0
  140.9876   69.6501  224.2176 H   0  0  0  0  0  0  0  0  0  0  0  0
  138.7845   70.7548  225.7821 H   0  0  0  0  0  0  0  0  0  0  0  0
  141.5028   71.4537  226.0487 H   0  0  0  0  0  0  0  0  0  0  0  0
  139.8462   72.0779  226.7012 H   0  0  0  0  0  0  0  0  0  0  0  0
  141.9735   70.7766  228.0100 H   0  0  0  0  0  0  0  0  0  0  0  0
  140.4481   71.6195  228.5854 H   0  0  0  0  0  0  0  0  0  0  0  0
  140.7110   69.2044  229.3249 H   0  0  0  0  0  0  0  0  0  0  0  0
  139.1958   69.5841  228.5227 H   0  0  0  0  0  0  0  0  0  0  0  0
  141.7212   68.7148  226.9440 H   0  0  0  0  0  0  0  0  0  0  0  0
  140.5731   67.5113  227.5531 H   0  0  0  0  0  0  0  0  0  0  0  0
  140.0672   68.2533  225.2408 H   0  0  0  0  0  0  0  0  0  0  0  0
  138.7446   68.6590  226.4394 H   0  0  0  0  0  0  0  0  0  0  0  0
  133.0152   69.4958  226.7473 H   0  0  0  0  0  0  0  0  0  0  0  0
  131.7772   71.3357  227.8488 H   0  0  0  0  0  0  0  0  0  0  0  0
  131.4475   73.7409  228.1769 H   0  0  0  0  0  0  0  0  0  0  0  0
  133.9346   76.5386  226.0879 H   0  0  0  0  0  0  0  0  0  0  0  0
  135.1345   74.6516  225.0203 H   0  0  0  0  0  0  0  0  0  0  0  0
  1  2  2  0
  2  3  1  0
  3  4  1  0
  4  5  1  0
  5  6  2  0
  5  7  1  0
  7  8  1  0
  8  9  1  0
  9 10  1  0
 10 11  1  0
 11 12  1  0
 12 13  1  0
 13 14  1  0
 14 15  1  0
 15 16  1  0
 16 17  1  0
  2 18  1  0
 18 19  2  0
 19 20  1  0
 20 21  2  0
 21 22  1  0
 22 23  2  0
 23 24  1  0
 23 25  1  0
 25 26  2  0
 26 27  1  0
 27 28  2  0
 11  7  1  0
 17 12  1  0
 28 18  1  0
 27 21  1  0
  3 29  1  0
  4 30  1  0
  4 31  1  0
  8 32  1  0
  8 33  1  0
  9 34  1  0
  9 35  1  0
 10 36  1  0
 10 37  1  0
 11 38  1  1
 12 39  1  0
 13 40  1  0
 13 41  1  0
 14 42  1  0
 14 43  1  0
 15 44  1  0
 15 45  1  0
 16 46  1  0
 16 47  1  0
 17 48  1  0
 17 49  1  0
 19 50  1  0
 20 51  1  0
 22 52  1  0
 25 53  1  0
 26 54  1  0
M  END
>  <smiles>  (96) 
O=C(NCC(=O)N1CCCC1C1CCCCC1)c1ccc2cc(Cl)ccc2n1

>  <score_type>  (96) 
oracle

>  <origin>  (96) 
autodockgpu

>  <m_score__min__energy>  (96) 
-8.8399999999999999

>  <m_primary>  (96) 
energy

>  <rmsd>  (96) 
7.1420436013223165

>  <m_score__min__rmsd>  (96) 
7.1420436013223165

>  <meeko>  (96) 
{"free_energy": -8.33, "intermolecular_energy": -9.82, "internal_energy": -1.67, "cluster_size": 10, "cluster_id": 2, "rank_in_cluster": 5}

>  <energy>  (96) 
-7.37

>  <cluster_rmsd>  (96) 
0.96

>  <cluster>  (96) 
4

$$$$

     RDKit          3D

 54 57  0  0  0  0  0  0  0  0999 V2000
  139.8130   72.0500  220.7050 O   0  0  0  0  0  0  0  0  0  0  0  0
  139.4630   72.3990  221.8820 C   0  0  0  0  0  0  0  0  0  0  0  0
  138.8720   73.6980  222.0770 N   0  0  0  0  0  0  0  0  0  0  0  0
  138.6340   74.6360  221.0520 C   0  0  0  0  0  0  0  0  0  0  0  0
  139.1180   75.9910  221.1260 C   0  0  0  0  0  0  0  0  0  0  0  0
  138.3270   76.8130  221.7510 O   0  0  0  0  0  0  0  0  0  0  0  0
  140.3030   76.5840  220.6310 N   0  0  0  0  0  0  0  0  0  0  0  0
  140.7070   76.4580  219.2170 C   0  0  0  0  0  0  0  0  0  0  0  0
  141.4970   77.7460  218.9700 C   0  0  0  0  0  0  0  0  0  0  0  0
  142.1730   77.9080  220.2950 C   0  0  0  0  0  0  0  0  0  0  0  0
  141.2980   77.3530  221.3390 C   0  0  1  0  0  0  0  0  0  0  0  0
  140.7730   78.3550  222.3360 C   0  0  0  0  0  0  0  0  0  0  0  0
  140.1850   79.5710  221.7540 C   0  0  0  0  0  0  0  0  0  0  0  0
  140.3210   80.8690  222.4260 C   0  0  0  0  0  0  0  0  0  0  0  0
  140.9870   80.8080  223.7840 C   0  0  0  0  0  0  0  0  0  0  0  0
  142.2730   80.0050  223.5260 C   0  0  0  0  0  0  0  0  0  0  0  0
  141.8500   78.5880  223.3970 C   0  0  0  0  0  0  0  0  0  0  0  0
  139.6630   71.4850  223.0100 C   0  0  0  0  0  0  0  0  0  0  0  0
  139.3050   70.1630  222.8510 C   0  0  0  0  0  0  0  0  0  0  0  0
  139.4770   69.2770  223.8910 C   0  0  0  0  0  0  0  0  0  0  0  0
  140.0060   69.7060  225.0900 C   0  0  0  0  0  0  0  0  0  0  0  0
  140.1990   68.8600  226.1650 C   0  0  0  0  0  0  0  0  0  0  0  0
  140.7240   69.2970  227.3500 C   0  0  0  0  0  0  0  0  0  0  0  0
  140.9660   68.2080  228.7210 Cl  0  0  0  0  0  0  0  0  0  0  0  0
  141.0780   70.6400  227.4780 C   0  0  0  0  0  0  0  0  0  0  0  0
  140.8910   71.4990  226.4120 C   0  0  0  0  0  0  0  0  0  0  0  0
  140.3540   71.0380  225.2100 C   0  0  0  0  0  0  0  0  0  0  0  0
  140.1800   71.8940  224.1820 N   0  0  0  0  0  0  0  0  0  0  0  0
  138.6190   73.8990  223.0870 H   0  0  0  0  0  0  0  0  0  0  0  0
  139.0642   74.2056  220.1357 H   0  0  0  0  0  0  0  0  0  0  0  0
  137.5451   74.7772  221.1183 H   0  0  0  0  0  0  0  0  0  0  0  0
  141.3389   75.5708  219.0637 H   0  0  0  0  0  0  0  0  0  0  0  0
  139.8556   76.3328  218.5318 H   0  0  0  0  0  0  0  0  0  0  0  0
  142.2252   77.6259  218.1543 H   0  0  0  0  0  0  0  0  0  0  0  0
  140.8864   78.6062  218.6581 H   0  0  0  0  0  0  0  0  0  0  0  0
  143.1320   77.3692  220.2901 H   0  0  0  0  0  0  0  0  0  0  0  0
  142.3640   78.9733  220.4918 H   0  0  0  0  0  0  0  0  0  0  0  0
  141.8620   76.7047  222.0258 H   0  0  0  0  0  0  0  0  0  0  0  0
  139.8873   77.9280  222.8292 H   0  0  0  0  0  0  0  0  0  0  0  0
  140.6302   79.6872  220.7548 H   0  0  0  0  0  0  0  0  0  0  0  0
  139.1047   79.3747  221.8200 H   0  0  0  0  0  0  0  0  0  0  0  0
  140.9185   81.5290  221.7800 H   0  0  0  0  0  0  0  0  0  0  0  0
  139.2998   81.2411  222.5956 H   0  0  0  0  0  0  0  0  0  0  0  0
  141.2226   81.8180  224.1507 H   0  0  0  0  0  0  0  0  0  0  0  0
  140.3463   80.3500  224.5519 H   0  0  0  0  0  0  0  0  0  0  0  0
  142.7570   80.3456  222.5988 H   0  0  0  0  0  0  0  0  0  0  0  0
  143.0008   80.1363  224.3403 H   0  0  0  0  0  0  0  0  0  0  0  0
  142.7321   77.9863  223.1326 H   0  0  0  0  0  0  0  0  0  0  0  0
  141.4132   78.2967  224.3636 H   0  0  0  0  0  0  0  0  0  0  0  0
  138.8831   69.8170  221.8959 H   0  0  0  0  0  0  0  0  0  0  0  0
  139.1912   68.2223  223.7648 H   0  0  0  0  0  0  0  0  0  0  0  0
  139.9214   67.8003  226.0646 H   0  0  0  0  0  0  0  0  0  0  0  0
  141.5033   71.0129  228.4214 H   0  0  0  0  0  0  0  0  0  0  0  0
  141.1688   72.5586  226.5124 H   0  0  0  0  0  0  0  0  0  0  0  0
  1  2  2  0
  2  3  1  0
  3  4  1  0
  4  5  1  0
  5  6  2  0
  5  7  1  0
  7  8  1  0
  8  9  1  0
  9 10  1  0
 10 11  1  0
 11 12  1  0
 12 13  1  0
 13 14  1  0
 14 15  1  0
 15 16  1  0
 16 17  1  0
  2 18  1  0
 18 19  2  0
 19 20  1  0
 20 21  2  0
 21 22  1  0
 22 23  2  0
 23 24  1  0
 23 25  1  0
 25 26  2  0
 26 27  1  0
 27 28  2  0
 11  7  1  0
 17 12  1  0
 28 18  1  0
 27 21  1  0
  3 29  1  0
  4 30  1  0
  4 31  1  0
  8 32  1  0
  8 33  1  0
  9 34  1  0
  9 35  1  0
 10 36  1  0
 10 37  1  0
 11 38  1  1
 12 39  1  0
 13 40  1  0
 13 41  1  0
 14 42  1  0
 14 43  1  0
 15 44  1  0
 15 45  1  0
 16 46  1  0
 16 47  1  0
 17 48  1  0
 17 49  1  0
 19 50  1  0
 20 51  1  0
 22 52  1  0
 25 53  1  0
 26 54  1  0
M  END
>  <smiles>  (97) 
O=C(NCC(=O)N1CCCC1C1CCCCC1)c1ccc2cc(Cl)ccc2n1

>  <score_type>  (97) 
oracle

>  <origin>  (97) 
autodockgpu

>  <m_score__min__energy>  (97) 
-8.8399999999999999

>  <m_primary>  (97) 
energy

>  <rmsd>  (97) 
1.6584165066536947

>  <m_score__min__rmsd>  (97) 
1.6584165066536947

>  <meeko>  (97) 
{"free_energy": -8.35, "intermolecular_energy": -9.84, "internal_energy": -1.34, "cluster_size": 24, "cluster_id": 1, "rank_in_cluster": 9}

>  <energy>  (97) 
-7.3

>  <cluster_rmsd>  (97) 
0.67

>  <cluster>  (97) 
4

$$$$

     RDKit          3D

 54 57  0  0  0  0  0  0  0  0999 V2000
  139.4200   71.9270  220.6450 O   0  0  0  0  0  0  0  0  0  0  0  0
  139.3210   72.3720  221.8370 C   0  0  0  0  0  0  0  0  0  0  0  0
  138.9650   73.7540  222.0390 N   0  0  0  0  0  0  0  0  0  0  0  0
  138.7020   74.6760  221.0050 C   0  0  0  0  0  0  0  0  0  0  0  0
  139.5700   74.8150  219.8640 C   0  0  0  0  0  0  0  0  0  0  0  0
  138.9880   74.6240  218.7170 O   0  0  0  0  0  0  0  0  0  0  0  0
  140.9490   75.1170  219.7750 N   0  0  0  0  0  0  0  0  0  0  0  0
  141.8100   74.5320  218.7290 C   0  0  0  0  0  0  0  0  0  0  0  0
  142.8830   75.6050  218.5270 C   0  0  0  0  0  0  0  0  0  0  0  0
  143.0420   76.0980  219.9310 C   0  0  0  0  0  0  0  0  0  0  0  0
  141.7490   75.9700  220.6220 C   0  0  1  0  0  0  0  0  0  0  0  0
  141.1120   77.2710  221.0400 C   0  0  0  0  0  0  0  0  0  0  0  0
  141.8110   78.4840  220.5910 C   0  0  0  0  0  0  0  0  0  0  0  0
  141.8410   79.6900  221.4280 C   0  0  0  0  0  0  0  0  0  0  0  0
  141.0080   79.6020  222.6890 C   0  0  0  0  0  0  0  0  0  0  0  0
  141.4550   78.2790  223.3330 C   0  0  0  0  0  0  0  0  0  0  0  0
  140.8140   77.2000  222.5390 C   0  0  0  0  0  0  0  0  0  0  0  0
  139.5660   71.4830  222.9770 C   0  0  0  0  0  0  0  0  0  0  0  0
  139.2600   70.1460  222.8400 C   0  0  0  0  0  0  0  0  0  0  0  0
  139.4750   69.2830  223.8910 C   0  0  0  0  0  0  0  0  0  0  0  0
  139.9960   69.7510  225.0790 C   0  0  0  0  0  0  0  0  0  0  0  0
  140.2310   68.9300  226.1650 C   0  0  0  0  0  0  0  0  0  0  0  0
  140.7470   69.4040  227.3390 C   0  0  0  0  0  0  0  0  0  0  0  0
  141.0440   68.3460  228.7240 Cl  0  0  0  0  0  0  0  0  0  0  0  0
  141.0480   70.7630  227.4450 C   0  0  0  0  0  0  0  0  0  0  0  0
  140.8190   71.5970  226.3680 C   0  0  0  0  0  0  0  0  0  0  0  0
  140.2910   71.0970  225.1770 C   0  0  0  0  0  0  0  0  0  0  0  0
  140.0750   71.9310  224.1380 N   0  0  0  0  0  0  0  0  0  0  0  0
  138.9120   74.0310  223.0600 H   0  0  0  0  0  0  0  0  0  0  0  0
  137.7100   74.4165  220.6067 H   0  0  0  0  0  0  0  0  0  0  0  0
  138.8389   75.6401  221.5166 H   0  0  0  0  0  0  0  0  0  0  0  0
  142.2562   73.5854  219.0679 H   0  0  0  0  0  0  0  0  0  0  0  0
  141.2645   74.2851  217.8063 H   0  0  0  0  0  0  0  0  0  0  0  0
  143.8185   75.1760  218.1386 H   0  0  0  0  0  0  0  0  0  0  0  0
  142.6217   76.3829  217.7945 H   0  0  0  0  0  0  0  0  0  0  0  0
  143.8016   75.4962  220.4514 H   0  0  0  0  0  0  0  0  0  0  0  0
  143.3634   77.1500  219.9261 H   0  0  0  0  0  0  0  0  0  0  0  0
  141.8738   75.5124  221.6145 H   0  0  0  0  0  0  0  0  0  0  0  0
  140.1594   77.3852  220.5020 H   0  0  0  0  0  0  0  0  0  0  0  0
  142.8586   78.1962  220.4185 H   0  0  0  0  0  0  0  0  0  0  0  0
  141.2120   78.8035  219.7255 H   0  0  0  0  0  0  0  0  0  0  0  0
  142.8847   79.8802  221.7187 H   0  0  0  0  0  0  0  0  0  0  0  0
  141.4074   80.5003  220.8235 H   0  0  0  0  0  0  0  0  0  0  0  0
  141.2154   80.4520  223.3557 H   0  0  0  0  0  0  0  0  0  0  0  0
  139.9270   79.6329  222.4875 H   0  0  0  0  0  0  0  0  0  0  0  0
  142.5502   78.1847  223.2918 H   0  0  0  0  0  0  0  0  0  0  0  0
  141.1628   78.2276  224.3922 H   0  0  0  0  0  0  0  0  0  0  0  0
  141.1730   76.2317  222.9178 H   0  0  0  0  0  0  0  0  0  0  0  0
  139.7269   77.3225  222.6540 H   0  0  0  0  0  0  0  0  0  0  0  0
  138.8451   69.7695  221.8934 H   0  0  0  0  0  0  0  0  0  0  0  0
  139.2303   68.2161  223.7827 H   0  0  0  0  0  0  0  0  0  0  0  0
  139.9950   67.8588  226.0823 H   0  0  0  0  0  0  0  0  0  0  0  0
  141.4646   71.1668  228.3796 H   0  0  0  0  0  0  0  0  0  0  0  0
  141.0557   72.6681  226.4501 H   0  0  0  0  0  0  0  0  0  0  0  0
  1  2  2  0
  2  3  1  0
  3  4  1  0
  4  5  1  0
  5  6  2  0
  5  7  1  0
  7  8  1  0
  8  9  1  0
  9 10  1  0
 10 11  1  0
 11 12  1  0
 12 13  1  0
 13 14  1  0
 14 15  1  0
 15 16  1  0
 16 17  1  0
  2 18  1  0
 18 19  2  0
 19 20  1  0
 20 21  2  0
 21 22  1  0
 22 23  2  0
 23 24  1  0
 23 25  1  0
 25 26  2  0
 26 27  1  0
 27 28  2  0
 11  7  1  0
 17 12  1  0
 28 18  1  0
 27 21  1  0
  3 29  1  0
  4 30  1  0
  4 31  1  0
  8 32  1  0
  8 33  1  0
  9 34  1  0
  9 35  1  0
 10 36  1  0
 10 37  1  0
 11 38  1  1
 12 39  1  0
 13 40  1  0
 13 41  1  0
 14 42  1  0
 14 43  1  0
 15 44  1  0
 15 45  1  0
 16 46  1  0
 16 47  1  0
 17 48  1  0
 17 49  1  0
 19 50  1  0
 20 51  1  0
 22 52  1  0
 25 53  1  0
 26 54  1  0
M  END
>  <smiles>  (98) 
O=C(NCC(=O)N1CCCC1C1CCCCC1)c1ccc2cc(Cl)ccc2n1

>  <score_type>  (98) 
oracle

>  <origin>  (98) 
autodockgpu

>  <m_score__min__energy>  (98) 
-8.8399999999999999

>  <m_primary>  (98) 
energy

>  <rmsd>  (98) 
1.9123353818989919

>  <m_score__min__rmsd>  (98) 
1.9123353818989919

>  <meeko>  (98) 
{"free_energy": -7.81, "intermolecular_energy": -9.3, "internal_energy": -1.62, "cluster_size": 24, "cluster_id": 1, "rank_in_cluster": 21}

>  <energy>  (98) 
-7.88

>  <cluster_rmsd>  (98) 
0.0

>  <cluster>  (98) 
5

$$$$

     RDKit          3D

 54 57  0  0  0  0  0  0  0  0999 V2000
  140.1850   72.5350  220.7780 O   0  0  0  0  0  0  0  0  0  0  0  0
  139.9460   72.9060  221.9750 C   0  0  0  0  0  0  0  0  0  0  0  0
  139.6180   74.2860  222.2250 N   0  0  0  0  0  0  0  0  0  0  0  0
  139.5290   75.2840  221.2330 C   0  0  0  0  0  0  0  0  0  0  0  0
  140.6810   76.0220  220.7840 C   0  0  0  0  0  0  0  0  0  0  0  0
  141.0630   76.9700  221.5880 O   0  0  0  0  0  0  0  0  0  0  0  0
  141.4690   75.8960  219.6150 N   0  0  0  0  0  0  0  0  0  0  0  0
  141.4640   76.9260  218.5570 C   0  0  0  0  0  0  0  0  0  0  0  0
  142.8670   76.8070  217.9560 C   0  0  0  0  0  0  0  0  0  0  0  0
  143.0770   75.3280  218.0480 C   0  0  0  0  0  0  0  0  0  0  0  0
  142.3530   74.8240  219.2260 C   0  0  1  0  0  0  0  0  0  0  0  0
  143.2210   74.2530  220.3180 C   0  0  0  0  0  0  0  0  0  0  0  0
  144.5380   74.8890  220.4700 C   0  0  0  0  0  0  0  0  0  0  0  0
  145.7140   74.1020  220.8630 C   0  0  0  0  0  0  0  0  0  0  0  0
  145.4190   72.6580  221.2060 C   0  0  0  0  0  0  0  0  0  0  0  0
  144.5970   72.1560  220.0070 C   0  0  0  0  0  0  0  0  0  0  0  0
  143.2390   72.7300  220.1720 C   0  0  0  0  0  0  0  0  0  0  0  0
  140.0050   71.9350  223.0710 C   0  0  0  0  0  0  0  0  0  0  0  0
  139.5500   70.6550  222.8360 C   0  0  0  0  0  0  0  0  0  0  0  0
  139.5880   69.7170  223.8440 C   0  0  0  0  0  0  0  0  0  0  0  0
  140.0800   70.0530  225.0870 C   0  0  0  0  0  0  0  0  0  0  0  0
  140.1400   69.1540  226.1340 C   0  0  0  0  0  0  0  0  0  0  0  0
  140.6290   69.4980  227.3640 C   0  0  0  0  0  0  0  0  0  0  0  0
  140.7020   68.3400  228.6970 Cl  0  0  0  0  0  0  0  0  0  0  0  0
  141.0830   70.8010  227.5690 C   0  0  0  0  0  0  0  0  0  0  0  0
  141.0290   71.7130  226.5330 C   0  0  0  0  0  0  0  0  0  0  0  0
  140.5270   71.3460  225.2840 C   0  0  0  0  0  0  0  0  0  0  0  0
  140.4840   72.2540  224.2860 N   0  0  0  0  0  0  0  0  0  0  0  0
  139.4400   74.4990  223.2480 H   0  0  0  0  0  0  0  0  0  0  0  0
  139.1109   74.7944  220.3411 H   0  0  0  0  0  0  0  0  0  0  0  0
  138.9419   76.0623  221.7423 H   0  0  0  0  0  0  0  0  0  0  0  0
  140.6914   76.7149  217.8030 H   0  0  0  0  0  0  0  0  0  0  0  0
  141.2373   77.9343  218.9339 H   0  0  0  0  0  0  0  0  0  0  0  0
  142.8935   77.1571  216.9135 H   0  0  0  0  0  0  0  0  0  0  0  0
  143.6351   77.4118  218.4602 H   0  0  0  0  0  0  0  0  0  0  0  0
  142.6914   74.8416  217.1398 H   0  0  0  0  0  0  0  0  0  0  0  0
  144.1501   75.1057  218.1426 H   0  0  0  0  0  0  0  0  0  0  0  0
  141.7725   73.9229  218.9790 H   0  0  0  0  0  0  0  0  0  0  0  0
  142.7711   74.5027  221.2902 H   0  0  0  0  0  0  0  0  0  0  0  0
  144.7782   75.3481  219.4997 H   0  0  0  0  0  0  0  0  0  0  0  0
  144.3894   75.5527  221.3346 H   0  0  0  0  0  0  0  0  0  0  0  0
  146.4313   74.1171  220.0292 H   0  0  0  0  0  0  0  0  0  0  0  0
  146.1080   74.5661  221.7792 H   0  0  0  0  0  0  0  0  0  0  0  0
  146.3503   72.0822  221.3111 H   0  0  0  0  0  0  0  0  0  0  0  0
  144.8865   72.5484  222.1623 H   0  0  0  0  0  0  0  0  0  0  0  0
  145.0460   72.5019  219.0643 H   0  0  0  0  0  0  0  0  0  0  0  0
  144.5678   71.0570  219.9709 H   0  0  0  0  0  0  0  0  0  0  0  0
  142.6397   72.4599  219.2900 H   0  0  0  0  0  0  0  0  0  0  0  0
  142.8295   72.3158  221.1051 H   0  0  0  0  0  0  0  0  0  0  0  0
  139.1572   70.3832  221.8451 H   0  0  0  0  0  0  0  0  0  0  0  0
  139.2243   68.6960  223.6563 H   0  0  0  0  0  0  0  0  0  0  0  0
  139.7823   68.1263  225.9730 H   0  0  0  0  0  0  0  0  0  0  0  0
  141.4815   71.1003  228.5496 H   0  0  0  0  0  0  0  0  0  0  0  0
  141.3860   72.7408  226.6946 H   0  0  0  0  0  0  0  0  0  0  0  0
  1  2  2  0
  2  3  1  0
  3  4  1  0
  4  5  1  0
  5  6  2  0
  5  7  1  0
  7  8  1  0
  8  9  1  0
  9 10  1  0
 10 11  1  0
 11 12  1  0
 12 13  1  0
 13 14  1  0
 14 15  1  0
 15 16  1  0
 16 17  1  0
  2 18  1  0
 18 19  2  0
 19 20  1  0
 20 21  2  0
 21 22  1  0
 22 23  2  0
 23 24  1  0
 23 25  1  0
 25 26  2  0
 26 27  1  0
 27 28  2  0
 11  7  1  0
 17 12  1  0
 28 18  1  0
 27 21  1  0
  3 29  1  0
  4 30  1  0
  4 31  1  0
  8 32  1  0
  8 33  1  0
  9 34  1  0
  9 35  1  0
 10 36  1  0
 10 37  1  0
 11 38  1  6
 12 39  1  0
 13 40  1  0
 13 41  1  0
 14 42  1  0
 14 43  1  0
 15 44  1  0
 15 45  1  0
 16 46  1  0
 16 47  1  0
 17 48  1  0
 17 49  1  0
 19 50  1  0
 20 51  1  0
 22 52  1  0
 25 53  1  0
 26 54  1  0
M  END
>  <smiles>  (99) 
O=C(NCC(=O)N1CCCC1C1CCCCC1)c1ccc2cc(Cl)ccc2n1

>  <score_type>  (99) 
oracle

>  <origin>  (99) 
autodockgpu

>  <m_score__min__energy>  (99) 
-8.8399999999999999

>  <m_primary>  (99) 
energy

>  <rmsd>  (99) 
2.222484904592928

>  <m_score__min__rmsd>  (99) 
2.222484904592928

>  <meeko>  (99) 
{"free_energy": -7.96, "intermolecular_energy": -9.45, "internal_energy": -1.88, "cluster_size": 10, "cluster_id": 4, "rank_in_cluster": 6}

>  <energy>  (99) 
-6.61

>  <cluster_rmsd>  (99) 
0.0

>  <cluster>  (99) 
6

$$$$

     RDKit          3D

 54 57  0  0  0  0  0  0  0  0999 V2000
  139.3320   71.9810  220.8040 O   0  0  0  0  0  0  0  0  0  0  0  0
  139.4720   72.4260  221.9910 C   0  0  0  0  0  0  0  0  0  0  0  0
  139.4220   73.8490  222.2130 N   0  0  0  0  0  0  0  0  0  0  0  0
  139.2180   74.8140  221.2050 C   0  0  0  0  0  0  0  0  0  0  0  0
  140.0280   76.0010  221.1070 C   0  0  0  0  0  0  0  0  0  0  0  0
  141.2650   75.8420  221.4770 O   0  0  0  0  0  0  0  0  0  0  0  0
  139.7090   77.3120  220.6810 N   0  0  0  0  0  0  0  0  0  0  0  0
  138.3440   77.6860  220.2640 C   0  0  0  0  0  0  0  0  0  0  0  0
  138.2730   79.1740  220.6180 C   0  0  0  0  0  0  0  0  0  0  0  0
  139.6730   79.5960  220.3010 C   0  0  0  0  0  0  0  0  0  0  0  0
  140.5740   78.4610  220.5530 C   0  0  1  0  0  0  0  0  0  0  0  0
  141.5690   78.6660  221.6660 C   0  0  0  0  0  0  0  0  0  0  0  0
  141.0870   78.3220  223.0120 C   0  0  0  0  0  0  0  0  0  0  0  0
  141.5230   79.0870  224.1870 C   0  0  0  0  0  0  0  0  0  0  0  0
  142.5740   80.1370  223.9000 C   0  0  0  0  0  0  0  0  0  0  0  0
  141.9910   80.9260  222.7160 C   0  0  0  0  0  0  0  0  0  0  0  0
  142.1720   80.0650  221.5210 C   0  0  0  0  0  0  0  0  0  0  0  0
  139.6790   71.4970  223.1050 C   0  0  0  0  0  0  0  0  0  0  0  0
  139.3430   70.1720  222.9230 C   0  0  0  0  0  0  0  0  0  0  0  0
  139.5220   69.2720  223.9490 C   0  0  0  0  0  0  0  0  0  0  0  0
  140.0360   69.6890  225.1580 C   0  0  0  0  0  0  0  0  0  0  0  0
  140.2350   68.8300  226.2210 C   0  0  0  0  0  0  0  0  0  0  0  0
  140.7450   69.2550  227.4170 C   0  0  0  0  0  0  0  0  0  0  0  0
  140.9950   68.1470  228.7720 Cl  0  0  0  0  0  0  0  0  0  0  0  0
  141.0770   70.6010  227.5690 C   0  0  0  0  0  0  0  0  0  0  0  0
  140.8840   71.4740  226.5160 C   0  0  0  0  0  0  0  0  0  0  0  0
  140.3620   71.0240  225.3030 C   0  0  0  0  0  0  0  0  0  0  0  0
  140.1810   71.8950  224.2870 N   0  0  0  0  0  0  0  0  0  0  0  0
  139.5530   74.1220  223.2290 H   0  0  0  0  0  0  0  0  0  0  0  0
  139.3293   74.2858  220.2466 H   0  0  0  0  0  0  0  0  0  0  0  0
  138.2359   75.2276  221.4779 H   0  0  0  0  0  0  0  0  0  0  0  0
  138.2031   77.5290  219.1844 H   0  0  0  0  0  0  0  0  0  0  0  0
  137.5615   77.0860  220.7515 H   0  0  0  0  0  0  0  0  0  0  0  0
  137.5378   79.7050  219.9955 H   0  0  0  0  0  0  0  0  0  0  0  0
  137.9525   79.3855  221.6488 H   0  0  0  0  0  0  0  0  0  0  0  0
  139.7397   79.8946  219.2444 H   0  0  0  0  0  0  0  0  0  0  0  0
  139.9597   80.4505  220.9316 H   0  0  0  0  0  0  0  0  0  0  0  0
  141.2758   78.3185  219.7180 H   0  0  0  0  0  0  0  0  0  0  0  0
  142.3759   77.9267  221.5546 H   0  0  0  0  0  0  0  0  0  0  0  0
  139.9899   78.3950  222.9801 H   0  0  0  0  0  0  0  0  0  0  0  0
  141.5358   77.3328  223.1856 H   0  0  0  0  0  0  0  0  0  0  0  0
  140.6432   79.5900  224.6148 H   0  0  0  0  0  0  0  0  0  0  0  0
  141.9841   78.3643  224.8762 H   0  0  0  0  0  0  0  0  0  0  0  0
  142.7225   80.7913  224.7717 H   0  0  0  0  0  0  0  0  0  0  0  0
  143.5596   79.7024  223.6773 H   0  0  0  0  0  0  0  0  0  0  0  0
  140.9229   81.1300  222.8817 H   0  0  0  0  0  0  0  0  0  0  0  0
  142.4934   81.8967  222.5926 H   0  0  0  0  0  0  0  0  0  0  0  0
  141.6951   80.5601  220.6623 H   0  0  0  0  0  0  0  0  0  0  0  0
  143.2555   79.9325  221.3848 H   0  0  0  0  0  0  0  0  0  0  0  0
  138.9327   69.8349  221.9597 H   0  0  0  0  0  0  0  0  0  0  0  0
  139.2536   68.2152  223.8034 H   0  0  0  0  0  0  0  0  0  0  0  0
  139.9745   67.7680  226.1018 H   0  0  0  0  0  0  0  0  0  0  0  0
  141.4899   70.9651  228.5213 H   0  0  0  0  0  0  0  0  0  0  0  0
  141.1448   72.5360  226.6352 H   0  0  0  0  0  0  0  0  0  0  0  0
  1  2  2  0
  2  3  1  0
  3  4  1  0
  4  5  1  0
  5  6  2  0
  5  7  1  0
  7  8  1  0
  8  9  1  0
  9 10  1  0
 10 11  1  0
 11 12  1  0
 12 13  1  0
 13 14  1  0
 14 15  1  0
 15 16  1  0
 16 17  1  0
  2 18  1  0
 18 19  2  0
 19 20  1  0
 20 21  2  0
 21 22  1  0
 22 23  2  0
 23 24  1  0
 23 25  1  0
 25 26  2  0
 26 27  1  0
 27 28  2  0
 11  7  1  0
 17 12  1  0
 28 18  1  0
 27 21  1  0
  3 29  1  0
  4 30  1  0
  4 31  1  0
  8 32  1  0
  8 33  1  0
  9 34  1  0
  9 35  1  0
 10 36  1  0
 10 37  1  0
 11 38  1  6
 12 39  1  0
 13 40  1  0
 13 41  1  0
 14 42  1  0
 14 43  1  0
 15 44  1  0
 15 45  1  0
 16 46  1  0
 16 47  1  0
 17 48  1  0
 17 49  1  0
 19 50  1  0
 20 51  1  0
 22 52  1  0
 25 53  1  0
 26 54  1  0
M  END
>  <smiles>  (100) 
O=C(NCC(=O)N1CCCC1C1CCCCC1)c1ccc2cc(Cl)ccc2n1

>  <score_type>  (100) 
oracle

>  <origin>  (100) 
autodockgpu

>  <m_score__min__energy>  (100) 
-8.8399999999999999

>  <m_primary>  (100) 
energy

>  <rmsd>  (100) 
2.1622816236402294

>  <m_score__min__rmsd>  (100) 
2.1622816236402294

>  <meeko>  (100) 
{"free_energy": -8.39, "intermolecular_energy": -9.88, "internal_energy": -1.4, "cluster_size": 24, "cluster_id": 1, "rank_in_cluster": 8}

>  <energy>  (100) 
-6.59

>  <cluster_rmsd>  (100) 
0.13

>  <cluster>  (100) 
6

$$$$
