
     RDKit          3D

 45 48  0  0  0  0  0  0  0  0999 V2000
  141.1530   72.7420  222.0880 O   0  0  0  0  0  0  0  0  0  0  0  0
  140.0730   72.5290  222.7310 C   0  0  0  0  0  0  0  0  0  0  0  0
  138.9070   73.2420  222.3500 N   0  0  0  0  0  0  0  0  0  0  0  0
  138.9010   74.2040  221.2540 C   0  0  0  0  0  0  0  0  0  0  0  0
  139.8100   75.3310  221.6200 C   0  0  0  0  0  0  0  0  0  0  0  0
  139.6630   75.9680  222.6930 O   0  0  0  0  0  0  0  0  0  0  0  0
  140.8560   75.6690  220.7150 N   0  0  0  0  0  0  0  0  0  0  0  0
  141.6840   76.8690  220.6920 C   0  0  0  0  0  0  0  0  0  0  0  0
  141.8490   77.1430  219.2160 C   0  0  0  0  0  0  0  0  0  0  0  0
  141.3290   75.9190  218.4890 C   0  0  0  0  0  0  0  0  0  0  0  0
  141.3220   74.8600  219.5980 C   0  0  1  0  0  0  0  0  0  0  0  0
  142.7470   74.4720  219.7780 C   0  0  0  0  0  0  0  0  0  0  0  0
  143.6880   74.5710  218.7760 C   0  0  0  0  0  0  0  0  0  0  0  0
  144.8550   74.1400  219.2800 N   0  0  0  0  0  0  0  0  0  0  0  0
  144.6700   73.7760  220.5640 C   0  0  0  0  0  0  0  0  0  0  0  0
  143.3630   73.9820  220.8730 N   0  0  0  0  0  0  0  0  0  0  0  0
  140.0450   71.5730  223.8320 C   0  0  0  0  0  0  0  0  0  0  0  0
  139.4390   70.3470  223.6430 C   0  0  0  0  0  0  0  0  0  0  0  0
  139.3690   69.3860  224.6330 C   0  0  0  0  0  0  0  0  0  0  0  0
  139.9540   69.7310  225.8520 C   0  0  0  0  0  0  0  0  0  0  0  0
  139.8900   68.7730  226.8590 C   0  0  0  0  0  0  0  0  0  0  0  0
  140.4500   69.0460  228.0950 C   0  0  0  0  0  0  0  0  0  0  0  0
  140.4110   68.1350  229.1140 F   0  0  0  0  0  0  0  0  0  0  0  0
  141.0500   70.2760  228.2650 C   0  0  0  0  0  0  0  0  0  0  0  0
  141.1160   71.2310  227.2710 C   0  0  0  0  0  0  0  0  0  0  0  0
  140.5590   70.9560  226.0410 C   0  0  0  0  0  0  0  0  0  0  0  0
  140.5970   71.8600  225.0310 N   0  0  0  0  0  0  0  0  0  0  0  0
  138.0340   73.0350  222.9090 H   0  0  0  0  0  0  0  0  0  0  0  0
  139.2582   73.7213  220.3324 H   0  0  0  0  0  0  0  0  0  0  0  0
  137.8811   74.5781  221.0812 H   0  0  0  0  0  0  0  0  0  0  0  0
  141.1791   77.7068  221.1951 H   0  0  0  0  0  0  0  0  0  0  0  0
  142.6418   76.7436  221.2182 H   0  0  0  0  0  0  0  0  0  0  0  0
  141.2682   78.0314  218.9274 H   0  0  0  0  0  0  0  0  0  0  0  0
  142.9017   77.3377  218.9634 H   0  0  0  0  0  0  0  0  0  0  0  0
  140.3164   76.0899  218.0947 H   0  0  0  0  0  0  0  0  0  0  0  0
  141.9323   75.6367  217.6136 H   0  0  0  0  0  0  0  0  0  0  0  0
  140.7273   73.9474  219.4452 H   0  0  0  0  0  0  0  0  0  0  0  0
  143.5148   74.9357  217.7528 H   0  0  0  0  0  0  0  0  0  0  0  0
  145.7520   74.1100  218.7160 H   0  0  0  0  0  0  0  0  0  0  0  0
  145.4410   73.3817  221.2423 H   0  0  0  0  0  0  0  0  0  0  0  0
  138.9928   70.1259  222.6622 H   0  0  0  0  0  0  0  0  0  0  0  0
  138.8837   68.4122  224.4709 H   0  0  0  0  0  0  0  0  0  0  0  0
  139.3983   67.8065  226.6743 H   0  0  0  0  0  0  0  0  0  0  0  0
  141.4987   70.5076  229.2423 H   0  0  0  0  0  0  0  0  0  0  0  0
  141.6062   72.1978  227.4579 H   0  0  0  0  0  0  0  0  0  0  0  0
  1  2  2  0
  2  3  1  0
  3  4  1  0
  4  5  1  0
  5  6  2  0
  5  7  1  0
  7  8  1  0
  8  9  1  0
  9 10  1  0
 10 11  1  0
 11 12  1  0
 12 13  2  0
 13 14  1  0
 14 15  1  0
 15 16  2  0
  2 17  1  0
 17 18  2  0
 18 19  1  0
 19 20  2  0
 20 21  1  0
 21 22  2  0
 22 23  1  0
 22 24  1  0
 24 25  2  0
 25 26  1  0
 26 27  2  0
 11  7  1  0
 16 12  1  0
 27 17  1  0
 26 20  1  0
  3 28  1  0
  4 29  1  0
  4 30  1  0
  8 31  1  0
  8 32  1  0
  9 33  1  0
  9 34  1  0
 10 35  1  0
 10 36  1  0
 11 37  1  6
 13 38  1  0
 14 39  1  0
 15 40  1  0
 18 41  1  0
 19 42  1  0
 21 43  1  0
 24 44  1  0
 25 45  1  0
M  END
>  <smiles>  (1) 
O=C(NCC(=O)N1CCC[C@H]1c1c[nH]cn1)c1ccc2cc(F)ccc2n1

>  <score_type>  (1) 
oracle

>  <origin>  (1) 
autodockgpu

>  <m_score__min__energy>  (1) 
-8.3200000000000003

>  <m_primary>  (1) 
energy

>  <rmsd>  (1) 
2.656506928484813

>  <m_score__min__rmsd>  (1) 
2.656506928484813

>  <meeko>  (1) 
{"free_energy": -7.35, "intermolecular_energy": -8.84, "internal_energy": -1.29, "cluster_size": 11, "cluster_id": 1, "rank_in_cluster": 8}

>  <energy>  (1) 
-8.32

>  <cluster_rmsd>  (1) 
0.0

>  <cluster>  (1) 
1

$$$$

     RDKit          3D

 45 48  0  0  0  0  0  0  0  0999 V2000
  138.8010   74.7750  222.3520 O   0  0  0  0  0  0  0  0  0  0  0  0
  139.8370   75.2760  221.8060 C   0  0  0  0  0  0  0  0  0  0  0  0
  139.8700   76.6750  221.5730 N   0  0  0  0  0  0  0  0  0  0  0  0
  138.7650   77.5540  221.9360 C   0  0  0  0  0  0  0  0  0  0  0  0
  139.3320   78.7620  222.6070 C   0  0  0  0  0  0  0  0  0  0  0  0
  138.7210   79.3410  223.5400 O   0  0  0  0  0  0  0  0  0  0  0  0
  140.5940   79.2460  222.1580 N   0  0  0  0  0  0  0  0  0  0  0  0
  141.9220   78.9180  222.6600 C   0  0  0  0  0  0  0  0  0  0  0  0
  142.6560   80.2350  222.5760 C   0  0  0  0  0  0  0  0  0  0  0  0
  141.7750   81.1690  221.7720 C   0  0  0  0  0  0  0  0  0  0  0  0
  140.8160   80.1950  221.0760 C   0  0  1  0  0  0  0  0  0  0  0  0
  141.6130   79.5770  219.9810 C   0  0  0  0  0  0  0  0  0  0  0  0
  142.2540   80.3130  219.0080 C   0  0  0  0  0  0  0  0  0  0  0  0
  142.8690   79.4430  218.1910 N   0  0  0  0  0  0  0  0  0  0  0  0
  142.6300   78.1900  218.6240 C   0  0  0  0  0  0  0  0  0  0  0  0
  141.8510   78.2730  219.7340 N   0  0  0  0  0  0  0  0  0  0  0  0
  140.9600   74.4240  221.4310 C   0  0  0  0  0  0  0  0  0  0  0  0
  140.7860   73.0550  221.4040 C   0  0  0  0  0  0  0  0  0  0  0  0
  141.7970   72.1780  221.0590 C   0  0  0  0  0  0  0  0  0  0  0  0
  143.0210   72.7650  220.7370 C   0  0  0  0  0  0  0  0  0  0  0  0
  144.0490   71.8950  220.3880 C   0  0  0  0  0  0  0  0  0  0  0  0
  145.2920   72.4050  220.0560 C   0  0  0  0  0  0  0  0  0  0  0  0
  146.3310   71.5880  219.7070 F   0  0  0  0  0  0  0  0  0  0  0  0
  145.4460   73.7760  220.0890 C   0  0  0  0  0  0  0  0  0  0  0  0
  144.4320   74.6450  220.4340 C   0  0  0  0  0  0  0  0  0  0  0  0
  143.1950   74.1330  220.7640 C   0  0  0  0  0  0  0  0  0  0  0  0
  142.1650   74.9440  221.1100 N   0  0  0  0  0  0  0  0  0  0  0  0
  140.7470   77.0490  221.1190 H   0  0  0  0  0  0  0  0  0  0  0  0
  138.2149   77.8538  221.0318 H   0  0  0  0  0  0  0  0  0  0  0  0
  138.0713   77.0334  222.6126 H   0  0  0  0  0  0  0  0  0  0  0  0
  141.8737   78.5586  223.6985 H   0  0  0  0  0  0  0  0  0  0  0  0
  142.4119   78.1134  222.0920 H   0  0  0  0  0  0  0  0  0  0  0  0
  142.8213   80.6427  223.5842 H   0  0  0  0  0  0  0  0  0  0  0  0
  143.6409   80.1115  222.1020 H   0  0  0  0  0  0  0  0  0  0  0  0
  141.2301   81.8649  222.4268 H   0  0  0  0  0  0  0  0  0  0  0  0
  142.3339   81.8107  221.0749 H   0  0  0  0  0  0  0  0  0  0  0  0
  139.8839   80.5942  220.6496 H   0  0  0  0  0  0  0  0  0  0  0  0
  142.2605   81.4093  218.9176 H   0  0  0  0  0  0  0  0  0  0  0  0
  143.4400   79.7450  217.3510 H   0  0  0  0  0  0  0  0  0  0  0  0
  143.0001   77.2635  218.1608 H   0  0  0  0  0  0  0  0  0  0  0  0
  139.8004   72.6443  221.6684 H   0  0  0  0  0  0  0  0  0  0  0  0
  141.6464   71.0885  221.0396 H   0  0  0  0  0  0  0  0  0  0  0  0
  143.8750   70.8089  220.3760 H   0  0  0  0  0  0  0  0  0  0  0  0
  146.4277   74.1973  219.8267 H   0  0  0  0  0  0  0  0  0  0  0  0
  144.6076   75.7308  220.4457 H   0  0  0  0  0  0  0  0  0  0  0  0
  1  2  2  0
  2  3  1  0
  3  4  1  0
  4  5  1  0
  5  6  2  0
  5  7  1  0
  7  8  1  0
  8  9  1  0
  9 10  1  0
 10 11  1  0
 11 12  1  0
 12 13  2  0
 13 14  1  0
 14 15  1  0
 15 16  2  0
  2 17  1  0
 17 18  2  0
 18 19  1  0
 19 20  2  0
 20 21  1  0
 21 22  2  0
 22 23  1  0
 22 24  1  0
 24 25  2  0
 25 26  1  0
 26 27  2  0
 11  7  1  0
 16 12  1  0
 27 17  1  0
 26 20  1  0
  3 28  1  0
  4 29  1  0
  4 30  1  0
  8 31  1  0
  8 32  1  0
  9 33  1  0
  9 34  1  0
 10 35  1  0
 10 36  1  0
 11 37  1  6
 13 38  1  0
 14 39  1  0
 15 40  1  0
 18 41  1  0
 19 42  1  0
 21 43  1  0
 24 44  1  0
 25 45  1  0
M  END
>  <smiles>  (2) 
O=C(NCC(=O)N1CCC[C@H]1c1c[nH]cn1)c1ccc2cc(F)ccc2n1

>  <score_type>  (2) 
oracle

>  <origin>  (2) 
autodockgpu

>  <m_score__min__energy>  (2) 
-8.3200000000000003

>  <m_primary>  (2) 
energy

>  <rmsd>  (2) 
6.254284745754619

>  <m_score__min__rmsd>  (2) 
6.254284745754619

>  <meeko>  (2) 
{"free_energy": -6.54, "intermolecular_energy": -8.03, "internal_energy": -2.46, "cluster_size": 24, "cluster_id": 4, "rank_in_cluster": 14}

>  <energy>  (2) 
-8.18

>  <cluster_rmsd>  (2) 
0.41

>  <cluster>  (2) 
1

$$$$

     RDKit          3D

 45 48  0  0  0  0  0  0  0  0999 V2000
  138.8070   74.7440  222.3490 O   0  0  0  0  0  0  0  0  0  0  0  0
  139.8900   75.2620  221.9230 C   0  0  0  0  0  0  0  0  0  0  0  0
  139.9790   76.6770  221.8430 N   0  0  0  0  0  0  0  0  0  0  0  0
  138.8790   77.5520  222.2310 C   0  0  0  0  0  0  0  0  0  0  0  0
  139.4590   78.7970  222.8160 C   0  0  0  0  0  0  0  0  0  0  0  0
  138.8870   79.4090  223.7530 O   0  0  0  0  0  0  0  0  0  0  0  0
  140.6880   79.2790  222.2810 N   0  0  0  0  0  0  0  0  0  0  0  0
  142.0440   79.0280  222.7550 C   0  0  0  0  0  0  0  0  0  0  0  0
  142.7340   80.3540  222.5390 C   0  0  0  0  0  0  0  0  0  0  0  0
  141.7950   81.1960  221.6990 C   0  0  0  0  0  0  0  0  0  0  0  0
  140.8410   80.1430  221.1200 C   0  0  1  0  0  0  0  0  0  0  0  0
  141.6150   79.4630  220.0470 C   0  0  0  0  0  0  0  0  0  0  0  0
  142.2350   80.1400  219.0190 C   0  0  0  0  0  0  0  0  0  0  0  0
  142.8330   79.2240  218.2410 N   0  0  0  0  0  0  0  0  0  0  0  0
  142.6050   77.9980  218.7530 C   0  0  0  0  0  0  0  0  0  0  0  0
  141.8500   78.1460  219.8720 N   0  0  0  0  0  0  0  0  0  0  0  0
  141.0090   74.4150  221.5270 C   0  0  0  0  0  0  0  0  0  0  0  0
  140.8480   73.0440  221.5310 C   0  0  0  0  0  0  0  0  0  0  0  0
  141.8570   72.1710  221.1700 C   0  0  0  0  0  0  0  0  0  0  0  0
  143.0640   72.7640  220.7980 C   0  0  0  0  0  0  0  0  0  0  0  0
  144.0890   71.8970  220.4320 C   0  0  0  0  0  0  0  0  0  0  0  0
  145.3160   72.4140  220.0510 C   0  0  0  0  0  0  0  0  0  0  0  0
  146.3510   71.6010  219.6840 F   0  0  0  0  0  0  0  0  0  0  0  0
  145.4570   73.7860  220.0550 C   0  0  0  0  0  0  0  0  0  0  0  0
  144.4450   74.6510  220.4160 C   0  0  0  0  0  0  0  0  0  0  0  0
  143.2240   74.1340  220.7950 C   0  0  0  0  0  0  0  0  0  0  0  0
  142.1980   74.9410  221.1590 N   0  0  0  0  0  0  0  0  0  0  0  0
  140.8940   77.0640  221.4860 H   0  0  0  0  0  0  0  0  0  0  0  0
  138.2729   77.8025  221.3479 H   0  0  0  0  0  0  0  0  0  0  0  0
  138.2349   77.0496  222.9677 H   0  0  0  0  0  0  0  0  0  0  0  0
  142.0452   78.7512  223.8196 H   0  0  0  0  0  0  0  0  0  0  0  0
  142.5368   78.1944  222.2332 H   0  0  0  0  0  0  0  0  0  0  0  0
  142.9239   80.8453  223.5047 H   0  0  0  0  0  0  0  0  0  0  0  0
  143.7042   80.2206  222.0382 H   0  0  0  0  0  0  0  0  0  0  0  0
  141.2536   81.9266  222.3179 H   0  0  0  0  0  0  0  0  0  0  0  0
  142.3076   81.7951  220.9320 H   0  0  0  0  0  0  0  0  0  0  0  0
  139.8818   80.4802  220.7002 H   0  0  0  0  0  0  0  0  0  0  0  0
  142.2391   81.2291  218.8647 H   0  0  0  0  0  0  0  0  0  0  0  0
  143.3850   79.4760  217.3730 H   0  0  0  0  0  0  0  0  0  0  0  0
  142.9667   77.0458  218.3377 H   0  0  0  0  0  0  0  0  0  0  0  0
  139.8756   72.6287  221.8343 H   0  0  0  0  0  0  0  0  0  0  0  0
  141.7175   71.0799  221.1756 H   0  0  0  0  0  0  0  0  0  0  0  0
  143.9260   70.8092  220.4452 H   0  0  0  0  0  0  0  0  0  0  0  0
  146.4257   74.2121  219.7550 H   0  0  0  0  0  0  0  0  0  0  0  0
  144.6097   75.7385  220.4018 H   0  0  0  0  0  0  0  0  0  0  0  0
  1  2  2  0
  2  3  1  0
  3  4  1  0
  4  5  1  0
  5  6  2  0
  5  7  1  0
  7  8  1  0
  8  9  1  0
  9 10  1  0
 10 11  1  0
 11 12  1  0
 12 13  2  0
 13 14  1  0
 14 15  1  0
 15 16  2  0
  2 17  1  0
 17 18  2  0
 18 19  1  0
 19 20  2  0
 20 21  1  0
 21 22  2  0
 22 23  1  0
 22 24  1  0
 24 25  2  0
 25 26  1  0
 26 27  2  0
 11  7  1  0
 16 12  1  0
 27 17  1  0
 26 20  1  0
  3 28  1  0
  4 29  1  0
  4 30  1  0
  8 31  1  0
  8 32  1  0
  9 33  1  0
  9 34  1  0
 10 35  1  0
 10 36  1  0
 11 37  1  6
 13 38  1  0
 14 39  1  0
 15 40  1  0
 18 41  1  0
 19 42  1  0
 21 43  1  0
 24 44  1  0
 25 45  1  0
M  END
>  <smiles>  (3) 
O=C(NCC(=O)N1CCC[C@H]1c1c[nH]cn1)c1ccc2cc(F)ccc2n1

>  <score_type>  (3) 
oracle

>  <origin>  (3) 
autodockgpu

>  <m_score__min__energy>  (3) 
-8.3200000000000003

>  <m_primary>  (3) 
energy

>  <rmsd>  (3) 
6.277128497216821

>  <m_score__min__rmsd>  (3) 
6.277128497216821

>  <meeko>  (3) 
{"free_energy": -6.63, "intermolecular_energy": -8.12, "internal_energy": -2.51, "cluster_size": 24, "cluster_id": 4, "rank_in_cluster": 7}

>  <energy>  (3) 
-8.07

>  <cluster_rmsd>  (3) 
0.49

>  <cluster>  (3) 
1

$$$$

     RDKit          3D

 45 48  0  0  0  0  0  0  0  0999 V2000
  141.0690   73.0240  222.2560 O   0  0  0  0  0  0  0  0  0  0  0  0
  139.9910   72.6120  222.7960 C   0  0  0  0  0  0  0  0  0  0  0  0
  138.7580   73.1520  222.3460 N   0  0  0  0  0  0  0  0  0  0  0  0
  138.6840   74.1560  221.2910 C   0  0  0  0  0  0  0  0  0  0  0  0
  138.8800   75.4990  221.9130 C   0  0  0  0  0  0  0  0  0  0  0  0
  138.0480   75.9720  222.7270 O   0  0  0  0  0  0  0  0  0  0  0  0
  140.0440   76.2380  221.5570 N   0  0  0  0  0  0  0  0  0  0  0  0
  141.0280   76.8590  222.4350 C   0  0  0  0  0  0  0  0  0  0  0  0
  141.3700   78.1420  221.7150 C   0  0  0  0  0  0  0  0  0  0  0  0
  140.7580   78.0370  220.3330 C   0  0  0  0  0  0  0  0  0  0  0  0
  140.4990   76.5300  220.2050 C   0  0  1  0  0  0  0  0  0  0  0  0
  141.8330   75.9240  219.9480 C   0  0  0  0  0  0  0  0  0  0  0  0
  142.6650   76.3360  218.9290 C   0  0  0  0  0  0  0  0  0  0  0  0
  143.7720   75.5800  218.9880 N   0  0  0  0  0  0  0  0  0  0  0  0
  143.6570   74.7120  220.0120 C   0  0  0  0  0  0  0  0  0  0  0  0
  142.4540   74.9250  220.6070 N   0  0  0  0  0  0  0  0  0  0  0  0
  140.0310   71.6090  223.8540 C   0  0  0  0  0  0  0  0  0  0  0  0
  139.5390   70.3440  223.6000 C   0  0  0  0  0  0  0  0  0  0  0  0
  139.5390   69.3360  224.5450 C   0  0  0  0  0  0  0  0  0  0  0  0
  140.0730   69.6760  225.7890 C   0  0  0  0  0  0  0  0  0  0  0  0
  140.0800   68.6720  226.7510 C   0  0  0  0  0  0  0  0  0  0  0  0
  140.5940   68.9360  228.0090 C   0  0  0  0  0  0  0  0  0  0  0  0
  140.6210   67.9800  228.9860 F   0  0  0  0  0  0  0  0  0  0  0  0
  141.0810   70.2050  228.2440 C   0  0  0  0  0  0  0  0  0  0  0  0
  141.0770   71.2060  227.2950 C   0  0  0  0  0  0  0  0  0  0  0  0
  140.5650   70.9400  226.0430 C   0  0  0  0  0  0  0  0  0  0  0  0
  140.5380   71.8880  225.0740 N   0  0  0  0  0  0  0  0  0  0  0  0
  137.8900   72.7830  222.8200 H   0  0  0  0  0  0  0  0  0  0  0  0
  139.4717   73.9720  220.5455 H   0  0  0  0  0  0  0  0  0  0  0  0
  137.7069   74.1084  220.7880 H   0  0  0  0  0  0  0  0  0  0  0  0
  140.5980   77.0653  223.4263 H   0  0  0  0  0  0  0  0  0  0  0  0
  141.9047   76.2211  222.6207 H   0  0  0  0  0  0  0  0  0  0  0  0
  140.9478   79.0036  222.2529 H   0  0  0  0  0  0  0  0  0  0  0  0
  142.4588   78.2874  221.6575 H   0  0  0  0  0  0  0  0  0  0  0  0
  139.8210   78.6094  220.2675 H   0  0  0  0  0  0  0  0  0  0  0  0
  141.3973   78.4438  219.5356 H   0  0  0  0  0  0  0  0  0  0  0  0
  139.8017   76.1835  219.4280 H   0  0  0  0  0  0  0  0  0  0  0  0
  142.4595   77.1359  218.2024 H   0  0  0  0  0  0  0  0  0  0  0  0
  144.5820   75.6890  218.3130 H   0  0  0  0  0  0  0  0  0  0  0  0
  144.4046   73.9634  220.3131 H   0  0  0  0  0  0  0  0  0  0  0  0
  139.1293   70.1295  222.6020 H   0  0  0  0  0  0  0  0  0  0  0  0
  139.1442   68.3318  224.3311 H   0  0  0  0  0  0  0  0  0  0  0  0
  139.6800   67.6751  226.5141 H   0  0  0  0  0  0  0  0  0  0  0  0
  141.4934   70.4301  229.2386 H   0  0  0  0  0  0  0  0  0  0  0  0
  141.4767   72.2026  227.5339 H   0  0  0  0  0  0  0  0  0  0  0  0
  1  2  2  0
  2  3  1  0
  3  4  1  0
  4  5  1  0
  5  6  2  0
  5  7  1  0
  7  8  1  0
  8  9  1  0
  9 10  1  0
 10 11  1  0
 11 12  1  0
 12 13  2  0
 13 14  1  0
 14 15  1  0
 15 16  2  0
  2 17  1  0
 17 18  2  0
 18 19  1  0
 19 20  2  0
 20 21  1  0
 21 22  2  0
 22 23  1  0
 22 24  1  0
 24 25  2  0
 25 26  1  0
 26 27  2  0
 11  7  1  0
 16 12  1  0
 27 17  1  0
 26 20  1  0
  3 28  1  0
  4 29  1  0
  4 30  1  0
  8 31  1  0
  8 32  1  0
  9 33  1  0
  9 34  1  0
 10 35  1  0
 10 36  1  0
 11 37  1  6
 13 38  1  0
 14 39  1  0
 15 40  1  0
 18 41  1  0
 19 42  1  0
 21 43  1  0
 24 44  1  0
 25 45  1  0
M  END
>  <smiles>  (4) 
O=C(NCC(=O)N1CCC[C@H]1c1c[nH]cn1)c1ccc2cc(F)ccc2n1

>  <score_type>  (4) 
oracle

>  <origin>  (4) 
autodockgpu

>  <m_score__min__energy>  (4) 
-8.3200000000000003

>  <m_primary>  (4) 
energy

>  <rmsd>  (4) 
2.803127664932701

>  <m_score__min__rmsd>  (4) 
2.803127664932701

>  <meeko>  (4) 
{"free_energy": -7.54, "intermolecular_energy": -9.03, "internal_energy": -1.34, "cluster_size": 11, "cluster_id": 1, "rank_in_cluster": 7}

>  <energy>  (4) 
-7.82

>  <cluster_rmsd>  (4) 
0.91

>  <cluster>  (4) 
1

$$$$

     RDKit          3D

 45 48  0  0  0  0  0  0  0  0999 V2000
  139.7210   70.9350  221.4870 O   0  0  0  0  0  0  0  0  0  0  0  0
  139.7070   71.4780  222.6390 C   0  0  0  0  0  0  0  0  0  0  0  0
  139.6030   72.8920  222.7200 N   0  0  0  0  0  0  0  0  0  0  0  0
  139.5120   73.7370  221.5360 C   0  0  0  0  0  0  0  0  0  0  0  0
  140.8710   74.2840  221.2490 C   0  0  0  0  0  0  0  0  0  0  0  0
  141.2490   75.3840  221.7250 O   0  0  0  0  0  0  0  0  0  0  0  0
  141.7380   73.5200  220.4160 N   0  0  0  0  0  0  0  0  0  0  0  0
  141.9170   73.6070  218.9710 C   0  0  0  0  0  0  0  0  0  0  0  0
  142.1000   72.1660  218.5600 C   0  0  0  0  0  0  0  0  0  0  0  0
  142.2860   71.3740  219.8390 C   0  0  0  0  0  0  0  0  0  0  0  0
  142.6450   72.4680  220.8520 C   0  0  1  0  0  0  0  0  0  0  0  0
  144.0580   72.8260  220.5570 C   0  0  0  0  0  0  0  0  0  0  0  0
  144.5720   74.0900  220.7500 C   0  0  0  0  0  0  0  0  0  0  0  0
  145.8630   74.0560  220.3840 N   0  0  0  0  0  0  0  0  0  0  0  0
  146.1690   72.8120  219.9690 C   0  0  0  0  0  0  0  0  0  0  0  0
  145.0500   72.0490  220.0760 N   0  0  0  0  0  0  0  0  0  0  0  0
  139.7960   70.6610  223.8430 C   0  0  0  0  0  0  0  0  0  0  0  0
  139.2720   69.3830  223.8290 C   0  0  0  0  0  0  0  0  0  0  0  0
  139.3150   68.5440  224.9260 C   0  0  0  0  0  0  0  0  0  0  0  0
  139.9260   69.0700  226.0640 C   0  0  0  0  0  0  0  0  0  0  0  0
  139.9770   68.2360  227.1770 C   0  0  0  0  0  0  0  0  0  0  0  0
  140.5690   68.6900  228.3430 C   0  0  0  0  0  0  0  0  0  0  0  0
  140.6410   67.9070  229.4610 F   0  0  0  0  0  0  0  0  0  0  0  0
  141.0850   69.9700  228.3380 C   0  0  0  0  0  0  0  0  0  0  0  0
  141.0390   70.8020  227.2390 C   0  0  0  0  0  0  0  0  0  0  0  0
  140.4490   70.3460  226.0790 C   0  0  0  0  0  0  0  0  0  0  0  0
  140.3780   71.1240  224.9710 N   0  0  0  0  0  0  0  0  0  0  0  0
  139.5940   73.3010  223.6940 H   0  0  0  0  0  0  0  0  0  0  0  0
  139.1614   73.1421  220.6798 H   0  0  0  0  0  0  0  0  0  0  0  0
  138.8002   74.5578  221.7082 H   0  0  0  0  0  0  0  0  0  0  0  0
  141.0306   74.0453  218.4892 H   0  0  0  0  0  0  0  0  0  0  0  0
  142.7601   74.2500  218.6782 H   0  0  0  0  0  0  0  0  0  0  0  0
  141.2115   71.8096  218.0181 H   0  0  0  0  0  0  0  0  0  0  0  0
  142.9653   72.0500  217.8909 H   0  0  0  0  0  0  0  0  0  0  0  0
  141.3590   70.8553  220.1247 H   0  0  0  0  0  0  0  0  0  0  0  0
  143.0445   70.5813  219.7597 H   0  0  0  0  0  0  0  0  0  0  0  0
  142.5589   72.2367  221.9240 H   0  0  0  0  0  0  0  0  0  0  0  0
  144.0257   74.9646  221.1329 H   0  0  0  0  0  0  0  0  0  0  0  0
  146.4990   74.9030  220.4330 H   0  0  0  0  0  0  0  0  0  0  0  0
  147.1512   72.4735  219.6074 H   0  0  0  0  0  0  0  0  0  0  0  0
  138.8003   69.0176  222.9049 H   0  0  0  0  0  0  0  0  0  0  0  0
  138.8948   67.5277  224.9032 H   0  0  0  0  0  0  0  0  0  0  0  0
  139.5500   67.2233  227.1305 H   0  0  0  0  0  0  0  0  0  0  0  0
  141.5572   70.3459  229.2577 H   0  0  0  0  0  0  0  0  0  0  0  0
  141.4666   71.8143  227.2871 H   0  0  0  0  0  0  0  0  0  0  0  0
  1  2  2  0
  2  3  1  0
  3  4  1  0
  4  5  1  0
  5  6  2  0
  5  7  1  0
  7  8  1  0
  8  9  1  0
  9 10  1  0
 10 11  1  0
 11 12  1  0
 12 13  2  0
 13 14  1  0
 14 15  1  0
 15 16  2  0
  2 17  1  0
 17 18  2  0
 18 19  1  0
 19 20  2  0
 20 21  1  0
 21 22  2  0
 22 23  1  0
 22 24  1  0
 24 25  2  0
 25 26  1  0
 26 27  2  0
 11  7  1  0
 16 12  1  0
 27 17  1  0
 26 20  1  0
  3 28  1  0
  4 29  1  0
  4 30  1  0
  8 31  1  0
  8 32  1  0
  9 33  1  0
  9 34  1  0
 10 35  1  0
 10 36  1  0
 11 37  1  1
 13 38  1  0
 14 39  1  0
 15 40  1  0
 18 41  1  0
 19 42  1  0
 21 43  1  0
 24 44  1  0
 25 45  1  0
M  END
>  <smiles>  (5) 
O=C(NCC(=O)N1CCC[C@H]1c1c[nH]cn1)c1ccc2cc(F)ccc2n1

>  <score_type>  (5) 
oracle

>  <origin>  (5) 
autodockgpu

>  <m_score__min__energy>  (5) 
-8.3200000000000003

>  <m_primary>  (5) 
energy

>  <rmsd>  (5) 
3.6945623011828355

>  <m_score__min__rmsd>  (5) 
3.6945623011828355

>  <meeko>  (5) 
{"free_energy": -7.16, "intermolecular_energy": -8.66, "internal_energy": -1.56, "cluster_size": 11, "cluster_id": 1, "rank_in_cluster": 11}

>  <energy>  (5) 
-7.78

>  <cluster_rmsd>  (5) 
0.84

>  <cluster>  (5) 
1

$$$$

     RDKit          3D

 45 48  0  0  0  0  0  0  0  0999 V2000
  141.0610   71.9000  221.3280 O   0  0  0  0  0  0  0  0  0  0  0  0
  140.3680   72.3110  222.3150 C   0  0  0  0  0  0  0  0  0  0  0  0
  139.7500   73.5850  222.2250 N   0  0  0  0  0  0  0  0  0  0  0  0
  139.8810   74.4350  221.0470 C   0  0  0  0  0  0  0  0  0  0  0  0
  141.0630   75.3250  221.2440 C   0  0  0  0  0  0  0  0  0  0  0  0
  141.0840   76.1950  222.1510 O   0  0  0  0  0  0  0  0  0  0  0  0
  142.1770   75.1610  220.3720 N   0  0  0  0  0  0  0  0  0  0  0  0
  143.0250   76.1890  219.7800 C   0  0  0  0  0  0  0  0  0  0  0  0
  143.3000   75.6520  218.3960 C   0  0  0  0  0  0  0  0  0  0  0  0
  142.8120   74.2170  218.3860 C   0  0  0  0  0  0  0  0  0  0  0  0
  142.7080   73.8970  219.8820 C   0  0  1  0  0  0  0  0  0  0  0  0
  144.1100   73.6950  220.3380 C   0  0  0  0  0  0  0  0  0  0  0  0
  144.7300   72.4640  220.3440 C   0  0  0  0  0  0  0  0  0  0  0  0
  145.9750   72.6480  220.8120 N   0  0  0  0  0  0  0  0  0  0  0  0
  146.1490   73.9530  221.0970 C   0  0  0  0  0  0  0  0  0  0  0  0
  144.9920   74.6030  220.8030 N   0  0  0  0  0  0  0  0  0  0  0  0
  140.2180   71.4850  223.5080 C   0  0  0  0  0  0  0  0  0  0  0  0
  139.5760   70.2670  223.4060 C   0  0  0  0  0  0  0  0  0  0  0  0
  139.3920   69.4240  224.4850 C   0  0  0  0  0  0  0  0  0  0  0  0
  139.8990   69.8830  225.7020 C   0  0  0  0  0  0  0  0  0  0  0  0
  139.7210   69.0460  226.7980 C   0  0  0  0  0  0  0  0  0  0  0  0
  140.1980   69.4350  228.0380 C   0  0  0  0  0  0  0  0  0  0  0  0
  140.0460   68.6450  229.1430 F   0  0  0  0  0  0  0  0  0  0  0  0
  140.8350   70.6550  228.1200 C   0  0  0  0  0  0  0  0  0  0  0  0
  141.0150   71.4910  227.0380 C   0  0  0  0  0  0  0  0  0  0  0  0
  140.5400   71.1000  225.8040 C   0  0  0  0  0  0  0  0  0  0  0  0
  140.6910   71.8840  224.7080 N   0  0  0  0  0  0  0  0  0  0  0  0
  139.1850   73.8870  223.0650 H   0  0  0  0  0  0  0  0  0  0  0  0
  140.0288   73.8119  220.1526 H   0  0  0  0  0  0  0  0  0  0  0  0
  138.9706   75.0368  220.9092 H   0  0  0  0  0  0  0  0  0  0  0  0
  142.4998   77.1543  219.7317 H   0  0  0  0  0  0  0  0  0  0  0  0
  143.9405   76.3802  220.3591 H   0  0  0  0  0  0  0  0  0  0  0  0
  142.7568   76.2433  217.6441 H   0  0  0  0  0  0  0  0  0  0  0  0
  144.3712   75.7094  218.1528 H   0  0  0  0  0  0  0  0  0  0  0  0
  141.8330   74.1326  217.8915 H   0  0  0  0  0  0  0  0  0  0  0  0
  143.4713   73.5313  217.8336 H   0  0  0  0  0  0  0  0  0  0  0  0
  142.1108   73.0260  220.1899 H   0  0  0  0  0  0  0  0  0  0  0  0
  144.2874   71.5089  220.0249 H   0  0  0  0  0  0  0  0  0  0  0  0
  146.6730   71.8580  220.9210 H   0  0  0  0  0  0  0  0  0  0  0  0
  147.0654   74.4116  221.4969 H   0  0  0  0  0  0  0  0  0  0  0  0
  139.1944   69.9541  222.4229 H   0  0  0  0  0  0  0  0  0  0  0  0
  138.8798   68.4551  224.3913 H   0  0  0  0  0  0  0  0  0  0  0  0
  139.2049   68.0817  226.6806 H   0  0  0  0  0  0  0  0  0  0  0  0
  141.2194   70.9782  229.0987 H   0  0  0  0  0  0  0  0  0  0  0  0
  141.5300   72.4556  227.1577 H   0  0  0  0  0  0  0  0  0  0  0  0
  1  2  2  0
  2  3  1  0
  3  4  1  0
  4  5  1  0
  5  6  2  0
  5  7  1  0
  7  8  1  0
  8  9  1  0
  9 10  1  0
 10 11  1  0
 11 12  1  0
 12 13  2  0
 13 14  1  0
 14 15  1  0
 15 16  2  0
  2 17  1  0
 17 18  2  0
 18 19  1  0
 19 20  2  0
 20 21  1  0
 21 22  2  0
 22 23  1  0
 22 24  1  0
 24 25  2  0
 25 26  1  0
 26 27  2  0
 11  7  1  0
 16 12  1  0
 27 17  1  0
 26 20  1  0
  3 28  1  0
  4 29  1  0
  4 30  1  0
  8 31  1  0
  8 32  1  0
  9 33  1  0
  9 34  1  0
 10 35  1  0
 10 36  1  0
 11 37  1  6
 13 38  1  0
 14 39  1  0
 15 40  1  0
 18 41  1  0
 19 42  1  0
 21 43  1  0
 24 44  1  0
 25 45  1  0
M  END
>  <smiles>  (6) 
O=C(NCC(=O)N1CCC[C@H]1c1c[nH]cn1)c1ccc2cc(F)ccc2n1

>  <score_type>  (6) 
oracle

>  <origin>  (6) 
autodockgpu

>  <m_score__min__energy>  (6) 
-8.3200000000000003

>  <m_primary>  (6) 
energy

>  <rmsd>  (6) 
3.099735251568699

>  <m_score__min__rmsd>  (6) 
3.099735251568699

>  <meeko>  (6) 
{"free_energy": -8.18, "intermolecular_energy": -9.68, "internal_energy": -1.19, "cluster_size": 11, "cluster_id": 1, "rank_in_cluster": 2}

>  <energy>  (6) 
-7.55

>  <cluster_rmsd>  (6) 
1.9

>  <cluster>  (6) 
1

$$$$

     RDKit          3D

 45 48  0  0  0  0  0  0  0  0999 V2000
  138.7270   75.2290  222.6950 O   0  0  0  0  0  0  0  0  0  0  0  0
  139.6790   75.6600  221.9650 C   0  0  0  0  0  0  0  0  0  0  0  0
  139.6600   77.0200  221.5600 N   0  0  0  0  0  0  0  0  0  0  0  0
  138.5950   77.9360  221.9490 C   0  0  0  0  0  0  0  0  0  0  0  0
  139.2220   79.1450  222.5630 C   0  0  0  0  0  0  0  0  0  0  0  0
  138.6110   79.8380  223.4150 O   0  0  0  0  0  0  0  0  0  0  0  0
  140.5410   79.4940  222.1570 N   0  0  0  0  0  0  0  0  0  0  0  0
  141.8120   79.0060  222.6800 C   0  0  0  0  0  0  0  0  0  0  0  0
  142.6910   80.2340  222.6490 C   0  0  0  0  0  0  0  0  0  0  0  0
  141.9400   81.2800  221.8490 C   0  0  0  0  0  0  0  0  0  0  0  0
  140.8970   80.4370  221.1060 C   0  0  1  0  0  0  0  0  0  0  0  0
  141.6460   79.7610  220.0130 C   0  0  0  0  0  0  0  0  0  0  0  0
  142.2950   80.4450  219.0080 C   0  0  0  0  0  0  0  0  0  0  0  0
  142.8590   79.5300  218.2030 N   0  0  0  0  0  0  0  0  0  0  0  0
  142.5830   78.2990  218.6760 C   0  0  0  0  0  0  0  0  0  0  0  0
  141.8300   78.4420  219.7980 N   0  0  0  0  0  0  0  0  0  0  0  0
  140.7600   74.7690  221.5590 C   0  0  0  0  0  0  0  0  0  0  0  0
  140.5890   73.4040  221.6840 C   0  0  0  0  0  0  0  0  0  0  0  0
  141.5620   72.4920  221.3230 C   0  0  0  0  0  0  0  0  0  0  0  0
  142.7430   73.0370  220.8180 C   0  0  0  0  0  0  0  0  0  0  0  0
  143.7320   72.1310  220.4500 C   0  0  0  0  0  0  0  0  0  0  0  0
  144.9310   72.5990  219.9410 C   0  0  0  0  0  0  0  0  0  0  0  0
  145.9310   71.7450  219.5670 F   0  0  0  0  0  0  0  0  0  0  0  0
  145.0830   73.9650  219.8250 C   0  0  0  0  0  0  0  0  0  0  0  0
  144.1070   74.8690  220.1880 C   0  0  0  0  0  0  0  0  0  0  0  0
  142.9130   74.4000  220.6940 C   0  0  0  0  0  0  0  0  0  0  0  0
  141.9220   75.2470  221.0650 N   0  0  0  0  0  0  0  0  0  0  0  0
  140.4680   77.3350  220.9570 H   0  0  0  0  0  0  0  0  0  0  0  0
  138.0124   78.2278  221.0628 H   0  0  0  0  0  0  0  0  0  0  0  0
  137.9196   77.4505  222.6688 H   0  0  0  0  0  0  0  0  0  0  0  0
  141.6974   78.6285  223.7068 H   0  0  0  0  0  0  0  0  0  0  0  0
  142.2232   78.1659  222.1010 H   0  0  0  0  0  0  0  0  0  0  0  0
  142.8740   80.5964  223.6713 H   0  0  0  0  0  0  0  0  0  0  0  0
  143.6686   80.0125  222.1959 H   0  0  0  0  0  0  0  0  0  0  0  0
  141.4595   82.0171  222.5091 H   0  0  0  0  0  0  0  0  0  0  0  0
  142.5848   81.8709  221.1819 H   0  0  0  0  0  0  0  0  0  0  0  0
  140.0267   80.9486  220.6691 H   0  0  0  0  0  0  0  0  0  0  0  0
  142.3423   81.5374  218.8876 H   0  0  0  0  0  0  0  0  0  0  0  0
  143.4240   79.7880  217.3440 H   0  0  0  0  0  0  0  0  0  0  0  0
  142.9094   77.3468  218.2324 H   0  0  0  0  0  0  0  0  0  0  0  0
  139.6378   73.0272  222.0881 H   0  0  0  0  0  0  0  0  0  0  0  0
  141.4152   71.4068  221.4269 H   0  0  0  0  0  0  0  0  0  0  0  0
  143.5625   71.0500  220.5627 H   0  0  0  0  0  0  0  0  0  0  0  0
  146.0305   74.3528  219.4227 H   0  0  0  0  0  0  0  0  0  0  0  0
  144.2786   75.9497  220.0755 H   0  0  0  0  0  0  0  0  0  0  0  0
  1  2  2  0
  2  3  1  0
  3  4  1  0
  4  5  1  0
  5  6  2  0
  5  7  1  0
  7  8  1  0
  8  9  1  0
  9 10  1  0
 10 11  1  0
 11 12  1  0
 12 13  2  0
 13 14  1  0
 14 15  1  0
 15 16  2  0
  2 17  1  0
 17 18  2  0
 18 19  1  0
 19 20  2  0
 20 21  1  0
 21 22  2  0
 22 23  1  0
 22 24  1  0
 24 25  2  0
 25 26  1  0
 26 27  2  0
 11  7  1  0
 16 12  1  0
 27 17  1  0
 26 20  1  0
  3 28  1  0
  4 29  1  0
  4 30  1  0
  8 31  1  0
  8 32  1  0
  9 33  1  0
  9 34  1  0
 10 35  1  0
 10 36  1  0
 11 37  1  6
 13 38  1  0
 14 39  1  0
 15 40  1  0
 18 41  1  0
 19 42  1  0
 21 43  1  0
 24 44  1  0
 25 45  1  0
M  END
>  <smiles>  (7) 
O=C(NCC(=O)N1CCC[C@H]1c1c[nH]cn1)c1ccc2cc(F)ccc2n1

>  <score_type>  (7) 
oracle

>  <origin>  (7) 
autodockgpu

>  <m_score__min__energy>  (7) 
-8.3200000000000003

>  <m_primary>  (7) 
energy

>  <rmsd>  (7) 
6.3606331186165646

>  <m_score__min__rmsd>  (7) 
6.3606331186165646

>  <meeko>  (7) 
{"free_energy": -6.28, "intermolecular_energy": -7.78, "internal_energy": -2.5, "cluster_size": 24, "cluster_id": 4, "rank_in_cluster": 24}

>  <energy>  (7) 
-7.54

>  <cluster_rmsd>  (7) 
1.84

>  <cluster>  (7) 
1

$$$$

     RDKit          3D

 45 48  0  0  0  0  0  0  0  0999 V2000
  139.0860   74.9110  222.7130 O   0  0  0  0  0  0  0  0  0  0  0  0
  140.0130   75.3510  221.9580 C   0  0  0  0  0  0  0  0  0  0  0  0
  139.9690   76.7120  221.5550 N   0  0  0  0  0  0  0  0  0  0  0  0
  138.9050   77.6160  221.9730 C   0  0  0  0  0  0  0  0  0  0  0  0
  139.5270   78.7580  222.7080 C   0  0  0  0  0  0  0  0  0  0  0  0
  139.0020   79.2330  223.7460 O   0  0  0  0  0  0  0  0  0  0  0  0
  140.7420   79.2990  222.1980 N   0  0  0  0  0  0  0  0  0  0  0  0
  142.1050   79.0600  222.6560 C   0  0  0  0  0  0  0  0  0  0  0  0
  142.7600   80.4120  222.5100 C   0  0  0  0  0  0  0  0  0  0  0  0
  141.7970   81.2740  221.7170 C   0  0  0  0  0  0  0  0  0  0  0  0
  140.8700   80.2290  221.0840 C   0  0  1  0  0  0  0  0  0  0  0  0
  141.6580   79.6270  219.9750 C   0  0  0  0  0  0  0  0  0  0  0  0
  142.2890   80.3760  219.0060 C   0  0  0  0  0  0  0  0  0  0  0  0
  142.8980   79.5180  218.1730 N   0  0  0  0  0  0  0  0  0  0  0  0
  142.6670   78.2590  218.5930 C   0  0  0  0  0  0  0  0  0  0  0  0
  141.8970   78.3260  219.7100 N   0  0  0  0  0  0  0  0  0  0  0  0
  141.0910   74.4720  221.5210 C   0  0  0  0  0  0  0  0  0  0  0  0
  140.9200   73.1050  221.6070 C   0  0  0  0  0  0  0  0  0  0  0  0
  141.8910   72.2030  221.2150 C   0  0  0  0  0  0  0  0  0  0  0  0
  143.0700   72.7620  220.7220 C   0  0  0  0  0  0  0  0  0  0  0  0
  144.0570   71.8660  220.3240 C   0  0  0  0  0  0  0  0  0  0  0  0
  145.2550   72.3480  219.8240 C   0  0  0  0  0  0  0  0  0  0  0  0
  146.2530   71.5060  219.4210 F   0  0  0  0  0  0  0  0  0  0  0  0
  145.4070   73.7170  219.7480 C   0  0  0  0  0  0  0  0  0  0  0  0
  144.4330   74.6110  220.1410 C   0  0  0  0  0  0  0  0  0  0  0  0
  143.2410   74.1280  220.6370 C   0  0  0  0  0  0  0  0  0  0  0  0
  142.2520   74.9640  221.0370 N   0  0  0  0  0  0  0  0  0  0  0  0
  140.7560   77.0350  220.9300 H   0  0  0  0  0  0  0  0  0  0  0  0
  138.3658   77.9903  221.0903 H   0  0  0  0  0  0  0  0  0  0  0  0
  138.1910   77.0888  222.6228 H   0  0  0  0  0  0  0  0  0  0  0  0
  142.1162   78.7274  223.7045 H   0  0  0  0  0  0  0  0  0  0  0  0
  142.6179   78.2688  222.0896 H   0  0  0  0  0  0  0  0  0  0  0  0
  142.9401   80.8558  223.5002 H   0  0  0  0  0  0  0  0  0  0  0  0
  143.7318   80.3302  222.0012 H   0  0  0  0  0  0  0  0  0  0  0  0
  141.2383   81.9561  222.3748 H   0  0  0  0  0  0  0  0  0  0  0  0
  142.2917   81.9269  220.9828 H   0  0  0  0  0  0  0  0  0  0  0  0
  139.9015   80.5638  220.6841 H   0  0  0  0  0  0  0  0  0  0  0  0
  142.2929   81.4733  218.9294 H   0  0  0  0  0  0  0  0  0  0  0  0
  143.4620   79.8320  217.3310 H   0  0  0  0  0  0  0  0  0  0  0  0
  143.0366   77.3394  218.1158 H   0  0  0  0  0  0  0  0  0  0  0  0
  139.9705   72.7170  222.0044 H   0  0  0  0  0  0  0  0  0  0  0  0
  141.7437   71.1153  221.2871 H   0  0  0  0  0  0  0  0  0  0  0  0
  143.8870   70.7823  220.4059 H   0  0  0  0  0  0  0  0  0  0  0  0
  146.3533   74.1160  219.3538 H   0  0  0  0  0  0  0  0  0  0  0  0
  144.6050   75.6944  220.0598 H   0  0  0  0  0  0  0  0  0  0  0  0
  1  2  2  0
  2  3  1  0
  3  4  1  0
  4  5  1  0
  5  6  2  0
  5  7  1  0
  7  8  1  0
  8  9  1  0
  9 10  1  0
 10 11  1  0
 11 12  1  0
 12 13  2  0
 13 14  1  0
 14 15  1  0
 15 16  2  0
  2 17  1  0
 17 18  2  0
 18 19  1  0
 19 20  2  0
 20 21  1  0
 21 22  2  0
 22 23  1  0
 22 24  1  0
 24 25  2  0
 25 26  1  0
 26 27  2  0
 11  7  1  0
 16 12  1  0
 27 17  1  0
 26 20  1  0
  3 28  1  0
  4 29  1  0
  4 30  1  0
  8 31  1  0
  8 32  1  0
  9 33  1  0
  9 34  1  0
 10 35  1  0
 10 36  1  0
 11 37  1  6
 13 38  1  0
 14 39  1  0
 15 40  1  0
 18 41  1  0
 19 42  1  0
 21 43  1  0
 24 44  1  0
 25 45  1  0
M  END
>  <smiles>  (8) 
O=C(NCC(=O)N1CCC[C@H]1c1c[nH]cn1)c1ccc2cc(F)ccc2n1

>  <score_type>  (8) 
oracle

>  <origin>  (8) 
autodockgpu

>  <m_score__min__energy>  (8) 
-8.3200000000000003

>  <m_primary>  (8) 
energy

>  <rmsd>  (8) 
6.3526634739727

>  <m_score__min__rmsd>  (8) 
6.3526634739727

>  <meeko>  (8) 
{"free_energy": -6.48, "intermolecular_energy": -7.97, "internal_energy": -2.44, "cluster_size": 24, "cluster_id": 4, "rank_in_cluster": 19}

>  <energy>  (8) 
-7.35

>  <cluster_rmsd>  (8) 
1.17

>  <cluster>  (8) 
1

$$$$

     RDKit          3D

 45 48  0  0  0  0  0  0  0  0999 V2000
  141.4560   72.3210  221.8790 O   0  0  0  0  0  0  0  0  0  0  0  0
  140.4140   72.4210  222.6050 C   0  0  0  0  0  0  0  0  0  0  0  0
  139.4380   73.3930  222.2590 N   0  0  0  0  0  0  0  0  0  0  0  0
  139.5880   74.2740  221.1070 C   0  0  0  0  0  0  0  0  0  0  0  0
  140.7010   75.2280  221.3930 C   0  0  0  0  0  0  0  0  0  0  0  0
  140.6530   76.0190  222.3670 O   0  0  0  0  0  0  0  0  0  0  0  0
  141.8310   75.2160  220.5250 N   0  0  0  0  0  0  0  0  0  0  0  0
  142.6380   76.3430  220.0720 C   0  0  0  0  0  0  0  0  0  0  0  0
  142.9520   75.9860  218.6390 C   0  0  0  0  0  0  0  0  0  0  0  0
  142.5290   74.5430  218.4510 C   0  0  0  0  0  0  0  0  0  0  0  0
  142.4230   74.0440  219.8980 C   0  0  1  0  0  0  0  0  0  0  0  0
  143.8270   73.8490  220.3480 C   0  0  0  0  0  0  0  0  0  0  0  0
  144.3350   72.6250  220.7260 C   0  0  0  0  0  0  0  0  0  0  0  0
  145.6190   72.8150  221.0710 N   0  0  0  0  0  0  0  0  0  0  0  0
  145.9260   74.1180  220.9190 C   0  0  0  0  0  0  0  0  0  0  0  0
  144.8150   74.7600  220.4720 N   0  0  0  0  0  0  0  0  0  0  0  0
  140.2330   71.5550  223.7640 C   0  0  0  0  0  0  0  0  0  0  0  0
  139.5490   70.3650  223.6140 C   0  0  0  0  0  0  0  0  0  0  0  0
  139.3350   69.4870  224.6590 C   0  0  0  0  0  0  0  0  0  0  0  0
  139.8570   69.8790  225.8930 C   0  0  0  0  0  0  0  0  0  0  0  0
  139.6490   69.0060  226.9550 C   0  0  0  0  0  0  0  0  0  0  0  0
  140.1380   69.3280  228.2090 C   0  0  0  0  0  0  0  0  0  0  0  0
  139.9570   68.5000  229.2820 F   0  0  0  0  0  0  0  0  0  0  0  0
  140.8180   70.5210  228.3390 C   0  0  0  0  0  0  0  0  0  0  0  0
  141.0280   71.3920  227.2900 C   0  0  0  0  0  0  0  0  0  0  0  0
  140.5400   71.0680  226.0420 C   0  0  0  0  0  0  0  0  0  0  0  0
  140.7190   71.8890  224.9790 N   0  0  0  0  0  0  0  0  0  0  0  0
  138.5900   73.4420  222.8870 H   0  0  0  0  0  0  0  0  0  0  0  0
  139.8268   73.6802  220.2123 H   0  0  0  0  0  0  0  0  0  0  0  0
  138.6530   74.8238  220.9239 H   0  0  0  0  0  0  0  0  0  0  0  0
  142.0702   77.2834  220.1293 H   0  0  0  0  0  0  0  0  0  0  0  0
  143.5375   76.5042  220.6843 H   0  0  0  0  0  0  0  0  0  0  0  0
  142.3913   76.6385  217.9535 H   0  0  0  0  0  0  0  0  0  0  0  0
  144.0224   76.1176  218.4222 H   0  0  0  0  0  0  0  0  0  0  0  0
  141.5604   74.4756  217.9341 H   0  0  0  0  0  0  0  0  0  0  0  0
  143.2240   73.9567  217.8320 H   0  0  0  0  0  0  0  0  0  0  0  0
  141.8615   73.1182  220.0921 H   0  0  0  0  0  0  0  0  0  0  0  0
  143.7900   71.6696  220.7421 H   0  0  0  0  0  0  0  0  0  0  0  0
  146.2490   72.0310  221.4030 H   0  0  0  0  0  0  0  0  0  0  0  0
  146.9034   74.5804  221.1211 H   0  0  0  0  0  0  0  0  0  0  0  0
  139.1575   70.1048  222.6195 H   0  0  0  0  0  0  0  0  0  0  0  0
  138.7891   68.5411  224.5273 H   0  0  0  0  0  0  0  0  0  0  0  0
  139.0995   68.0658  226.7995 H   0  0  0  0  0  0  0  0  0  0  0  0
  141.2129   70.7916  229.3294 H   0  0  0  0  0  0  0  0  0  0  0  0
  141.5772   72.3320  227.4471 H   0  0  0  0  0  0  0  0  0  0  0  0
  1  2  2  0
  2  3  1  0
  3  4  1  0
  4  5  1  0
  5  6  2  0
  5  7  1  0
  7  8  1  0
  8  9  1  0
  9 10  1  0
 10 11  1  0
 11 12  1  0
 12 13  2  0
 13 14  1  0
 14 15  1  0
 15 16  2  0
  2 17  1  0
 17 18  2  0
 18 19  1  0
 19 20  2  0
 20 21  1  0
 21 22  2  0
 22 23  1  0
 22 24  1  0
 24 25  2  0
 25 26  1  0
 26 27  2  0
 11  7  1  0
 16 12  1  0
 27 17  1  0
 26 20  1  0
  3 28  1  0
  4 29  1  0
  4 30  1  0
  8 31  1  0
  8 32  1  0
  9 33  1  0
  9 34  1  0
 10 35  1  0
 10 36  1  0
 11 37  1  6
 13 38  1  0
 14 39  1  0
 15 40  1  0
 18 41  1  0
 19 42  1  0
 21 43  1  0
 24 44  1  0
 25 45  1  0
M  END
>  <smiles>  (9) 
O=C(NCC(=O)N1CCC[C@H]1c1c[nH]cn1)c1ccc2cc(F)ccc2n1

>  <score_type>  (9) 
oracle

>  <origin>  (9) 
autodockgpu

>  <m_score__min__energy>  (9) 
-8.3200000000000003

>  <m_primary>  (9) 
energy

>  <rmsd>  (9) 
2.975133136097477

>  <m_score__min__rmsd>  (9) 
2.975133136097477

>  <meeko>  (9) 
{"free_energy": -8.32, "intermolecular_energy": -9.82, "internal_energy": -1.01, "cluster_size": 11, "cluster_id": 1, "rank_in_cluster": 1}

>  <energy>  (9) 
-7.27

>  <cluster_rmsd>  (9) 
1.06

>  <cluster>  (9) 
1

$$$$

     RDKit          3D

 45 48  0  0  0  0  0  0  0  0999 V2000
  138.8660   74.7090  222.3450 O   0  0  0  0  0  0  0  0  0  0  0  0
  139.9310   75.2160  221.8650 C   0  0  0  0  0  0  0  0  0  0  0  0
  140.0040   76.6260  221.7190 N   0  0  0  0  0  0  0  0  0  0  0  0
  138.9070   77.5080  222.0970 C   0  0  0  0  0  0  0  0  0  0  0  0
  139.4850   78.7050  222.7770 C   0  0  0  0  0  0  0  0  0  0  0  0
  138.9520   79.1950  223.8040 O   0  0  0  0  0  0  0  0  0  0  0  0
  140.6660   79.2810  222.2280 N   0  0  0  0  0  0  0  0  0  0  0  0
  142.0430   79.1370  222.6860 C   0  0  0  0  0  0  0  0  0  0  0  0
  142.6240   80.5130  222.4640 C   0  0  0  0  0  0  0  0  0  0  0  0
  141.6120   81.2800  221.6360 C   0  0  0  0  0  0  0  0  0  0  0  0
  140.7370   80.1560  221.0670 C   0  0  1  0  0  0  0  0  0  0  0  0
  141.5490   79.5380  219.9830 C   0  0  0  0  0  0  0  0  0  0  0  0
  142.1910   80.2730  219.0100 C   0  0  0  0  0  0  0  0  0  0  0  0
  142.8210   79.4040  218.2050 N   0  0  0  0  0  0  0  0  0  0  0  0
  142.5920   78.1510  218.6460 C   0  0  0  0  0  0  0  0  0  0  0  0
  141.8030   78.2350  219.7490 N   0  0  0  0  0  0  0  0  0  0  0  0
  141.0470   74.3610  221.4780 C   0  0  0  0  0  0  0  0  0  0  0  0
  140.8700   72.9920  221.4560 C   0  0  0  0  0  0  0  0  0  0  0  0
  141.8740   72.1120  221.1010 C   0  0  0  0  0  0  0  0  0  0  0  0
  143.0960   72.6950  220.7620 C   0  0  0  0  0  0  0  0  0  0  0  0
  144.1170   71.8220  220.4020 C   0  0  0  0  0  0  0  0  0  0  0  0
  145.3570   72.3290  220.0530 C   0  0  0  0  0  0  0  0  0  0  0  0
  146.3900   71.5090  219.6930 F   0  0  0  0  0  0  0  0  0  0  0  0
  145.5150   73.6990  220.0820 C   0  0  0  0  0  0  0  0  0  0  0  0
  144.5070   74.5710  220.4370 C   0  0  0  0  0  0  0  0  0  0  0  0
  143.2730   74.0630  220.7840 C   0  0  0  0  0  0  0  0  0  0  0  0
  142.2490   74.8770  221.1410 N   0  0  0  0  0  0  0  0  0  0  0  0
  140.9050   77.0040  221.3180 H   0  0  0  0  0  0  0  0  0  0  0  0
  138.3539   77.8206  221.1990 H   0  0  0  0  0  0  0  0  0  0  0  0
  138.2137   76.9849  222.7721 H   0  0  0  0  0  0  0  0  0  0  0  0
  142.0783   78.8606  223.7501 H   0  0  0  0  0  0  0  0  0  0  0  0
  142.5937   78.3449  222.1574 H   0  0  0  0  0  0  0  0  0  0  0  0
  142.7861   81.0170  223.4282 H   0  0  0  0  0  0  0  0  0  0  0  0
  143.5956   80.4562  221.9515 H   0  0  0  0  0  0  0  0  0  0  0  0
  141.0224   81.9657  222.2623 H   0  0  0  0  0  0  0  0  0  0  0  0
  142.0670   81.9180  220.8640 H   0  0  0  0  0  0  0  0  0  0  0  0
  139.7495   80.4183  220.6594 H   0  0  0  0  0  0  0  0  0  0  0  0
  142.1876   81.3686  218.9116 H   0  0  0  0  0  0  0  0  0  0  0  0
  143.3960   79.7050  217.3670 H   0  0  0  0  0  0  0  0  0  0  0  0
  142.9758   77.2248  218.1933 H   0  0  0  0  0  0  0  0  0  0  0  0
  139.8867   72.5842  221.7332 H   0  0  0  0  0  0  0  0  0  0  0  0
  141.7204   71.0229  221.0865 H   0  0  0  0  0  0  0  0  0  0  0  0
  143.9405   70.7363  220.3946 H   0  0  0  0  0  0  0  0  0  0  0  0
  146.4948   74.1174  219.8081 H   0  0  0  0  0  0  0  0  0  0  0  0
  144.6851   75.6565  220.4432 H   0  0  0  0  0  0  0  0  0  0  0  0
  1  2  2  0
  2  3  1  0
  3  4  1  0
  4  5  1  0
  5  6  2  0
  5  7  1  0
  7  8  1  0
  8  9  1  0
  9 10  1  0
 10 11  1  0
 11 12  1  0
 12 13  2  0
 13 14  1  0
 14 15  1  0
 15 16  2  0
  2 17  1  0
 17 18  2  0
 18 19  1  0
 19 20  2  0
 20 21  1  0
 21 22  2  0
 22 23  1  0
 22 24  1  0
 24 25  2  0
 25 26  1  0
 26 27  2  0
 11  7  1  0
 16 12  1  0
 27 17  1  0
 26 20  1  0
  3 28  1  0
  4 29  1  0
  4 30  1  0
  8 31  1  0
  8 32  1  0
  9 33  1  0
  9 34  1  0
 10 35  1  0
 10 36  1  0
 11 37  1  6
 13 38  1  0
 14 39  1  0
 15 40  1  0
 18 41  1  0
 19 42  1  0
 21 43  1  0
 24 44  1  0
 25 45  1  0
M  END
>  <smiles>  (10) 
O=C(NCC(=O)N1CCC[C@H]1c1c[nH]cn1)c1ccc2cc(F)ccc2n1

>  <score_type>  (10) 
oracle

>  <origin>  (10) 
autodockgpu

>  <m_score__min__energy>  (10) 
-8.3200000000000003

>  <m_primary>  (10) 
energy

>  <rmsd>  (10) 
6.2671434674661874

>  <m_score__min__rmsd>  (10) 
6.2671434674661874

>  <meeko>  (10) 
{"free_energy": -6.65, "intermolecular_energy": -8.15, "internal_energy": -2.43, "cluster_size": 24, "cluster_id": 4, "rank_in_cluster": 4}

>  <energy>  (10) 
-7.25

>  <cluster_rmsd>  (10) 
1.12

>  <cluster>  (10) 
1

$$$$

     RDKit          3D

 45 48  0  0  0  0  0  0  0  0999 V2000
  139.9240   71.7400  221.0820 O   0  0  0  0  0  0  0  0  0  0  0  0
  139.8310   72.2530  222.2450 C   0  0  0  0  0  0  0  0  0  0  0  0
  139.6330   73.6550  222.3520 N   0  0  0  0  0  0  0  0  0  0  0  0
  139.5330   74.5210  221.1840 C   0  0  0  0  0  0  0  0  0  0  0  0
  140.7930   75.3180  221.0860 C   0  0  0  0  0  0  0  0  0  0  0  0
  141.9220   74.7680  221.1400 O   0  0  0  0  0  0  0  0  0  0  0  0
  140.6820   76.7290  220.9290 N   0  0  0  0  0  0  0  0  0  0  0  0
  139.4740   77.5430  220.8730 C   0  0  0  0  0  0  0  0  0  0  0  0
  139.8120   78.5900  219.8380 C   0  0  0  0  0  0  0  0  0  0  0  0
  141.2980   78.4650  219.5690 C   0  0  0  0  0  0  0  0  0  0  0  0
  141.7850   77.6690  220.7870 C   0  0  1  0  0  0  0  0  0  0  0  0
  141.8030   78.6440  221.9100 C   0  0  0  0  0  0  0  0  0  0  0  0
  142.1960   79.9560  221.7630 C   0  0  0  0  0  0  0  0  0  0  0  0
  142.0900   80.5410  222.9660 N   0  0  0  0  0  0  0  0  0  0  0  0
  141.6430   79.6350  223.8570 C   0  0  0  0  0  0  0  0  0  0  0  0
  141.4650   78.4580  223.2030 N   0  0  0  0  0  0  0  0  0  0  0  0
  139.9260   71.4140  223.4330 C   0  0  0  0  0  0  0  0  0  0  0  0
  139.4940   70.1040  223.3680 C   0  0  0  0  0  0  0  0  0  0  0  0
  139.5490   69.2430  224.4470 C   0  0  0  0  0  0  0  0  0  0  0  0
  140.0740   69.7810  225.6230 C   0  0  0  0  0  0  0  0  0  0  0  0
  140.1360   68.9260  226.7180 C   0  0  0  0  0  0  0  0  0  0  0  0
  140.6440   69.3900  227.9190 C   0  0  0  0  0  0  0  0  0  0  0  0
  140.7240   68.5860  229.0210 F   0  0  0  0  0  0  0  0  0  0  0  0
  141.0700   70.7020  227.9640 C   0  0  0  0  0  0  0  0  0  0  0  0
  141.0120   71.5560  226.8820 C   0  0  0  0  0  0  0  0  0  0  0  0
  140.5050   71.0900  225.6880 C   0  0  0  0  0  0  0  0  0  0  0  0
  140.4260   71.8880  224.5950 N   0  0  0  0  0  0  0  0  0  0  0  0
  139.5610   74.0390  223.3330 H   0  0  0  0  0  0  0  0  0  0  0  0
  139.4066   73.9108  220.2775 H   0  0  0  0  0  0  0  0  0  0  0  0
  138.6657   75.1907  221.2801 H   0  0  0  0  0  0  0  0  0  0  0  0
  138.6077   76.9424  220.5585 H   0  0  0  0  0  0  0  0  0  0  0  0
  139.1973   77.9725  221.8472 H   0  0  0  0  0  0  0  0  0  0  0  0
  139.2421   78.4094  218.9146 H   0  0  0  0  0  0  0  0  0  0  0  0
  139.5556   79.5987  220.1941 H   0  0  0  0  0  0  0  0  0  0  0  0
  141.4889   77.9185  218.6337 H   0  0  0  0  0  0  0  0  0  0  0  0
  141.8058   79.4327  219.4435 H   0  0  0  0  0  0  0  0  0  0  0  0
  142.7686   77.1796  220.7326 H   0  0  0  0  0  0  0  0  0  0  0  0
  142.5340   80.4352  220.8323 H   0  0  0  0  0  0  0  0  0  0  0  0
  142.3320   81.5590  223.1370 H   0  0  0  0  0  0  0  0  0  0  0  0
  141.4553   79.8164  224.9256 H   0  0  0  0  0  0  0  0  0  0  0  0
  139.0887   69.7300  222.4162 H   0  0  0  0  0  0  0  0  0  0  0  0
  139.2016   68.2012  224.3834 H   0  0  0  0  0  0  0  0  0  0  0  0
  139.7836   67.8877  226.6302 H   0  0  0  0  0  0  0  0  0  0  0  0
  141.4766   71.0865  228.9110 H   0  0  0  0  0  0  0  0  0  0  0  0
  141.3653   72.5939  226.9709 H   0  0  0  0  0  0  0  0  0  0  0  0
  1  2  2  0
  2  3  1  0
  3  4  1  0
  4  5  1  0
  5  6  2  0
  5  7  1  0
  7  8  1  0
  8  9  1  0
  9 10  1  0
 10 11  1  0
 11 12  1  0
 12 13  2  0
 13 14  1  0
 14 15  1  0
 15 16  2  0
  2 17  1  0
 17 18  2  0
 18 19  1  0
 19 20  2  0
 20 21  1  0
 21 22  2  0
 22 23  1  0
 22 24  1  0
 24 25  2  0
 25 26  1  0
 26 27  2  0
 11  7  1  0
 16 12  1  0
 27 17  1  0
 26 20  1  0
  3 28  1  0
  4 29  1  0
  4 30  1  0
  8 31  1  0
  8 32  1  0
  9 33  1  0
  9 34  1  0
 10 35  1  0
 10 36  1  0
 11 37  1  6
 13 38  1  0
 14 39  1  0
 15 40  1  0
 18 41  1  0
 19 42  1  0
 21 43  1  0
 24 44  1  0
 25 45  1  0
M  END
>  <smiles>  (11) 
O=C(NCC(=O)N1CCC[C@H]1c1c[nH]cn1)c1ccc2cc(F)ccc2n1

>  <score_type>  (11) 
oracle

>  <origin>  (11) 
autodockgpu

>  <m_score__min__energy>  (11) 
-8.3200000000000003

>  <m_primary>  (11) 
energy

>  <rmsd>  (11) 
1.8176451483997311

>  <m_score__min__rmsd>  (11) 
1.8176451483997311

>  <meeko>  (11) 
{"free_energy": -7.28, "intermolecular_energy": -8.77, "internal_energy": -1.25, "cluster_size": 10, "cluster_id": 2, "rank_in_cluster": 8}

>  <energy>  (11) 
-7.16

>  <cluster_rmsd>  (11) 
1.45

>  <cluster>  (11) 
1

$$$$

     RDKit          3D

 45 48  0  0  0  0  0  0  0  0999 V2000
  141.3650   72.4010  221.4770 O   0  0  0  0  0  0  0  0  0  0  0  0
  140.4930   72.6050  222.3830 C   0  0  0  0  0  0  0  0  0  0  0  0
  139.7120   73.7880  222.3170 N   0  0  0  0  0  0  0  0  0  0  0  0
  139.8720   74.7710  221.2530 C   0  0  0  0  0  0  0  0  0  0  0  0
  139.5500   76.1180  221.8120 C   0  0  0  0  0  0  0  0  0  0  0  0
  138.6300   76.2760  222.6530 O   0  0  0  0  0  0  0  0  0  0  0  0
  140.3190   77.2300  221.3630 N   0  0  0  0  0  0  0  0  0  0  0  0
  141.4260   77.8980  222.0370 C   0  0  0  0  0  0  0  0  0  0  0  0
  141.2080   79.3530  221.6970 C   0  0  0  0  0  0  0  0  0  0  0  0
  140.1400   79.3890  220.6220 C   0  0  0  0  0  0  0  0  0  0  0  0
  140.1480   77.9440  220.1060 C   0  0  1  0  0  0  0  0  0  0  0  0
  141.3680   77.8370  219.2620 C   0  0  0  0  0  0  0  0  0  0  0  0
  141.8210   78.8600  218.4580 C   0  0  0  0  0  0  0  0  0  0  0  0
  142.9320   78.4230  217.8440 N   0  0  0  0  0  0  0  0  0  0  0  0
  143.1850   77.1610  218.2400 C   0  0  0  0  0  0  0  0  0  0  0  0
  142.2150   76.7970  219.1190 N   0  0  0  0  0  0  0  0  0  0  0  0
  140.3080   71.6400  223.4610 C   0  0  0  0  0  0  0  0  0  0  0  0
  139.6570   70.4520  223.1950 C   0  0  0  0  0  0  0  0  0  0  0  0
  139.4400   69.4850  224.1590 C   0  0  0  0  0  0  0  0  0  0  0  0
  139.9240   69.7840  225.4330 C   0  0  0  0  0  0  0  0  0  0  0  0
  139.7120   68.8200  226.4140 C   0  0  0  0  0  0  0  0  0  0  0  0
  140.1650   69.0480  227.7020 C   0  0  0  0  0  0  0  0  0  0  0  0
  139.9800   68.1300  228.6980 F   0  0  0  0  0  0  0  0  0  0  0  0
  140.8120   70.2410  227.9470 C   0  0  0  0  0  0  0  0  0  0  0  0
  141.0250   71.2010  226.9800 C   0  0  0  0  0  0  0  0  0  0  0  0
  140.5740   70.9710  225.6980 C   0  0  0  0  0  0  0  0  0  0  0  0
  140.7570   71.8830  224.7110 N   0  0  0  0  0  0  0  0  0  0  0  0
  139.0010   73.9170  223.0870 H   0  0  0  0  0  0  0  0  0  0  0  0
  140.9090   74.7579  220.8864 H   0  0  0  0  0  0  0  0  0  0  0  0
  139.2003   74.5366  220.4141 H   0  0  0  0  0  0  0  0  0  0  0  0
  141.3818   77.7358  223.1241 H   0  0  0  0  0  0  0  0  0  0  0  0
  142.4116   77.5241  221.7228 H   0  0  0  0  0  0  0  0  0  0  0  0
  140.8702   79.9046  222.5868 H   0  0  0  0  0  0  0  0  0  0  0  0
  142.1391   79.8236  221.3483 H   0  0  0  0  0  0  0  0  0  0  0  0
  139.1596   79.6564  221.0430 H   0  0  0  0  0  0  0  0  0  0  0  0
  140.3281   80.1379  219.8386 H   0  0  0  0  0  0  0  0  0  0  0  0
  139.2852   77.5930  219.5209 H   0  0  0  0  0  0  0  0  0  0  0  0
  141.3582   79.8510  218.3409 H   0  0  0  0  0  0  0  0  0  0  0  0
  143.4870   79.0170  217.1630 H   0  0  0  0  0  0  0  0  0  0  0  0
  144.0277   76.5356  217.9103 H   0  0  0  0  0  0  0  0  0  0  0  0
  139.2956   70.2669  222.1727 H   0  0  0  0  0  0  0  0  0  0  0  0
  138.9199   68.5417  223.9362 H   0  0  0  0  0  0  0  0  0  0  0  0
  139.1886   67.8843  226.1679 H   0  0  0  0  0  0  0  0  0  0  0  0
  141.1769   70.4369  228.9660 H   0  0  0  0  0  0  0  0  0  0  0  0
  141.5473   72.1367  227.2283 H   0  0  0  0  0  0  0  0  0  0  0  0
  1  2  2  0
  2  3  1  0
  3  4  1  0
  4  5  1  0
  5  6  2  0
  5  7  1  0
  7  8  1  0
  8  9  1  0
  9 10  1  0
 10 11  1  0
 11 12  1  0
 12 13  2  0
 13 14  1  0
 14 15  1  0
 15 16  2  0
  2 17  1  0
 17 18  2  0
 18 19  1  0
 19 20  2  0
 20 21  1  0
 21 22  2  0
 22 23  1  0
 22 24  1  0
 24 25  2  0
 25 26  1  0
 26 27  2  0
 11  7  1  0
 16 12  1  0
 27 17  1  0
 26 20  1  0
  3 28  1  0
  4 29  1  0
  4 30  1  0
  8 31  1  0
  8 32  1  0
  9 33  1  0
  9 34  1  0
 10 35  1  0
 10 36  1  0
 11 37  1  6
 13 38  1  0
 14 39  1  0
 15 40  1  0
 18 41  1  0
 19 42  1  0
 21 43  1  0
 24 44  1  0
 25 45  1  0
M  END
>  <smiles>  (12) 
O=C(NCC(=O)N1CCC[C@H]1c1c[nH]cn1)c1ccc2cc(F)ccc2n1

>  <score_type>  (12) 
oracle

>  <origin>  (12) 
autodockgpu

>  <m_score__min__energy>  (12) 
-8.3200000000000003

>  <m_primary>  (12) 
energy

>  <rmsd>  (12) 
3.0327317924654777

>  <m_score__min__rmsd>  (12) 
3.0327317924654777

>  <meeko>  (12) 
{"free_energy": -7.43, "intermolecular_energy": -8.92, "internal_energy": -1.41, "cluster_size": 4, "cluster_id": 3, "rank_in_cluster": 2}

>  <energy>  (12) 
-7.73

>  <cluster_rmsd>  (12) 
0.0

>  <cluster>  (12) 
2

$$$$

     RDKit          3D

 45 48  0  0  0  0  0  0  0  0999 V2000
  138.7000   74.6160  222.3340 O   0  0  0  0  0  0  0  0  0  0  0  0
  139.7710   75.1650  221.9160 C   0  0  0  0  0  0  0  0  0  0  0  0
  139.8230   76.5820  221.8470 N   0  0  0  0  0  0  0  0  0  0  0  0
  138.6990   77.4250  222.2370 C   0  0  0  0  0  0  0  0  0  0  0  0
  139.2400   78.7370  222.7010 C   0  0  0  0  0  0  0  0  0  0  0  0
  138.5740   79.4920  223.4520 O   0  0  0  0  0  0  0  0  0  0  0  0
  140.5440   79.1150  222.2680 N   0  0  0  0  0  0  0  0  0  0  0  0
  141.8340   78.6820  222.7900 C   0  0  0  0  0  0  0  0  0  0  0  0
  142.6740   79.9340  222.7110 C   0  0  0  0  0  0  0  0  0  0  0  0
  141.8830   80.9330  221.8900 C   0  0  0  0  0  0  0  0  0  0  0  0
  140.8580   80.0360  221.1850 C   0  0  1  0  0  0  0  0  0  0  0  0
  141.6150   79.3510  220.1040 C   0  0  0  0  0  0  0  0  0  0  0  0
  142.2290   80.0240  219.0700 C   0  0  0  0  0  0  0  0  0  0  0  0
  142.8130   79.1030  218.2860 N   0  0  0  0  0  0  0  0  0  0  0  0
  142.5820   77.8790  218.7990 C   0  0  0  0  0  0  0  0  0  0  0  0
  141.8400   78.0330  219.9270 N   0  0  0  0  0  0  0  0  0  0  0  0
  140.9130   74.3500  221.5190 C   0  0  0  0  0  0  0  0  0  0  0  0
  140.7850   72.9760  221.5030 C   0  0  0  0  0  0  0  0  0  0  0  0
  141.8170   72.1320  221.1390 C   0  0  0  0  0  0  0  0  0  0  0  0
  143.0130   72.7580  220.7860 C   0  0  0  0  0  0  0  0  0  0  0  0
  144.0610   71.9210  220.4180 C   0  0  0  0  0  0  0  0  0  0  0  0
  145.2780   72.4720  220.0550 C   0  0  0  0  0  0  0  0  0  0  0  0
  146.3360   71.6890  219.6860 F   0  0  0  0  0  0  0  0  0  0  0  0
  145.3870   73.8470  220.0780 C   0  0  0  0  0  0  0  0  0  0  0  0
  144.3520   74.6830  220.4420 C   0  0  0  0  0  0  0  0  0  0  0  0
  143.1400   74.1320  220.8030 C   0  0  0  0  0  0  0  0  0  0  0  0
  142.0920   74.9090  221.1690 N   0  0  0  0  0  0  0  0  0  0  0  0
  140.7290   76.9960  221.4960 H   0  0  0  0  0  0  0  0  0  0  0  0
  138.0332   77.5803  221.3752 H   0  0  0  0  0  0  0  0  0  0  0  0
  138.1245   76.9442  223.0424 H   0  0  0  0  0  0  0  0  0  0  0  0
  141.7424   78.3330  223.8291 H   0  0  0  0  0  0  0  0  0  0  0  0
  142.2642   77.8371  222.2322 H   0  0  0  0  0  0  0  0  0  0  0  0
  142.8579   80.3323  223.7197 H   0  0  0  0  0  0  0  0  0  0  0  0
  143.6521   79.7280  222.2518 H   0  0  0  0  0  0  0  0  0  0  0  0
  141.3875   81.6746  222.5339 H   0  0  0  0  0  0  0  0  0  0  0  0
  142.5017   81.5236  221.1983 H   0  0  0  0  0  0  0  0  0  0  0  0
  139.9672   80.5069  220.7437 H   0  0  0  0  0  0  0  0  0  0  0  0
  142.2390   81.1130  218.9155 H   0  0  0  0  0  0  0  0  0  0  0  0
  143.3580   79.3520  217.4110 H   0  0  0  0  0  0  0  0  0  0  0  0
  142.9319   76.9243  218.3793 H   0  0  0  0  0  0  0  0  0  0  0  0
  139.8203   72.5337  221.7924 H   0  0  0  0  0  0  0  0  0  0  0  0
  141.7030   71.0380  221.1283 H   0  0  0  0  0  0  0  0  0  0  0  0
  143.9239   70.8296  220.4154 H   0  0  0  0  0  0  0  0  0  0  0  0
  146.3478   74.2996  219.7916 H   0  0  0  0  0  0  0  0  0  0  0  0
  144.4912   75.7742  220.4444 H   0  0  0  0  0  0  0  0  0  0  0  0
  1  2  2  0
  2  3  1  0
  3  4  1  0
  4  5  1  0
  5  6  2  0
  5  7  1  0
  7  8  1  0
  8  9  1  0
  9 10  1  0
 10 11  1  0
 11 12  1  0
 12 13  2  0
 13 14  1  0
 14 15  1  0
 15 16  2  0
  2 17  1  0
 17 18  2  0
 18 19  1  0
 19 20  2  0
 20 21  1  0
 21 22  2  0
 22 23  1  0
 22 24  1  0
 24 25  2  0
 25 26  1  0
 26 27  2  0
 11  7  1  0
 16 12  1  0
 27 17  1  0
 26 20  1  0
  3 28  1  0
  4 29  1  0
  4 30  1  0
  8 31  1  0
  8 32  1  0
  9 33  1  0
  9 34  1  0
 10 35  1  0
 10 36  1  0
 11 37  1  6
 13 38  1  0
 14 39  1  0
 15 40  1  0
 18 41  1  0
 19 42  1  0
 21 43  1  0
 24 44  1  0
 25 45  1  0
M  END
>  <smiles>  (13) 
O=C(NCC(=O)N1CCC[C@H]1c1c[nH]cn1)c1ccc2cc(F)ccc2n1

>  <score_type>  (13) 
oracle

>  <origin>  (13) 
autodockgpu

>  <m_score__min__energy>  (13) 
-8.3200000000000003

>  <m_primary>  (13) 
energy

>  <rmsd>  (13) 
6.2063392412482274

>  <m_score__min__rmsd>  (13) 
6.2063392412482274

>  <meeko>  (13) 
{"free_energy": -6.5, "intermolecular_energy": -7.99, "internal_energy": -2.51, "cluster_size": 24, "cluster_id": 4, "rank_in_cluster": 17}

>  <energy>  (13) 
-7.67

>  <cluster_rmsd>  (13) 
0.24

>  <cluster>  (13) 
2

$$$$

     RDKit          3D

 45 48  0  0  0  0  0  0  0  0999 V2000
  140.9300   71.9190  221.2670 O   0  0  0  0  0  0  0  0  0  0  0  0
  140.3890   72.3710  222.3280 C   0  0  0  0  0  0  0  0  0  0  0  0
  139.9490   73.7210  222.3420 N   0  0  0  0  0  0  0  0  0  0  0  0
  140.0950   74.6020  221.1900 C   0  0  0  0  0  0  0  0  0  0  0  0
  139.8990   76.0080  221.6510 C   0  0  0  0  0  0  0  0  0  0  0  0
  139.2910   76.2690  222.7190 O   0  0  0  0  0  0  0  0  0  0  0  0
  140.4250   77.0570  220.8430 N   0  0  0  0  0  0  0  0  0  0  0  0
  139.7500   77.8290  219.8070 C   0  0  0  0  0  0  0  0  0  0  0  0
  140.8240   78.0130  218.7610 C   0  0  0  0  0  0  0  0  0  0  0  0
  142.1250   77.5650  219.3970 C   0  0  0  0  0  0  0  0  0  0  0  0
  141.7810   77.5830  220.8910 C   0  0  1  0  0  0  0  0  0  0  0  0
  141.7820   79.0210  221.2760 C   0  0  0  0  0  0  0  0  0  0  0  0
  141.7540   79.4510  222.5850 C   0  0  0  0  0  0  0  0  0  0  0  0
  141.7630   80.7930  222.5630 N   0  0  0  0  0  0  0  0  0  0  0  0
  141.7960   81.2120  221.2830 C   0  0  0  0  0  0  0  0  0  0  0  0
  141.8080   80.1120  220.4850 N   0  0  0  0  0  0  0  0  0  0  0  0
  140.2280   71.5160  223.4980 C   0  0  0  0  0  0  0  0  0  0  0  0
  139.6020   70.2940  223.3570 C   0  0  0  0  0  0  0  0  0  0  0  0
  139.4100   69.4240  224.4130 C   0  0  0  0  0  0  0  0  0  0  0  0
  139.8910   69.8590  225.6490 C   0  0  0  0  0  0  0  0  0  0  0  0
  139.7040   68.9950  226.7220 C   0  0  0  0  0  0  0  0  0  0  0  0
  140.1550   69.3590  227.9790 C   0  0  0  0  0  0  0  0  0  0  0  0
  139.9940   68.5420  229.0620 F   0  0  0  0  0  0  0  0  0  0  0  0
  140.7770   70.5850  228.1000 C   0  0  0  0  0  0  0  0  0  0  0  0
  140.9660   71.4470  227.0400 C   0  0  0  0  0  0  0  0  0  0  0  0
  140.5160   71.0810  225.7900 C   0  0  0  0  0  0  0  0  0  0  0  0
  140.6760   71.8920  224.7160 N   0  0  0  0  0  0  0  0  0  0  0  0
  139.5060   74.0550  223.2410 H   0  0  0  0  0  0  0  0  0  0  0  0
  141.1006   74.4881  220.7591 H   0  0  0  0  0  0  0  0  0  0  0  0
  139.3519   74.3473  220.4200 H   0  0  0  0  0  0  0  0  0  0  0  0
  138.8917   77.2755  219.3984 H   0  0  0  0  0  0  0  0  0  0  0  0
  139.3388   78.7802  220.1759 H   0  0  0  0  0  0  0  0  0  0  0  0
  140.6021   77.3983  217.8762 H   0  0  0  0  0  0  0  0  0  0  0  0
  140.8825   79.0606  218.4308 H   0  0  0  0  0  0  0  0  0  0  0  0
  142.4037   76.5542  219.0645 H   0  0  0  0  0  0  0  0  0  0  0  0
  142.9848   78.1992  219.1351 H   0  0  0  0  0  0  0  0  0  0  0  0
  142.4354   77.0342  221.5843 H   0  0  0  0  0  0  0  0  0  0  0  0
  141.7289   78.8132  223.4809 H   0  0  0  0  0  0  0  0  0  0  0  0
  141.7460   81.3850  223.4430 H   0  0  0  0  0  0  0  0  0  0  0  0
  141.8106   82.2584  220.9441 H   0  0  0  0  0  0  0  0  0  0  0  0
  139.2403   70.0000  222.3606 H   0  0  0  0  0  0  0  0  0  0  0  0
  138.9106   68.4519  224.2878 H   0  0  0  0  0  0  0  0  0  0  0  0
  139.2008   68.0283  226.5730 H   0  0  0  0  0  0  0  0  0  0  0  0
  141.1405   70.8903  229.0923 H   0  0  0  0  0  0  0  0  0  0  0  0
  141.4692   72.4136  227.1904 H   0  0  0  0  0  0  0  0  0  0  0  0
  1  2  2  0
  2  3  1  0
  3  4  1  0
  4  5  1  0
  5  6  2  0
  5  7  1  0
  7  8  1  0
  8  9  1  0
  9 10  1  0
 10 11  1  0
 11 12  1  0
 12 13  2  0
 13 14  1  0
 14 15  1  0
 15 16  2  0
  2 17  1  0
 17 18  2  0
 18 19  1  0
 19 20  2  0
 20 21  1  0
 21 22  2  0
 22 23  1  0
 22 24  1  0
 24 25  2  0
 25 26  1  0
 26 27  2  0
 11  7  1  0
 16 12  1  0
 27 17  1  0
 26 20  1  0
  3 28  1  0
  4 29  1  0
  4 30  1  0
  8 31  1  0
  8 32  1  0
  9 33  1  0
  9 34  1  0
 10 35  1  0
 10 36  1  0
 11 37  1  1
 13 38  1  0
 14 39  1  0
 15 40  1  0
 18 41  1  0
 19 42  1  0
 21 43  1  0
 24 44  1  0
 25 45  1  0
M  END
>  <smiles>  (14) 
O=C(NCC(=O)N1CCC[C@H]1c1c[nH]cn1)c1ccc2cc(F)ccc2n1

>  <score_type>  (14) 
oracle

>  <origin>  (14) 
autodockgpu

>  <m_score__min__energy>  (14) 
-8.3200000000000003

>  <m_primary>  (14) 
energy

>  <rmsd>  (14) 
1.9544501504948772

>  <m_score__min__rmsd>  (14) 
1.9544501504948772

>  <meeko>  (14) 
{"free_energy": -7.09, "intermolecular_energy": -8.58, "internal_energy": -1.51, "cluster_size": 10, "cluster_id": 2, "rank_in_cluster": 10}

>  <energy>  (14) 
-7.52

>  <cluster_rmsd>  (14) 
0.96

>  <cluster>  (14) 
2

$$$$

     RDKit          3D

 45 48  0  0  0  0  0  0  0  0999 V2000
  141.0500   73.0110  222.2420 O   0  0  0  0  0  0  0  0  0  0  0  0
  139.9650   72.6270  222.7880 C   0  0  0  0  0  0  0  0  0  0  0  0
  138.7430   73.1920  222.3390 N   0  0  0  0  0  0  0  0  0  0  0  0
  138.6880   74.1930  221.2800 C   0  0  0  0  0  0  0  0  0  0  0  0
  138.8420   75.5400  221.9040 C   0  0  0  0  0  0  0  0  0  0  0  0
  137.9820   75.9960  222.6990 O   0  0  0  0  0  0  0  0  0  0  0  0
  139.9990   76.3030  221.5740 N   0  0  0  0  0  0  0  0  0  0  0  0
  140.9790   76.8990  222.4740 C   0  0  0  0  0  0  0  0  0  0  0  0
  141.3080   78.2120  221.8030 C   0  0  0  0  0  0  0  0  0  0  0  0
  140.6930   78.1530  220.4180 C   0  0  0  0  0  0  0  0  0  0  0  0
  140.4470   76.6500  220.2340 C   0  0  1  0  0  0  0  0  0  0  0  0
  141.7870   76.0660  219.9510 C   0  0  0  0  0  0  0  0  0  0  0  0
  142.6150   76.5280  218.9510 C   0  0  0  0  0  0  0  0  0  0  0  0
  143.7290   75.7790  218.9790 N   0  0  0  0  0  0  0  0  0  0  0  0
  143.6200   74.8670  219.9640 C   0  0  0  0  0  0  0  0  0  0  0  0
  142.4160   75.0450  220.5670 N   0  0  0  0  0  0  0  0  0  0  0  0
  139.9860   71.6270  223.8500 C   0  0  0  0  0  0  0  0  0  0  0  0
  139.4570   70.3760  223.6050 C   0  0  0  0  0  0  0  0  0  0  0  0
  139.4370   69.3720  224.5560 C   0  0  0  0  0  0  0  0  0  0  0  0
  139.9890   69.7030  225.7940 C   0  0  0  0  0  0  0  0  0  0  0  0
  139.9760   68.7030  226.7610 C   0  0  0  0  0  0  0  0  0  0  0  0
  140.5070   68.9590  228.0140 C   0  0  0  0  0  0  0  0  0  0  0  0
  140.5150   68.0070  228.9950 F   0  0  0  0  0  0  0  0  0  0  0  0
  141.0300   70.2160  228.2380 C   0  0  0  0  0  0  0  0  0  0  0  0
  141.0460   71.2120  227.2850 C   0  0  0  0  0  0  0  0  0  0  0  0
  140.5170   70.9540  226.0380 C   0  0  0  0  0  0  0  0  0  0  0  0
  140.5090   71.8980  225.0650 N   0  0  0  0  0  0  0  0  0  0  0  0
  137.8680   72.8450  222.8180 H   0  0  0  0  0  0  0  0  0  0  0  0
  139.5026   74.0201  220.5613 H   0  0  0  0  0  0  0  0  0  0  0  0
  137.7287   74.1289  220.7456 H   0  0  0  0  0  0  0  0  0  0  0  0
  140.5489   77.0632  223.4730 H   0  0  0  0  0  0  0  0  0  0  0  0
  141.8618   76.2625  222.6340 H   0  0  0  0  0  0  0  0  0  0  0  0
  140.8791   79.0487  222.3740 H   0  0  0  0  0  0  0  0  0  0  0  0
  142.3952   78.3702  221.7493 H   0  0  0  0  0  0  0  0  0  0  0  0
  139.7508   78.7191  220.3760 H   0  0  0  0  0  0  0  0  0  0  0  0
  141.3269   78.5949  219.6351 H   0  0  0  0  0  0  0  0  0  0  0  0
  139.7505   76.3269  219.4463 H   0  0  0  0  0  0  0  0  0  0  0  0
  142.4028   77.3561  218.2588 H   0  0  0  0  0  0  0  0  0  0  0  0
  144.5380   75.9230  218.3100 H   0  0  0  0  0  0  0  0  0  0  0  0
  144.3730   74.1115  220.2327 H   0  0  0  0  0  0  0  0  0  0  0  0
  139.0334   70.1687  222.6112 H   0  0  0  0  0  0  0  0  0  0  0  0
  139.0137   68.3778  224.3499 H   0  0  0  0  0  0  0  0  0  0  0  0
  139.5471   67.7163  226.5320 H   0  0  0  0  0  0  0  0  0  0  0  0
  141.4562   70.4347  229.2282 H   0  0  0  0  0  0  0  0  0  0  0  0
  141.4746   72.1984  227.5160 H   0  0  0  0  0  0  0  0  0  0  0  0
  1  2  2  0
  2  3  1  0
  3  4  1  0
  4  5  1  0
  5  6  2  0
  5  7  1  0
  7  8  1  0
  8  9  1  0
  9 10  1  0
 10 11  1  0
 11 12  1  0
 12 13  2  0
 13 14  1  0
 14 15  1  0
 15 16  2  0
  2 17  1  0
 17 18  2  0
 18 19  1  0
 19 20  2  0
 20 21  1  0
 21 22  2  0
 22 23  1  0
 22 24  1  0
 24 25  2  0
 25 26  1  0
 26 27  2  0
 11  7  1  0
 16 12  1  0
 27 17  1  0
 26 20  1  0
  3 28  1  0
  4 29  1  0
  4 30  1  0
  8 31  1  0
  8 32  1  0
  9 33  1  0
  9 34  1  0
 10 35  1  0
 10 36  1  0
 11 37  1  6
 13 38  1  0
 14 39  1  0
 15 40  1  0
 18 41  1  0
 19 42  1  0
 21 43  1  0
 24 44  1  0
 25 45  1  0
M  END
>  <smiles>  (15) 
O=C(NCC(=O)N1CCC[C@H]1c1c[nH]cn1)c1ccc2cc(F)ccc2n1

>  <score_type>  (15) 
oracle

>  <origin>  (15) 
autodockgpu

>  <m_score__min__energy>  (15) 
-8.3200000000000003

>  <m_primary>  (15) 
energy

>  <rmsd>  (15) 
2.8098220135196637

>  <m_score__min__rmsd>  (15) 
2.8098220135196637

>  <meeko>  (15) 
{"free_energy": -7.55, "intermolecular_energy": -9.04, "internal_energy": -1.33, "cluster_size": 11, "cluster_id": 1, "rank_in_cluster": 6}

>  <energy>  (15) 
-7.39

>  <cluster_rmsd>  (15) 
0.96

>  <cluster>  (15) 
2

$$$$

     RDKit          3D

 45 48  0  0  0  0  0  0  0  0999 V2000
  138.7560   74.7350  222.3500 O   0  0  0  0  0  0  0  0  0  0  0  0
  139.8510   75.2560  221.9600 C   0  0  0  0  0  0  0  0  0  0  0  0
  139.9510   76.6710  221.9190 N   0  0  0  0  0  0  0  0  0  0  0  0
  138.8490   77.5430  222.3060 C   0  0  0  0  0  0  0  0  0  0  0  0
  139.4260   78.8100  222.8460 C   0  0  0  0  0  0  0  0  0  0  0  0
  138.8360   79.4710  223.7380 O   0  0  0  0  0  0  0  0  0  0  0  0
  140.6730   79.2560  222.3210 N   0  0  0  0  0  0  0  0  0  0  0  0
  142.0170   78.9620  222.8030 C   0  0  0  0  0  0  0  0  0  0  0  0
  142.7490   80.2660  222.5960 C   0  0  0  0  0  0  0  0  0  0  0  0
  141.8420   81.1400  221.7530 C   0  0  0  0  0  0  0  0  0  0  0  0
  140.8600   80.1190  221.1640 C   0  0  1  0  0  0  0  0  0  0  0  0
  141.6200   79.4190  220.0930 C   0  0  0  0  0  0  0  0  0  0  0  0
  142.2270   80.0770  219.0460 C   0  0  0  0  0  0  0  0  0  0  0  0
  142.8140   79.1460  218.2770 N   0  0  0  0  0  0  0  0  0  0  0  0
  142.5920   77.9300  218.8130 C   0  0  0  0  0  0  0  0  0  0  0  0
  141.8510   78.0990  219.9390 N   0  0  0  0  0  0  0  0  0  0  0  0
  140.9730   74.4110  221.5670 C   0  0  0  0  0  0  0  0  0  0  0  0
  140.8140   73.0390  221.5680 C   0  0  0  0  0  0  0  0  0  0  0  0
  141.8250   72.1680  221.2090 C   0  0  0  0  0  0  0  0  0  0  0  0
  143.0330   72.7640  220.8420 C   0  0  0  0  0  0  0  0  0  0  0  0
  144.0600   71.8990  220.4780 C   0  0  0  0  0  0  0  0  0  0  0  0
  145.2870   72.4180  220.1010 C   0  0  0  0  0  0  0  0  0  0  0  0
  146.3250   71.6070  219.7370 F   0  0  0  0  0  0  0  0  0  0  0  0
  145.4260   73.7910  220.1080 C   0  0  0  0  0  0  0  0  0  0  0  0
  144.4120   74.6540  220.4670 C   0  0  0  0  0  0  0  0  0  0  0  0
  143.1910   74.1340  220.8410 C   0  0  0  0  0  0  0  0  0  0  0  0
  142.1620   74.9390  221.2030 N   0  0  0  0  0  0  0  0  0  0  0  0
  140.8760   77.0610  221.5910 H   0  0  0  0  0  0  0  0  0  0  0  0
  138.2223   77.7629  221.4292 H   0  0  0  0  0  0  0  0  0  0  0  0
  138.2259   77.0532  223.0687 H   0  0  0  0  0  0  0  0  0  0  0  0
  142.0024   78.6821  223.8667 H   0  0  0  0  0  0  0  0  0  0  0  0
  142.4872   78.1152  222.2817 H   0  0  0  0  0  0  0  0  0  0  0  0
  142.9480   80.7479  223.5646 H   0  0  0  0  0  0  0  0  0  0  0  0
  143.7177   80.1039  222.1006 H   0  0  0  0  0  0  0  0  0  0  0  0
  141.3193   81.8848  222.3712 H   0  0  0  0  0  0  0  0  0  0  0  0
  142.3778   81.7259  220.9917 H   0  0  0  0  0  0  0  0  0  0  0  0
  139.9144   80.4870  220.7393 H   0  0  0  0  0  0  0  0  0  0  0  0
  142.2302   81.1632  218.8723 H   0  0  0  0  0  0  0  0  0  0  0  0
  143.3560   79.3830  217.3970 H   0  0  0  0  0  0  0  0  0  0  0  0
  142.9478   76.9702  218.4102 H   0  0  0  0  0  0  0  0  0  0  0  0
  139.8412   72.6219  221.8673 H   0  0  0  0  0  0  0  0  0  0  0  0
  141.6870   71.0767  221.2122 H   0  0  0  0  0  0  0  0  0  0  0  0
  143.8984   70.8110  220.4896 H   0  0  0  0  0  0  0  0  0  0  0  0
  146.3952   74.2189  219.8121 H   0  0  0  0  0  0  0  0  0  0  0  0
  144.5750   75.7418  220.4551 H   0  0  0  0  0  0  0  0  0  0  0  0
  1  2  2  0
  2  3  1  0
  3  4  1  0
  4  5  1  0
  5  6  2  0
  5  7  1  0
  7  8  1  0
  8  9  1  0
  9 10  1  0
 10 11  1  0
 11 12  1  0
 12 13  2  0
 13 14  1  0
 14 15  1  0
 15 16  2  0
  2 17  1  0
 17 18  2  0
 18 19  1  0
 19 20  2  0
 20 21  1  0
 21 22  2  0
 22 23  1  0
 22 24  1  0
 24 25  2  0
 25 26  1  0
 26 27  2  0
 11  7  1  0
 16 12  1  0
 27 17  1  0
 26 20  1  0
  3 28  1  0
  4 29  1  0
  4 30  1  0
  8 31  1  0
  8 32  1  0
  9 33  1  0
  9 34  1  0
 10 35  1  0
 10 36  1  0
 11 37  1  6
 13 38  1  0
 14 39  1  0
 15 40  1  0
 18 41  1  0
 19 42  1  0
 21 43  1  0
 24 44  1  0
 25 45  1  0
M  END
>  <smiles>  (16) 
O=C(NCC(=O)N1CCC[C@H]1c1c[nH]cn1)c1ccc2cc(F)ccc2n1

>  <score_type>  (16) 
oracle

>  <origin>  (16) 
autodockgpu

>  <m_score__min__energy>  (16) 
-8.3200000000000003

>  <m_primary>  (16) 
energy

>  <rmsd>  (16) 
6.250939078995025

>  <m_score__min__rmsd>  (16) 
6.250939078995025

>  <meeko>  (16) 
{"free_energy": -6.63, "intermolecular_energy": -8.12, "internal_energy": -2.51, "cluster_size": 24, "cluster_id": 4, "rank_in_cluster": 9}

>  <energy>  (16) 
-7.38

>  <cluster_rmsd>  (16) 
0.95

>  <cluster>  (16) 
2

$$$$

     RDKit          3D

 45 48  0  0  0  0  0  0  0  0999 V2000
  141.3160   72.5280  221.5750 O   0  0  0  0  0  0  0  0  0  0  0  0
  140.3880   72.6530  222.4390 C   0  0  0  0  0  0  0  0  0  0  0  0
  139.5040   73.7580  222.3280 N   0  0  0  0  0  0  0  0  0  0  0  0
  139.6210   74.7480  221.2650 C   0  0  0  0  0  0  0  0  0  0  0  0
  139.2360   76.0790  221.8230 C   0  0  0  0  0  0  0  0  0  0  0  0
  138.3040   76.1950  222.6570 O   0  0  0  0  0  0  0  0  0  0  0  0
  139.9600   77.2240  221.3830 N   0  0  0  0  0  0  0  0  0  0  0  0
  139.4900   78.3360  220.5660 C   0  0  0  0  0  0  0  0  0  0  0  0
  140.6800   78.6460  219.6900 C   0  0  0  0  0  0  0  0  0  0  0  0
  141.8480   77.8640  220.2570 C   0  0  0  0  0  0  0  0  0  0  0  0
  141.3570   77.5210  221.6680 C   0  0  1  0  0  0  0  0  0  0  0  0
  141.4850   78.7840  222.4450 C   0  0  0  0  0  0  0  0  0  0  0  0
  142.5760   79.6200  222.3490 C   0  0  0  0  0  0  0  0  0  0  0  0
  142.3610   80.6530  223.1800 N   0  0  0  0  0  0  0  0  0  0  0  0
  141.1710   80.4860  223.7880 C   0  0  0  0  0  0  0  0  0  0  0  0
  140.6270   79.3270  223.3320 N   0  0  0  0  0  0  0  0  0  0  0  0
  140.2440   71.6800  223.5160 C   0  0  0  0  0  0  0  0  0  0  0  0
  139.6000   70.4860  223.2610 C   0  0  0  0  0  0  0  0  0  0  0  0
  139.4220   69.5110  224.2240 C   0  0  0  0  0  0  0  0  0  0  0  0
  139.9370   69.8080  225.4860 C   0  0  0  0  0  0  0  0  0  0  0  0
  139.7640   68.8360  226.4660 C   0  0  0  0  0  0  0  0  0  0  0  0
  140.2490   69.0610  227.7430 C   0  0  0  0  0  0  0  0  0  0  0  0
  140.1020   68.1350  228.7380 F   0  0  0  0  0  0  0  0  0  0  0  0
  140.8880   70.2610  227.9780 C   0  0  0  0  0  0  0  0  0  0  0  0
  141.0630   71.2290  227.0120 C   0  0  0  0  0  0  0  0  0  0  0  0
  140.5790   71.0020  225.7410 C   0  0  0  0  0  0  0  0  0  0  0  0
  140.7250   71.9210  224.7550 N   0  0  0  0  0  0  0  0  0  0  0  0
  138.7500   73.8240  223.0650 H   0  0  0  0  0  0  0  0  0  0  0  0
  140.6584   74.7827  220.9009 H   0  0  0  0  0  0  0  0  0  0  0  0
  138.9624   74.4832  220.4247 H   0  0  0  0  0  0  0  0  0  0  0  0
  138.6204   78.0409  219.9604 H   0  0  0  0  0  0  0  0  0  0  0  0
  139.1558   79.1984  221.1615 H   0  0  0  0  0  0  0  0  0  0  0  0
  140.4808   78.3338  218.6542 H   0  0  0  0  0  0  0  0  0  0  0  0
  140.8932   79.7251  219.6764 H   0  0  0  0  0  0  0  0  0  0  0  0
  142.0406   76.9539  219.6700 H   0  0  0  0  0  0  0  0  0  0  0  0
  142.7977   78.4190  220.2438 H   0  0  0  0  0  0  0  0  0  0  0  0
  141.8687   76.7174  222.2178 H   0  0  0  0  0  0  0  0  0  0  0  0
  143.4590   79.4694  221.7105 H   0  0  0  0  0  0  0  0  0  0  0  0
  143.0500   81.4490  223.3010 H   0  0  0  0  0  0  0  0  0  0  0  0
  140.7191   81.1674  224.5238 H   0  0  0  0  0  0  0  0  0  0  0  0
  139.2120   70.3028  222.2481 H   0  0  0  0  0  0  0  0  0  0  0  0
  138.9078   68.5626  224.0094 H   0  0  0  0  0  0  0  0  0  0  0  0
  139.2456   67.8954  226.2280 H   0  0  0  0  0  0  0  0  0  0  0  0
  141.2779   70.4554  228.9880 H   0  0  0  0  0  0  0  0  0  0  0  0
  141.5814   72.1691  227.2518 H   0  0  0  0  0  0  0  0  0  0  0  0
  1  2  2  0
  2  3  1  0
  3  4  1  0
  4  5  1  0
  5  6  2  0
  5  7  1  0
  7  8  1  0
  8  9  1  0
  9 10  1  0
 10 11  1  0
 11 12  1  0
 12 13  2  0
 13 14  1  0
 14 15  1  0
 15 16  2  0
  2 17  1  0
 17 18  2  0
 18 19  1  0
 19 20  2  0
 20 21  1  0
 21 22  2  0
 22 23  1  0
 22 24  1  0
 24 25  2  0
 25 26  1  0
 26 27  2  0
 11  7  1  0
 16 12  1  0
 27 17  1  0
 26 20  1  0
  3 28  1  0
  4 29  1  0
  4 30  1  0
  8 31  1  0
  8 32  1  0
  9 33  1  0
  9 34  1  0
 10 35  1  0
 10 36  1  0
 11 37  1  1
 13 38  1  0
 14 39  1  0
 15 40  1  0
 18 41  1  0
 19 42  1  0
 21 43  1  0
 24 44  1  0
 25 45  1  0
M  END
>  <smiles>  (17) 
O=C(NCC(=O)N1CCC[C@H]1c1c[nH]cn1)c1ccc2cc(F)ccc2n1

>  <score_type>  (17) 
oracle

>  <origin>  (17) 
autodockgpu

>  <m_score__min__energy>  (17) 
-8.3200000000000003

>  <m_primary>  (17) 
energy

>  <rmsd>  (17) 
2.1676824884738775

>  <m_score__min__rmsd>  (17) 
2.1676824884738775

>  <meeko>  (17) 
{"free_energy": -7.52, "intermolecular_energy": -9.01, "internal_energy": -1.37, "cluster_size": 10, "cluster_id": 2, "rank_in_cluster": 3}

>  <energy>  (17) 
-7.31

>  <cluster_rmsd>  (17) 
1.11

>  <cluster>  (17) 
2

$$$$

     RDKit          3D

 45 48  0  0  0  0  0  0  0  0999 V2000
  138.7340   74.6940  222.3440 O   0  0  0  0  0  0  0  0  0  0  0  0
  139.8130   75.2190  221.9140 C   0  0  0  0  0  0  0  0  0  0  0  0
  139.8890   76.6330  221.8240 N   0  0  0  0  0  0  0  0  0  0  0  0
  138.7800   77.5010  222.2040 C   0  0  0  0  0  0  0  0  0  0  0  0
  139.3490   78.7640  222.7630 C   0  0  0  0  0  0  0  0  0  0  0  0
  138.7390   79.4240  223.6420 O   0  0  0  0  0  0  0  0  0  0  0  0
  140.6110   79.2040  222.2720 N   0  0  0  0  0  0  0  0  0  0  0  0
  141.9420   78.8730  222.7650 C   0  0  0  0  0  0  0  0  0  0  0  0
  142.6990   80.1710  222.6120 C   0  0  0  0  0  0  0  0  0  0  0  0
  141.8190   81.0860  221.7840 C   0  0  0  0  0  0  0  0  0  0  0  0
  140.8310   80.1010  221.1470 C   0  0  1  0  0  0  0  0  0  0  0  0
  141.5960   79.4230  220.0660 C   0  0  0  0  0  0  0  0  0  0  0  0
  142.2170   80.1030  219.0410 C   0  0  0  0  0  0  0  0  0  0  0  0
  142.8050   79.1880  218.2540 N   0  0  0  0  0  0  0  0  0  0  0  0
  142.5710   77.9610  218.7580 C   0  0  0  0  0  0  0  0  0  0  0  0
  141.8210   78.1060  219.8810 N   0  0  0  0  0  0  0  0  0  0  0  0
  140.9390   74.3790  221.5250 C   0  0  0  0  0  0  0  0  0  0  0  0
  140.7860   73.0070  221.5230 C   0  0  0  0  0  0  0  0  0  0  0  0
  141.8020   72.1400  221.1680 C   0  0  0  0  0  0  0  0  0  0  0  0
  143.0090   72.7410  220.8080 C   0  0  0  0  0  0  0  0  0  0  0  0
  144.0420   71.8810  220.4490 C   0  0  0  0  0  0  0  0  0  0  0  0
  145.2690   72.4050  220.0790 C   0  0  0  0  0  0  0  0  0  0  0  0
  146.3120   71.5990  219.7180 F   0  0  0  0  0  0  0  0  0  0  0  0
  145.4020   73.7780  220.0880 C   0  0  0  0  0  0  0  0  0  0  0  0
  144.3830   74.6370  220.4430 C   0  0  0  0  0  0  0  0  0  0  0  0
  143.1620   74.1120  220.8100 C   0  0  0  0  0  0  0  0  0  0  0  0
  142.1280   74.9120  221.1680 N   0  0  0  0  0  0  0  0  0  0  0  0
  140.8000   77.0260  221.4630 H   0  0  0  0  0  0  0  0  0  0  0  0
  138.1649   77.7281  221.3208 H   0  0  0  0  0  0  0  0  0  0  0  0
  138.1469   77.0039  222.9537 H   0  0  0  0  0  0  0  0  0  0  0  0
  141.9057   78.5593  223.8187 H   0  0  0  0  0  0  0  0  0  0  0  0
  142.4069   78.0359  222.2235 H   0  0  0  0  0  0  0  0  0  0  0  0
  142.8904   80.6181  223.5986 H   0  0  0  0  0  0  0  0  0  0  0  0
  143.6730   80.0092  222.1271 H   0  0  0  0  0  0  0  0  0  0  0  0
  141.2982   81.8186  222.4180 H   0  0  0  0  0  0  0  0  0  0  0  0
  142.3760   81.6874  221.0505 H   0  0  0  0  0  0  0  0  0  0  0  0
  139.8987   80.4987  220.7197 H   0  0  0  0  0  0  0  0  0  0  0  0
  142.2288   81.1932  218.8947 H   0  0  0  0  0  0  0  0  0  0  0  0
  143.3570   79.4430  217.3850 H   0  0  0  0  0  0  0  0  0  0  0  0
  142.9249   77.0094  218.3347 H   0  0  0  0  0  0  0  0  0  0  0  0
  139.8133   72.5856  221.8167 H   0  0  0  0  0  0  0  0  0  0  0  0
  141.6681   71.0482  221.1691 H   0  0  0  0  0  0  0  0  0  0  0  0
  143.8850   70.7923  220.4591 H   0  0  0  0  0  0  0  0  0  0  0  0
  146.3708   74.2101  219.7970 H   0  0  0  0  0  0  0  0  0  0  0  0
  144.5421   75.7254  220.4335 H   0  0  0  0  0  0  0  0  0  0  0  0
  1  2  2  0
  2  3  1  0
  3  4  1  0
  4  5  1  0
  5  6  2  0
  5  7  1  0
  7  8  1  0
  8  9  1  0
  9 10  1  0
 10 11  1  0
 11 12  1  0
 12 13  2  0
 13 14  1  0
 14 15  1  0
 15 16  2  0
  2 17  1  0
 17 18  2  0
 18 19  1  0
 19 20  2  0
 20 21  1  0
 21 22  2  0
 22 23  1  0
 22 24  1  0
 24 25  2  0
 25 26  1  0
 26 27  2  0
 11  7  1  0
 16 12  1  0
 27 17  1  0
 26 20  1  0
  3 28  1  0
  4 29  1  0
  4 30  1  0
  8 31  1  0
  8 32  1  0
  9 33  1  0
  9 34  1  0
 10 35  1  0
 10 36  1  0
 11 37  1  6
 13 38  1  0
 14 39  1  0
 15 40  1  0
 18 41  1  0
 19 42  1  0
 21 43  1  0
 24 44  1  0
 25 45  1  0
M  END
>  <smiles>  (18) 
O=C(NCC(=O)N1CCC[C@H]1c1c[nH]cn1)c1ccc2cc(F)ccc2n1

>  <score_type>  (18) 
oracle

>  <origin>  (18) 
autodockgpu

>  <m_score__min__energy>  (18) 
-8.3200000000000003

>  <m_primary>  (18) 
energy

>  <rmsd>  (18) 
6.225650443108947

>  <m_score__min__rmsd>  (18) 
6.225650443108947

>  <meeko>  (18) 
{"free_energy": -6.6, "intermolecular_energy": -8.09, "internal_energy": -2.51, "cluster_size": 24, "cluster_id": 4, "rank_in_cluster": 11}

>  <energy>  (18) 
-7.31

>  <cluster_rmsd>  (18) 
1.11

>  <cluster>  (18) 
2

$$$$

     RDKit          3D

 45 48  0  0  0  0  0  0  0  0999 V2000
  138.6950   74.7610  222.3350 O   0  0  0  0  0  0  0  0  0  0  0  0
  139.7920   75.2900  221.9600 C   0  0  0  0  0  0  0  0  0  0  0  0
  139.8880   76.7060  221.9390 N   0  0  0  0  0  0  0  0  0  0  0  0
  138.7810   77.5700  222.3310 C   0  0  0  0  0  0  0  0  0  0  0  0
  139.3500   78.8500  222.8480 C   0  0  0  0  0  0  0  0  0  0  0  0
  138.7390   79.5420  223.7010 O   0  0  0  0  0  0  0  0  0  0  0  0
  140.6160   79.2710  222.3480 N   0  0  0  0  0  0  0  0  0  0  0  0
  141.9450   78.9260  222.8370 C   0  0  0  0  0  0  0  0  0  0  0  0
  142.7170   80.2130  222.6700 C   0  0  0  0  0  0  0  0  0  0  0  0
  141.8460   81.1330  221.8380 C   0  0  0  0  0  0  0  0  0  0  0  0
  140.8420   80.1550  221.2140 C   0  0  1  0  0  0  0  0  0  0  0  0
  141.5930   79.4580  220.1350 C   0  0  0  0  0  0  0  0  0  0  0  0
  142.2030   80.1210  219.0920 C   0  0  0  0  0  0  0  0  0  0  0  0
  142.7810   79.1930  218.3140 N   0  0  0  0  0  0  0  0  0  0  0  0
  142.5500   77.9740  218.8390 C   0  0  0  0  0  0  0  0  0  0  0  0
  141.8130   78.1380  219.9690 N   0  0  0  0  0  0  0  0  0  0  0  0
  140.9180   74.4540  221.5620 C   0  0  0  0  0  0  0  0  0  0  0  0
  140.7690   73.0810  221.5590 C   0  0  0  0  0  0  0  0  0  0  0  0
  141.7850   72.2180  221.1960 C   0  0  0  0  0  0  0  0  0  0  0  0
  142.9870   72.8220  220.8270 C   0  0  0  0  0  0  0  0  0  0  0  0
  144.0190   71.9660  220.4590 C   0  0  0  0  0  0  0  0  0  0  0  0
  145.2420   72.4940  220.0800 C   0  0  0  0  0  0  0  0  0  0  0  0
  146.2850   71.6910  219.7110 F   0  0  0  0  0  0  0  0  0  0  0  0
  145.3710   73.8670  220.0900 C   0  0  0  0  0  0  0  0  0  0  0  0
  144.3520   74.7230  220.4540 C   0  0  0  0  0  0  0  0  0  0  0  0
  143.1360   74.1940  220.8300 C   0  0  0  0  0  0  0  0  0  0  0  0
  142.1020   74.9910  221.1960 N   0  0  0  0  0  0  0  0  0  0  0  0
  140.8140   77.1030  221.6220 H   0  0  0  0  0  0  0  0  0  0  0  0
  138.1398   77.7721  221.4604 H   0  0  0  0  0  0  0  0  0  0  0  0
  138.1744   77.0821  223.1081 H   0  0  0  0  0  0  0  0  0  0  0  0
  141.9101   78.6209  223.8933 H   0  0  0  0  0  0  0  0  0  0  0  0
  142.3964   78.0786  222.3002 H   0  0  0  0  0  0  0  0  0  0  0  0
  142.9180   80.6656  223.6522 H   0  0  0  0  0  0  0  0  0  0  0  0
  143.6865   80.0346  222.1820 H   0  0  0  0  0  0  0  0  0  0  0  0
  141.3378   81.8781  222.4678 H   0  0  0  0  0  0  0  0  0  0  0  0
  142.4075   81.7209  221.0970 H   0  0  0  0  0  0  0  0  0  0  0  0
  139.9127   80.5607  220.7876 H   0  0  0  0  0  0  0  0  0  0  0  0
  142.2140   81.2086  218.9279 H   0  0  0  0  0  0  0  0  0  0  0  0
  143.3230   79.4320  217.4350 H   0  0  0  0  0  0  0  0  0  0  0  0
  142.8967   77.0152  218.4260 H   0  0  0  0  0  0  0  0  0  0  0  0
  139.7996   72.6562  221.8586 H   0  0  0  0  0  0  0  0  0  0  0  0
  141.6546   71.1258  221.1978 H   0  0  0  0  0  0  0  0  0  0  0  0
  143.8652   70.8769  220.4688 H   0  0  0  0  0  0  0  0  0  0  0  0
  146.3364   74.3023  219.7923 H   0  0  0  0  0  0  0  0  0  0  0  0
  144.5078   75.8119  220.4443 H   0  0  0  0  0  0  0  0  0  0  0  0
  1  2  2  0
  2  3  1  0
  3  4  1  0
  4  5  1  0
  5  6  2  0
  5  7  1  0
  7  8  1  0
  8  9  1  0
  9 10  1  0
 10 11  1  0
 11 12  1  0
 12 13  2  0
 13 14  1  0
 14 15  1  0
 15 16  2  0
  2 17  1  0
 17 18  2  0
 18 19  1  0
 19 20  2  0
 20 21  1  0
 21 22  2  0
 22 23  1  0
 22 24  1  0
 24 25  2  0
 25 26  1  0
 26 27  2  0
 11  7  1  0
 16 12  1  0
 27 17  1  0
 26 20  1  0
  3 28  1  0
  4 29  1  0
  4 30  1  0
  8 31  1  0
  8 32  1  0
  9 33  1  0
  9 34  1  0
 10 35  1  0
 10 36  1  0
 11 37  1  6
 13 38  1  0
 14 39  1  0
 15 40  1  0
 18 41  1  0
 19 42  1  0
 21 43  1  0
 24 44  1  0
 25 45  1  0
M  END
>  <smiles>  (19) 
O=C(NCC(=O)N1CCC[C@H]1c1c[nH]cn1)c1ccc2cc(F)ccc2n1

>  <score_type>  (19) 
oracle

>  <origin>  (19) 
autodockgpu

>  <m_score__min__energy>  (19) 
-8.3200000000000003

>  <m_primary>  (19) 
energy

>  <rmsd>  (19) 
6.265195501106113

>  <m_score__min__rmsd>  (19) 
6.265195501106113

>  <meeko>  (19) 
{"free_energy": -6.58, "intermolecular_energy": -8.07, "internal_energy": -2.51, "cluster_size": 24, "cluster_id": 4, "rank_in_cluster": 12}

>  <energy>  (19) 
-7.28

>  <cluster_rmsd>  (19) 
0.66

>  <cluster>  (19) 
2

$$$$

     RDKit          3D

 45 48  0  0  0  0  0  0  0  0999 V2000
  140.2470   71.8340  221.0680 O   0  0  0  0  0  0  0  0  0  0  0  0
  140.0070   72.3090  222.2260 C   0  0  0  0  0  0  0  0  0  0  0  0
  139.7470   73.6990  222.3470 N   0  0  0  0  0  0  0  0  0  0  0  0
  139.7430   74.5960  221.1980 C   0  0  0  0  0  0  0  0  0  0  0  0
  139.2080   75.9180  221.6410 C   0  0  0  0  0  0  0  0  0  0  0  0
  138.1770   76.0010  222.3550 O   0  0  0  0  0  0  0  0  0  0  0  0
  139.9010   77.0920  221.2300 N   0  0  0  0  0  0  0  0  0  0  0  0
  139.3790   78.2510  220.5150 C   0  0  0  0  0  0  0  0  0  0  0  0
  140.5120   78.6220  219.5890 C   0  0  0  0  0  0  0  0  0  0  0  0
  141.7140   77.8130  220.0340 C   0  0  0  0  0  0  0  0  0  0  0  0
  141.3110   77.3800  221.4490 C   0  0  1  0  0  0  0  0  0  0  0  0
  141.4830   78.5930  222.2930 C   0  0  0  0  0  0  0  0  0  0  0  0
  142.5230   79.4830  222.1310 C   0  0  0  0  0  0  0  0  0  0  0  0
  142.3700   80.4470  223.0530 N   0  0  0  0  0  0  0  0  0  0  0  0
  141.2680   80.1850  223.7830 C   0  0  0  0  0  0  0  0  0  0  0  0
  140.7180   79.0350  223.3120 N   0  0  0  0  0  0  0  0  0  0  0  0
  140.0020   71.4380  223.3960 C   0  0  0  0  0  0  0  0  0  0  0  0
  139.5700   70.1340  223.2610 C   0  0  0  0  0  0  0  0  0  0  0  0
  139.5340   69.2440  224.3180 C   0  0  0  0  0  0  0  0  0  0  0  0
  139.9660   69.7480  225.5460 C   0  0  0  0  0  0  0  0  0  0  0  0
  139.9350   68.8640  226.6190 C   0  0  0  0  0  0  0  0  0  0  0  0
  140.3490   69.2930  227.8690 C   0  0  0  0  0  0  0  0  0  0  0  0
  140.3360   68.4600  228.9520 F   0  0  0  0  0  0  0  0  0  0  0  0
  140.7760   70.5990  227.9830 C   0  0  0  0  0  0  0  0  0  0  0  0
  140.8090   71.4820  226.9230 C   0  0  0  0  0  0  0  0  0  0  0  0
  140.3970   71.0510  225.6800 C   0  0  0  0  0  0  0  0  0  0  0  0
  140.4100   71.8780  224.6060 N   0  0  0  0  0  0  0  0  0  0  0  0
  139.5530   74.0510  223.3240 H   0  0  0  0  0  0  0  0  0  0  0  0
  140.7676   74.7176  220.8168 H   0  0  0  0  0  0  0  0  0  0  0  0
  139.1162   74.1820  220.3945 H   0  0  0  0  0  0  0  0  0  0  0  0
  138.4742   77.9896  219.9467 H   0  0  0  0  0  0  0  0  0  0  0  0
  139.0805   79.0723  221.1831 H   0  0  0  0  0  0  0  0  0  0  0  0
  140.2503   78.3736  218.5499 H   0  0  0  0  0  0  0  0  0  0  0  0
  140.7217   79.7011  219.6294 H   0  0  0  0  0  0  0  0  0  0  0  0
  141.8720   76.9422  219.3808 H   0  0  0  0  0  0  0  0  0  0  0  0
  142.6599   78.3733  219.9975 H   0  0  0  0  0  0  0  0  0  0  0  0
  141.8570   76.5476  221.9169 H   0  0  0  0  0  0  0  0  0  0  0  0
  143.3286   79.4160  221.3850 H   0  0  0  0  0  0  0  0  0  0  0  0
  143.0380   81.2640  223.1500 H   0  0  0  0  0  0  0  0  0  0  0  0
  140.8819   80.7943  224.6134 H   0  0  0  0  0  0  0  0  0  0  0  0
  139.2404   69.7884  222.2701 H   0  0  0  0  0  0  0  0  0  0  0  0
  139.1877   68.2067  224.1993 H   0  0  0  0  0  0  0  0  0  0  0  0
  139.5841   67.8313  226.4759 H   0  0  0  0  0  0  0  0  0  0  0  0
  141.1074   70.9554  228.9695 H   0  0  0  0  0  0  0  0  0  0  0  0
  141.1590   72.5147  227.0678 H   0  0  0  0  0  0  0  0  0  0  0  0
  1  2  2  0
  2  3  1  0
  3  4  1  0
  4  5  1  0
  5  6  2  0
  5  7  1  0
  7  8  1  0
  8  9  1  0
  9 10  1  0
 10 11  1  0
 11 12  1  0
 12 13  2  0
 13 14  1  0
 14 15  1  0
 15 16  2  0
  2 17  1  0
 17 18  2  0
 18 19  1  0
 19 20  2  0
 20 21  1  0
 21 22  2  0
 22 23  1  0
 22 24  1  0
 24 25  2  0
 25 26  1  0
 26 27  2  0
 11  7  1  0
 16 12  1  0
 27 17  1  0
 26 20  1  0
  3 28  1  0
  4 29  1  0
  4 30  1  0
  8 31  1  0
  8 32  1  0
  9 33  1  0
  9 34  1  0
 10 35  1  0
 10 36  1  0
 11 37  1  1
 13 38  1  0
 14 39  1  0
 15 40  1  0
 18 41  1  0
 19 42  1  0
 21 43  1  0
 24 44  1  0
 25 45  1  0
M  END
>  <smiles>  (20) 
O=C(NCC(=O)N1CCC[C@H]1c1c[nH]cn1)c1ccc2cc(F)ccc2n1

>  <score_type>  (20) 
oracle

>  <origin>  (20) 
autodockgpu

>  <m_score__min__energy>  (20) 
-8.3200000000000003

>  <m_primary>  (20) 
energy

>  <rmsd>  (20) 
2.008225400716597

>  <m_score__min__rmsd>  (20) 
2.008225400716597

>  <meeko>  (20) 
{"free_energy": -7.19, "intermolecular_energy": -8.68, "internal_energy": -1.39, "cluster_size": 10, "cluster_id": 2, "rank_in_cluster": 9}

>  <energy>  (20) 
-7.19

>  <cluster_rmsd>  (20) 
0.99

>  <cluster>  (20) 
2

$$$$

     RDKit          3D

 45 48  0  0  0  0  0  0  0  0999 V2000
  139.5730   74.6290  222.3590 O   0  0  0  0  0  0  0  0  0  0  0  0
  140.4470   75.3340  221.7570 C   0  0  0  0  0  0  0  0  0  0  0  0
  140.2630   76.7410  221.7050 N   0  0  0  0  0  0  0  0  0  0  0  0
  139.1160   77.4020  222.3140 C   0  0  0  0  0  0  0  0  0  0  0  0
  139.5620   78.7320  222.8260 C   0  0  0  0  0  0  0  0  0  0  0  0
  138.9050   79.3520  223.6990 O   0  0  0  0  0  0  0  0  0  0  0  0
  140.7630   79.2840  222.2960 N   0  0  0  0  0  0  0  0  0  0  0  0
  142.1390   79.0230  222.7020 C   0  0  0  0  0  0  0  0  0  0  0  0
  142.7960   80.3770  222.5810 C   0  0  0  0  0  0  0  0  0  0  0  0
  141.8140   81.2680  221.8470 C   0  0  0  0  0  0  0  0  0  0  0  0
  140.8610   80.2490  221.2100 C   0  0  1  0  0  0  0  0  0  0  0  0
  141.6100   79.6810  220.0570 C   0  0  0  0  0  0  0  0  0  0  0  0
  142.2320   80.4590  219.1050 C   0  0  0  0  0  0  0  0  0  0  0  0
  142.8050   79.6260  218.2210 N   0  0  0  0  0  0  0  0  0  0  0  0
  142.5590   78.3540  218.5940 C   0  0  0  0  0  0  0  0  0  0  0  0
  141.8180   78.3880  219.7320 N   0  0  0  0  0  0  0  0  0  0  0  0
  141.6060   74.7030  221.1370 C   0  0  0  0  0  0  0  0  0  0  0  0
  142.5220   75.4900  220.4670 C   0  0  0  0  0  0  0  0  0  0  0  0
  143.6460   74.9730  219.8530 C   0  0  0  0  0  0  0  0  0  0  0  0
  143.8050   73.5900  219.9500 C   0  0  0  0  0  0  0  0  0  0  0  0
  144.9320   73.0550  219.3360 C   0  0  0  0  0  0  0  0  0  0  0  0
  145.1560   71.6900  219.3920 C   0  0  0  0  0  0  0  0  0  0  0  0
  146.2500   71.1190  218.8030 F   0  0  0  0  0  0  0  0  0  0  0  0
  144.2300   70.9210  220.0650 C   0  0  0  0  0  0  0  0  0  0  0  0
  143.1090   71.4440  220.6760 C   0  0  0  0  0  0  0  0  0  0  0  0
  142.8900   72.8040  220.6200 C   0  0  0  0  0  0  0  0  0  0  0  0
  141.8050   73.3690  221.2030 N   0  0  0  0  0  0  0  0  0  0  0  0
  141.0110   77.2870  221.1970 H   0  0  0  0  0  0  0  0  0  0  0  0
  138.3232   77.5385  221.5638 H   0  0  0  0  0  0  0  0  0  0  0  0
  138.7186   76.7912  223.1380 H   0  0  0  0  0  0  0  0  0  0  0  0
  142.1818   78.6548  223.7376 H   0  0  0  0  0  0  0  0  0  0  0  0
  142.6294   78.2491  222.0932 H   0  0  0  0  0  0  0  0  0  0  0  0
  143.0081   80.7870  223.5794 H   0  0  0  0  0  0  0  0  0  0  0  0
  143.7516   80.3085  222.0405 H   0  0  0  0  0  0  0  0  0  0  0  0
  141.2803   81.9312  222.5436 H   0  0  0  0  0  0  0  0  0  0  0  0
  142.2896   81.9414  221.1187 H   0  0  0  0  0  0  0  0  0  0  0  0
  139.8820   80.6009  220.8526 H   0  0  0  0  0  0  0  0  0  0  0  0
  142.2550   81.5583  219.0746 H   0  0  0  0  0  0  0  0  0  0  0  0
  143.3530   79.9650  217.3800 H   0  0  0  0  0  0  0  0  0  0  0  0
  142.8984   77.4486  218.0695 H   0  0  0  0  0  0  0  0  0  0  0  0
  142.3490   76.5753  220.4203 H   0  0  0  0  0  0  0  0  0  0  0  0
  144.3688   75.6099  219.3221 H   0  0  0  0  0  0  0  0  0  0  0  0
  145.6404   73.7116  218.8096 H   0  0  0  0  0  0  0  0  0  0  0  0
  144.3936   69.8345  220.1174 H   0  0  0  0  0  0  0  0  0  0  0  0
  142.4005   70.7857  221.2000 H   0  0  0  0  0  0  0  0  0  0  0  0
  1  2  2  0
  2  3  1  0
  3  4  1  0
  4  5  1  0
  5  6  2  0
  5  7  1  0
  7  8  1  0
  8  9  1  0
  9 10  1  0
 10 11  1  0
 11 12  1  0
 12 13  2  0
 13 14  1  0
 14 15  1  0
 15 16  2  0
  2 17  1  0
 17 18  2  0
 18 19  1  0
 19 20  2  0
 20 21  1  0
 21 22  2  0
 22 23  1  0
 22 24  1  0
 24 25  2  0
 25 26  1  0
 26 27  2  0
 11  7  1  0
 16 12  1  0
 27 17  1  0
 26 20  1  0
  3 28  1  0
  4 29  1  0
  4 30  1  0
  8 31  1  0
  8 32  1  0
  9 33  1  0
  9 34  1  0
 10 35  1  0
 10 36  1  0
 11 37  1  6
 13 38  1  0
 14 39  1  0
 15 40  1  0
 18 41  1  0
 19 42  1  0
 21 43  1  0
 24 44  1  0
 25 45  1  0
M  END
>  <smiles>  (21) 
O=C(NCC(=O)N1CCC[C@H]1c1c[nH]cn1)c1ccc2cc(F)ccc2n1

>  <score_type>  (21) 
oracle

>  <origin>  (21) 
autodockgpu

>  <m_score__min__energy>  (21) 
-8.3200000000000003

>  <m_primary>  (21) 
energy

>  <rmsd>  (21) 
6.807442539653661

>  <m_score__min__rmsd>  (21) 
6.807442539653661

>  <meeko>  (21) 
{"free_energy": -6.73, "intermolecular_energy": -8.23, "internal_energy": -2.2, "cluster_size": 24, "cluster_id": 4, "rank_in_cluster": 1}

>  <energy>  (21) 
-7.09

>  <cluster_rmsd>  (21) 
1.18

>  <cluster>  (21) 
2

$$$$

     RDKit          3D

 45 48  0  0  0  0  0  0  0  0999 V2000
  138.7950   74.7500  222.3560 O   0  0  0  0  0  0  0  0  0  0  0  0
  139.8910   75.2560  221.9490 C   0  0  0  0  0  0  0  0  0  0  0  0
  140.0030   76.6700  221.8890 N   0  0  0  0  0  0  0  0  0  0  0  0
  138.9130   77.5570  222.2770 C   0  0  0  0  0  0  0  0  0  0  0  0
  139.5070   78.7960  222.8630 C   0  0  0  0  0  0  0  0  0  0  0  0
  138.9670   79.3860  223.8320 O   0  0  0  0  0  0  0  0  0  0  0  0
  140.7110   79.2960  222.2900 N   0  0  0  0  0  0  0  0  0  0  0  0
  142.0820   79.0990  222.7450 C   0  0  0  0  0  0  0  0  0  0  0  0
  142.7290   80.4370  222.4770 C   0  0  0  0  0  0  0  0  0  0  0  0
  141.7510   81.2260  221.6310 C   0  0  0  0  0  0  0  0  0  0  0  0
  140.8180   80.1300  221.1010 C   0  0  1  0  0  0  0  0  0  0  0  0
  141.5910   79.4400  220.0340 C   0  0  0  0  0  0  0  0  0  0  0  0
  142.2150   80.1080  219.0030 C   0  0  0  0  0  0  0  0  0  0  0  0
  142.8110   79.1850  218.2320 N   0  0  0  0  0  0  0  0  0  0  0  0
  142.5790   77.9640  218.7510 C   0  0  0  0  0  0  0  0  0  0  0  0
  141.8220   78.1210  219.8680 N   0  0  0  0  0  0  0  0  0  0  0  0
  141.0010   74.3970  221.5540 C   0  0  0  0  0  0  0  0  0  0  0  0
  140.8200   73.0280  221.5430 C   0  0  0  0  0  0  0  0  0  0  0  0
  141.8190   72.1430  221.1820 C   0  0  0  0  0  0  0  0  0  0  0  0
  143.0370   72.7220  220.8250 C   0  0  0  0  0  0  0  0  0  0  0  0
  144.0520   71.8440  220.4600 C   0  0  0  0  0  0  0  0  0  0  0  0
  145.2890   72.3460  220.0930 C   0  0  0  0  0  0  0  0  0  0  0  0
  146.3160   71.5220  219.7270 F   0  0  0  0  0  0  0  0  0  0  0  0
  145.4500   73.7160  220.1110 C   0  0  0  0  0  0  0  0  0  0  0  0
  144.4480   74.5930  220.4720 C   0  0  0  0  0  0  0  0  0  0  0  0
  143.2170   74.0900  220.8360 C   0  0  0  0  0  0  0  0  0  0  0  0
  142.2000   74.9080  221.2000 N   0  0  0  0  0  0  0  0  0  0  0  0
  140.9280   77.0480  221.5470 H   0  0  0  0  0  0  0  0  0  0  0  0
  138.3100   77.8146  221.3938 H   0  0  0  0  0  0  0  0  0  0  0  0
  138.2632   77.0616  223.0134 H   0  0  0  0  0  0  0  0  0  0  0  0
  142.1107   78.8544  223.8171 H   0  0  0  0  0  0  0  0  0  0  0  0
  142.5894   78.2648  222.2384 H   0  0  0  0  0  0  0  0  0  0  0  0
  142.9221   80.9622  223.4240 H   0  0  0  0  0  0  0  0  0  0  0  0
  143.6934   80.3164  221.9619 H   0  0  0  0  0  0  0  0  0  0  0  0
  141.1998   81.9588  222.2386 H   0  0  0  0  0  0  0  0  0  0  0  0
  142.2321   81.8164  220.8373 H   0  0  0  0  0  0  0  0  0  0  0  0
  139.8423   80.4280  220.6896 H   0  0  0  0  0  0  0  0  0  0  0  0
  142.2232   81.1961  218.8417 H   0  0  0  0  0  0  0  0  0  0  0  0
  143.3660   79.4300  217.3630 H   0  0  0  0  0  0  0  0  0  0  0  0
  142.9390   77.0082  218.3425 H   0  0  0  0  0  0  0  0  0  0  0  0
  139.8390   72.6243  221.8339 H   0  0  0  0  0  0  0  0  0  0  0  0
  141.6637   71.0540  221.1766 H   0  0  0  0  0  0  0  0  0  0  0  0
  143.8733   70.7586  220.4629 H   0  0  0  0  0  0  0  0  0  0  0  0
  146.4273   74.1304  219.8227 H   0  0  0  0  0  0  0  0  0  0  0  0
  144.6287   75.6781  220.4695 H   0  0  0  0  0  0  0  0  0  0  0  0
  1  2  2  0
  2  3  1  0
  3  4  1  0
  4  5  1  0
  5  6  2  0
  5  7  1  0
  7  8  1  0
  8  9  1  0
  9 10  1  0
 10 11  1  0
 11 12  1  0
 12 13  2  0
 13 14  1  0
 14 15  1  0
 15 16  2  0
  2 17  1  0
 17 18  2  0
 18 19  1  0
 19 20  2  0
 20 21  1  0
 21 22  2  0
 22 23  1  0
 22 24  1  0
 24 25  2  0
 25 26  1  0
 26 27  2  0
 11  7  1  0
 16 12  1  0
 27 17  1  0
 26 20  1  0
  3 28  1  0
  4 29  1  0
  4 30  1  0
  8 31  1  0
  8 32  1  0
  9 33  1  0
  9 34  1  0
 10 35  1  0
 10 36  1  0
 11 37  1  6
 13 38  1  0
 14 39  1  0
 15 40  1  0
 18 41  1  0
 19 42  1  0
 21 43  1  0
 24 44  1  0
 25 45  1  0
M  END
>  <smiles>  (22) 
O=C(NCC(=O)N1CCC[C@H]1c1c[nH]cn1)c1ccc2cc(F)ccc2n1

>  <score_type>  (22) 
oracle

>  <origin>  (22) 
autodockgpu

>  <m_score__min__energy>  (22) 
-8.3200000000000003

>  <m_primary>  (22) 
energy

>  <rmsd>  (22) 
6.2536247577964

>  <m_score__min__rmsd>  (22) 
6.2536247577964

>  <meeko>  (22) 
{"free_energy": -6.67, "intermolecular_energy": -8.16, "internal_energy": -2.49, "cluster_size": 24, "cluster_id": 4, "rank_in_cluster": 2}

>  <energy>  (22) 
-7.47

>  <cluster_rmsd>  (22) 
0.0

>  <cluster>  (22) 
3

$$$$

     RDKit          3D

 45 48  0  0  0  0  0  0  0  0999 V2000
  138.7120   74.7140  222.3550 O   0  0  0  0  0  0  0  0  0  0  0  0
  139.7820   75.2380  221.9050 C   0  0  0  0  0  0  0  0  0  0  0  0
  139.8460   76.6520  221.7870 N   0  0  0  0  0  0  0  0  0  0  0  0
  138.7350   77.5170  222.1620 C   0  0  0  0  0  0  0  0  0  0  0  0
  139.2980   78.7770  222.7330 C   0  0  0  0  0  0  0  0  0  0  0  0
  138.6770   79.4370  223.6040 O   0  0  0  0  0  0  0  0  0  0  0  0
  140.5680   79.2160  222.2620 N   0  0  0  0  0  0  0  0  0  0  0  0
  141.8920   78.8700  222.7670 C   0  0  0  0  0  0  0  0  0  0  0  0
  142.6580   80.1650  222.6390 C   0  0  0  0  0  0  0  0  0  0  0  0
  141.7940   81.0960  221.8110 C   0  0  0  0  0  0  0  0  0  0  0  0
  140.8070   80.1250  221.1510 C   0  0  1  0  0  0  0  0  0  0  0  0
  141.5810   79.4550  220.0710 C   0  0  0  0  0  0  0  0  0  0  0  0
  142.2070   80.1420  219.0530 C   0  0  0  0  0  0  0  0  0  0  0  0
  142.8030   79.2330  218.2660 N   0  0  0  0  0  0  0  0  0  0  0  0
  142.5680   78.0020  218.7600 C   0  0  0  0  0  0  0  0  0  0  0  0
  141.8100   78.1390  219.8800 N   0  0  0  0  0  0  0  0  0  0  0  0
  140.9120   74.4000  221.5220 C   0  0  0  0  0  0  0  0  0  0  0  0
  140.7610   73.0280  221.5180 C   0  0  0  0  0  0  0  0  0  0  0  0
  141.7800   72.1630  221.1680 C   0  0  0  0  0  0  0  0  0  0  0  0
  142.9880   72.7650  220.8140 C   0  0  0  0  0  0  0  0  0  0  0  0
  144.0240   71.9070  220.4600 C   0  0  0  0  0  0  0  0  0  0  0  0
  145.2520   72.4330  220.0970 C   0  0  0  0  0  0  0  0  0  0  0  0
  146.2980   71.6280  219.7420 F   0  0  0  0  0  0  0  0  0  0  0  0
  145.3830   73.8060  220.1080 C   0  0  0  0  0  0  0  0  0  0  0  0
  144.3610   74.6630  220.4580 C   0  0  0  0  0  0  0  0  0  0  0  0
  143.1390   74.1360  220.8190 C   0  0  0  0  0  0  0  0  0  0  0  0
  142.1020   74.9350  221.1720 N   0  0  0  0  0  0  0  0  0  0  0  0
  140.7510   77.0450  221.4110 H   0  0  0  0  0  0  0  0  0  0  0  0
  138.1275   77.7489  221.2748 H   0  0  0  0  0  0  0  0  0  0  0  0
  138.0960   77.0155  222.9038 H   0  0  0  0  0  0  0  0  0  0  0  0
  141.8413   78.5435  223.8162 H   0  0  0  0  0  0  0  0  0  0  0  0
  142.3583   78.0367  222.2210 H   0  0  0  0  0  0  0  0  0  0  0  0
  142.8397   80.5990  223.6333 H   0  0  0  0  0  0  0  0  0  0  0  0
  143.6368   80.0030  222.1640 H   0  0  0  0  0  0  0  0  0  0  0  0
  141.2706   81.8249  222.4472 H   0  0  0  0  0  0  0  0  0  0  0  0
  142.3638   81.7020  221.0912 H   0  0  0  0  0  0  0  0  0  0  0  0
  139.8822   80.5339  220.7179 H   0  0  0  0  0  0  0  0  0  0  0  0
  142.2163   81.2329  218.9119 H   0  0  0  0  0  0  0  0  0  0  0  0
  143.3590   79.4940  217.4020 H   0  0  0  0  0  0  0  0  0  0  0  0
  142.9261   77.0538  218.3327 H   0  0  0  0  0  0  0  0  0  0  0  0
  139.7873   72.6049  221.8059 H   0  0  0  0  0  0  0  0  0  0  0  0
  141.6476   71.0710  221.1684 H   0  0  0  0  0  0  0  0  0  0  0  0
  143.8686   70.8181  220.4684 H   0  0  0  0  0  0  0  0  0  0  0  0
  146.3528   74.2397  219.8229 H   0  0  0  0  0  0  0  0  0  0  0  0
  144.5183   75.7517  220.4493 H   0  0  0  0  0  0  0  0  0  0  0  0
  1  2  2  0
  2  3  1  0
  3  4  1  0
  4  5  1  0
  5  6  2  0
  5  7  1  0
  7  8  1  0
  8  9  1  0
  9 10  1  0
 10 11  1  0
 11 12  1  0
 12 13  2  0
 13 14  1  0
 14 15  1  0
 15 16  2  0
  2 17  1  0
 17 18  2  0
 18 19  1  0
 19 20  2  0
 20 21  1  0
 21 22  2  0
 22 23  1  0
 22 24  1  0
 24 25  2  0
 25 26  1  0
 26 27  2  0
 11  7  1  0
 16 12  1  0
 27 17  1  0
 26 20  1  0
  3 28  1  0
  4 29  1  0
  4 30  1  0
  8 31  1  0
  8 32  1  0
  9 33  1  0
  9 34  1  0
 10 35  1  0
 10 36  1  0
 11 37  1  6
 13 38  1  0
 14 39  1  0
 15 40  1  0
 18 41  1  0
 19 42  1  0
 21 43  1  0
 24 44  1  0
 25 45  1  0
M  END
>  <smiles>  (23) 
O=C(NCC(=O)N1CCC[C@H]1c1c[nH]cn1)c1ccc2cc(F)ccc2n1

>  <score_type>  (23) 
oracle

>  <origin>  (23) 
autodockgpu

>  <m_score__min__energy>  (23) 
-8.3200000000000003

>  <m_primary>  (23) 
energy

>  <rmsd>  (23) 
6.223542777825155

>  <m_score__min__rmsd>  (23) 
6.223542777825155

>  <meeko>  (23) 
{"free_energy": -6.56, "intermolecular_energy": -8.05, "internal_energy": -2.5, "cluster_size": 24, "cluster_id": 4, "rank_in_cluster": 13}

>  <energy>  (23) 
-7.43

>  <cluster_rmsd>  (23) 
1.45

>  <cluster>  (23) 
3

$$$$

     RDKit          3D

 45 48  0  0  0  0  0  0  0  0999 V2000
  141.0620   72.1800  221.2860 O   0  0  0  0  0  0  0  0  0  0  0  0
  140.3810   72.5080  222.3110 C   0  0  0  0  0  0  0  0  0  0  0  0
  139.7740   73.7910  222.3390 N   0  0  0  0  0  0  0  0  0  0  0  0
  139.9030   74.7400  221.2400 C   0  0  0  0  0  0  0  0  0  0  0  0
  139.4110   76.0680  221.7110 C   0  0  0  0  0  0  0  0  0  0  0  0
  138.4800   76.1620  222.5500 O   0  0  0  0  0  0  0  0  0  0  0  0
  140.0280   77.2370  221.1820 N   0  0  0  0  0  0  0  0  0  0  0  0
  139.4020   78.3690  220.5100 C   0  0  0  0  0  0  0  0  0  0  0  0
  140.4010   78.7250  219.4340 C   0  0  0  0  0  0  0  0  0  0  0  0
  141.6620   77.9420  219.7410 C   0  0  0  0  0  0  0  0  0  0  0  0
  141.4510   77.5460  221.2080 C   0  0  1  0  0  0  0  0  0  0  0  0
  141.7150   78.7840  221.9890 C   0  0  0  0  0  0  0  0  0  0  0  0
  141.5730   78.8560  223.3580 C   0  0  0  0  0  0  0  0  0  0  0  0
  141.8890   80.1070  223.7260 N   0  0  0  0  0  0  0  0  0  0  0  0
  142.2230   80.8160  222.6310 C   0  0  0  0  0  0  0  0  0  0  0  0
  142.1140   79.9960  221.5530 N   0  0  0  0  0  0  0  0  0  0  0  0
  140.2320   71.5810  223.4280 C   0  0  0  0  0  0  0  0  0  0  0  0
  139.6230   70.3620  223.2130 C   0  0  0  0  0  0  0  0  0  0  0  0
  139.4430   69.4270  224.2150 C   0  0  0  0  0  0  0  0  0  0  0  0
  139.9190   69.7940  225.4740 C   0  0  0  0  0  0  0  0  0  0  0  0
  139.7440   68.8640  226.4940 C   0  0  0  0  0  0  0  0  0  0  0  0
  140.1910   69.1580  227.7700 C   0  0  0  0  0  0  0  0  0  0  0  0
  140.0410   68.2750  228.8030 F   0  0  0  0  0  0  0  0  0  0  0  0
  140.7970   70.3820  227.9650 C   0  0  0  0  0  0  0  0  0  0  0  0
  140.9730   71.3100  226.9600 C   0  0  0  0  0  0  0  0  0  0  0  0
  140.5270   71.0130  225.6890 C   0  0  0  0  0  0  0  0  0  0  0  0
  140.6760   71.8900  224.6660 N   0  0  0  0  0  0  0  0  0  0  0  0
  139.2190   74.0220  223.2070 H   0  0  0  0  0  0  0  0  0  0  0  0
  140.9578   74.8193  220.9382 H   0  0  0  0  0  0  0  0  0  0  0  0
  139.3144   74.4017  220.3745 H   0  0  0  0  0  0  0  0  0  0  0  0
  138.4349   78.0821  220.0714 H   0  0  0  0  0  0  0  0  0  0  0  0
  139.1812   79.2061  221.1886 H   0  0  0  0  0  0  0  0  0  0  0  0
  140.0105   78.4438  218.4449 H   0  0  0  0  0  0  0  0  0  0  0  0
  140.5989   79.8069  219.4173 H   0  0  0  0  0  0  0  0  0  0  0  0
  141.7466   77.0544  219.0968 H   0  0  0  0  0  0  0  0  0  0  0  0
  142.5873   78.5107  219.5667 H   0  0  0  0  0  0  0  0  0  0  0  0
  142.0640   76.7328  221.6238 H   0  0  0  0  0  0  0  0  0  0  0  0
  141.2590   78.0396  224.0250 H   0  0  0  0  0  0  0  0  0  0  0  0
  141.8640   80.4370  224.7340 H   0  0  0  0  0  0  0  0  0  0  0  0
  142.5298   81.8722  222.6125 H   0  0  0  0  0  0  0  0  0  0  0  0
  139.2652   70.1238  222.2005 H   0  0  0  0  0  0  0  0  0  0  0  0
  138.9565   68.4576  224.0318 H   0  0  0  0  0  0  0  0  0  0  0  0
  139.2535   67.9013  226.2873 H   0  0  0  0  0  0  0  0  0  0  0  0
  141.1583   70.6305  228.9738 H   0  0  0  0  0  0  0  0  0  0  0  0
  141.4619   72.2729  227.1690 H   0  0  0  0  0  0  0  0  0  0  0  0
  1  2  2  0
  2  3  1  0
  3  4  1  0
  4  5  1  0
  5  6  2  0
  5  7  1  0
  7  8  1  0
  8  9  1  0
  9 10  1  0
 10 11  1  0
 11 12  1  0
 12 13  2  0
 13 14  1  0
 14 15  1  0
 15 16  2  0
  2 17  1  0
 17 18  2  0
 18 19  1  0
 19 20  2  0
 20 21  1  0
 21 22  2  0
 22 23  1  0
 22 24  1  0
 24 25  2  0
 25 26  1  0
 26 27  2  0
 11  7  1  0
 16 12  1  0
 27 17  1  0
 26 20  1  0
  3 28  1  0
  4 29  1  0
  4 30  1  0
  8 31  1  0
  8 32  1  0
  9 33  1  0
  9 34  1  0
 10 35  1  0
 10 36  1  0
 11 37  1  1
 13 38  1  0
 14 39  1  0
 15 40  1  0
 18 41  1  0
 19 42  1  0
 21 43  1  0
 24 44  1  0
 25 45  1  0
M  END
>  <smiles>  (24) 
O=C(NCC(=O)N1CCC[C@H]1c1c[nH]cn1)c1ccc2cc(F)ccc2n1

>  <score_type>  (24) 
oracle

>  <origin>  (24) 
autodockgpu

>  <m_score__min__energy>  (24) 
-8.3200000000000003

>  <m_primary>  (24) 
energy

>  <rmsd>  (24) 
2.1124424817902736

>  <m_score__min__rmsd>  (24) 
2.1124424817902736

>  <meeko>  (24) 
{"free_energy": -7.31, "intermolecular_energy": -8.81, "internal_energy": -1.45, "cluster_size": 10, "cluster_id": 2, "rank_in_cluster": 6}

>  <energy>  (24) 
-7.35

>  <cluster_rmsd>  (24) 
1.46

>  <cluster>  (24) 
3

$$$$

     RDKit          3D

 45 48  0  0  0  0  0  0  0  0999 V2000
  141.0790   72.4590  221.8080 O   0  0  0  0  0  0  0  0  0  0  0  0
  140.0740   72.4020  222.5890 C   0  0  0  0  0  0  0  0  0  0  0  0
  138.9620   73.2430  222.3240 N   0  0  0  0  0  0  0  0  0  0  0  0
  138.9320   74.1650  221.1940 C   0  0  0  0  0  0  0  0  0  0  0  0
  140.0250   75.1650  221.3800 C   0  0  0  0  0  0  0  0  0  0  0  0
  140.1380   75.8230  222.4450 O   0  0  0  0  0  0  0  0  0  0  0  0
  140.9470   75.3550  220.3110 N   0  0  0  0  0  0  0  0  0  0  0  0
  140.8640   74.8600  218.9420 C   0  0  0  0  0  0  0  0  0  0  0  0
  142.2960   74.5100  218.6160 C   0  0  0  0  0  0  0  0  0  0  0  0
  143.1450   75.0870  219.7310 C   0  0  0  0  0  0  0  0  0  0  0  0
  142.1940   76.1040  220.3720 C   0  0  1  0  0  0  0  0  0  0  0  0
  142.1680   77.2610  219.4370 C   0  0  0  0  0  0  0  0  0  0  0  0
  143.1620   77.5070  218.5150 C   0  0  0  0  0  0  0  0  0  0  0  0
  142.8190   78.6190  217.8460 N   0  0  0  0  0  0  0  0  0  0  0  0
  141.6430   79.0730  218.3220 C   0  0  0  0  0  0  0  0  0  0  0  0
  141.2390   78.2300  219.3080 N   0  0  0  0  0  0  0  0  0  0  0  0
  140.0730   71.4900  223.7270 C   0  0  0  0  0  0  0  0  0  0  0  0
  139.5460   70.2240  223.5740 C   0  0  0  0  0  0  0  0  0  0  0  0
  139.5060   69.2990  224.6010 C   0  0  0  0  0  0  0  0  0  0  0  0
  140.0360   69.7280  225.8180 C   0  0  0  0  0  0  0  0  0  0  0  0
  140.0030   68.8080  226.8620 C   0  0  0  0  0  0  0  0  0  0  0  0
  140.5110   69.1630  228.1000 C   0  0  0  0  0  0  0  0  0  0  0  0
  140.4990   68.2920  229.1540 F   0  0  0  0  0  0  0  0  0  0  0  0
  141.0320   70.4330  228.2330 C   0  0  0  0  0  0  0  0  0  0  0  0
  141.0680   71.3500  227.2030 C   0  0  0  0  0  0  0  0  0  0  0  0
  140.5620   70.9930  225.9710 C   0  0  0  0  0  0  0  0  0  0  0  0
  140.5740   71.8570  224.9270 N   0  0  0  0  0  0  0  0  0  0  0  0
  138.1510   73.1640  222.9950 H   0  0  0  0  0  0  0  0  0  0  0  0
  139.0895   73.6110  220.2568 H   0  0  0  0  0  0  0  0  0  0  0  0
  137.9572   74.6721  221.1426 H   0  0  0  0  0  0  0  0  0  0  0  0
  140.2172   73.9723  218.8818 H   0  0  0  0  0  0  0  0  0  0  0  0
  140.4282   75.5902  218.2443 H   0  0  0  0  0  0  0  0  0  0  0  0
  142.4194   73.4179  218.5708 H   0  0  0  0  0  0  0  0  0  0  0  0
  142.5925   74.9183  217.6385 H   0  0  0  0  0  0  0  0  0  0  0  0
  143.4402   74.3090  220.4504 H   0  0  0  0  0  0  0  0  0  0  0  0
  144.0908   75.5271  219.3821 H   0  0  0  0  0  0  0  0  0  0  0  0
  142.4289   76.4749  221.3806 H   0  0  0  0  0  0  0  0  0  0  0  0
  144.0683   76.9041  218.3566 H   0  0  0  0  0  0  0  0  0  0  0  0
  143.4140   79.0350  217.0730 H   0  0  0  0  0  0  0  0  0  0  0  0
  141.1054   79.9674  217.9741 H   0  0  0  0  0  0  0  0  0  0  0  0
  139.1401   69.9382  222.5924 H   0  0  0  0  0  0  0  0  0  0  0  0
  139.0843   68.2919  224.4673 H   0  0  0  0  0  0  0  0  0  0  0  0
  139.5765   67.8063  226.7046 H   0  0  0  0  0  0  0  0  0  0  0  0
  141.4398   70.7300  229.2105 H   0  0  0  0  0  0  0  0  0  0  0  0
  141.4942   72.3515  227.3622 H   0  0  0  0  0  0  0  0  0  0  0  0
  1  2  2  0
  2  3  1  0
  3  4  1  0
  4  5  1  0
  5  6  2  0
  5  7  1  0
  7  8  1  0
  8  9  1  0
  9 10  1  0
 10 11  1  0
 11 12  1  0
 12 13  2  0
 13 14  1  0
 14 15  1  0
 15 16  2  0
  2 17  1  0
 17 18  2  0
 18 19  1  0
 19 20  2  0
 20 21  1  0
 21 22  2  0
 22 23  1  0
 22 24  1  0
 24 25  2  0
 25 26  1  0
 26 27  2  0
 11  7  1  0
 16 12  1  0
 27 17  1  0
 26 20  1  0
  3 28  1  0
  4 29  1  0
  4 30  1  0
  8 31  1  0
  8 32  1  0
  9 33  1  0
  9 34  1  0
 10 35  1  0
 10 36  1  0
 11 37  1  1
 13 38  1  0
 14 39  1  0
 15 40  1  0
 18 41  1  0
 19 42  1  0
 21 43  1  0
 24 44  1  0
 25 45  1  0
M  END
>  <smiles>  (25) 
O=C(NCC(=O)N1CCC[C@H]1c1c[nH]cn1)c1ccc2cc(F)ccc2n1

>  <score_type>  (25) 
oracle

>  <origin>  (25) 
autodockgpu

>  <m_score__min__energy>  (25) 
-8.3200000000000003

>  <m_primary>  (25) 
energy

>  <rmsd>  (25) 
2.055796638472204

>  <m_score__min__rmsd>  (25) 
2.055796638472204

>  <meeko>  (25) 
{"free_energy": -7.47, "intermolecular_energy": -8.96, "internal_energy": -1.22, "cluster_size": 4, "cluster_id": 3, "rank_in_cluster": 1}

>  <energy>  (25) 
-7.26

>  <cluster_rmsd>  (25) 
0.7

>  <cluster>  (25) 
3

$$$$

     RDKit          3D

 45 48  0  0  0  0  0  0  0  0999 V2000
  138.9770   71.0720  221.1720 O   0  0  0  0  0  0  0  0  0  0  0  0
  139.2730   71.6720  222.2570 C   0  0  0  0  0  0  0  0  0  0  0  0
  139.3530   73.0890  222.2460 N   0  0  0  0  0  0  0  0  0  0  0  0
  139.1100   73.8760  221.0440 C   0  0  0  0  0  0  0  0  0  0  0  0
  140.1910   73.5710  220.0600 C   0  0  0  0  0  0  0  0  0  0  0  0
  140.0750   72.6370  219.2270 O   0  0  0  0  0  0  0  0  0  0  0  0
  141.3680   74.3720  220.0890 N   0  0  0  0  0  0  0  0  0  0  0  0
  141.6960   75.4710  220.9900 C   0  0  0  0  0  0  0  0  0  0  0  0
  142.4130   76.4500  220.0910 C   0  0  0  0  0  0  0  0  0  0  0  0
  142.6880   75.7200  218.7920 C   0  0  0  0  0  0  0  0  0  0  0  0
  142.5140   74.2510  219.2000 C   0  0  1  0  0  0  0  0  0  0  0  0
  143.7460   73.9080  219.9600 C   0  0  0  0  0  0  0  0  0  0  0  0
  143.9510   72.6790  220.5480 C   0  0  0  0  0  0  0  0  0  0  0  0
  145.1530   72.7170  221.1440 N   0  0  0  0  0  0  0  0  0  0  0  0
  145.7030   73.9310  220.9450 C   0  0  0  0  0  0  0  0  0  0  0  0
  144.8300   74.6700  220.2100 N   0  0  0  0  0  0  0  0  0  0  0  0
  139.5220   70.9130  223.4770 C   0  0  0  0  0  0  0  0  0  0  0  0
  139.1860   69.5750  223.5170 C   0  0  0  0  0  0  0  0  0  0  0  0
  139.3890   68.7850  224.6330 C   0  0  0  0  0  0  0  0  0  0  0  0
  139.9600   69.4280  225.7310 C   0  0  0  0  0  0  0  0  0  0  0  0
  140.1700   68.6460  226.8620 C   0  0  0  0  0  0  0  0  0  0  0  0
  140.7340   69.2150  227.9910 C   0  0  0  0  0  0  0  0  0  0  0  0
  140.9580   68.4860  229.1250 F   0  0  0  0  0  0  0  0  0  0  0  0
  141.0610   70.5540  227.9310 C   0  0  0  0  0  0  0  0  0  0  0  0
  140.8560   71.3360  226.8140 C   0  0  0  0  0  0  0  0  0  0  0  0
  140.2950   70.7650  225.6910 C   0  0  0  0  0  0  0  0  0  0  0  0
  140.0730   71.4900  224.5670 N   0  0  0  0  0  0  0  0  0  0  0  0
  139.6010   73.5460  223.1660 H   0  0  0  0  0  0  0  0  0  0  0  0
  138.1318   73.6106  220.6166 H   0  0  0  0  0  0  0  0  0  0  0  0
  139.1085   74.9490  221.2863 H   0  0  0  0  0  0  0  0  0  0  0  0
  140.7852   75.9188  221.4143 H   0  0  0  0  0  0  0  0  0  0  0  0
  142.2996   75.1559  221.8539 H   0  0  0  0  0  0  0  0  0  0  0  0
  141.7794   77.3299  219.9056 H   0  0  0  0  0  0  0  0  0  0  0  0
  143.3461   76.8044  220.5532 H   0  0  0  0  0  0  0  0  0  0  0  0
  141.9651   76.0057  218.0136 H   0  0  0  0  0  0  0  0  0  0  0  0
  143.6751   75.9438  218.3612 H   0  0  0  0  0  0  0  0  0  0  0  0
  142.3713   73.5013  218.4078 H   0  0  0  0  0  0  0  0  0  0  0  0
  143.2580   71.8249  220.5320 H   0  0  0  0  0  0  0  0  0  0  0  0
  145.5610   71.8950  221.6750 H   0  0  0  0  0  0  0  0  0  0  0  0
  146.6846   74.2650  221.3123 H   0  0  0  0  0  0  0  0  0  0  0  0
  138.7375   69.1177  222.6227 H   0  0  0  0  0  0  0  0  0  0  0  0
  139.1180   67.7191  224.6537 H   0  0  0  0  0  0  0  0  0  0  0  0
  139.8897   67.5823  226.8593 H   0  0  0  0  0  0  0  0  0  0  0  0
  141.5084   71.0220  228.8203 H   0  0  0  0  0  0  0  0  0  0  0  0
  141.1359   72.3998  226.8186 H   0  0  0  0  0  0  0  0  0  0  0  0
  1  2  2  0
  2  3  1  0
  3  4  1  0
  4  5  1  0
  5  6  2  0
  5  7  1  0
  7  8  1  0
  8  9  1  0
  9 10  1  0
 10 11  1  0
 11 12  1  0
 12 13  2  0
 13 14  1  0
 14 15  1  0
 15 16  2  0
  2 17  1  0
 17 18  2  0
 18 19  1  0
 19 20  2  0
 20 21  1  0
 21 22  2  0
 22 23  1  0
 22 24  1  0
 24 25  2  0
 25 26  1  0
 26 27  2  0
 11  7  1  0
 16 12  1  0
 27 17  1  0
 26 20  1  0
  3 28  1  0
  4 29  1  0
  4 30  1  0
  8 31  1  0
  8 32  1  0
  9 33  1  0
  9 34  1  0
 10 35  1  0
 10 36  1  0
 11 37  1  6
 13 38  1  0
 14 39  1  0
 15 40  1  0
 18 41  1  0
 19 42  1  0
 21 43  1  0
 24 44  1  0
 25 45  1  0
M  END
>  <smiles>  (26) 
O=C(NCC(=O)N1CCC[C@H]1c1c[nH]cn1)c1ccc2cc(F)ccc2n1

>  <score_type>  (26) 
oracle

>  <origin>  (26) 
autodockgpu

>  <m_score__min__energy>  (26) 
-8.3200000000000003

>  <m_primary>  (26) 
energy

>  <rmsd>  (26) 
2.8032115090989733

>  <m_score__min__rmsd>  (26) 
2.8032115090989733

>  <meeko>  (26) 
{"free_energy": -7.27, "intermolecular_energy": -8.76, "internal_energy": -1.37, "cluster_size": 11, "cluster_id": 1, "rank_in_cluster": 9}

>  <energy>  (26) 
-6.73

>  <cluster_rmsd>  (26) 
0.0

>  <cluster>  (26) 
4

$$$$

     RDKit          3D

 45 48  0  0  0  0  0  0  0  0999 V2000
  141.0120   72.0230  221.3210 O   0  0  0  0  0  0  0  0  0  0  0  0
  140.3510   72.3920  222.3460 C   0  0  0  0  0  0  0  0  0  0  0  0
  139.7530   73.6790  222.3390 N   0  0  0  0  0  0  0  0  0  0  0  0
  139.8670   74.5880  221.2050 C   0  0  0  0  0  0  0  0  0  0  0  0
  139.2700   75.8990  221.5970 C   0  0  0  0  0  0  0  0  0  0  0  0
  138.1830   75.9630  222.2230 O   0  0  0  0  0  0  0  0  0  0  0  0
  139.9710   77.0870  221.2410 N   0  0  0  0  0  0  0  0  0  0  0  0
  139.4780   78.2470  220.5080 C   0  0  0  0  0  0  0  0  0  0  0  0
  140.6600   78.6420  219.6560 C   0  0  0  0  0  0  0  0  0  0  0  0
  141.8440   77.8440  220.1640 C   0  0  0  0  0  0  0  0  0  0  0  0
  141.3620   77.3900  221.5470 C   0  0  1  0  0  0  0  0  0  0  0  0
  141.4680   78.5950  222.4130 C   0  0  0  0  0  0  0  0  0  0  0  0
  142.5780   79.4110  222.4380 C   0  0  0  0  0  0  0  0  0  0  0  0
  142.3330   80.3910  223.3220 N   0  0  0  0  0  0  0  0  0  0  0  0
  141.1060   80.2110  223.8480 C   0  0  0  0  0  0  0  0  0  0  0  0
  140.5690   79.0970  223.2850 N   0  0  0  0  0  0  0  0  0  0  0  0
  140.2170   71.5070  223.4970 C   0  0  0  0  0  0  0  0  0  0  0  0
  139.5970   70.2840  223.3360 C   0  0  0  0  0  0  0  0  0  0  0  0
  139.4300   69.3860  224.3730 C   0  0  0  0  0  0  0  0  0  0  0  0
  139.9300   69.7940  225.6100 C   0  0  0  0  0  0  0  0  0  0  0  0
  139.7690   68.9010  226.6650 C   0  0  0  0  0  0  0  0  0  0  0  0
  140.2400   69.2380  227.9220 C   0  0  0  0  0  0  0  0  0  0  0  0
  140.1030   68.3930  228.9880 F   0  0  0  0  0  0  0  0  0  0  0  0
  140.8560   70.4650  228.0630 C   0  0  0  0  0  0  0  0  0  0  0  0
  141.0190   71.3550  227.0220 C   0  0  0  0  0  0  0  0  0  0  0  0
  140.5490   71.0160  225.7710 C   0  0  0  0  0  0  0  0  0  0  0  0
  140.6850   71.8560  224.7150 N   0  0  0  0  0  0  0  0  0  0  0  0
  139.2140   73.9440  223.2080 H   0  0  0  0  0  0  0  0  0  0  0  0
  140.9264   74.7248  220.9423 H   0  0  0  0  0  0  0  0  0  0  0  0
  139.3392   74.1755  220.3325 H   0  0  0  0  0  0  0  0  0  0  0  0
  138.6125   77.9807  219.8834 H   0  0  0  0  0  0  0  0  0  0  0  0
  139.1290   79.0571  221.1651 H   0  0  0  0  0  0  0  0  0  0  0  0
  140.4647   78.4015  218.6005 H   0  0  0  0  0  0  0  0  0  0  0  0
  140.8525   79.7231  219.7204 H   0  0  0  0  0  0  0  0  0  0  0  0
  142.0532   76.9828  219.5124 H   0  0  0  0  0  0  0  0  0  0  0  0
  142.7827   78.4168  220.1906 H   0  0  0  0  0  0  0  0  0  0  0  0
  141.8894   76.5587  222.0376 H   0  0  0  0  0  0  0  0  0  0  0  0
  143.4948   79.2831  221.8438 H   0  0  0  0  0  0  0  0  0  0  0  0
  143.0280   81.1620  223.5360 H   0  0  0  0  0  0  0  0  0  0  0  0
  140.6239   80.8525  224.6004 H   0  0  0  0  0  0  0  0  0  0  0  0
  139.2196   70.0126  222.3390 H   0  0  0  0  0  0  0  0  0  0  0  0
  138.9354   68.4136  224.2325 H   0  0  0  0  0  0  0  0  0  0  0  0
  139.2709   67.9340  226.5011 H   0  0  0  0  0  0  0  0  0  0  0  0
  141.2362   70.7474  229.0558 H   0  0  0  0  0  0  0  0  0  0  0  0
  141.5170   72.3217  227.1876 H   0  0  0  0  0  0  0  0  0  0  0  0
  1  2  2  0
  2  3  1  0
  3  4  1  0
  4  5  1  0
  5  6  2  0
  5  7  1  0
  7  8  1  0
  8  9  1  0
  9 10  1  0
 10 11  1  0
 11 12  1  0
 12 13  2  0
 13 14  1  0
 14 15  1  0
 15 16  2  0
  2 17  1  0
 17 18  2  0
 18 19  1  0
 19 20  2  0
 20 21  1  0
 21 22  2  0
 22 23  1  0
 22 24  1  0
 24 25  2  0
 25 26  1  0
 26 27  2  0
 11  7  1  0
 16 12  1  0
 27 17  1  0
 26 20  1  0
  3 28  1  0
  4 29  1  0
  4 30  1  0
  8 31  1  0
  8 32  1  0
  9 33  1  0
  9 34  1  0
 10 35  1  0
 10 36  1  0
 11 37  1  1
 13 38  1  0
 14 39  1  0
 15 40  1  0
 18 41  1  0
 19 42  1  0
 21 43  1  0
 24 44  1  0
 25 45  1  0
M  END
>  <smiles>  (27) 
O=C(NCC(=O)N1CCC[C@H]1c1c[nH]cn1)c1ccc2cc(F)ccc2n1

>  <score_type>  (27) 
oracle

>  <origin>  (27) 
autodockgpu

>  <m_score__min__energy>  (27) 
-8.3200000000000003

>  <m_primary>  (27) 
energy

>  <rmsd>  (27) 
2.0916534683525447

>  <m_score__min__rmsd>  (27) 
2.0916534683525447

>  <meeko>  (27) 
{"free_energy": -7.39, "intermolecular_energy": -8.88, "internal_energy": -1.37, "cluster_size": 10, "cluster_id": 2, "rank_in_cluster": 4}

>  <energy>  (27) 
-6.67

>  <cluster_rmsd>  (27) 
0.79

>  <cluster>  (27) 
4

$$$$

     RDKit          3D

 45 48  0  0  0  0  0  0  0  0999 V2000
  139.1570   75.0420  222.7090 O   0  0  0  0  0  0  0  0  0  0  0  0
  139.9760   75.3860  221.7960 C   0  0  0  0  0  0  0  0  0  0  0  0
  139.8060   76.6510  221.1750 N   0  0  0  0  0  0  0  0  0  0  0  0
  138.7320   77.5650  221.5460 C   0  0  0  0  0  0  0  0  0  0  0  0
  139.3200   78.6650  222.3680 C   0  0  0  0  0  0  0  0  0  0  0  0
  138.7480   79.0860  223.4040 O   0  0  0  0  0  0  0  0  0  0  0  0
  140.5580   79.2280  221.9450 N   0  0  0  0  0  0  0  0  0  0  0  0
  141.8900   79.0080  222.4940 C   0  0  0  0  0  0  0  0  0  0  0  0
  142.5310   80.3720  222.4000 C   0  0  0  0  0  0  0  0  0  0  0  0
  141.6110   81.2220  221.5460 C   0  0  0  0  0  0  0  0  0  0  0  0
  140.7460   80.1650  220.8470 C   0  0  1  0  0  0  0  0  0  0  0  0
  141.6190   79.5830  219.7920 C   0  0  0  0  0  0  0  0  0  0  0  0
  142.2810   80.3460  218.8550 C   0  0  0  0  0  0  0  0  0  0  0  0
  142.9670   79.5030  218.0670 N   0  0  0  0  0  0  0  0  0  0  0  0
  142.7520   78.2390  218.4830 C   0  0  0  0  0  0  0  0  0  0  0  0
  141.9160   78.2890  219.5530 N   0  0  0  0  0  0  0  0  0  0  0  0
  141.0610   74.4950  221.4020 C   0  0  0  0  0  0  0  0  0  0  0  0
  140.8730   73.1300  221.4850 C   0  0  0  0  0  0  0  0  0  0  0  0
  141.8480   72.2170  221.1310 C   0  0  0  0  0  0  0  0  0  0  0  0
  143.0510   72.7620  220.6800 C   0  0  0  0  0  0  0  0  0  0  0  0
  144.0430   71.8550  220.3210 C   0  0  0  0  0  0  0  0  0  0  0  0
  145.2620   72.3240  219.8640 C   0  0  0  0  0  0  0  0  0  0  0  0
  146.2660   71.4700  219.5000 F   0  0  0  0  0  0  0  0  0  0  0  0
  145.4310   73.6910  219.7890 C   0  0  0  0  0  0  0  0  0  0  0  0
  144.4520   74.5960  220.1430 C   0  0  0  0  0  0  0  0  0  0  0  0
  143.2380   74.1260  220.5980 C   0  0  0  0  0  0  0  0  0  0  0  0
  142.2440   74.9740  220.9590 N   0  0  0  0  0  0  0  0  0  0  0  0
  140.5060   76.8960  220.4230 H   0  0  0  0  0  0  0  0  0  0  0  0
  138.2692   77.9834  220.6400 H   0  0  0  0  0  0  0  0  0  0  0  0
  137.9600   77.0318  222.1203 H   0  0  0  0  0  0  0  0  0  0  0  0
  141.8350   78.6691  223.5391 H   0  0  0  0  0  0  0  0  0  0  0  0
  142.4535   78.2286  221.9601 H   0  0  0  0  0  0  0  0  0  0  0  0
  142.6344   80.8132  223.4023 H   0  0  0  0  0  0  0  0  0  0  0  0
  143.5371   80.3092  221.9598 H   0  0  0  0  0  0  0  0  0  0  0  0
  140.9977   81.8921  222.1663 H   0  0  0  0  0  0  0  0  0  0  0  0
  142.1443   81.8859  220.8497 H   0  0  0  0  0  0  0  0  0  0  0  0
  139.8011   80.4850  220.3836 H   0  0  0  0  0  0  0  0  0  0  0  0
  142.2527   81.4422  218.7686 H   0  0  0  0  0  0  0  0  0  0  0  0
  143.5690   79.8290  217.2570 H   0  0  0  0  0  0  0  0  0  0  0  0
  143.1777   77.3287  218.0357 H   0  0  0  0  0  0  0  0  0  0  0  0
  139.9057   72.7529  221.8485 H   0  0  0  0  0  0  0  0  0  0  0  0
  141.6864   71.1311  221.2002 H   0  0  0  0  0  0  0  0  0  0  0  0
  143.8597   70.7733  220.3999 H   0  0  0  0  0  0  0  0  0  0  0  0
  146.3952   74.0790  219.4287 H   0  0  0  0  0  0  0  0  0  0  0  0
  144.6371   75.6774  220.0635 H   0  0  0  0  0  0  0  0  0  0  0  0
  1  2  2  0
  2  3  1  0
  3  4  1  0
  4  5  1  0
  5  6  2  0
  5  7  1  0
  7  8  1  0
  8  9  1  0
  9 10  1  0
 10 11  1  0
 11 12  1  0
 12 13  2  0
 13 14  1  0
 14 15  1  0
 15 16  2  0
  2 17  1  0
 17 18  2  0
 18 19  1  0
 19 20  2  0
 20 21  1  0
 21 22  2  0
 22 23  1  0
 22 24  1  0
 24 25  2  0
 25 26  1  0
 26 27  2  0
 11  7  1  0
 16 12  1  0
 27 17  1  0
 26 20  1  0
  3 28  1  0
  4 29  1  0
  4 30  1  0
  8 31  1  0
  8 32  1  0
  9 33  1  0
  9 34  1  0
 10 35  1  0
 10 36  1  0
 11 37  1  6
 13 38  1  0
 14 39  1  0
 15 40  1  0
 18 41  1  0
 19 42  1  0
 21 43  1  0
 24 44  1  0
 25 45  1  0
M  END
>  <smiles>  (28) 
O=C(NCC(=O)N1CCC[C@H]1c1c[nH]cn1)c1ccc2cc(F)ccc2n1

>  <score_type>  (28) 
oracle

>  <origin>  (28) 
autodockgpu

>  <m_score__min__energy>  (28) 
-8.3200000000000003

>  <m_primary>  (28) 
energy

>  <rmsd>  (28) 
6.2973141740351375

>  <m_score__min__rmsd>  (28) 
6.2973141740351375

>  <meeko>  (28) 
{"free_energy": -6.4, "intermolecular_energy": -7.89, "internal_energy": -2.4, "cluster_size": 24, "cluster_id": 4, "rank_in_cluster": 22}

>  <energy>  (28) 
-6.67

>  <cluster_rmsd>  (28) 
0.77

>  <cluster>  (28) 
4

$$$$

     RDKit          3D

 45 48  0  0  0  0  0  0  0  0999 V2000
  141.1110   72.1160  221.3460 O   0  0  0  0  0  0  0  0  0  0  0  0
  140.4040   72.4560  222.3500 C   0  0  0  0  0  0  0  0  0  0  0  0
  139.7790   73.7300  222.3390 N   0  0  0  0  0  0  0  0  0  0  0  0
  139.9160   74.6570  221.2230 C   0  0  0  0  0  0  0  0  0  0  0  0
  139.3270   75.9670  221.6310 C   0  0  0  0  0  0  0  0  0  0  0  0
  138.2560   76.0290  222.2850 O   0  0  0  0  0  0  0  0  0  0  0  0
  140.0160   77.1570  221.2560 N   0  0  0  0  0  0  0  0  0  0  0  0
  139.5190   78.2870  220.4810 C   0  0  0  0  0  0  0  0  0  0  0  0
  140.7120   78.6790  219.6430 C   0  0  0  0  0  0  0  0  0  0  0  0
  141.8980   77.9150  220.1970 C   0  0  0  0  0  0  0  0  0  0  0  0
  141.3940   77.4920  221.5830 C   0  0  1  0  0  0  0  0  0  0  0  0
  141.4620   78.7220  222.4170 C   0  0  0  0  0  0  0  0  0  0  0  0
  142.5020   79.6230  222.3490 C   0  0  0  0  0  0  0  0  0  0  0  0
  142.2400   80.6010  223.2290 N   0  0  0  0  0  0  0  0  0  0  0  0
  141.0700   80.3380  223.8430 C   0  0  0  0  0  0  0  0  0  0  0  0
  140.5870   79.1720  223.3390 N   0  0  0  0  0  0  0  0  0  0  0  0
  140.2470   71.5510  223.4830 C   0  0  0  0  0  0  0  0  0  0  0  0
  139.6360   70.3290  223.2870 C   0  0  0  0  0  0  0  0  0  0  0  0
  139.4480   69.4140  224.3060 C   0  0  0  0  0  0  0  0  0  0  0  0
  139.9170   69.8030  225.5610 C   0  0  0  0  0  0  0  0  0  0  0  0
  139.7340   68.8920  226.5970 C   0  0  0  0  0  0  0  0  0  0  0  0
  140.1750   69.2100  227.8700 C   0  0  0  0  0  0  0  0  0  0  0  0
  140.0160   68.3470  228.9180 F   0  0  0  0  0  0  0  0  0  0  0  0
  140.7820   70.4360  228.0450 C   0  0  0  0  0  0  0  0  0  0  0  0
  140.9660   71.3440  227.0240 C   0  0  0  0  0  0  0  0  0  0  0  0
  140.5270   71.0250  225.7560 C   0  0  0  0  0  0  0  0  0  0  0  0
  140.6840   71.8810  224.7180 N   0  0  0  0  0  0  0  0  0  0  0  0
  139.2030   73.9710  223.1910 H   0  0  0  0  0  0  0  0  0  0  0  0
  140.9798   74.7877  220.9757 H   0  0  0  0  0  0  0  0  0  0  0  0
  139.3951   74.2652  220.3369 H   0  0  0  0  0  0  0  0  0  0  0  0
  138.6717   77.9883  219.8463 H   0  0  0  0  0  0  0  0  0  0  0  0
  139.1422   79.1087  221.1078 H   0  0  0  0  0  0  0  0  0  0  0  0
  140.5429   78.4069  218.5907 H   0  0  0  0  0  0  0  0  0  0  0  0
  140.8854   79.7646  219.6817 H   0  0  0  0  0  0  0  0  0  0  0  0
  142.1342   77.0394  219.5744 H   0  0  0  0  0  0  0  0  0  0  0  0
  142.8270   78.5033  220.2262 H   0  0  0  0  0  0  0  0  0  0  0  0
  141.9243   76.6841  222.1085 H   0  0  0  0  0  0  0  0  0  0  0  0
  143.3835   79.5534  221.6946 H   0  0  0  0  0  0  0  0  0  0  0  0
  142.8840   81.4300  223.3810 H   0  0  0  0  0  0  0  0  0  0  0  0
  140.5906   80.9573  224.6154 H   0  0  0  0  0  0  0  0  0  0  0  0
  139.2837   70.0723  222.2771 H   0  0  0  0  0  0  0  0  0  0  0  0
  138.9603   68.4424  224.1382 H   0  0  0  0  0  0  0  0  0  0  0  0
  139.2426   67.9266  226.4057 H   0  0  0  0  0  0  0  0  0  0  0  0
  141.1376   70.7031  229.0511 H   0  0  0  0  0  0  0  0  0  0  0  0
  141.4561   72.3095  227.2180 H   0  0  0  0  0  0  0  0  0  0  0  0
  1  2  2  0
  2  3  1  0
  3  4  1  0
  4  5  1  0
  5  6  2  0
  5  7  1  0
  7  8  1  0
  8  9  1  0
  9 10  1  0
 10 11  1  0
 11 12  1  0
 12 13  2  0
 13 14  1  0
 14 15  1  0
 15 16  2  0
  2 17  1  0
 17 18  2  0
 18 19  1  0
 19 20  2  0
 20 21  1  0
 21 22  2  0
 22 23  1  0
 22 24  1  0
 24 25  2  0
 25 26  1  0
 26 27  2  0
 11  7  1  0
 16 12  1  0
 27 17  1  0
 26 20  1  0
  3 28  1  0
  4 29  1  0
  4 30  1  0
  8 31  1  0
  8 32  1  0
  9 33  1  0
  9 34  1  0
 10 35  1  0
 10 36  1  0
 11 37  1  1
 13 38  1  0
 14 39  1  0
 15 40  1  0
 18 41  1  0
 19 42  1  0
 21 43  1  0
 24 44  1  0
 25 45  1  0
M  END
>  <smiles>  (29) 
O=C(NCC(=O)N1CCC[C@H]1c1c[nH]cn1)c1ccc2cc(F)ccc2n1

>  <score_type>  (29) 
oracle

>  <origin>  (29) 
autodockgpu

>  <m_score__min__energy>  (29) 
-8.3200000000000003

>  <m_primary>  (29) 
energy

>  <rmsd>  (29) 
2.132890793308822

>  <m_score__min__rmsd>  (29) 
2.132890793308822

>  <meeko>  (29) 
{"free_energy": -7.38, "intermolecular_energy": -8.87, "internal_energy": -1.4, "cluster_size": 10, "cluster_id": 2, "rank_in_cluster": 5}

>  <energy>  (29) 
-6.65

>  <cluster_rmsd>  (29) 
0.76

>  <cluster>  (29) 
4

$$$$

     RDKit          3D

 45 48  0  0  0  0  0  0  0  0999 V2000
  141.1550   72.2260  221.3260 O   0  0  0  0  0  0  0  0  0  0  0  0
  140.4320   72.5350  222.3280 C   0  0  0  0  0  0  0  0  0  0  0  0
  139.8050   73.8090  222.3440 N   0  0  0  0  0  0  0  0  0  0  0  0
  139.9600   74.7690  221.2580 C   0  0  0  0  0  0  0  0  0  0  0  0
  139.5950   76.1210  221.7770 C   0  0  0  0  0  0  0  0  0  0  0  0
  138.6690   76.2750  222.6120 O   0  0  0  0  0  0  0  0  0  0  0  0
  140.3320   77.2430  221.2990 N   0  0  0  0  0  0  0  0  0  0  0  0
  141.4070   77.9710  221.9610 C   0  0  0  0  0  0  0  0  0  0  0  0
  141.1430   79.4050  221.5670 C   0  0  0  0  0  0  0  0  0  0  0  0
  140.0890   79.3660  220.4790 C   0  0  0  0  0  0  0  0  0  0  0  0
  140.1530   77.9060  220.0150 C   0  0  1  0  0  0  0  0  0  0  0  0
  141.3860   77.8110  219.1890 C   0  0  0  0  0  0  0  0  0  0  0  0
  141.8250   78.8280  218.3690 C   0  0  0  0  0  0  0  0  0  0  0  0
  142.9540   78.4060  217.7790 N   0  0  0  0  0  0  0  0  0  0  0  0
  143.2330   77.1590  218.2060 C   0  0  0  0  0  0  0  0  0  0  0  0
  142.2600   76.7900  219.0800 N   0  0  0  0  0  0  0  0  0  0  0  0
  140.2560   71.5970  223.4310 C   0  0  0  0  0  0  0  0  0  0  0  0
  139.6220   70.3940  223.1950 C   0  0  0  0  0  0  0  0  0  0  0  0
  139.4160   69.4490  224.1830 C   0  0  0  0  0  0  0  0  0  0  0  0
  139.8910   69.7880  225.4500 C   0  0  0  0  0  0  0  0  0  0  0  0
  139.6900   68.8480  226.4550 C   0  0  0  0  0  0  0  0  0  0  0  0
  140.1350   69.1150  227.7380 C   0  0  0  0  0  0  0  0  0  0  0  0
  139.9600   68.2210  228.7570 F   0  0  0  0  0  0  0  0  0  0  0  0
  140.7660   70.3230  227.9540 C   0  0  0  0  0  0  0  0  0  0  0  0
  140.9680   71.2600  226.9630 C   0  0  0  0  0  0  0  0  0  0  0  0
  140.5240   70.9910  225.6850 C   0  0  0  0  0  0  0  0  0  0  0  0
  140.6990   71.8780  224.6760 N   0  0  0  0  0  0  0  0  0  0  0  0
  139.2140   74.0240  223.1930 H   0  0  0  0  0  0  0  0  0  0  0  0
  141.0035   74.7726  220.9099 H   0  0  0  0  0  0  0  0  0  0  0  0
  139.3095   74.4970  220.4137 H   0  0  0  0  0  0  0  0  0  0  0  0
  141.3551   77.8455  223.0526 H   0  0  0  0  0  0  0  0  0  0  0  0
  142.4087   77.6205  221.6716 H   0  0  0  0  0  0  0  0  0  0  0  0
  140.7746   79.9751  222.4326 H   0  0  0  0  0  0  0  0  0  0  0  0
  142.0617   79.8955  221.2130 H   0  0  0  0  0  0  0  0  0  0  0  0
  139.0946   79.6139  220.8785 H   0  0  0  0  0  0  0  0  0  0  0  0
  140.2619   80.0929  219.6717 H   0  0  0  0  0  0  0  0  0  0  0  0
  139.3103   77.5051  219.4327 H   0  0  0  0  0  0  0  0  0  0  0  0
  141.3398   79.8047  218.2249 H   0  0  0  0  0  0  0  0  0  0  0  0
  143.5040   78.9990  217.0930 H   0  0  0  0  0  0  0  0  0  0  0  0
  144.0954   76.5479  217.9012 H   0  0  0  0  0  0  0  0  0  0  0  0
  139.2653   70.1778  222.1772 H   0  0  0  0  0  0  0  0  0  0  0  0
  138.9107   68.4926  223.9831 H   0  0  0  0  0  0  0  0  0  0  0  0
  139.1809   67.8988  226.2317 H   0  0  0  0  0  0  0  0  0  0  0  0
  141.1261   70.5499  228.9683 H   0  0  0  0  0  0  0  0  0  0  0  0
  141.4763   72.2091  227.1884 H   0  0  0  0  0  0  0  0  0  0  0  0
  1  2  2  0
  2  3  1  0
  3  4  1  0
  4  5  1  0
  5  6  2  0
  5  7  1  0
  7  8  1  0
  8  9  1  0
  9 10  1  0
 10 11  1  0
 11 12  1  0
 12 13  2  0
 13 14  1  0
 14 15  1  0
 15 16  2  0
  2 17  1  0
 17 18  2  0
 18 19  1  0
 19 20  2  0
 20 21  1  0
 21 22  2  0
 22 23  1  0
 22 24  1  0
 24 25  2  0
 25 26  1  0
 26 27  2  0
 11  7  1  0
 16 12  1  0
 27 17  1  0
 26 20  1  0
  3 28  1  0
  4 29  1  0
  4 30  1  0
  8 31  1  0
  8 32  1  0
  9 33  1  0
  9 34  1  0
 10 35  1  0
 10 36  1  0
 11 37  1  6
 13 38  1  0
 14 39  1  0
 15 40  1  0
 18 41  1  0
 19 42  1  0
 21 43  1  0
 24 44  1  0
 25 45  1  0
M  END
>  <smiles>  (30) 
O=C(NCC(=O)N1CCC[C@H]1c1c[nH]cn1)c1ccc2cc(F)ccc2n1

>  <score_type>  (30) 
oracle

>  <origin>  (30) 
autodockgpu

>  <m_score__min__energy>  (30) 
-8.3200000000000003

>  <m_primary>  (30) 
energy

>  <rmsd>  (30) 
3.0111791500526497

>  <m_score__min__rmsd>  (30) 
3.0111791500526497

>  <meeko>  (30) 
{"free_energy": -7.35, "intermolecular_energy": -8.84, "internal_energy": -1.46, "cluster_size": 4, "cluster_id": 3, "rank_in_cluster": 3}

>  <energy>  (30) 
-6.64

>  <cluster_rmsd>  (30) 
0.73

>  <cluster>  (30) 
4

$$$$

     RDKit          3D

 45 48  0  0  0  0  0  0  0  0999 V2000
  139.6080   70.9800  221.2120 O   0  0  0  0  0  0  0  0  0  0  0  0
  139.6270   71.5510  222.3510 C   0  0  0  0  0  0  0  0  0  0  0  0
  139.5540   72.9670  222.4000 N   0  0  0  0  0  0  0  0  0  0  0  0
  139.4580   73.7860  221.1970 C   0  0  0  0  0  0  0  0  0  0  0  0
  140.4860   74.8650  221.2850 C   0  0  0  0  0  0  0  0  0  0  0  0
  140.6570   75.5230  222.3420 O   0  0  0  0  0  0  0  0  0  0  0  0
  141.2770   75.1320  220.1310 N   0  0  0  0  0  0  0  0  0  0  0  0
  141.0150   74.7610  218.7460 C   0  0  0  0  0  0  0  0  0  0  0  0
  142.3860   74.4150  218.2170 C   0  0  0  0  0  0  0  0  0  0  0  0
  143.3800   74.8770  219.2640 C   0  0  0  0  0  0  0  0  0  0  0  0
  142.5430   75.8510  220.1020 C   0  0  1  0  0  0  0  0  0  0  0  0
  142.4360   77.0850  219.2780 C   0  0  0  0  0  0  0  0  0  0  0  0
  143.3240   77.3990  218.2720 C   0  0  0  0  0  0  0  0  0  0  0  0
  142.9330   78.5700  217.7450 N   0  0  0  0  0  0  0  0  0  0  0  0
  141.8290   78.9940  218.3910 C   0  0  0  0  0  0  0  0  0  0  0  0
  141.5220   78.0740  219.3420 N   0  0  0  0  0  0  0  0  0  0  0  0
  139.7220   70.7600  223.5730 C   0  0  0  0  0  0  0  0  0  0  0  0
  139.1940   69.4850  223.5910 C   0  0  0  0  0  0  0  0  0  0  0  0
  139.2420   68.6700  224.7070 C   0  0  0  0  0  0  0  0  0  0  0  0
  139.8630   69.2200  225.8290 C   0  0  0  0  0  0  0  0  0  0  0  0
  139.9190   68.4120  226.9600 C   0  0  0  0  0  0  0  0  0  0  0  0
  140.5200   68.8910  228.1110 C   0  0  0  0  0  0  0  0  0  0  0  0
  140.5980   68.1320  229.2460 F   0  0  0  0  0  0  0  0  0  0  0  0
  141.0400   70.1680  228.0730 C   0  0  0  0  0  0  0  0  0  0  0  0
  140.9890   70.9750  226.9560 C   0  0  0  0  0  0  0  0  0  0  0  0
  140.3900   70.4950  225.8100 C   0  0  0  0  0  0  0  0  0  0  0  0
  140.3130   71.2470  224.6850 N   0  0  0  0  0  0  0  0  0  0  0  0
  139.5720   73.4000  223.3630 H   0  0  0  0  0  0  0  0  0  0  0  0
  139.6444   73.1655  220.3081 H   0  0  0  0  0  0  0  0  0  0  0  0
  138.4525   74.2245  221.1147 H   0  0  0  0  0  0  0  0  0  0  0  0
  140.3403   73.8939  218.6907 H   0  0  0  0  0  0  0  0  0  0  0  0
  140.5193   75.5578  218.1721 H   0  0  0  0  0  0  0  0  0  0  0  0
  142.4717   73.3290  218.0646 H   0  0  0  0  0  0  0  0  0  0  0  0
  142.5733   74.9015  217.2484 H   0  0  0  0  0  0  0  0  0  0  0  0
  143.7381   74.0337  219.8728 H   0  0  0  0  0  0  0  0  0  0  0  0
  144.2885   75.3294  218.8396 H   0  0  0  0  0  0  0  0  0  0  0  0
  142.9089   76.1280  221.1017 H   0  0  0  0  0  0  0  0  0  0  0  0
  144.1924   76.8008  217.9589 H   0  0  0  0  0  0  0  0  0  0  0  0
  143.4450   79.0440  216.9470 H   0  0  0  0  0  0  0  0  0  0  0  0
  141.2744   79.9213  218.1847 H   0  0  0  0  0  0  0  0  0  0  0  0
  138.7145   69.1007  222.6786 H   0  0  0  0  0  0  0  0  0  0  0  0
  138.8185   67.6548  224.7101 H   0  0  0  0  0  0  0  0  0  0  0  0
  139.4888   67.3998  226.9397 H   0  0  0  0  0  0  0  0  0  0  0  0
  141.5201   70.5630  228.9805 H   0  0  0  0  0  0  0  0  0  0  0  0
  141.4198   71.9869  226.9786 H   0  0  0  0  0  0  0  0  0  0  0  0
  1  2  2  0
  2  3  1  0
  3  4  1  0
  4  5  1  0
  5  6  2  0
  5  7  1  0
  7  8  1  0
  8  9  1  0
  9 10  1  0
 10 11  1  0
 11 12  1  0
 12 13  2  0
 13 14  1  0
 14 15  1  0
 15 16  2  0
  2 17  1  0
 17 18  2  0
 18 19  1  0
 19 20  2  0
 20 21  1  0
 21 22  2  0
 22 23  1  0
 22 24  1  0
 24 25  2  0
 25 26  1  0
 26 27  2  0
 11  7  1  0
 16 12  1  0
 27 17  1  0
 26 20  1  0
  3 28  1  0
  4 29  1  0
  4 30  1  0
  8 31  1  0
  8 32  1  0
  9 33  1  0
  9 34  1  0
 10 35  1  0
 10 36  1  0
 11 37  1  1
 13 38  1  0
 14 39  1  0
 15 40  1  0
 18 41  1  0
 19 42  1  0
 21 43  1  0
 24 44  1  0
 25 45  1  0
M  END
>  <smiles>  (31) 
O=C(NCC(=O)N1CCC[C@H]1c1c[nH]cn1)c1ccc2cc(F)ccc2n1

>  <score_type>  (31) 
oracle

>  <origin>  (31) 
autodockgpu

>  <m_score__min__energy>  (31) 
-8.3200000000000003

>  <m_primary>  (31) 
energy

>  <rmsd>  (31) 
2.0021640102963825

>  <m_score__min__rmsd>  (31) 
2.0021640102963825

>  <meeko>  (31) 
{"free_energy": -7.26, "intermolecular_energy": -8.75, "internal_energy": -1.41, "cluster_size": 4, "cluster_id": 3, "rank_in_cluster": 4}

>  <energy>  (31) 
-6.64

>  <cluster_rmsd>  (31) 
0.76

>  <cluster>  (31) 
4

$$$$

     RDKit          3D

 45 48  0  0  0  0  0  0  0  0999 V2000
  138.7780   74.7050  222.3360 O   0  0  0  0  0  0  0  0  0  0  0  0
  139.8180   75.2250  221.8150 C   0  0  0  0  0  0  0  0  0  0  0  0
  139.8430   76.6300  221.6110 N   0  0  0  0  0  0  0  0  0  0  0  0
  138.7260   77.4920  221.9760 C   0  0  0  0  0  0  0  0  0  0  0  0
  139.2790   78.7280  222.6060 C   0  0  0  0  0  0  0  0  0  0  0  0
  138.6470   79.3480  223.4980 O   0  0  0  0  0  0  0  0  0  0  0  0
  140.5520   79.1910  222.1670 N   0  0  0  0  0  0  0  0  0  0  0  0
  141.8720   78.8310  222.6710 C   0  0  0  0  0  0  0  0  0  0  0  0
  142.6330   80.1340  222.6030 C   0  0  0  0  0  0  0  0  0  0  0  0
  141.7740   81.0930  221.8040 C   0  0  0  0  0  0  0  0  0  0  0  0
  140.7990   80.1450  221.0950 C   0  0  1  0  0  0  0  0  0  0  0  0
  141.5870   79.5220  219.9970 C   0  0  0  0  0  0  0  0  0  0  0  0
  142.2220   80.2530  219.0170 C   0  0  0  0  0  0  0  0  0  0  0  0
  142.8300   79.3800  218.1990 N   0  0  0  0  0  0  0  0  0  0  0  0
  142.5940   78.1280  218.6400 C   0  0  0  0  0  0  0  0  0  0  0  0
  141.8230   78.2170  219.7550 N   0  0  0  0  0  0  0  0  0  0  0  0
  140.9530   74.3900  221.4390 C   0  0  0  0  0  0  0  0  0  0  0  0
  140.7980   73.0180  221.4110 C   0  0  0  0  0  0  0  0  0  0  0  0
  141.8210   72.1560  221.0660 C   0  0  0  0  0  0  0  0  0  0  0  0
  143.0370   72.7610  220.7430 C   0  0  0  0  0  0  0  0  0  0  0  0
  144.0770   71.9050  220.3940 C   0  0  0  0  0  0  0  0  0  0  0  0
  145.3120   72.4340  220.0610 C   0  0  0  0  0  0  0  0  0  0  0  0
  146.3620   71.6320  219.7110 F   0  0  0  0  0  0  0  0  0  0  0  0
  145.4470   73.8060  220.0940 C   0  0  0  0  0  0  0  0  0  0  0  0
  144.4200   74.6610  220.4400 C   0  0  0  0  0  0  0  0  0  0  0  0
  143.1910   74.1310  220.7710 C   0  0  0  0  0  0  0  0  0  0  0  0
  142.1500   74.9270  221.1170 N   0  0  0  0  0  0  0  0  0  0  0  0
  140.7240   77.0190  221.1770 H   0  0  0  0  0  0  0  0  0  0  0  0
  138.1508   77.7574  221.0767 H   0  0  0  0  0  0  0  0  0  0  0  0
  138.0582   76.9725  222.6790 H   0  0  0  0  0  0  0  0  0  0  0  0
  141.8124   78.4623  223.7057 H   0  0  0  0  0  0  0  0  0  0  0  0
  142.3478   78.0224  222.0968 H   0  0  0  0  0  0  0  0  0  0  0  0
  142.8019   80.5287  223.6158 H   0  0  0  0  0  0  0  0  0  0  0  0
  143.6175   79.9954  222.1324 H   0  0  0  0  0  0  0  0  0  0  0  0
  141.2403   81.7935  222.4631 H   0  0  0  0  0  0  0  0  0  0  0  0
  142.3485   81.7299  221.1153 H   0  0  0  0  0  0  0  0  0  0  0  0
  139.8770   80.5669  220.6684 H   0  0  0  0  0  0  0  0  0  0  0  0
  142.2293   81.3489  218.9225 H   0  0  0  0  0  0  0  0  0  0  0  0
  143.3950   79.6770  217.3530 H   0  0  0  0  0  0  0  0  0  0  0  0
  142.9607   77.1991  218.1788 H   0  0  0  0  0  0  0  0  0  0  0  0
  139.8181   72.5934  221.6747 H   0  0  0  0  0  0  0  0  0  0  0  0
  141.6862   71.0644  221.0470 H   0  0  0  0  0  0  0  0  0  0  0  0
  143.9190   70.8165  220.3828 H   0  0  0  0  0  0  0  0  0  0  0  0
  146.4225   74.2411  219.8313 H   0  0  0  0  0  0  0  0  0  0  0  0
  144.5798   75.7493  220.4515 H   0  0  0  0  0  0  0  0  0  0  0  0
  1  2  2  0
  2  3  1  0
  3  4  1  0
  4  5  1  0
  5  6  2  0
  5  7  1  0
  7  8  1  0
  8  9  1  0
  9 10  1  0
 10 11  1  0
 11 12  1  0
 12 13  2  0
 13 14  1  0
 14 15  1  0
 15 16  2  0
  2 17  1  0
 17 18  2  0
 18 19  1  0
 19 20  2  0
 20 21  1  0
 21 22  2  0
 22 23  1  0
 22 24  1  0
 24 25  2  0
 25 26  1  0
 26 27  2  0
 11  7  1  0
 16 12  1  0
 27 17  1  0
 26 20  1  0
  3 28  1  0
  4 29  1  0
  4 30  1  0
  8 31  1  0
  8 32  1  0
  9 33  1  0
  9 34  1  0
 10 35  1  0
 10 36  1  0
 11 37  1  6
 13 38  1  0
 14 39  1  0
 15 40  1  0
 18 41  1  0
 19 42  1  0
 21 43  1  0
 24 44  1  0
 25 45  1  0
M  END
>  <smiles>  (32) 
O=C(NCC(=O)N1CCC[C@H]1c1c[nH]cn1)c1ccc2cc(F)ccc2n1

>  <score_type>  (32) 
oracle

>  <origin>  (32) 
autodockgpu

>  <m_score__min__energy>  (32) 
-8.3200000000000003

>  <m_primary>  (32) 
energy

>  <rmsd>  (32) 
6.233661002887115

>  <m_score__min__rmsd>  (32) 
6.233661002887115

>  <meeko>  (32) 
{"free_energy": -6.54, "intermolecular_energy": -8.03, "internal_energy": -2.47, "cluster_size": 24, "cluster_id": 4, "rank_in_cluster": 15}

>  <energy>  (32) 
-6.63

>  <cluster_rmsd>  (32) 
0.78

>  <cluster>  (32) 
4

$$$$

     RDKit          3D

 45 48  0  0  0  0  0  0  0  0999 V2000
  140.9800   71.1190  221.8160 O   0  0  0  0  0  0  0  0  0  0  0  0
  140.4670   71.7260  222.8120 C   0  0  0  0  0  0  0  0  0  0  0  0
  139.8520   72.9860  222.5930 N   0  0  0  0  0  0  0  0  0  0  0  0
  139.7880   73.6060  221.2750 C   0  0  0  0  0  0  0  0  0  0  0  0
  140.7540   74.7440  221.2470 C   0  0  0  0  0  0  0  0  0  0  0  0
  140.6070   75.7460  221.9910 O   0  0  0  0  0  0  0  0  0  0  0  0
  141.8560   74.6640  220.3490 N   0  0  0  0  0  0  0  0  0  0  0  0
  142.5690   75.7510  219.6890 C   0  0  0  0  0  0  0  0  0  0  0  0
  142.8670   75.1860  218.3200 C   0  0  0  0  0  0  0  0  0  0  0  0
  142.5420   73.7070  218.3850 C   0  0  0  0  0  0  0  0  0  0  0  0
  142.5120   73.4460  219.8960 C   0  0  1  0  0  0  0  0  0  0  0  0
  143.9390   73.4190  220.3170 C   0  0  0  0  0  0  0  0  0  0  0  0
  144.6630   72.2550  220.4530 C   0  0  0  0  0  0  0  0  0  0  0  0
  145.9010   72.5990  220.8440 N   0  0  0  0  0  0  0  0  0  0  0  0
  145.9690   73.9400  220.9560 C   0  0  0  0  0  0  0  0  0  0  0  0
  144.7520   74.4490  220.6290 N   0  0  0  0  0  0  0  0  0  0  0  0
  140.5150   71.1340  224.1430 C   0  0  0  0  0  0  0  0  0  0  0  0
  141.0210   71.8760  225.1920 C   0  0  0  0  0  0  0  0  0  0  0  0
  141.1020   71.3900  226.4830 C   0  0  0  0  0  0  0  0  0  0  0  0
  140.6370   70.0880  226.6680 C   0  0  0  0  0  0  0  0  0  0  0  0
  140.7120   69.5850  227.9620 C   0  0  0  0  0  0  0  0  0  0  0  0
  140.2680   68.2990  228.2220 C   0  0  0  0  0  0  0  0  0  0  0  0
  140.3230   67.7640  229.4780 F   0  0  0  0  0  0  0  0  0  0  0  0
  139.7670   67.5740  227.1610 C   0  0  0  0  0  0  0  0  0  0  0  0
  139.6900   68.0650  225.8750 C   0  0  0  0  0  0  0  0  0  0  0  0
  140.1320   69.3460  225.6200 C   0  0  0  0  0  0  0  0  0  0  0  0
  140.0770   69.8770  224.3740 N   0  0  0  0  0  0  0  0  0  0  0  0
  139.4400   73.4550  223.4450 H   0  0  0  0  0  0  0  0  0  0  0  0
  140.0577   72.8696  220.5037 H   0  0  0  0  0  0  0  0  0  0  0  0
  138.7688   73.9680  221.0746 H   0  0  0  0  0  0  0  0  0  0  0  0
  141.9387   76.6496  219.6164 H   0  0  0  0  0  0  0  0  0  0  0  0
  143.4722   76.0671  220.2316 H   0  0  0  0  0  0  0  0  0  0  0  0
  142.2422   75.6794  217.5610 H   0  0  0  0  0  0  0  0  0  0  0  0
  143.9185   75.3505  218.0420 H   0  0  0  0  0  0  0  0  0  0  0  0
  141.5665   73.4927  217.9241 H   0  0  0  0  0  0  0  0  0  0  0  0
  143.2594   73.0738  217.8424 H   0  0  0  0  0  0  0  0  0  0  0  0
  142.0228   72.5298  220.2584 H   0  0  0  0  0  0  0  0  0  0  0  0
  144.2955   71.2337  220.2746 H   0  0  0  0  0  0  0  0  0  0  0  0
  146.6680   71.8900  221.0230 H   0  0  0  0  0  0  0  0  0  0  0  0
  146.8532   74.5202  221.2586 H   0  0  0  0  0  0  0  0  0  0  0  0
  141.3748   72.8980  224.9912 H   0  0  0  0  0  0  0  0  0  0  0  0
  141.5068   71.9907  227.3108 H   0  0  0  0  0  0  0  0  0  0  0  0
  141.1212   70.2042  228.7739 H   0  0  0  0  0  0  0  0  0  0  0  0
  139.4103   66.5509  227.3507 H   0  0  0  0  0  0  0  0  0  0  0  0
  139.2819   67.4438  225.0641 H   0  0  0  0  0  0  0  0  0  0  0  0
  1  2  2  0
  2  3  1  0
  3  4  1  0
  4  5  1  0
  5  6  2  0
  5  7  1  0
  7  8  1  0
  8  9  1  0
  9 10  1  0
 10 11  1  0
 11 12  1  0
 12 13  2  0
 13 14  1  0
 14 15  1  0
 15 16  2  0
  2 17  1  0
 17 18  2  0
 18 19  1  0
 19 20  2  0
 20 21  1  0
 21 22  2  0
 22 23  1  0
 22 24  1  0
 24 25  2  0
 25 26  1  0
 26 27  2  0
 11  7  1  0
 16 12  1  0
 27 17  1  0
 26 20  1  0
  3 28  1  0
  4 29  1  0
  4 30  1  0
  8 31  1  0
  8 32  1  0
  9 33  1  0
  9 34  1  0
 10 35  1  0
 10 36  1  0
 11 37  1  6
 13 38  1  0
 14 39  1  0
 15 40  1  0
 18 41  1  0
 19 42  1  0
 21 43  1  0
 24 44  1  0
 25 45  1  0
M  END
>  <smiles>  (33) 
O=C(NCC(=O)N1CCC[C@H]1c1c[nH]cn1)c1ccc2cc(F)ccc2n1

>  <score_type>  (33) 
oracle

>  <origin>  (33) 
autodockgpu

>  <m_score__min__energy>  (33) 
-8.3200000000000003

>  <m_primary>  (33) 
energy

>  <rmsd>  (33) 
3.7241586177045396

>  <m_score__min__rmsd>  (33) 
3.7241586177045396

>  <meeko>  (33) 
{"free_energy": -7.82, "intermolecular_energy": -9.31, "internal_energy": -1.09, "cluster_size": 11, "cluster_id": 1, "rank_in_cluster": 4}

>  <energy>  (33) 
-6.63

>  <cluster_rmsd>  (33) 
0.81

>  <cluster>  (33) 
4

$$$$

     RDKit          3D

 45 48  0  0  0  0  0  0  0  0999 V2000
  138.7080   74.7740  222.2150 O   0  0  0  0  0  0  0  0  0  0  0  0
  139.8460   75.2860  221.9590 C   0  0  0  0  0  0  0  0  0  0  0  0
  139.9970   76.6930  222.0700 N   0  0  0  0  0  0  0  0  0  0  0  0
  138.8990   77.5670  222.4660 C   0  0  0  0  0  0  0  0  0  0  0  0
  139.4800   78.8640  222.9260 C   0  0  0  0  0  0  0  0  0  0  0  0
  138.9090   79.5640  223.7990 O   0  0  0  0  0  0  0  0  0  0  0  0
  140.7090   79.2900  222.3450 N   0  0  0  0  0  0  0  0  0  0  0  0
  142.0660   79.0590  222.8230 C   0  0  0  0  0  0  0  0  0  0  0  0
  142.7690   80.3570  222.5040 C   0  0  0  0  0  0  0  0  0  0  0  0
  141.8310   81.1470  221.6140 C   0  0  0  0  0  0  0  0  0  0  0  0
  140.8590   80.0660  221.1230 C   0  0  1  0  0  0  0  0  0  0  0  0
  141.6140   79.3000  220.0940 C   0  0  0  0  0  0  0  0  0  0  0  0
  142.2100   79.8900  219.0010 C   0  0  0  0  0  0  0  0  0  0  0  0
  142.7960   78.9130  218.2910 N   0  0  0  0  0  0  0  0  0  0  0  0
  142.5840   77.7340  218.9070 C   0  0  0  0  0  0  0  0  0  0  0  0
  141.8510   77.9740  220.0260 N   0  0  0  0  0  0  0  0  0  0  0  0
  140.9640   74.4390  221.5600 C   0  0  0  0  0  0  0  0  0  0  0  0
  140.8050   73.0670  221.5680 C   0  0  0  0  0  0  0  0  0  0  0  0
  141.8130   72.1940  221.2050 C   0  0  0  0  0  0  0  0  0  0  0  0
  143.0180   72.7880  220.8260 C   0  0  0  0  0  0  0  0  0  0  0  0
  144.0420   71.9220  220.4580 C   0  0  0  0  0  0  0  0  0  0  0  0
  145.2660   72.4390  220.0700 C   0  0  0  0  0  0  0  0  0  0  0  0
  146.3010   71.6260  219.7000 F   0  0  0  0  0  0  0  0  0  0  0  0
  145.4050   73.8110  220.0690 C   0  0  0  0  0  0  0  0  0  0  0  0
  144.3950   74.6760  220.4320 C   0  0  0  0  0  0  0  0  0  0  0  0
  143.1760   74.1580  220.8180 C   0  0  0  0  0  0  0  0  0  0  0  0
  142.1500   74.9650  221.1850 N   0  0  0  0  0  0  0  0  0  0  0  0
  140.9560   77.0750  221.8490 H   0  0  0  0  0  0  0  0  0  0  0  0
  138.2327   77.7405  221.6081 H   0  0  0  0  0  0  0  0  0  0  0  0
  138.3156   77.1029  223.2749 H   0  0  0  0  0  0  0  0  0  0  0  0
  142.0749   78.8610  223.9050 H   0  0  0  0  0  0  0  0  0  0  0  0
  142.5440   78.1837  222.3589 H   0  0  0  0  0  0  0  0  0  0  0  0
  142.9749   80.9150  223.4293 H   0  0  0  0  0  0  0  0  0  0  0  0
  143.7322   80.1754  222.0048 H   0  0  0  0  0  0  0  0  0  0  0  0
  141.3046   81.9274  222.1831 H   0  0  0  0  0  0  0  0  0  0  0  0
  142.3421   81.6824  220.8003 H   0  0  0  0  0  0  0  0  0  0  0  0
  139.8991   80.3836  220.6897 H   0  0  0  0  0  0  0  0  0  0  0  0
  142.2064   80.9623  218.7557 H   0  0  0  0  0  0  0  0  0  0  0  0
  143.3300   79.0930  217.3930 H   0  0  0  0  0  0  0  0  0  0  0  0
  142.9408   76.7513  218.5650 H   0  0  0  0  0  0  0  0  0  0  0  0
  139.8344   72.6514  221.8765 H   0  0  0  0  0  0  0  0  0  0  0  0
  141.6748   71.1028  221.2141 H   0  0  0  0  0  0  0  0  0  0  0  0
  143.8805   70.8341  220.4751 H   0  0  0  0  0  0  0  0  0  0  0  0
  146.3718   74.2371  219.7627 H   0  0  0  0  0  0  0  0  0  0  0  0
  144.5586   75.7636  220.4142 H   0  0  0  0  0  0  0  0  0  0  0  0
  1  2  2  0
  2  3  1  0
  3  4  1  0
  4  5  1  0
  5  6  2  0
  5  7  1  0
  7  8  1  0
  8  9  1  0
  9 10  1  0
 10 11  1  0
 11 12  1  0
 12 13  2  0
 13 14  1  0
 14 15  1  0
 15 16  2  0
  2 17  1  0
 17 18  2  0
 18 19  1  0
 19 20  2  0
 20 21  1  0
 21 22  2  0
 22 23  1  0
 22 24  1  0
 24 25  2  0
 25 26  1  0
 26 27  2  0
 11  7  1  0
 16 12  1  0
 27 17  1  0
 26 20  1  0
  3 28  1  0
  4 29  1  0
  4 30  1  0
  8 31  1  0
  8 32  1  0
  9 33  1  0
  9 34  1  0
 10 35  1  0
 10 36  1  0
 11 37  1  6
 13 38  1  0
 14 39  1  0
 15 40  1  0
 18 41  1  0
 19 42  1  0
 21 43  1  0
 24 44  1  0
 25 45  1  0
M  END
>  <smiles>  (34) 
O=C(NCC(=O)N1CCC[C@H]1c1c[nH]cn1)c1ccc2cc(F)ccc2n1

>  <score_type>  (34) 
oracle

>  <origin>  (34) 
autodockgpu

>  <m_score__min__energy>  (34) 
-8.3200000000000003

>  <m_primary>  (34) 
energy

>  <rmsd>  (34) 
6.268407849527935

>  <m_score__min__rmsd>  (34) 
6.268407849527935

>  <meeko>  (34) 
{"free_energy": -6.52, "intermolecular_energy": -8.01, "internal_energy": -2.51, "cluster_size": 24, "cluster_id": 4, "rank_in_cluster": 16}

>  <energy>  (34) 
-6.63

>  <cluster_rmsd>  (34) 
0.81

>  <cluster>  (34) 
4

$$$$

     RDKit          3D

 45 48  0  0  0  0  0  0  0  0999 V2000
  139.5510   74.7760  222.5670 O   0  0  0  0  0  0  0  0  0  0  0  0
  140.3960   75.5010  221.9470 C   0  0  0  0  0  0  0  0  0  0  0  0
  140.2360   76.9110  221.9850 N   0  0  0  0  0  0  0  0  0  0  0  0
  139.1450   77.5540  222.7070 C   0  0  0  0  0  0  0  0  0  0  0  0
  139.3420   79.0320  222.6260 C   0  0  0  0  0  0  0  0  0  0  0  0
  138.4330   79.8330  222.9600 O   0  0  0  0  0  0  0  0  0  0  0  0
  140.5970   79.5160  222.1590 N   0  0  0  0  0  0  0  0  0  0  0  0
  141.9320   79.2090  222.6600 C   0  0  0  0  0  0  0  0  0  0  0  0
  142.6550   80.5300  222.5420 C   0  0  0  0  0  0  0  0  0  0  0  0
  141.7610   81.4390  221.7220 C   0  0  0  0  0  0  0  0  0  0  0  0
  140.8060   80.4410  221.0550 C   0  0  1  0  0  0  0  0  0  0  0  0
  141.6010   79.8060  219.9690 C   0  0  0  0  0  0  0  0  0  0  0  0
  142.2880   80.5270  219.0170 C   0  0  0  0  0  0  0  0  0  0  0  0
  142.8850   79.6430  218.2020 N   0  0  0  0  0  0  0  0  0  0  0  0
  142.5930   78.3950  218.6170 C   0  0  0  0  0  0  0  0  0  0  0  0
  141.7950   78.4960  219.7130 N   0  0  0  0  0  0  0  0  0  0  0  0
  141.4980   74.8880  221.2150 C   0  0  0  0  0  0  0  0  0  0  0  0
  142.3240   75.6870  220.4500 C   0  0  0  0  0  0  0  0  0  0  0  0
  143.3900   75.1870  219.7270 C   0  0  0  0  0  0  0  0  0  0  0  0
  143.5860   73.8090  219.8160 C   0  0  0  0  0  0  0  0  0  0  0  0
  144.6560   73.2900  219.0930 C   0  0  0  0  0  0  0  0  0  0  0  0
  144.9110   71.9310  219.1330 C   0  0  0  0  0  0  0  0  0  0  0  0
  145.9510   71.3770  218.4390 F   0  0  0  0  0  0  0  0  0  0  0  0
  144.0750   71.1490  219.9030 C   0  0  0  0  0  0  0  0  0  0  0  0
  143.0130   71.6550  220.6220 C   0  0  0  0  0  0  0  0  0  0  0  0
  142.7610   73.0100  220.5800 C   0  0  0  0  0  0  0  0  0  0  0  0
  141.7300   73.5580  221.2690 N   0  0  0  0  0  0  0  0  0  0  0  0
  140.9580   77.4730  221.4580 H   0  0  0  0  0  0  0  0  0  0  0  0
  138.1829   77.2805  222.2493 H   0  0  0  0  0  0  0  0  0  0  0  0
  139.1388   77.2276  223.7574 H   0  0  0  0  0  0  0  0  0  0  0  0
  141.8932   78.8723  223.7065 H   0  0  0  0  0  0  0  0  0  0  0  0
  142.4247   78.3958  222.1069 H   0  0  0  0  0  0  0  0  0  0  0  0
  142.8229   80.9616  223.5398 H   0  0  0  0  0  0  0  0  0  0  0  0
  143.6382   80.4038  222.0651 H   0  0  0  0  0  0  0  0  0  0  0  0
  141.2145   82.1454  222.3641 H   0  0  0  0  0  0  0  0  0  0  0  0
  142.3100   82.0693  221.0069 H   0  0  0  0  0  0  0  0  0  0  0  0
  139.8677   80.8222  220.6256 H   0  0  0  0  0  0  0  0  0  0  0  0
  142.3380   81.6231  218.9392 H   0  0  0  0  0  0  0  0  0  0  0  0
  143.4840   79.9320  217.3760 H   0  0  0  0  0  0  0  0  0  0  0  0
  142.9389   77.4602  218.1517 H   0  0  0  0  0  0  0  0  0  0  0  0
  142.1249   76.7682  220.4145 H   0  0  0  0  0  0  0  0  0  0  0  0
  144.0415   75.8335  219.1208 H   0  0  0  0  0  0  0  0  0  0  0  0
  145.2945   73.9559  218.4939 H   0  0  0  0  0  0  0  0  0  0  0  0
  144.2655   70.0665  219.9455 H   0  0  0  0  0  0  0  0  0  0  0  0
  142.3759   70.9873  221.2206 H   0  0  0  0  0  0  0  0  0  0  0  0
  1  2  2  0
  2  3  1  0
  3  4  1  0
  4  5  1  0
  5  6  2  0
  5  7  1  0
  7  8  1  0
  8  9  1  0
  9 10  1  0
 10 11  1  0
 11 12  1  0
 12 13  2  0
 13 14  1  0
 14 15  1  0
 15 16  2  0
  2 17  1  0
 17 18  2  0
 18 19  1  0
 19 20  2  0
 20 21  1  0
 21 22  2  0
 22 23  1  0
 22 24  1  0
 24 25  2  0
 25 26  1  0
 26 27  2  0
 11  7  1  0
 16 12  1  0
 27 17  1  0
 26 20  1  0
  3 28  1  0
  4 29  1  0
  4 30  1  0
  8 31  1  0
  8 32  1  0
  9 33  1  0
  9 34  1  0
 10 35  1  0
 10 36  1  0
 11 37  1  6
 13 38  1  0
 14 39  1  0
 15 40  1  0
 18 41  1  0
 19 42  1  0
 21 43  1  0
 24 44  1  0
 25 45  1  0
M  END
>  <smiles>  (35) 
O=C(NCC(=O)N1CCC[C@H]1c1c[nH]cn1)c1ccc2cc(F)ccc2n1

>  <score_type>  (35) 
oracle

>  <origin>  (35) 
autodockgpu

>  <m_score__min__energy>  (35) 
-8.3200000000000003

>  <m_primary>  (35) 
energy

>  <rmsd>  (35) 
6.906458178015954

>  <m_score__min__rmsd>  (35) 
6.906458178015954

>  <meeko>  (35) 
{"free_energy": -6.42, "intermolecular_energy": -7.91, "internal_energy": -2.08, "cluster_size": 24, "cluster_id": 4, "rank_in_cluster": 21}

>  <energy>  (35) 
-6.62

>  <cluster_rmsd>  (35) 
0.8

>  <cluster>  (35) 
4

$$$$

     RDKit          3D

 45 48  0  0  0  0  0  0  0  0999 V2000
  140.7250   71.8100  221.1960 O   0  0  0  0  0  0  0  0  0  0  0  0
  140.2590   72.2780  222.2850 C   0  0  0  0  0  0  0  0  0  0  0  0
  139.8170   73.6260  222.3100 N   0  0  0  0  0  0  0  0  0  0  0  0
  139.8780   74.4900  221.1360 C   0  0  0  0  0  0  0  0  0  0  0  0
  141.0740   75.3740  221.2700 C   0  0  0  0  0  0  0  0  0  0  0  0
  141.1220   76.2850  222.1340 O   0  0  0  0  0  0  0  0  0  0  0  0
  142.1690   75.1560  220.3860 N   0  0  0  0  0  0  0  0  0  0  0  0
  143.0140   76.1460  219.7280 C   0  0  0  0  0  0  0  0  0  0  0  0
  143.2580   75.5390  218.3670 C   0  0  0  0  0  0  0  0  0  0  0  0
  142.7580   74.1100  218.4370 C   0  0  0  0  0  0  0  0  0  0  0  0
  142.6790   73.8650  219.9490 C   0  0  1  0  0  0  0  0  0  0  0  0
  144.0880   73.6710  220.3880 C   0  0  0  0  0  0  0  0  0  0  0  0
  144.7130   72.4430  220.3980 C   0  0  0  0  0  0  0  0  0  0  0  0
  145.9630   72.6360  220.8470 N   0  0  0  0  0  0  0  0  0  0  0  0
  146.1360   73.9440  221.1170 C   0  0  0  0  0  0  0  0  0  0  0  0
  144.9730   74.5870  220.8320 N   0  0  0  0  0  0  0  0  0  0  0  0
  140.1850   71.4400  223.4770 C   0  0  0  0  0  0  0  0  0  0  0  0
  139.6120   70.1880  223.3840 C   0  0  0  0  0  0  0  0  0  0  0  0
  139.5030   69.3320  224.4630 C   0  0  0  0  0  0  0  0  0  0  0  0
  140.0110   69.8150  225.6700 C   0  0  0  0  0  0  0  0  0  0  0  0
  139.9070   68.9650  226.7660 C   0  0  0  0  0  0  0  0  0  0  0  0
  140.3900   69.3760  227.9970 C   0  0  0  0  0  0  0  0  0  0  0  0
  140.3100   68.5750  229.1010 F   0  0  0  0  0  0  0  0  0  0  0  0
  140.9580   70.6310  228.0690 C   0  0  0  0  0  0  0  0  0  0  0  0
  141.0640   71.4800  226.9870 C   0  0  0  0  0  0  0  0  0  0  0  0
  140.5830   71.0670  225.7630 C   0  0  0  0  0  0  0  0  0  0  0  0
  140.6620   71.8620  224.6680 N   0  0  0  0  0  0  0  0  0  0  0  0
  139.4380   73.9730  223.2330 H   0  0  0  0  0  0  0  0  0  0  0  0
  139.9676   73.8773  220.2268 H   0  0  0  0  0  0  0  0  0  0  0  0
  138.9632   75.0964  221.0621 H   0  0  0  0  0  0  0  0  0  0  0  0
  142.4959   77.1126  219.6420 H   0  0  0  0  0  0  0  0  0  0  0  0
  143.9420   76.3570  220.2796 H   0  0  0  0  0  0  0  0  0  0  0  0
  142.7054   76.0976  217.5972 H   0  0  0  0  0  0  0  0  0  0  0  0
  144.3248   75.5745  218.1012 H   0  0  0  0  0  0  0  0  0  0  0  0
  141.7694   74.0103  217.9651 H   0  0  0  0  0  0  0  0  0  0  0  0
  143.4013   73.3918  217.9075 H   0  0  0  0  0  0  0  0  0  0  0  0
  142.0795   73.0166  220.3106 H   0  0  0  0  0  0  0  0  0  0  0  0
  144.2699   71.4831  220.0944 H   0  0  0  0  0  0  0  0  0  0  0  0
  146.6650   71.8490  220.9540 H   0  0  0  0  0  0  0  0  0  0  0  0
  147.0559   74.4096  221.5004 H   0  0  0  0  0  0  0  0  0  0  0  0
  139.2254   69.8573  222.4087 H   0  0  0  0  0  0  0  0  0  0  0  0
  139.0459   68.3352  224.3765 H   0  0  0  0  0  0  0  0  0  0  0  0
  139.4443   67.9732  226.6557 H   0  0  0  0  0  0  0  0  0  0  0  0
  141.3466   70.9725  229.0397 H   0  0  0  0  0  0  0  0  0  0  0  0
  141.5256   72.4721  227.0993 H   0  0  0  0  0  0  0  0  0  0  0  0
  1  2  2  0
  2  3  1  0
  3  4  1  0
  4  5  1  0
  5  6  2  0
  5  7  1  0
  7  8  1  0
  8  9  1  0
  9 10  1  0
 10 11  1  0
 11 12  1  0
 12 13  2  0
 13 14  1  0
 14 15  1  0
 15 16  2  0
  2 17  1  0
 17 18  2  0
 18 19  1  0
 19 20  2  0
 20 21  1  0
 21 22  2  0
 22 23  1  0
 22 24  1  0
 24 25  2  0
 25 26  1  0
 26 27  2  0
 11  7  1  0
 16 12  1  0
 27 17  1  0
 26 20  1  0
  3 28  1  0
  4 29  1  0
  4 30  1  0
  8 31  1  0
  8 32  1  0
  9 33  1  0
  9 34  1  0
 10 35  1  0
 10 36  1  0
 11 37  1  6
 13 38  1  0
 14 39  1  0
 15 40  1  0
 18 41  1  0
 19 42  1  0
 21 43  1  0
 24 44  1  0
 25 45  1  0
M  END
>  <smiles>  (36) 
O=C(NCC(=O)N1CCC[C@H]1c1c[nH]cn1)c1ccc2cc(F)ccc2n1

>  <score_type>  (36) 
oracle

>  <origin>  (36) 
autodockgpu

>  <m_score__min__energy>  (36) 
-8.3200000000000003

>  <m_primary>  (36) 
energy

>  <rmsd>  (36) 
3.088322490157302

>  <m_score__min__rmsd>  (36) 
3.088322490157302

>  <meeko>  (36) 
{"free_energy": -8.07, "intermolecular_energy": -9.57, "internal_energy": -1.26, "cluster_size": 11, "cluster_id": 1, "rank_in_cluster": 3}

>  <energy>  (36) 
-6.6

>  <cluster_rmsd>  (36) 
0.8

>  <cluster>  (36) 
4

$$$$

     RDKit          3D

 45 48  0  0  0  0  0  0  0  0999 V2000
  139.0760   75.0150  222.6710 O   0  0  0  0  0  0  0  0  0  0  0  0
  139.9200   75.3800  221.7900 C   0  0  0  0  0  0  0  0  0  0  0  0
  139.7600   76.6540  221.1850 N   0  0  0  0  0  0  0  0  0  0  0  0
  138.6680   77.5540  221.5370 C   0  0  0  0  0  0  0  0  0  0  0  0
  139.2430   78.7170  222.2760 C   0  0  0  0  0  0  0  0  0  0  0  0
  138.6190   79.2690  223.2170 O   0  0  0  0  0  0  0  0  0  0  0  0
  140.5290   79.1890  221.8850 N   0  0  0  0  0  0  0  0  0  0  0  0
  141.8300   78.8420  222.4420 C   0  0  0  0  0  0  0  0  0  0  0  0
  142.5830   80.1510  222.3990 C   0  0  0  0  0  0  0  0  0  0  0  0
  141.7480   81.1000  221.5640 C   0  0  0  0  0  0  0  0  0  0  0  0
  140.8090   80.1420  220.8200 C   0  0  1  0  0  0  0  0  0  0  0  0
  141.6440   79.5220  219.7570 C   0  0  0  0  0  0  0  0  0  0  0  0
  142.2650   80.2510  218.7650 C   0  0  0  0  0  0  0  0  0  0  0  0
  142.9260   79.3800  217.9860 N   0  0  0  0  0  0  0  0  0  0  0  0
  142.7370   78.1340  218.4610 C   0  0  0  0  0  0  0  0  0  0  0  0
  141.9420   78.2220  219.5590 N   0  0  0  0  0  0  0  0  0  0  0  0
  141.0240   74.5040  221.4160 C   0  0  0  0  0  0  0  0  0  0  0  0
  140.8680   73.1370  221.5370 C   0  0  0  0  0  0  0  0  0  0  0  0
  141.8630   72.2380  221.2040 C   0  0  0  0  0  0  0  0  0  0  0  0
  143.0510   72.7990  220.7330 C   0  0  0  0  0  0  0  0  0  0  0  0
  144.0620   71.9050  220.3950 C   0  0  0  0  0  0  0  0  0  0  0  0
  145.2690   72.3890  219.9200 C   0  0  0  0  0  0  0  0  0  0  0  0
  146.2900   71.5490  219.5750 F   0  0  0  0  0  0  0  0  0  0  0  0
  145.4050   73.7570  219.8060 C   0  0  0  0  0  0  0  0  0  0  0  0
  144.4070   74.6490  220.1400 C   0  0  0  0  0  0  0  0  0  0  0  0
  143.2060   74.1640  220.6130 C   0  0  0  0  0  0  0  0  0  0  0  0
  142.1930   74.9980  220.9540 N   0  0  0  0  0  0  0  0  0  0  0  0
  140.4810   76.9180  220.4600 H   0  0  0  0  0  0  0  0  0  0  0  0
  138.1652   77.9047  220.6237 H   0  0  0  0  0  0  0  0  0  0  0  0
  137.9314   77.0310  222.1647 H   0  0  0  0  0  0  0  0  0  0  0  0
  141.7323   78.4767  223.4750 H   0  0  0  0  0  0  0  0  0  0  0  0
  142.3347   78.0352  221.8902 H   0  0  0  0  0  0  0  0  0  0  0  0
  142.7093   80.5504  223.4161 H   0  0  0  0  0  0  0  0  0  0  0  0
  143.5862   80.0190  221.9676 H   0  0  0  0  0  0  0  0  0  0  0  0
  141.1831   81.7979  222.1995 H   0  0  0  0  0  0  0  0  0  0  0  0
  142.3439   81.7395  220.8962 H   0  0  0  0  0  0  0  0  0  0  0  0
  139.9013   80.5553  220.3561 H   0  0  0  0  0  0  0  0  0  0  0  0
  142.2261   81.3427  218.6359 H   0  0  0  0  0  0  0  0  0  0  0  0
  143.4930   79.6780  217.1410 H   0  0  0  0  0  0  0  0  0  0  0  0
  143.1528   77.2089  218.0352 H   0  0  0  0  0  0  0  0  0  0  0  0
  139.9110   72.7475  221.9145 H   0  0  0  0  0  0  0  0  0  0  0  0
  141.7276   71.1509  221.3036 H   0  0  0  0  0  0  0  0  0  0  0  0
  143.9036   70.8220  220.5043 H   0  0  0  0  0  0  0  0  0  0  0  0
  146.3580   74.1571  219.4295 H   0  0  0  0  0  0  0  0  0  0  0  0
  144.5671   75.7318  220.0305 H   0  0  0  0  0  0  0  0  0  0  0  0
  1  2  2  0
  2  3  1  0
  3  4  1  0
  4  5  1  0
  5  6  2  0
  5  7  1  0
  7  8  1  0
  8  9  1  0
  9 10  1  0
 10 11  1  0
 11 12  1  0
 12 13  2  0
 13 14  1  0
 14 15  1  0
 15 16  2  0
  2 17  1  0
 17 18  2  0
 18 19  1  0
 19 20  2  0
 20 21  1  0
 21 22  2  0
 22 23  1  0
 22 24  1  0
 24 25  2  0
 25 26  1  0
 26 27  2  0
 11  7  1  0
 16 12  1  0
 27 17  1  0
 26 20  1  0
  3 28  1  0
  4 29  1  0
  4 30  1  0
  8 31  1  0
  8 32  1  0
  9 33  1  0
  9 34  1  0
 10 35  1  0
 10 36  1  0
 11 37  1  6
 13 38  1  0
 14 39  1  0
 15 40  1  0
 18 41  1  0
 19 42  1  0
 21 43  1  0
 24 44  1  0
 25 45  1  0
M  END
>  <smiles>  (37) 
O=C(NCC(=O)N1CCC[C@H]1c1c[nH]cn1)c1ccc2cc(F)ccc2n1

>  <score_type>  (37) 
oracle

>  <origin>  (37) 
autodockgpu

>  <m_score__min__energy>  (37) 
-8.3200000000000003

>  <m_primary>  (37) 
energy

>  <rmsd>  (37) 
6.266838831844191

>  <m_score__min__rmsd>  (37) 
6.266838831844191

>  <meeko>  (37) 
{"free_energy": -6.36, "intermolecular_energy": -7.85, "internal_energy": -2.44, "cluster_size": 24, "cluster_id": 4, "rank_in_cluster": 23}

>  <energy>  (37) 
-6.58

>  <cluster_rmsd>  (37) 
0.81

>  <cluster>  (37) 
4

$$$$

     RDKit          3D

 45 48  0  0  0  0  0  0  0  0999 V2000
  139.1030   74.8900  222.7200 O   0  0  0  0  0  0  0  0  0  0  0  0
  140.0220   75.3250  221.9530 C   0  0  0  0  0  0  0  0  0  0  0  0
  139.9700   76.6810  221.5350 N   0  0  0  0  0  0  0  0  0  0  0  0
  138.9080   77.5870  221.9530 C   0  0  0  0  0  0  0  0  0  0  0  0
  139.5280   78.7090  222.7200 C   0  0  0  0  0  0  0  0  0  0  0  0
  139.0210   79.1290  223.7900 O   0  0  0  0  0  0  0  0  0  0  0  0
  140.7190   79.2950  222.2040 N   0  0  0  0  0  0  0  0  0  0  0  0
  142.0930   79.1010  222.6510 C   0  0  0  0  0  0  0  0  0  0  0  0
  142.6980   80.4770  222.5060 C   0  0  0  0  0  0  0  0  0  0  0  0
  141.7000   81.3070  221.7240 C   0  0  0  0  0  0  0  0  0  0  0  0
  140.8050   80.2320  221.0930 C   0  0  1  0  0  0  0  0  0  0  0  0
  141.6060   79.6630  219.9760 C   0  0  0  0  0  0  0  0  0  0  0  0
  142.2250   80.4390  219.0200 C   0  0  0  0  0  0  0  0  0  0  0  0
  142.8510   79.6060  218.1740 N   0  0  0  0  0  0  0  0  0  0  0  0
  142.6410   78.3360  218.5720 C   0  0  0  0  0  0  0  0  0  0  0  0
  141.8690   78.3720  219.6900 N   0  0  0  0  0  0  0  0  0  0  0  0
  141.0990   74.4440  221.5160 C   0  0  0  0  0  0  0  0  0  0  0  0
  140.9270   73.0770  221.6060 C   0  0  0  0  0  0  0  0  0  0  0  0
  141.8970   72.1730  221.2150 C   0  0  0  0  0  0  0  0  0  0  0  0
  143.0760   72.7310  220.7180 C   0  0  0  0  0  0  0  0  0  0  0  0
  144.0610   71.8330  220.3200 C   0  0  0  0  0  0  0  0  0  0  0  0
  145.2580   72.3130  219.8160 C   0  0  0  0  0  0  0  0  0  0  0  0
  146.2550   71.4690  219.4130 F   0  0  0  0  0  0  0  0  0  0  0  0
  145.4100   73.6820  219.7350 C   0  0  0  0  0  0  0  0  0  0  0  0
  144.4380   74.5780  220.1280 C   0  0  0  0  0  0  0  0  0  0  0  0
  143.2470   74.0960  220.6290 C   0  0  0  0  0  0  0  0  0  0  0  0
  142.2590   74.9340  221.0280 N   0  0  0  0  0  0  0  0  0  0  0  0
  140.7520   77.0000  220.9000 H   0  0  0  0  0  0  0  0  0  0  0  0
  138.3869   77.9832  221.0690 H   0  0  0  0  0  0  0  0  0  0  0  0
  138.1788   77.0542  222.5810 H   0  0  0  0  0  0  0  0  0  0  0  0
  142.1239   78.7644  223.6978 H   0  0  0  0  0  0  0  0  0  0  0  0
  142.6293   78.3303  222.0779 H   0  0  0  0  0  0  0  0  0  0  0  0
  142.8692   80.9230  223.4969 H   0  0  0  0  0  0  0  0  0  0  0  0
  143.6683   80.4320  221.9897 H   0  0  0  0  0  0  0  0  0  0  0  0
  141.1226   81.9664  222.3886 H   0  0  0  0  0  0  0  0  0  0  0  0
  142.1661   81.9796  220.9889 H   0  0  0  0  0  0  0  0  0  0  0  0
  139.8222   80.5331  220.7014 H   0  0  0  0  0  0  0  0  0  0  0  0
  142.2090   81.5373  218.9612 H   0  0  0  0  0  0  0  0  0  0  0  0
  143.4100   79.9440  217.3390 H   0  0  0  0  0  0  0  0  0  0  0  0
  143.0260   77.4308  218.0796 H   0  0  0  0  0  0  0  0  0  0  0  0
  139.9778   72.6909  222.0058 H   0  0  0  0  0  0  0  0  0  0  0  0
  141.7495   71.0856  221.2905 H   0  0  0  0  0  0  0  0  0  0  0  0
  143.8903   70.7497  220.4051 H   0  0  0  0  0  0  0  0  0  0  0  0
  146.3552   74.0792  219.3364 H   0  0  0  0  0  0  0  0  0  0  0  0
  144.6102   75.6611  220.0431 H   0  0  0  0  0  0  0  0  0  0  0  0
  1  2  2  0
  2  3  1  0
  3  4  1  0
  4  5  1  0
  5  6  2  0
  5  7  1  0
  7  8  1  0
  8  9  1  0
  9 10  1  0
 10 11  1  0
 11 12  1  0
 12 13  2  0
 13 14  1  0
 14 15  1  0
 15 16  2  0
  2 17  1  0
 17 18  2  0
 18 19  1  0
 19 20  2  0
 20 21  1  0
 21 22  2  0
 22 23  1  0
 22 24  1  0
 24 25  2  0
 25 26  1  0
 26 27  2  0
 11  7  1  0
 16 12  1  0
 27 17  1  0
 26 20  1  0
  3 28  1  0
  4 29  1  0
  4 30  1  0
  8 31  1  0
  8 32  1  0
  9 33  1  0
  9 34  1  0
 10 35  1  0
 10 36  1  0
 11 37  1  6
 13 38  1  0
 14 39  1  0
 15 40  1  0
 18 41  1  0
 19 42  1  0
 21 43  1  0
 24 44  1  0
 25 45  1  0
M  END
>  <smiles>  (38) 
O=C(NCC(=O)N1CCC[C@H]1c1c[nH]cn1)c1ccc2cc(F)ccc2n1

>  <score_type>  (38) 
oracle

>  <origin>  (38) 
autodockgpu

>  <m_score__min__energy>  (38) 
-8.3200000000000003

>  <m_primary>  (38) 
energy

>  <rmsd>  (38) 
6.347988097081437

>  <m_score__min__rmsd>  (38) 
6.347988097081437

>  <meeko>  (38) 
{"free_energy": -6.49, "intermolecular_energy": -7.98, "internal_energy": -2.41, "cluster_size": 24, "cluster_id": 4, "rank_in_cluster": 18}

>  <energy>  (38) 
-6.56

>  <cluster_rmsd>  (38) 
0.81

>  <cluster>  (38) 
4

$$$$

     RDKit          3D

 45 48  0  0  0  0  0  0  0  0999 V2000
  138.8320   74.7450  222.3450 O   0  0  0  0  0  0  0  0  0  0  0  0
  139.9260   75.2470  221.9270 C   0  0  0  0  0  0  0  0  0  0  0  0
  140.0390   76.6600  221.8560 N   0  0  0  0  0  0  0  0  0  0  0  0
  138.9510   77.5510  222.2420 C   0  0  0  0  0  0  0  0  0  0  0  0
  139.5480   78.7810  222.8430 C   0  0  0  0  0  0  0  0  0  0  0  0
  139.0170   79.3530  223.8280 O   0  0  0  0  0  0  0  0  0  0  0  0
  140.7450   79.2940  222.2680 N   0  0  0  0  0  0  0  0  0  0  0  0
  142.1190   79.1150  222.7220 C   0  0  0  0  0  0  0  0  0  0  0  0
  142.7490   80.4600  222.4480 C   0  0  0  0  0  0  0  0  0  0  0  0
  141.7600   81.2340  221.6000 C   0  0  0  0  0  0  0  0  0  0  0  0
  140.8400   80.1240  221.0760 C   0  0  1  0  0  0  0  0  0  0  0  0
  141.6210   79.4400  220.0100 C   0  0  0  0  0  0  0  0  0  0  0  0
  142.2480   80.1140  218.9840 C   0  0  0  0  0  0  0  0  0  0  0  0
  142.8500   79.1950  218.2130 N   0  0  0  0  0  0  0  0  0  0  0  0
  142.6190   77.9710  218.7270 C   0  0  0  0  0  0  0  0  0  0  0  0
  141.8560   78.1230  219.8410 N   0  0  0  0  0  0  0  0  0  0  0  0
  141.0330   74.3840  221.5330 C   0  0  0  0  0  0  0  0  0  0  0  0
  140.8500   73.0160  221.5280 C   0  0  0  0  0  0  0  0  0  0  0  0
  141.8460   72.1280  221.1680 C   0  0  0  0  0  0  0  0  0  0  0  0
  143.0650   72.7030  220.8060 C   0  0  0  0  0  0  0  0  0  0  0  0
  144.0780   71.8220  220.4420 C   0  0  0  0  0  0  0  0  0  0  0  0
  145.3150   72.3200  220.0710 C   0  0  0  0  0  0  0  0  0  0  0  0
  146.3390   71.4920  219.7050 F   0  0  0  0  0  0  0  0  0  0  0  0
  145.4790   73.6890  220.0840 C   0  0  0  0  0  0  0  0  0  0  0  0
  144.4790   74.5690  220.4440 C   0  0  0  0  0  0  0  0  0  0  0  0
  143.2480   74.0700  220.8120 C   0  0  0  0  0  0  0  0  0  0  0  0
  142.2330   74.8920  221.1750 N   0  0  0  0  0  0  0  0  0  0  0  0
  140.9620   77.0350  221.5050 H   0  0  0  0  0  0  0  0  0  0  0  0
  138.3572   77.8197  221.3559 H   0  0  0  0  0  0  0  0  0  0  0  0
  138.2916   77.0539  222.9687 H   0  0  0  0  0  0  0  0  0  0  0  0
  142.1521   78.8748  223.7949 H   0  0  0  0  0  0  0  0  0  0  0  0
  142.6359   78.2850  222.2181 H   0  0  0  0  0  0  0  0  0  0  0  0
  142.9368   80.9912  223.3928 H   0  0  0  0  0  0  0  0  0  0  0  0
  143.7141   80.3493  221.9320 H   0  0  0  0  0  0  0  0  0  0  0  0
  141.2006   81.9624  222.2054 H   0  0  0  0  0  0  0  0  0  0  0  0
  142.2325   81.8273  220.8033 H   0  0  0  0  0  0  0  0  0  0  0  0
  139.8598   80.4074  220.6651 H   0  0  0  0  0  0  0  0  0  0  0  0
  142.2539   81.2026  218.8264 H   0  0  0  0  0  0  0  0  0  0  0  0
  143.4090   79.4440  217.3480 H   0  0  0  0  0  0  0  0  0  0  0  0
  142.9836   77.0175  218.3173 H   0  0  0  0  0  0  0  0  0  0  0  0
  139.8691   72.6152  221.8233 H   0  0  0  0  0  0  0  0  0  0  0  0
  141.6882   71.0394  221.1669 H   0  0  0  0  0  0  0  0  0  0  0  0
  143.8973   70.7370  220.4489 H   0  0  0  0  0  0  0  0  0  0  0  0
  146.4566   74.1005  219.7926 H   0  0  0  0  0  0  0  0  0  0  0  0
  144.6617   75.6537  220.4374 H   0  0  0  0  0  0  0  0  0  0  0  0
  1  2  2  0
  2  3  1  0
  3  4  1  0
  4  5  1  0
  5  6  2  0
  5  7  1  0
  7  8  1  0
  8  9  1  0
  9 10  1  0
 10 11  1  0
 11 12  1  0
 12 13  2  0
 13 14  1  0
 14 15  1  0
 15 16  2  0
  2 17  1  0
 17 18  2  0
 18 19  1  0
 19 20  2  0
 20 21  1  0
 21 22  2  0
 22 23  1  0
 22 24  1  0
 24 25  2  0
 25 26  1  0
 26 27  2  0
 11  7  1  0
 16 12  1  0
 27 17  1  0
 26 20  1  0
  3 28  1  0
  4 29  1  0
  4 30  1  0
  8 31  1  0
  8 32  1  0
  9 33  1  0
  9 34  1  0
 10 35  1  0
 10 36  1  0
 11 37  1  6
 13 38  1  0
 14 39  1  0
 15 40  1  0
 18 41  1  0
 19 42  1  0
 21 43  1  0
 24 44  1  0
 25 45  1  0
M  END
>  <smiles>  (39) 
O=C(NCC(=O)N1CCC[C@H]1c1c[nH]cn1)c1ccc2cc(F)ccc2n1

>  <score_type>  (39) 
oracle

>  <origin>  (39) 
autodockgpu

>  <m_score__min__energy>  (39) 
-8.3200000000000003

>  <m_primary>  (39) 
energy

>  <rmsd>  (39) 
6.26249421465851

>  <m_score__min__rmsd>  (39) 
6.26249421465851

>  <meeko>  (39) 
{"free_energy": -6.67, "intermolecular_energy": -8.16, "internal_energy": -2.48, "cluster_size": 24, "cluster_id": 4, "rank_in_cluster": 3}

>  <energy>  (39) 
-6.54

>  <cluster_rmsd>  (39) 
0.78

>  <cluster>  (39) 
4

$$$$

     RDKit          3D

 45 48  0  0  0  0  0  0  0  0999 V2000
  138.8590   74.7490  222.3880 O   0  0  0  0  0  0  0  0  0  0  0  0
  139.9180   75.2470  221.8870 C   0  0  0  0  0  0  0  0  0  0  0  0
  139.9910   76.6550  221.7170 N   0  0  0  0  0  0  0  0  0  0  0  0
  138.8990   77.5440  222.0950 C   0  0  0  0  0  0  0  0  0  0  0  0
  139.4840   78.7330  222.7830 C   0  0  0  0  0  0  0  0  0  0  0  0
  138.9540   79.2210  223.8120 O   0  0  0  0  0  0  0  0  0  0  0  0
  140.6700   79.3050  222.2390 N   0  0  0  0  0  0  0  0  0  0  0  0
  142.0460   79.1440  222.6940 C   0  0  0  0  0  0  0  0  0  0  0  0
  142.6390   80.5170  222.4850 C   0  0  0  0  0  0  0  0  0  0  0  0
  141.6340   81.3000  221.6650 C   0  0  0  0  0  0  0  0  0  0  0  0
  140.7490   80.1900  221.0860 C   0  0  1  0  0  0  0  0  0  0  0  0
  141.5540   79.5760  219.9960 C   0  0  0  0  0  0  0  0  0  0  0  0
  142.2070   80.3150  219.0330 C   0  0  0  0  0  0  0  0  0  0  0  0
  142.8270   79.4470  218.2180 N   0  0  0  0  0  0  0  0  0  0  0  0
  142.5820   78.1930  218.6430 C   0  0  0  0  0  0  0  0  0  0  0  0
  141.7920   78.2720  219.7450 N   0  0  0  0  0  0  0  0  0  0  0  0
  141.0280   74.3850  221.4980 C   0  0  0  0  0  0  0  0  0  0  0  0
  140.8440   73.0170  221.4840 C   0  0  0  0  0  0  0  0  0  0  0  0
  141.8420   72.1300  221.1280 C   0  0  0  0  0  0  0  0  0  0  0  0
  143.0650   72.7060  220.7800 C   0  0  0  0  0  0  0  0  0  0  0  0
  144.0800   71.8260  220.4200 C   0  0  0  0  0  0  0  0  0  0  0  0
  145.3210   72.3250  220.0630 C   0  0  0  0  0  0  0  0  0  0  0  0
  146.3480   71.4980  219.7020 F   0  0  0  0  0  0  0  0  0  0  0  0
  145.4860   73.6950  220.0840 C   0  0  0  0  0  0  0  0  0  0  0  0
  144.4840   74.5730  220.4400 C   0  0  0  0  0  0  0  0  0  0  0  0
  143.2490   74.0730  220.7950 C   0  0  0  0  0  0  0  0  0  0  0  0
  142.2310   74.8940  221.1530 N   0  0  0  0  0  0  0  0  0  0  0  0
  140.8860   77.0260  221.2980 H   0  0  0  0  0  0  0  0  0  0  0  0
  138.3520   77.8652  221.1964 H   0  0  0  0  0  0  0  0  0  0  0  0
  138.1988   77.0232  222.7647 H   0  0  0  0  0  0  0  0  0  0  0  0
  142.0799   78.8567  223.7553 H   0  0  0  0  0  0  0  0  0  0  0  0
  142.5890   78.3523  222.1570 H   0  0  0  0  0  0  0  0  0  0  0  0
  142.8056   81.0104  223.4539 H   0  0  0  0  0  0  0  0  0  0  0  0
  143.6101   80.4567  221.9718 H   0  0  0  0  0  0  0  0  0  0  0  0
  141.0508   81.9851  222.2979 H   0  0  0  0  0  0  0  0  0  0  0  0
  142.0945   81.9409  220.8987 H   0  0  0  0  0  0  0  0  0  0  0  0
  139.7637   80.4647  220.6813 H   0  0  0  0  0  0  0  0  0  0  0  0
  142.2180   81.4117  218.9481 H   0  0  0  0  0  0  0  0  0  0  0  0
  143.4070   79.7520  217.3840 H   0  0  0  0  0  0  0  0  0  0  0  0
  142.9557   77.2680  218.1796 H   0  0  0  0  0  0  0  0  0  0  0  0
  139.8602   72.6155  221.7686 H   0  0  0  0  0  0  0  0  0  0  0  0
  141.6831   71.0416  221.1194 H   0  0  0  0  0  0  0  0  0  0  0  0
  143.8980   70.7412  220.4189 H   0  0  0  0  0  0  0  0  0  0  0  0
  146.4662   74.1074  219.8026 H   0  0  0  0  0  0  0  0  0  0  0  0
  144.6675   75.6576  220.4408 H   0  0  0  0  0  0  0  0  0  0  0  0
  1  2  2  0
  2  3  1  0
  3  4  1  0
  4  5  1  0
  5  6  2  0
  5  7  1  0
  7  8  1  0
  8  9  1  0
  9 10  1  0
 10 11  1  0
 11 12  1  0
 12 13  2  0
 13 14  1  0
 14 15  1  0
 15 16  2  0
  2 17  1  0
 17 18  2  0
 18 19  1  0
 19 20  2  0
 20 21  1  0
 21 22  2  0
 22 23  1  0
 22 24  1  0
 24 25  2  0
 25 26  1  0
 26 27  2  0
 11  7  1  0
 16 12  1  0
 27 17  1  0
 26 20  1  0
  3 28  1  0
  4 29  1  0
  4 30  1  0
  8 31  1  0
  8 32  1  0
  9 33  1  0
  9 34  1  0
 10 35  1  0
 10 36  1  0
 11 37  1  6
 13 38  1  0
 14 39  1  0
 15 40  1  0
 18 41  1  0
 19 42  1  0
 21 43  1  0
 24 44  1  0
 25 45  1  0
M  END
>  <smiles>  (40) 
O=C(NCC(=O)N1CCC[C@H]1c1c[nH]cn1)c1ccc2cc(F)ccc2n1

>  <score_type>  (40) 
oracle

>  <origin>  (40) 
autodockgpu

>  <m_score__min__energy>  (40) 
-8.3200000000000003

>  <m_primary>  (40) 
energy

>  <rmsd>  (40) 
6.269563871095059

>  <m_score__min__rmsd>  (40) 
6.269563871095059

>  <meeko>  (40) 
{"free_energy": -6.64, "intermolecular_energy": -8.13, "internal_energy": -2.42, "cluster_size": 24, "cluster_id": 4, "rank_in_cluster": 6}

>  <energy>  (40) 
-6.54

>  <cluster_rmsd>  (40) 
0.79

>  <cluster>  (40) 
4

$$$$

     RDKit          3D

 45 48  0  0  0  0  0  0  0  0999 V2000
  139.9500   73.7630  222.4500 O   0  0  0  0  0  0  0  0  0  0  0  0
  140.2450   74.4390  221.4120 C   0  0  0  0  0  0  0  0  0  0  0  0
  140.3250   73.7660  220.1650 N   0  0  0  0  0  0  0  0  0  0  0  0
  140.0820   72.3350  220.0330 C   0  0  0  0  0  0  0  0  0  0  0  0
  141.3970   71.6300  220.1100 C   0  0  0  0  0  0  0  0  0  0  0  0
  141.4790   70.4360  220.4910 O   0  0  0  0  0  0  0  0  0  0  0  0
  142.5660   72.3530  219.7380 N   0  0  0  0  0  0  0  0  0  0  0  0
  143.3910   72.1930  218.5460 C   0  0  0  0  0  0  0  0  0  0  0  0
  144.7920   72.4110  219.0650 C   0  0  0  0  0  0  0  0  0  0  0  0
  144.6490   72.9530  220.4730 C   0  0  0  0  0  0  0  0  0  0  0  0
  143.1910   73.4290  220.4940 C   0  0  1  0  0  0  0  0  0  0  0  0
  143.1830   74.7000  219.7210 C   0  0  0  0  0  0  0  0  0  0  0  0
  143.9250   75.8040  220.0790 C   0  0  0  0  0  0  0  0  0  0  0  0
  143.6790   76.7610  219.1690 N   0  0  0  0  0  0  0  0  0  0  0  0
  142.8080   76.2870  218.2570 C   0  0  0  0  0  0  0  0  0  0  0  0
  142.5000   75.0080  218.6000 N   0  0  0  0  0  0  0  0  0  0  0  0
  140.4940   75.8730  221.5100 C   0  0  0  0  0  0  0  0  0  0  0  0
  140.1780   76.6850  220.4390 C   0  0  0  0  0  0  0  0  0  0  0  0
  140.3810   78.0520  220.4500 C   0  0  0  0  0  0  0  0  0  0  0  0
  140.9320   78.5700  221.6220 C   0  0  0  0  0  0  0  0  0  0  0  0
  141.1430   79.9450  221.6470 C   0  0  0  0  0  0  0  0  0  0  0  0
  141.6870   80.5310  222.7770 C   0  0  0  0  0  0  0  0  0  0  0  0
  141.9130   81.8770  222.8470 F   0  0  0  0  0  0  0  0  0  0  0  0
  141.9970   79.7030  223.8360 C   0  0  0  0  0  0  0  0  0  0  0  0
  141.7910   78.3390  223.8180 C   0  0  0  0  0  0  0  0  0  0  0  0
  141.2480   77.7590  222.6910 C   0  0  0  0  0  0  0  0  0  0  0  0
  141.0260   76.4240  222.6230 N   0  0  0  0  0  0  0  0  0  0  0  0
  140.5720   74.3640  219.3300 H   0  0  0  0  0  0  0  0  0  0  0  0
  139.4270   71.9917  220.8473 H   0  0  0  0  0  0  0  0  0  0  0  0
  139.5907   72.1197  219.0727 H   0  0  0  0  0  0  0  0  0  0  0  0
  143.2799   71.1842  218.1218 H   0  0  0  0  0  0  0  0  0  0  0  0
  143.1181   72.8855  217.7361 H   0  0  0  0  0  0  0  0  0  0  0  0
  145.3448   71.4601  219.0780 H   0  0  0  0  0  0  0  0  0  0  0  0
  145.3497   73.1098  218.4242 H   0  0  0  0  0  0  0  0  0  0  0  0
  144.8220   72.1663  221.2221 H   0  0  0  0  0  0  0  0  0  0  0  0
  145.3739   73.7438  220.7161 H   0  0  0  0  0  0  0  0  0  0  0  0
  142.7134   73.6095  221.4684 H   0  0  0  0  0  0  0  0  0  0  0  0
  144.5942   75.8865  220.9481 H   0  0  0  0  0  0  0  0  0  0  0  0
  144.1260   77.7220  219.2070 H   0  0  0  0  0  0  0  0  0  0  0  0
  142.4157   76.8371  217.3890 H   0  0  0  0  0  0  0  0  0  0  0  0
  139.7461   76.2242  219.5384 H   0  0  0  0  0  0  0  0  0  0  0  0
  140.1249   78.6896  219.5910 H   0  0  0  0  0  0  0  0  0  0  0  0
  140.8795   80.5619  220.7752 H   0  0  0  0  0  0  0  0  0  0  0  0
  142.4306   80.1534  224.7411 H   0  0  0  0  0  0  0  0  0  0  0  0
  142.0561   77.7231  224.6900 H   0  0  0  0  0  0  0  0  0  0  0  0
  1  2  2  0
  2  3  1  0
  3  4  1  0
  4  5  1  0
  5  6  2  0
  5  7  1  0
  7  8  1  0
  8  9  1  0
  9 10  1  0
 10 11  1  0
 11 12  1  0
 12 13  2  0
 13 14  1  0
 14 15  1  0
 15 16  2  0
  2 17  1  0
 17 18  2  0
 18 19  1  0
 19 20  2  0
 20 21  1  0
 21 22  2  0
 22 23  1  0
 22 24  1  0
 24 25  2  0
 25 26  1  0
 26 27  2  0
 11  7  1  0
 16 12  1  0
 27 17  1  0
 26 20  1  0
  3 28  1  0
  4 29  1  0
  4 30  1  0
  8 31  1  0
  8 32  1  0
  9 33  1  0
  9 34  1  0
 10 35  1  0
 10 36  1  0
 11 37  1  1
 13 38  1  0
 14 39  1  0
 15 40  1  0
 18 41  1  0
 19 42  1  0
 21 43  1  0
 24 44  1  0
 25 45  1  0
M  END
>  <smiles>  (41) 
O=C(NCC(=O)N1CCC[C@H]1c1c[nH]cn1)c1ccc2cc(F)ccc2n1

>  <score_type>  (41) 
oracle

>  <origin>  (41) 
autodockgpu

>  <m_score__min__energy>  (41) 
-8.3200000000000003

>  <m_primary>  (41) 
energy

>  <rmsd>  (41) 
7.439152412138846

>  <m_score__min__rmsd>  (41) 
7.439152412138846

>  <meeko>  (41) 
{"free_energy": -5.86, "intermolecular_energy": -7.35, "internal_energy": -2.62, "cluster_size": 1, "cluster_id": 5, "rank_in_cluster": 1}

>  <energy>  (41) 
-6.52

>  <cluster_rmsd>  (41) 
0.84

>  <cluster>  (41) 
4

$$$$

     RDKit          3D

 45 48  0  0  0  0  0  0  0  0999 V2000
  138.8170   74.7510  222.3150 O   0  0  0  0  0  0  0  0  0  0  0  0
  139.9340   75.2540  221.9650 C   0  0  0  0  0  0  0  0  0  0  0  0
  140.0710   76.6670  221.9680 N   0  0  0  0  0  0  0  0  0  0  0  0
  138.9830   77.5560  222.3570 C   0  0  0  0  0  0  0  0  0  0  0  0
  139.5800   78.8000  222.9270 C   0  0  0  0  0  0  0  0  0  0  0  0
  139.0780   79.3680  223.9300 O   0  0  0  0  0  0  0  0  0  0  0  0
  140.7430   79.3320  222.3010 N   0  0  0  0  0  0  0  0  0  0  0  0
  142.1310   79.2450  222.7400 C   0  0  0  0  0  0  0  0  0  0  0  0
  142.6930   80.5980  222.3760 C   0  0  0  0  0  0  0  0  0  0  0  0
  141.6560   81.2730  221.5000 C   0  0  0  0  0  0  0  0  0  0  0  0
  140.7820   80.0930  221.0600 C   0  0  1  0  0  0  0  0  0  0  0  0
  141.5770   79.3820  220.0230 C   0  0  0  0  0  0  0  0  0  0  0  0
  142.2040   80.0280  218.9800 C   0  0  0  0  0  0  0  0  0  0  0  0
  142.8220   79.0910  218.2440 N   0  0  0  0  0  0  0  0  0  0  0  0
  142.6000   77.8820  218.7970 C   0  0  0  0  0  0  0  0  0  0  0  0
  141.8280   78.0630  219.9000 N   0  0  0  0  0  0  0  0  0  0  0  0
  141.0420   74.3920  221.5700 C   0  0  0  0  0  0  0  0  0  0  0  0
  140.8670   73.0230  221.5850 C   0  0  0  0  0  0  0  0  0  0  0  0
  141.8640   72.1360  221.2260 C   0  0  0  0  0  0  0  0  0  0  0  0
  143.0760   72.7140  220.8430 C   0  0  0  0  0  0  0  0  0  0  0  0
  144.0900   71.8340  220.4790 C   0  0  0  0  0  0  0  0  0  0  0  0
  145.3190   72.3340  220.0880 C   0  0  0  0  0  0  0  0  0  0  0  0
  146.3450   71.5080  219.7220 F   0  0  0  0  0  0  0  0  0  0  0  0
  145.4750   73.7050  220.0800 C   0  0  0  0  0  0  0  0  0  0  0  0
  144.4740   74.5840  220.4400 C   0  0  0  0  0  0  0  0  0  0  0  0
  143.2500   74.0820  220.8290 C   0  0  0  0  0  0  0  0  0  0  0  0
  142.2340   74.9020  221.1920 N   0  0  0  0  0  0  0  0  0  0  0  0
  141.0120   77.0420  221.6710 H   0  0  0  0  0  0  0  0  0  0  0  0
  138.3726   77.8052  221.4765 H   0  0  0  0  0  0  0  0  0  0  0  0
  138.3397   77.0663  223.1029 H   0  0  0  0  0  0  0  0  0  0  0  0
  142.1916   79.0714  223.8245 H   0  0  0  0  0  0  0  0  0  0  0  0
  142.6788   78.4113  222.2764 H   0  0  0  0  0  0  0  0  0  0  0  0
  142.8690   81.1933  223.2841 H   0  0  0  0  0  0  0  0  0  0  0  0
  143.6550   80.5012  221.8513 H   0  0  0  0  0  0  0  0  0  0  0  0
  141.0720   82.0105  222.0702 H   0  0  0  0  0  0  0  0  0  0  0  0
  142.0885   81.8377  220.6609 H   0  0  0  0  0  0  0  0  0  0  0  0
  139.7837   80.3067  220.6505 H   0  0  0  0  0  0  0  0  0  0  0  0
  142.1990   81.1108  218.7864 H   0  0  0  0  0  0  0  0  0  0  0  0
  143.3850   79.3170  217.3750 H   0  0  0  0  0  0  0  0  0  0  0  0
  142.9772   76.9193  218.4216 H   0  0  0  0  0  0  0  0  0  0  0  0
  139.8917   72.6206  221.8962 H   0  0  0  0  0  0  0  0  0  0  0  0
  141.7128   71.0465  221.2410 H   0  0  0  0  0  0  0  0  0  0  0  0
  143.9157   70.7481  220.5020 H   0  0  0  0  0  0  0  0  0  0  0  0
  146.4465   74.1182  219.7710 H   0  0  0  0  0  0  0  0  0  0  0  0
  144.6499   75.6696  220.4170 H   0  0  0  0  0  0  0  0  0  0  0  0
  1  2  2  0
  2  3  1  0
  3  4  1  0
  4  5  1  0
  5  6  2  0
  5  7  1  0
  7  8  1  0
  8  9  1  0
  9 10  1  0
 10 11  1  0
 11 12  1  0
 12 13  2  0
 13 14  1  0
 14 15  1  0
 15 16  2  0
  2 17  1  0
 17 18  2  0
 18 19  1  0
 19 20  2  0
 20 21  1  0
 21 22  2  0
 22 23  1  0
 22 24  1  0
 24 25  2  0
 25 26  1  0
 26 27  2  0
 11  7  1  0
 16 12  1  0
 27 17  1  0
 26 20  1  0
  3 28  1  0
  4 29  1  0
  4 30  1  0
  8 31  1  0
  8 32  1  0
  9 33  1  0
  9 34  1  0
 10 35  1  0
 10 36  1  0
 11 37  1  6
 13 38  1  0
 14 39  1  0
 15 40  1  0
 18 41  1  0
 19 42  1  0
 21 43  1  0
 24 44  1  0
 25 45  1  0
M  END
>  <smiles>  (42) 
O=C(NCC(=O)N1CCC[C@H]1c1c[nH]cn1)c1ccc2cc(F)ccc2n1

>  <score_type>  (42) 
oracle

>  <origin>  (42) 
autodockgpu

>  <m_score__min__energy>  (42) 
-8.3200000000000003

>  <m_primary>  (42) 
energy

>  <rmsd>  (42) 
6.268212610795039

>  <m_score__min__rmsd>  (42) 
6.268212610795039

>  <meeko>  (42) 
{"free_energy": -6.62, "intermolecular_energy": -8.11, "internal_energy": -2.47, "cluster_size": 24, "cluster_id": 4, "rank_in_cluster": 10}

>  <energy>  (42) 
-6.5

>  <cluster_rmsd>  (42) 
0.84

>  <cluster>  (42) 
4

$$$$

     RDKit          3D

 45 48  0  0  0  0  0  0  0  0999 V2000
  139.0760   74.9010  222.6880 O   0  0  0  0  0  0  0  0  0  0  0  0
  139.9860   75.3370  221.9110 C   0  0  0  0  0  0  0  0  0  0  0  0
  139.9090   76.6820  221.4640 N   0  0  0  0  0  0  0  0  0  0  0  0
  138.8290   77.5760  221.8640 C   0  0  0  0  0  0  0  0  0  0  0  0
  139.4260   78.7200  222.6160 C   0  0  0  0  0  0  0  0  0  0  0  0
  138.8810   79.1810  223.6500 O   0  0  0  0  0  0  0  0  0  0  0  0
  140.6420   79.2800  222.1280 N   0  0  0  0  0  0  0  0  0  0  0  0
  141.9990   79.0710  222.6180 C   0  0  0  0  0  0  0  0  0  0  0  0
  142.6300   80.4350  222.4740 C   0  0  0  0  0  0  0  0  0  0  0  0
  141.6690   81.2700  221.6520 C   0  0  0  0  0  0  0  0  0  0  0  0
  140.7760   80.2020  221.0080 C   0  0  1  0  0  0  0  0  0  0  0  0
  141.6000   79.6050  219.9230 C   0  0  0  0  0  0  0  0  0  0  0  0
  142.2480   80.3580  218.9670 C   0  0  0  0  0  0  0  0  0  0  0  0
  142.8880   79.5050  218.1540 N   0  0  0  0  0  0  0  0  0  0  0  0
  142.6610   78.2440  218.5720 C   0  0  0  0  0  0  0  0  0  0  0  0
  141.8620   78.3070  219.6690 N   0  0  0  0  0  0  0  0  0  0  0  0
  141.0800   74.4670  221.4920 C   0  0  0  0  0  0  0  0  0  0  0  0
  140.9250   73.0990  221.5880 C   0  0  0  0  0  0  0  0  0  0  0  0
  141.9110   72.2060  221.2130 C   0  0  0  0  0  0  0  0  0  0  0  0
  143.0880   72.7760  220.7270 C   0  0  0  0  0  0  0  0  0  0  0  0
  144.0900   71.8890  220.3470 C   0  0  0  0  0  0  0  0  0  0  0  0
  145.2860   72.3820  219.8550 C   0  0  0  0  0  0  0  0  0  0  0  0
  146.2990   71.5480  219.4690 F   0  0  0  0  0  0  0  0  0  0  0  0
  145.4220   73.7520  219.7670 C   0  0  0  0  0  0  0  0  0  0  0  0
  144.4330   74.6370  220.1430 C   0  0  0  0  0  0  0  0  0  0  0  0
  143.2430   74.1430  220.6320 C   0  0  0  0  0  0  0  0  0  0  0  0
  142.2390   74.9700  221.0150 N   0  0  0  0  0  0  0  0  0  0  0  0
  140.6830   77.0020  220.8220 H   0  0  0  0  0  0  0  0  0  0  0  0
  138.3048   77.9495  220.9719 H   0  0  0  0  0  0  0  0  0  0  0  0
  138.1064   77.0402  222.4971 H   0  0  0  0  0  0  0  0  0  0  0  0
  141.9936   78.7476  223.6694 H   0  0  0  0  0  0  0  0  0  0  0  0
  142.5397   78.2849  222.0705 H   0  0  0  0  0  0  0  0  0  0  0  0
  142.7787   80.8912  223.4638 H   0  0  0  0  0  0  0  0  0  0  0  0
  143.6145   80.3681  221.9878 H   0  0  0  0  0  0  0  0  0  0  0  0
  141.0828   81.9470  222.2907 H   0  0  0  0  0  0  0  0  0  0  0  0
  142.1678   81.9252  220.9226 H   0  0  0  0  0  0  0  0  0  0  0  0
  139.8106   80.5145  220.5834 H   0  0  0  0  0  0  0  0  0  0  0  0
  142.2413   81.4550  218.8861 H   0  0  0  0  0  0  0  0  0  0  0  0
  143.4700   79.8220  217.3260 H   0  0  0  0  0  0  0  0  0  0  0  0
  143.0529   77.3270  218.1076 H   0  0  0  0  0  0  0  0  0  0  0  0
  139.9766   72.7026  221.9795 H   0  0  0  0  0  0  0  0  0  0  0  0
  141.7765   71.1172  221.2925 H   0  0  0  0  0  0  0  0  0  0  0  0
  143.9329   70.8040  220.4369 H   0  0  0  0  0  0  0  0  0  0  0  0
  146.3667   74.1591  219.3774 H   0  0  0  0  0  0  0  0  0  0  0  0
  144.5919   75.7218  220.0538 H   0  0  0  0  0  0  0  0  0  0  0  0
  1  2  2  0
  2  3  1  0
  3  4  1  0
  4  5  1  0
  5  6  2  0
  5  7  1  0
  7  8  1  0
  8  9  1  0
  9 10  1  0
 10 11  1  0
 11 12  1  0
 12 13  2  0
 13 14  1  0
 14 15  1  0
 15 16  2  0
  2 17  1  0
 17 18  2  0
 18 19  1  0
 19 20  2  0
 20 21  1  0
 21 22  2  0
 22 23  1  0
 22 24  1  0
 24 25  2  0
 25 26  1  0
 26 27  2  0
 11  7  1  0
 16 12  1  0
 27 17  1  0
 26 20  1  0
  3 28  1  0
  4 29  1  0
  4 30  1  0
  8 31  1  0
  8 32  1  0
  9 33  1  0
  9 34  1  0
 10 35  1  0
 10 36  1  0
 11 37  1  6
 13 38  1  0
 14 39  1  0
 15 40  1  0
 18 41  1  0
 19 42  1  0
 21 43  1  0
 24 44  1  0
 25 45  1  0
M  END
>  <smiles>  (43) 
O=C(NCC(=O)N1CCC[C@H]1c1c[nH]cn1)c1ccc2cc(F)ccc2n1

>  <score_type>  (43) 
oracle

>  <origin>  (43) 
autodockgpu

>  <m_score__min__energy>  (43) 
-8.3200000000000003

>  <m_primary>  (43) 
energy

>  <rmsd>  (43) 
6.333474199272998

>  <m_score__min__rmsd>  (43) 
6.333474199272998

>  <meeko>  (43) 
{"free_energy": -6.46, "intermolecular_energy": -7.95, "internal_energy": -2.44, "cluster_size": 24, "cluster_id": 4, "rank_in_cluster": 20}

>  <energy>  (43) 
-6.49

>  <cluster_rmsd>  (43) 
0.7

>  <cluster>  (43) 
4

$$$$

     RDKit          3D

 45 48  0  0  0  0  0  0  0  0999 V2000
  138.7550   74.7400  222.3540 O   0  0  0  0  0  0  0  0  0  0  0  0
  139.8490   75.2640  221.9630 C   0  0  0  0  0  0  0  0  0  0  0  0
  139.9460   76.6790  221.9230 N   0  0  0  0  0  0  0  0  0  0  0  0
  138.8430   77.5490  222.3120 C   0  0  0  0  0  0  0  0  0  0  0  0
  139.4180   78.8210  222.8430 C   0  0  0  0  0  0  0  0  0  0  0  0
  138.8310   79.4830  223.7350 O   0  0  0  0  0  0  0  0  0  0  0  0
  140.6610   79.2680  222.3100 N   0  0  0  0  0  0  0  0  0  0  0  0
  142.0080   78.9820  222.7870 C   0  0  0  0  0  0  0  0  0  0  0  0
  142.7340   80.2880  222.5690 C   0  0  0  0  0  0  0  0  0  0  0  0
  141.8200   81.1530  221.7250 C   0  0  0  0  0  0  0  0  0  0  0  0
  140.8390   80.1250  221.1470 C   0  0  1  0  0  0  0  0  0  0  0  0
  141.5960   79.4220  220.0760 C   0  0  0  0  0  0  0  0  0  0  0  0
  142.2020   80.0770  219.0260 C   0  0  0  0  0  0  0  0  0  0  0  0
  142.7870   79.1440  218.2590 N   0  0  0  0  0  0  0  0  0  0  0  0
  142.5640   77.9290  218.7970 C   0  0  0  0  0  0  0  0  0  0  0  0
  141.8260   78.1020  219.9250 N   0  0  0  0  0  0  0  0  0  0  0  0
  140.9710   74.4210  221.5670 C   0  0  0  0  0  0  0  0  0  0  0  0
  140.8180   73.0490  221.5780 C   0  0  0  0  0  0  0  0  0  0  0  0
  141.8310   72.1800  221.2170 C   0  0  0  0  0  0  0  0  0  0  0  0
  143.0330   72.7780  220.8380 C   0  0  0  0  0  0  0  0  0  0  0  0
  144.0620   71.9160  220.4730 C   0  0  0  0  0  0  0  0  0  0  0  0
  145.2830   72.4380  220.0840 C   0  0  0  0  0  0  0  0  0  0  0  0
  146.3230   71.6290  219.7170 F   0  0  0  0  0  0  0  0  0  0  0  0
  145.4160   73.8110  220.0810 C   0  0  0  0  0  0  0  0  0  0  0  0
  144.4010   74.6720  220.4420 C   0  0  0  0  0  0  0  0  0  0  0  0
  143.1850   74.1490  220.8280 C   0  0  0  0  0  0  0  0  0  0  0  0
  142.1550   74.9520  221.1920 N   0  0  0  0  0  0  0  0  0  0  0  0
  140.8700   77.0710  221.5940 H   0  0  0  0  0  0  0  0  0  0  0  0
  138.2107   77.7625  221.4376 H   0  0  0  0  0  0  0  0  0  0  0  0
  138.2261   77.0605  223.0806 H   0  0  0  0  0  0  0  0  0  0  0  0
  141.9996   78.7081  223.8523 H   0  0  0  0  0  0  0  0  0  0  0  0
  142.4790   78.1340  222.2683 H   0  0  0  0  0  0  0  0  0  0  0  0
  142.9353   80.7765  223.5338 H   0  0  0  0  0  0  0  0  0  0  0  0
  143.7012   80.1269  222.0704 H   0  0  0  0  0  0  0  0  0  0  0  0
  141.2975   81.8997  222.3409 H   0  0  0  0  0  0  0  0  0  0  0  0
  142.3502   81.7359  220.9575 H   0  0  0  0  0  0  0  0  0  0  0  0
  139.8898   80.4868  220.7250 H   0  0  0  0  0  0  0  0  0  0  0  0
  142.2056   81.1627  218.8493 H   0  0  0  0  0  0  0  0  0  0  0  0
  143.3270   79.3780  217.3770 H   0  0  0  0  0  0  0  0  0  0  0  0
  142.9166   76.9678  218.3947 H   0  0  0  0  0  0  0  0  0  0  0  0
  139.8492   72.6295  221.8870 H   0  0  0  0  0  0  0  0  0  0  0  0
  141.6978   71.0882  221.2279 H   0  0  0  0  0  0  0  0  0  0  0  0
  143.9062   70.8273  220.4935 H   0  0  0  0  0  0  0  0  0  0  0  0
  146.3811   74.2411  219.7750 H   0  0  0  0  0  0  0  0  0  0  0  0
  144.5592   75.7604  220.4223 H   0  0  0  0  0  0  0  0  0  0  0  0
  1  2  2  0
  2  3  1  0
  3  4  1  0
  4  5  1  0
  5  6  2  0
  5  7  1  0
  7  8  1  0
  8  9  1  0
  9 10  1  0
 10 11  1  0
 11 12  1  0
 12 13  2  0
 13 14  1  0
 14 15  1  0
 15 16  2  0
  2 17  1  0
 17 18  2  0
 18 19  1  0
 19 20  2  0
 20 21  1  0
 21 22  2  0
 22 23  1  0
 22 24  1  0
 24 25  2  0
 25 26  1  0
 26 27  2  0
 11  7  1  0
 16 12  1  0
 27 17  1  0
 26 20  1  0
  3 28  1  0
  4 29  1  0
  4 30  1  0
  8 31  1  0
  8 32  1  0
  9 33  1  0
  9 34  1  0
 10 35  1  0
 10 36  1  0
 11 37  1  6
 13 38  1  0
 14 39  1  0
 15 40  1  0
 18 41  1  0
 19 42  1  0
 21 43  1  0
 24 44  1  0
 25 45  1  0
M  END
>  <smiles>  (44) 
O=C(NCC(=O)N1CCC[C@H]1c1c[nH]cn1)c1ccc2cc(F)ccc2n1

>  <score_type>  (44) 
oracle

>  <origin>  (44) 
autodockgpu

>  <m_score__min__energy>  (44) 
-8.3200000000000003

>  <m_primary>  (44) 
energy

>  <rmsd>  (44) 
6.258200358423559

>  <m_score__min__rmsd>  (44) 
6.258200358423559

>  <meeko>  (44) 
{"free_energy": -6.63, "intermolecular_energy": -8.12, "internal_energy": -2.51, "cluster_size": 24, "cluster_id": 4, "rank_in_cluster": 8}

>  <energy>  (44) 
-6.48

>  <cluster_rmsd>  (44) 
0.71

>  <cluster>  (44) 
4

$$$$

     RDKit          3D

 45 48  0  0  0  0  0  0  0  0999 V2000
  141.2460   72.2480  221.6520 O   0  0  0  0  0  0  0  0  0  0  0  0
  140.3310   72.4280  222.5200 C   0  0  0  0  0  0  0  0  0  0  0  0
  139.4350   73.5150  222.3450 N   0  0  0  0  0  0  0  0  0  0  0  0
  139.5260   74.4270  221.2110 C   0  0  0  0  0  0  0  0  0  0  0  0
  140.6250   75.4010  221.4840 C   0  0  0  0  0  0  0  0  0  0  0  0
  141.8220   75.0290  221.5730 O   0  0  0  0  0  0  0  0  0  0  0  0
  140.2800   76.7740  221.6410 N   0  0  0  0  0  0  0  0  0  0  0  0
  139.1590   77.3490  222.3750 C   0  0  0  0  0  0  0  0  0  0  0  0
  138.7390   78.5100  221.5050 C   0  0  0  0  0  0  0  0  0  0  0  0
  139.8270   78.6840  220.4640 C   0  0  0  0  0  0  0  0  0  0  0  0
  140.9980   77.9110  221.0830 C   0  0  1  0  0  0  0  0  0  0  0  0
  141.5220   78.7920  222.1610 C   0  0  0  0  0  0  0  0  0  0  0  0
  141.9590   80.0790  221.9370 C   0  0  0  0  0  0  0  0  0  0  0  0
  142.3610   80.5750  223.1180 N   0  0  0  0  0  0  0  0  0  0  0  0
  142.1880   79.6370  224.0700 C   0  0  0  0  0  0  0  0  0  0  0  0
  141.6680   78.5310  223.4760 N   0  0  0  0  0  0  0  0  0  0  0  0
  140.2130   71.5340  223.6660 C   0  0  0  0  0  0  0  0  0  0  0  0
  139.5860   70.3140  223.5050 C   0  0  0  0  0  0  0  0  0  0  0  0
  139.4330   69.4090  224.5380 C   0  0  0  0  0  0  0  0  0  0  0  0
  139.9550   69.8050  225.7700 C   0  0  0  0  0  0  0  0  0  0  0  0
  139.8080   68.9040  226.8190 C   0  0  0  0  0  0  0  0  0  0  0  0
  140.3020   69.2280  228.0710 C   0  0  0  0  0  0  0  0  0  0  0  0
  140.1800   68.3750  229.1320 F   0  0  0  0  0  0  0  0  0  0  0  0
  140.9250   70.4510  228.2120 C   0  0  0  0  0  0  0  0  0  0  0  0
  141.0740   71.3500  227.1760 C   0  0  0  0  0  0  0  0  0  0  0  0
  140.5820   71.0230  225.9300 C   0  0  0  0  0  0  0  0  0  0  0  0
  140.7020   71.8710  224.8790 N   0  0  0  0  0  0  0  0  0  0  0  0
  138.6930   73.6280  223.0880 H   0  0  0  0  0  0  0  0  0  0  0  0
  139.7490   73.8609  220.2946 H   0  0  0  0  0  0  0  0  0  0  0  0
  138.5727   74.9580  221.0724 H   0  0  0  0  0  0  0  0  0  0  0  0
  138.3420   76.6203  222.4824 H   0  0  0  0  0  0  0  0  0  0  0  0
  139.4220   77.6498  223.3999 H   0  0  0  0  0  0  0  0  0  0  0  0
  137.7778   78.2909  221.0170 H   0  0  0  0  0  0  0  0  0  0  0  0
  138.6080   79.4258  222.1001 H   0  0  0  0  0  0  0  0  0  0  0  0
  139.5282   78.2489  219.4989 H   0  0  0  0  0  0  0  0  0  0  0  0
  140.0612   79.7358  220.2431 H   0  0  0  0  0  0  0  0  0  0  0  0
  141.8348   77.6193  220.4313 H   0  0  0  0  0  0  0  0  0  0  0  0
  141.9755   80.6031  220.9700 H   0  0  0  0  0  0  0  0  0  0  0  0
  142.7460   81.5560  223.2320 H   0  0  0  0  0  0  0  0  0  0  0  0
  142.4256   79.7471  225.1384 H   0  0  0  0  0  0  0  0  0  0  0  0
  139.1916   70.0516  222.5122 H   0  0  0  0  0  0  0  0  0  0  0  0
  138.9323   68.4396  224.3982 H   0  0  0  0  0  0  0  0  0  0  0  0
  139.3028   67.9407  226.6551 H   0  0  0  0  0  0  0  0  0  0  0  0
  141.3231   70.7231  229.2007 H   0  0  0  0  0  0  0  0  0  0  0  0
  141.5780   72.3136  227.3416 H   0  0  0  0  0  0  0  0  0  0  0  0
  1  2  2  0
  2  3  1  0
  3  4  1  0
  4  5  1  0
  5  6  2  0
  5  7  1  0
  7  8  1  0
  8  9  1  0
  9 10  1  0
 10 11  1  0
 11 12  1  0
 12 13  2  0
 13 14  1  0
 14 15  1  0
 15 16  2  0
  2 17  1  0
 17 18  2  0
 18 19  1  0
 19 20  2  0
 20 21  1  0
 21 22  2  0
 22 23  1  0
 22 24  1  0
 24 25  2  0
 25 26  1  0
 26 27  2  0
 11  7  1  0
 16 12  1  0
 27 17  1  0
 26 20  1  0
  3 28  1  0
  4 29  1  0
  4 30  1  0
  8 31  1  0
  8 32  1  0
  9 33  1  0
  9 34  1  0
 10 35  1  0
 10 36  1  0
 11 37  1  6
 13 38  1  0
 14 39  1  0
 15 40  1  0
 18 41  1  0
 19 42  1  0
 21 43  1  0
 24 44  1  0
 25 45  1  0
M  END
>  <smiles>  (45) 
O=C(NCC(=O)N1CCC[C@H]1c1c[nH]cn1)c1ccc2cc(F)ccc2n1

>  <score_type>  (45) 
oracle

>  <origin>  (45) 
autodockgpu

>  <m_score__min__energy>  (45) 
-8.3200000000000003

>  <m_primary>  (45) 
energy

>  <rmsd>  (45) 
2.3431337263360867

>  <m_score__min__rmsd>  (45) 
2.3431337263360867

>  <meeko>  (45) 
{"free_energy": -7.73, "intermolecular_energy": -9.22, "internal_energy": -1.06, "cluster_size": 10, "cluster_id": 2, "rank_in_cluster": 1}

>  <energy>  (45) 
-6.46

>  <cluster_rmsd>  (45) 
0.73

>  <cluster>  (45) 
4

$$$$

     RDKit          3D

 45 48  0  0  0  0  0  0  0  0999 V2000
  138.8850   74.7820  222.3490 O   0  0  0  0  0  0  0  0  0  0  0  0
  139.9530   75.2820  221.8670 C   0  0  0  0  0  0  0  0  0  0  0  0
  140.0470   76.6930  221.7490 N   0  0  0  0  0  0  0  0  0  0  0  0
  138.9690   77.5850  222.1610 C   0  0  0  0  0  0  0  0  0  0  0  0
  139.5780   78.7750  222.8260 C   0  0  0  0  0  0  0  0  0  0  0  0
  139.0600   79.2910  223.8480 O   0  0  0  0  0  0  0  0  0  0  0  0
  140.7710   79.3170  222.2670 N   0  0  0  0  0  0  0  0  0  0  0  0
  142.1480   79.1180  222.7030 C   0  0  0  0  0  0  0  0  0  0  0  0
  142.7750   80.4750  222.4900 C   0  0  0  0  0  0  0  0  0  0  0  0
  141.7790   81.2880  221.6860 C   0  0  0  0  0  0  0  0  0  0  0  0
  140.8570   80.2030  221.1160 C   0  0  1  0  0  0  0  0  0  0  0  0
  141.6310   79.5720  220.0130 C   0  0  0  0  0  0  0  0  0  0  0  0
  142.2510   80.2940  219.0170 C   0  0  0  0  0  0  0  0  0  0  0  0
  142.8490   79.4140  218.1990 N   0  0  0  0  0  0  0  0  0  0  0  0
  142.6210   78.1670  218.6540 C   0  0  0  0  0  0  0  0  0  0  0  0
  141.8660   78.2640  219.7790 N   0  0  0  0  0  0  0  0  0  0  0  0
  141.0490   74.4180  221.4460 C   0  0  0  0  0  0  0  0  0  0  0  0
  140.8390   73.0560  221.3630 C   0  0  0  0  0  0  0  0  0  0  0  0
  141.8230   72.1680  220.9730 C   0  0  0  0  0  0  0  0  0  0  0  0
  143.0600   72.7360  220.6650 C   0  0  0  0  0  0  0  0  0  0  0  0
  144.0610   71.8540  220.2710 C   0  0  0  0  0  0  0  0  0  0  0  0
  145.3150   72.3450  219.9500 C   0  0  0  0  0  0  0  0  0  0  0  0
  146.3290   71.5170  219.5580 F   0  0  0  0  0  0  0  0  0  0  0  0
  145.5060   73.7080  220.0400 C   0  0  0  0  0  0  0  0  0  0  0  0
  144.5180   74.5880  220.4300 C   0  0  0  0  0  0  0  0  0  0  0  0
  143.2710   74.0960  220.7490 C   0  0  0  0  0  0  0  0  0  0  0  0
  142.2650   74.9190  221.1370 N   0  0  0  0  0  0  0  0  0  0  0  0
  140.9480   77.0660  221.3450 H   0  0  0  0  0  0  0  0  0  0  0  0
  138.3928   77.9047  221.2802 H   0  0  0  0  0  0  0  0  0  0  0  0
  138.2909   77.0669  222.8551 H   0  0  0  0  0  0  0  0  0  0  0  0
  142.1882   78.8265  223.7629 H   0  0  0  0  0  0  0  0  0  0  0  0
  142.6623   78.3138  222.1564 H   0  0  0  0  0  0  0  0  0  0  0  0
  142.9684   80.9604  223.4580 H   0  0  0  0  0  0  0  0  0  0  0  0
  143.7369   80.3905  221.9632 H   0  0  0  0  0  0  0  0  0  0  0  0
  141.2229   81.9860  222.3291 H   0  0  0  0  0  0  0  0  0  0  0  0
  142.2454   81.9195  220.9155 H   0  0  0  0  0  0  0  0  0  0  0  0
  139.8736   80.5044  220.7259 H   0  0  0  0  0  0  0  0  0  0  0  0
  142.2552   81.3889  218.9117 H   0  0  0  0  0  0  0  0  0  0  0  0
  143.4020   79.7050  217.3430 H   0  0  0  0  0  0  0  0  0  0  0  0
  142.9824   77.2347  218.1955 H   0  0  0  0  0  0  0  0  0  0  0  0
  139.8449   72.6605  221.6185 H   0  0  0  0  0  0  0  0  0  0  0  0
  141.6433   71.0846  220.9095 H   0  0  0  0  0  0  0  0  0  0  0  0
  143.8577   70.7744  220.2149 H   0  0  0  0  0  0  0  0  0  0  0  0
  146.4968   74.1140  219.7879 H   0  0  0  0  0  0  0  0  0  0  0  0
  144.7227   75.6674  220.4856 H   0  0  0  0  0  0  0  0  0  0  0  0
  1  2  2  0
  2  3  1  0
  3  4  1  0
  4  5  1  0
  5  6  2  0
  5  7  1  0
  7  8  1  0
  8  9  1  0
  9 10  1  0
 10 11  1  0
 11 12  1  0
 12 13  2  0
 13 14  1  0
 14 15  1  0
 15 16  2  0
  2 17  1  0
 17 18  2  0
 18 19  1  0
 19 20  2  0
 20 21  1  0
 21 22  2  0
 22 23  1  0
 22 24  1  0
 24 25  2  0
 25 26  1  0
 26 27  2  0
 11  7  1  0
 16 12  1  0
 27 17  1  0
 26 20  1  0
  3 28  1  0
  4 29  1  0
  4 30  1  0
  8 31  1  0
  8 32  1  0
  9 33  1  0
  9 34  1  0
 10 35  1  0
 10 36  1  0
 11 37  1  6
 13 38  1  0
 14 39  1  0
 15 40  1  0
 18 41  1  0
 19 42  1  0
 21 43  1  0
 24 44  1  0
 25 45  1  0
M  END
>  <smiles>  (46) 
O=C(NCC(=O)N1CCC[C@H]1c1c[nH]cn1)c1ccc2cc(F)ccc2n1

>  <score_type>  (46) 
oracle

>  <origin>  (46) 
autodockgpu

>  <m_score__min__energy>  (46) 
-8.3200000000000003

>  <m_primary>  (46) 
energy

>  <rmsd>  (46) 
6.320572749277053

>  <m_score__min__rmsd>  (46) 
6.320572749277053

>  <meeko>  (46) 
{"free_energy": -6.64, "intermolecular_energy": -8.14, "internal_energy": -2.44, "cluster_size": 24, "cluster_id": 4, "rank_in_cluster": 5}

>  <energy>  (46) 
-6.42

>  <cluster_rmsd>  (46) 
0.34

>  <cluster>  (46) 
4

$$$$

     RDKit          3D

 45 48  0  0  0  0  0  0  0  0999 V2000
  141.2390   72.3240  221.6710 O   0  0  0  0  0  0  0  0  0  0  0  0
  140.3160   72.4890  222.5340 C   0  0  0  0  0  0  0  0  0  0  0  0
  139.4060   73.5630  222.3550 N   0  0  0  0  0  0  0  0  0  0  0  0
  139.4910   74.4780  221.2230 C   0  0  0  0  0  0  0  0  0  0  0  0
  140.6620   75.3790  221.4400 C   0  0  0  0  0  0  0  0  0  0  0  0
  141.8230   74.9200  221.5850 O   0  0  0  0  0  0  0  0  0  0  0  0
  140.4290   76.7830  221.4770 N   0  0  0  0  0  0  0  0  0  0  0  0
  139.2410   77.4940  221.9330 C   0  0  0  0  0  0  0  0  0  0  0  0
  139.1320   78.6420  220.9580 C   0  0  0  0  0  0  0  0  0  0  0  0
  140.4280   78.6650  220.1730 C   0  0  0  0  0  0  0  0  0  0  0  0
  141.3580   77.8210  221.0530 C   0  0  1  0  0  0  0  0  0  0  0  0
  141.7260   78.7050  222.1930 C   0  0  0  0  0  0  0  0  0  0  0  0
  142.1790   79.9960  222.0300 C   0  0  0  0  0  0  0  0  0  0  0  0
  142.4140   80.4940  223.2540 N   0  0  0  0  0  0  0  0  0  0  0  0
  142.1220   79.5530  224.1730 C   0  0  0  0  0  0  0  0  0  0  0  0
  141.6960   78.4440  223.5150 N   0  0  0  0  0  0  0  0  0  0  0  0
  140.2040   71.5900  223.6770 C   0  0  0  0  0  0  0  0  0  0  0  0
  139.5770   70.3710  223.5140 C   0  0  0  0  0  0  0  0  0  0  0  0
  139.4290   69.4620  224.5450 C   0  0  0  0  0  0  0  0  0  0  0  0
  139.9560   69.8540  225.7760 C   0  0  0  0  0  0  0  0  0  0  0  0
  139.8140   68.9500  226.8230 C   0  0  0  0  0  0  0  0  0  0  0  0
  140.3130   69.2700  228.0740 C   0  0  0  0  0  0  0  0  0  0  0  0
  140.1960   68.4130  229.1320 F   0  0  0  0  0  0  0  0  0  0  0  0
  140.9350   70.4930  228.2160 C   0  0  0  0  0  0  0  0  0  0  0  0
  141.0790   71.3950  227.1830 C   0  0  0  0  0  0  0  0  0  0  0  0
  140.5820   71.0730  225.9380 C   0  0  0  0  0  0  0  0  0  0  0  0
  140.6980   71.9240  224.8890 N   0  0  0  0  0  0  0  0  0  0  0  0
  138.6570   73.6630  223.0920 H   0  0  0  0  0  0  0  0  0  0  0  0
  139.6271   73.9077  220.2923 H   0  0  0  0  0  0  0  0  0  0  0  0
  138.5666   75.0685  221.1408 H   0  0  0  0  0  0  0  0  0  0  0  0
  138.3516   76.8486  221.8838 H   0  0  0  0  0  0  0  0  0  0  0  0
  139.3096   77.8222  222.9807 H   0  0  0  0  0  0  0  0  0  0  0  0
  138.2800   78.4852  220.2802 H   0  0  0  0  0  0  0  0  0  0  0  0
  138.9679   79.5949  221.4825 H   0  0  0  0  0  0  0  0  0  0  0  0
  140.2999   78.2114  219.1791 H   0  0  0  0  0  0  0  0  0  0  0  0
  140.8068   79.6791  219.9777 H   0  0  0  0  0  0  0  0  0  0  0  0
  142.2806   77.4220  220.6061 H   0  0  0  0  0  0  0  0  0  0  0  0
  142.3216   80.5211  221.0740 H   0  0  0  0  0  0  0  0  0  0  0  0
  142.7720   81.4780  223.4180 H   0  0  0  0  0  0  0  0  0  0  0  0
  142.2126   79.6635  225.2637 H   0  0  0  0  0  0  0  0  0  0  0  0
  139.1784   70.1120  222.5220 H   0  0  0  0  0  0  0  0  0  0  0  0
  138.9283   68.4927  224.4040 H   0  0  0  0  0  0  0  0  0  0  0  0
  139.3085   67.9870  226.6583 H   0  0  0  0  0  0  0  0  0  0  0  0
  141.3367   70.7625  229.2039 H   0  0  0  0  0  0  0  0  0  0  0  0
  141.5834   72.3581  227.3500 H   0  0  0  0  0  0  0  0  0  0  0  0
  1  2  2  0
  2  3  1  0
  3  4  1  0
  4  5  1  0
  5  6  2  0
  5  7  1  0
  7  8  1  0
  8  9  1  0
  9 10  1  0
 10 11  1  0
 11 12  1  0
 12 13  2  0
 13 14  1  0
 14 15  1  0
 15 16  2  0
  2 17  1  0
 17 18  2  0
 18 19  1  0
 19 20  2  0
 20 21  1  0
 21 22  2  0
 22 23  1  0
 22 24  1  0
 24 25  2  0
 25 26  1  0
 26 27  2  0
 11  7  1  0
 16 12  1  0
 27 17  1  0
 26 20  1  0
  3 28  1  0
  4 29  1  0
  4 30  1  0
  8 31  1  0
  8 32  1  0
  9 33  1  0
  9 34  1  0
 10 35  1  0
 10 36  1  0
 11 37  1  6
 13 38  1  0
 14 39  1  0
 15 40  1  0
 18 41  1  0
 19 42  1  0
 21 43  1  0
 24 44  1  0
 25 45  1  0
M  END
>  <smiles>  (47) 
O=C(NCC(=O)N1CCC[C@H]1c1c[nH]cn1)c1ccc2cc(F)ccc2n1

>  <score_type>  (47) 
oracle

>  <origin>  (47) 
autodockgpu

>  <m_score__min__energy>  (47) 
-8.3200000000000003

>  <m_primary>  (47) 
energy

>  <rmsd>  (47) 
2.2057021799444434

>  <m_score__min__rmsd>  (47) 
2.2057021799444434

>  <meeko>  (47) 
{"free_energy": -7.67, "intermolecular_energy": -9.16, "internal_energy": -1.03, "cluster_size": 10, "cluster_id": 2, "rank_in_cluster": 2}

>  <energy>  (47) 
-6.4

>  <cluster_rmsd>  (47) 
0.78

>  <cluster>  (47) 
4

$$$$

     RDKit          3D

 45 48  0  0  0  0  0  0  0  0999 V2000
  141.4910   71.6070  222.2010 O   0  0  0  0  0  0  0  0  0  0  0  0
  140.5910   71.8810  223.0600 C   0  0  0  0  0  0  0  0  0  0  0  0
  139.5720   72.8020  222.7020 N   0  0  0  0  0  0  0  0  0  0  0  0
  139.5210   73.4410  221.3930 C   0  0  0  0  0  0  0  0  0  0  0  0
  140.3300   74.6950  221.4550 C   0  0  0  0  0  0  0  0  0  0  0  0
  140.0340   75.6270  222.2440 O   0  0  0  0  0  0  0  0  0  0  0  0
  141.4550   74.8090  220.5900 N   0  0  0  0  0  0  0  0  0  0  0  0
  142.1710   76.0140  220.1860 C   0  0  0  0  0  0  0  0  0  0  0  0
  142.5100   75.7430  218.7400 C   0  0  0  0  0  0  0  0  0  0  0  0
  142.2020   74.2790  218.4920 C   0  0  0  0  0  0  0  0  0  0  0  0
  142.1380   73.7140  219.9160 C   0  0  1  0  0  0  0  0  0  0  0  0
  143.5540   73.6130  220.3620 C   0  0  0  0  0  0  0  0  0  0  0  0
  144.1050   72.4530  220.8620 C   0  0  0  0  0  0  0  0  0  0  0  0
  145.3870   72.7190  221.1620 N   0  0  0  0  0  0  0  0  0  0  0  0
  145.6500   74.0060  220.8650 C   0  0  0  0  0  0  0  0  0  0  0  0
  144.5130   74.5610  220.3680 N   0  0  0  0  0  0  0  0  0  0  0  0
  140.6130   71.2590  224.3780 C   0  0  0  0  0  0  0  0  0  0  0  0
  141.0760   71.9860  225.4570 C   0  0  0  0  0  0  0  0  0  0  0  0
  141.1300   71.4720  226.7390 C   0  0  0  0  0  0  0  0  0  0  0  0
  140.6850   70.1570  226.8810 C   0  0  0  0  0  0  0  0  0  0  0  0
  140.7340   69.6260  228.1660 C   0  0  0  0  0  0  0  0  0  0  0  0
  140.3080   68.3270  228.3830 C   0  0  0  0  0  0  0  0  0  0  0  0
  140.3380   67.7630  229.6280 F   0  0  0  0  0  0  0  0  0  0  0  0
  139.8500   67.6170  227.2930 C   0  0  0  0  0  0  0  0  0  0  0  0
  139.7980   68.1370  226.0160 C   0  0  0  0  0  0  0  0  0  0  0  0
  140.2230   69.4310  225.8030 C   0  0  0  0  0  0  0  0  0  0  0  0
  140.1930   69.9890  224.5680 N   0  0  0  0  0  0  0  0  0  0  0  0
  138.8460   73.0010  223.4430 H   0  0  0  0  0  0  0  0  0  0  0  0
  139.9388   72.7654  220.6321 H   0  0  0  0  0  0  0  0  0  0  0  0
  138.4801   73.6729  221.1232 H   0  0  0  0  0  0  0  0  0  0  0  0
  141.5315   76.9039  220.2815 H   0  0  0  0  0  0  0  0  0  0  0  0
  143.0560   76.2192  220.8062 H   0  0  0  0  0  0  0  0  0  0  0  0
  141.8983   76.3768  218.0812 H   0  0  0  0  0  0  0  0  0  0  0  0
  143.5661   75.9681  218.5303 H   0  0  0  0  0  0  0  0  0  0  0  0
  141.2409   74.1566  217.9711 H   0  0  0  0  0  0  0  0  0  0  0  0
  142.9404   73.7756  217.8507 H   0  0  0  0  0  0  0  0  0  0  0  0
  141.6525   72.7390  220.0698 H   0  0  0  0  0  0  0  0  0  0  0  0
  143.5909   71.4892  220.9913 H   0  0  0  0  0  0  0  0  0  0  0  0
  146.0470   71.9950  221.5670 H   0  0  0  0  0  0  0  0  0  0  0  0
  146.6143   74.5176  221.0006 H   0  0  0  0  0  0  0  0  0  0  0  0
  141.4164   73.0184  225.2890 H   0  0  0  0  0  0  0  0  0  0  0  0
  141.4995   72.0609  227.5914 H   0  0  0  0  0  0  0  0  0  0  0  0
  141.1083   70.2337  229.0030 H   0  0  0  0  0  0  0  0  0  0  0  0
  139.5087   66.5831  227.4497 H   0  0  0  0  0  0  0  0  0  0  0  0
  139.4230   67.5280  225.1803 H   0  0  0  0  0  0  0  0  0  0  0  0
  1  2  2  0
  2  3  1  0
  3  4  1  0
  4  5  1  0
  5  6  2  0
  5  7  1  0
  7  8  1  0
  8  9  1  0
  9 10  1  0
 10 11  1  0
 11 12  1  0
 12 13  2  0
 13 14  1  0
 14 15  1  0
 15 16  2  0
  2 17  1  0
 17 18  2  0
 18 19  1  0
 19 20  2  0
 20 21  1  0
 21 22  2  0
 22 23  1  0
 22 24  1  0
 24 25  2  0
 25 26  1  0
 26 27  2  0
 11  7  1  0
 16 12  1  0
 27 17  1  0
 26 20  1  0
  3 28  1  0
  4 29  1  0
  4 30  1  0
  8 31  1  0
  8 32  1  0
  9 33  1  0
  9 34  1  0
 10 35  1  0
 10 36  1  0
 11 37  1  6
 13 38  1  0
 14 39  1  0
 15 40  1  0
 18 41  1  0
 19 42  1  0
 21 43  1  0
 24 44  1  0
 25 45  1  0
M  END
>  <smiles>  (48) 
O=C(NCC(=O)N1CCC[C@H]1c1c[nH]cn1)c1ccc2cc(F)ccc2n1

>  <score_type>  (48) 
oracle

>  <origin>  (48) 
autodockgpu

>  <m_score__min__energy>  (48) 
-8.3200000000000003

>  <m_primary>  (48) 
energy

>  <rmsd>  (48) 
3.6327249382518865

>  <m_score__min__rmsd>  (48) 
3.6327249382518865

>  <meeko>  (48) 
{"free_energy": -7.78, "intermolecular_energy": -9.28, "internal_energy": -1.1, "cluster_size": 11, "cluster_id": 1, "rank_in_cluster": 5}

>  <energy>  (48) 
-6.36

>  <cluster_rmsd>  (48) 
0.81

>  <cluster>  (48) 
4

$$$$

     RDKit          3D

 45 48  0  0  0  0  0  0  0  0999 V2000
  139.4210   70.8470  221.3530 O   0  0  0  0  0  0  0  0  0  0  0  0
  139.6000   71.4380  222.4680 C   0  0  0  0  0  0  0  0  0  0  0  0
  139.6890   72.8540  222.4770 N   0  0  0  0  0  0  0  0  0  0  0  0
  139.5820   73.6510  221.2600 C   0  0  0  0  0  0  0  0  0  0  0  0
  140.4400   74.8630  221.4220 C   0  0  0  0  0  0  0  0  0  0  0  0
  140.2610   75.6710  222.3680 O   0  0  0  0  0  0  0  0  0  0  0  0
  141.4740   75.0830  220.4680 N   0  0  0  0  0  0  0  0  0  0  0  0
  142.1750   76.3240  220.1590 C   0  0  0  0  0  0  0  0  0  0  0  0
  142.3580   76.2510  218.6620 C   0  0  0  0  0  0  0  0  0  0  0  0
  141.9910   74.8390  218.2510 C   0  0  0  0  0  0  0  0  0  0  0  0
  142.0570   74.0840  219.5840 C   0  0  1  0  0  0  0  0  0  0  0  0
  143.5080   73.9070  219.8620 C   0  0  0  0  0  0  0  0  0  0  0  0
  144.4760   73.9660  218.8830 C   0  0  0  0  0  0  0  0  0  0  0  0
  145.6600   73.7640  219.4810 N   0  0  0  0  0  0  0  0  0  0  0  0
  145.4610   73.5810  220.8010 C   0  0  0  0  0  0  0  0  0  0  0  0
  144.1260   73.6690  221.0370 N   0  0  0  0  0  0  0  0  0  0  0  0
  139.7100   70.6690  223.7020 C   0  0  0  0  0  0  0  0  0  0  0  0
  139.2240   69.3780  223.7360 C   0  0  0  0  0  0  0  0  0  0  0  0
  139.2890   68.5820  224.8640 C   0  0  0  0  0  0  0  0  0  0  0  0
  139.8820   69.1690  225.9830 C   0  0  0  0  0  0  0  0  0  0  0  0
  139.9540   68.3800  227.1260 C   0  0  0  0  0  0  0  0  0  0  0  0
  140.5300   68.8960  228.2750 C   0  0  0  0  0  0  0  0  0  0  0  0
  140.6220   68.1580  229.4220 F   0  0  0  0  0  0  0  0  0  0  0  0
  141.0090   70.1880  228.2210 C   0  0  0  0  0  0  0  0  0  0  0  0
  140.9400   70.9760  227.0910 C   0  0  0  0  0  0  0  0  0  0  0  0
  140.3670   70.4600  225.9490 C   0  0  0  0  0  0  0  0  0  0  0  0
  140.2750   71.1920  224.8120 N   0  0  0  0  0  0  0  0  0  0  0  0
  139.8370   73.3030  223.4210 H   0  0  0  0  0  0  0  0  0  0  0  0
  139.9273   73.0624  220.3973 H   0  0  0  0  0  0  0  0  0  0  0  0
  138.5361   73.9448  221.0876 H   0  0  0  0  0  0  0  0  0  0  0  0
  141.5711   77.1992  220.4407 H   0  0  0  0  0  0  0  0  0  0  0  0
  143.1235   76.4322  220.7055 H   0  0  0  0  0  0  0  0  0  0  0  0
  141.6979   76.9756  218.1628 H   0  0  0  0  0  0  0  0  0  0  0  0
  143.3924   76.4920  218.3759 H   0  0  0  0  0  0  0  0  0  0  0  0
  140.9796   74.7995  217.8203 H   0  0  0  0  0  0  0  0  0  0  0  0
  142.6486   74.4209  217.4746 H   0  0  0  0  0  0  0  0  0  0  0  0
  141.5647   73.1028  219.6537 H   0  0  0  0  0  0  0  0  0  0  0  0
  144.3091   74.1454  217.8106 H   0  0  0  0  0  0  0  0  0  0  0  0
  146.5800   73.7590  218.9540 H   0  0  0  0  0  0  0  0  0  0  0  0
  146.2409   73.3936  221.5538 H   0  0  0  0  0  0  0  0  0  0  0  0
  138.7649   68.9645  222.8259 H   0  0  0  0  0  0  0  0  0  0  0  0
  138.8991   67.5535  224.8789 H   0  0  0  0  0  0  0  0  0  0  0  0
  139.5566   67.3543  227.1176 H   0  0  0  0  0  0  0  0  0  0  0  0
  141.4697   70.6119  229.1254 H   0  0  0  0  0  0  0  0  0  0  0  0
  141.3368   72.0019  227.1014 H   0  0  0  0  0  0  0  0  0  0  0  0
  1  2  2  0
  2  3  1  0
  3  4  1  0
  4  5  1  0
  5  6  2  0
  5  7  1  0
  7  8  1  0
  8  9  1  0
  9 10  1  0
 10 11  1  0
 11 12  1  0
 12 13  2  0
 13 14  1  0
 14 15  1  0
 15 16  2  0
  2 17  1  0
 17 18  2  0
 18 19  1  0
 19 20  2  0
 20 21  1  0
 21 22  2  0
 22 23  1  0
 22 24  1  0
 24 25  2  0
 25 26  1  0
 26 27  2  0
 11  7  1  0
 16 12  1  0
 27 17  1  0
 26 20  1  0
  3 28  1  0
  4 29  1  0
  4 30  1  0
  8 31  1  0
  8 32  1  0
  9 33  1  0
  9 34  1  0
 10 35  1  0
 10 36  1  0
 11 37  1  6
 13 38  1  0
 14 39  1  0
 15 40  1  0
 18 41  1  0
 19 42  1  0
 21 43  1  0
 24 44  1  0
 25 45  1  0
M  END
>  <smiles>  (49) 
O=C(NCC(=O)N1CCC[C@H]1c1c[nH]cn1)c1ccc2cc(F)ccc2n1

>  <score_type>  (49) 
oracle

>  <origin>  (49) 
autodockgpu

>  <m_score__min__energy>  (49) 
-8.3200000000000003

>  <m_primary>  (49) 
energy

>  <rmsd>  (49) 
2.790592370256256

>  <m_score__min__rmsd>  (49) 
2.790592370256256

>  <meeko>  (49) 
{"free_energy": -7.25, "intermolecular_energy": -8.74, "internal_energy": -1.45, "cluster_size": 11, "cluster_id": 1, "rank_in_cluster": 10}

>  <energy>  (49) 
-6.28

>  <cluster_rmsd>  (49) 
0.83

>  <cluster>  (49) 
4

$$$$

     RDKit          3D

 45 48  0  0  0  0  0  0  0  0999 V2000
  140.8570   72.0560  221.2280 O   0  0  0  0  0  0  0  0  0  0  0  0
  140.2690   72.4280  222.2950 C   0  0  0  0  0  0  0  0  0  0  0  0
  139.7150   73.7340  222.3420 N   0  0  0  0  0  0  0  0  0  0  0  0
  139.7940   74.6570  221.2170 C   0  0  0  0  0  0  0  0  0  0  0  0
  139.3660   76.0070  221.6920 C   0  0  0  0  0  0  0  0  0  0  0  0
  138.4460   76.1430  222.5370 O   0  0  0  0  0  0  0  0  0  0  0  0
  140.0330   77.1470  221.1580 N   0  0  0  0  0  0  0  0  0  0  0  0
  139.4660   78.2630  220.4120 C   0  0  0  0  0  0  0  0  0  0  0  0
  140.5300   78.5650  219.3840 C   0  0  0  0  0  0  0  0  0  0  0  0
  141.7570   77.7740  219.7890 C   0  0  0  0  0  0  0  0  0  0  0  0
  141.4570   77.4340  221.2540 C   0  0  1  0  0  0  0  0  0  0  0  0
  141.6980   78.6950  222.0060 C   0  0  0  0  0  0  0  0  0  0  0  0
  141.4510   78.8270  223.3550 C   0  0  0  0  0  0  0  0  0  0  0  0
  141.7760   80.0840  223.6980 N   0  0  0  0  0  0  0  0  0  0  0  0
  142.2190   80.7370  222.6060 C   0  0  0  0  0  0  0  0  0  0  0  0
  142.1700   79.8750  221.5560 N   0  0  0  0  0  0  0  0  0  0  0  0
  140.1720   71.5280  223.4380 C   0  0  0  0  0  0  0  0  0  0  0  0
  139.5770   70.2930  223.2730 C   0  0  0  0  0  0  0  0  0  0  0  0
  139.4450   69.3810  224.3030 C   0  0  0  0  0  0  0  0  0  0  0  0
  139.9540   69.7870  225.5370 C   0  0  0  0  0  0  0  0  0  0  0  0
  139.8280   68.8800  226.5840 C   0  0  0  0  0  0  0  0  0  0  0  0
  140.3110   69.2140  227.8380 C   0  0  0  0  0  0  0  0  0  0  0  0
  140.2090   68.3550  228.8960 F   0  0  0  0  0  0  0  0  0  0  0  0
  140.9010   70.4530  227.9830 C   0  0  0  0  0  0  0  0  0  0  0  0
  141.0290   71.3570  226.9500 C   0  0  0  0  0  0  0  0  0  0  0  0
  140.5480   71.0210  225.7020 C   0  0  0  0  0  0  0  0  0  0  0  0
  140.6500   71.8740  224.6530 N   0  0  0  0  0  0  0  0  0  0  0  0
  139.2360   74.0010  223.2450 H   0  0  0  0  0  0  0  0  0  0  0  0
  140.8281   74.7034  220.8450 H   0  0  0  0  0  0  0  0  0  0  0  0
  139.1419   74.3169  220.3991 H   0  0  0  0  0  0  0  0  0  0  0  0
  138.5207   77.9751  219.9288 H   0  0  0  0  0  0  0  0  0  0  0  0
  139.2213   79.1272  221.0471 H   0  0  0  0  0  0  0  0  0  0  0  0
  140.1912   78.2553  218.3843 H   0  0  0  0  0  0  0  0  0  0  0  0
  140.7476   79.6424  219.3418 H   0  0  0  0  0  0  0  0  0  0  0  0
  141.8619   76.8627  219.1819 H   0  0  0  0  0  0  0  0  0  0  0  0
  142.7006   78.3214  219.6480 H   0  0  0  0  0  0  0  0  0  0  0  0
  142.0315   76.6266  221.7315 H   0  0  0  0  0  0  0  0  0  0  0  0
  141.0604   78.0479  224.0261 H   0  0  0  0  0  0  0  0  0  0  0  0
  141.6820   80.4550  224.6870 H   0  0  0  0  0  0  0  0  0  0  0  0
  142.5599   81.7822  222.5704 H   0  0  0  0  0  0  0  0  0  0  0  0
  139.1913   70.0233  222.2787 H   0  0  0  0  0  0  0  0  0  0  0  0
  138.9698   68.3994  224.1593 H   0  0  0  0  0  0  0  0  0  0  0  0
  139.3481   67.9044  226.4170 H   0  0  0  0  0  0  0  0  0  0  0  0
  141.2890   70.7337  228.9733 H   0  0  0  0  0  0  0  0  0  0  0  0
  141.5081   72.3327  227.1189 H   0  0  0  0  0  0  0  0  0  0  0  0
  1  2  2  0
  2  3  1  0
  3  4  1  0
  4  5  1  0
  5  6  2  0
  5  7  1  0
  7  8  1  0
  8  9  1  0
  9 10  1  0
 10 11  1  0
 11 12  1  0
 12 13  2  0
 13 14  1  0
 14 15  1  0
 15 16  2  0
  2 17  1  0
 17 18  2  0
 18 19  1  0
 19 20  2  0
 20 21  1  0
 21 22  2  0
 22 23  1  0
 22 24  1  0
 24 25  2  0
 25 26  1  0
 26 27  2  0
 11  7  1  0
 16 12  1  0
 27 17  1  0
 26 20  1  0
  3 28  1  0
  4 29  1  0
  4 30  1  0
  8 31  1  0
  8 32  1  0
  9 33  1  0
  9 34  1  0
 10 35  1  0
 10 36  1  0
 11 37  1  1
 13 38  1  0
 14 39  1  0
 15 40  1  0
 18 41  1  0
 19 42  1  0
 21 43  1  0
 24 44  1  0
 25 45  1  0
M  END
>  <smiles>  (50) 
O=C(NCC(=O)N1CCC[C@H]1c1c[nH]cn1)c1ccc2cc(F)ccc2n1

>  <score_type>  (50) 
oracle

>  <origin>  (50) 
autodockgpu

>  <m_score__min__energy>  (50) 
-8.3200000000000003

>  <m_primary>  (50) 
energy

>  <rmsd>  (50) 
2.0388511413259796

>  <m_score__min__rmsd>  (50) 
2.0388511413259796

>  <meeko>  (50) 
{"free_energy": -7.31, "intermolecular_energy": -8.8, "internal_energy": -1.43, "cluster_size": 10, "cluster_id": 2, "rank_in_cluster": 7}

>  <energy>  (50) 
-5.86

>  <cluster_rmsd>  (50) 
0.0

>  <cluster>  (50) 
5

$$$$
