
     RDKit          3D

 49 52  0  0  0  0  0  0  0  0999 V2000
  139.6740   73.4690  222.3400 O   0  0  0  0  0  0  0  0  0  0  0  0
  140.3380   72.3950  222.4040 C   0  0  0  0  0  0  0  0  0  0  0  0
  141.2350   72.0030  221.3640 N   0  0  0  0  0  0  0  0  0  0  0  0
  141.3670   72.8760  220.2210 C   0  0  0  0  0  0  0  0  0  0  0  0
  142.0930   74.1220  220.5480 C   0  0  0  0  0  0  0  0  0  0  0  0
  143.3470   74.0720  220.5600 O   0  0  0  0  0  0  0  0  0  0  0  0
  141.3400   75.2940  220.8290 N   0  0  0  0  0  0  0  0  0  0  0  0
  141.0280   75.8450  222.1220 C   0  0  0  0  0  0  0  0  0  0  0  0
  139.7880   76.6740  221.9560 C   0  0  2  0  0  0  0  0  0  0  0  0
  138.8070   76.3360  222.8910 O   0  0  0  0  0  0  0  0  0  0  0  0
  139.3720   76.4140  220.5530 C   0  0  0  0  0  0  0  0  0  0  0  0
  140.7010   76.2130  219.8730 C   0  0  1  0  0  0  0  0  0  0  0  0
  141.5340   77.4400  219.7960 C   0  0  0  0  0  0  0  0  0  0  0  0
  141.4200   78.2610  218.5370 C   0  0  0  0  0  0  0  0  0  0  0  0
  142.4050   77.2970  217.9030 C   0  0  0  0  0  0  0  0  0  0  0  0
  142.9390   77.1110  219.3310 C   0  0  0  0  0  0  0  0  0  0  0  0
  140.2100   71.5070  223.5570 C   0  0  0  0  0  0  0  0  0  0  0  0
  139.5790   70.2750  223.4220 C   0  0  0  0  0  0  0  0  0  0  0  0
  139.4430   69.4090  224.5000 C   0  0  0  0  0  0  0  0  0  0  0  0
  139.9440   69.7780  225.7380 C   0  0  0  0  0  0  0  0  0  0  0  0
  139.8490   68.9810  226.8530 C   0  0  0  0  0  0  0  0  0  0  0  0
  140.3520   69.3600  228.0770 C   0  0  0  0  0  0  0  0  0  0  0  0
  140.2530   68.5680  229.1670 F   0  0  0  0  0  0  0  0  0  0  0  0
  140.9700   70.5910  228.1660 C   0  0  0  0  0  0  0  0  0  0  0  0
  141.0770   71.4200  227.0430 C   0  0  0  0  0  0  0  0  0  0  0  0
  140.5620   71.0110  225.8240 C   0  0  0  0  0  0  0  0  0  0  0  0
  140.6940   71.8480  224.7840 N   0  0  0  0  0  0  0  0  0  0  0  0
  141.7650   71.0960  221.4660 H   0  0  0  0  0  0  0  0  0  0  0  0
  141.9163   72.3435  219.4306 H   0  0  0  0  0  0  0  0  0  0  0  0
  140.3551   73.1528  219.8901 H   0  0  0  0  0  0  0  0  0  0  0  0
  140.8476   75.0354  222.8445 H   0  0  0  0  0  0  0  0  0  0  0  0
  141.8612   76.4551  222.5010 H   0  0  0  0  0  0  0  0  0  0  0  0
  139.9604   77.7452  222.1371 H   0  0  0  0  0  0  0  0  0  0  0  0
  138.9630   75.3800  223.0960 H   0  0  0  0  0  0  0  0  0  0  0  0
  138.7445   75.5134  220.4811 H   0  0  0  0  0  0  0  0  0  0  0  0
  138.7615   77.2159  220.1122 H   0  0  0  0  0  0  0  0  0  0  0  0
  140.5890   75.8798  218.8307 H   0  0  0  0  0  0  0  0  0  0  0  0
  141.2752   77.8847  220.7683 H   0  0  0  0  0  0  0  0  0  0  0  0
  140.4199   78.2631  218.0790 H   0  0  0  0  0  0  0  0  0  0  0  0
  141.5900   79.3478  218.5361 H   0  0  0  0  0  0  0  0  0  0  0  0
  141.9568   76.4002  217.4505 H   0  0  0  0  0  0  0  0  0  0  0  0
  143.0483   77.5700  217.0535 H   0  0  0  0  0  0  0  0  0  0  0  0
  143.2790   76.0924  219.5692 H   0  0  0  0  0  0  0  0  0  0  0  0
  143.8230   77.6494  219.7032 H   0  0  0  0  0  0  0  0  0  0  0  0
  139.1790   69.9798  222.4407 H   0  0  0  0  0  0  0  0  0  0  0  0
  138.9417   68.4383  224.3716 H   0  0  0  0  0  0  0  0  0  0  0  0
  139.3524   68.0035  226.7643 H   0  0  0  0  0  0  0  0  0  0  0  0
  141.3828   70.9242  229.1296 H   0  0  0  0  0  0  0  0  0  0  0  0
  141.5714   72.3989  227.1289 H   0  0  0  0  0  0  0  0  0  0  0  0
  1  2  2  0
  2  3  1  0
  3  4  1  0
  4  5  1  0
  5  6  2  0
  5  7  1  0
  7  8  1  0
  8  9  1  0
  9 10  1  0
  9 11  1  0
 11 12  1  0
 12 13  1  0
 13 14  1  0
 14 15  1  0
 15 16  1  0
  2 17  1  0
 17 18  2  0
 18 19  1  0
 19 20  2  0
 20 21  1  0
 21 22  2  0
 22 23  1  0
 22 24  1  0
 24 25  2  0
 25 26  1  0
 26 27  2  0
 12  7  1  0
 16 13  1  0
 27 17  1  0
 26 20  1  0
  3 28  1  0
  4 29  1  0
  4 30  1  0
  8 31  1  0
  8 32  1  0
  9 33  1  6
 10 34  1  0
 11 35  1  0
 11 36  1  0
 12 37  1  6
 13 38  1  0
 14 39  1  0
 14 40  1  0
 15 41  1  0
 15 42  1  0
 16 43  1  0
 16 44  1  0
 18 45  1  0
 19 46  1  0
 21 47  1  0
 24 48  1  0
 25 49  1  0
M  END
>  <smiles>  (1) 
O=C(NCC(=O)N1C[C@H](O)C[C@H]1C1CCC1)c1ccc2cc(F)ccc2n1

>  <score_type>  (1) 
oracle

>  <origin>  (1) 
autodockgpu

>  <m_score__min__energy>  (1) 
-7.7699999999999996

>  <m_primary>  (1) 
energy

>  <rmsd>  (1) 
2.6711457384769286

>  <m_score__min__rmsd>  (1) 
2.6711457384769286

>  <meeko>  (1) 
{"free_energy": -6.84, "intermolecular_energy": -8.63, "internal_energy": -1.98, "cluster_size": 7, "cluster_id": 4, "rank_in_cluster": 7}

>  <energy>  (1) 
-7.77

>  <cluster_rmsd>  (1) 
0.0

>  <cluster>  (1) 
1

$$$$

     RDKit          3D

 49 52  0  0  0  0  0  0  0  0999 V2000
  140.3250   71.3320  221.1230 O   0  0  0  0  0  0  0  0  0  0  0  0
  140.0700   71.8820  222.2330 C   0  0  0  0  0  0  0  0  0  0  0  0
  139.8910   73.2950  222.3480 N   0  0  0  0  0  0  0  0  0  0  0  0
  140.0100   74.0910  221.1480 C   0  0  0  0  0  0  0  0  0  0  0  0
  141.4170   74.4230  220.8340 C   0  0  0  0  0  0  0  0  0  0  0  0
  141.8000   75.5940  221.0730 O   0  0  0  0  0  0  0  0  0  0  0  0
  142.2480   73.4100  220.2840 N   0  0  0  0  0  0  0  0  0  0  0  0
  142.0450   72.6810  219.0600 C   0  0  0  0  0  0  0  0  0  0  0  0
  142.7930   71.3860  219.1940 C   0  0  2  0  0  0  0  0  0  0  0  0
  141.9840   70.2860  218.8980 O   0  0  0  0  0  0  0  0  0  0  0  0
  143.2730   71.3970  220.6000 C   0  0  0  0  0  0  0  0  0  0  0  0
  143.5010   72.8680  220.8330 C   0  0  1  0  0  0  0  0  0  0  0  0
  144.6260   73.4370  220.0480 C   0  0  0  0  0  0  0  0  0  0  0  0
  145.9290   72.6790  220.0800 C   0  0  0  0  0  0  0  0  0  0  0  0
  146.2180   73.3710  221.3990 C   0  0  0  0  0  0  0  0  0  0  0  0
  145.3490   74.5080  220.8410 C   0  0  0  0  0  0  0  0  0  0  0  0
  139.9490   71.0840  223.4500 C   0  0  0  0  0  0  0  0  0  0  0  0
  139.3520   69.8290  223.4050 C   0  0  0  0  0  0  0  0  0  0  0  0
  139.2220   69.0470  224.5460 C   0  0  0  0  0  0  0  0  0  0  0  0
  139.6960   69.5250  225.7580 C   0  0  0  0  0  0  0  0  0  0  0  0
  139.6060   68.8160  226.9300 C   0  0  0  0  0  0  0  0  0  0  0  0
  140.0810   69.3030  228.1270 C   0  0  0  0  0  0  0  0  0  0  0  0
  139.9880   68.5960  229.2740 F   0  0  0  0  0  0  0  0  0  0  0  0
  140.6670   70.5540  228.1250 C   0  0  0  0  0  0  0  0  0  0  0  0
  140.7690   71.2940  226.9430 C   0  0  0  0  0  0  0  0  0  0  0  0
  140.2810   70.7770  225.7530 C   0  0  0  0  0  0  0  0  0  0  0  0
  140.4070   71.5320  224.6520 N   0  0  0  0  0  0  0  0  0  0  0  0
  139.6810   73.7040  223.2970 H   0  0  0  0  0  0  0  0  0  0  0  0
  139.5826   73.5275  220.3055 H   0  0  0  0  0  0  0  0  0  0  0  0
  139.4697   75.0347  221.3141 H   0  0  0  0  0  0  0  0  0  0  0  0
  140.9731   72.4848  218.9100 H   0  0  0  0  0  0  0  0  0  0  0  0
  142.4060   73.2563  218.1947 H   0  0  0  0  0  0  0  0  0  0  0  0
  143.6259   71.2948  218.4813 H   0  0  0  0  0  0  0  0  0  0  0  0
  141.2230   70.3470  219.5270 H   0  0  0  0  0  0  0  0  0  0  0  0
  142.5130   70.9953  221.2864 H   0  0  0  0  0  0  0  0  0  0  0  0
  144.1630   70.7741  220.7731 H   0  0  0  0  0  0  0  0  0  0  0  0
  143.7447   73.0913  221.8822 H   0  0  0  0  0  0  0  0  0  0  0  0
  144.1060   73.5969  219.0920 H   0  0  0  0  0  0  0  0  0  0  0  0
  145.8232   71.5862  220.1481 H   0  0  0  0  0  0  0  0  0  0  0  0
  146.6392   72.7109  219.2406 H   0  0  0  0  0  0  0  0  0  0  0  0
  145.8144   72.8676  222.2899 H   0  0  0  0  0  0  0  0  0  0  0  0
  147.2369   73.5284  221.7825 H   0  0  0  0  0  0  0  0  0  0  0  0
  144.7309   75.0277  221.5879 H   0  0  0  0  0  0  0  0  0  0  0  0
  145.7822   75.4003  220.3654 H   0  0  0  0  0  0  0  0  0  0  0  0
  138.9744   69.4470  222.4451 H   0  0  0  0  0  0  0  0  0  0  0  0
  138.7468   68.0566  224.4882 H   0  0  0  0  0  0  0  0  0  0  0  0
  139.1367   67.8213  226.9121 H   0  0  0  0  0  0  0  0  0  0  0  0
  141.0579   70.9728  229.0641 H   0  0  0  0  0  0  0  0  0  0  0  0
  141.2377   72.2890  226.9575 H   0  0  0  0  0  0  0  0  0  0  0  0
  1  2  2  0
  2  3  1  0
  3  4  1  0
  4  5  1  0
  5  6  2  0
  5  7  1  0
  7  8  1  0
  8  9  1  0
  9 10  1  0
  9 11  1  0
 11 12  1  0
 12 13  1  0
 13 14  1  0
 14 15  1  0
 15 16  1  0
  2 17  1  0
 17 18  2  0
 18 19  1  0
 19 20  2  0
 20 21  1  0
 21 22  2  0
 22 23  1  0
 22 24  1  0
 24 25  2  0
 25 26  1  0
 26 27  2  0
 12  7  1  0
 16 13  1  0
 27 17  1  0
 26 20  1  0
  3 28  1  0
  4 29  1  0
  4 30  1  0
  8 31  1  0
  8 32  1  0
  9 33  1  6
 10 34  1  0
 11 35  1  0
 11 36  1  0
 12 37  1  1
 13 38  1  0
 14 39  1  0
 14 40  1  0
 15 41  1  0
 15 42  1  0
 16 43  1  0
 16 44  1  0
 18 45  1  0
 19 46  1  0
 21 47  1  0
 24 48  1  0
 25 49  1  0
M  END
>  <smiles>  (2) 
O=C(NCC(=O)N1C[C@H](O)C[C@H]1C1CCC1)c1ccc2cc(F)ccc2n1

>  <score_type>  (2) 
oracle

>  <origin>  (2) 
autodockgpu

>  <m_score__min__energy>  (2) 
-7.7699999999999996

>  <m_primary>  (2) 
energy

>  <rmsd>  (2) 
3.214328634408923

>  <m_score__min__rmsd>  (2) 
3.214328634408923

>  <meeko>  (2) 
{"free_energy": -6.91, "intermolecular_energy": -8.7, "internal_energy": -2.37, "cluster_size": 23, "cluster_id": 3, "rank_in_cluster": 9}

>  <energy>  (2) 
-7.74

>  <cluster_rmsd>  (2) 
1.71

>  <cluster>  (2) 
1

$$$$

     RDKit          3D

 49 52  0  0  0  0  0  0  0  0999 V2000
  136.6390   70.7960  223.0660 O   0  0  0  0  0  0  0  0  0  0  0  0
  136.4650   72.0130  223.3580 C   0  0  0  0  0  0  0  0  0  0  0  0
  137.2800   73.0440  222.7960 N   0  0  0  0  0  0  0  0  0  0  0  0
  138.3210   72.6550  221.8740 C   0  0  0  0  0  0  0  0  0  0  0  0
  139.5760   72.2910  222.5670 C   0  0  0  0  0  0  0  0  0  0  0  0
  140.5780   73.0180  222.3650 O   0  0  0  0  0  0  0  0  0  0  0  0
  139.5780   71.1500  223.4130 N   0  0  0  0  0  0  0  0  0  0  0  0
  139.5960   69.7660  223.0170 C   0  0  0  0  0  0  0  0  0  0  0  0
  139.0100   68.9790  224.1540 C   0  0  2  0  0  0  0  0  0  0  0  0
  137.9890   68.1290  223.7250 O   0  0  0  0  0  0  0  0  0  0  0  0
  138.5430   70.0210  225.1040 C   0  0  0  0  0  0  0  0  0  0  0  0
  139.5590   71.1120  224.8850 C   0  0  1  0  0  0  0  0  0  0  0  0
  140.9270   70.7670  225.3490 C   0  0  0  0  0  0  0  0  0  0  0  0
  141.0300   69.7930  226.4950 C   0  0  0  0  0  0  0  0  0  0  0  0
  140.7790   70.9650  227.4240 C   0  0  0  0  0  0  0  0  0  0  0  0
  141.4440   71.8070  226.3240 C   0  0  0  0  0  0  0  0  0  0  0  0
  135.4150   72.4150  224.2900 C   0  0  0  0  0  0  0  0  0  0  0  0
  134.5030   71.4760  224.7610 C   0  0  0  0  0  0  0  0  0  0  0  0
  133.4930   71.8280  225.6480 C   0  0  0  0  0  0  0  0  0  0  0  0
  133.3890   73.1420  226.0750 C   0  0  0  0  0  0  0  0  0  0  0  0
  132.4200   73.5720  226.9490 C   0  0  0  0  0  0  0  0  0  0  0  0
  132.3270   74.8810  227.3640 C   0  0  0  0  0  0  0  0  0  0  0  0
  131.3700   75.2920  228.2240 F   0  0  0  0  0  0  0  0  0  0  0  0
  133.2530   75.7790  226.8710 C   0  0  0  0  0  0  0  0  0  0  0  0
  134.2480   75.3640  225.9800 C   0  0  0  0  0  0  0  0  0  0  0  0
  134.3160   74.0390  225.5790 C   0  0  0  0  0  0  0  0  0  0  0  0
  135.2910   73.7000  224.7230 N   0  0  0  0  0  0  0  0  0  0  0  0
  137.0950   74.0450  223.0730 H   0  0  0  0  0  0  0  0  0  0  0  0
  137.9733   71.7882  221.2929 H   0  0  0  0  0  0  0  0  0  0  0  0
  138.5331   73.5157  221.2226 H   0  0  0  0  0  0  0  0  0  0  0  0
  138.9922   69.6247  222.1084 H   0  0  0  0  0  0  0  0  0  0  0  0
  140.6207   69.4334  222.7950 H   0  0  0  0  0  0  0  0  0  0  0  0
  139.7346   68.2974  224.6235 H   0  0  0  0  0  0  0  0  0  0  0  0
  137.2810   68.7280  223.3780 H   0  0  0  0  0  0  0  0  0  0  0  0
  137.5274   70.3633  224.8562 H   0  0  0  0  0  0  0  0  0  0  0  0
  138.4755   69.6766  226.1465 H   0  0  0  0  0  0  0  0  0  0  0  0
  139.3011   72.0361  225.4231 H   0  0  0  0  0  0  0  0  0  0  0  0
  141.3828   70.5247  224.3776 H   0  0  0  0  0  0  0  0  0  0  0  0
  140.2487   69.0189  226.5112 H   0  0  0  0  0  0  0  0  0  0  0  0
  141.9014   69.1329  226.6176 H   0  0  0  0  0  0  0  0  0  0  0  0
  139.7199   71.1941  227.6130 H   0  0  0  0  0  0  0  0  0  0  0  0
  141.1097   70.9801  228.4730 H   0  0  0  0  0  0  0  0  0  0  0  0
  141.0221   72.8144  226.1933 H   0  0  0  0  0  0  0  0  0  0  0  0
  142.5039   72.0982  226.3661 H   0  0  0  0  0  0  0  0  0  0  0  0
  134.5832   70.4320  224.4239 H   0  0  0  0  0  0  0  0  0  0  0  0
  132.7820   71.0699  226.0081 H   0  0  0  0  0  0  0  0  0  0  0  0
  131.6910   72.8425  227.3315 H   0  0  0  0  0  0  0  0  0  0  0  0
  133.2076   76.8329  227.1827 H   0  0  0  0  0  0  0  0  0  0  0  0
  134.9787   76.0913  225.5964 H   0  0  0  0  0  0  0  0  0  0  0  0
  1  2  2  0
  2  3  1  0
  3  4  1  0
  4  5  1  0
  5  6  2  0
  5  7  1  0
  7  8  1  0
  8  9  1  0
  9 10  1  0
  9 11  1  0
 11 12  1  0
 12 13  1  0
 13 14  1  0
 14 15  1  0
 15 16  1  0
  2 17  1  0
 17 18  2  0
 18 19  1  0
 19 20  2  0
 20 21  1  0
 21 22  2  0
 22 23  1  0
 22 24  1  0
 24 25  2  0
 25 26  1  0
 26 27  2  0
 12  7  1  0
 16 13  1  0
 27 17  1  0
 26 20  1  0
  3 28  1  0
  4 29  1  0
  4 30  1  0
  8 31  1  0
  8 32  1  0
  9 33  1  1
 10 34  1  0
 11 35  1  0
 11 36  1  0
 12 37  1  1
 13 38  1  0
 14 39  1  0
 14 40  1  0
 15 41  1  0
 15 42  1  0
 16 43  1  0
 16 44  1  0
 18 45  1  0
 19 46  1  0
 21 47  1  0
 24 48  1  0
 25 49  1  0
M  END
>  <smiles>  (3) 
O=C(NCC(=O)N1C[C@H](O)C[C@H]1C1CCC1)c1ccc2cc(F)ccc2n1

>  <score_type>  (3) 
oracle

>  <origin>  (3) 
autodockgpu

>  <m_score__min__energy>  (3) 
-7.7699999999999996

>  <m_primary>  (3) 
energy

>  <rmsd>  (3) 
7.247868469586179

>  <m_score__min__rmsd>  (3) 
7.247868469586179

>  <meeko>  (3) 
{"free_energy": -6.42, "intermolecular_energy": -8.21, "internal_energy": -2.5, "cluster_size": 5, "cluster_id": 2, "rank_in_cluster": 5}

>  <energy>  (3) 
-7.72

>  <cluster_rmsd>  (3) 
0.32

>  <cluster>  (3) 
1

$$$$

     RDKit          3D

 49 52  0  0  0  0  0  0  0  0999 V2000
  139.8330   71.4170  221.0180 O   0  0  0  0  0  0  0  0  0  0  0  0
  139.8010   71.9460  222.1650 C   0  0  0  0  0  0  0  0  0  0  0  0
  139.7630   73.3630  222.3380 N   0  0  0  0  0  0  0  0  0  0  0  0
  139.7620   74.1880  221.1530 C   0  0  0  0  0  0  0  0  0  0  0  0
  141.1310   74.4970  220.6830 C   0  0  0  0  0  0  0  0  0  0  0  0
  141.4880   75.7000  220.6990 O   0  0  0  0  0  0  0  0  0  0  0  0
  141.9560   73.4270  220.2460 N   0  0  0  0  0  0  0  0  0  0  0  0
  141.7320   72.5500  219.1270 C   0  0  0  0  0  0  0  0  0  0  0  0
  142.4910   71.2840  219.4040 C   0  0  2  0  0  0  0  0  0  0  0  0
  141.6830   70.1530  219.2660 O   0  0  0  0  0  0  0  0  0  0  0  0
  143.0000   71.4720  220.7880 C   0  0  0  0  0  0  0  0  0  0  0  0
  143.2240   72.9610  220.8310 C   0  0  1  0  0  0  0  0  0  0  0  0
  144.3290   73.4320  219.9570 C   0  0  0  0  0  0  0  0  0  0  0  0
  145.5960   72.6160  219.9620 C   0  0  0  0  0  0  0  0  0  0  0  0
  145.9890   73.3620  221.2230 C   0  0  0  0  0  0  0  0  0  0  0  0
  145.1420   74.5080  220.6490 C   0  0  0  0  0  0  0  0  0  0  0  0
  139.8020   71.1180  223.3690 C   0  0  0  0  0  0  0  0  0  0  0  0
  139.2860   69.8270  223.3290 C   0  0  0  0  0  0  0  0  0  0  0  0
  139.2730   69.0160  224.4570 C   0  0  0  0  0  0  0  0  0  0  0  0
  139.7850   69.5010  225.6500 C   0  0  0  0  0  0  0  0  0  0  0  0
  139.8090   68.7650  226.8100 C   0  0  0  0  0  0  0  0  0  0  0  0
  140.3200   69.2590  227.9890 C   0  0  0  0  0  0  0  0  0  0  0  0
  140.3380   68.5260  229.1230 F   0  0  0  0  0  0  0  0  0  0  0  0
  140.8210   70.5450  227.9830 C   0  0  0  0  0  0  0  0  0  0  0  0
  140.8070   71.3140  226.8140 C   0  0  0  0  0  0  0  0  0  0  0  0
  140.2860   70.7890  225.6420 C   0  0  0  0  0  0  0  0  0  0  0  0
  140.2980   71.5720  224.5530 N   0  0  0  0  0  0  0  0  0  0  0  0
  139.7380   73.7550  223.3180 H   0  0  0  0  0  0  0  0  0  0  0  0
  139.2246   73.6576  220.3531 H   0  0  0  0  0  0  0  0  0  0  0  0
  139.2700   75.1389  221.4052 H   0  0  0  0  0  0  0  0  0  0  0  0
  140.6584   72.3327  219.0261 H   0  0  0  0  0  0  0  0  0  0  0  0
  142.0714   73.0146  218.1894 H   0  0  0  0  0  0  0  0  0  0  0  0
  143.3087   71.1078  218.6896 H   0  0  0  0  0  0  0  0  0  0  0  0
  140.8600   70.3580  219.7760 H   0  0  0  0  0  0  0  0  0  0  0  0
  142.2567   71.1565  221.5350 H   0  0  0  0  0  0  0  0  0  0  0  0
  143.8970   70.8785  221.0185 H   0  0  0  0  0  0  0  0  0  0  0  0
  143.4885   73.3136  221.8388 H   0  0  0  0  0  0  0  0  0  0  0  0
  143.7644   73.5646  219.0223 H   0  0  0  0  0  0  0  0  0  0  0  0
  145.4453   71.5347  220.0963 H   0  0  0  0  0  0  0  0  0  0  0  0
  146.2590   72.5697  219.0855 H   0  0  0  0  0  0  0  0  0  0  0  0
  145.6134   72.9266  222.1608 H   0  0  0  0  0  0  0  0  0  0  0  0
  147.0337   73.4905  221.5426 H   0  0  0  0  0  0  0  0  0  0  0  0
  144.5903   75.0959  221.3974 H   0  0  0  0  0  0  0  0  0  0  0  0
  145.5876   75.3518  220.1018 H   0  0  0  0  0  0  0  0  0  0  0  0
  138.8792   69.4395  222.3833 H   0  0  0  0  0  0  0  0  0  0  0  0
  138.8599   67.9979  224.4036 H   0  0  0  0  0  0  0  0  0  0  0  0
  139.4045   67.7422  226.7961 H   0  0  0  0  0  0  0  0  0  0  0  0
  141.2363   70.9706  228.9084 H   0  0  0  0  0  0  0  0  0  0  0  0
  141.2104   72.3373  226.8253 H   0  0  0  0  0  0  0  0  0  0  0  0
  1  2  2  0
  2  3  1  0
  3  4  1  0
  4  5  1  0
  5  6  2  0
  5  7  1  0
  7  8  1  0
  8  9  1  0
  9 10  1  0
  9 11  1  0
 11 12  1  0
 12 13  1  0
 13 14  1  0
 14 15  1  0
 15 16  1  0
  2 17  1  0
 17 18  2  0
 18 19  1  0
 19 20  2  0
 20 21  1  0
 21 22  2  0
 22 23  1  0
 22 24  1  0
 24 25  2  0
 25 26  1  0
 26 27  2  0
 12  7  1  0
 16 13  1  0
 27 17  1  0
 26 20  1  0
  3 28  1  0
  4 29  1  0
  4 30  1  0
  8 31  1  0
  8 32  1  0
  9 33  1  6
 10 34  1  0
 11 35  1  0
 11 36  1  0
 12 37  1  1
 13 38  1  0
 14 39  1  0
 14 40  1  0
 15 41  1  0
 15 42  1  0
 16 43  1  0
 16 44  1  0
 18 45  1  0
 19 46  1  0
 21 47  1  0
 24 48  1  0
 25 49  1  0
M  END
>  <smiles>  (4) 
O=C(NCC(=O)N1C[C@H](O)C[C@H]1C1CCC1)c1ccc2cc(F)ccc2n1

>  <score_type>  (4) 
oracle

>  <origin>  (4) 
autodockgpu

>  <m_score__min__energy>  (4) 
-7.7699999999999996

>  <m_primary>  (4) 
energy

>  <rmsd>  (4) 
3.124331679326311

>  <m_score__min__rmsd>  (4) 
3.124331679326311

>  <meeko>  (4) 
{"free_energy": -6.72, "intermolecular_energy": -8.51, "internal_energy": -2.5, "cluster_size": 23, "cluster_id": 3, "rank_in_cluster": 20}

>  <energy>  (4) 
-7.7

>  <cluster_rmsd>  (4) 
1.75

>  <cluster>  (4) 
1

$$$$

     RDKit          3D

 49 52  0  0  0  0  0  0  0  0999 V2000
  136.6620   70.8360  223.0670 O   0  0  0  0  0  0  0  0  0  0  0  0
  136.4910   72.0590  223.3360 C   0  0  0  0  0  0  0  0  0  0  0  0
  137.3070   73.0780  222.7550 N   0  0  0  0  0  0  0  0  0  0  0  0
  138.3460   72.6690  221.8380 C   0  0  0  0  0  0  0  0  0  0  0  0
  139.6010   72.3130  222.5360 C   0  0  0  0  0  0  0  0  0  0  0  0
  140.6010   73.0440  222.3320 O   0  0  0  0  0  0  0  0  0  0  0  0
  139.6050   71.1770  223.3890 N   0  0  0  0  0  0  0  0  0  0  0  0
  139.6340   69.7910  223.0000 C   0  0  0  0  0  0  0  0  0  0  0  0
  139.0470   69.0060  224.1370 C   0  0  2  0  0  0  0  0  0  0  0  0
  138.0330   68.1470  223.7070 O   0  0  0  0  0  0  0  0  0  0  0  0
  138.5670   70.0510  225.0790 C   0  0  0  0  0  0  0  0  0  0  0  0
  139.5770   71.1470  224.8600 C   0  0  1  0  0  0  0  0  0  0  0  0
  140.9440   70.8130  225.3350 C   0  0  0  0  0  0  0  0  0  0  0  0
  141.0450   69.8670  226.5040 C   0  0  0  0  0  0  0  0  0  0  0  0
  140.7930   71.0620  227.4040 C   0  0  0  0  0  0  0  0  0  0  0  0
  141.4590   71.8770  226.2850 C   0  0  0  0  0  0  0  0  0  0  0  0
  135.4430   72.4800  224.2620 C   0  0  0  0  0  0  0  0  0  0  0  0
  134.5150   71.5570  224.7330 C   0  0  0  0  0  0  0  0  0  0  0  0
  133.5070   71.9270  225.6140 C   0  0  0  0  0  0  0  0  0  0  0  0
  133.4200   73.2450  226.0350 C   0  0  0  0  0  0  0  0  0  0  0  0
  132.4540   73.6920  226.9030 C   0  0  0  0  0  0  0  0  0  0  0  0
  132.3800   75.0040  227.3140 C   0  0  0  0  0  0  0  0  0  0  0  0
  131.4260   75.4320  228.1680 F   0  0  0  0  0  0  0  0  0  0  0  0
  133.3210   75.8860  226.8220 C   0  0  0  0  0  0  0  0  0  0  0  0
  134.3140   75.4530  225.9360 C   0  0  0  0  0  0  0  0  0  0  0  0
  134.3630   74.1260  225.5410 C   0  0  0  0  0  0  0  0  0  0  0  0
  135.3370   73.7690  224.6900 N   0  0  0  0  0  0  0  0  0  0  0  0
  137.1240   74.0840  223.0130 H   0  0  0  0  0  0  0  0  0  0  0  0
  137.9946   71.7932  221.2728 H   0  0  0  0  0  0  0  0  0  0  0  0
  138.5601   73.5172  221.1711 H   0  0  0  0  0  0  0  0  0  0  0  0
  139.0362   69.6414  222.0888 H   0  0  0  0  0  0  0  0  0  0  0  0
  140.6621   69.4640  222.7855 H   0  0  0  0  0  0  0  0  0  0  0  0
  139.7734   68.3314  224.6136 H   0  0  0  0  0  0  0  0  0  0  0  0
  137.3140   68.7410  223.3740 H   0  0  0  0  0  0  0  0  0  0  0  0
  137.5508   70.3853  224.8231 H   0  0  0  0  0  0  0  0  0  0  0  0
  138.4953   69.7121  226.1230 H   0  0  0  0  0  0  0  0  0  0  0  0
  139.3099   72.0727  225.3908 H   0  0  0  0  0  0  0  0  0  0  0  0
  141.4017   70.5468  224.3709 H   0  0  0  0  0  0  0  0  0  0  0  0
  140.2633   69.0938  226.5378 H   0  0  0  0  0  0  0  0  0  0  0  0
  141.9158   69.2096  226.6439 H   0  0  0  0  0  0  0  0  0  0  0  0
  139.7336   71.2956  227.5862 H   0  0  0  0  0  0  0  0  0  0  0  0
  141.1227   71.1026  228.4527 H   0  0  0  0  0  0  0  0  0  0  0  0
  141.0367   72.8807  226.1290 H   0  0  0  0  0  0  0  0  0  0  0  0
  142.5187   72.1698  226.3215 H   0  0  0  0  0  0  0  0  0  0  0  0
  134.5809   70.5106  224.4003 H   0  0  0  0  0  0  0  0  0  0  0  0
  132.7839   71.1806  225.9746 H   0  0  0  0  0  0  0  0  0  0  0  0
  131.7118   72.9751  227.2840 H   0  0  0  0  0  0  0  0  0  0  0  0
  133.2900   76.9416  227.1300 H   0  0  0  0  0  0  0  0  0  0  0  0
  135.0570   76.1677  225.5525 H   0  0  0  0  0  0  0  0  0  0  0  0
  1  2  2  0
  2  3  1  0
  3  4  1  0
  4  5  1  0
  5  6  2  0
  5  7  1  0
  7  8  1  0
  8  9  1  0
  9 10  1  0
  9 11  1  0
 11 12  1  0
 12 13  1  0
 13 14  1  0
 14 15  1  0
 15 16  1  0
  2 17  1  0
 17 18  2  0
 18 19  1  0
 19 20  2  0
 20 21  1  0
 21 22  2  0
 22 23  1  0
 22 24  1  0
 24 25  2  0
 25 26  1  0
 26 27  2  0
 12  7  1  0
 16 13  1  0
 27 17  1  0
 26 20  1  0
  3 28  1  0
  4 29  1  0
  4 30  1  0
  8 31  1  0
  8 32  1  0
  9 33  1  1
 10 34  1  0
 11 35  1  0
 11 36  1  0
 12 37  1  1
 13 38  1  0
 14 39  1  0
 14 40  1  0
 15 41  1  0
 15 42  1  0
 16 43  1  0
 16 44  1  0
 18 45  1  0
 19 46  1  0
 21 47  1  0
 24 48  1  0
 25 49  1  0
M  END
>  <smiles>  (5) 
O=C(NCC(=O)N1C[C@H](O)C[C@H]1C1CCC1)c1ccc2cc(F)ccc2n1

>  <score_type>  (5) 
oracle

>  <origin>  (5) 
autodockgpu

>  <m_score__min__energy>  (5) 
-7.7699999999999996

>  <m_primary>  (5) 
energy

>  <rmsd>  (5) 
7.241780152497022

>  <m_score__min__rmsd>  (5) 
7.241780152497022

>  <meeko>  (5) 
{"free_energy": -6.42, "intermolecular_energy": -8.21, "internal_energy": -2.47, "cluster_size": 5, "cluster_id": 2, "rank_in_cluster": 4}

>  <energy>  (5) 
-7.69

>  <cluster_rmsd>  (5) 
1.75

>  <cluster>  (5) 
1

$$$$

     RDKit          3D

 49 52  0  0  0  0  0  0  0  0999 V2000
  140.0220   71.0390  221.2900 O   0  0  0  0  0  0  0  0  0  0  0  0
  139.9340   71.5690  222.4350 C   0  0  0  0  0  0  0  0  0  0  0  0
  139.8430   72.9840  222.6020 N   0  0  0  0  0  0  0  0  0  0  0  0
  139.8550   73.8070  221.4150 C   0  0  0  0  0  0  0  0  0  0  0  0
  141.2270   74.1680  220.9970 C   0  0  0  0  0  0  0  0  0  0  0  0
  141.6210   75.3310  221.2550 O   0  0  0  0  0  0  0  0  0  0  0  0
  142.0150   73.1900  220.3330 N   0  0  0  0  0  0  0  0  0  0  0  0
  141.6940   72.4840  219.1200 C   0  0  0  0  0  0  0  0  0  0  0  0
  142.4810   71.2050  219.1380 C   0  0  2  0  0  0  0  0  0  0  0  0
  141.6700   70.0920  218.9050 O   0  0  0  0  0  0  0  0  0  0  0  0
  143.1140   71.1960  220.4820 C   0  0  0  0  0  0  0  0  0  0  0  0
  143.3330   72.6670  220.7260 C   0  0  1  0  0  0  0  0  0  0  0  0
  144.3510   73.2820  219.8360 C   0  0  0  0  0  0  0  0  0  0  0  0
  145.7380   72.6940  219.8820 C   0  0  0  0  0  0  0  0  0  0  0  0
  145.9850   73.5490  221.1100 C   0  0  0  0  0  0  0  0  0  0  0  0
  144.9620   74.5090  220.4840 C   0  0  0  0  0  0  0  0  0  0  0  0
  139.9220   70.7430  223.6400 C   0  0  0  0  0  0  0  0  0  0  0  0
  139.3470   69.4770  223.6130 C   0  0  0  0  0  0  0  0  0  0  0  0
  139.3200   68.6700  224.7430 C   0  0  0  0  0  0  0  0  0  0  0  0
  139.8780   69.1330  225.9250 C   0  0  0  0  0  0  0  0  0  0  0  0
  139.8920   68.3970  227.0850 C   0  0  0  0  0  0  0  0  0  0  0  0
  140.4490   68.8700  228.2530 C   0  0  0  0  0  0  0  0  0  0  0  0
  140.4570   68.1380  229.3880 F   0  0  0  0  0  0  0  0  0  0  0  0
  141.0080   70.1320  228.2340 C   0  0  0  0  0  0  0  0  0  0  0  0
  141.0050   70.8990  227.0630 C   0  0  0  0  0  0  0  0  0  0  0  0
  140.4370   70.3960  225.9030 C   0  0  0  0  0  0  0  0  0  0  0  0
  140.4620   71.1760  224.8130 N   0  0  0  0  0  0  0  0  0  0  0  0
  139.7720   73.3770  223.5790 H   0  0  0  0  0  0  0  0  0  0  0  0
  139.3695   73.2550  220.5967 H   0  0  0  0  0  0  0  0  0  0  0  0
  139.3170   74.7384  221.6454 H   0  0  0  0  0  0  0  0  0  0  0  0
  140.6167   72.2647  219.0838 H   0  0  0  0  0  0  0  0  0  0  0  0
  141.9443   73.0877  218.2352 H   0  0  0  0  0  0  0  0  0  0  0  0
  143.2313   71.1512  218.3354 H   0  0  0  0  0  0  0  0  0  0  0  0
  140.8840   70.2170  219.4940 H   0  0  0  0  0  0  0  0  0  0  0  0
  142.4445   70.7594  221.2377 H   0  0  0  0  0  0  0  0  0  0  0  0
  144.0317   70.5922  220.5395 H   0  0  0  0  0  0  0  0  0  0  0  0
  143.6864   72.8722  221.7473 H   0  0  0  0  0  0  0  0  0  0  0  0
  143.7826   73.2774  218.8942 H   0  0  0  0  0  0  0  0  0  0  0  0
  145.7712   71.6096  220.0633 H   0  0  0  0  0  0  0  0  0  0  0  0
  146.4090   72.7235  219.0109 H   0  0  0  0  0  0  0  0  0  0  0  0
  145.6789   73.0964  222.0647 H   0  0  0  0  0  0  0  0  0  0  0  0
  146.9893   73.8668  221.4269 H   0  0  0  0  0  0  0  0  0  0  0  0
  144.3104   75.0253  221.2043 H   0  0  0  0  0  0  0  0  0  0  0  0
  145.2638   75.3926  219.9025 H   0  0  0  0  0  0  0  0  0  0  0  0
  138.9041   69.1069  222.6766 H   0  0  0  0  0  0  0  0  0  0  0  0
  138.8598   67.6718  224.7007 H   0  0  0  0  0  0  0  0  0  0  0  0
  139.4420   67.3933  227.0811 H   0  0  0  0  0  0  0  0  0  0  0  0
  141.4611   70.5397  229.1497 H   0  0  0  0  0  0  0  0  0  0  0  0
  141.4544   71.9030  227.0634 H   0  0  0  0  0  0  0  0  0  0  0  0
  1  2  2  0
  2  3  1  0
  3  4  1  0
  4  5  1  0
  5  6  2  0
  5  7  1  0
  7  8  1  0
  8  9  1  0
  9 10  1  0
  9 11  1  0
 11 12  1  0
 12 13  1  0
 13 14  1  0
 14 15  1  0
 15 16  1  0
  2 17  1  0
 17 18  2  0
 18 19  1  0
 19 20  2  0
 20 21  1  0
 21 22  2  0
 22 23  1  0
 22 24  1  0
 24 25  2  0
 25 26  1  0
 26 27  2  0
 12  7  1  0
 16 13  1  0
 27 17  1  0
 26 20  1  0
  3 28  1  0
  4 29  1  0
  4 30  1  0
  8 31  1  0
  8 32  1  0
  9 33  1  6
 10 34  1  0
 11 35  1  0
 11 36  1  0
 12 37  1  1
 13 38  1  0
 14 39  1  0
 14 40  1  0
 15 41  1  0
 15 42  1  0
 16 43  1  0
 16 44  1  0
 18 45  1  0
 19 46  1  0
 21 47  1  0
 24 48  1  0
 25 49  1  0
M  END
>  <smiles>  (6) 
O=C(NCC(=O)N1C[C@H](O)C[C@H]1C1CCC1)c1ccc2cc(F)ccc2n1

>  <score_type>  (6) 
oracle

>  <origin>  (6) 
autodockgpu

>  <m_score__min__energy>  (6) 
-7.7699999999999996

>  <m_primary>  (6) 
energy

>  <rmsd>  (6) 
3.1906569969395218

>  <m_score__min__rmsd>  (6) 
3.1906569969395218

>  <meeko>  (6) 
{"free_energy": -6.83, "intermolecular_energy": -8.62, "internal_energy": -2.41, "cluster_size": 23, "cluster_id": 3, "rank_in_cluster": 17}

>  <energy>  (6) 
-7.56

>  <cluster_rmsd>  (6) 
1.74

>  <cluster>  (6) 
1

$$$$

     RDKit          3D

 49 52  0  0  0  0  0  0  0  0999 V2000
  140.8220   71.8590  221.0790 O   0  0  0  0  0  0  0  0  0  0  0  0
  140.3510   72.3400  222.1490 C   0  0  0  0  0  0  0  0  0  0  0  0
  139.9390   73.7040  222.2420 N   0  0  0  0  0  0  0  0  0  0  0  0
  140.0760   74.5330  221.0670 C   0  0  0  0  0  0  0  0  0  0  0  0
  141.2640   75.4120  221.1360 C   0  0  0  0  0  0  0  0  0  0  0  0
  142.3760   74.9000  220.8580 O   0  0  0  0  0  0  0  0  0  0  0  0
  141.0830   76.7700  221.5100 N   0  0  0  0  0  0  0  0  0  0  0  0
  141.7780   77.9200  220.9920 C   0  0  0  0  0  0  0  0  0  0  0  0
  141.6980   78.9890  222.0430 C   0  0  2  0  0  0  0  0  0  0  0  0
  142.9560   79.5190  222.3420 O   0  0  0  0  0  0  0  0  0  0  0  0
  141.0640   78.3030  223.1990 C   0  0  0  0  0  0  0  0  0  0  0  0
  140.1540   77.3210  222.5090 C   0  0  1  0  0  0  0  0  0  0  0  0
  139.0240   77.9520  221.7820 C   0  0  0  0  0  0  0  0  0  0  0  0
  137.9220   78.5470  222.6210 C   0  0  0  0  0  0  0  0  0  0  0  0
  137.3470   77.1480  222.7340 C   0  0  0  0  0  0  0  0  0  0  0  0
  138.0020   76.9120  221.3650 C   0  0  0  0  0  0  0  0  0  0  0  0
  140.2100   71.5080  223.3410 C   0  0  0  0  0  0  0  0  0  0  0  0
  139.5920   70.2650  223.2560 C   0  0  0  0  0  0  0  0  0  0  0  0
  139.4430   69.4520  224.3730 C   0  0  0  0  0  0  0  0  0  0  0  0
  139.9190   69.8860  225.6000 C   0  0  0  0  0  0  0  0  0  0  0  0
  139.8110   69.1430  226.7510 C   0  0  0  0  0  0  0  0  0  0  0  0
  140.2890   69.5870  227.9640 C   0  0  0  0  0  0  0  0  0  0  0  0
  140.1770   68.8480  229.0890 F   0  0  0  0  0  0  0  0  0  0  0  0
  140.8950   70.8270  228.0020 C   0  0  0  0  0  0  0  0  0  0  0  0
  141.0150   71.6000  226.8420 C   0  0  0  0  0  0  0  0  0  0  0  0
  140.5250   71.1270  225.6360 C   0  0  0  0  0  0  0  0  0  0  0  0
  140.6690   71.9130  224.5580 N   0  0  0  0  0  0  0  0  0  0  0  0
  139.5530   74.0570  223.1590 H   0  0  0  0  0  0  0  0  0  0  0  0
  140.1675   73.8832  220.1842 H   0  0  0  0  0  0  0  0  0  0  0  0
  139.1853   75.1752  221.0023 H   0  0  0  0  0  0  0  0  0  0  0  0
  142.8291   77.6669  220.7893 H   0  0  0  0  0  0  0  0  0  0  0  0
  141.3260   78.2610  220.0489 H   0  0  0  0  0  0  0  0  0  0  0  0
  141.1166   79.8656  221.7211 H   0  0  0  0  0  0  0  0  0  0  0  0
  143.6050   78.8650  221.9790 H   0  0  0  0  0  0  0  0  0  0  0  0
  141.8123   77.7885  223.8198 H   0  0  0  0  0  0  0  0  0  0  0  0
  140.5454   78.9820  223.8919 H   0  0  0  0  0  0  0  0  0  0  0  0
  139.6823   76.6224  223.2157 H   0  0  0  0  0  0  0  0  0  0  0  0
  139.5979   78.5905  221.0943 H   0  0  0  0  0  0  0  0  0  0  0  0
  138.2554   78.9847  223.5735 H   0  0  0  0  0  0  0  0  0  0  0  0
  137.3176   79.3951  222.2669 H   0  0  0  0  0  0  0  0  0  0  0  0
  137.7514   76.5408  223.5573 H   0  0  0  0  0  0  0  0  0  0  0  0
  136.2828   76.9514  222.9312 H   0  0  0  0  0  0  0  0  0  0  0  0
  138.4063   75.9003  221.2134 H   0  0  0  0  0  0  0  0  0  0  0  0
  137.4388   76.9856  220.4230 H   0  0  0  0  0  0  0  0  0  0  0  0
  139.2129   69.9179  222.2834 H   0  0  0  0  0  0  0  0  0  0  0  0
  138.9513   68.4721  224.2840 H   0  0  0  0  0  0  0  0  0  0  0  0
  139.3249   68.1574  226.7017 H   0  0  0  0  0  0  0  0  0  0  0  0
  141.2878   71.2114  228.9548 H   0  0  0  0  0  0  0  0  0  0  0  0
  141.4999   72.5863  226.8879 H   0  0  0  0  0  0  0  0  0  0  0  0
  1  2  2  0
  2  3  1  0
  3  4  1  0
  4  5  1  0
  5  6  2  0
  5  7  1  0
  7  8  1  0
  8  9  1  0
  9 10  1  0
  9 11  1  0
 11 12  1  0
 12 13  1  0
 13 14  1  0
 14 15  1  0
 15 16  1  0
  2 17  1  0
 17 18  2  0
 18 19  1  0
 19 20  2  0
 20 21  1  0
 21 22  2  0
 22 23  1  0
 22 24  1  0
 24 25  2  0
 25 26  1  0
 26 27  2  0
 12  7  1  0
 16 13  1  0
 27 17  1  0
 26 20  1  0
  3 28  1  0
  4 29  1  0
  4 30  1  0
  8 31  1  0
  8 32  1  0
  9 33  1  6
 10 34  1  0
 11 35  1  0
 11 36  1  0
 12 37  1  1
 13 38  1  0
 14 39  1  0
 14 40  1  0
 15 41  1  0
 15 42  1  0
 16 43  1  0
 16 44  1  0
 18 45  1  0
 19 46  1  0
 21 47  1  0
 24 48  1  0
 25 49  1  0
M  END
>  <smiles>  (7) 
O=C(NCC(=O)N1C[C@H](O)C[C@H]1C1CCC1)c1ccc2cc(F)ccc2n1

>  <score_type>  (7) 
oracle

>  <origin>  (7) 
autodockgpu

>  <m_score__min__energy>  (7) 
-7.7699999999999996

>  <m_primary>  (7) 
energy

>  <rmsd>  (7) 
2.9214489309591944

>  <m_score__min__rmsd>  (7) 
2.9214489309591944

>  <meeko>  (7) 
{"free_energy": -7.69, "intermolecular_energy": -9.48, "internal_energy": -1.32, "cluster_size": 13, "cluster_id": 1, "rank_in_cluster": 5}

>  <energy>  (7) 
-7.52

>  <cluster_rmsd>  (7) 
1.89

>  <cluster>  (7) 
1

$$$$

     RDKit          3D

 49 52  0  0  0  0  0  0  0  0999 V2000
  140.0920   71.0430  221.1900 O   0  0  0  0  0  0  0  0  0  0  0  0
  139.9950   71.5800  222.3300 C   0  0  0  0  0  0  0  0  0  0  0  0
  139.9300   72.9980  222.4900 N   0  0  0  0  0  0  0  0  0  0  0  0
  139.9790   73.8150  221.2990 C   0  0  0  0  0  0  0  0  0  0  0  0
  141.3640   74.1570  220.9110 C   0  0  0  0  0  0  0  0  0  0  0  0
  141.7640   75.3190  221.1680 O   0  0  0  0  0  0  0  0  0  0  0  0
  142.1570   73.1640  220.2760 N   0  0  0  0  0  0  0  0  0  0  0  0
  141.8670   72.4630  219.0530 C   0  0  0  0  0  0  0  0  0  0  0  0
  142.6300   71.1700  219.1000 C   0  0  2  0  0  0  0  0  0  0  0  0
  141.8080   70.0720  218.8390 O   0  0  0  0  0  0  0  0  0  0  0  0
  143.2140   71.1520  220.4660 C   0  0  0  0  0  0  0  0  0  0  0  0
  143.4510   72.6180  220.7170 C   0  0  1  0  0  0  0  0  0  0  0  0
  144.5110   73.2140  219.8640 C   0  0  0  0  0  0  0  0  0  0  0  0
  145.8990   72.6450  220.0080 C   0  0  0  0  0  0  0  0  0  0  0  0
  146.0680   73.5460  221.2160 C   0  0  0  0  0  0  0  0  0  0  0  0
  145.0720   74.4710  220.5000 C   0  0  0  0  0  0  0  0  0  0  0  0
  139.9450   70.7610  223.5380 C   0  0  0  0  0  0  0  0  0  0  0  0
  139.3300   69.5140  223.5120 C   0  0  0  0  0  0  0  0  0  0  0  0
  139.2670   68.7120  224.6450 C   0  0  0  0  0  0  0  0  0  0  0  0
  139.8290   69.1620  225.8290 C   0  0  0  0  0  0  0  0  0  0  0  0
  139.8090   68.4320  226.9930 C   0  0  0  0  0  0  0  0  0  0  0  0
  140.3700   68.8910  228.1630 C   0  0  0  0  0  0  0  0  0  0  0  0
  140.3450   68.1640  229.3010 F   0  0  0  0  0  0  0  0  0  0  0  0
  140.9710   70.1340  228.1440 C   0  0  0  0  0  0  0  0  0  0  0  0
  141.0030   70.8960  226.9710 C   0  0  0  0  0  0  0  0  0  0  0  0
  140.4290   70.4070  225.8080 C   0  0  0  0  0  0  0  0  0  0  0  0
  140.4890   71.1810  224.7140 N   0  0  0  0  0  0  0  0  0  0  0  0
  139.8500   73.3970  223.4640 H   0  0  0  0  0  0  0  0  0  0  0  0
  139.5056   73.2647  220.4726 H   0  0  0  0  0  0  0  0  0  0  0  0
  139.4472   74.7540  221.5124 H   0  0  0  0  0  0  0  0  0  0  0  0
  140.7879   72.2630  218.9783 H   0  0  0  0  0  0  0  0  0  0  0  0
  142.1594   73.0612  218.1774 H   0  0  0  0  0  0  0  0  0  0  0  0
  143.4076   71.1012  218.3251 H   0  0  0  0  0  0  0  0  0  0  0  0
  141.0650   70.1450  219.4880 H   0  0  0  0  0  0  0  0  0  0  0  0
  142.5098   70.7288  221.1975 H   0  0  0  0  0  0  0  0  0  0  0  0
  144.1180   70.5319  220.5566 H   0  0  0  0  0  0  0  0  0  0  0  0
  143.7715   72.8178  221.7501 H   0  0  0  0  0  0  0  0  0  0  0  0
  143.9962   73.1693  218.8929 H   0  0  0  0  0  0  0  0  0  0  0  0
  145.9331   71.5682  220.2299 H   0  0  0  0  0  0  0  0  0  0  0  0
  146.6174   72.6517  219.1750 H   0  0  0  0  0  0  0  0  0  0  0  0
  145.7134   73.1238  222.1679 H   0  0  0  0  0  0  0  0  0  0  0  0
  147.0497   73.8870  221.5765 H   0  0  0  0  0  0  0  0  0  0  0  0
  144.3758   75.0046  221.1638 H   0  0  0  0  0  0  0  0  0  0  0  0
  145.3966   75.3372  219.9047 H   0  0  0  0  0  0  0  0  0  0  0  0
  138.8833   69.1544  222.5733 H   0  0  0  0  0  0  0  0  0  0  0  0
  138.7755   67.7288  224.6024 H   0  0  0  0  0  0  0  0  0  0  0  0
  139.3264   67.4435  226.9896 H   0  0  0  0  0  0  0  0  0  0  0  0
  141.4300   70.5298  229.0619 H   0  0  0  0  0  0  0  0  0  0  0  0
  141.4846   71.8850  226.9718 H   0  0  0  0  0  0  0  0  0  0  0  0
  1  2  2  0
  2  3  1  0
  3  4  1  0
  4  5  1  0
  5  6  2  0
  5  7  1  0
  7  8  1  0
  8  9  1  0
  9 10  1  0
  9 11  1  0
 11 12  1  0
 12 13  1  0
 13 14  1  0
 14 15  1  0
 15 16  1  0
  2 17  1  0
 17 18  2  0
 18 19  1  0
 19 20  2  0
 20 21  1  0
 21 22  2  0
 22 23  1  0
 22 24  1  0
 24 25  2  0
 25 26  1  0
 26 27  2  0
 12  7  1  0
 16 13  1  0
 27 17  1  0
 26 20  1  0
  3 28  1  0
  4 29  1  0
  4 30  1  0
  8 31  1  0
  8 32  1  0
  9 33  1  6
 10 34  1  0
 11 35  1  0
 11 36  1  0
 12 37  1  1
 13 38  1  0
 14 39  1  0
 14 40  1  0
 15 41  1  0
 15 42  1  0
 16 43  1  0
 16 44  1  0
 18 45  1  0
 19 46  1  0
 21 47  1  0
 24 48  1  0
 25 49  1  0
M  END
>  <smiles>  (8) 
O=C(NCC(=O)N1C[C@H](O)C[C@H]1C1CCC1)c1ccc2cc(F)ccc2n1

>  <score_type>  (8) 
oracle

>  <origin>  (8) 
autodockgpu

>  <m_score__min__energy>  (8) 
-7.7699999999999996

>  <m_primary>  (8) 
energy

>  <rmsd>  (8) 
3.2486125740797607

>  <m_score__min__rmsd>  (8) 
3.2486125740797607

>  <meeko>  (8) 
{"free_energy": -6.85, "intermolecular_energy": -8.64, "internal_energy": -2.42, "cluster_size": 23, "cluster_id": 3, "rank_in_cluster": 14}

>  <energy>  (8) 
-7.52

>  <cluster_rmsd>  (8) 
1.71

>  <cluster>  (8) 
1

$$$$

     RDKit          3D

 49 52  0  0  0  0  0  0  0  0999 V2000
  141.3260   72.6410  221.7080 O   0  0  0  0  0  0  0  0  0  0  0  0
  140.3230   72.6430  222.4770 C   0  0  0  0  0  0  0  0  0  0  0  0
  139.2800   73.6110  222.3500 N   0  0  0  0  0  0  0  0  0  0  0  0
  139.4020   74.6010  221.3050 C   0  0  0  0  0  0  0  0  0  0  0  0
  140.1810   75.7810  221.7390 C   0  0  0  0  0  0  0  0  0  0  0  0
  141.4300   75.6660  221.7760 O   0  0  0  0  0  0  0  0  0  0  0  0
  139.4800   76.9670  222.0880 N   0  0  0  0  0  0  0  0  0  0  0  0
  138.1850   77.0680  222.7080 C   0  0  0  0  0  0  0  0  0  0  0  0
  137.6310   78.4150  222.3450 C   0  0  2  0  0  0  0  0  0  0  0  0
  136.3430   78.3210  221.8130 O   0  0  0  0  0  0  0  0  0  0  0  0
  138.6220   78.9590  221.3810 C   0  0  0  0  0  0  0  0  0  0  0  0
  139.9070   78.3630  221.8950 C   0  0  1  0  0  0  0  0  0  0  0  0
  140.3350   78.8940  223.2140 C   0  0  0  0  0  0  0  0  0  0  0  0
  140.7260   80.3490  223.2660 C   0  0  0  0  0  0  0  0  0  0  0  0
  142.0900   79.9280  222.7530 C   0  0  0  0  0  0  0  0  0  0  0  0
  141.8010   78.5980  223.4650 C   0  0  0  0  0  0  0  0  0  0  0  0
  140.1930   71.6460  223.5360 C   0  0  0  0  0  0  0  0  0  0  0  0
  139.5790   70.4250  223.2740 C   0  0  0  0  0  0  0  0  0  0  0  0
  139.4410   69.4570  224.2610 C   0  0  0  0  0  0  0  0  0  0  0  0
  139.9240   69.7090  225.5350 C   0  0  0  0  0  0  0  0  0  0  0  0
  139.8260   68.8060  226.5660 C   0  0  0  0  0  0  0  0  0  0  0  0
  140.3100   69.0700  227.8270 C   0  0  0  0  0  0  0  0  0  0  0  0
  140.2090   68.1730  228.8330 F   0  0  0  0  0  0  0  0  0  0  0  0
  140.9120   70.2930  228.0430 C   0  0  0  0  0  0  0  0  0  0  0  0
  141.0220   71.2280  227.0080 C   0  0  0  0  0  0  0  0  0  0  0  0
  140.5250   70.9350  225.7480 C   0  0  0  0  0  0  0  0  0  0  0  0
  140.6590   71.8700  224.7960 N   0  0  0  0  0  0  0  0  0  0  0  0
  138.4650   73.5700  223.0180 H   0  0  0  0  0  0  0  0  0  0  0  0
  139.9052   74.1431  220.4407 H   0  0  0  0  0  0  0  0  0  0  0  0
  138.3893   74.9429  221.0449 H   0  0  0  0  0  0  0  0  0  0  0  0
  137.5232   76.2734  222.3330 H   0  0  0  0  0  0  0  0  0  0  0  0
  138.2614   76.9551  223.7995 H   0  0  0  0  0  0  0  0  0  0  0  0
  137.5052   79.0760  223.2152 H   0  0  0  0  0  0  0  0  0  0  0  0
  136.0990   79.2460  221.5580 H   0  0  0  0  0  0  0  0  0  0  0  0
  138.4078   78.6259  220.3548 H   0  0  0  0  0  0  0  0  0  0  0  0
  138.6313   80.0574  221.3221 H   0  0  0  0  0  0  0  0  0  0  0  0
  140.7552   78.5564  221.2218 H   0  0  0  0  0  0  0  0  0  0  0  0
  139.4992   78.5265  223.8274 H   0  0  0  0  0  0  0  0  0  0  0  0
  140.1602   81.0013  222.5846 H   0  0  0  0  0  0  0  0  0  0  0  0
  140.6102   80.9482  224.1812 H   0  0  0  0  0  0  0  0  0  0  0  0
  142.1787   79.8632  221.6585 H   0  0  0  0  0  0  0  0  0  0  0  0
  143.0034   80.5153  222.9284 H   0  0  0  0  0  0  0  0  0  0  0  0
  142.1875   77.7047  222.9525 H   0  0  0  0  0  0  0  0  0  0  0  0
  142.1921   78.3700  224.4675 H   0  0  0  0  0  0  0  0  0  0  0  0
  139.1946   70.2219  222.2636 H   0  0  0  0  0  0  0  0  0  0  0  0
  138.9522   68.4983  224.0329 H   0  0  0  0  0  0  0  0  0  0  0  0
  139.3428   67.8362  226.3765 H   0  0  0  0  0  0  0  0  0  0  0  0
  141.3096   70.5353  229.0396 H   0  0  0  0  0  0  0  0  0  0  0  0
  141.5045   72.1987  227.1950 H   0  0  0  0  0  0  0  0  0  0  0  0
  1  2  2  0
  2  3  1  0
  3  4  1  0
  4  5  1  0
  5  6  2  0
  5  7  1  0
  7  8  1  0
  8  9  1  0
  9 10  1  0
  9 11  1  0
 11 12  1  0
 12 13  1  0
 13 14  1  0
 14 15  1  0
 15 16  1  0
  2 17  1  0
 17 18  2  0
 18 19  1  0
 19 20  2  0
 20 21  1  0
 21 22  2  0
 22 23  1  0
 22 24  1  0
 24 25  2  0
 25 26  1  0
 26 27  2  0
 12  7  1  0
 16 13  1  0
 27 17  1  0
 26 20  1  0
  3 28  1  0
  4 29  1  0
  4 30  1  0
  8 31  1  0
  8 32  1  0
  9 33  1  1
 10 34  1  0
 11 35  1  0
 11 36  1  0
 12 37  1  6
 13 38  1  0
 14 39  1  0
 14 40  1  0
 15 41  1  0
 15 42  1  0
 16 43  1  0
 16 44  1  0
 18 45  1  0
 19 46  1  0
 21 47  1  0
 24 48  1  0
 25 49  1  0
M  END
>  <smiles>  (9) 
O=C(NCC(=O)N1C[C@H](O)C[C@H]1C1CCC1)c1ccc2cc(F)ccc2n1

>  <score_type>  (9) 
oracle

>  <origin>  (9) 
autodockgpu

>  <m_score__min__energy>  (9) 
-7.7699999999999996

>  <m_primary>  (9) 
energy

>  <rmsd>  (9) 
2.8143002888266886

>  <m_score__min__rmsd>  (9) 
2.8143002888266886

>  <meeko>  (9) 
{"free_energy": -7.72, "intermolecular_energy": -9.51, "internal_energy": -1.14, "cluster_size": 13, "cluster_id": 1, "rank_in_cluster": 3}

>  <energy>  (9) 
-7.52

>  <cluster_rmsd>  (9) 
1.77

>  <cluster>  (9) 
1

$$$$

     RDKit          3D

 49 52  0  0  0  0  0  0  0  0999 V2000
  140.3080   71.3720  221.1020 O   0  0  0  0  0  0  0  0  0  0  0  0
  140.0670   71.9120  222.2190 C   0  0  0  0  0  0  0  0  0  0  0  0
  139.9010   73.3250  222.3500 N   0  0  0  0  0  0  0  0  0  0  0  0
  140.0170   74.1320  221.1580 C   0  0  0  0  0  0  0  0  0  0  0  0
  141.4230   74.4550  220.8350 C   0  0  0  0  0  0  0  0  0  0  0  0
  141.8220   75.6170  221.0950 O   0  0  0  0  0  0  0  0  0  0  0  0
  142.2370   73.4460  220.2540 N   0  0  0  0  0  0  0  0  0  0  0  0
  142.0290   72.7670  219.0020 C   0  0  0  0  0  0  0  0  0  0  0  0
  142.7470   71.4510  219.0930 C   0  0  2  0  0  0  0  0  0  0  0  0
  141.9170   70.3810  218.7510 O   0  0  0  0  0  0  0  0  0  0  0  0
  143.2140   71.4000  220.5030 C   0  0  0  0  0  0  0  0  0  0  0  0
  143.4730   72.8550  220.7930 C   0  0  1  0  0  0  0  0  0  0  0  0
  144.6170   73.4280  220.0380 C   0  0  0  0  0  0  0  0  0  0  0  0
  145.9250   72.6830  220.1180 C   0  0  0  0  0  0  0  0  0  0  0  0
  146.1660   73.3880  221.4390 C   0  0  0  0  0  0  0  0  0  0  0  0
  145.3050   74.5130  220.8440 C   0  0  0  0  0  0  0  0  0  0  0  0
  139.9490   71.1020  223.4290 C   0  0  0  0  0  0  0  0  0  0  0  0
  139.3570   69.8450  223.3730 C   0  0  0  0  0  0  0  0  0  0  0  0
  139.2300   69.0530  224.5070 C   0  0  0  0  0  0  0  0  0  0  0  0
  139.7030   69.5220  225.7220 C   0  0  0  0  0  0  0  0  0  0  0  0
  139.6160   68.8010  226.8890 C   0  0  0  0  0  0  0  0  0  0  0  0
  140.0900   69.2800  228.0900 C   0  0  0  0  0  0  0  0  0  0  0  0
  139.9990   68.5620  229.2310 F   0  0  0  0  0  0  0  0  0  0  0  0
  140.6700   70.5320  228.0990 C   0  0  0  0  0  0  0  0  0  0  0  0
  140.7700   71.2840  226.9240 C   0  0  0  0  0  0  0  0  0  0  0  0
  140.2830   70.7760  225.7290 C   0  0  0  0  0  0  0  0  0  0  0  0
  140.4060   71.5420  224.6350 N   0  0  0  0  0  0  0  0  0  0  0  0
  139.7020   73.7260  223.3050 H   0  0  0  0  0  0  0  0  0  0  0  0
  139.5774   73.5811  220.3135 H   0  0  0  0  0  0  0  0  0  0  0  0
  139.4868   75.0786  221.3390 H   0  0  0  0  0  0  0  0  0  0  0  0
  140.9544   72.6006  218.8362 H   0  0  0  0  0  0  0  0  0  0  0  0
  142.4108   73.3658  218.1619 H   0  0  0  0  0  0  0  0  0  0  0  0
  143.5833   71.3673  218.3834 H   0  0  0  0  0  0  0  0  0  0  0  0
  141.1710   70.4140  219.4000 H   0  0  0  0  0  0  0  0  0  0  0  0
  142.4387   70.9908  221.1674 H   0  0  0  0  0  0  0  0  0  0  0  0
  144.0884   70.7514  220.6601 H   0  0  0  0  0  0  0  0  0  0  0  0
  143.7126   73.0326  221.8518 H   0  0  0  0  0  0  0  0  0  0  0  0
  144.1259   73.5745  219.0647 H   0  0  0  0  0  0  0  0  0  0  0  0
  145.8271   71.5899  220.1920 H   0  0  0  0  0  0  0  0  0  0  0  0
  146.6611   72.7150  219.3012 H   0  0  0  0  0  0  0  0  0  0  0  0
  145.7388   72.8883  222.3209 H   0  0  0  0  0  0  0  0  0  0  0  0
  147.1708   73.5576  221.8531 H   0  0  0  0  0  0  0  0  0  0  0  0
  144.6590   75.0333  221.5665 H   0  0  0  0  0  0  0  0  0  0  0  0
  145.7450   75.4053  220.3747 H   0  0  0  0  0  0  0  0  0  0  0  0
  138.9811   69.4697  222.4097 H   0  0  0  0  0  0  0  0  0  0  0  0
  138.7578   68.0617  224.4410 H   0  0  0  0  0  0  0  0  0  0  0  0
  139.1506   67.8047  226.8627 H   0  0  0  0  0  0  0  0  0  0  0  0
  141.0586   70.9438  229.0421 H   0  0  0  0  0  0  0  0  0  0  0  0
  141.2358   72.2802  226.9478 H   0  0  0  0  0  0  0  0  0  0  0  0
  1  2  2  0
  2  3  1  0
  3  4  1  0
  4  5  1  0
  5  6  2  0
  5  7  1  0
  7  8  1  0
  8  9  1  0
  9 10  1  0
  9 11  1  0
 11 12  1  0
 12 13  1  0
 13 14  1  0
 14 15  1  0
 15 16  1  0
  2 17  1  0
 17 18  2  0
 18 19  1  0
 19 20  2  0
 20 21  1  0
 21 22  2  0
 22 23  1  0
 22 24  1  0
 24 25  2  0
 25 26  1  0
 26 27  2  0
 12  7  1  0
 16 13  1  0
 27 17  1  0
 26 20  1  0
  3 28  1  0
  4 29  1  0
  4 30  1  0
  8 31  1  0
  8 32  1  0
  9 33  1  6
 10 34  1  0
 11 35  1  0
 11 36  1  0
 12 37  1  1
 13 38  1  0
 14 39  1  0
 14 40  1  0
 15 41  1  0
 15 42  1  0
 16 43  1  0
 16 44  1  0
 18 45  1  0
 19 46  1  0
 21 47  1  0
 24 48  1  0
 25 49  1  0
M  END
>  <smiles>  (10) 
O=C(NCC(=O)N1C[C@H](O)C[C@H]1C1CCC1)c1ccc2cc(F)ccc2n1

>  <score_type>  (10) 
oracle

>  <origin>  (10) 
autodockgpu

>  <m_score__min__energy>  (10) 
-7.7699999999999996

>  <m_primary>  (10) 
energy

>  <rmsd>  (10) 
3.1883228082544264

>  <m_score__min__rmsd>  (10) 
3.1883228082544264

>  <meeko>  (10) 
{"free_energy": -6.9, "intermolecular_energy": -8.69, "internal_energy": -2.38, "cluster_size": 23, "cluster_id": 3, "rank_in_cluster": 10}

>  <energy>  (10) 
-7.42

>  <cluster_rmsd>  (10) 
1.94

>  <cluster>  (10) 
1

$$$$

     RDKit          3D

 49 52  0  0  0  0  0  0  0  0999 V2000
  141.1530   72.1230  221.3190 O   0  0  0  0  0  0  0  0  0  0  0  0
  140.4390   72.4710  222.3020 C   0  0  0  0  0  0  0  0  0  0  0  0
  139.8000   73.7480  222.3520 N   0  0  0  0  0  0  0  0  0  0  0  0
  139.9940   74.6440  221.2350 C   0  0  0  0  0  0  0  0  0  0  0  0
  139.6470   76.0420  221.5720 C   0  0  0  0  0  0  0  0  0  0  0  0
  138.8020   76.2230  222.4830 O   0  0  0  0  0  0  0  0  0  0  0  0
  140.2830   77.0910  220.8560 N   0  0  0  0  0  0  0  0  0  0  0  0
  139.8330   77.7180  219.6400 C   0  0  0  0  0  0  0  0  0  0  0  0
  141.0470   78.3010  218.9750 C   0  0  2  0  0  0  0  0  0  0  0  0
  141.1490   77.9030  217.6400 O   0  0  0  0  0  0  0  0  0  0  0  0
  142.1760   77.8230  219.8140 C   0  0  0  0  0  0  0  0  0  0  0  0
  141.5430   77.7790  221.1810 C   0  0  1  0  0  0  0  0  0  0  0  0
  141.2030   79.1150  221.7330 C   0  0  0  0  0  0  0  0  0  0  0  0
  142.2670   79.8040  222.5490 C   0  0  0  0  0  0  0  0  0  0  0  0
  141.8090   78.9650  223.7270 C   0  0  0  0  0  0  0  0  0  0  0  0
  140.4370   78.9820  223.0350 C   0  0  0  0  0  0  0  0  0  0  0  0
  140.2390   71.5710  223.4340 C   0  0  0  0  0  0  0  0  0  0  0  0
  139.5900   70.3540  223.2520 C   0  0  0  0  0  0  0  0  0  0  0  0
  139.3850   69.4770  224.3100 C   0  0  0  0  0  0  0  0  0  0  0  0
  139.8350   69.8190  225.5760 C   0  0  0  0  0  0  0  0  0  0  0  0
  139.6710   69.0090  226.6730 C   0  0  0  0  0  0  0  0  0  0  0  0
  140.1230   69.3610  227.9250 C   0  0  0  0  0  0  0  0  0  0  0  0
  139.9570   68.5570  228.9970 F   0  0  0  0  0  0  0  0  0  0  0  0
  140.7610   70.5780  228.0600 C   0  0  0  0  0  0  0  0  0  0  0  0
  140.9390   71.4190  226.9560 C   0  0  0  0  0  0  0  0  0  0  0  0
  140.4730   71.0370  225.7080 C   0  0  0  0  0  0  0  0  0  0  0  0
  140.6710   71.8840  224.6870 N   0  0  0  0  0  0  0  0  0  0  0  0
  139.2150   73.9910  223.1950 H   0  0  0  0  0  0  0  0  0  0  0  0
  141.0499   74.6051  220.9292 H   0  0  0  0  0  0  0  0  0  0  0  0
  139.3289   74.3181  220.4217 H   0  0  0  0  0  0  0  0  0  0  0  0
  139.3623   76.9728  218.9819 H   0  0  0  0  0  0  0  0  0  0  0  0
  139.0871   78.4982  219.8518 H   0  0  0  0  0  0  0  0  0  0  0  0
  141.0197   79.3992  218.9179 H   0  0  0  0  0  0  0  0  0  0  0  0
  142.0700   78.1440  217.3670 H   0  0  0  0  0  0  0  0  0  0  0  0
  142.5168   76.8261  219.4976 H   0  0  0  0  0  0  0  0  0  0  0  0
  143.0737   78.4561  219.7576 H   0  0  0  0  0  0  0  0  0  0  0  0
  142.2034   77.3207  221.9319 H   0  0  0  0  0  0  0  0  0  0  0  0
  140.8201   79.5877  220.8165 H   0  0  0  0  0  0  0  0  0  0  0  0
  143.2978   79.6080  222.2188 H   0  0  0  0  0  0  0  0  0  0  0  0
  142.3321   80.9004  222.6089 H   0  0  0  0  0  0  0  0  0  0  0  0
  142.2804   77.9744  223.8075 H   0  0  0  0  0  0  0  0  0  0  0  0
  141.9563   79.2702  224.7735 H   0  0  0  0  0  0  0  0  0  0  0  0
  139.8552   78.0541  223.1373 H   0  0  0  0  0  0  0  0  0  0  0  0
  139.6412   79.6843  223.3237 H   0  0  0  0  0  0  0  0  0  0  0  0
  139.2314   70.0801  222.2488 H   0  0  0  0  0  0  0  0  0  0  0  0
  138.8699   68.5192  224.1445 H   0  0  0  0  0  0  0  0  0  0  0  0
  139.1596   68.0433  226.5467 H   0  0  0  0  0  0  0  0  0  0  0  0
  141.1336   70.8900  229.0468 H   0  0  0  0  0  0  0  0  0  0  0  0
  141.4499   72.3854  227.0789 H   0  0  0  0  0  0  0  0  0  0  0  0
  1  2  2  0
  2  3  1  0
  3  4  1  0
  4  5  1  0
  5  6  2  0
  5  7  1  0
  7  8  1  0
  8  9  1  0
  9 10  1  0
  9 11  1  0
 11 12  1  0
 12 13  1  0
 13 14  1  0
 14 15  1  0
 15 16  1  0
  2 17  1  0
 17 18  2  0
 18 19  1  0
 19 20  2  0
 20 21  1  0
 21 22  2  0
 22 23  1  0
 22 24  1  0
 24 25  2  0
 25 26  1  0
 26 27  2  0
 12  7  1  0
 16 13  1  0
 27 17  1  0
 26 20  1  0
  3 28  1  0
  4 29  1  0
  4 30  1  0
  8 31  1  0
  8 32  1  0
  9 33  1  6
 10 34  1  0
 11 35  1  0
 11 36  1  0
 12 37  1  1
 13 38  1  0
 14 39  1  0
 14 40  1  0
 15 41  1  0
 15 42  1  0
 16 43  1  0
 16 44  1  0
 18 45  1  0
 19 46  1  0
 21 47  1  0
 24 48  1  0
 25 49  1  0
M  END
>  <smiles>  (11) 
O=C(NCC(=O)N1C[C@H](O)C[C@H]1C1CCC1)c1ccc2cc(F)ccc2n1

>  <score_type>  (11) 
oracle

>  <origin>  (11) 
autodockgpu

>  <m_score__min__energy>  (11) 
-7.7699999999999996

>  <m_primary>  (11) 
energy

>  <rmsd>  (11) 
1.9710454692164452

>  <m_score__min__rmsd>  (11) 
1.9710454692164452

>  <meeko>  (11) 
{"free_energy": -7.42, "intermolecular_energy": -9.21, "internal_energy": -1.53, "cluster_size": 13, "cluster_id": 1, "rank_in_cluster": 10}

>  <energy>  (11) 
-7.38

>  <cluster_rmsd>  (11) 
1.92

>  <cluster>  (11) 
1

$$$$

     RDKit          3D

 49 52  0  0  0  0  0  0  0  0999 V2000
  140.8790   71.8770  221.0720 O   0  0  0  0  0  0  0  0  0  0  0  0
  140.3670   72.3470  222.1280 C   0  0  0  0  0  0  0  0  0  0  0  0
  139.9220   73.7020  222.2080 N   0  0  0  0  0  0  0  0  0  0  0  0
  140.0750   74.5340  221.0370 C   0  0  0  0  0  0  0  0  0  0  0  0
  141.2660   75.4070  221.1210 C   0  0  0  0  0  0  0  0  0  0  0  0
  142.3780   74.8910  220.8520 O   0  0  0  0  0  0  0  0  0  0  0  0
  141.0880   76.7650  221.4970 N   0  0  0  0  0  0  0  0  0  0  0  0
  141.7930   77.9130  220.9900 C   0  0  0  0  0  0  0  0  0  0  0  0
  141.7080   78.9790  222.0440 C   0  0  2  0  0  0  0  0  0  0  0  0
  142.9650   79.5020  222.3570 O   0  0  0  0  0  0  0  0  0  0  0  0
  141.0580   78.2920  223.1910 C   0  0  0  0  0  0  0  0  0  0  0  0
  140.1500   77.3170  222.4880 C   0  0  1  0  0  0  0  0  0  0  0  0
  139.0310   77.9560  221.7510 C   0  0  0  0  0  0  0  0  0  0  0  0
  137.9560   78.6110  222.5800 C   0  0  0  0  0  0  0  0  0  0  0  0
  137.3430   77.2340  222.7460 C   0  0  0  0  0  0  0  0  0  0  0  0
  137.9760   76.9320  221.3800 C   0  0  0  0  0  0  0  0  0  0  0  0
  140.2090   71.5130  223.3160 C   0  0  0  0  0  0  0  0  0  0  0  0
  139.5610   70.2850  223.2270 C   0  0  0  0  0  0  0  0  0  0  0  0
  139.3950   69.4700  224.3390 C   0  0  0  0  0  0  0  0  0  0  0  0
  139.8860   69.8860  225.5670 C   0  0  0  0  0  0  0  0  0  0  0  0
  139.7640   69.1400  226.7140 C   0  0  0  0  0  0  0  0  0  0  0  0
  140.2550   69.5650  227.9280 C   0  0  0  0  0  0  0  0  0  0  0  0
  140.1290   68.8230  229.0500 F   0  0  0  0  0  0  0  0  0  0  0  0
  140.8920   70.7890  227.9710 C   0  0  0  0  0  0  0  0  0  0  0  0
  141.0280   71.5660  226.8150 C   0  0  0  0  0  0  0  0  0  0  0  0
  140.5220   71.1120  225.6080 C   0  0  0  0  0  0  0  0  0  0  0  0
  140.6820   71.8990  224.5340 N   0  0  0  0  0  0  0  0  0  0  0  0
  139.5010   74.0460  223.1120 H   0  0  0  0  0  0  0  0  0  0  0  0
  140.1726   73.8865  220.1532 H   0  0  0  0  0  0  0  0  0  0  0  0
  139.1880   75.1805  220.9651 H   0  0  0  0  0  0  0  0  0  0  0  0
  142.8448   77.6557  220.7965 H   0  0  0  0  0  0  0  0  0  0  0  0
  141.3515   78.2594  220.0439 H   0  0  0  0  0  0  0  0  0  0  0  0
  141.1346   79.8600  221.7197 H   0  0  0  0  0  0  0  0  0  0  0  0
  143.6150   78.8560  221.9820 H   0  0  0  0  0  0  0  0  0  0  0  0
  141.7970   77.7714  223.8178 H   0  0  0  0  0  0  0  0  0  0  0  0
  140.5356   78.9713  223.8807 H   0  0  0  0  0  0  0  0  0  0  0  0
  139.6667   76.6185  223.1869 H   0  0  0  0  0  0  0  0  0  0  0  0
  139.6151   78.5544  221.0363 H   0  0  0  0  0  0  0  0  0  0  0  0
  138.3121   79.0708  223.5137 H   0  0  0  0  0  0  0  0  0  0  0  0
  137.3723   79.4639  222.2034 H   0  0  0  0  0  0  0  0  0  0  0  0
  137.7387   76.6439  223.5858 H   0  0  0  0  0  0  0  0  0  0  0  0
  136.2757   77.0753  222.9598 H   0  0  0  0  0  0  0  0  0  0  0  0
  138.3499   75.9045  221.2598 H   0  0  0  0  0  0  0  0  0  0  0  0
  137.4051   76.9889  220.4415 H   0  0  0  0  0  0  0  0  0  0  0  0
  139.1713   69.9522  222.2537 H   0  0  0  0  0  0  0  0  0  0  0  0
  138.8786   68.5032  224.2464 H   0  0  0  0  0  0  0  0  0  0  0  0
  139.2549   68.1664  226.6605 H   0  0  0  0  0  0  0  0  0  0  0  0
  141.2973   71.1578  228.9248 H   0  0  0  0  0  0  0  0  0  0  0  0
  141.5378   72.5394  226.8649 H   0  0  0  0  0  0  0  0  0  0  0  0
  1  2  2  0
  2  3  1  0
  3  4  1  0
  4  5  1  0
  5  6  2  0
  5  7  1  0
  7  8  1  0
  8  9  1  0
  9 10  1  0
  9 11  1  0
 11 12  1  0
 12 13  1  0
 13 14  1  0
 14 15  1  0
 15 16  1  0
  2 17  1  0
 17 18  2  0
 18 19  1  0
 19 20  2  0
 20 21  1  0
 21 22  2  0
 22 23  1  0
 22 24  1  0
 24 25  2  0
 25 26  1  0
 26 27  2  0
 12  7  1  0
 16 13  1  0
 27 17  1  0
 26 20  1  0
  3 28  1  0
  4 29  1  0
  4 30  1  0
  8 31  1  0
  8 32  1  0
  9 33  1  6
 10 34  1  0
 11 35  1  0
 11 36  1  0
 12 37  1  1
 13 38  1  0
 14 39  1  0
 14 40  1  0
 15 41  1  0
 15 42  1  0
 16 43  1  0
 16 44  1  0
 18 45  1  0
 19 46  1  0
 21 47  1  0
 24 48  1  0
 25 49  1  0
M  END
>  <smiles>  (12) 
O=C(NCC(=O)N1C[C@H](O)C[C@H]1C1CCC1)c1ccc2cc(F)ccc2n1

>  <score_type>  (12) 
oracle

>  <origin>  (12) 
autodockgpu

>  <m_score__min__energy>  (12) 
-7.7699999999999996

>  <m_primary>  (12) 
energy

>  <rmsd>  (12) 
2.920132159896771

>  <m_score__min__rmsd>  (12) 
2.920132159896771

>  <meeko>  (12) 
{"free_energy": -7.7, "intermolecular_energy": -9.49, "internal_energy": -1.31, "cluster_size": 13, "cluster_id": 1, "rank_in_cluster": 4}

>  <energy>  (12) 
-7.35

>  <cluster_rmsd>  (12) 
1.81

>  <cluster>  (12) 
1

$$$$

     RDKit          3D

 49 52  0  0  0  0  0  0  0  0999 V2000
  141.2130   72.1840  221.3050 O   0  0  0  0  0  0  0  0  0  0  0  0
  140.4770   72.5140  222.2780 C   0  0  0  0  0  0  0  0  0  0  0  0
  139.8330   73.7890  222.3350 N   0  0  0  0  0  0  0  0  0  0  0  0
  140.0480   74.7030  221.2370 C   0  0  0  0  0  0  0  0  0  0  0  0
  139.7020   76.0960  221.5920 C   0  0  0  0  0  0  0  0  0  0  0  0
  138.8760   76.2660  222.5220 O   0  0  0  0  0  0  0  0  0  0  0  0
  140.3170   77.1540  220.8700 N   0  0  0  0  0  0  0  0  0  0  0  0
  139.7860   77.8620  219.7350 C   0  0  0  0  0  0  0  0  0  0  0  0
  140.9580   78.4280  218.9860 C   0  0  2  0  0  0  0  0  0  0  0  0
  140.9170   78.0970  217.6290 O   0  0  0  0  0  0  0  0  0  0  0  0
  142.1370   77.8600  219.6900 C   0  0  0  0  0  0  0  0  0  0  0  0
  141.6320   77.7700  221.1070 C   0  0  1  0  0  0  0  0  0  0  0  0
  141.4090   79.0880  221.7530 C   0  0  0  0  0  0  0  0  0  0  0  0
  142.4760   79.5700  222.7030 C   0  0  0  0  0  0  0  0  0  0  0  0
  141.8270   78.7000  223.7630 C   0  0  0  0  0  0  0  0  0  0  0  0
  140.5280   78.9450  222.9800 C   0  0  0  0  0  0  0  0  0  0  0  0
  140.2550   71.5960  223.3920 C   0  0  0  0  0  0  0  0  0  0  0  0
  139.5770   70.3990  223.1860 C   0  0  0  0  0  0  0  0  0  0  0  0
  139.3520   69.5050  224.2250 C   0  0  0  0  0  0  0  0  0  0  0  0
  139.8100   69.8100  225.4970 C   0  0  0  0  0  0  0  0  0  0  0  0
  139.6280   68.9820  226.5780 C   0  0  0  0  0  0  0  0  0  0  0  0
  140.0880   69.2970  227.8360 C   0  0  0  0  0  0  0  0  0  0  0  0
  139.9030   68.4750  228.8920 F   0  0  0  0  0  0  0  0  0  0  0  0
  140.7560   70.4950  227.9960 C   0  0  0  0  0  0  0  0  0  0  0  0
  140.9530   71.3540  226.9090 C   0  0  0  0  0  0  0  0  0  0  0  0
  140.4780   71.0100  225.6540 C   0  0  0  0  0  0  0  0  0  0  0  0
  140.6960   71.8730  224.6510 N   0  0  0  0  0  0  0  0  0  0  0  0
  139.2300   74.0170  223.1690 H   0  0  0  0  0  0  0  0  0  0  0  0
  141.1084   74.6646  220.9469 H   0  0  0  0  0  0  0  0  0  0  0  0
  139.3940   74.3940  220.4083 H   0  0  0  0  0  0  0  0  0  0  0  0
  139.2218   77.1728  219.0895 H   0  0  0  0  0  0  0  0  0  0  0  0
  139.1005   78.6606  220.0549 H   0  0  0  0  0  0  0  0  0  0  0  0
  140.9761   79.5279  218.9844 H   0  0  0  0  0  0  0  0  0  0  0  0
  140.2490   78.7110  217.2330 H   0  0  0  0  0  0  0  0  0  0  0  0
  142.4008   76.8680  219.2945 H   0  0  0  0  0  0  0  0  0  0  0  0
  143.0539   78.4576  219.5796 H   0  0  0  0  0  0  0  0  0  0  0  0
  142.3362   77.2446  221.7689 H   0  0  0  0  0  0  0  0  0  0  0  0
  141.1619   79.6784  220.8584 H   0  0  0  0  0  0  0  0  0  0  0  0
  143.5003   79.2753  222.4310 H   0  0  0  0  0  0  0  0  0  0  0  0
  142.6645   80.6411  222.8679 H   0  0  0  0  0  0  0  0  0  0  0  0
  142.1700   77.6551  223.7852 H   0  0  0  0  0  0  0  0  0  0  0  0
  141.9230   78.8969  224.8410 H   0  0  0  0  0  0  0  0  0  0  0  0
  139.8342   78.0917  222.9552 H   0  0  0  0  0  0  0  0  0  0  0  0
  139.7997   79.7150  223.2745 H   0  0  0  0  0  0  0  0  0  0  0  0
  139.2109   70.1550  222.1778 H   0  0  0  0  0  0  0  0  0  0  0  0
  138.8149   68.5630  224.0398 H   0  0  0  0  0  0  0  0  0  0  0  0
  139.0944   68.0312  226.4324 H   0  0  0  0  0  0  0  0  0  0  0  0
  141.1373   70.7771  228.9885 H   0  0  0  0  0  0  0  0  0  0  0  0
  141.4867   72.3053  227.0515 H   0  0  0  0  0  0  0  0  0  0  0  0
  1  2  2  0
  2  3  1  0
  3  4  1  0
  4  5  1  0
  5  6  2  0
  5  7  1  0
  7  8  1  0
  8  9  1  0
  9 10  1  0
  9 11  1  0
 11 12  1  0
 12 13  1  0
 13 14  1  0
 14 15  1  0
 15 16  1  0
  2 17  1  0
 17 18  2  0
 18 19  1  0
 19 20  2  0
 20 21  1  0
 21 22  2  0
 22 23  1  0
 22 24  1  0
 24 25  2  0
 25 26  1  0
 26 27  2  0
 12  7  1  0
 16 13  1  0
 27 17  1  0
 26 20  1  0
  3 28  1  0
  4 29  1  0
  4 30  1  0
  8 31  1  0
  8 32  1  0
  9 33  1  6
 10 34  1  0
 11 35  1  0
 11 36  1  0
 12 37  1  1
 13 38  1  0
 14 39  1  0
 14 40  1  0
 15 41  1  0
 15 42  1  0
 16 43  1  0
 16 44  1  0
 18 45  1  0
 19 46  1  0
 21 47  1  0
 24 48  1  0
 25 49  1  0
M  END
>  <smiles>  (13) 
O=C(NCC(=O)N1C[C@H](O)C[C@H]1C1CCC1)c1ccc2cc(F)ccc2n1

>  <score_type>  (13) 
oracle

>  <origin>  (13) 
autodockgpu

>  <m_score__min__energy>  (13) 
-7.7699999999999996

>  <m_primary>  (13) 
energy

>  <rmsd>  (13) 
2.01306002442702

>  <m_score__min__rmsd>  (13) 
2.01306002442702

>  <meeko>  (13) 
{"free_energy": -7.35, "intermolecular_energy": -9.14, "internal_energy": -1.54, "cluster_size": 13, "cluster_id": 1, "rank_in_cluster": 12}

>  <energy>  (13) 
-7.33

>  <cluster_rmsd>  (13) 
1.67

>  <cluster>  (13) 
1

$$$$

     RDKit          3D

 49 52  0  0  0  0  0  0  0  0999 V2000
  140.2590   73.6780  222.3380 O   0  0  0  0  0  0  0  0  0  0  0  0
  140.3780   72.4240  222.2390 C   0  0  0  0  0  0  0  0  0  0  0  0
  140.6850   71.7930  220.9950 N   0  0  0  0  0  0  0  0  0  0  0  0
  140.8590   72.6360  219.8350 C   0  0  0  0  0  0  0  0  0  0  0  0
  142.1180   73.4110  219.8890 C   0  0  0  0  0  0  0  0  0  0  0  0
  142.0240   74.6560  220.0130 O   0  0  0  0  0  0  0  0  0  0  0  0
  143.3500   72.7100  219.7990 N   0  0  0  0  0  0  0  0  0  0  0  0
  144.5800   73.0100  220.4850 C   0  0  0  0  0  0  0  0  0  0  0  0
  145.6920   72.4180  219.6690 C   0  0  2  0  0  0  0  0  0  0  0  0
  146.6940   73.3530  219.3990 O   0  0  0  0  0  0  0  0  0  0  0  0
  145.0090   71.9240  218.4450 C   0  0  0  0  0  0  0  0  0  0  0  0
  143.6620   71.5230  218.9880 C   0  0  1  0  0  0  0  0  0  0  0  0
  143.7020   70.3480  219.8950 C   0  0  0  0  0  0  0  0  0  0  0  0
  144.5380   69.1750  219.4530 C   0  0  0  0  0  0  0  0  0  0  0  0
  143.3600   68.7450  218.6000 C   0  0  0  0  0  0  0  0  0  0  0  0
  142.5040   69.4480  219.6640 C   0  0  0  0  0  0  0  0  0  0  0  0
  140.2030   71.5640  223.4070 C   0  0  0  0  0  0  0  0  0  0  0  0
  139.5120   70.3620  223.2930 C   0  0  0  0  0  0  0  0  0  0  0  0
  139.3300   69.5240  224.3850 C   0  0  0  0  0  0  0  0  0  0  0  0
  139.8460   69.8900  225.6190 C   0  0  0  0  0  0  0  0  0  0  0  0
  139.7100   69.1180  226.7470 C   0  0  0  0  0  0  0  0  0  0  0  0
  140.2280   69.4940  227.9660 C   0  0  0  0  0  0  0  0  0  0  0  0
  140.0870   68.7280  229.0690 F   0  0  0  0  0  0  0  0  0  0  0  0
  140.9060   70.6950  228.0340 C   0  0  0  0  0  0  0  0  0  0  0  0
  141.0570   71.4970  226.8980 C   0  0  0  0  0  0  0  0  0  0  0  0
  140.5250   71.0920  225.6840 C   0  0  0  0  0  0  0  0  0  0  0  0
  140.7010   71.9020  224.6290 N   0  0  0  0  0  0  0  0  0  0  0  0
  140.7720   70.7420  220.9660 H   0  0  0  0  0  0  0  0  0  0  0  0
  140.8717   72.0025  218.9358 H   0  0  0  0  0  0  0  0  0  0  0  0
  140.0238   73.3514  219.8101 H   0  0  0  0  0  0  0  0  0  0  0  0
  144.7106   74.0991  220.5680 H   0  0  0  0  0  0  0  0  0  0  0  0
  144.5742   72.5927  221.5028 H   0  0  0  0  0  0  0  0  0  0  0  0
  146.2255   71.6103  220.1916 H   0  0  0  0  0  0  0  0  0  0  0  0
  146.2190   74.2120  219.2710 H   0  0  0  0  0  0  0  0  0  0  0  0
  144.9166   72.7179  217.6892 H   0  0  0  0  0  0  0  0  0  0  0  0
  145.5439   71.1110  217.9323 H   0  0  0  0  0  0  0  0  0  0  0  0
  142.9574   71.2429  218.1911 H   0  0  0  0  0  0  0  0  0  0  0  0
  143.9358   70.8658  220.8369 H   0  0  0  0  0  0  0  0  0  0  0  0
  145.4418   69.4430  218.8861 H   0  0  0  0  0  0  0  0  0  0  0  0
  145.0086   68.4934  220.1769 H   0  0  0  0  0  0  0  0  0  0  0  0
  143.3205   69.1933  217.5963 H   0  0  0  0  0  0  0  0  0  0  0  0
  143.1936   67.7030  218.2892 H   0  0  0  0  0  0  0  0  0  0  0  0
  141.6098   69.9578  219.2761 H   0  0  0  0  0  0  0  0  0  0  0  0
  142.0144   68.8990  220.4819 H   0  0  0  0  0  0  0  0  0  0  0  0
  139.1006   70.0689  222.3158 H   0  0  0  0  0  0  0  0  0  0  0  0
  138.7810   68.5775  224.2722 H   0  0  0  0  0  0  0  0  0  0  0  0
  139.1672   68.1641  226.6737 H   0  0  0  0  0  0  0  0  0  0  0  0
  141.3324   71.0249  228.9928 H   0  0  0  0  0  0  0  0  0  0  0  0
  141.5993   72.4514  226.9683 H   0  0  0  0  0  0  0  0  0  0  0  0
  1  2  2  0
  2  3  1  0
  3  4  1  0
  4  5  1  0
  5  6  2  0
  5  7  1  0
  7  8  1  0
  8  9  1  0
  9 10  1  0
  9 11  1  0
 11 12  1  0
 12 13  1  0
 13 14  1  0
 14 15  1  0
 15 16  1  0
  2 17  1  0
 17 18  2  0
 18 19  1  0
 19 20  2  0
 20 21  1  0
 21 22  2  0
 22 23  1  0
 22 24  1  0
 24 25  2  0
 25 26  1  0
 26 27  2  0
 12  7  1  0
 16 13  1  0
 27 17  1  0
 26 20  1  0
  3 28  1  0
  4 29  1  0
  4 30  1  0
  8 31  1  0
  8 32  1  0
  9 33  1  1
 10 34  1  0
 11 35  1  0
 11 36  1  0
 12 37  1  6
 13 38  1  0
 14 39  1  0
 14 40  1  0
 15 41  1  0
 15 42  1  0
 16 43  1  0
 16 44  1  0
 18 45  1  0
 19 46  1  0
 21 47  1  0
 24 48  1  0
 25 49  1  0
M  END
>  <smiles>  (14) 
O=C(NCC(=O)N1C[C@H](O)C[C@H]1C1CCC1)c1ccc2cc(F)ccc2n1

>  <score_type>  (14) 
oracle

>  <origin>  (14) 
autodockgpu

>  <m_score__min__energy>  (14) 
-7.7699999999999996

>  <m_primary>  (14) 
energy

>  <rmsd>  (14) 
4.118543415169669

>  <m_score__min__rmsd>  (14) 
4.118543415169669

>  <meeko>  (14) 
{"free_energy": -7.44, "intermolecular_energy": -9.23, "internal_energy": -1.43, "cluster_size": 23, "cluster_id": 3, "rank_in_cluster": 5}

>  <energy>  (14) 
-7.67

>  <cluster_rmsd>  (14) 
0.0

>  <cluster>  (14) 
2

$$$$

     RDKit          3D

 49 52  0  0  0  0  0  0  0  0999 V2000
  141.3760   72.5560  221.8100 O   0  0  0  0  0  0  0  0  0  0  0  0
  140.3500   72.5910  222.5480 C   0  0  0  0  0  0  0  0  0  0  0  0
  139.3100   73.5490  222.3440 N   0  0  0  0  0  0  0  0  0  0  0  0
  139.4620   74.4900  221.2590 C   0  0  0  0  0  0  0  0  0  0  0  0
  140.3220   75.6360  221.6270 C   0  0  0  0  0  0  0  0  0  0  0  0
  141.5640   75.4700  221.5570 O   0  0  0  0  0  0  0  0  0  0  0  0
  139.7020   76.8470  222.0360 N   0  0  0  0  0  0  0  0  0  0  0  0
  138.4400   77.0000  222.7100 C   0  0  0  0  0  0  0  0  0  0  0  0
  137.9470   78.3850  222.4060 C   0  0  2  0  0  0  0  0  0  0  0  0
  136.6360   78.3760  221.9240 O   0  0  0  0  0  0  0  0  0  0  0  0
  138.9290   78.9030  221.4180 C   0  0  0  0  0  0  0  0  0  0  0  0
  140.1980   78.2220  221.8640 C   0  0  1  0  0  0  0  0  0  0  0  0
  140.7050   78.6910  223.1780 C   0  0  0  0  0  0  0  0  0  0  0  0
  140.4550   80.1360  223.5280 C   0  0  0  0  0  0  0  0  0  0  0  0
  141.6760   80.4760  222.6950 C   0  0  0  0  0  0  0  0  0  0  0  0
  142.1690   79.0750  223.0850 C   0  0  0  0  0  0  0  0  0  0  0  0
  140.1890   71.6420  223.6470 C   0  0  0  0  0  0  0  0  0  0  0  0
  139.5280   70.4370  223.4380 C   0  0  0  0  0  0  0  0  0  0  0  0
  139.3600   69.5150  224.4640 C   0  0  0  0  0  0  0  0  0  0  0  0
  139.8600   69.8000  225.7240 C   0  0  0  0  0  0  0  0  0  0  0  0
  139.7350   68.9440  226.7910 C   0  0  0  0  0  0  0  0  0  0  0  0
  140.2370   69.2400  228.0390 C   0  0  0  0  0  0  0  0  0  0  0  0
  140.1090   68.3890  229.0810 F   0  0  0  0  0  0  0  0  0  0  0  0
  140.8860   70.4470  228.2010 C   0  0  0  0  0  0  0  0  0  0  0  0
  141.0250   71.3350  227.1290 C   0  0  0  0  0  0  0  0  0  0  0  0
  140.5090   71.0090  225.8840 C   0  0  0  0  0  0  0  0  0  0  0  0
  140.6720   71.9000  224.8940 N   0  0  0  0  0  0  0  0  0  0  0  0
  138.4740   73.5360  222.9880 H   0  0  0  0  0  0  0  0  0  0  0  0
  139.9129   73.9705  220.4006 H   0  0  0  0  0  0  0  0  0  0  0  0
  138.4648   74.8830  221.0118 H   0  0  0  0  0  0  0  0  0  0  0  0
  137.7214   76.2534  222.3410 H   0  0  0  0  0  0  0  0  0  0  0  0
  138.5527   76.8518  223.7941 H   0  0  0  0  0  0  0  0  0  0  0  0
  137.8911   79.0263  223.2980 H   0  0  0  0  0  0  0  0  0  0  0  0
  136.6030   79.1000  221.2500 H   0  0  0  0  0  0  0  0  0  0  0  0
  138.6572   78.6129  220.3923 H   0  0  0  0  0  0  0  0  0  0  0  0
  138.9972   80.0005  221.3889 H   0  0  0  0  0  0  0  0  0  0  0  0
  141.0292   78.3874  221.1628 H   0  0  0  0  0  0  0  0  0  0  0  0
  140.2966   77.8925  223.8148 H   0  0  0  0  0  0  0  0  0  0  0  0
  139.5087   80.5445  223.1439 H   0  0  0  0  0  0  0  0  0  0  0  0
  140.3530   80.4707  224.5709 H   0  0  0  0  0  0  0  0  0  0  0  0
  141.4842   80.6226  221.6218 H   0  0  0  0  0  0  0  0  0  0  0  0
  142.2733   81.3863  222.8515 H   0  0  0  0  0  0  0  0  0  0  0  0
  142.7368   78.5496  222.3030 H   0  0  0  0  0  0  0  0  0  0  0  0
  142.8745   78.9088  223.9125 H   0  0  0  0  0  0  0  0  0  0  0  0
  139.1293   70.2084  222.4386 H   0  0  0  0  0  0  0  0  0  0  0  0
  138.8344   68.5669  224.2772 H   0  0  0  0  0  0  0  0  0  0  0  0
  139.2145   67.9863  226.6432 H   0  0  0  0  0  0  0  0  0  0  0  0
  141.2990   70.7141  229.1849 H   0  0  0  0  0  0  0  0  0  0  0  0
  141.5446   72.2936  227.2740 H   0  0  0  0  0  0  0  0  0  0  0  0
  1  2  2  0
  2  3  1  0
  3  4  1  0
  4  5  1  0
  5  6  2  0
  5  7  1  0
  7  8  1  0
  8  9  1  0
  9 10  1  0
  9 11  1  0
 11 12  1  0
 12 13  1  0
 13 14  1  0
 14 15  1  0
 15 16  1  0
  2 17  1  0
 17 18  2  0
 18 19  1  0
 19 20  2  0
 20 21  1  0
 21 22  2  0
 22 23  1  0
 22 24  1  0
 24 25  2  0
 25 26  1  0
 26 27  2  0
 12  7  1  0
 16 13  1  0
 27 17  1  0
 26 20  1  0
  3 28  1  0
  4 29  1  0
  4 30  1  0
  8 31  1  0
  8 32  1  0
  9 33  1  1
 10 34  1  0
 11 35  1  0
 11 36  1  0
 12 37  1  6
 13 38  1  0
 14 39  1  0
 14 40  1  0
 15 41  1  0
 15 42  1  0
 16 43  1  0
 16 44  1  0
 18 45  1  0
 19 46  1  0
 21 47  1  0
 24 48  1  0
 25 49  1  0
M  END
>  <smiles>  (15) 
O=C(NCC(=O)N1C[C@H](O)C[C@H]1C1CCC1)c1ccc2cc(F)ccc2n1

>  <score_type>  (15) 
oracle

>  <origin>  (15) 
autodockgpu

>  <m_score__min__energy>  (15) 
-7.7699999999999996

>  <m_primary>  (15) 
energy

>  <rmsd>  (15) 
2.763595529598935

>  <m_score__min__rmsd>  (15) 
2.763595529598935

>  <meeko>  (15) 
{"free_energy": -7.77, "intermolecular_energy": -9.56, "internal_energy": -1.09, "cluster_size": 13, "cluster_id": 1, "rank_in_cluster": 1}

>  <energy>  (15) 
-7.6

>  <cluster_rmsd>  (15) 
1.29

>  <cluster>  (15) 
2

$$$$

     RDKit          3D

 49 52  0  0  0  0  0  0  0  0999 V2000
  139.7720   71.3840  221.0070 O   0  0  0  0  0  0  0  0  0  0  0  0
  139.7510   71.9150  222.1530 C   0  0  0  0  0  0  0  0  0  0  0  0
  139.7230   73.3340  222.3230 N   0  0  0  0  0  0  0  0  0  0  0  0
  139.7180   74.1560  221.1360 C   0  0  0  0  0  0  0  0  0  0  0  0
  141.0850   74.4630  220.6610 C   0  0  0  0  0  0  0  0  0  0  0  0
  141.4430   75.6650  220.6720 O   0  0  0  0  0  0  0  0  0  0  0  0
  141.9080   73.3910  220.2230 N   0  0  0  0  0  0  0  0  0  0  0  0
  141.6690   72.4990  219.1180 C   0  0  0  0  0  0  0  0  0  0  0  0
  142.4390   71.2410  219.3990 C   0  0  2  0  0  0  0  0  0  0  0  0
  141.6350   70.1040  219.2880 O   0  0  0  0  0  0  0  0  0  0  0  0
  142.9710   71.4480  220.7700 C   0  0  0  0  0  0  0  0  0  0  0  0
  143.1880   72.9390  220.7910 C   0  0  1  0  0  0  0  0  0  0  0  0
  144.2750   73.4040  219.8920 C   0  0  0  0  0  0  0  0  0  0  0  0
  145.5560   72.6090  219.9060 C   0  0  0  0  0  0  0  0  0  0  0  0
  145.9500   73.3960  221.1410 C   0  0  0  0  0  0  0  0  0  0  0  0
  145.0780   74.5120  220.5460 C   0  0  0  0  0  0  0  0  0  0  0  0
  139.7560   71.0900  223.3590 C   0  0  0  0  0  0  0  0  0  0  0  0
  139.2320   69.8030  223.3260 C   0  0  0  0  0  0  0  0  0  0  0  0
  139.2230   68.9950  224.4560 C   0  0  0  0  0  0  0  0  0  0  0  0
  139.7470   69.4790  225.6440 C   0  0  0  0  0  0  0  0  0  0  0  0
  139.7750   68.7450  226.8050 C   0  0  0  0  0  0  0  0  0  0  0  0
  140.2980   69.2400  227.9790 C   0  0  0  0  0  0  0  0  0  0  0  0
  140.3210   68.5080  229.1140 F   0  0  0  0  0  0  0  0  0  0  0  0
  140.8070   70.5220  227.9660 C   0  0  0  0  0  0  0  0  0  0  0  0
  140.7890   71.2880  226.7950 C   0  0  0  0  0  0  0  0  0  0  0  0
  140.2560   70.7640  225.6290 C   0  0  0  0  0  0  0  0  0  0  0  0
  140.2650   71.5440  224.5380 N   0  0  0  0  0  0  0  0  0  0  0  0
  139.7070   73.7280  223.3020 H   0  0  0  0  0  0  0  0  0  0  0  0
  139.1777   73.6238  220.3393 H   0  0  0  0  0  0  0  0  0  0  0  0
  139.2270   75.1077  221.3873 H   0  0  0  0  0  0  0  0  0  0  0  0
  140.5950   72.2753  219.0378 H   0  0  0  0  0  0  0  0  0  0  0  0
  141.9894   72.9532  218.1688 H   0  0  0  0  0  0  0  0  0  0  0  0
  143.2458   71.0605  218.6735 H   0  0  0  0  0  0  0  0  0  0  0  0
  140.8010   70.3280  219.7720 H   0  0  0  0  0  0  0  0  0  0  0  0
  142.2427   71.1379  221.5339 H   0  0  0  0  0  0  0  0  0  0  0  0
  143.8750   70.8618  220.9916 H   0  0  0  0  0  0  0  0  0  0  0  0
  143.4681   73.3058  221.7895 H   0  0  0  0  0  0  0  0  0  0  0  0
  143.6984   73.5018  218.9604 H   0  0  0  0  0  0  0  0  0  0  0  0
  145.4247   71.5296  220.0720 H   0  0  0  0  0  0  0  0  0  0  0  0
  146.2104   72.5491  219.0239 H   0  0  0  0  0  0  0  0  0  0  0  0
  145.5921   72.9806  222.0946 H   0  0  0  0  0  0  0  0  0  0  0  0
  146.9959   73.5504  221.4448 H   0  0  0  0  0  0  0  0  0  0  0  0
  144.5248   75.1109  221.2845 H   0  0  0  0  0  0  0  0  0  0  0  0
  145.5036   75.3478  219.9714 H   0  0  0  0  0  0  0  0  0  0  0  0
  138.8153   69.4158  222.3845 H   0  0  0  0  0  0  0  0  0  0  0  0
  138.8034   67.9793  224.4081 H   0  0  0  0  0  0  0  0  0  0  0  0
  139.3646   67.7245  226.7966 H   0  0  0  0  0  0  0  0  0  0  0  0
  141.2321   70.9473  228.8871 H   0  0  0  0  0  0  0  0  0  0  0  0
  141.1991   72.3087  226.8006 H   0  0  0  0  0  0  0  0  0  0  0  0
  1  2  2  0
  2  3  1  0
  3  4  1  0
  4  5  1  0
  5  6  2  0
  5  7  1  0
  7  8  1  0
  8  9  1  0
  9 10  1  0
  9 11  1  0
 11 12  1  0
 12 13  1  0
 13 14  1  0
 14 15  1  0
 15 16  1  0
  2 17  1  0
 17 18  2  0
 18 19  1  0
 19 20  2  0
 20 21  1  0
 21 22  2  0
 22 23  1  0
 22 24  1  0
 24 25  2  0
 25 26  1  0
 26 27  2  0
 12  7  1  0
 16 13  1  0
 27 17  1  0
 26 20  1  0
  3 28  1  0
  4 29  1  0
  4 30  1  0
  8 31  1  0
  8 32  1  0
  9 33  1  6
 10 34  1  0
 11 35  1  0
 11 36  1  0
 12 37  1  1
 13 38  1  0
 14 39  1  0
 14 40  1  0
 15 41  1  0
 15 42  1  0
 16 43  1  0
 16 44  1  0
 18 45  1  0
 19 46  1  0
 21 47  1  0
 24 48  1  0
 25 49  1  0
M  END
>  <smiles>  (16) 
O=C(NCC(=O)N1C[C@H](O)C[C@H]1C1CCC1)c1ccc2cc(F)ccc2n1

>  <score_type>  (16) 
oracle

>  <origin>  (16) 
autodockgpu

>  <m_score__min__energy>  (16) 
-7.7699999999999996

>  <m_primary>  (16) 
energy

>  <rmsd>  (16) 
3.115713525883393

>  <m_score__min__rmsd>  (16) 
3.115713525883393

>  <meeko>  (16) 
{"free_energy": -6.71, "intermolecular_energy": -8.5, "internal_energy": -2.5, "cluster_size": 23, "cluster_id": 3, "rank_in_cluster": 22}

>  <energy>  (16) 
-7.17

>  <cluster_rmsd>  (16) 
1.42

>  <cluster>  (16) 
2

$$$$

     RDKit          3D

 49 52  0  0  0  0  0  0  0  0999 V2000
  140.2350   71.3960  221.0450 O   0  0  0  0  0  0  0  0  0  0  0  0
  140.0450   71.9370  222.1710 C   0  0  0  0  0  0  0  0  0  0  0  0
  139.9230   73.3530  222.3130 N   0  0  0  0  0  0  0  0  0  0  0  0
  140.0240   74.1630  221.1200 C   0  0  0  0  0  0  0  0  0  0  0  0
  141.4270   74.4780  220.7740 C   0  0  0  0  0  0  0  0  0  0  0  0
  141.8160   75.6560  220.9660 O   0  0  0  0  0  0  0  0  0  0  0  0
  142.2470   73.4440  220.2510 N   0  0  0  0  0  0  0  0  0  0  0  0
  142.0490   72.7010  219.0340 C   0  0  0  0  0  0  0  0  0  0  0  0
  142.7710   71.3950  219.1970 C   0  0  2  0  0  0  0  0  0  0  0  0
  141.9480   70.3050  218.9050 O   0  0  0  0  0  0  0  0  0  0  0  0
  143.2320   71.4170  220.6100 C   0  0  0  0  0  0  0  0  0  0  0  0
  143.4830   72.8870  220.8250 C   0  0  1  0  0  0  0  0  0  0  0  0
  144.6290   73.4250  220.0490 C   0  0  0  0  0  0  0  0  0  0  0  0
  145.9200   72.6500  220.1180 C   0  0  0  0  0  0  0  0  0  0  0  0
  146.1970   73.3640  221.4270 C   0  0  0  0  0  0  0  0  0  0  0  0
  145.3530   74.5020  220.8330 C   0  0  0  0  0  0  0  0  0  0  0  0
  139.9420   71.1260  223.3810 C   0  0  0  0  0  0  0  0  0  0  0  0
  139.3640   69.8620  223.3270 C   0  0  0  0  0  0  0  0  0  0  0  0
  139.2520   69.0670  224.4610 C   0  0  0  0  0  0  0  0  0  0  0  0
  139.7250   69.5410  225.6750 C   0  0  0  0  0  0  0  0  0  0  0  0
  139.6520   68.8190  226.8410 C   0  0  0  0  0  0  0  0  0  0  0  0
  140.1260   69.3030  228.0400 C   0  0  0  0  0  0  0  0  0  0  0  0
  140.0490   68.5840  229.1810 F   0  0  0  0  0  0  0  0  0  0  0  0
  140.6920   70.5620  228.0480 C   0  0  0  0  0  0  0  0  0  0  0  0
  140.7770   71.3150  226.8720 C   0  0  0  0  0  0  0  0  0  0  0  0
  140.2910   70.8020  225.6800 C   0  0  0  0  0  0  0  0  0  0  0  0
  140.3990   71.5700  224.5850 N   0  0  0  0  0  0  0  0  0  0  0  0
  139.7650   73.7560  223.2750 H   0  0  0  0  0  0  0  0  0  0  0  0
  139.5667   73.6170  220.2817 H   0  0  0  0  0  0  0  0  0  0  0  0
  139.5029   75.1125  221.3121 H   0  0  0  0  0  0  0  0  0  0  0  0
  140.9760   72.5220  218.8706 H   0  0  0  0  0  0  0  0  0  0  0  0
  142.4335   73.2574  218.1665 H   0  0  0  0  0  0  0  0  0  0  0  0
  143.6116   71.2796  218.4970 H   0  0  0  0  0  0  0  0  0  0  0  0
  141.0530   70.5570  219.2470 H   0  0  0  0  0  0  0  0  0  0  0  0
  142.4556   71.0387  221.2913 H   0  0  0  0  0  0  0  0  0  0  0  0
  144.1080   70.7807  220.8045 H   0  0  0  0  0  0  0  0  0  0  0  0
  143.7161   73.1207  221.8743 H   0  0  0  0  0  0  0  0  0  0  0  0
  144.1277   73.5731  219.0811 H   0  0  0  0  0  0  0  0  0  0  0  0
  145.7975   71.5604  220.2061 H   0  0  0  0  0  0  0  0  0  0  0  0
  146.6443   72.6552  219.2901 H   0  0  0  0  0  0  0  0  0  0  0  0
  145.7721   72.8839  222.3208 H   0  0  0  0  0  0  0  0  0  0  0  0
  147.2118   73.5151  221.8237 H   0  0  0  0  0  0  0  0  0  0  0  0
  144.7298   75.0443  221.5593 H   0  0  0  0  0  0  0  0  0  0  0  0
  145.8059   75.3792  220.3479 H   0  0  0  0  0  0  0  0  0  0  0  0
  138.9873   69.4834  222.3653 H   0  0  0  0  0  0  0  0  0  0  0  0
  138.7919   68.0699  224.3961 H   0  0  0  0  0  0  0  0  0  0  0  0
  139.1982   67.8173  226.8163 H   0  0  0  0  0  0  0  0  0  0  0  0
  141.0805   70.9778  228.9894 H   0  0  0  0  0  0  0  0  0  0  0  0
  141.2307   72.3168  226.8936 H   0  0  0  0  0  0  0  0  0  0  0  0
  1  2  2  0
  2  3  1  0
  3  4  1  0
  4  5  1  0
  5  6  2  0
  5  7  1  0
  7  8  1  0
  8  9  1  0
  9 10  1  0
  9 11  1  0
 11 12  1  0
 12 13  1  0
 13 14  1  0
 14 15  1  0
 15 16  1  0
  2 17  1  0
 17 18  2  0
 18 19  1  0
 19 20  2  0
 20 21  1  0
 21 22  2  0
 22 23  1  0
 22 24  1  0
 24 25  2  0
 25 26  1  0
 26 27  2  0
 12  7  1  0
 16 13  1  0
 27 17  1  0
 26 20  1  0
  3 28  1  0
  4 29  1  0
  4 30  1  0
  8 31  1  0
  8 32  1  0
  9 33  1  6
 10 34  1  0
 11 35  1  0
 11 36  1  0
 12 37  1  1
 13 38  1  0
 14 39  1  0
 14 40  1  0
 15 41  1  0
 15 42  1  0
 16 43  1  0
 16 44  1  0
 18 45  1  0
 19 46  1  0
 21 47  1  0
 24 48  1  0
 25 49  1  0
M  END
>  <smiles>  (17) 
O=C(NCC(=O)N1C[C@H](O)C[C@H]1C1CCC1)c1ccc2cc(F)ccc2n1

>  <score_type>  (17) 
oracle

>  <origin>  (17) 
autodockgpu

>  <m_score__min__energy>  (17) 
-7.7699999999999996

>  <m_primary>  (17) 
energy

>  <rmsd>  (17) 
3.2069436578639854

>  <m_score__min__rmsd>  (17) 
3.2069436578639854

>  <meeko>  (17) 
{"free_energy": -6.86, "intermolecular_energy": -8.65, "internal_energy": -2.41, "cluster_size": 23, "cluster_id": 3, "rank_in_cluster": 13}

>  <energy>  (17) 
-6.42

>  <cluster_rmsd>  (17) 
1.63

>  <cluster>  (17) 
2

$$$$

     RDKit          3D

 49 52  0  0  0  0  0  0  0  0999 V2000
  139.7350   71.0670  221.3000 O   0  0  0  0  0  0  0  0  0  0  0  0
  139.8120   71.5630  222.4600 C   0  0  0  0  0  0  0  0  0  0  0  0
  139.8600   72.9750  222.6720 N   0  0  0  0  0  0  0  0  0  0  0  0
  139.8190   73.8340  221.5110 C   0  0  0  0  0  0  0  0  0  0  0  0
  141.1700   74.1570  221.0050 C   0  0  0  0  0  0  0  0  0  0  0  0
  141.5860   75.3280  221.1790 O   0  0  0  0  0  0  0  0  0  0  0  0
  141.9150   73.1360  220.3570 N   0  0  0  0  0  0  0  0  0  0  0  0
  141.5670   72.4300  219.1510 C   0  0  0  0  0  0  0  0  0  0  0  0
  142.2960   71.1180  219.1880 C   0  0  2  0  0  0  0  0  0  0  0  0
  141.4360   70.0390  218.9660 O   0  0  0  0  0  0  0  0  0  0  0  0
  142.9230   71.0970  220.5350 C   0  0  0  0  0  0  0  0  0  0  0  0
  143.2080   72.5590  220.7610 C   0  0  1  0  0  0  0  0  0  0  0  0
  144.2550   73.1170  219.8680 C   0  0  0  0  0  0  0  0  0  0  0  0
  145.6430   72.5450  220.0080 C   0  0  0  0  0  0  0  0  0  0  0  0
  145.8380   73.4890  221.1790 C   0  0  0  0  0  0  0  0  0  0  0  0
  144.8340   74.3930  220.4470 C   0  0  0  0  0  0  0  0  0  0  0  0
  139.8550   70.7010  223.6380 C   0  0  0  0  0  0  0  0  0  0  0  0
  139.3510   69.4060  223.5740 C   0  0  0  0  0  0  0  0  0  0  0  0
  139.3780   68.5630  224.6780 C   0  0  0  0  0  0  0  0  0  0  0  0
  139.9170   69.0190  225.8710 C   0  0  0  0  0  0  0  0  0  0  0  0
  139.9800   68.2490  227.0070 C   0  0  0  0  0  0  0  0  0  0  0  0
  140.5180   68.7150  228.1860 C   0  0  0  0  0  0  0  0  0  0  0  0
  140.5760   67.9500  229.2970 F   0  0  0  0  0  0  0  0  0  0  0  0
  141.0060   70.0070  228.2040 C   0  0  0  0  0  0  0  0  0  0  0  0
  140.9520   70.8080  227.0590 C   0  0  0  0  0  0  0  0  0  0  0  0
  140.4040   70.3120  225.8870 C   0  0  0  0  0  0  0  0  0  0  0  0
  140.3790   71.1260  224.8210 N   0  0  0  0  0  0  0  0  0  0  0  0
  139.9250   73.3380  223.6600 H   0  0  0  0  0  0  0  0  0  0  0  0
  139.2550   73.3262  220.7148 H   0  0  0  0  0  0  0  0  0  0  0  0
  139.3356   74.7769  221.8065 H   0  0  0  0  0  0  0  0  0  0  0  0
  140.4811   72.2585  219.1130 H   0  0  0  0  0  0  0  0  0  0  0  0
  141.8469   73.0110  218.2599 H   0  0  0  0  0  0  0  0  0  0  0  0
  143.0461   71.0212  218.3893 H   0  0  0  0  0  0  0  0  0  0  0  0
  140.6390   70.2240  219.5230 H   0  0  0  0  0  0  0  0  0  0  0  0
  142.2314   70.7012  221.2933 H   0  0  0  0  0  0  0  0  0  0  0  0
  143.8117   70.4525  220.6043 H   0  0  0  0  0  0  0  0  0  0  0  0
  143.5681   72.7606  221.7807 H   0  0  0  0  0  0  0  0  0  0  0  0
  143.7224   73.0399  218.9086 H   0  0  0  0  0  0  0  0  0  0  0  0
  145.6754   71.4768  220.2688 H   0  0  0  0  0  0  0  0  0  0  0  0
  146.3464   72.5167  219.1628 H   0  0  0  0  0  0  0  0  0  0  0  0
  145.4983   73.1041  222.1519 H   0  0  0  0  0  0  0  0  0  0  0  0
  146.8277   73.8374  221.5093 H   0  0  0  0  0  0  0  0  0  0  0  0
  144.1527   74.9548  221.1030 H   0  0  0  0  0  0  0  0  0  0  0  0
  145.1525   75.2347  219.8145 H   0  0  0  0  0  0  0  0  0  0  0  0
  138.9219   69.0416  222.6290 H   0  0  0  0  0  0  0  0  0  0  0  0
  138.9750   67.5420  224.6060 H   0  0  0  0  0  0  0  0  0  0  0  0
  139.5862   67.2224  226.9737 H   0  0  0  0  0  0  0  0  0  0  0  0
  141.4422   70.4106  229.1297 H   0  0  0  0  0  0  0  0  0  0  0  0
  141.3457   71.8347  227.0889 H   0  0  0  0  0  0  0  0  0  0  0  0
  1  2  2  0
  2  3  1  0
  3  4  1  0
  4  5  1  0
  5  6  2  0
  5  7  1  0
  7  8  1  0
  8  9  1  0
  9 10  1  0
  9 11  1  0
 11 12  1  0
 12 13  1  0
 13 14  1  0
 14 15  1  0
 15 16  1  0
  2 17  1  0
 17 18  2  0
 18 19  1  0
 19 20  2  0
 20 21  1  0
 21 22  2  0
 22 23  1  0
 22 24  1  0
 24 25  2  0
 25 26  1  0
 26 27  2  0
 12  7  1  0
 16 13  1  0
 27 17  1  0
 26 20  1  0
  3 28  1  0
  4 29  1  0
  4 30  1  0
  8 31  1  0
  8 32  1  0
  9 33  1  6
 10 34  1  0
 11 35  1  0
 11 36  1  0
 12 37  1  1
 13 38  1  0
 14 39  1  0
 14 40  1  0
 15 41  1  0
 15 42  1  0
 16 43  1  0
 16 44  1  0
 18 45  1  0
 19 46  1  0
 21 47  1  0
 24 48  1  0
 25 49  1  0
M  END
>  <smiles>  (18) 
O=C(NCC(=O)N1C[C@H](O)C[C@H]1C1CCC1)c1ccc2cc(F)ccc2n1

>  <score_type>  (18) 
oracle

>  <origin>  (18) 
autodockgpu

>  <m_score__min__energy>  (18) 
-7.7699999999999996

>  <m_primary>  (18) 
energy

>  <rmsd>  (18) 
3.201233695868495

>  <m_score__min__rmsd>  (18) 
3.201233695868495

>  <meeko>  (18) 
{"free_energy": -6.63, "intermolecular_energy": -8.42, "internal_energy": -2.51, "cluster_size": 23, "cluster_id": 3, "rank_in_cluster": 23}

>  <energy>  (18) 
-6.42

>  <cluster_rmsd>  (18) 
1.61

>  <cluster>  (18) 
2

$$$$

     RDKit          3D

 49 52  0  0  0  0  0  0  0  0999 V2000
  140.3700   71.3200  221.1380 O   0  0  0  0  0  0  0  0  0  0  0  0
  140.0830   71.8690  222.2400 C   0  0  0  0  0  0  0  0  0  0  0  0
  139.8730   73.2780  222.3450 N   0  0  0  0  0  0  0  0  0  0  0  0
  140.0000   74.0710  221.1440 C   0  0  0  0  0  0  0  0  0  0  0  0
  141.4080   74.4080  220.8410 C   0  0  0  0  0  0  0  0  0  0  0  0
  141.7920   75.5730  221.1060 O   0  0  0  0  0  0  0  0  0  0  0  0
  142.2380   73.4060  220.2720 N   0  0  0  0  0  0  0  0  0  0  0  0
  142.0360   72.6990  219.0340 C   0  0  0  0  0  0  0  0  0  0  0  0
  142.7830   71.4020  219.1440 C   0  0  2  0  0  0  0  0  0  0  0  0
  141.9750   70.3070  218.8280 O   0  0  0  0  0  0  0  0  0  0  0  0
  143.2630   71.3870  220.5500 C   0  0  0  0  0  0  0  0  0  0  0  0
  143.4920   72.8530  220.8110 C   0  0  1  0  0  0  0  0  0  0  0  0
  144.6170   73.4360  220.0370 C   0  0  0  0  0  0  0  0  0  0  0  0
  145.9260   72.6900  220.0720 C   0  0  0  0  0  0  0  0  0  0  0  0
  146.2010   73.3760  221.3970 C   0  0  0  0  0  0  0  0  0  0  0  0
  145.3250   74.5090  220.8400 C   0  0  0  0  0  0  0  0  0  0  0  0
  139.9530   71.0740  223.4580 C   0  0  0  0  0  0  0  0  0  0  0  0
  139.3480   69.8220  223.4140 C   0  0  0  0  0  0  0  0  0  0  0  0
  139.2100   69.0430  224.5560 C   0  0  0  0  0  0  0  0  0  0  0  0
  139.6860   69.5200  225.7680 C   0  0  0  0  0  0  0  0  0  0  0  0
  139.5890   68.8130  226.9410 C   0  0  0  0  0  0  0  0  0  0  0  0
  140.0650   69.2990  228.1380 C   0  0  0  0  0  0  0  0  0  0  0  0
  139.9640   68.5950  229.2860 F   0  0  0  0  0  0  0  0  0  0  0  0
  140.6590   70.5460  228.1360 C   0  0  0  0  0  0  0  0  0  0  0  0
  140.7680   71.2840  226.9520 C   0  0  0  0  0  0  0  0  0  0  0  0
  140.2790   70.7680  225.7620 C   0  0  0  0  0  0  0  0  0  0  0  0
  140.4120   71.5210  224.6600 N   0  0  0  0  0  0  0  0  0  0  0  0
  139.6360   73.6880  223.2880 H   0  0  0  0  0  0  0  0  0  0  0  0
  139.5823   73.5034  220.2994 H   0  0  0  0  0  0  0  0  0  0  0  0
  139.4549   75.0131  221.3032 H   0  0  0  0  0  0  0  0  0  0  0  0
  140.9641   72.5059  218.8795 H   0  0  0  0  0  0  0  0  0  0  0  0
  142.3984   73.2902  218.1801 H   0  0  0  0  0  0  0  0  0  0  0  0
  143.6153   71.3243  218.4290 H   0  0  0  0  0  0  0  0  0  0  0  0
  141.1360   70.4500  219.3350 H   0  0  0  0  0  0  0  0  0  0  0  0
  142.5028   70.9730  221.2287 H   0  0  0  0  0  0  0  0  0  0  0  0
  144.1529   70.7607  220.7111 H   0  0  0  0  0  0  0  0  0  0  0  0
  143.7361   73.0565  221.8641 H   0  0  0  0  0  0  0  0  0  0  0  0
  144.1014   73.5963  219.0787 H   0  0  0  0  0  0  0  0  0  0  0  0
  145.8297   71.5959  220.1325 H   0  0  0  0  0  0  0  0  0  0  0  0
  146.6408   72.7338  219.2371 H   0  0  0  0  0  0  0  0  0  0  0  0
  145.7964   72.8635  222.2823 H   0  0  0  0  0  0  0  0  0  0  0  0
  147.2160   73.5399  221.7879 H   0  0  0  0  0  0  0  0  0  0  0  0
  144.6977   75.0189  221.5860 H   0  0  0  0  0  0  0  0  0  0  0  0
  145.7529   75.4079  220.3722 H   0  0  0  0  0  0  0  0  0  0  0  0
  138.9706   69.4404  222.4538 H   0  0  0  0  0  0  0  0  0  0  0  0
  138.7273   68.0562  224.4993 H   0  0  0  0  0  0  0  0  0  0  0  0
  139.1133   67.8213  226.9238 H   0  0  0  0  0  0  0  0  0  0  0  0
  141.0506   70.9635  229.0753 H   0  0  0  0  0  0  0  0  0  0  0  0
  141.2429   72.2761  226.9657 H   0  0  0  0  0  0  0  0  0  0  0  0
  1  2  2  0
  2  3  1  0
  3  4  1  0
  4  5  1  0
  5  6  2  0
  5  7  1  0
  7  8  1  0
  8  9  1  0
  9 10  1  0
  9 11  1  0
 11 12  1  0
 12 13  1  0
 13 14  1  0
 14 15  1  0
 15 16  1  0
  2 17  1  0
 17 18  2  0
 18 19  1  0
 19 20  2  0
 20 21  1  0
 21 22  2  0
 22 23  1  0
 22 24  1  0
 24 25  2  0
 25 26  1  0
 26 27  2  0
 12  7  1  0
 16 13  1  0
 27 17  1  0
 26 20  1  0
  3 28  1  0
  4 29  1  0
  4 30  1  0
  8 31  1  0
  8 32  1  0
  9 33  1  6
 10 34  1  0
 11 35  1  0
 11 36  1  0
 12 37  1  1
 13 38  1  0
 14 39  1  0
 14 40  1  0
 15 41  1  0
 15 42  1  0
 16 43  1  0
 16 44  1  0
 18 45  1  0
 19 46  1  0
 21 47  1  0
 24 48  1  0
 25 49  1  0
M  END
>  <smiles>  (19) 
O=C(NCC(=O)N1C[C@H](O)C[C@H]1C1CCC1)c1ccc2cc(F)ccc2n1

>  <score_type>  (19) 
oracle

>  <origin>  (19) 
autodockgpu

>  <m_score__min__energy>  (19) 
-7.7699999999999996

>  <m_primary>  (19) 
energy

>  <rmsd>  (19) 
3.206080677486478

>  <m_score__min__rmsd>  (19) 
3.206080677486478

>  <meeko>  (19) 
{"free_energy": -6.94, "intermolecular_energy": -8.73, "internal_energy": -2.34, "cluster_size": 23, "cluster_id": 3, "rank_in_cluster": 8}

>  <energy>  (19) 
-7.53

>  <cluster_rmsd>  (19) 
0.0

>  <cluster>  (19) 
3

$$$$

     RDKit          3D

 49 52  0  0  0  0  0  0  0  0999 V2000
  140.5150   73.5660  222.3250 O   0  0  0  0  0  0  0  0  0  0  0  0
  140.3600   72.3140  222.2450 C   0  0  0  0  0  0  0  0  0  0  0  0
  140.3940   71.6310  220.9910 N   0  0  0  0  0  0  0  0  0  0  0  0
  140.6140   72.4180  219.7990 C   0  0  0  0  0  0  0  0  0  0  0  0
  141.8270   71.9970  219.0650 C   0  0  0  0  0  0  0  0  0  0  0  0
  141.7280   70.9970  218.3140 O   0  0  0  0  0  0  0  0  0  0  0  0
  143.0240   72.7400  219.2490 N   0  0  0  0  0  0  0  0  0  0  0  0
  144.3220   72.4590  218.6940 C   0  0  0  0  0  0  0  0  0  0  0  0
  145.3320   73.1110  219.5930 C   0  0  2  0  0  0  0  0  0  0  0  0
  146.3310   72.2170  219.9880 O   0  0  0  0  0  0  0  0  0  0  0  0
  144.5200   73.6190  220.7300 C   0  0  0  0  0  0  0  0  0  0  0  0
  143.2210   73.9600  220.0480 C   0  0  1  0  0  0  0  0  0  0  0  0
  143.3130   75.1080  219.1100 C   0  0  0  0  0  0  0  0  0  0  0  0
  143.6010   76.4590  219.7150 C   0  0  0  0  0  0  0  0  0  0  0  0
  142.1200   76.5570  220.0260 C   0  0  0  0  0  0  0  0  0  0  0  0
  141.9360   75.6580  218.7940 C   0  0  0  0  0  0  0  0  0  0  0  0
  140.1370   71.5120  223.4450 C   0  0  0  0  0  0  0  0  0  0  0  0
  139.3890   70.3420  223.3740 C   0  0  0  0  0  0  0  0  0  0  0  0
  139.1610   69.5580  224.4980 C   0  0  0  0  0  0  0  0  0  0  0  0
  139.6890   69.9480  225.7190 C   0  0  0  0  0  0  0  0  0  0  0  0
  139.5090   69.2300  226.8760 C   0  0  0  0  0  0  0  0  0  0  0  0
  140.0390   69.6290  228.0830 C   0  0  0  0  0  0  0  0  0  0  0  0
  139.8550   68.9150  229.2150 F   0  0  0  0  0  0  0  0  0  0  0  0
  140.7750   70.7970  228.1080 C   0  0  0  0  0  0  0  0  0  0  0  0
  140.9710   71.5440  226.9410 C   0  0  0  0  0  0  0  0  0  0  0  0
  140.4250   71.1170  225.7410 C   0  0  0  0  0  0  0  0  0  0  0  0
  140.6450   71.8740  224.6560 N   0  0  0  0  0  0  0  0  0  0  0  0
  140.2580   70.5850  220.9780 H   0  0  0  0  0  0  0  0  0  0  0  0
  139.7431   72.3073  219.1362 H   0  0  0  0  0  0  0  0  0  0  0  0
  140.7533   73.4646  220.1075 H   0  0  0  0  0  0  0  0  0  0  0  0
  144.4916   71.3727  218.6600 H   0  0  0  0  0  0  0  0  0  0  0  0
  144.4026   72.8446  217.6670 H   0  0  0  0  0  0  0  0  0  0  0  0
  145.8890   73.9199  219.0975 H   0  0  0  0  0  0  0  0  0  0  0  0
  146.0450   71.8850  220.8760 H   0  0  0  0  0  0  0  0  0  0  0  0
  144.3783   72.8453  221.4990 H   0  0  0  0  0  0  0  0  0  0  0  0
  144.9791   74.4635  221.2648 H   0  0  0  0  0  0  0  0  0  0  0  0
  142.4355   74.2407  220.7651 H   0  0  0  0  0  0  0  0  0  0  0  0
  144.0077   74.6750  218.3752 H   0  0  0  0  0  0  0  0  0  0  0  0
  144.2555   76.4364  220.5988 H   0  0  0  0  0  0  0  0  0  0  0  0
  144.1292   77.2446  219.1548 H   0  0  0  0  0  0  0  0  0  0  0  0
  141.8121   76.1090  220.9823 H   0  0  0  0  0  0  0  0  0  0  0  0
  141.5964   77.5163  220.1510 H   0  0  0  0  0  0  0  0  0  0  0  0
  141.1168   74.9281  218.8715 H   0  0  0  0  0  0  0  0  0  0  0  0
  141.6766   76.0619  217.8043 H   0  0  0  0  0  0  0  0  0  0  0  0
  138.9685   70.0303  222.4065 H   0  0  0  0  0  0  0  0  0  0  0  0
  138.5666   68.6357  224.4198 H   0  0  0  0  0  0  0  0  0  0  0  0
  138.9197   68.3020  226.8372 H   0  0  0  0  0  0  0  0  0  0  0  0
  141.2121   71.1442  229.0558 H   0  0  0  0  0  0  0  0  0  0  0  0
  141.5599   72.4724  226.9763 H   0  0  0  0  0  0  0  0  0  0  0  0
  1  2  2  0
  2  3  1  0
  3  4  1  0
  4  5  1  0
  5  6  2  0
  5  7  1  0
  7  8  1  0
  8  9  1  0
  9 10  1  0
  9 11  1  0
 11 12  1  0
 12 13  1  0
 13 14  1  0
 14 15  1  0
 15 16  1  0
  2 17  1  0
 17 18  2  0
 18 19  1  0
 19 20  2  0
 20 21  1  0
 21 22  2  0
 22 23  1  0
 22 24  1  0
 24 25  2  0
 25 26  1  0
 26 27  2  0
 12  7  1  0
 16 13  1  0
 27 17  1  0
 26 20  1  0
  3 28  1  0
  4 29  1  0
  4 30  1  0
  8 31  1  0
  8 32  1  0
  9 33  1  6
 10 34  1  0
 11 35  1  0
 11 36  1  0
 12 37  1  1
 13 38  1  0
 14 39  1  0
 14 40  1  0
 15 41  1  0
 15 42  1  0
 16 43  1  0
 16 44  1  0
 18 45  1  0
 19 46  1  0
 21 47  1  0
 24 48  1  0
 25 49  1  0
M  END
>  <smiles>  (20) 
O=C(NCC(=O)N1C[C@H](O)C[C@H]1C1CCC1)c1ccc2cc(F)ccc2n1

>  <score_type>  (20) 
oracle

>  <origin>  (20) 
autodockgpu

>  <m_score__min__energy>  (20) 
-7.7699999999999996

>  <m_primary>  (20) 
energy

>  <rmsd>  (20) 
3.583735083955062

>  <m_score__min__rmsd>  (20) 
3.583735083955062

>  <meeko>  (20) 
{"free_energy": -7.52, "intermolecular_energy": -9.31, "internal_energy": -1.4, "cluster_size": 23, "cluster_id": 3, "rank_in_cluster": 2}

>  <energy>  (20) 
-7.52

>  <cluster_rmsd>  (20) 
1.52

>  <cluster>  (20) 
3

$$$$

     RDKit          3D

 49 52  0  0  0  0  0  0  0  0999 V2000
  141.1900   72.5050  221.5070 O   0  0  0  0  0  0  0  0  0  0  0  0
  140.2790   72.6300  222.3740 C   0  0  0  0  0  0  0  0  0  0  0  0
  139.3490   73.7140  222.3360 N   0  0  0  0  0  0  0  0  0  0  0  0
  139.4780   74.6760  221.2660 C   0  0  0  0  0  0  0  0  0  0  0  0
  140.5300   75.6790  221.5390 C   0  0  0  0  0  0  0  0  0  0  0  0
  141.4470   75.3510  222.3300 O   0  0  0  0  0  0  0  0  0  0  0  0
  140.4460   76.9440  220.8980 N   0  0  0  0  0  0  0  0  0  0  0  0
  139.3640   77.4470  220.0920 C   0  0  0  0  0  0  0  0  0  0  0  0
  139.9430   78.4970  219.1900 C   0  0  2  0  0  0  0  0  0  0  0  0
  139.6090   78.2750  217.8520 O   0  0  0  0  0  0  0  0  0  0  0  0
  141.4050   78.4200  219.4470 C   0  0  0  0  0  0  0  0  0  0  0  0
  141.4380   78.0310  220.9020 C   0  0  1  0  0  0  0  0  0  0  0  0
  140.9510   79.0900  221.8220 C   0  0  0  0  0  0  0  0  0  0  0  0
  141.8650   80.2670  222.0500 C   0  0  0  0  0  0  0  0  0  0  0  0
  142.5930   79.4150  223.0720 C   0  0  0  0  0  0  0  0  0  0  0  0
  141.2350   78.7220  223.2660 C   0  0  0  0  0  0  0  0  0  0  0  0
  140.1420   71.6610  223.4580 C   0  0  0  0  0  0  0  0  0  0  0  0
  139.4610   70.4670  223.2460 C   0  0  0  0  0  0  0  0  0  0  0  0
  139.3150   69.5260  224.2570 C   0  0  0  0  0  0  0  0  0  0  0  0
  139.8590   69.7790  225.5070 C   0  0  0  0  0  0  0  0  0  0  0  0
  139.7580   68.9020  226.5600 C   0  0  0  0  0  0  0  0  0  0  0  0
  140.3030   69.1670  227.7960 C   0  0  0  0  0  0  0  0  0  0  0  0
  140.1980   68.2960  228.8240 F   0  0  0  0  0  0  0  0  0  0  0  0
  140.9710   70.3630  227.9620 C   0  0  0  0  0  0  0  0  0  0  0  0
  141.0850   71.2720  226.9040 C   0  0  0  0  0  0  0  0  0  0  0  0
  140.5260   70.9780  225.6710 C   0  0  0  0  0  0  0  0  0  0  0  0
  140.6670   71.8870  224.6950 N   0  0  0  0  0  0  0  0  0  0  0  0
  138.6070   73.7730  223.0830 H   0  0  0  0  0  0  0  0  0  0  0  0
  139.7304   74.1418  220.3381 H   0  0  0  0  0  0  0  0  0  0  0  0
  138.5199   75.2086  221.1740 H   0  0  0  0  0  0  0  0  0  0  0  0
  138.9280   76.6332  219.4939 H   0  0  0  0  0  0  0  0  0  0  0  0
  138.5659   77.8663  220.7222 H   0  0  0  0  0  0  0  0  0  0  0  0
  139.5469   79.5029  219.3931 H   0  0  0  0  0  0  0  0  0  0  0  0
  140.3350   77.7060  217.4940 H   0  0  0  0  0  0  0  0  0  0  0  0
  141.8835   77.6561  218.8165 H   0  0  0  0  0  0  0  0  0  0  0  0
  141.9483   79.3492  219.2203 H   0  0  0  0  0  0  0  0  0  0  0  0
  142.4559   77.7996  221.2489 H   0  0  0  0  0  0  0  0  0  0  0  0
  139.9511   79.2460  221.3909 H   0  0  0  0  0  0  0  0  0  0  0  0
  142.4698   80.5545  221.1774 H   0  0  0  0  0  0  0  0  0  0  0  0
  141.4742   81.2644  222.2998 H   0  0  0  0  0  0  0  0  0  0  0  0
  143.3907   78.7759  222.6655 H   0  0  0  0  0  0  0  0  0  0  0  0
  143.1723   79.8416  223.9042 H   0  0  0  0  0  0  0  0  0  0  0  0
  141.2906   77.6418  223.4665 H   0  0  0  0  0  0  0  0  0  0  0  0
  140.5512   78.9861  224.0862 H   0  0  0  0  0  0  0  0  0  0  0  0
  139.0283   70.2634  222.2554 H   0  0  0  0  0  0  0  0  0  0  0  0
  138.7724   68.5880  224.0677 H   0  0  0  0  0  0  0  0  0  0  0  0
  139.2219   67.9533  226.4098 H   0  0  0  0  0  0  0  0  0  0  0  0
  141.4190   70.6047  228.9371 H   0  0  0  0  0  0  0  0  0  0  0  0
  141.6196   72.2219  227.0518 H   0  0  0  0  0  0  0  0  0  0  0  0
  1  2  2  0
  2  3  1  0
  3  4  1  0
  4  5  1  0
  5  6  2  0
  5  7  1  0
  7  8  1  0
  8  9  1  0
  9 10  1  0
  9 11  1  0
 11 12  1  0
 12 13  1  0
 13 14  1  0
 14 15  1  0
 15 16  1  0
  2 17  1  0
 17 18  2  0
 18 19  1  0
 19 20  2  0
 20 21  1  0
 21 22  2  0
 22 23  1  0
 22 24  1  0
 24 25  2  0
 25 26  1  0
 26 27  2  0
 12  7  1  0
 16 13  1  0
 27 17  1  0
 26 20  1  0
  3 28  1  0
  4 29  1  0
  4 30  1  0
  8 31  1  0
  8 32  1  0
  9 33  1  1
 10 34  1  0
 11 35  1  0
 11 36  1  0
 12 37  1  1
 13 38  1  0
 14 39  1  0
 14 40  1  0
 15 41  1  0
 15 42  1  0
 16 43  1  0
 16 44  1  0
 18 45  1  0
 19 46  1  0
 21 47  1  0
 24 48  1  0
 25 49  1  0
M  END
>  <smiles>  (21) 
O=C(NCC(=O)N1C[C@H](O)C[C@H]1C1CCC1)c1ccc2cc(F)ccc2n1

>  <score_type>  (21) 
oracle

>  <origin>  (21) 
autodockgpu

>  <m_score__min__energy>  (21) 
-7.7699999999999996

>  <m_primary>  (21) 
energy

>  <rmsd>  (21) 
1.824948234669531

>  <m_score__min__rmsd>  (21) 
1.824948234669531

>  <meeko>  (21) 
{"free_energy": -7.33, "intermolecular_energy": -9.12, "internal_energy": -1.16, "cluster_size": 13, "cluster_id": 1, "rank_in_cluster": 13}

>  <energy>  (21) 
-7.52

>  <cluster_rmsd>  (21) 
0.11

>  <cluster>  (21) 
3

$$$$

     RDKit          3D

 49 52  0  0  0  0  0  0  0  0999 V2000
  141.1230   72.0310  221.2700 O   0  0  0  0  0  0  0  0  0  0  0  0
  140.4060   72.4140  222.2370 C   0  0  0  0  0  0  0  0  0  0  0  0
  139.7550   73.6860  222.2330 N   0  0  0  0  0  0  0  0  0  0  0  0
  139.9390   74.5350  221.0790 C   0  0  0  0  0  0  0  0  0  0  0  0
  141.1570   75.3680  221.1850 C   0  0  0  0  0  0  0  0  0  0  0  0
  142.2600   74.8050  220.9800 O   0  0  0  0  0  0  0  0  0  0  0  0
  141.0130   76.7430  221.5110 N   0  0  0  0  0  0  0  0  0  0  0  0
  141.7770   77.8490  220.9950 C   0  0  0  0  0  0  0  0  0  0  0  0
  141.6910   78.9510  222.0110 C   0  0  2  0  0  0  0  0  0  0  0  0
  142.9520   79.4410  222.3550 O   0  0  0  0  0  0  0  0  0  0  0  0
  140.9750   78.3260  223.1530 C   0  0  0  0  0  0  0  0  0  0  0  0
  140.0590   77.3590  222.4470 C   0  0  1  0  0  0  0  0  0  0  0  0
  138.9920   78.0120  221.6470 C   0  0  0  0  0  0  0  0  0  0  0  0
  137.9910   78.8480  222.4020 C   0  0  0  0  0  0  0  0  0  0  0  0
  137.2590   77.5590  222.7220 C   0  0  0  0  0  0  0  0  0  0  0  0
  137.8450   77.0520  221.3950 C   0  0  0  0  0  0  0  0  0  0  0  0
  140.2150   71.5610  223.4080 C   0  0  0  0  0  0  0  0  0  0  0  0
  139.5180   70.3630  223.2920 C   0  0  0  0  0  0  0  0  0  0  0  0
  139.3200   69.5310  224.3860 C   0  0  0  0  0  0  0  0  0  0  0  0
  139.8260   69.9000  225.6230 C   0  0  0  0  0  0  0  0  0  0  0  0
  139.6740   69.1350  226.7540 C   0  0  0  0  0  0  0  0  0  0  0  0
  140.1820   69.5140  227.9760 C   0  0  0  0  0  0  0  0  0  0  0  0
  140.0260   68.7540  229.0810 F   0  0  0  0  0  0  0  0  0  0  0  0
  140.8660   70.7110  228.0450 C   0  0  0  0  0  0  0  0  0  0  0  0
  141.0330   71.5060  226.9060 C   0  0  0  0  0  0  0  0  0  0  0  0
  140.5110   71.0990  225.6900 C   0  0  0  0  0  0  0  0  0  0  0  0
  140.7020   71.9020  224.6330 N   0  0  0  0  0  0  0  0  0  0  0  0
  139.1670   73.9590  223.0660 H   0  0  0  0  0  0  0  0  0  0  0  0
  140.0199   73.9020  220.1831 H   0  0  0  0  0  0  0  0  0  0  0  0
  139.0731   75.2104  221.0159 H   0  0  0  0  0  0  0  0  0  0  0  0
  142.8254   77.5494  220.8499 H   0  0  0  0  0  0  0  0  0  0  0  0
  141.3836   78.1791  220.0222 H   0  0  0  0  0  0  0  0  0  0  0  0
  141.1616   79.8397  221.6369 H   0  0  0  0  0  0  0  0  0  0  0  0
  143.5950   78.7880  221.9810 H   0  0  0  0  0  0  0  0  0  0  0  0
  141.6711   77.8017  223.8242 H   0  0  0  0  0  0  0  0  0  0  0  0
  140.4517   79.0456  223.7998 H   0  0  0  0  0  0  0  0  0  0  0  0
  139.5254   76.7010  223.1486 H   0  0  0  0  0  0  0  0  0  0  0  0
  139.6174   78.4735  220.8686 H   0  0  0  0  0  0  0  0  0  0  0  0
  138.3994   79.3737  223.2777 H   0  0  0  0  0  0  0  0  0  0  0  0
  137.4809   79.7033  221.9349 H   0  0  0  0  0  0  0  0  0  0  0  0
  137.6111   77.0317  223.6209 H   0  0  0  0  0  0  0  0  0  0  0  0
  136.1847   77.5221  222.9556 H   0  0  0  0  0  0  0  0  0  0  0  0
  138.1244   75.9881  221.3885 H   0  0  0  0  0  0  0  0  0  0  0  0
  137.2693   77.0560  220.4577 H   0  0  0  0  0  0  0  0  0  0  0  0
  139.1147   70.0681  222.3120 H   0  0  0  0  0  0  0  0  0  0  0  0
  138.7665   68.5873  224.2722 H   0  0  0  0  0  0  0  0  0  0  0  0
  139.1259   68.1841  226.6803 H   0  0  0  0  0  0  0  0  0  0  0  0
  141.2845   71.0435  229.0064 H   0  0  0  0  0  0  0  0  0  0  0  0
  141.5807   72.4573  226.9768 H   0  0  0  0  0  0  0  0  0  0  0  0
  1  2  2  0
  2  3  1  0
  3  4  1  0
  4  5  1  0
  5  6  2  0
  5  7  1  0
  7  8  1  0
  8  9  1  0
  9 10  1  0
  9 11  1  0
 11 12  1  0
 12 13  1  0
 13 14  1  0
 14 15  1  0
 15 16  1  0
  2 17  1  0
 17 18  2  0
 18 19  1  0
 19 20  2  0
 20 21  1  0
 21 22  2  0
 22 23  1  0
 22 24  1  0
 24 25  2  0
 25 26  1  0
 26 27  2  0
 12  7  1  0
 16 13  1  0
 27 17  1  0
 26 20  1  0
  3 28  1  0
  4 29  1  0
  4 30  1  0
  8 31  1  0
  8 32  1  0
  9 33  1  6
 10 34  1  0
 11 35  1  0
 11 36  1  0
 12 37  1  1
 13 38  1  0
 14 39  1  0
 14 40  1  0
 15 41  1  0
 15 42  1  0
 16 43  1  0
 16 44  1  0
 18 45  1  0
 19 46  1  0
 21 47  1  0
 24 48  1  0
 25 49  1  0
M  END
>  <smiles>  (22) 
O=C(NCC(=O)N1C[C@H](O)C[C@H]1C1CCC1)c1ccc2cc(F)ccc2n1

>  <score_type>  (22) 
oracle

>  <origin>  (22) 
autodockgpu

>  <m_score__min__energy>  (22) 
-7.7699999999999996

>  <m_primary>  (22) 
energy

>  <rmsd>  (22) 
2.900339010252241

>  <m_score__min__rmsd>  (22) 
2.900339010252241

>  <meeko>  (22) 
{"free_energy": -7.74, "intermolecular_energy": -9.53, "internal_energy": -1.26, "cluster_size": 13, "cluster_id": 1, "rank_in_cluster": 2}

>  <energy>  (22) 
-7.52

>  <cluster_rmsd>  (22) 
1.45

>  <cluster>  (22) 
3

$$$$

     RDKit          3D

 49 52  0  0  0  0  0  0  0  0999 V2000
  140.7560   71.6680  221.0250 O   0  0  0  0  0  0  0  0  0  0  0  0
  140.3010   72.1850  222.0840 C   0  0  0  0  0  0  0  0  0  0  0  0
  139.9370   73.5650  222.1510 N   0  0  0  0  0  0  0  0  0  0  0  0
  140.1060   74.3660  220.9610 C   0  0  0  0  0  0  0  0  0  0  0  0
  140.9780   75.5380  221.1930 C   0  0  0  0  0  0  0  0  0  0  0  0
  140.7980   76.1900  222.2500 O   0  0  0  0  0  0  0  0  0  0  0  0
  141.9610   75.8580  220.2180 N   0  0  0  0  0  0  0  0  0  0  0  0
  142.5740   77.1380  219.9810 C   0  0  0  0  0  0  0  0  0  0  0  0
  143.0570   77.1350  218.5590 C   0  0  2  0  0  0  0  0  0  0  0  0
  142.6100   78.2560  217.8560 O   0  0  0  0  0  0  0  0  0  0  0  0
  142.5360   75.8560  218.0100 C   0  0  0  0  0  0  0  0  0  0  0  0
  142.5770   74.9640  219.2240 C   0  0  1  0  0  0  0  0  0  0  0  0
  143.9490   74.6410  219.6910 C   0  0  0  0  0  0  0  0  0  0  0  0
  144.6890   73.5660  218.9360 C   0  0  0  0  0  0  0  0  0  0  0  0
  143.9350   72.5540  219.7780 C   0  0  0  0  0  0  0  0  0  0  0  0
  143.9090   73.6590  220.8450 C   0  0  0  0  0  0  0  0  0  0  0  0
  140.1270   71.3820  223.2920 C   0  0  0  0  0  0  0  0  0  0  0  0
  139.5300   70.1280  223.2160 C   0  0  0  0  0  0  0  0  0  0  0  0
  139.3520   69.3410  224.3470 C   0  0  0  0  0  0  0  0  0  0  0  0
  139.7770   69.8130  225.5790 C   0  0  0  0  0  0  0  0  0  0  0  0
  139.6370   69.0980  226.7440 C   0  0  0  0  0  0  0  0  0  0  0  0
  140.0640   69.5790  227.9620 C   0  0  0  0  0  0  0  0  0  0  0  0
  139.9210   68.8670  229.1010 F   0  0  0  0  0  0  0  0  0  0  0  0
  140.6510   70.8280  227.9900 C   0  0  0  0  0  0  0  0  0  0  0  0
  140.8040   71.5740  226.8160 C   0  0  0  0  0  0  0  0  0  0  0  0
  140.3640   71.0630  225.6050 C   0  0  0  0  0  0  0  0  0  0  0  0
  140.5360   71.8240  224.5140 N   0  0  0  0  0  0  0  0  0  0  0  0
  139.5620   73.9490  223.0590 H   0  0  0  0  0  0  0  0  0  0  0  0
  140.5548   73.7412  220.1747 H   0  0  0  0  0  0  0  0  0  0  0  0
  139.1149   74.7377  220.6617 H   0  0  0  0  0  0  0  0  0  0  0  0
  141.8386   77.9426  220.1288 H   0  0  0  0  0  0  0  0  0  0  0  0
  143.4067   77.3105  220.6788 H   0  0  0  0  0  0  0  0  0  0  0  0
  144.1522   77.1968  218.4772 H   0  0  0  0  0  0  0  0  0  0  0  0
  143.4100   78.6060  217.3900 H   0  0  0  0  0  0  0  0  0  0  0  0
  141.5097   75.9707  217.6310 H   0  0  0  0  0  0  0  0  0  0  0  0
  143.1087   75.4713  217.1533 H   0  0  0  0  0  0  0  0  0  0  0  0
  142.1019   73.9889  219.0410 H   0  0  0  0  0  0  0  0  0  0  0  0
  144.3589   75.6606  219.7391 H   0  0  0  0  0  0  0  0  0  0  0  0
  144.4666   73.5247  217.8595 H   0  0  0  0  0  0  0  0  0  0  0  0
  145.7867   73.5583  218.8649 H   0  0  0  0  0  0  0  0  0  0  0  0
  142.9506   72.2593  219.3854 H   0  0  0  0  0  0  0  0  0  0  0  0
  144.3113   71.5394  219.9752 H   0  0  0  0  0  0  0  0  0  0  0  0
  142.9924   73.6950  221.4521 H   0  0  0  0  0  0  0  0  0  0  0  0
  144.6325   73.6944  221.6729 H   0  0  0  0  0  0  0  0  0  0  0  0
  139.1915   69.7513  222.2395 H   0  0  0  0  0  0  0  0  0  0  0  0
  138.8779   68.3518  224.2655 H   0  0  0  0  0  0  0  0  0  0  0  0
  139.1664   68.1046  226.7024 H   0  0  0  0  0  0  0  0  0  0  0  0
  141.0027   71.2419  228.9466 H   0  0  0  0  0  0  0  0  0  0  0  0
  141.2743   72.5677  226.8543 H   0  0  0  0  0  0  0  0  0  0  0  0
  1  2  2  0
  2  3  1  0
  3  4  1  0
  4  5  1  0
  5  6  2  0
  5  7  1  0
  7  8  1  0
  8  9  1  0
  9 10  1  0
  9 11  1  0
 11 12  1  0
 12 13  1  0
 13 14  1  0
 14 15  1  0
 15 16  1  0
  2 17  1  0
 17 18  2  0
 18 19  1  0
 19 20  2  0
 20 21  1  0
 21 22  2  0
 22 23  1  0
 22 24  1  0
 24 25  2  0
 25 26  1  0
 26 27  2  0
 12  7  1  0
 16 13  1  0
 27 17  1  0
 26 20  1  0
  3 28  1  0
  4 29  1  0
  4 30  1  0
  8 31  1  0
  8 32  1  0
  9 33  1  1
 10 34  1  0
 11 35  1  0
 11 36  1  0
 12 37  1  6
 13 38  1  0
 14 39  1  0
 14 40  1  0
 15 41  1  0
 15 42  1  0
 16 43  1  0
 16 44  1  0
 18 45  1  0
 19 46  1  0
 21 47  1  0
 24 48  1  0
 25 49  1  0
M  END
>  <smiles>  (23) 
O=C(NCC(=O)N1C[C@H](O)C[C@H]1C1CCC1)c1ccc2cc(F)ccc2n1

>  <score_type>  (23) 
oracle

>  <origin>  (23) 
autodockgpu

>  <m_score__min__energy>  (23) 
-7.7699999999999996

>  <m_primary>  (23) 
energy

>  <rmsd>  (23) 
2.347993884938058

>  <m_score__min__rmsd>  (23) 
2.347993884938058

>  <meeko>  (23) 
{"free_energy": -7.34, "intermolecular_energy": -9.13, "internal_energy": -1.69, "cluster_size": 7, "cluster_id": 4, "rank_in_cluster": 5}

>  <energy>  (23) 
-7.44

>  <cluster_rmsd>  (23) 
0.22

>  <cluster>  (23) 
3

$$$$

     RDKit          3D

 49 52  0  0  0  0  0  0  0  0999 V2000
  141.3820   72.5570  221.5720 O   0  0  0  0  0  0  0  0  0  0  0  0
  140.4330   72.6770  222.3980 C   0  0  0  0  0  0  0  0  0  0  0  0
  139.5230   73.7770  222.3420 N   0  0  0  0  0  0  0  0  0  0  0  0
  139.7180   74.7630  221.3040 C   0  0  0  0  0  0  0  0  0  0  0  0
  139.2500   76.1050  221.7110 C   0  0  0  0  0  0  0  0  0  0  0  0
  138.2980   76.1610  222.5270 O   0  0  0  0  0  0  0  0  0  0  0  0
  139.8970   77.2450  221.1630 N   0  0  0  0  0  0  0  0  0  0  0  0
  139.4780   78.0290  220.0310 C   0  0  0  0  0  0  0  0  0  0  0  0
  140.7050   78.7030  219.4880 C   0  0  2  0  0  0  0  0  0  0  0  0
  140.8500   78.4910  218.1150 O   0  0  0  0  0  0  0  0  0  0  0  0
  141.8130   78.1210  220.2880 C   0  0  0  0  0  0  0  0  0  0  0  0
  141.1410   77.8880  221.6170 C   0  0  1  0  0  0  0  0  0  0  0  0
  140.7740   79.1350  222.3350 C   0  0  0  0  0  0  0  0  0  0  0  0
  141.6750   80.3260  222.1330 C   0  0  0  0  0  0  0  0  0  0  0  0
  142.5830   79.7310  223.1920 C   0  0  0  0  0  0  0  0  0  0  0  0
  141.2960   79.1110  223.7580 C   0  0  0  0  0  0  0  0  0  0  0  0
  140.2300   71.6850  223.4500 C   0  0  0  0  0  0  0  0  0  0  0  0
  139.5660   70.4960  223.1700 C   0  0  0  0  0  0  0  0  0  0  0  0
  139.3580   69.5330  224.1500 C   0  0  0  0  0  0  0  0  0  0  0  0
  139.8210   69.7600  225.4370 C   0  0  0  0  0  0  0  0  0  0  0  0
  139.6560   68.8610  226.4620 C   0  0  0  0  0  0  0  0  0  0  0  0
  140.1210   69.0990  227.7360 C   0  0  0  0  0  0  0  0  0  0  0  0
  139.9530   68.2070  228.7360 F   0  0  0  0  0  0  0  0  0  0  0  0
  140.7740   70.2930  227.9690 C   0  0  0  0  0  0  0  0  0  0  0  0
  140.9540   71.2230  226.9400 C   0  0  0  0  0  0  0  0  0  0  0  0
  140.4750   70.9550  225.6680 C   0  0  0  0  0  0  0  0  0  0  0  0
  140.6760   71.8850  224.7220 N   0  0  0  0  0  0  0  0  0  0  0  0
  138.7480   73.8320  223.0550 H   0  0  0  0  0  0  0  0  0  0  0  0
  140.7905   74.8193  221.0663 H   0  0  0  0  0  0  0  0  0  0  0  0
  139.1288   74.4518  220.4288 H   0  0  0  0  0  0  0  0  0  0  0  0
  139.0334   77.3779  219.2639 H   0  0  0  0  0  0  0  0  0  0  0  0
  138.7196   78.7697  220.3245 H   0  0  0  0  0  0  0  0  0  0  0  0
  140.6690   79.7986  219.5794 H   0  0  0  0  0  0  0  0  0  0  0  0
  141.5520   79.1270  217.8270 H   0  0  0  0  0  0  0  0  0  0  0  0
  142.1719   77.1782  219.8494 H   0  0  0  0  0  0  0  0  0  0  0  0
  142.7061   78.7606  220.3453 H   0  0  0  0  0  0  0  0  0  0  0  0
  141.7827   77.3346  222.3184 H   0  0  0  0  0  0  0  0  0  0  0  0
  139.7135   79.1932  222.0487 H   0  0  0  0  0  0  0  0  0  0  0  0
  142.1235   80.3978  221.1312 H   0  0  0  0  0  0  0  0  0  0  0  0
  141.2980   81.3569  222.2053 H   0  0  0  0  0  0  0  0  0  0  0  0
  143.3257   79.0098  222.8202 H   0  0  0  0  0  0  0  0  0  0  0  0
  143.2735   80.3360  223.7980 H   0  0  0  0  0  0  0  0  0  0  0  0
  141.4169   78.1067  224.1901 H   0  0  0  0  0  0  0  0  0  0  0  0
  140.7438   79.5630  224.5951 H   0  0  0  0  0  0  0  0  0  0  0  0
  139.1970   70.3135  222.1499 H   0  0  0  0  0  0  0  0  0  0  0  0
  138.8306   68.5988  223.9068 H   0  0  0  0  0  0  0  0  0  0  0  0
  139.1327   67.9153  226.2576 H   0  0  0  0  0  0  0  0  0  0  0  0
  141.1572   70.5154  228.9758 H   0  0  0  0  0  0  0  0  0  0  0  0
  141.4771   72.1695  227.1412 H   0  0  0  0  0  0  0  0  0  0  0  0
  1  2  2  0
  2  3  1  0
  3  4  1  0
  4  5  1  0
  5  6  2  0
  5  7  1  0
  7  8  1  0
  8  9  1  0
  9 10  1  0
  9 11  1  0
 11 12  1  0
 12 13  1  0
 13 14  1  0
 14 15  1  0
 15 16  1  0
  2 17  1  0
 17 18  2  0
 18 19  1  0
 19 20  2  0
 20 21  1  0
 21 22  2  0
 22 23  1  0
 22 24  1  0
 24 25  2  0
 25 26  1  0
 26 27  2  0
 12  7  1  0
 16 13  1  0
 27 17  1  0
 26 20  1  0
  3 28  1  0
  4 29  1  0
  4 30  1  0
  8 31  1  0
  8 32  1  0
  9 33  1  6
 10 34  1  0
 11 35  1  0
 11 36  1  0
 12 37  1  1
 13 38  1  0
 14 39  1  0
 14 40  1  0
 15 41  1  0
 15 42  1  0
 16 43  1  0
 16 44  1  0
 18 45  1  0
 19 46  1  0
 21 47  1  0
 24 48  1  0
 25 49  1  0
M  END
>  <smiles>  (24) 
O=C(NCC(=O)N1C[C@H](O)C[C@H]1C1CCC1)c1ccc2cc(F)ccc2n1

>  <score_type>  (24) 
oracle

>  <origin>  (24) 
autodockgpu

>  <m_score__min__energy>  (24) 
-7.7699999999999996

>  <m_primary>  (24) 
energy

>  <rmsd>  (24) 
2.1588337173062793

>  <m_score__min__rmsd>  (24) 
2.1588337173062793

>  <meeko>  (24) 
{"free_energy": -7.56, "intermolecular_energy": -9.35, "internal_energy": -1.36, "cluster_size": 13, "cluster_id": 1, "rank_in_cluster": 6}

>  <energy>  (24) 
-7.42

>  <cluster_rmsd>  (24) 
1.97

>  <cluster>  (24) 
3

$$$$

     RDKit          3D

 49 52  0  0  0  0  0  0  0  0999 V2000
  141.3160   71.9020  221.2460 O   0  0  0  0  0  0  0  0  0  0  0  0
  140.5460   72.3160  222.1580 C   0  0  0  0  0  0  0  0  0  0  0  0
  139.8860   73.5810  222.0680 N   0  0  0  0  0  0  0  0  0  0  0  0
  140.1260   74.3850  220.8930 C   0  0  0  0  0  0  0  0  0  0  0  0
  141.0360   75.5190  221.1660 C   0  0  0  0  0  0  0  0  0  0  0  0
  140.8840   76.1320  222.2500 O   0  0  0  0  0  0  0  0  0  0  0  0
  142.0210   75.8490  220.1960 N   0  0  0  0  0  0  0  0  0  0  0  0
  142.6140   77.1380  219.9540 C   0  0  0  0  0  0  0  0  0  0  0  0
  143.1080   77.1320  218.5370 C   0  0  2  0  0  0  0  0  0  0  0  0
  142.6470   78.2400  217.8210 O   0  0  0  0  0  0  0  0  0  0  0  0
  142.6150   75.8400  217.9940 C   0  0  0  0  0  0  0  0  0  0  0  0
  142.6610   74.9580  219.2150 C   0  0  1  0  0  0  0  0  0  0  0  0
  144.0350   74.6640  219.6950 C   0  0  0  0  0  0  0  0  0  0  0  0
  144.8170   73.6280  218.9280 C   0  0  0  0  0  0  0  0  0  0  0  0
  144.0790   72.5760  219.7340 C   0  0  0  0  0  0  0  0  0  0  0  0
  144.0060   73.6540  220.8260 C   0  0  0  0  0  0  0  0  0  0  0  0
  140.2980   71.5090  223.3500 C   0  0  0  0  0  0  0  0  0  0  0  0
  139.5740   70.3250  223.2530 C   0  0  0  0  0  0  0  0  0  0  0  0
  139.3230   69.5360  224.3690 C   0  0  0  0  0  0  0  0  0  0  0  0
  139.8030   69.9340  225.6070 C   0  0  0  0  0  0  0  0  0  0  0  0
  139.5980   69.2120  226.7570 C   0  0  0  0  0  0  0  0  0  0  0  0
  140.0800   69.6200  227.9810 C   0  0  0  0  0  0  0  0  0  0  0  0
  139.8720   68.9010  229.1060 F   0  0  0  0  0  0  0  0  0  0  0  0
  140.7930   70.8000  228.0310 C   0  0  0  0  0  0  0  0  0  0  0  0
  141.0140   71.5520  226.8720 C   0  0  0  0  0  0  0  0  0  0  0  0
  140.5160   71.1170  225.6540 C   0  0  0  0  0  0  0  0  0  0  0  0
  140.7590   71.8790  224.5770 N   0  0  0  0  0  0  0  0  0  0  0  0
  139.2540   73.8810  222.8570 H   0  0  0  0  0  0  0  0  0  0  0  0
  140.5754   73.7499  220.1154 H   0  0  0  0  0  0  0  0  0  0  0  0
  139.1610   74.7988  220.5651 H   0  0  0  0  0  0  0  0  0  0  0  0
  141.8637   77.9309  220.0896 H   0  0  0  0  0  0  0  0  0  0  0  0
  143.4378   77.3305  220.6571 H   0  0  0  0  0  0  0  0  0  0  0  0
  144.2026   77.2124  218.4637 H   0  0  0  0  0  0  0  0  0  0  0  0
  143.4450   78.6030  217.3620 H   0  0  0  0  0  0  0  0  0  0  0  0
  141.5903   75.9334  217.6052 H   0  0  0  0  0  0  0  0  0  0  0  0
  143.2024   75.4590  217.1456 H   0  0  0  0  0  0  0  0  0  0  0  0
  142.2047   73.9731  219.0368 H   0  0  0  0  0  0  0  0  0  0  0  0
  144.4145   75.6936  219.7719 H   0  0  0  0  0  0  0  0  0  0  0  0
  144.6129   73.6055  217.8473 H   0  0  0  0  0  0  0  0  0  0  0  0
  145.9154   73.6527  218.8748 H   0  0  0  0  0  0  0  0  0  0  0  0
  143.1093   72.2637  219.3192 H   0  0  0  0  0  0  0  0  0  0  0  0
  144.4805   71.5677  219.9133 H   0  0  0  0  0  0  0  0  0  0  0  0
  143.0800   73.6499  221.4197 H   0  0  0  0  0  0  0  0  0  0  0  0
  144.7158   73.6902  221.6656 H   0  0  0  0  0  0  0  0  0  0  0  0
  139.1921   70.0066  222.2718 H   0  0  0  0  0  0  0  0  0  0  0  0
  138.7481   68.6033  224.2708 H   0  0  0  0  0  0  0  0  0  0  0  0
  139.0278   68.2731  226.6985 H   0  0  0  0  0  0  0  0  0  0  0  0
  141.1923   71.1537  228.9930 H   0  0  0  0  0  0  0  0  0  0  0  0
  141.5845   72.4909  226.9277 H   0  0  0  0  0  0  0  0  0  0  0  0
  1  2  2  0
  2  3  1  0
  3  4  1  0
  4  5  1  0
  5  6  2  0
  5  7  1  0
  7  8  1  0
  8  9  1  0
  9 10  1  0
  9 11  1  0
 11 12  1  0
 12 13  1  0
 13 14  1  0
 14 15  1  0
 15 16  1  0
  2 17  1  0
 17 18  2  0
 18 19  1  0
 19 20  2  0
 20 21  1  0
 21 22  2  0
 22 23  1  0
 22 24  1  0
 24 25  2  0
 25 26  1  0
 26 27  2  0
 12  7  1  0
 16 13  1  0
 27 17  1  0
 26 20  1  0
  3 28  1  0
  4 29  1  0
  4 30  1  0
  8 31  1  0
  8 32  1  0
  9 33  1  1
 10 34  1  0
 11 35  1  0
 11 36  1  0
 12 37  1  6
 13 38  1  0
 14 39  1  0
 14 40  1  0
 15 41  1  0
 15 42  1  0
 16 43  1  0
 16 44  1  0
 18 45  1  0
 19 46  1  0
 21 47  1  0
 24 48  1  0
 25 49  1  0
M  END
>  <smiles>  (25) 
O=C(NCC(=O)N1C[C@H](O)C[C@H]1C1CCC1)c1ccc2cc(F)ccc2n1

>  <score_type>  (25) 
oracle

>  <origin>  (25) 
autodockgpu

>  <m_score__min__energy>  (25) 
-7.7699999999999996

>  <m_primary>  (25) 
energy

>  <rmsd>  (25) 
2.412352350021218

>  <m_score__min__rmsd>  (25) 
2.412352350021218

>  <meeko>  (25) 
{"free_energy": -7.46, "intermolecular_energy": -9.24, "internal_energy": -1.57, "cluster_size": 7, "cluster_id": 4, "rank_in_cluster": 1}

>  <energy>  (25) 
-6.94

>  <cluster_rmsd>  (25) 
1.6

>  <cluster>  (25) 
3

$$$$

     RDKit          3D

 49 52  0  0  0  0  0  0  0  0999 V2000
  141.3620   72.3120  221.5630 O   0  0  0  0  0  0  0  0  0  0  0  0
  140.4600   72.5420  222.4190 C   0  0  0  0  0  0  0  0  0  0  0  0
  139.6230   73.6960  222.3370 N   0  0  0  0  0  0  0  0  0  0  0  0
  139.8340   74.6070  221.2360 C   0  0  0  0  0  0  0  0  0  0  0  0
  139.5070   76.0040  221.5940 C   0  0  0  0  0  0  0  0  0  0  0  0
  138.6470   76.1830  222.4910 O   0  0  0  0  0  0  0  0  0  0  0  0
  140.1760   77.0550  220.9120 N   0  0  0  0  0  0  0  0  0  0  0  0
  139.7380   77.7470  219.7280 C   0  0  0  0  0  0  0  0  0  0  0  0
  140.9660   78.3080  219.0700 C   0  0  2  0  0  0  0  0  0  0  0  0
  141.0360   77.9600  217.7190 O   0  0  0  0  0  0  0  0  0  0  0  0
  142.0850   77.7520  219.8750 C   0  0  0  0  0  0  0  0  0  0  0  0
  141.4660   77.6780  221.2470 C   0  0  1  0  0  0  0  0  0  0  0  0
  141.1870   79.0030  221.8570 C   0  0  0  0  0  0  0  0  0  0  0  0
  142.2820   79.6090  222.6970 C   0  0  0  0  0  0  0  0  0  0  0  0
  141.7900   78.7420  223.8390 C   0  0  0  0  0  0  0  0  0  0  0  0
  140.4190   78.8490  223.1540 C   0  0  0  0  0  0  0  0  0  0  0  0
  140.2410   71.6250  223.5350 C   0  0  0  0  0  0  0  0  0  0  0  0
  139.5460   70.4360  223.3360 C   0  0  0  0  0  0  0  0  0  0  0  0
  139.3220   69.5450  224.3780 C   0  0  0  0  0  0  0  0  0  0  0  0
  139.7990   69.8440  225.6450 C   0  0  0  0  0  0  0  0  0  0  0  0
  139.6190   69.0170  226.7270 C   0  0  0  0  0  0  0  0  0  0  0  0
  140.0980   69.3270  227.9800 C   0  0  0  0  0  0  0  0  0  0  0  0
  139.9150   68.5060  229.0380 F   0  0  0  0  0  0  0  0  0  0  0  0
  140.7810   70.5170  228.1320 C   0  0  0  0  0  0  0  0  0  0  0  0
  140.9760   71.3740  227.0440 C   0  0  0  0  0  0  0  0  0  0  0  0
  140.4820   71.0360  225.7940 C   0  0  0  0  0  0  0  0  0  0  0  0
  140.6990   71.8960  224.7890 N   0  0  0  0  0  0  0  0  0  0  0  0
  138.8850   73.8420  223.0770 H   0  0  0  0  0  0  0  0  0  0  0  0
  140.8903   74.5573  220.9330 H   0  0  0  0  0  0  0  0  0  0  0  0
  139.1665   74.3044  220.4157 H   0  0  0  0  0  0  0  0  0  0  0  0
  139.2303   77.0477  219.0474 H   0  0  0  0  0  0  0  0  0  0  0  0
  139.0267   78.5472  219.9805 H   0  0  0  0  0  0  0  0  0  0  0  0
  140.9822   79.4078  219.0562 H   0  0  0  0  0  0  0  0  0  0  0  0
  141.9760   78.1290  217.4570 H   0  0  0  0  0  0  0  0  0  0  0  0
  142.3821   76.7560  219.5147 H   0  0  0  0  0  0  0  0  0  0  0  0
  143.0068   78.3508  219.8324 H   0  0  0  0  0  0  0  0  0  0  0  0
  142.1160   77.1633  221.9699 H   0  0  0  0  0  0  0  0  0  0  0  0
  140.8236   79.5307  220.9629 H   0  0  0  0  0  0  0  0  0  0  0  0
  143.3024   79.3820  222.3547 H   0  0  0  0  0  0  0  0  0  0  0  0
  142.3958   80.6979  222.8033 H   0  0  0  0  0  0  0  0  0  0  0  0
  142.2173   77.7290  223.8753 H   0  0  0  0  0  0  0  0  0  0  0  0
  141.9527   78.9954  224.8970 H   0  0  0  0  0  0  0  0  0  0  0  0
  139.7968   77.9442  223.2192 H   0  0  0  0  0  0  0  0  0  0  0  0
  139.6556   79.5729  223.4753 H   0  0  0  0  0  0  0  0  0  0  0  0
  139.1658   70.1965  222.3320 H   0  0  0  0  0  0  0  0  0  0  0  0
  138.7708   68.6100  224.1993 H   0  0  0  0  0  0  0  0  0  0  0  0
  139.0723   68.0728  226.5872 H   0  0  0  0  0  0  0  0  0  0  0  0
  141.1765   70.7944  229.1203 H   0  0  0  0  0  0  0  0  0  0  0  0
  141.5228   72.3186  227.1808 H   0  0  0  0  0  0  0  0  0  0  0  0
  1  2  2  0
  2  3  1  0
  3  4  1  0
  4  5  1  0
  5  6  2  0
  5  7  1  0
  7  8  1  0
  8  9  1  0
  9 10  1  0
  9 11  1  0
 11 12  1  0
 12 13  1  0
 13 14  1  0
 14 15  1  0
 15 16  1  0
  2 17  1  0
 17 18  2  0
 18 19  1  0
 19 20  2  0
 20 21  1  0
 21 22  2  0
 22 23  1  0
 22 24  1  0
 24 25  2  0
 25 26  1  0
 26 27  2  0
 12  7  1  0
 16 13  1  0
 27 17  1  0
 26 20  1  0
  3 28  1  0
  4 29  1  0
  4 30  1  0
  8 31  1  0
  8 32  1  0
  9 33  1  6
 10 34  1  0
 11 35  1  0
 11 36  1  0
 12 37  1  1
 13 38  1  0
 14 39  1  0
 14 40  1  0
 15 41  1  0
 15 42  1  0
 16 43  1  0
 16 44  1  0
 18 45  1  0
 19 46  1  0
 21 47  1  0
 24 48  1  0
 25 49  1  0
M  END
>  <smiles>  (26) 
O=C(NCC(=O)N1C[C@H](O)C[C@H]1C1CCC1)c1ccc2cc(F)ccc2n1

>  <score_type>  (26) 
oracle

>  <origin>  (26) 
autodockgpu

>  <m_score__min__energy>  (26) 
-7.7699999999999996

>  <m_primary>  (26) 
energy

>  <rmsd>  (26) 
1.9834219535856845

>  <m_score__min__rmsd>  (26) 
1.9834219535856845

>  <meeko>  (26) 
{"free_energy": -7.52, "intermolecular_energy": -9.31, "internal_energy": -1.47, "cluster_size": 13, "cluster_id": 1, "rank_in_cluster": 7}

>  <energy>  (26) 
-6.94

>  <cluster_rmsd>  (26) 
1.6

>  <cluster>  (26) 
3

$$$$

     RDKit          3D

 49 52  0  0  0  0  0  0  0  0999 V2000
  140.5780   71.7270  221.0170 O   0  0  0  0  0  0  0  0  0  0  0  0
  140.1810   72.2400  222.1020 C   0  0  0  0  0  0  0  0  0  0  0  0
  139.8510   73.6260  222.2020 N   0  0  0  0  0  0  0  0  0  0  0  0
  139.9840   74.4390  221.0150 C   0  0  0  0  0  0  0  0  0  0  0  0
  141.1410   75.3580  221.0920 C   0  0  0  0  0  0  0  0  0  0  0  0
  142.2730   74.8820  220.8320 O   0  0  0  0  0  0  0  0  0  0  0  0
  140.9100   76.7130  221.4520 N   0  0  0  0  0  0  0  0  0  0  0  0
  141.6010   77.8780  220.9650 C   0  0  0  0  0  0  0  0  0  0  0  0
  141.4450   78.9460  222.0080 C   0  0  2  0  0  0  0  0  0  0  0  0
  142.6730   79.5070  222.3650 O   0  0  0  0  0  0  0  0  0  0  0  0
  140.7730   78.2480  223.1340 C   0  0  0  0  0  0  0  0  0  0  0  0
  139.9200   77.2420  222.4040 C   0  0  1  0  0  0  0  0  0  0  0  0
  138.8120   77.8450  221.6210 C   0  0  0  0  0  0  0  0  0  0  0  0
  137.7650   78.6040  222.3960 C   0  0  0  0  0  0  0  0  0  0  0  0
  137.1140   77.2660  222.6920 C   0  0  0  0  0  0  0  0  0  0  0  0
  137.7240   76.8230  221.3530 C   0  0  0  0  0  0  0  0  0  0  0  0
  140.0440   71.4240  223.3060 C   0  0  0  0  0  0  0  0  0  0  0  0
  139.4540   70.1670  223.2350 C   0  0  0  0  0  0  0  0  0  0  0  0
  139.3100   69.3690  224.3630 C   0  0  0  0  0  0  0  0  0  0  0  0
  139.7630   69.8320  225.5880 C   0  0  0  0  0  0  0  0  0  0  0  0
  139.6590   69.1060  226.7490 C   0  0  0  0  0  0  0  0  0  0  0  0
  140.1130   69.5790  227.9600 C   0  0  0  0  0  0  0  0  0  0  0  0
  140.0050   68.8560  229.0950 F   0  0  0  0  0  0  0  0  0  0  0  0
  140.6920   70.8320  227.9840 C   0  0  0  0  0  0  0  0  0  0  0  0
  140.8100   71.5890  226.8140 C   0  0  0  0  0  0  0  0  0  0  0  0
  140.3430   71.0870  225.6100 C   0  0  0  0  0  0  0  0  0  0  0  0
  140.4820   71.8580  224.5210 N   0  0  0  0  0  0  0  0  0  0  0  0
  139.5260   74.0060  223.1310 H   0  0  0  0  0  0  0  0  0  0  0  0
  140.1145   73.7776  220.1458 H   0  0  0  0  0  0  0  0  0  0  0  0
  139.0740   75.0499  220.9212 H   0  0  0  0  0  0  0  0  0  0  0  0
  142.6664   77.6500  220.8136 H   0  0  0  0  0  0  0  0  0  0  0  0
  141.1868   78.2066  220.0004 H   0  0  0  0  0  0  0  0  0  0  0  0
  140.8585   79.8074  221.6559 H   0  0  0  0  0  0  0  0  0  0  0  0
  143.3200   79.1600  221.7000 H   0  0  0  0  0  0  0  0  0  0  0  0
  141.5027   77.7530  223.7917 H   0  0  0  0  0  0  0  0  0  0  0  0
  140.2057   78.9160  223.7988 H   0  0  0  0  0  0  0  0  0  0  0  0
  139.4315   76.5332  223.0888 H   0  0  0  0  0  0  0  0  0  0  0  0
  139.4052   78.3589  220.8503 H   0  0  0  0  0  0  0  0  0  0  0  0
  138.1444   79.1359  223.2810 H   0  0  0  0  0  0  0  0  0  0  0  0
  137.2020   79.4360  221.9480 H   0  0  0  0  0  0  0  0  0  0  0  0
  137.5015   76.7429  223.5787 H   0  0  0  0  0  0  0  0  0  0  0  0
  136.0450   77.1588  222.9282 H   0  0  0  0  0  0  0  0  0  0  0  0
  138.0671   75.7783  221.3235 H   0  0  0  0  0  0  0  0  0  0  0  0
  137.1450   76.8116  220.4178 H   0  0  0  0  0  0  0  0  0  0  0  0
  139.0933   69.7962  222.2642 H   0  0  0  0  0  0  0  0  0  0  0  0
  138.8401   68.3775  224.2844 H   0  0  0  0  0  0  0  0  0  0  0  0
  139.1956   68.1091  226.7102 H   0  0  0  0  0  0  0  0  0  0  0  0
  141.0651   71.2400  228.9350 H   0  0  0  0  0  0  0  0  0  0  0  0
  141.2747   72.5854  226.8497 H   0  0  0  0  0  0  0  0  0  0  0  0
  1  2  2  0
  2  3  1  0
  3  4  1  0
  4  5  1  0
  5  6  2  0
  5  7  1  0
  7  8  1  0
  8  9  1  0
  9 10  1  0
  9 11  1  0
 11 12  1  0
 12 13  1  0
 13 14  1  0
 14 15  1  0
 15 16  1  0
  2 17  1  0
 17 18  2  0
 18 19  1  0
 19 20  2  0
 20 21  1  0
 21 22  2  0
 22 23  1  0
 22 24  1  0
 24 25  2  0
 25 26  1  0
 26 27  2  0
 12  7  1  0
 16 13  1  0
 27 17  1  0
 26 20  1  0
  3 28  1  0
  4 29  1  0
  4 30  1  0
  8 31  1  0
  8 32  1  0
  9 33  1  6
 10 34  1  0
 11 35  1  0
 11 36  1  0
 12 37  1  1
 13 38  1  0
 14 39  1  0
 14 40  1  0
 15 41  1  0
 15 42  1  0
 16 43  1  0
 16 44  1  0
 18 45  1  0
 19 46  1  0
 21 47  1  0
 24 48  1  0
 25 49  1  0
M  END
>  <smiles>  (27) 
O=C(NCC(=O)N1C[C@H](O)C[C@H]1C1CCC1)c1ccc2cc(F)ccc2n1

>  <score_type>  (27) 
oracle

>  <origin>  (27) 
autodockgpu

>  <m_score__min__energy>  (27) 
-7.7699999999999996

>  <m_primary>  (27) 
energy

>  <rmsd>  (27) 
2.8465416019832976

>  <m_score__min__rmsd>  (27) 
2.8465416019832976

>  <meeko>  (27) 
{"free_energy": -7.52, "intermolecular_energy": -9.31, "internal_energy": -1.35, "cluster_size": 13, "cluster_id": 1, "rank_in_cluster": 8}

>  <energy>  (27) 
-6.91

>  <cluster_rmsd>  (27) 
1.59

>  <cluster>  (27) 
3

$$$$

     RDKit          3D

 49 52  0  0  0  0  0  0  0  0999 V2000
  139.6130   70.8470  221.3900 O   0  0  0  0  0  0  0  0  0  0  0  0
  139.6480   71.3660  222.5420 C   0  0  0  0  0  0  0  0  0  0  0  0
  139.6150   72.7820  222.7300 N   0  0  0  0  0  0  0  0  0  0  0  0
  139.5390   73.6170  221.5540 C   0  0  0  0  0  0  0  0  0  0  0  0
  140.7130   74.5060  221.4220 C   0  0  0  0  0  0  0  0  0  0  0  0
  140.6530   75.6280  221.9810 O   0  0  0  0  0  0  0  0  0  0  0  0
  141.8320   74.0470  220.6770 N   0  0  0  0  0  0  0  0  0  0  0  0
  142.1060   72.7000  220.2490 C   0  0  0  0  0  0  0  0  0  0  0  0
  143.5900   72.6000  220.0450 C   0  0  2  0  0  0  0  0  0  0  0  0
  144.1360   71.5090  220.7250 O   0  0  0  0  0  0  0  0  0  0  0  0
  144.1050   73.9070  220.5300 C   0  0  0  0  0  0  0  0  0  0  0  0
  142.9710   74.8330  220.1730 C   0  0  1  0  0  0  0  0  0  0  0  0
  142.7820   75.0220  218.7120 C   0  0  0  0  0  0  0  0  0  0  0  0
  143.6900   76.0150  218.0320 C   0  0  0  0  0  0  0  0  0  0  0  0
  142.7470   77.1010  218.5110 C   0  0  0  0  0  0  0  0  0  0  0  0
  141.6660   76.0110  218.4360 C   0  0  0  0  0  0  0  0  0  0  0  0
  139.7250   70.5280  223.7360 C   0  0  0  0  0  0  0  0  0  0  0  0
  139.2070   69.2370  223.7170 C   0  0  0  0  0  0  0  0  0  0  0  0
  139.2650   68.4170  224.8370 C   0  0  0  0  0  0  0  0  0  0  0  0
  139.8520   68.8910  225.9990 C   0  0  0  0  0  0  0  0  0  0  0  0
  139.9490   68.1440  227.1480 C   0  0  0  0  0  0  0  0  0  0  0  0
  140.5350   68.6290  228.2970 C   0  0  0  0  0  0  0  0  0  0  0  0
  140.6250   67.8850  229.4210 F   0  0  0  0  0  0  0  0  0  0  0  0
  141.0360   69.9140  228.2700 C   0  0  0  0  0  0  0  0  0  0  0  0
  140.9480   70.6930  227.1110 C   0  0  0  0  0  0  0  0  0  0  0  0
  140.3530   70.1790  225.9700 C   0  0  0  0  0  0  0  0  0  0  0  0
  140.2960   70.9710  224.8900 N   0  0  0  0  0  0  0  0  0  0  0  0
  139.6470   73.1650  223.7120 H   0  0  0  0  0  0  0  0  0  0  0  0
  139.4817   72.9719  220.6649 H   0  0  0  0  0  0  0  0  0  0  0  0
  138.6449   74.2509  221.6478 H   0  0  0  0  0  0  0  0  0  0  0  0
  141.7811   71.9850  221.0192 H   0  0  0  0  0  0  0  0  0  0  0  0
  141.5645   72.4641  219.3210 H   0  0  0  0  0  0  0  0  0  0  0  0
  143.8674   72.4177  218.9963 H   0  0  0  0  0  0  0  0  0  0  0  0
  144.9110   71.8740  221.2210 H   0  0  0  0  0  0  0  0  0  0  0  0
  144.2826   73.8903  221.6154 H   0  0  0  0  0  0  0  0  0  0  0  0
  145.0722   74.1960  220.0931 H   0  0  0  0  0  0  0  0  0  0  0  0
  143.1180   75.8465  220.5746 H   0  0  0  0  0  0  0  0  0  0  0  0
  142.7877   73.9673  218.3996 H   0  0  0  0  0  0  0  0  0  0  0  0
  144.7054   76.0708  218.4514 H   0  0  0  0  0  0  0  0  0  0  0  0
  143.9680   75.9149  216.9724 H   0  0  0  0  0  0  0  0  0  0  0  0
  142.9525   77.4876  219.5201 H   0  0  0  0  0  0  0  0  0  0  0  0
  142.6512   78.0754  218.0097 H   0  0  0  0  0  0  0  0  0  0  0  0
  140.8946   76.0691  219.2180 H   0  0  0  0  0  0  0  0  0  0  0  0
  140.9904   75.9105  217.5738 H   0  0  0  0  0  0  0  0  0  0  0  0
  138.7415   68.8573  222.7955 H   0  0  0  0  0  0  0  0  0  0  0  0
  138.8482   67.3996  224.8015 H   0  0  0  0  0  0  0  0  0  0  0  0
  139.5440   67.1213  227.1508 H   0  0  0  0  0  0  0  0  0  0  0  0
  141.5104   70.3313  229.1705 H   0  0  0  0  0  0  0  0  0  0  0  0
  141.3522   71.7160  227.1056 H   0  0  0  0  0  0  0  0  0  0  0  0
  1  2  2  0
  2  3  1  0
  3  4  1  0
  4  5  1  0
  5  6  2  0
  5  7  1  0
  7  8  1  0
  8  9  1  0
  9 10  1  0
  9 11  1  0
 11 12  1  0
 12 13  1  0
 13 14  1  0
 14 15  1  0
 15 16  1  0
  2 17  1  0
 17 18  2  0
 18 19  1  0
 19 20  2  0
 20 21  1  0
 21 22  2  0
 22 23  1  0
 22 24  1  0
 24 25  2  0
 25 26  1  0
 26 27  2  0
 12  7  1  0
 16 13  1  0
 27 17  1  0
 26 20  1  0
  3 28  1  0
  4 29  1  0
  4 30  1  0
  8 31  1  0
  8 32  1  0
  9 33  1  6
 10 34  1  0
 11 35  1  0
 11 36  1  0
 12 37  1  1
 13 38  1  0
 14 39  1  0
 14 40  1  0
 15 41  1  0
 15 42  1  0
 16 43  1  0
 16 44  1  0
 18 45  1  0
 19 46  1  0
 21 47  1  0
 24 48  1  0
 25 49  1  0
M  END
>  <smiles>  (28) 
O=C(NCC(=O)N1C[C@H](O)C[C@H]1C1CCC1)c1ccc2cc(F)ccc2n1

>  <score_type>  (28) 
oracle

>  <origin>  (28) 
autodockgpu

>  <m_score__min__energy>  (28) 
-7.7699999999999996

>  <m_primary>  (28) 
energy

>  <rmsd>  (28) 
2.6493087398738715

>  <m_score__min__rmsd>  (28) 
2.6493087398738715

>  <meeko>  (28) 
{"free_energy": -7.09, "intermolecular_energy": -8.88, "internal_energy": -1.54, "cluster_size": 7, "cluster_id": 4, "rank_in_cluster": 6}

>  <energy>  (28) 
-6.9

>  <cluster_rmsd>  (28) 
1.59

>  <cluster>  (28) 
3

$$$$

     RDKit          3D

 49 52  0  0  0  0  0  0  0  0999 V2000
  140.2760   71.3820  221.0830 O   0  0  0  0  0  0  0  0  0  0  0  0
  140.0570   71.9220  222.2050 C   0  0  0  0  0  0  0  0  0  0  0  0
  139.9100   73.3360  222.3430 N   0  0  0  0  0  0  0  0  0  0  0  0
  140.0200   74.1460  221.1510 C   0  0  0  0  0  0  0  0  0  0  0  0
  141.4250   74.4630  220.8170 C   0  0  0  0  0  0  0  0  0  0  0  0
  141.8260   75.6280  221.0580 O   0  0  0  0  0  0  0  0  0  0  0  0
  142.2360   73.4440  220.2490 N   0  0  0  0  0  0  0  0  0  0  0  0
  142.0270   72.7530  219.0040 C   0  0  0  0  0  0  0  0  0  0  0  0
  142.7400   71.4360  219.1110 C   0  0  2  0  0  0  0  0  0  0  0  0
  141.9070   70.3650  218.7790 O   0  0  0  0  0  0  0  0  0  0  0  0
  143.2060   71.3980  220.5220 C   0  0  0  0  0  0  0  0  0  0  0  0
  143.4690   72.8560  220.7960 C   0  0  1  0  0  0  0  0  0  0  0  0
  144.6160   73.4160  220.0370 C   0  0  0  0  0  0  0  0  0  0  0  0
  145.9220   72.6680  220.1290 C   0  0  0  0  0  0  0  0  0  0  0  0
  146.1630   73.3890  221.4410 C   0  0  0  0  0  0  0  0  0  0  0  0
  145.3060   74.5090  220.8310 C   0  0  0  0  0  0  0  0  0  0  0  0
  139.9440   71.1100  223.4140 C   0  0  0  0  0  0  0  0  0  0  0  0
  139.3540   69.8520  223.3580 C   0  0  0  0  0  0  0  0  0  0  0  0
  139.2330   69.0570  224.4910 C   0  0  0  0  0  0  0  0  0  0  0  0
  139.7090   69.5250  225.7050 C   0  0  0  0  0  0  0  0  0  0  0  0
  139.6280   68.8020  226.8710 C   0  0  0  0  0  0  0  0  0  0  0  0
  140.1050   69.2800  228.0710 C   0  0  0  0  0  0  0  0  0  0  0  0
  140.0190   68.5600  229.2110 F   0  0  0  0  0  0  0  0  0  0  0  0
  140.6830   70.5330  228.0810 C   0  0  0  0  0  0  0  0  0  0  0  0
  140.7760   71.2870  226.9060 C   0  0  0  0  0  0  0  0  0  0  0  0
  140.2870   70.7800  225.7120 C   0  0  0  0  0  0  0  0  0  0  0  0
  140.4040   71.5480  224.6190 N   0  0  0  0  0  0  0  0  0  0  0  0
  139.7280   73.7370  223.3010 H   0  0  0  0  0  0  0  0  0  0  0  0
  139.5707   73.5993  220.3088 H   0  0  0  0  0  0  0  0  0  0  0  0
  139.4959   75.0947  221.3387 H   0  0  0  0  0  0  0  0  0  0  0  0
  140.9520   72.5888  218.8384 H   0  0  0  0  0  0  0  0  0  0  0  0
  142.4116   73.3413  218.1578 H   0  0  0  0  0  0  0  0  0  0  0  0
  143.5771   71.3422  218.4036 H   0  0  0  0  0  0  0  0  0  0  0  0
  141.0790   70.5090  219.3010 H   0  0  0  0  0  0  0  0  0  0  0  0
  142.4291   70.9982  221.1903 H   0  0  0  0  0  0  0  0  0  0  0  0
  144.0781   70.7482  220.6870 H   0  0  0  0  0  0  0  0  0  0  0  0
  143.7074   73.0456  221.8530 H   0  0  0  0  0  0  0  0  0  0  0  0
  144.1272   73.5520  219.0610 H   0  0  0  0  0  0  0  0  0  0  0  0
  145.8206   71.5762  220.2169 H   0  0  0  0  0  0  0  0  0  0  0  0
  146.6596   72.6873  219.3132 H   0  0  0  0  0  0  0  0  0  0  0  0
  145.7332   72.9016  222.3285 H   0  0  0  0  0  0  0  0  0  0  0  0
  147.1678   73.5611  221.8542 H   0  0  0  0  0  0  0  0  0  0  0  0
  144.6604   75.0399  221.5461 H   0  0  0  0  0  0  0  0  0  0  0  0
  145.7492   75.3943  220.3515 H   0  0  0  0  0  0  0  0  0  0  0  0
  138.9748   69.4781  222.3955 H   0  0  0  0  0  0  0  0  0  0  0  0
  138.7633   68.0645  224.4247 H   0  0  0  0  0  0  0  0  0  0  0  0
  139.1650   67.8045  226.8446 H   0  0  0  0  0  0  0  0  0  0  0  0
  141.0750   70.9436  229.0232 H   0  0  0  0  0  0  0  0  0  0  0  0
  141.2384   72.2848  226.9298 H   0  0  0  0  0  0  0  0  0  0  0  0
  1  2  2  0
  2  3  1  0
  3  4  1  0
  4  5  1  0
  5  6  2  0
  5  7  1  0
  7  8  1  0
  8  9  1  0
  9 10  1  0
  9 11  1  0
 11 12  1  0
 12 13  1  0
 13 14  1  0
 14 15  1  0
 15 16  1  0
  2 17  1  0
 17 18  2  0
 18 19  1  0
 19 20  2  0
 20 21  1  0
 21 22  2  0
 22 23  1  0
 22 24  1  0
 24 25  2  0
 25 26  1  0
 26 27  2  0
 12  7  1  0
 16 13  1  0
 27 17  1  0
 26 20  1  0
  3 28  1  0
  4 29  1  0
  4 30  1  0
  8 31  1  0
  8 32  1  0
  9 33  1  6
 10 34  1  0
 11 35  1  0
 11 36  1  0
 12 37  1  1
 13 38  1  0
 14 39  1  0
 14 40  1  0
 15 41  1  0
 15 42  1  0
 16 43  1  0
 16 44  1  0
 18 45  1  0
 19 46  1  0
 21 47  1  0
 24 48  1  0
 25 49  1  0
M  END
>  <smiles>  (29) 
O=C(NCC(=O)N1C[C@H](O)C[C@H]1C1CCC1)c1ccc2cc(F)ccc2n1

>  <score_type>  (29) 
oracle

>  <origin>  (29) 
autodockgpu

>  <m_score__min__energy>  (29) 
-7.7699999999999996

>  <m_primary>  (29) 
energy

>  <rmsd>  (29) 
3.191551807464062

>  <m_score__min__rmsd>  (29) 
3.191551807464062

>  <meeko>  (29) 
{"free_energy": -6.88, "intermolecular_energy": -8.67, "internal_energy": -2.39, "cluster_size": 23, "cluster_id": 3, "rank_in_cluster": 12}

>  <energy>  (29) 
-6.89

>  <cluster_rmsd>  (29) 
1.59

>  <cluster>  (29) 
3

$$$$

     RDKit          3D

 49 52  0  0  0  0  0  0  0  0999 V2000
  141.3960   72.5830  221.5280 O   0  0  0  0  0  0  0  0  0  0  0  0
  140.4630   72.7000  222.3720 C   0  0  0  0  0  0  0  0  0  0  0  0
  139.5720   73.8170  222.3570 N   0  0  0  0  0  0  0  0  0  0  0  0
  139.7670   74.8230  221.3390 C   0  0  0  0  0  0  0  0  0  0  0  0
  139.3690   76.1710  221.7990 C   0  0  0  0  0  0  0  0  0  0  0  0
  138.5110   76.2380  222.7120 O   0  0  0  0  0  0  0  0  0  0  0  0
  139.9740   77.3030  221.1900 N   0  0  0  0  0  0  0  0  0  0  0  0
  139.4750   78.0690  220.0780 C   0  0  0  0  0  0  0  0  0  0  0  0
  140.6600   78.7350  219.4400 C   0  0  2  0  0  0  0  0  0  0  0  0
  140.7080   78.5030  218.0640 O   0  0  0  0  0  0  0  0  0  0  0  0
  141.8230   78.1660  220.1690 C   0  0  0  0  0  0  0  0  0  0  0  0
  141.2460   77.9530  221.5450 C   0  0  1  0  0  0  0  0  0  0  0  0
  140.9280   79.2110  222.2680 C   0  0  0  0  0  0  0  0  0  0  0  0
  141.8770   80.3660  222.0740 C   0  0  0  0  0  0  0  0  0  0  0  0
  142.7590   79.7290  223.1310 C   0  0  0  0  0  0  0  0  0  0  0  0
  141.4470   79.1590  223.6920 C   0  0  0  0  0  0  0  0  0  0  0  0
  140.2590   71.6870  223.4050 C   0  0  0  0  0  0  0  0  0  0  0  0
  139.6220   70.4910  223.0940 C   0  0  0  0  0  0  0  0  0  0  0  0
  139.4140   69.5090  224.0550 C   0  0  0  0  0  0  0  0  0  0  0  0
  139.8500   69.7230  225.3530 C   0  0  0  0  0  0  0  0  0  0  0  0
  139.6820   68.8050  226.3610 C   0  0  0  0  0  0  0  0  0  0  0  0
  140.1200   69.0310  227.6460 C   0  0  0  0  0  0  0  0  0  0  0  0
  139.9510   68.1200  228.6290 F   0  0  0  0  0  0  0  0  0  0  0  0
  140.7470   70.2320  227.9110 C   0  0  0  0  0  0  0  0  0  0  0  0
  140.9280   71.1820  226.9000 C   0  0  0  0  0  0  0  0  0  0  0  0
  140.4770   70.9260  225.6150 C   0  0  0  0  0  0  0  0  0  0  0  0
  140.6780   71.8750  224.6880 N   0  0  0  0  0  0  0  0  0  0  0  0
  138.8090   73.8680  223.0840 H   0  0  0  0  0  0  0  0  0  0  0  0
  140.8312   74.8438  221.0614 H   0  0  0  0  0  0  0  0  0  0  0  0
  139.1329   74.5597  220.4796 H   0  0  0  0  0  0  0  0  0  0  0  0
  138.9788   77.4058  219.3542 H   0  0  0  0  0  0  0  0  0  0  0  0
  138.7377   78.8137  220.4123 H   0  0  0  0  0  0  0  0  0  0  0  0
  140.6291   79.8318  219.5173 H   0  0  0  0  0  0  0  0  0  0  0  0
  141.5080   77.9370  217.9240 H   0  0  0  0  0  0  0  0  0  0  0  0
  142.1520   77.2169  219.7208 H   0  0  0  0  0  0  0  0  0  0  0  0
  142.7169   78.8069  220.1537 H   0  0  0  0  0  0  0  0  0  0  0  0
  141.9364   77.4104  222.2075 H   0  0  0  0  0  0  0  0  0  0  0  0
  139.8714   79.3134  221.9797 H   0  0  0  0  0  0  0  0  0  0  0  0
  142.3296   80.4253  221.0732 H   0  0  0  0  0  0  0  0  0  0  0  0
  141.5418   81.4108  222.1518 H   0  0  0  0  0  0  0  0  0  0  0  0
  143.4722   78.9801  222.7562 H   0  0  0  0  0  0  0  0  0  0  0  0
  143.4728   80.3021  223.7409 H   0  0  0  0  0  0  0  0  0  0  0  0
  141.5264   78.1485  224.1193 H   0  0  0  0  0  0  0  0  0  0  0  0
  140.9124   79.6291  224.5305 H   0  0  0  0  0  0  0  0  0  0  0  0
  139.2750   70.3182  222.0646 H   0  0  0  0  0  0  0  0  0  0  0  0
  138.9076   68.5698  223.7877 H   0  0  0  0  0  0  0  0  0  0  0  0
  139.1787   67.8539  226.1326 H   0  0  0  0  0  0  0  0  0  0  0  0
  141.1082   70.4444  228.9281 H   0  0  0  0  0  0  0  0  0  0  0  0
  141.4296   72.1346  227.1257 H   0  0  0  0  0  0  0  0  0  0  0  0
  1  2  2  0
  2  3  1  0
  3  4  1  0
  4  5  1  0
  5  6  2  0
  5  7  1  0
  7  8  1  0
  8  9  1  0
  9 10  1  0
  9 11  1  0
 11 12  1  0
 12 13  1  0
 13 14  1  0
 14 15  1  0
 15 16  1  0
  2 17  1  0
 17 18  2  0
 18 19  1  0
 19 20  2  0
 20 21  1  0
 21 22  2  0
 22 23  1  0
 22 24  1  0
 24 25  2  0
 25 26  1  0
 26 27  2  0
 12  7  1  0
 16 13  1  0
 27 17  1  0
 26 20  1  0
  3 28  1  0
  4 29  1  0
  4 30  1  0
  8 31  1  0
  8 32  1  0
  9 33  1  6
 10 34  1  0
 11 35  1  0
 11 36  1  0
 12 37  1  1
 13 38  1  0
 14 39  1  0
 14 40  1  0
 15 41  1  0
 15 42  1  0
 16 43  1  0
 16 44  1  0
 18 45  1  0
 19 46  1  0
 21 47  1  0
 24 48  1  0
 25 49  1  0
M  END
>  <smiles>  (30) 
O=C(NCC(=O)N1C[C@H](O)C[C@H]1C1CCC1)c1ccc2cc(F)ccc2n1

>  <score_type>  (30) 
oracle

>  <origin>  (30) 
autodockgpu

>  <m_score__min__energy>  (30) 
-7.7699999999999996

>  <m_primary>  (30) 
energy

>  <rmsd>  (30) 
2.1666557745219865

>  <m_score__min__rmsd>  (30) 
2.1666557745219865

>  <meeko>  (30) 
{"free_energy": -7.52, "intermolecular_energy": -9.31, "internal_energy": -1.4, "cluster_size": 13, "cluster_id": 1, "rank_in_cluster": 9}

>  <energy>  (30) 
-6.88

>  <cluster_rmsd>  (30) 
1.59

>  <cluster>  (30) 
3

$$$$

     RDKit          3D

 49 52  0  0  0  0  0  0  0  0999 V2000
  134.6940   68.4780  225.0340 O   0  0  0  0  0  0  0  0  0  0  0  0
  135.1580   69.6530  225.0070 C   0  0  0  0  0  0  0  0  0  0  0  0
  136.4000   69.9560  224.3680 N   0  0  0  0  0  0  0  0  0  0  0  0
  137.1210   68.8710  223.7450 C   0  0  0  0  0  0  0  0  0  0  0  0
  138.4500   68.6560  224.3600 C   0  0  0  0  0  0  0  0  0  0  0  0
  138.8400   67.4700  224.4890 O   0  0  0  0  0  0  0  0  0  0  0  0
  139.2030   69.7910  224.7640 N   0  0  0  0  0  0  0  0  0  0  0  0
  138.9860   71.1640  224.3900 C   0  0  0  0  0  0  0  0  0  0  0  0
  140.2990   71.8730  224.5520 C   0  0  2  0  0  0  0  0  0  0  0  0
  140.6530   72.5820  223.4010 O   0  0  0  0  0  0  0  0  0  0  0  0
  141.2540   70.7820  224.8820 C   0  0  0  0  0  0  0  0  0  0  0  0
  140.3750   69.8310  225.6530 C   0  0  1  0  0  0  0  0  0  0  0  0
  139.9310   70.3520  226.9700 C   0  0  0  0  0  0  0  0  0  0  0  0
  141.0110   70.7170  227.9570 C   0  0  0  0  0  0  0  0  0  0  0  0
  141.0780   69.2460  228.3210 C   0  0  0  0  0  0  0  0  0  0  0  0
  139.5960   69.2150  227.9150 C   0  0  0  0  0  0  0  0  0  0  0  0
  134.4350   70.7560  225.6340 C   0  0  0  0  0  0  0  0  0  0  0  0
  133.4120   70.4940  226.5400 C   0  0  0  0  0  0  0  0  0  0  0  0
  132.7060   71.5220  227.1530 C   0  0  0  0  0  0  0  0  0  0  0  0
  133.0250   72.8380  226.8570 C   0  0  0  0  0  0  0  0  0  0  0  0
  132.3750   73.9110  227.4180 C   0  0  0  0  0  0  0  0  0  0  0  0
  132.7020   75.2140  227.1140 C   0  0  0  0  0  0  0  0  0  0  0  0
  132.0570   76.2610  227.6730 F   0  0  0  0  0  0  0  0  0  0  0  0
  133.7230   75.4270  226.2100 C   0  0  0  0  0  0  0  0  0  0  0  0
  134.3980   74.3500  225.6260 C   0  0  0  0  0  0  0  0  0  0  0  0
  134.0470   73.0490  225.9510 C   0  0  0  0  0  0  0  0  0  0  0  0
  134.7290   72.0570  225.3590 N   0  0  0  0  0  0  0  0  0  0  0  0
  136.7440   70.9530  224.3730 H   0  0  0  0  0  0  0  0  0  0  0  0
  136.5303   67.9487  223.8469 H   0  0  0  0  0  0  0  0  0  0  0  0
  137.2767   69.1324  222.6879 H   0  0  0  0  0  0  0  0  0  0  0  0
  138.6510   71.2226  223.3439 H   0  0  0  0  0  0  0  0  0  0  0  0
  138.2095   71.6251  225.0181 H   0  0  0  0  0  0  0  0  0  0  0  0
  140.2760   72.6446  225.3357 H   0  0  0  0  0  0  0  0  0  0  0  0
  139.9450   73.2650  223.2910 H   0  0  0  0  0  0  0  0  0  0  0  0
  141.6542   70.3104  223.9724 H   0  0  0  0  0  0  0  0  0  0  0  0
  142.1427   71.1183  225.4362 H   0  0  0  0  0  0  0  0  0  0  0  0
  140.8839   68.8826  225.8798 H   0  0  0  0  0  0  0  0  0  0  0  0
  139.2226   71.1180  226.6217 H   0  0  0  0  0  0  0  0  0  0  0  0
  141.9290   71.1206  227.5049 H   0  0  0  0  0  0  0  0  0  0  0  0
  140.8611   71.4965  228.7186 H   0  0  0  0  0  0  0  0  0  0  0  0
  141.7478   68.6388  227.6944 H   0  0  0  0  0  0  0  0  0  0  0  0
  141.4404   68.8854  229.2950 H   0  0  0  0  0  0  0  0  0  0  0  0
  139.2695   68.2861  227.4245 H   0  0  0  0  0  0  0  0  0  0  0  0
  138.7824   69.2830  228.6522 H   0  0  0  0  0  0  0  0  0  0  0  0
  133.1566   69.4505  226.7761 H   0  0  0  0  0  0  0  0  0  0  0  0
  131.9010   71.2934  227.8669 H   0  0  0  0  0  0  0  0  0  0  0  0
  131.5636   73.7223  228.1364 H   0  0  0  0  0  0  0  0  0  0  0  0
  134.0092   76.4557  225.9457 H   0  0  0  0  0  0  0  0  0  0  0  0
  135.2094   74.5360  224.9070 H   0  0  0  0  0  0  0  0  0  0  0  0
  1  2  2  0
  2  3  1  0
  3  4  1  0
  4  5  1  0
  5  6  2  0
  5  7  1  0
  7  8  1  0
  8  9  1  0
  9 10  1  0
  9 11  1  0
 11 12  1  0
 12 13  1  0
 13 14  1  0
 14 15  1  0
 15 16  1  0
  2 17  1  0
 17 18  2  0
 18 19  1  0
 19 20  2  0
 20 21  1  0
 21 22  2  0
 22 23  1  0
 22 24  1  0
 24 25  2  0
 25 26  1  0
 26 27  2  0
 12  7  1  0
 16 13  1  0
 27 17  1  0
 26 20  1  0
  3 28  1  0
  4 29  1  0
  4 30  1  0
  8 31  1  0
  8 32  1  0
  9 33  1  1
 10 34  1  0
 11 35  1  0
 11 36  1  0
 12 37  1  1
 13 38  1  0
 14 39  1  0
 14 40  1  0
 15 41  1  0
 15 42  1  0
 16 43  1  0
 16 44  1  0
 18 45  1  0
 19 46  1  0
 21 47  1  0
 24 48  1  0
 25 49  1  0
M  END
>  <smiles>  (31) 
O=C(NCC(=O)N1C[C@H](O)C[C@H]1C1CCC1)c1ccc2cc(F)ccc2n1

>  <score_type>  (31) 
oracle

>  <origin>  (31) 
autodockgpu

>  <m_score__min__energy>  (31) 
-7.7699999999999996

>  <m_primary>  (31) 
energy

>  <rmsd>  (31) 
7.799805556129556

>  <m_score__min__rmsd>  (31) 
7.799805556129556

>  <meeko>  (31) 
{"free_energy": -7.6, "intermolecular_energy": -9.39, "internal_energy": -1.49, "cluster_size": 5, "cluster_id": 2, "rank_in_cluster": 2}

>  <energy>  (31) 
-6.86

>  <cluster_rmsd>  (31) 
1.59

>  <cluster>  (31) 
3

$$$$

     RDKit          3D

 49 52  0  0  0  0  0  0  0  0999 V2000
  139.9550   71.0640  221.1790 O   0  0  0  0  0  0  0  0  0  0  0  0
  139.9290   71.5960  222.3250 C   0  0  0  0  0  0  0  0  0  0  0  0
  139.9150   73.0140  222.4950 N   0  0  0  0  0  0  0  0  0  0  0  0
  139.9330   73.8370  221.3070 C   0  0  0  0  0  0  0  0  0  0  0  0
  141.3080   74.1800  220.8840 C   0  0  0  0  0  0  0  0  0  0  0  0
  141.7010   75.3530  221.0950 O   0  0  0  0  0  0  0  0  0  0  0  0
  142.1010   73.1730  220.2690 N   0  0  0  0  0  0  0  0  0  0  0  0
  141.8100   72.4480  219.0600 C   0  0  0  0  0  0  0  0  0  0  0  0
  142.5720   71.1560  219.1320 C   0  0  2  0  0  0  0  0  0  0  0  0
  141.7500   70.0530  218.8930 O   0  0  0  0  0  0  0  0  0  0  0  0
  143.1560   71.1640  220.4980 C   0  0  0  0  0  0  0  0  0  0  0  0
  143.3940   72.6360  220.7200 C   0  0  1  0  0  0  0  0  0  0  0  0
  144.4540   73.2140  219.8550 C   0  0  0  0  0  0  0  0  0  0  0  0
  145.8420   72.6430  220.0070 C   0  0  0  0  0  0  0  0  0  0  0  0
  146.0140   73.5650  221.2000 C   0  0  0  0  0  0  0  0  0  0  0  0
  145.0200   74.4800  220.4690 C   0  0  0  0  0  0  0  0  0  0  0  0
  139.9100   70.7710  223.5300 C   0  0  0  0  0  0  0  0  0  0  0  0
  139.3180   69.5130  223.5060 C   0  0  0  0  0  0  0  0  0  0  0  0
  139.2850   68.7050  224.6360 C   0  0  0  0  0  0  0  0  0  0  0  0
  139.8540   69.1600  225.8150 C   0  0  0  0  0  0  0  0  0  0  0  0
  139.8640   68.4250  226.9750 C   0  0  0  0  0  0  0  0  0  0  0  0
  140.4330   68.8900  228.1400 C   0  0  0  0  0  0  0  0  0  0  0  0
  140.4360   68.1570  229.2750 F   0  0  0  0  0  0  0  0  0  0  0  0
  141.0100   70.1430  228.1180 C   0  0  0  0  0  0  0  0  0  0  0  0
  141.0120   70.9100  226.9480 C   0  0  0  0  0  0  0  0  0  0  0  0
  140.4310   70.4160  225.7910 C   0  0  0  0  0  0  0  0  0  0  0  0
  140.4630   71.1960  224.7000 N   0  0  0  0  0  0  0  0  0  0  0  0
  139.8940   73.4080  223.4730 H   0  0  0  0  0  0  0  0  0  0  0  0
  139.4373   73.2911  220.4907 H   0  0  0  0  0  0  0  0  0  0  0  0
  139.4078   74.7753  221.5390 H   0  0  0  0  0  0  0  0  0  0  0  0
  140.7308   72.2472  218.9898 H   0  0  0  0  0  0  0  0  0  0  0  0
  142.1024   73.0286  218.1727 H   0  0  0  0  0  0  0  0  0  0  0  0
  143.3491   71.0723  218.3579 H   0  0  0  0  0  0  0  0  0  0  0  0
  140.9870   70.1600  219.5150 H   0  0  0  0  0  0  0  0  0  0  0  0
  142.4516   70.7557  221.2376 H   0  0  0  0  0  0  0  0  0  0  0  0
  144.0595   70.5451  220.6010 H   0  0  0  0  0  0  0  0  0  0  0  0
  143.7149   72.8566  221.7488 H   0  0  0  0  0  0  0  0  0  0  0  0
  143.9376   73.1542  218.8856 H   0  0  0  0  0  0  0  0  0  0  0  0
  145.8736   71.5700  220.2473 H   0  0  0  0  0  0  0  0  0  0  0  0
  146.5596   72.6332  219.1734 H   0  0  0  0  0  0  0  0  0  0  0  0
  145.6590   73.1602  222.1592 H   0  0  0  0  0  0  0  0  0  0  0  0
  146.9968   73.9097  221.5539 H   0  0  0  0  0  0  0  0  0  0  0  0
  144.3262   75.0271  221.1242 H   0  0  0  0  0  0  0  0  0  0  0  0
  145.3468   75.3346  219.8584 H   0  0  0  0  0  0  0  0  0  0  0  0
  138.8657   69.1493  222.5716 H   0  0  0  0  0  0  0  0  0  0  0  0
  138.8115   67.7130  224.5951 H   0  0  0  0  0  0  0  0  0  0  0  0
  139.4002   67.4276  226.9737 H   0  0  0  0  0  0  0  0  0  0  0  0
  141.4740   70.5437  229.0313 H   0  0  0  0  0  0  0  0  0  0  0  0
  141.4758   71.9074  226.9465 H   0  0  0  0  0  0  0  0  0  0  0  0
  1  2  2  0
  2  3  1  0
  3  4  1  0
  4  5  1  0
  5  6  2  0
  5  7  1  0
  7  8  1  0
  8  9  1  0
  9 10  1  0
  9 11  1  0
 11 12  1  0
 12 13  1  0
 13 14  1  0
 14 15  1  0
 15 16  1  0
  2 17  1  0
 17 18  2  0
 18 19  1  0
 19 20  2  0
 20 21  1  0
 21 22  2  0
 22 23  1  0
 22 24  1  0
 24 25  2  0
 25 26  1  0
 26 27  2  0
 12  7  1  0
 16 13  1  0
 27 17  1  0
 26 20  1  0
  3 28  1  0
  4 29  1  0
  4 30  1  0
  8 31  1  0
  8 32  1  0
  9 33  1  6
 10 34  1  0
 11 35  1  0
 11 36  1  0
 12 37  1  1
 13 38  1  0
 14 39  1  0
 14 40  1  0
 15 41  1  0
 15 42  1  0
 16 43  1  0
 16 44  1  0
 18 45  1  0
 19 46  1  0
 21 47  1  0
 24 48  1  0
 25 49  1  0
M  END
>  <smiles>  (32) 
O=C(NCC(=O)N1C[C@H](O)C[C@H]1C1CCC1)c1ccc2cc(F)ccc2n1

>  <score_type>  (32) 
oracle

>  <origin>  (32) 
autodockgpu

>  <m_score__min__energy>  (32) 
-7.7699999999999996

>  <m_primary>  (32) 
energy

>  <rmsd>  (32) 
3.2293987782103755

>  <m_score__min__rmsd>  (32) 
3.2293987782103755

>  <meeko>  (32) 
{"free_energy": -6.81, "intermolecular_energy": -8.6, "internal_energy": -2.45, "cluster_size": 23, "cluster_id": 3, "rank_in_cluster": 19}

>  <energy>  (32) 
-6.85

>  <cluster_rmsd>  (32) 
1.63

>  <cluster>  (32) 
3

$$$$

     RDKit          3D

 49 52  0  0  0  0  0  0  0  0999 V2000
  138.9050   75.8630  220.2410 O   0  0  0  0  0  0  0  0  0  0  0  0
  139.4890   75.3930  221.2580 C   0  0  0  0  0  0  0  0  0  0  0  0
  139.0520   75.6960  222.5840 N   0  0  0  0  0  0  0  0  0  0  0  0
  137.9080   76.5660  222.7350 C   0  0  0  0  0  0  0  0  0  0  0  0
  138.2810   77.9960  222.6760 C   0  0  0  0  0  0  0  0  0  0  0  0
  137.5430   78.8090  223.2830 O   0  0  0  0  0  0  0  0  0  0  0  0
  139.4400   78.3660  221.9440 N   0  0  0  0  0  0  0  0  0  0  0  0
  139.5620   78.5230  220.5180 C   0  0  0  0  0  0  0  0  0  0  0  0
  141.0130   78.3330  220.1800 C   0  0  2  0  0  0  0  0  0  0  0  0
  141.1900   77.3940  219.1610 O   0  0  0  0  0  0  0  0  0  0  0  0
  141.6260   77.9190  221.4680 C   0  0  0  0  0  0  0  0  0  0  0  0
  140.7830   78.6720  222.4640 C   0  0  1  0  0  0  0  0  0  0  0  0
  140.9640   80.1450  222.4180 C   0  0  0  0  0  0  0  0  0  0  0  0
  142.3790   80.6530  222.2970 C   0  0  0  0  0  0  0  0  0  0  0  0
  142.4980   80.4700  223.7980 C   0  0  0  0  0  0  0  0  0  0  0  0
  140.9840   80.7300  223.8170 C   0  0  0  0  0  0  0  0  0  0  0  0
  140.6460   74.5120  221.1130 C   0  0  0  0  0  0  0  0  0  0  0  0
  140.5400   73.1620  221.4300 C   0  0  0  0  0  0  0  0  0  0  0  0
  141.6230   72.3010  221.3020 C   0  0  0  0  0  0  0  0  0  0  0  0
  142.8360   72.7940  220.8490 C   0  0  0  0  0  0  0  0  0  0  0  0
  143.9530   72.0100  220.6960 C   0  0  0  0  0  0  0  0  0  0  0  0
  145.1530   72.5130  220.2450 C   0  0  0  0  0  0  0  0  0  0  0  0
  146.2450   71.7320  220.0980 F   0  0  0  0  0  0  0  0  0  0  0  0
  145.2130   73.8580  219.9420 C   0  0  0  0  0  0  0  0  0  0  0  0
  144.0880   74.6760  220.0910 C   0  0  0  0  0  0  0  0  0  0  0  0
  142.8940   74.1410  220.5470 C   0  0  0  0  0  0  0  0  0  0  0  0
  141.8490   74.9730  220.6700 N   0  0  0  0  0  0  0  0  0  0  0  0
  139.5740   75.2780  223.3990 H   0  0  0  0  0  0  0  0  0  0  0  0
  137.1922   76.3531  221.9273 H   0  0  0  0  0  0  0  0  0  0  0  0
  137.4657   76.3732  223.7236 H   0  0  0  0  0  0  0  0  0  0  0  0
  138.9513   77.7683  220.0009 H   0  0  0  0  0  0  0  0  0  0  0  0
  139.2107   79.5157  220.2000 H   0  0  0  0  0  0  0  0  0  0  0  0
  141.4839   79.2429  219.7796 H   0  0  0  0  0  0  0  0  0  0  0  0
  140.8520   76.5410  219.5320 H   0  0  0  0  0  0  0  0  0  0  0  0
  141.5485   76.8320  221.6178 H   0  0  0  0  0  0  0  0  0  0  0  0
  142.7021   78.1353  221.5401 H   0  0  0  0  0  0  0  0  0  0  0  0
  141.0121   78.3895  223.5021 H   0  0  0  0  0  0  0  0  0  0  0  0
  140.2247   80.3852  221.6397 H   0  0  0  0  0  0  0  0  0  0  0  0
  143.0474   80.0134  221.7018 H   0  0  0  0  0  0  0  0  0  0  0  0
  142.6115   81.6112  221.8093 H   0  0  0  0  0  0  0  0  0  0  0  0
  142.8043   79.4651  224.1240 H   0  0  0  0  0  0  0  0  0  0  0  0
  143.2108   81.0359  224.4158 H   0  0  0  0  0  0  0  0  0  0  0  0
  140.4244   80.1533  224.5682 H   0  0  0  0  0  0  0  0  0  0  0  0
  140.5595   81.7182  224.0477 H   0  0  0  0  0  0  0  0  0  0  0  0
  139.5783   72.7675  221.7897 H   0  0  0  0  0  0  0  0  0  0  0  0
  141.5182   71.2364  221.5583 H   0  0  0  0  0  0  0  0  0  0  0  0
  143.8867   70.9401  220.9429 H   0  0  0  0  0  0  0  0  0  0  0  0
  146.1564   74.2919  219.5791 H   0  0  0  0  0  0  0  0  0  0  0  0
  144.1514   75.7464  219.8456 H   0  0  0  0  0  0  0  0  0  0  0  0
  1  2  2  0
  2  3  1  0
  3  4  1  0
  4  5  1  0
  5  6  2  0
  5  7  1  0
  7  8  1  0
  8  9  1  0
  9 10  1  0
  9 11  1  0
 11 12  1  0
 12 13  1  0
 13 14  1  0
 14 15  1  0
 15 16  1  0
  2 17  1  0
 17 18  2  0
 18 19  1  0
 19 20  2  0
 20 21  1  0
 21 22  2  0
 22 23  1  0
 22 24  1  0
 24 25  2  0
 25 26  1  0
 26 27  2  0
 12  7  1  0
 16 13  1  0
 27 17  1  0
 26 20  1  0
  3 28  1  0
  4 29  1  0
  4 30  1  0
  8 31  1  0
  8 32  1  0
  9 33  1  6
 10 34  1  0
 11 35  1  0
 11 36  1  0
 12 37  1  1
 13 38  1  0
 14 39  1  0
 14 40  1  0
 15 41  1  0
 15 42  1  0
 16 43  1  0
 16 44  1  0
 18 45  1  0
 19 46  1  0
 21 47  1  0
 24 48  1  0
 25 49  1  0
M  END
>  <smiles>  (33) 
O=C(NCC(=O)N1C[C@H](O)C[C@H]1C1CCC1)c1ccc2cc(F)ccc2n1

>  <score_type>  (33) 
oracle

>  <origin>  (33) 
autodockgpu

>  <m_score__min__energy>  (33) 
-7.7699999999999996

>  <m_primary>  (33) 
energy

>  <rmsd>  (33) 
5.7607258923629

>  <m_score__min__rmsd>  (33) 
5.7607258923629

>  <meeko>  (33) 
{"free_energy": -5.69, "intermolecular_energy": -7.48, "internal_energy": -2.98, "cluster_size": 2, "cluster_id": 5, "rank_in_cluster": 2}

>  <energy>  (33) 
-6.84

>  <cluster_rmsd>  (33) 
1.61

>  <cluster>  (33) 
3

$$$$

     RDKit          3D

 49 52  0  0  0  0  0  0  0  0999 V2000
  138.7860   75.7430  220.2750 O   0  0  0  0  0  0  0  0  0  0  0  0
  139.4190   75.3250  221.2860 C   0  0  0  0  0  0  0  0  0  0  0  0
  139.0080   75.6470  222.6160 N   0  0  0  0  0  0  0  0  0  0  0  0
  137.8340   76.4740  222.7790 C   0  0  0  0  0  0  0  0  0  0  0  0
  138.1380   77.9140  222.6320 C   0  0  0  0  0  0  0  0  0  0  0  0
  137.3270   78.7280  223.1360 O   0  0  0  0  0  0  0  0  0  0  0  0
  139.3180   78.2920  221.9360 N   0  0  0  0  0  0  0  0  0  0  0  0
  139.4880   78.4320  220.5140 C   0  0  0  0  0  0  0  0  0  0  0  0
  140.9520   78.2590  220.2300 C   0  0  2  0  0  0  0  0  0  0  0  0
  141.1790   77.3110  219.2300 O   0  0  0  0  0  0  0  0  0  0  0  0
  141.5250   77.8700  221.5450 C   0  0  0  0  0  0  0  0  0  0  0  0
  140.6370   78.6240  222.5000 C   0  0  1  0  0  0  0  0  0  0  0  0
  140.7990   80.0990  222.4410 C   0  0  0  0  0  0  0  0  0  0  0  0
  142.1900   80.6200  222.1860 C   0  0  0  0  0  0  0  0  0  0  0  0
  142.4560   80.4350  223.6670 C   0  0  0  0  0  0  0  0  0  0  0  0
  140.9490   80.6800  223.8330 C   0  0  0  0  0  0  0  0  0  0  0  0
  140.6070   74.4890  221.1300 C   0  0  0  0  0  0  0  0  0  0  0  0
  140.5390   73.1240  221.3880 C   0  0  0  0  0  0  0  0  0  0  0  0
  141.6510   72.3040  221.2480 C   0  0  0  0  0  0  0  0  0  0  0  0
  142.8570   72.8550  220.8440 C   0  0  0  0  0  0  0  0  0  0  0  0
  144.0030   72.1140  220.6820 C   0  0  0  0  0  0  0  0  0  0  0  0
  145.1950   72.6740  220.2800 C   0  0  0  0  0  0  0  0  0  0  0  0
  146.3150   71.9360  220.1250 F   0  0  0  0  0  0  0  0  0  0  0  0
  145.2170   74.0330  220.0360 C   0  0  0  0  0  0  0  0  0  0  0  0
  144.0620   74.8070  220.1940 C   0  0  0  0  0  0  0  0  0  0  0  0
  142.8770   74.2150  220.6000 C   0  0  0  0  0  0  0  0  0  0  0  0
  141.8030   75.0070  220.7350 N   0  0  0  0  0  0  0  0  0  0  0  0
  139.5720   75.2750  223.4270 H   0  0  0  0  0  0  0  0  0  0  0  0
  137.0922   76.1894  222.0182 H   0  0  0  0  0  0  0  0  0  0  0  0
  137.4474   76.3134  223.7962 H   0  0  0  0  0  0  0  0  0  0  0  0
  138.9068   77.6617  219.9860 H   0  0  0  0  0  0  0  0  0  0  0  0
  139.1341   79.4152  220.1704 H   0  0  0  0  0  0  0  0  0  0  0  0
  141.4237   79.1707  219.8347 H   0  0  0  0  0  0  0  0  0  0  0  0
  140.7230   76.4900  219.5430 H   0  0  0  0  0  0  0  0  0  0  0  0
  141.4570   76.7841  221.7066 H   0  0  0  0  0  0  0  0  0  0  0  0
  142.5949   78.1021  221.6522 H   0  0  0  0  0  0  0  0  0  0  0  0
  140.8328   78.3586  223.5494 H   0  0  0  0  0  0  0  0  0  0  0  0
  139.9860   80.3343  221.7384 H   0  0  0  0  0  0  0  0  0  0  0  0
  142.8034   79.9881  221.5269 H   0  0  0  0  0  0  0  0  0  0  0  0
  142.3652   81.5816  221.6814 H   0  0  0  0  0  0  0  0  0  0  0  0
  142.8021   79.4324  223.9587 H   0  0  0  0  0  0  0  0  0  0  0  0
  143.2199   81.0064  224.2146 H   0  0  0  0  0  0  0  0  0  0  0  0
  140.4702   80.0958  224.6327 H   0  0  0  0  0  0  0  0  0  0  0  0
  140.5396   81.6635  224.1072 H   0  0  0  0  0  0  0  0  0  0  0  0
  139.5835   72.6843  221.7100 H   0  0  0  0  0  0  0  0  0  0  0  0
  141.5754   71.2265  221.4559 H   0  0  0  0  0  0  0  0  0  0  0  0
  143.9667   71.0328  220.8810 H   0  0  0  0  0  0  0  0  0  0  0  0
  146.1531   74.5125  219.7138 H   0  0  0  0  0  0  0  0  0  0  0  0
  144.0950   75.8884  219.9953 H   0  0  0  0  0  0  0  0  0  0  0  0
  1  2  2  0
  2  3  1  0
  3  4  1  0
  4  5  1  0
  5  6  2  0
  5  7  1  0
  7  8  1  0
  8  9  1  0
  9 10  1  0
  9 11  1  0
 11 12  1  0
 12 13  1  0
 13 14  1  0
 14 15  1  0
 15 16  1  0
  2 17  1  0
 17 18  2  0
 18 19  1  0
 19 20  2  0
 20 21  1  0
 21 22  2  0
 22 23  1  0
 22 24  1  0
 24 25  2  0
 25 26  1  0
 26 27  2  0
 12  7  1  0
 16 13  1  0
 27 17  1  0
 26 20  1  0
  3 28  1  0
  4 29  1  0
  4 30  1  0
  8 31  1  0
  8 32  1  0
  9 33  1  6
 10 34  1  0
 11 35  1  0
 11 36  1  0
 12 37  1  1
 13 38  1  0
 14 39  1  0
 14 40  1  0
 15 41  1  0
 15 42  1  0
 16 43  1  0
 16 44  1  0
 18 45  1  0
 19 46  1  0
 21 47  1  0
 24 48  1  0
 25 49  1  0
M  END
>  <smiles>  (34) 
O=C(NCC(=O)N1C[C@H](O)C[C@H]1C1CCC1)c1ccc2cc(F)ccc2n1

>  <score_type>  (34) 
oracle

>  <origin>  (34) 
autodockgpu

>  <m_score__min__energy>  (34) 
-7.7699999999999996

>  <m_primary>  (34) 
energy

>  <rmsd>  (34) 
5.757793092593642

>  <m_score__min__rmsd>  (34) 
5.757793092593642

>  <meeko>  (34) 
{"free_energy": -5.74, "intermolecular_energy": -7.53, "internal_energy": -2.96, "cluster_size": 2, "cluster_id": 5, "rank_in_cluster": 1}

>  <energy>  (34) 
-6.84

>  <cluster_rmsd>  (34) 
1.63

>  <cluster>  (34) 
3

$$$$

     RDKit          3D

 49 52  0  0  0  0  0  0  0  0999 V2000
  140.9040   71.7880  221.0870 O   0  0  0  0  0  0  0  0  0  0  0  0
  140.3890   72.2840  222.1290 C   0  0  0  0  0  0  0  0  0  0  0  0
  139.9690   73.6480  222.1830 N   0  0  0  0  0  0  0  0  0  0  0  0
  140.1500   74.4580  221.0010 C   0  0  0  0  0  0  0  0  0  0  0  0
  141.1170   75.5570  221.2160 C   0  0  0  0  0  0  0  0  0  0  0  0
  141.0550   76.1730  222.3080 O   0  0  0  0  0  0  0  0  0  0  0  0
  142.0510   75.8520  220.1880 N   0  0  0  0  0  0  0  0  0  0  0  0
  142.6360   77.1300  219.8770 C   0  0  0  0  0  0  0  0  0  0  0  0
  143.0550   77.0800  218.4360 C   0  0  2  0  0  0  0  0  0  0  0  0
  142.5620   78.1690  217.7130 O   0  0  0  0  0  0  0  0  0  0  0  0
  142.5280   75.7750  217.9580 C   0  0  0  0  0  0  0  0  0  0  0  0
  142.6350   74.9290  219.2010 C   0  0  1  0  0  0  0  0  0  0  0  0
  144.0310   74.6400  219.6170 C   0  0  0  0  0  0  0  0  0  0  0  0
  144.7300   73.5060  218.9130 C   0  0  0  0  0  0  0  0  0  0  0  0
  144.0230   72.5670  219.8720 C   0  0  0  0  0  0  0  0  0  0  0  0
  144.0540   73.7540  220.8470 C   0  0  0  0  0  0  0  0  0  0  0  0
  140.2030   71.4720  223.3290 C   0  0  0  0  0  0  0  0  0  0  0  0
  139.5640   70.2390  223.2460 C   0  0  0  0  0  0  0  0  0  0  0  0
  139.3730   69.4450  224.3690 C   0  0  0  0  0  0  0  0  0  0  0  0
  139.8270   69.8870  225.6020 C   0  0  0  0  0  0  0  0  0  0  0  0
  139.6770   69.1630  226.7590 C   0  0  0  0  0  0  0  0  0  0  0  0
  140.1320   69.6140  227.9780 C   0  0  0  0  0  0  0  0  0  0  0  0
  139.9800   68.8930  229.1100 F   0  0  0  0  0  0  0  0  0  0  0  0
  140.7610   70.8430  228.0140 C   0  0  0  0  0  0  0  0  0  0  0  0
  140.9240   71.5980  226.8480 C   0  0  0  0  0  0  0  0  0  0  0  0
  140.4550   71.1170  225.6360 C   0  0  0  0  0  0  0  0  0  0  0  0
  140.6400   71.8850  224.5510 N   0  0  0  0  0  0  0  0  0  0  0  0
  139.5460   74.0150  223.0780 H   0  0  0  0  0  0  0  0  0  0  0  0
  140.5181   73.8173  220.1861 H   0  0  0  0  0  0  0  0  0  0  0  0
  139.1785   74.9089  220.7501 H   0  0  0  0  0  0  0  0  0  0  0  0
  141.8973   77.9309  220.0284 H   0  0  0  0  0  0  0  0  0  0  0  0
  143.4966   77.3379  220.5298 H   0  0  0  0  0  0  0  0  0  0  0  0
  144.1445   77.1520  218.3028 H   0  0  0  0  0  0  0  0  0  0  0  0
  143.3550   78.5710  217.2780 H   0  0  0  0  0  0  0  0  0  0  0  0
  141.4845   75.8629  217.6213 H   0  0  0  0  0  0  0  0  0  0  0  0
  143.0677   75.3657  217.0912 H   0  0  0  0  0  0  0  0  0  0  0  0
  142.1658   73.9420  219.0759 H   0  0  0  0  0  0  0  0  0  0  0  0
  144.4420   75.6587  219.5600 H   0  0  0  0  0  0  0  0  0  0  0  0
  144.4506   73.3794  217.8566 H   0  0  0  0  0  0  0  0  0  0  0  0
  145.8224   73.4889  218.7847 H   0  0  0  0  0  0  0  0  0  0  0  0
  143.0191   72.2456  219.5576 H   0  0  0  0  0  0  0  0  0  0  0  0
  144.4098   71.5698  220.1290 H   0  0  0  0  0  0  0  0  0  0  0  0
  143.1715   73.8420  221.4978 H   0  0  0  0  0  0  0  0  0  0  0  0
  144.8210   73.8530  221.6293 H   0  0  0  0  0  0  0  0  0  0  0  0
  139.2021   69.8853  222.2693 H   0  0  0  0  0  0  0  0  0  0  0  0
  138.8655   68.4730  224.2810 H   0  0  0  0  0  0  0  0  0  0  0  0
  139.1744   68.1858  226.7103 H   0  0  0  0  0  0  0  0  0  0  0  0
  141.1382   71.2327  228.9710 H   0  0  0  0  0  0  0  0  0  0  0  0
  141.4257   72.5759  226.8932 H   0  0  0  0  0  0  0  0  0  0  0  0
  1  2  2  0
  2  3  1  0
  3  4  1  0
  4  5  1  0
  5  6  2  0
  5  7  1  0
  7  8  1  0
  8  9  1  0
  9 10  1  0
  9 11  1  0
 11 12  1  0
 12 13  1  0
 13 14  1  0
 14 15  1  0
 15 16  1  0
  2 17  1  0
 17 18  2  0
 18 19  1  0
 19 20  2  0
 20 21  1  0
 21 22  2  0
 22 23  1  0
 22 24  1  0
 24 25  2  0
 25 26  1  0
 26 27  2  0
 12  7  1  0
 16 13  1  0
 27 17  1  0
 26 20  1  0
  3 28  1  0
  4 29  1  0
  4 30  1  0
  8 31  1  0
  8 32  1  0
  9 33  1  1
 10 34  1  0
 11 35  1  0
 11 36  1  0
 12 37  1  6
 13 38  1  0
 14 39  1  0
 14 40  1  0
 15 41  1  0
 15 42  1  0
 16 43  1  0
 16 44  1  0
 18 45  1  0
 19 46  1  0
 21 47  1  0
 24 48  1  0
 25 49  1  0
M  END
>  <smiles>  (35) 
O=C(NCC(=O)N1C[C@H](O)C[C@H]1C1CCC1)c1ccc2cc(F)ccc2n1

>  <score_type>  (35) 
oracle

>  <origin>  (35) 
autodockgpu

>  <m_score__min__energy>  (35) 
-7.7699999999999996

>  <m_primary>  (35) 
energy

>  <rmsd>  (35) 
2.386139381448671

>  <m_score__min__rmsd>  (35) 
2.386139381448671

>  <meeko>  (35) 
{"free_energy": -7.41, "intermolecular_energy": -9.2, "internal_energy": -1.65, "cluster_size": 7, "cluster_id": 4, "rank_in_cluster": 3}

>  <energy>  (35) 
-6.83

>  <cluster_rmsd>  (35) 
1.65

>  <cluster>  (35) 
3

$$$$

     RDKit          3D

 49 52  0  0  0  0  0  0  0  0999 V2000
  139.7740   71.0900  221.2960 O   0  0  0  0  0  0  0  0  0  0  0  0
  139.8120   71.6050  222.4500 C   0  0  0  0  0  0  0  0  0  0  0  0
  139.8280   73.0210  222.6410 N   0  0  0  0  0  0  0  0  0  0  0  0
  139.7990   73.8610  221.4650 C   0  0  0  0  0  0  0  0  0  0  0  0
  141.1560   74.1890  220.9780 C   0  0  0  0  0  0  0  0  0  0  0  0
  141.5650   75.3620  221.1570 O   0  0  0  0  0  0  0  0  0  0  0  0
  141.9140   73.1700  220.3410 N   0  0  0  0  0  0  0  0  0  0  0  0
  141.5870   72.4620  219.1310 C   0  0  0  0  0  0  0  0  0  0  0  0
  142.3200   71.1530  219.1790 C   0  0  2  0  0  0  0  0  0  0  0  0
  141.4670   70.0710  218.9450 O   0  0  0  0  0  0  0  0  0  0  0  0
  142.9270   71.1350  220.5350 C   0  0  0  0  0  0  0  0  0  0  0  0
  143.2030   72.5990  220.7650 C   0  0  1  0  0  0  0  0  0  0  0  0
  144.2610   73.1590  219.8870 C   0  0  0  0  0  0  0  0  0  0  0  0
  145.6460   72.5830  220.0380 C   0  0  0  0  0  0  0  0  0  0  0  0
  145.8310   73.5170  221.2180 C   0  0  0  0  0  0  0  0  0  0  0  0
  144.8380   74.4290  220.4820 C   0  0  0  0  0  0  0  0  0  0  0  0
  139.8420   70.7620  223.6430 C   0  0  0  0  0  0  0  0  0  0  0  0
  139.3320   69.4690  223.5970 C   0  0  0  0  0  0  0  0  0  0  0  0
  139.3470   68.6440  224.7150 C   0  0  0  0  0  0  0  0  0  0  0  0
  139.8800   69.1170  225.9030 C   0  0  0  0  0  0  0  0  0  0  0  0
  139.9310   68.3660  227.0530 C   0  0  0  0  0  0  0  0  0  0  0  0
  140.4630   68.8490  228.2270 C   0  0  0  0  0  0  0  0  0  0  0  0
  140.5090   68.1020  229.3510 F   0  0  0  0  0  0  0  0  0  0  0  0
  140.9570   70.1380  228.2280 C   0  0  0  0  0  0  0  0  0  0  0  0
  140.9150   70.9210  227.0690 C   0  0  0  0  0  0  0  0  0  0  0  0
  140.3740   70.4080  225.9010 C   0  0  0  0  0  0  0  0  0  0  0  0
  140.3600   71.2050  224.8220 N   0  0  0  0  0  0  0  0  0  0  0  0
  139.8610   73.4010  223.6240 H   0  0  0  0  0  0  0  0  0  0  0  0
  139.2542   73.3347  220.6674 H   0  0  0  0  0  0  0  0  0  0  0  0
  139.3010   74.8036  221.7361 H   0  0  0  0  0  0  0  0  0  0  0  0
  140.5025   72.2863  219.0771 H   0  0  0  0  0  0  0  0  0  0  0  0
  141.8783   73.0436  218.2440 H   0  0  0  0  0  0  0  0  0  0  0  0
  143.0821   71.0583  218.3914 H   0  0  0  0  0  0  0  0  0  0  0  0
  140.7100   70.1990  219.5690 H   0  0  0  0  0  0  0  0  0  0  0  0
  142.2258   70.7367  221.2831 H   0  0  0  0  0  0  0  0  0  0  0  0
  143.8172   70.4942  220.6175 H   0  0  0  0  0  0  0  0  0  0  0  0
  143.5465   72.8037  221.7897 H   0  0  0  0  0  0  0  0  0  0  0  0
  143.7386   73.0894  218.9215 H   0  0  0  0  0  0  0  0  0  0  0  0
  145.6731   71.5128  220.2909 H   0  0  0  0  0  0  0  0  0  0  0  0
  146.3584   72.5598  219.2002 H   0  0  0  0  0  0  0  0  0  0  0  0
  145.4795   73.1258  222.1841 H   0  0  0  0  0  0  0  0  0  0  0  0
  146.8180   73.8599  221.5619 H   0  0  0  0  0  0  0  0  0  0  0  0
  144.1514   74.9881  221.1347 H   0  0  0  0  0  0  0  0  0  0  0  0
  145.1660   75.2742  219.8591 H   0  0  0  0  0  0  0  0  0  0  0  0
  138.9075   69.0912  222.6551 H   0  0  0  0  0  0  0  0  0  0  0  0
  138.9391   67.6240  224.6572 H   0  0  0  0  0  0  0  0  0  0  0  0
  139.5319   67.3411  227.0345 H   0  0  0  0  0  0  0  0  0  0  0  0
  141.3885   70.5543  229.1502 H   0  0  0  0  0  0  0  0  0  0  0  0
  141.3125   71.9465  227.0852 H   0  0  0  0  0  0  0  0  0  0  0  0
  1  2  2  0
  2  3  1  0
  3  4  1  0
  4  5  1  0
  5  6  2  0
  5  7  1  0
  7  8  1  0
  8  9  1  0
  9 10  1  0
  9 11  1  0
 11 12  1  0
 12 13  1  0
 13 14  1  0
 14 15  1  0
 15 16  1  0
  2 17  1  0
 17 18  2  0
 18 19  1  0
 19 20  2  0
 20 21  1  0
 21 22  2  0
 22 23  1  0
 22 24  1  0
 24 25  2  0
 25 26  1  0
 26 27  2  0
 12  7  1  0
 16 13  1  0
 27 17  1  0
 26 20  1  0
  3 28  1  0
  4 29  1  0
  4 30  1  0
  8 31  1  0
  8 32  1  0
  9 33  1  6
 10 34  1  0
 11 35  1  0
 11 36  1  0
 12 37  1  1
 13 38  1  0
 14 39  1  0
 14 40  1  0
 15 41  1  0
 15 42  1  0
 16 43  1  0
 16 44  1  0
 18 45  1  0
 19 46  1  0
 21 47  1  0
 24 48  1  0
 25 49  1  0
M  END
>  <smiles>  (36) 
O=C(NCC(=O)N1C[C@H](O)C[C@H]1C1CCC1)c1ccc2cc(F)ccc2n1

>  <score_type>  (36) 
oracle

>  <origin>  (36) 
autodockgpu

>  <m_score__min__energy>  (36) 
-7.7699999999999996

>  <m_primary>  (36) 
energy

>  <rmsd>  (36) 
3.18310486210255

>  <m_score__min__rmsd>  (36) 
3.18310486210255

>  <meeko>  (36) 
{"free_energy": -6.71, "intermolecular_energy": -8.5, "internal_energy": -2.49, "cluster_size": 23, "cluster_id": 3, "rank_in_cluster": 21}

>  <energy>  (36) 
-6.82

>  <cluster_rmsd>  (36) 
1.63

>  <cluster>  (36) 
3

$$$$

     RDKit          3D

 49 52  0  0  0  0  0  0  0  0999 V2000
  140.0840   71.0420  221.2090 O   0  0  0  0  0  0  0  0  0  0  0  0
  140.0060   71.5800  222.3500 C   0  0  0  0  0  0  0  0  0  0  0  0
  139.9610   72.9990  222.5110 N   0  0  0  0  0  0  0  0  0  0  0  0
  140.0090   73.8150  221.3210 C   0  0  0  0  0  0  0  0  0  0  0  0
  141.3940   74.1580  220.9310 C   0  0  0  0  0  0  0  0  0  0  0  0
  141.7840   75.3290  221.1600 O   0  0  0  0  0  0  0  0  0  0  0  0
  142.1970   73.1560  220.3250 N   0  0  0  0  0  0  0  0  0  0  0  0
  141.9290   72.4370  219.1070 C   0  0  0  0  0  0  0  0  0  0  0  0
  142.6890   71.1450  219.1850 C   0  0  2  0  0  0  0  0  0  0  0  0
  141.8710   70.0430  218.9260 O   0  0  0  0  0  0  0  0  0  0  0  0
  143.2490   71.1450  220.5620 C   0  0  0  0  0  0  0  0  0  0  0  0
  143.4820   72.6150  220.7960 C   0  0  1  0  0  0  0  0  0  0  0  0
  144.5580   73.1980  219.9540 C   0  0  0  0  0  0  0  0  0  0  0  0
  145.9190   72.5580  220.0510 C   0  0  0  0  0  0  0  0  0  0  0  0
  146.1470   73.3930  221.2960 C   0  0  0  0  0  0  0  0  0  0  0  0
  145.1880   74.3960  220.6370 C   0  0  0  0  0  0  0  0  0  0  0  0
  139.9580   70.7610  223.5590 C   0  0  0  0  0  0  0  0  0  0  0  0
  139.3520   69.5090  223.5310 C   0  0  0  0  0  0  0  0  0  0  0  0
  139.2910   68.7080  224.6640 C   0  0  0  0  0  0  0  0  0  0  0  0
  139.8450   69.1630  225.8510 C   0  0  0  0  0  0  0  0  0  0  0  0
  139.8260   68.4330  227.0140 C   0  0  0  0  0  0  0  0  0  0  0  0
  140.3800   68.8970  228.1860 C   0  0  0  0  0  0  0  0  0  0  0  0
  140.3560   68.1710  229.3250 F   0  0  0  0  0  0  0  0  0  0  0  0
  140.9710   70.1450  228.1690 C   0  0  0  0  0  0  0  0  0  0  0  0
  141.0010   70.9060  226.9950 C   0  0  0  0  0  0  0  0  0  0  0  0
  140.4360   70.4120  225.8310 C   0  0  0  0  0  0  0  0  0  0  0  0
  140.4940   71.1860  224.7370 N   0  0  0  0  0  0  0  0  0  0  0  0
  139.8970   73.3980  223.4860 H   0  0  0  0  0  0  0  0  0  0  0  0
  139.5350   73.2643  220.4951 H   0  0  0  0  0  0  0  0  0  0  0  0
  139.4774   74.7539  221.5351 H   0  0  0  0  0  0  0  0  0  0  0  0
  140.8513   72.2366  219.0157 H   0  0  0  0  0  0  0  0  0  0  0  0
  142.2385   73.0226  218.2288 H   0  0  0  0  0  0  0  0  0  0  0  0
  143.4792   71.0657  218.4239 H   0  0  0  0  0  0  0  0  0  0  0  0
  141.0740   70.1710  219.4990 H   0  0  0  0  0  0  0  0  0  0  0  0
  142.5318   70.7322  221.2867 H   0  0  0  0  0  0  0  0  0  0  0  0
  144.1507   70.5256  220.6777 H   0  0  0  0  0  0  0  0  0  0  0  0
  143.7836   72.8293  221.8319 H   0  0  0  0  0  0  0  0  0  0  0  0
  144.0285   73.2220  218.9901 H   0  0  0  0  0  0  0  0  0  0  0  0
  145.9043   71.4716  220.2231 H   0  0  0  0  0  0  0  0  0  0  0  0
  146.6259   72.5693  219.2083 H   0  0  0  0  0  0  0  0  0  0  0  0
  145.7845   72.9450  222.2330 H   0  0  0  0  0  0  0  0  0  0  0  0
  147.1485   73.6696  221.6572 H   0  0  0  0  0  0  0  0  0  0  0  0
  144.5273   74.9318  221.3344 H   0  0  0  0  0  0  0  0  0  0  0  0
  145.5469   75.2715  220.0760 H   0  0  0  0  0  0  0  0  0  0  0  0
  138.9115   69.1455  222.5909 H   0  0  0  0  0  0  0  0  0  0  0  0
  138.8073   67.7210  224.6201 H   0  0  0  0  0  0  0  0  0  0  0  0
  139.3507   67.4410  227.0091 H   0  0  0  0  0  0  0  0  0  0  0  0
  141.4231   70.5453  229.0884 H   0  0  0  0  0  0  0  0  0  0  0  0
  141.4745   71.8989  226.9967 H   0  0  0  0  0  0  0  0  0  0  0  0
  1  2  2  0
  2  3  1  0
  3  4  1  0
  4  5  1  0
  5  6  2  0
  5  7  1  0
  7  8  1  0
  8  9  1  0
  9 10  1  0
  9 11  1  0
 11 12  1  0
 12 13  1  0
 13 14  1  0
 14 15  1  0
 15 16  1  0
  2 17  1  0
 17 18  2  0
 18 19  1  0
 19 20  2  0
 20 21  1  0
 21 22  2  0
 22 23  1  0
 22 24  1  0
 24 25  2  0
 25 26  1  0
 26 27  2  0
 12  7  1  0
 16 13  1  0
 27 17  1  0
 26 20  1  0
  3 28  1  0
  4 29  1  0
  4 30  1  0
  8 31  1  0
  8 32  1  0
  9 33  1  6
 10 34  1  0
 11 35  1  0
 11 36  1  0
 12 37  1  1
 13 38  1  0
 14 39  1  0
 14 40  1  0
 15 41  1  0
 15 42  1  0
 16 43  1  0
 16 44  1  0
 18 45  1  0
 19 46  1  0
 21 47  1  0
 24 48  1  0
 25 49  1  0
M  END
>  <smiles>  (37) 
O=C(NCC(=O)N1C[C@H](O)C[C@H]1C1CCC1)c1ccc2cc(F)ccc2n1

>  <score_type>  (37) 
oracle

>  <origin>  (37) 
autodockgpu

>  <m_score__min__energy>  (37) 
-7.7699999999999996

>  <m_primary>  (37) 
energy

>  <rmsd>  (37) 
3.28097856470487

>  <m_score__min__rmsd>  (37) 
3.28097856470487

>  <meeko>  (37) 
{"free_energy": -6.82, "intermolecular_energy": -8.61, "internal_energy": -2.43, "cluster_size": 23, "cluster_id": 3, "rank_in_cluster": 18}

>  <energy>  (37) 
-6.81

>  <cluster_rmsd>  (37) 
1.63

>  <cluster>  (37) 
3

$$$$

     RDKit          3D

 49 52  0  0  0  0  0  0  0  0999 V2000
  139.9430   73.7350  222.6830 O   0  0  0  0  0  0  0  0  0  0  0  0
  140.2760   72.5260  222.5330 C   0  0  0  0  0  0  0  0  0  0  0  0
  140.7580   72.0280  221.2830 N   0  0  0  0  0  0  0  0  0  0  0  0
  140.8550   72.9560  220.1790 C   0  0  0  0  0  0  0  0  0  0  0  0
  142.1470   73.6750  220.1640 C   0  0  0  0  0  0  0  0  0  0  0  0
  142.1120   74.9260  220.2590 O   0  0  0  0  0  0  0  0  0  0  0  0
  143.3440   72.9190  220.0440 N   0  0  0  0  0  0  0  0  0  0  0  0
  144.5890   73.1350  220.7330 C   0  0  0  0  0  0  0  0  0  0  0  0
  145.6680   72.5190  219.8910 C   0  0  2  0  0  0  0  0  0  0  0  0
  146.7130   73.4130  219.6490 O   0  0  0  0  0  0  0  0  0  0  0  0
  144.9580   72.1010  218.6540 C   0  0  0  0  0  0  0  0  0  0  0  0
  143.5940   71.7470  219.1890 C   0  0  1  0  0  0  0  0  0  0  0  0
  143.5800   70.5410  220.0550 C   0  0  0  0  0  0  0  0  0  0  0  0
  144.4350   69.3790  219.6170 C   0  0  0  0  0  0  0  0  0  0  0  0
  143.3040   68.9870  218.6870 C   0  0  0  0  0  0  0  0  0  0  0  0
  142.3930   69.6560  219.7270 C   0  0  0  0  0  0  0  0  0  0  0  0
  140.1810   71.5820  223.6430 C   0  0  0  0  0  0  0  0  0  0  0  0
  139.5890   70.3370  223.4540 C   0  0  0  0  0  0  0  0  0  0  0  0
  139.4840   69.4190  224.4900 C   0  0  0  0  0  0  0  0  0  0  0  0
  139.9790   69.7460  225.7430 C   0  0  0  0  0  0  0  0  0  0  0  0
  139.9140   68.8960  226.8200 C   0  0  0  0  0  0  0  0  0  0  0  0
  140.4090   69.2340  228.0590 C   0  0  0  0  0  0  0  0  0  0  0  0
  140.3400   68.3890  229.1110 F   0  0  0  0  0  0  0  0  0  0  0  0
  140.9890   70.4790  228.2030 C   0  0  0  0  0  0  0  0  0  0  0  0
  141.0660   71.3610  227.1200 C   0  0  0  0  0  0  0  0  0  0  0  0
  140.5580   70.9930  225.8840 C   0  0  0  0  0  0  0  0  0  0  0  0
  140.6600   71.8800  224.8830 N   0  0  0  0  0  0  0  0  0  0  0  0
  141.0220   71.0100  221.2090 H   0  0  0  0  0  0  0  0  0  0  0  0
  140.7495   72.3978  219.2370 H   0  0  0  0  0  0  0  0  0  0  0  0
  140.0552   73.7023  220.2946 H   0  0  0  0  0  0  0  0  0  0  0  0
  144.7724   74.2129  220.8531 H   0  0  0  0  0  0  0  0  0  0  0  0
  144.5668   72.6831  221.7356 H   0  0  0  0  0  0  0  0  0  0  0  0
  146.1634   71.6686  220.3824 H   0  0  0  0  0  0  0  0  0  0  0  0
  146.2770   74.2410  219.3290 H   0  0  0  0  0  0  0  0  0  0  0  0
  144.9020   72.9240  217.9263 H   0  0  0  0  0  0  0  0  0  0  0  0
  145.4513   71.2810  218.1115 H   0  0  0  0  0  0  0  0  0  0  0  0
  142.8740   71.5300  218.3862 H   0  0  0  0  0  0  0  0  0  0  0  0
  143.7637   71.0239  221.0261 H   0  0  0  0  0  0  0  0  0  0  0  0
  145.3693   69.6618  219.1100 H   0  0  0  0  0  0  0  0  0  0  0  0
  144.8629   68.6693  220.3403 H   0  0  0  0  0  0  0  0  0  0  0  0
  143.3211   69.4713  217.6995 H   0  0  0  0  0  0  0  0  0  0  0  0
  143.1511   67.9577  218.3305 H   0  0  0  0  0  0  0  0  0  0  0  0
  141.5231   70.1840  219.3093 H   0  0  0  0  0  0  0  0  0  0  0  0
  141.8573   69.0810  220.4967 H   0  0  0  0  0  0  0  0  0  0  0  0
  139.1953   70.0742  222.4611 H   0  0  0  0  0  0  0  0  0  0  0  0
  139.0120   68.4404  224.3182 H   0  0  0  0  0  0  0  0  0  0  0  0
  139.4489   67.9081  226.6873 H   0  0  0  0  0  0  0  0  0  0  0  0
  141.3949   70.7804  229.1800 H   0  0  0  0  0  0  0  0  0  0  0  0
  141.5310   72.3494  227.2496 H   0  0  0  0  0  0  0  0  0  0  0  0
  1  2  2  0
  2  3  1  0
  3  4  1  0
  4  5  1  0
  5  6  2  0
  5  7  1  0
  7  8  1  0
  8  9  1  0
  9 10  1  0
  9 11  1  0
 11 12  1  0
 12 13  1  0
 13 14  1  0
 14 15  1  0
 15 16  1  0
  2 17  1  0
 17 18  2  0
 18 19  1  0
 19 20  2  0
 20 21  1  0
 21 22  2  0
 22 23  1  0
 22 24  1  0
 24 25  2  0
 25 26  1  0
 26 27  2  0
 12  7  1  0
 16 13  1  0
 27 17  1  0
 26 20  1  0
  3 28  1  0
  4 29  1  0
  4 30  1  0
  8 31  1  0
  8 32  1  0
  9 33  1  1
 10 34  1  0
 11 35  1  0
 11 36  1  0
 12 37  1  6
 13 38  1  0
 14 39  1  0
 14 40  1  0
 15 41  1  0
 15 42  1  0
 16 43  1  0
 16 44  1  0
 18 45  1  0
 19 46  1  0
 21 47  1  0
 24 48  1  0
 25 49  1  0
M  END
>  <smiles>  (38) 
O=C(NCC(=O)N1C[C@H](O)C[C@H]1C1CCC1)c1ccc2cc(F)ccc2n1

>  <score_type>  (38) 
oracle

>  <origin>  (38) 
autodockgpu

>  <m_score__min__energy>  (38) 
-7.7699999999999996

>  <m_primary>  (38) 
energy

>  <rmsd>  (38) 
4.043401597404957

>  <m_score__min__rmsd>  (38) 
4.043401597404957

>  <meeko>  (38) 
{"free_energy": -7.52, "intermolecular_energy": -9.31, "internal_energy": -1.43, "cluster_size": 23, "cluster_id": 3, "rank_in_cluster": 3}

>  <energy>  (38) 
-6.72

>  <cluster_rmsd>  (38) 
1.62

>  <cluster>  (38) 
3

$$$$

     RDKit          3D

 49 52  0  0  0  0  0  0  0  0999 V2000
  139.9120   70.7350  221.5340 O   0  0  0  0  0  0  0  0  0  0  0  0
  139.8590   71.5460  222.5020 C   0  0  0  0  0  0  0  0  0  0  0  0
  139.5930   72.9360  222.3040 N   0  0  0  0  0  0  0  0  0  0  0  0
  139.3840   73.3970  220.9510 C   0  0  0  0  0  0  0  0  0  0  0  0
  140.5700   73.1790  220.0950 C   0  0  0  0  0  0  0  0  0  0  0  0
  140.5610   72.1720  219.3450 O   0  0  0  0  0  0  0  0  0  0  0  0
  141.6410   74.1090  220.1670 N   0  0  0  0  0  0  0  0  0  0  0  0
  141.6180   75.4270  220.7440 C   0  0  0  0  0  0  0  0  0  0  0  0
  142.7170   76.2110  220.0870 C   0  0  2  0  0  0  0  0  0  0  0  0
  142.2560   77.4300  219.5840 O   0  0  0  0  0  0  0  0  0  0  0  0
  143.2220   75.2970  219.0300 C   0  0  0  0  0  0  0  0  0  0  0  0
  143.0170   73.9480  219.6690 C   0  0  1  0  0  0  0  0  0  0  0  0
  143.8970   73.6930  220.8380 C   0  0  0  0  0  0  0  0  0  0  0  0
  145.3460   74.0820  220.6950 C   0  0  0  0  0  0  0  0  0  0  0  0
  145.5570   72.7620  219.9780 C   0  0  0  0  0  0  0  0  0  0  0  0
  144.3890   72.2590  220.8390 C   0  0  0  0  0  0  0  0  0  0  0  0
  140.0690   71.0870  223.8720 C   0  0  0  0  0  0  0  0  0  0  0  0
  140.6880   71.9190  224.8000 C   0  0  0  0  0  0  0  0  0  0  0  0
  140.9020   71.5100  226.1100 C   0  0  0  0  0  0  0  0  0  0  0  0
  140.4910   70.2470  226.5060 C   0  0  0  0  0  0  0  0  0  0  0  0
  140.6660   69.7670  227.7810 C   0  0  0  0  0  0  0  0  0  0  0  0
  140.2530   68.5100  228.1600 C   0  0  0  0  0  0  0  0  0  0  0  0
  140.4300   68.0490  229.4180 F   0  0  0  0  0  0  0  0  0  0  0  0
  139.6440   67.7180  227.2080 C   0  0  0  0  0  0  0  0  0  0  0  0
  139.4560   68.1860  225.9030 C   0  0  0  0  0  0  0  0  0  0  0  0
  139.8820   69.4570  225.5500 C   0  0  0  0  0  0  0  0  0  0  0  0
  139.6750   69.8500  224.2850 N   0  0  0  0  0  0  0  0  0  0  0  0
  139.5600   73.5720  223.1450 H   0  0  0  0  0  0  0  0  0  0  0  0
  138.5312   72.8525  220.5194 H   0  0  0  0  0  0  0  0  0  0  0  0
  139.1911   74.4793  220.9900 H   0  0  0  0  0  0  0  0  0  0  0  0
  140.6462   75.9060  220.5540 H   0  0  0  0  0  0  0  0  0  0  0  0
  141.7639   75.3821  221.8334 H   0  0  0  0  0  0  0  0  0  0  0  0
  143.5140   76.5032  220.7866 H   0  0  0  0  0  0  0  0  0  0  0  0
  143.0020   78.0670  219.7240 H   0  0  0  0  0  0  0  0  0  0  0  0
  142.6379   75.3945  218.1030 H   0  0  0  0  0  0  0  0  0  0  0  0
  144.2611   75.4947  218.7279 H   0  0  0  0  0  0  0  0  0  0  0  0
  143.2216   73.1212  218.9730 H   0  0  0  0  0  0  0  0  0  0  0  0
  143.2791   74.1529  221.6233 H   0  0  0  0  0  0  0  0  0  0  0  0
  145.5231   74.9742  220.0764 H   0  0  0  0  0  0  0  0  0  0  0  0
  145.9560   74.3747  221.5623 H   0  0  0  0  0  0  0  0  0  0  0  0
  145.3654   72.7819  218.8950 H   0  0  0  0  0  0  0  0  0  0  0  0
  146.5313   72.2533  219.9337 H   0  0  0  0  0  0  0  0  0  0  0  0
  143.7221   71.5403  220.3404 H   0  0  0  0  0  0  0  0  0  0  0  0
  144.5450   71.6912  221.7681 H   0  0  0  0  0  0  0  0  0  0  0  0
  141.0149   72.9223  224.4893 H   0  0  0  0  0  0  0  0  0  0  0  0
  141.3938   72.1832  226.8276 H   0  0  0  0  0  0  0  0  0  0  0  0
  141.1544   70.4112  228.5269 H   0  0  0  0  0  0  0  0  0  0  0  0
  139.3027   66.7078  227.4781 H   0  0  0  0  0  0  0  0  0  0  0  0
  138.9687   67.5435  225.1549 H   0  0  0  0  0  0  0  0  0  0  0  0
  1  2  2  0
  2  3  1  0
  3  4  1  0
  4  5  1  0
  5  6  2  0
  5  7  1  0
  7  8  1  0
  8  9  1  0
  9 10  1  0
  9 11  1  0
 11 12  1  0
 12 13  1  0
 13 14  1  0
 14 15  1  0
 15 16  1  0
  2 17  1  0
 17 18  2  0
 18 19  1  0
 19 20  2  0
 20 21  1  0
 21 22  2  0
 22 23  1  0
 22 24  1  0
 24 25  2  0
 25 26  1  0
 26 27  2  0
 12  7  1  0
 16 13  1  0
 27 17  1  0
 26 20  1  0
  3 28  1  0
  4 29  1  0
  4 30  1  0
  8 31  1  0
  8 32  1  0
  9 33  1  1
 10 34  1  0
 11 35  1  0
 11 36  1  0
 12 37  1  6
 13 38  1  0
 14 39  1  0
 14 40  1  0
 15 41  1  0
 15 42  1  0
 16 43  1  0
 16 44  1  0
 18 45  1  0
 19 46  1  0
 21 47  1  0
 24 48  1  0
 25 49  1  0
M  END
>  <smiles>  (39) 
O=C(NCC(=O)N1C[C@H](O)C[C@H]1C1CCC1)c1ccc2cc(F)ccc2n1

>  <score_type>  (39) 
oracle

>  <origin>  (39) 
autodockgpu

>  <m_score__min__energy>  (39) 
-7.7699999999999996

>  <m_primary>  (39) 
energy

>  <rmsd>  (39) 
3.244223823149362

>  <m_score__min__rmsd>  (39) 
3.244223823149362

>  <meeko>  (39) 
{"free_energy": -7.42, "intermolecular_energy": -9.21, "internal_energy": -1.26, "cluster_size": 23, "cluster_id": 3, "rank_in_cluster": 6}

>  <energy>  (39) 
-6.71

>  <cluster_rmsd>  (39) 
1.66

>  <cluster>  (39) 
3

$$$$

     RDKit          3D

 49 52  0  0  0  0  0  0  0  0999 V2000
  135.5410   69.5230  224.3790 O   0  0  0  0  0  0  0  0  0  0  0  0
  135.7310   70.7590  224.5610 C   0  0  0  0  0  0  0  0  0  0  0  0
  136.8710   71.4310  224.0240 N   0  0  0  0  0  0  0  0  0  0  0  0
  137.8150   70.6520  223.2560 C   0  0  0  0  0  0  0  0  0  0  0  0
  139.1960   70.7780  223.7720 C   0  0  0  0  0  0  0  0  0  0  0  0
  139.9740   71.5450  223.1550 O   0  0  0  0  0  0  0  0  0  0  0  0
  139.5620   70.0310  224.9240 N   0  0  0  0  0  0  0  0  0  0  0  0
  139.9420   68.6440  224.9840 C   0  0  0  0  0  0  0  0  0  0  0  0
  139.6620   68.1740  226.3820 C   0  0  2  0  0  0  0  0  0  0  0  0
  138.8950   67.0070  226.3940 O   0  0  0  0  0  0  0  0  0  0  0  0
  138.9760   69.3310  227.0140 C   0  0  0  0  0  0  0  0  0  0  0  0
  139.6350   70.4940  226.3190 C   0  0  1  0  0  0  0  0  0  0  0  0
  141.0680   70.6720  226.6650 C   0  0  0  0  0  0  0  0  0  0  0  0
  141.4450   70.4940  228.1140 C   0  0  0  0  0  0  0  0  0  0  0  0
  140.9930   71.9250  228.3350 C   0  0  0  0  0  0  0  0  0  0  0  0
  141.3950   72.1390  226.8680 C   0  0  0  0  0  0  0  0  0  0  0  0
  134.7820   71.5530  225.3360 C   0  0  0  0  0  0  0  0  0  0  0  0
  133.7990   70.9240  226.0930 C   0  0  0  0  0  0  0  0  0  0  0  0
  132.8820   71.6530  226.8410 C   0  0  0  0  0  0  0  0  0  0  0  0
  132.9450   73.0380  226.8340 C   0  0  0  0  0  0  0  0  0  0  0  0
  132.0760   73.8310  227.5440 C   0  0  0  0  0  0  0  0  0  0  0  0
  132.1500   75.2050  227.5270 C   0  0  0  0  0  0  0  0  0  0  0  0
  131.2910   75.9750  228.2300 F   0  0  0  0  0  0  0  0  0  0  0  0
  133.1410   75.7880  226.7630 C   0  0  0  0  0  0  0  0  0  0  0  0
  134.0360   75.0000  226.0310 C   0  0  0  0  0  0  0  0  0  0  0  0
  133.9370   73.6180  226.0670 C   0  0  0  0  0  0  0  0  0  0  0  0
  134.8230   72.9150  225.3450 N   0  0  0  0  0  0  0  0  0  0  0  0
  136.9840   72.4640  224.2050 H   0  0  0  0  0  0  0  0  0  0  0  0
  137.5170   69.5939  223.2968 H   0  0  0  0  0  0  0  0  0  0  0  0
  137.8048   71.0319  222.2237 H   0  0  0  0  0  0  0  0  0  0  0  0
  139.3521   68.0589  224.2631 H   0  0  0  0  0  0  0  0  0  0  0  0
  141.0050   68.5162  224.7317 H   0  0  0  0  0  0  0  0  0  0  0  0
  140.5722   67.8914  226.9312 H   0  0  0  0  0  0  0  0  0  0  0  0
  139.2060   66.5000  227.1850 H   0  0  0  0  0  0  0  0  0  0  0  0
  137.8933   69.3096  226.8208 H   0  0  0  0  0  0  0  0  0  0  0  0
  139.0640   69.3579  228.1102 H   0  0  0  0  0  0  0  0  0  0  0  0
  139.1603   71.4538  226.5708 H   0  0  0  0  0  0  0  0  0  0  0  0
  141.5130   70.0221  225.8971 H   0  0  0  0  0  0  0  0  0  0  0  0
  140.8551   69.7377  228.6525 H   0  0  0  0  0  0  0  0  0  0  0  0
  142.4454   70.1491  228.4146 H   0  0  0  0  0  0  0  0  0  0  0  0
  139.9213   72.0494  228.5494 H   0  0  0  0  0  0  0  0  0  0  0  0
  141.3691   72.5520  229.1569 H   0  0  0  0  0  0  0  0  0  0  0  0
  140.7547   72.8377  226.3096 H   0  0  0  0  0  0  0  0  0  0  0  0
  142.3652   72.5707  226.5809 H   0  0  0  0  0  0  0  0  0  0  0  0
  133.7462   69.8253  226.0998 H   0  0  0  0  0  0  0  0  0  0  0  0
  132.1130   71.1356  227.4334 H   0  0  0  0  0  0  0  0  0  0  0  0
  131.2926   73.3499  228.1480 H   0  0  0  0  0  0  0  0  0  0  0  0
  133.2280   76.8840  226.7293 H   0  0  0  0  0  0  0  0  0  0  0  0
  134.8200   75.4784  225.4256 H   0  0  0  0  0  0  0  0  0  0  0  0
  1  2  2  0
  2  3  1  0
  3  4  1  0
  4  5  1  0
  5  6  2  0
  5  7  1  0
  7  8  1  0
  8  9  1  0
  9 10  1  0
  9 11  1  0
 11 12  1  0
 12 13  1  0
 13 14  1  0
 14 15  1  0
 15 16  1  0
  2 17  1  0
 17 18  2  0
 18 19  1  0
 19 20  2  0
 20 21  1  0
 21 22  2  0
 22 23  1  0
 22 24  1  0
 24 25  2  0
 25 26  1  0
 26 27  2  0
 12  7  1  0
 16 13  1  0
 27 17  1  0
 26 20  1  0
  3 28  1  0
  4 29  1  0
  4 30  1  0
  8 31  1  0
  8 32  1  0
  9 33  1  1
 10 34  1  0
 11 35  1  0
 11 36  1  0
 12 37  1  6
 13 38  1  0
 14 39  1  0
 14 40  1  0
 15 41  1  0
 15 42  1  0
 16 43  1  0
 16 44  1  0
 18 45  1  0
 19 46  1  0
 21 47  1  0
 24 48  1  0
 25 49  1  0
M  END
>  <smiles>  (40) 
O=C(NCC(=O)N1C[C@H](O)C[C@H]1C1CCC1)c1ccc2cc(F)ccc2n1

>  <score_type>  (40) 
oracle

>  <origin>  (40) 
autodockgpu

>  <m_score__min__energy>  (40) 
-7.7699999999999996

>  <m_primary>  (40) 
energy

>  <rmsd>  (40) 
8.303610523993344

>  <m_score__min__rmsd>  (40) 
8.303610523993344

>  <meeko>  (40) 
{"free_energy": -7.67, "intermolecular_energy": -9.46, "internal_energy": -1.65, "cluster_size": 5, "cluster_id": 2, "rank_in_cluster": 1}

>  <energy>  (40) 
-6.71

>  <cluster_rmsd>  (40) 
1.63

>  <cluster>  (40) 
3

$$$$

     RDKit          3D

 49 52  0  0  0  0  0  0  0  0999 V2000
  140.9150   71.7670  221.0630 O   0  0  0  0  0  0  0  0  0  0  0  0
  140.3970   72.2670  222.1010 C   0  0  0  0  0  0  0  0  0  0  0  0
  139.9770   73.6320  222.1490 N   0  0  0  0  0  0  0  0  0  0  0  0
  140.1630   74.4370  220.9640 C   0  0  0  0  0  0  0  0  0  0  0  0
  141.1460   75.5230  221.1720 C   0  0  0  0  0  0  0  0  0  0  0  0
  141.1060   76.1330  222.2680 O   0  0  0  0  0  0  0  0  0  0  0  0
  142.0700   75.8110  220.1330 N   0  0  0  0  0  0  0  0  0  0  0  0
  142.6530   77.0870  219.8100 C   0  0  0  0  0  0  0  0  0  0  0  0
  143.0580   77.0290  218.3650 C   0  0  2  0  0  0  0  0  0  0  0  0
  142.5590   78.1150  217.6410 O   0  0  0  0  0  0  0  0  0  0  0  0
  142.5250   75.7230  217.8990 C   0  0  0  0  0  0  0  0  0  0  0  0
  142.6430   74.8830  219.1450 C   0  0  1  0  0  0  0  0  0  0  0  0
  144.0430   74.5950  219.5490 C   0  0  0  0  0  0  0  0  0  0  0  0
  144.6920   73.3820  218.9330 C   0  0  0  0  0  0  0  0  0  0  0  0
  143.9900   72.5540  219.9920 C   0  0  0  0  0  0  0  0  0  0  0  0
  144.0790   73.8230  220.8540 C   0  0  0  0  0  0  0  0  0  0  0  0
  140.2060   71.4600  223.3030 C   0  0  0  0  0  0  0  0  0  0  0  0
  139.5710   70.2240  223.2210 C   0  0  0  0  0  0  0  0  0  0  0  0
  139.3760   69.4340  224.3470 C   0  0  0  0  0  0  0  0  0  0  0  0
  139.8210   69.8830  225.5800 C   0  0  0  0  0  0  0  0  0  0  0  0
  139.6660   69.1630  226.7400 C   0  0  0  0  0  0  0  0  0  0  0  0
  140.1120   69.6220  227.9590 C   0  0  0  0  0  0  0  0  0  0  0  0
  139.9550   68.9050  229.0930 F   0  0  0  0  0  0  0  0  0  0  0  0
  140.7360   70.8520  227.9940 C   0  0  0  0  0  0  0  0  0  0  0  0
  140.9050   71.6030  226.8260 C   0  0  0  0  0  0  0  0  0  0  0  0
  140.4440   71.1160  225.6130 C   0  0  0  0  0  0  0  0  0  0  0  0
  140.6340   71.8790  224.5260 N   0  0  0  0  0  0  0  0  0  0  0  0
  139.5510   74.0020  223.0400 H   0  0  0  0  0  0  0  0  0  0  0  0
  140.5182   73.7896  220.1487 H   0  0  0  0  0  0  0  0  0  0  0  0
  139.1965   74.9005  220.7167 H   0  0  0  0  0  0  0  0  0  0  0  0
  141.9164   77.8893  219.9644 H   0  0  0  0  0  0  0  0  0  0  0  0
  143.5199   77.2977  220.4535 H   0  0  0  0  0  0  0  0  0  0  0  0
  144.1463   77.0989  218.2211 H   0  0  0  0  0  0  0  0  0  0  0  0
  143.3590   78.6020  217.3200 H   0  0  0  0  0  0  0  0  0  0  0  0
  141.4784   75.8106  217.5721 H   0  0  0  0  0  0  0  0  0  0  0  0
  143.0557   75.3087  217.0291 H   0  0  0  0  0  0  0  0  0  0  0  0
  142.1714   73.8960  219.0291 H   0  0  0  0  0  0  0  0  0  0  0  0
  144.4780   75.5926  219.3889 H   0  0  0  0  0  0  0  0  0  0  0  0
  144.3786   73.1681  217.9005 H   0  0  0  0  0  0  0  0  0  0  0  0
  145.7794   73.3227  218.7776 H   0  0  0  0  0  0  0  0  0  0  0  0
  142.9696   72.2334  219.7351 H   0  0  0  0  0  0  0  0  0  0  0  0
  144.3591   71.5739  220.3285 H   0  0  0  0  0  0  0  0  0  0  0  0
  143.2181   73.9938  221.5171 H   0  0  0  0  0  0  0  0  0  0  0  0
  144.8704   73.9709  221.6036 H   0  0  0  0  0  0  0  0  0  0  0  0
  139.2160   69.8651  222.2437 H   0  0  0  0  0  0  0  0  0  0  0  0
  138.8724   68.4599  224.2604 H   0  0  0  0  0  0  0  0  0  0  0  0
  139.1672   68.1837  226.6930 H   0  0  0  0  0  0  0  0  0  0  0  0
  141.1051   71.2469  228.9520 H   0  0  0  0  0  0  0  0  0  0  0  0
  141.4047   72.5819  226.8703 H   0  0  0  0  0  0  0  0  0  0  0  0
  1  2  2  0
  2  3  1  0
  3  4  1  0
  4  5  1  0
  5  6  2  0
  5  7  1  0
  7  8  1  0
  8  9  1  0
  9 10  1  0
  9 11  1  0
 11 12  1  0
 12 13  1  0
 13 14  1  0
 14 15  1  0
 15 16  1  0
  2 17  1  0
 17 18  2  0
 18 19  1  0
 19 20  2  0
 20 21  1  0
 21 22  2  0
 22 23  1  0
 22 24  1  0
 24 25  2  0
 25 26  1  0
 26 27  2  0
 12  7  1  0
 16 13  1  0
 27 17  1  0
 26 20  1  0
  3 28  1  0
  4 29  1  0
  4 30  1  0
  8 31  1  0
  8 32  1  0
  9 33  1  1
 10 34  1  0
 11 35  1  0
 11 36  1  0
 12 37  1  6
 13 38  1  0
 14 39  1  0
 14 40  1  0
 15 41  1  0
 15 42  1  0
 16 43  1  0
 16 44  1  0
 18 45  1  0
 19 46  1  0
 21 47  1  0
 24 48  1  0
 25 49  1  0
M  END
>  <smiles>  (41) 
O=C(NCC(=O)N1C[C@H](O)C[C@H]1C1CCC1)c1ccc2cc(F)ccc2n1

>  <score_type>  (41) 
oracle

>  <origin>  (41) 
autodockgpu

>  <m_score__min__energy>  (41) 
-7.7699999999999996

>  <m_primary>  (41) 
energy

>  <rmsd>  (41) 
2.387513339374805

>  <m_score__min__rmsd>  (41) 
2.387513339374805

>  <meeko>  (41) 
{"free_energy": -7.36, "intermolecular_energy": -9.15, "internal_energy": -1.66, "cluster_size": 7, "cluster_id": 4, "rank_in_cluster": 4}

>  <energy>  (41) 
-6.63

>  <cluster_rmsd>  (41) 
1.67

>  <cluster>  (41) 
3

$$$$

     RDKit          3D

 49 52  0  0  0  0  0  0  0  0999 V2000
  140.2880   71.4010  221.0340 O   0  0  0  0  0  0  0  0  0  0  0  0
  140.0690   71.9450  222.1540 C   0  0  0  0  0  0  0  0  0  0  0  0
  139.9230   73.3600  222.2850 N   0  0  0  0  0  0  0  0  0  0  0  0
  140.0340   74.1650  221.0900 C   0  0  0  0  0  0  0  0  0  0  0  0
  141.4390   74.4840  220.7580 C   0  0  0  0  0  0  0  0  0  0  0  0
  141.8260   75.6610  220.9580 O   0  0  0  0  0  0  0  0  0  0  0  0
  142.2650   73.4530  220.2360 N   0  0  0  0  0  0  0  0  0  0  0  0
  142.0760   72.7130  219.0160 C   0  0  0  0  0  0  0  0  0  0  0  0
  142.8010   71.4080  219.1790 C   0  0  2  0  0  0  0  0  0  0  0  0
  141.9820   70.3170  218.8800 O   0  0  0  0  0  0  0  0  0  0  0  0
  143.2530   71.4280  220.5950 C   0  0  0  0  0  0  0  0  0  0  0  0
  143.4990   72.8980  220.8160 C   0  0  1  0  0  0  0  0  0  0  0  0
  144.6480   73.4410  220.0480 C   0  0  0  0  0  0  0  0  0  0  0  0
  145.9410   72.6680  220.1210 C   0  0  0  0  0  0  0  0  0  0  0  0
  146.2090   73.3780  221.4350 C   0  0  0  0  0  0  0  0  0  0  0  0
  145.3660   74.5160  220.8400 C   0  0  0  0  0  0  0  0  0  0  0  0
  139.9560   71.1390  223.3670 C   0  0  0  0  0  0  0  0  0  0  0  0
  139.3580   69.8840  223.3170 C   0  0  0  0  0  0  0  0  0  0  0  0
  139.2370   69.0940  224.4540 C   0  0  0  0  0  0  0  0  0  0  0  0
  139.7200   69.5640  225.6650 C   0  0  0  0  0  0  0  0  0  0  0  0
  139.6380   68.8460  226.8330 C   0  0  0  0  0  0  0  0  0  0  0  0
  140.1220   69.3260  228.0300 C   0  0  0  0  0  0  0  0  0  0  0  0
  140.0370   68.6110  229.1730 F   0  0  0  0  0  0  0  0  0  0  0  0
  140.7080   70.5760  228.0330 C   0  0  0  0  0  0  0  0  0  0  0  0
  140.8020   71.3240  226.8550 C   0  0  0  0  0  0  0  0  0  0  0  0
  140.3050   70.8160  225.6650 C   0  0  0  0  0  0  0  0  0  0  0  0
  140.4230   71.5790  224.5680 N   0  0  0  0  0  0  0  0  0  0  0  0
  139.7420   73.7660  223.2420 H   0  0  0  0  0  0  0  0  0  0  0  0
  139.5880   73.6136  220.2491 H   0  0  0  0  0  0  0  0  0  0  0  0
  139.5072   75.1133  221.2724 H   0  0  0  0  0  0  0  0  0  0  0  0
  141.0045   72.5315  218.8461 H   0  0  0  0  0  0  0  0  0  0  0  0
  142.4639   73.2730  218.1524 H   0  0  0  0  0  0  0  0  0  0  0  0
  143.6458   71.2962  218.4835 H   0  0  0  0  0  0  0  0  0  0  0  0
  141.1750   70.4370  219.4410 H   0  0  0  0  0  0  0  0  0  0  0  0
  142.4733   71.0459  221.2703 H   0  0  0  0  0  0  0  0  0  0  0  0
  144.1296   70.7937  220.7931 H   0  0  0  0  0  0  0  0  0  0  0  0
  143.7253   73.1295  221.8673 H   0  0  0  0  0  0  0  0  0  0  0  0
  144.1514   73.5918  219.0781 H   0  0  0  0  0  0  0  0  0  0  0  0
  145.8204   71.5778  220.2042 H   0  0  0  0  0  0  0  0  0  0  0  0
  146.6699   72.6778  219.2972 H   0  0  0  0  0  0  0  0  0  0  0  0
  145.7800   72.8937  222.3246 H   0  0  0  0  0  0  0  0  0  0  0  0
  147.2210   73.5299  221.8384 H   0  0  0  0  0  0  0  0  0  0  0  0
  144.7378   75.0546  221.5648 H   0  0  0  0  0  0  0  0  0  0  0  0
  145.8202   75.3955  220.3602 H   0  0  0  0  0  0  0  0  0  0  0  0
  138.9728   69.5090  222.3573 H   0  0  0  0  0  0  0  0  0  0  0  0
  138.7618   68.1038  224.3932 H   0  0  0  0  0  0  0  0  0  0  0  0
  139.1687   67.8514  226.8118 H   0  0  0  0  0  0  0  0  0  0  0  0
  141.1053   70.9882  228.9723 H   0  0  0  0  0  0  0  0  0  0  0  0
  141.2718   72.3185  226.8729 H   0  0  0  0  0  0  0  0  0  0  0  0
  1  2  2  0
  2  3  1  0
  3  4  1  0
  4  5  1  0
  5  6  2  0
  5  7  1  0
  7  8  1  0
  8  9  1  0
  9 10  1  0
  9 11  1  0
 11 12  1  0
 12 13  1  0
 13 14  1  0
 14 15  1  0
 15 16  1  0
  2 17  1  0
 17 18  2  0
 18 19  1  0
 19 20  2  0
 20 21  1  0
 21 22  2  0
 22 23  1  0
 22 24  1  0
 24 25  2  0
 25 26  1  0
 26 27  2  0
 12  7  1  0
 16 13  1  0
 27 17  1  0
 26 20  1  0
  3 28  1  0
  4 29  1  0
  4 30  1  0
  8 31  1  0
  8 32  1  0
  9 33  1  6
 10 34  1  0
 11 35  1  0
 11 36  1  0
 12 37  1  1
 13 38  1  0
 14 39  1  0
 14 40  1  0
 15 41  1  0
 15 42  1  0
 16 43  1  0
 16 44  1  0
 18 45  1  0
 19 46  1  0
 21 47  1  0
 24 48  1  0
 25 49  1  0
M  END
>  <smiles>  (42) 
O=C(NCC(=O)N1C[C@H](O)C[C@H]1C1CCC1)c1ccc2cc(F)ccc2n1

>  <score_type>  (42) 
oracle

>  <origin>  (42) 
autodockgpu

>  <m_score__min__energy>  (42) 
-7.7699999999999996

>  <m_primary>  (42) 
energy

>  <rmsd>  (42) 
3.2094283251855362

>  <m_score__min__rmsd>  (42) 
3.2094283251855362

>  <meeko>  (42) 
{"free_energy": -6.89, "intermolecular_energy": -8.68, "internal_energy": -2.4, "cluster_size": 23, "cluster_id": 3, "rank_in_cluster": 11}

>  <energy>  (42) 
-7.46

>  <cluster_rmsd>  (42) 
0.0

>  <cluster>  (42) 
4

$$$$

     RDKit          3D

 49 52  0  0  0  0  0  0  0  0999 V2000
  134.7080   68.3490  224.9670 O   0  0  0  0  0  0  0  0  0  0  0  0
  135.1230   69.5420  224.9540 C   0  0  0  0  0  0  0  0  0  0  0  0
  136.3680   69.8980  224.3500 N   0  0  0  0  0  0  0  0  0  0  0  0
  137.1510   68.8450  223.7460 C   0  0  0  0  0  0  0  0  0  0  0  0
  138.4610   68.6680  224.4100 C   0  0  0  0  0  0  0  0  0  0  0  0
  138.8370   67.4930  224.6390 O   0  0  0  0  0  0  0  0  0  0  0  0
  139.2120   69.8250  224.7500 N   0  0  0  0  0  0  0  0  0  0  0  0
  138.9990   71.1730  224.2910 C   0  0  0  0  0  0  0  0  0  0  0  0
  140.3120   71.8900  224.4180 C   0  0  2  0  0  0  0  0  0  0  0  0
  140.6730   72.5270  223.2290 O   0  0  0  0  0  0  0  0  0  0  0  0
  141.2630   70.8210  224.8210 C   0  0  0  0  0  0  0  0  0  0  0  0
  140.3780   69.9200  225.6420 C   0  0  1  0  0  0  0  0  0  0  0  0
  139.9250   70.5210  226.9230 C   0  0  0  0  0  0  0  0  0  0  0  0
  140.9980   70.9100  227.9080 C   0  0  0  0  0  0  0  0  0  0  0  0
  141.0200   69.4590  228.3500 C   0  0  0  0  0  0  0  0  0  0  0  0
  139.5450   69.4430  227.9190 C   0  0  0  0  0  0  0  0  0  0  0  0
  134.3380   70.6120  225.5630 C   0  0  0  0  0  0  0  0  0  0  0  0
  133.2120   70.3080  226.3210 C   0  0  0  0  0  0  0  0  0  0  0  0
  132.4460   71.3040  226.9130 C   0  0  0  0  0  0  0  0  0  0  0  0
  132.8070   72.6310  226.7460 C   0  0  0  0  0  0  0  0  0  0  0  0
  132.1030   73.6750  227.2970 C   0  0  0  0  0  0  0  0  0  0  0  0
  132.4740   74.9890  227.1220 C   0  0  0  0  0  0  0  0  0  0  0  0
  131.7740   76.0070  227.6690 F   0  0  0  0  0  0  0  0  0  0  0  0
  133.5970   75.2460  226.3630 C   0  0  0  0  0  0  0  0  0  0  0  0
  134.3300   74.1990  225.7920 C   0  0  0  0  0  0  0  0  0  0  0  0
  133.9320   72.8850  225.9850 C   0  0  0  0  0  0  0  0  0  0  0  0
  134.6730   71.9240  225.4140 N   0  0  0  0  0  0  0  0  0  0  0  0
  136.6710   70.9080  224.3670 H   0  0  0  0  0  0  0  0  0  0  0  0
  136.5890   67.9020  223.8154 H   0  0  0  0  0  0  0  0  0  0  0  0
  137.3395   69.1242  222.6989 H   0  0  0  0  0  0  0  0  0  0  0  0
  138.6710   71.1676  223.2410 H   0  0  0  0  0  0  0  0  0  0  0  0
  138.2189   71.6722  224.8846 H   0  0  0  0  0  0  0  0  0  0  0  0
  140.2857   72.7082  225.1527 H   0  0  0  0  0  0  0  0  0  0  0  0
  141.1960   71.8550  222.7230 H   0  0  0  0  0  0  0  0  0  0  0  0
  141.6692   70.2943  223.9449 H   0  0  0  0  0  0  0  0  0  0  0  0
  142.1480   71.1901  225.3600 H   0  0  0  0  0  0  0  0  0  0  0  0
  140.8851   68.9872  225.9295 H   0  0  0  0  0  0  0  0  0  0  0  0
  139.2422   71.2854  226.5236 H   0  0  0  0  0  0  0  0  0  0  0  0
  141.9336   71.2653  227.4515 H   0  0  0  0  0  0  0  0  0  0  0  0
  140.8566   71.7324  228.6247 H   0  0  0  0  0  0  0  0  0  0  0  0
  141.6845   68.8028  227.7687 H   0  0  0  0  0  0  0  0  0  0  0  0
  141.3559   69.1418  229.3483 H   0  0  0  0  0  0  0  0  0  0  0  0
  139.2036   68.4981  227.4711 H   0  0  0  0  0  0  0  0  0  0  0  0
  138.7209   69.5689  228.6366 H   0  0  0  0  0  0  0  0  0  0  0  0
  132.9218   69.2554  226.4546 H   0  0  0  0  0  0  0  0  0  0  0  0
  131.5599   71.0413  227.5095 H   0  0  0  0  0  0  0  0  0  0  0  0
  131.2103   73.4523  227.8999 H   0  0  0  0  0  0  0  0  0  0  0  0
  133.9201   76.2855  226.2047 H   0  0  0  0  0  0  0  0  0  0  0  0
  135.2233   74.4192  225.1891 H   0  0  0  0  0  0  0  0  0  0  0  0
  1  2  2  0
  2  3  1  0
  3  4  1  0
  4  5  1  0
  5  6  2  0
  5  7  1  0
  7  8  1  0
  8  9  1  0
  9 10  1  0
  9 11  1  0
 11 12  1  0
 12 13  1  0
 13 14  1  0
 14 15  1  0
 15 16  1  0
  2 17  1  0
 17 18  2  0
 18 19  1  0
 19 20  2  0
 20 21  1  0
 21 22  2  0
 22 23  1  0
 22 24  1  0
 24 25  2  0
 25 26  1  0
 26 27  2  0
 12  7  1  0
 16 13  1  0
 27 17  1  0
 26 20  1  0
  3 28  1  0
  4 29  1  0
  4 30  1  0
  8 31  1  0
  8 32  1  0
  9 33  1  1
 10 34  1  0
 11 35  1  0
 11 36  1  0
 12 37  1  1
 13 38  1  0
 14 39  1  0
 14 40  1  0
 15 41  1  0
 15 42  1  0
 16 43  1  0
 16 44  1  0
 18 45  1  0
 19 46  1  0
 21 47  1  0
 24 48  1  0
 25 49  1  0
M  END
>  <smiles>  (43) 
O=C(NCC(=O)N1C[C@H](O)C[C@H]1C1CCC1)c1ccc2cc(F)ccc2n1

>  <score_type>  (43) 
oracle

>  <origin>  (43) 
autodockgpu

>  <m_score__min__energy>  (43) 
-7.7699999999999996

>  <m_primary>  (43) 
energy

>  <rmsd>  (43) 
7.781693811820698

>  <m_score__min__rmsd>  (43) 
7.781693811820698

>  <meeko>  (43) 
{"free_energy": -7.17, "intermolecular_energy": -8.96, "internal_energy": -1.59, "cluster_size": 5, "cluster_id": 2, "rank_in_cluster": 3}

>  <energy>  (43) 
-7.42

>  <cluster_rmsd>  (43) 
0.24

>  <cluster>  (43) 
4

$$$$

     RDKit          3D

 49 52  0  0  0  0  0  0  0  0999 V2000
  140.2650   71.1980  221.1230 O   0  0  0  0  0  0  0  0  0  0  0  0
  140.0230   71.7570  222.2300 C   0  0  0  0  0  0  0  0  0  0  0  0
  139.8480   73.1710  222.3360 N   0  0  0  0  0  0  0  0  0  0  0  0
  139.9570   73.9570  221.1290 C   0  0  0  0  0  0  0  0  0  0  0  0
  141.3620   74.2630  220.7840 C   0  0  0  0  0  0  0  0  0  0  0  0
  141.7780   75.4200  221.0340 O   0  0  0  0  0  0  0  0  0  0  0  0
  142.1540   73.2420  220.1940 N   0  0  0  0  0  0  0  0  0  0  0  0
  141.8900   72.5220  218.9760 C   0  0  0  0  0  0  0  0  0  0  0  0
  142.6240   71.2160  219.0720 C   0  0  2  0  0  0  0  0  0  0  0  0
  141.7880   70.1290  218.8050 O   0  0  0  0  0  0  0  0  0  0  0  0
  143.1630   71.2120  220.4560 C   0  0  0  0  0  0  0  0  0  0  0  0
  143.4220   72.6790  220.6870 C   0  0  1  0  0  0  0  0  0  0  0  0
  144.5210   73.2360  219.8580 C   0  0  0  0  0  0  0  0  0  0  0  0
  145.8940   72.6490  220.0640 C   0  0  0  0  0  0  0  0  0  0  0  0
  146.0350   73.5770  221.2560 C   0  0  0  0  0  0  0  0  0  0  0  0
  145.0800   74.4990  220.4820 C   0  0  0  0  0  0  0  0  0  0  0  0
  139.9120   70.9690  223.4550 C   0  0  0  0  0  0  0  0  0  0  0  0
  139.3200   69.7110  223.4250 C   0  0  0  0  0  0  0  0  0  0  0  0
  139.2000   68.9390  224.5730 C   0  0  0  0  0  0  0  0  0  0  0  0
  139.6810   69.4290  225.7770 C   0  0  0  0  0  0  0  0  0  0  0  0
  139.6010   68.7290  226.9570 C   0  0  0  0  0  0  0  0  0  0  0  0
  140.0820   69.2290  228.1460 C   0  0  0  0  0  0  0  0  0  0  0  0
  139.9980   68.5310  229.3000 F   0  0  0  0  0  0  0  0  0  0  0  0
  140.6620   70.4810  228.1300 C   0  0  0  0  0  0  0  0  0  0  0  0
  140.7540   71.2120  226.9410 C   0  0  0  0  0  0  0  0  0  0  0  0
  140.2610   70.6830  225.7590 C   0  0  0  0  0  0  0  0  0  0  0  0
  140.3760   71.4290  224.6500 N   0  0  0  0  0  0  0  0  0  0  0  0
  139.6490   73.5890  223.2840 H   0  0  0  0  0  0  0  0  0  0  0  0
  139.5031   73.3957  220.2990 H   0  0  0  0  0  0  0  0  0  0  0  0
  139.4369   74.9110  221.3004 H   0  0  0  0  0  0  0  0  0  0  0  0
  140.8101   72.3418  218.8699 H   0  0  0  0  0  0  0  0  0  0  0  0
  142.2233   73.0968  218.0994 H   0  0  0  0  0  0  0  0  0  0  0  0
  143.4246   71.1174  218.3241 H   0  0  0  0  0  0  0  0  0  0  0  0
  141.0550   70.1980  219.4670 H   0  0  0  0  0  0  0  0  0  0  0  0
  142.4270   70.8171  221.1718 H   0  0  0  0  0  0  0  0  0  0  0  0
  144.0504   70.5756  220.5879 H   0  0  0  0  0  0  0  0  0  0  0  0
  143.7129   72.8932  221.7260 H   0  0  0  0  0  0  0  0  0  0  0  0
  144.0396   73.1746  218.8708 H   0  0  0  0  0  0  0  0  0  0  0  0
  145.9029   71.5775  220.3125 H   0  0  0  0  0  0  0  0  0  0  0  0
  146.6410   72.6241  219.2569 H   0  0  0  0  0  0  0  0  0  0  0  0
  145.6401   73.1840  222.2045 H   0  0  0  0  0  0  0  0  0  0  0  0
  147.0086   73.9116  221.6434 H   0  0  0  0  0  0  0  0  0  0  0  0
  144.3699   75.0601  221.1072 H   0  0  0  0  0  0  0  0  0  0  0  0
  145.4398   75.3445  219.8773 H   0  0  0  0  0  0  0  0  0  0  0  0
  138.9384   69.3188  222.4708 H   0  0  0  0  0  0  0  0  0  0  0  0
  138.7271   67.9469  224.5272 H   0  0  0  0  0  0  0  0  0  0  0  0
  139.1354   67.7324  226.9512 H   0  0  0  0  0  0  0  0  0  0  0  0
  141.0566   70.9092  229.0632 H   0  0  0  0  0  0  0  0  0  0  0  0
  141.2187   72.2090  226.9443 H   0  0  0  0  0  0  0  0  0  0  0  0
  1  2  2  0
  2  3  1  0
  3  4  1  0
  4  5  1  0
  5  6  2  0
  5  7  1  0
  7  8  1  0
  8  9  1  0
  9 10  1  0
  9 11  1  0
 11 12  1  0
 12 13  1  0
 13 14  1  0
 14 15  1  0
 15 16  1  0
  2 17  1  0
 17 18  2  0
 18 19  1  0
 19 20  2  0
 20 21  1  0
 21 22  2  0
 22 23  1  0
 22 24  1  0
 24 25  2  0
 25 26  1  0
 26 27  2  0
 12  7  1  0
 16 13  1  0
 27 17  1  0
 26 20  1  0
  3 28  1  0
  4 29  1  0
  4 30  1  0
  8 31  1  0
  8 32  1  0
  9 33  1  6
 10 34  1  0
 11 35  1  0
 11 36  1  0
 12 37  1  1
 13 38  1  0
 14 39  1  0
 14 40  1  0
 15 41  1  0
 15 42  1  0
 16 43  1  0
 16 44  1  0
 18 45  1  0
 19 46  1  0
 21 47  1  0
 24 48  1  0
 25 49  1  0
M  END
>  <smiles>  (44) 
O=C(NCC(=O)N1C[C@H](O)C[C@H]1C1CCC1)c1ccc2cc(F)ccc2n1

>  <score_type>  (44) 
oracle

>  <origin>  (44) 
autodockgpu

>  <m_score__min__energy>  (44) 
-7.7699999999999996

>  <m_primary>  (44) 
energy

>  <rmsd>  (44) 
3.2243145543998737

>  <m_score__min__rmsd>  (44) 
3.2243145543998737

>  <meeko>  (44) 
{"free_energy": -6.84, "intermolecular_energy": -8.63, "internal_energy": -2.37, "cluster_size": 23, "cluster_id": 3, "rank_in_cluster": 15}

>  <energy>  (44) 
-7.41

>  <cluster_rmsd>  (44) 
0.16

>  <cluster>  (44) 
4

$$$$

     RDKit          3D

 49 52  0  0  0  0  0  0  0  0999 V2000
  141.3780   71.9050  221.2910 O   0  0  0  0  0  0  0  0  0  0  0  0
  140.5680   72.3120  222.1720 C   0  0  0  0  0  0  0  0  0  0  0  0
  139.8850   73.5600  222.0450 N   0  0  0  0  0  0  0  0  0  0  0  0
  140.1460   74.3570  220.8680 C   0  0  0  0  0  0  0  0  0  0  0  0
  141.1660   75.4000  221.1120 C   0  0  0  0  0  0  0  0  0  0  0  0
  141.0980   76.0300  222.1960 O   0  0  0  0  0  0  0  0  0  0  0  0
  142.1560   75.6290  220.1190 N   0  0  0  0  0  0  0  0  0  0  0  0
  142.7470   76.8870  219.7470 C   0  0  0  0  0  0  0  0  0  0  0  0
  143.2480   76.7350  218.3400 C   0  0  2  0  0  0  0  0  0  0  0  0
  142.7890   77.7610  217.5100 O   0  0  0  0  0  0  0  0  0  0  0  0
  142.7610   75.3920  217.9320 C   0  0  0  0  0  0  0  0  0  0  0  0
  142.8030   74.6420  219.2390 C   0  0  1  0  0  0  0  0  0  0  0  0
  144.1750   74.4030  219.7540 C   0  0  0  0  0  0  0  0  0  0  0  0
  145.0130   73.3930  219.0130 C   0  0  0  0  0  0  0  0  0  0  0  0
  144.2970   72.3190  219.8080 C   0  0  0  0  0  0  0  0  0  0  0  0
  144.1560   73.3990  220.8910 C   0  0  0  0  0  0  0  0  0  0  0  0
  140.2990   71.5130  223.3640 C   0  0  0  0  0  0  0  0  0  0  0  0
  139.5700   70.3330  223.2640 C   0  0  0  0  0  0  0  0  0  0  0  0
  139.2980   69.5520  224.3800 C   0  0  0  0  0  0  0  0  0  0  0  0
  139.7620   69.9540  225.6230 C   0  0  0  0  0  0  0  0  0  0  0  0
  139.5360   69.2400  226.7740 C   0  0  0  0  0  0  0  0  0  0  0  0
  140.0020   69.6520  228.0030 C   0  0  0  0  0  0  0  0  0  0  0  0
  139.7740   68.9410  229.1280 F   0  0  0  0  0  0  0  0  0  0  0  0
  140.7210   70.8290  228.0560 C   0  0  0  0  0  0  0  0  0  0  0  0
  140.9630   71.5730  226.8960 C   0  0  0  0  0  0  0  0  0  0  0  0
  140.4810   71.1330  225.6730 C   0  0  0  0  0  0  0  0  0  0  0  0
  140.7440   71.8880  224.5960 N   0  0  0  0  0  0  0  0  0  0  0  0
  139.2200   73.8550  222.8080 H   0  0  0  0  0  0  0  0  0  0  0  0
  140.5016   73.6954  220.0643 H   0  0  0  0  0  0  0  0  0  0  0  0
  139.2092   74.8610  220.5880 H   0  0  0  0  0  0  0  0  0  0  0  0
  141.9943   77.6876  219.7960 H   0  0  0  0  0  0  0  0  0  0  0  0
  143.5670   77.1538  220.4300 H   0  0  0  0  0  0  0  0  0  0  0  0
  144.3428   76.8106  218.2642 H   0  0  0  0  0  0  0  0  0  0  0  0
  143.5490   78.3890  217.4300 H   0  0  0  0  0  0  0  0  0  0  0  0
  141.7380   75.4412  217.5306 H   0  0  0  0  0  0  0  0  0  0  0  0
  143.3535   74.9265  217.1307 H   0  0  0  0  0  0  0  0  0  0  0  0
  142.3498   73.6427  219.1620 H   0  0  0  0  0  0  0  0  0  0  0  0
  144.5140   75.4464  219.8333 H   0  0  0  0  0  0  0  0  0  0  0  0
  144.8355   73.3564  217.9280 H   0  0  0  0  0  0  0  0  0  0  0  0
  146.1107   73.4590  218.9856 H   0  0  0  0  0  0  0  0  0  0  0  0
  143.3503   71.9672  219.3721 H   0  0  0  0  0  0  0  0  0  0  0  0
  144.7327   71.3281  220.0036 H   0  0  0  0  0  0  0  0  0  0  0  0
  143.2163   73.3630  221.4616 H   0  0  0  0  0  0  0  0  0  0  0  0
  144.8426   73.4668  221.7478 H   0  0  0  0  0  0  0  0  0  0  0  0
  139.2006   70.0109  222.2792 H   0  0  0  0  0  0  0  0  0  0  0  0
  138.7192   68.6221  224.2784 H   0  0  0  0  0  0  0  0  0  0  0  0
  138.9614   68.3041  226.7122 H   0  0  0  0  0  0  0  0  0  0  0  0
  141.1083   71.1863  229.0216 H   0  0  0  0  0  0  0  0  0  0  0  0
  141.5372   72.5094  226.9546 H   0  0  0  0  0  0  0  0  0  0  0  0
  1  2  2  0
  2  3  1  0
  3  4  1  0
  4  5  1  0
  5  6  2  0
  5  7  1  0
  7  8  1  0
  8  9  1  0
  9 10  1  0
  9 11  1  0
 11 12  1  0
 12 13  1  0
 13 14  1  0
 14 15  1  0
 15 16  1  0
  2 17  1  0
 17 18  2  0
 18 19  1  0
 19 20  2  0
 20 21  1  0
 21 22  2  0
 22 23  1  0
 22 24  1  0
 24 25  2  0
 25 26  1  0
 26 27  2  0
 12  7  1  0
 16 13  1  0
 27 17  1  0
 26 20  1  0
  3 28  1  0
  4 29  1  0
  4 30  1  0
  8 31  1  0
  8 32  1  0
  9 33  1  1
 10 34  1  0
 11 35  1  0
 11 36  1  0
 12 37  1  6
 13 38  1  0
 14 39  1  0
 14 40  1  0
 15 41  1  0
 15 42  1  0
 16 43  1  0
 16 44  1  0
 18 45  1  0
 19 46  1  0
 21 47  1  0
 24 48  1  0
 25 49  1  0
M  END
>  <smiles>  (45) 
O=C(NCC(=O)N1C[C@H](O)C[C@H]1C1CCC1)c1ccc2cc(F)ccc2n1

>  <score_type>  (45) 
oracle

>  <origin>  (45) 
autodockgpu

>  <m_score__min__energy>  (45) 
-7.7699999999999996

>  <m_primary>  (45) 
energy

>  <rmsd>  (45) 
2.47285191699258

>  <m_score__min__rmsd>  (45) 
2.47285191699258

>  <meeko>  (45) 
{"free_energy": -7.42, "intermolecular_energy": -9.21, "internal_energy": -1.56, "cluster_size": 7, "cluster_id": 4, "rank_in_cluster": 2}

>  <energy>  (45) 
-7.36

>  <cluster_rmsd>  (45) 
0.18

>  <cluster>  (45) 
4

$$$$

     RDKit          3D

 49 52  0  0  0  0  0  0  0  0999 V2000
  140.0420   71.0480  221.1830 O   0  0  0  0  0  0  0  0  0  0  0  0
  139.9720   71.5790  222.3280 C   0  0  0  0  0  0  0  0  0  0  0  0
  139.9290   72.9970  222.4960 N   0  0  0  0  0  0  0  0  0  0  0  0
  139.9670   73.8200  221.3100 C   0  0  0  0  0  0  0  0  0  0  0  0
  141.3490   74.1600  220.9070 C   0  0  0  0  0  0  0  0  0  0  0  0
  141.7500   75.3240  221.1480 O   0  0  0  0  0  0  0  0  0  0  0  0
  142.1380   73.1600  220.2780 N   0  0  0  0  0  0  0  0  0  0  0  0
  141.8440   72.4500  219.0610 C   0  0  0  0  0  0  0  0  0  0  0  0
  142.6050   71.1570  219.1150 C   0  0  2  0  0  0  0  0  0  0  0  0
  141.7800   70.0570  218.8650 O   0  0  0  0  0  0  0  0  0  0  0  0
  143.1930   71.1470  220.4800 C   0  0  0  0  0  0  0  0  0  0  0  0
  143.4330   72.6150  220.7190 C   0  0  1  0  0  0  0  0  0  0  0  0
  144.4910   73.2030  219.8580 C   0  0  0  0  0  0  0  0  0  0  0  0
  145.8780   72.6300  219.9990 C   0  0  0  0  0  0  0  0  0  0  0  0
  146.0550   73.5360  221.2020 C   0  0  0  0  0  0  0  0  0  0  0  0
  145.0590   74.4610  220.4850 C   0  0  0  0  0  0  0  0  0  0  0  0
  139.9340   70.7540  223.5320 C   0  0  0  0  0  0  0  0  0  0  0  0
  139.3200   69.5060  223.5040 C   0  0  0  0  0  0  0  0  0  0  0  0
  139.2670   68.6990  224.6340 C   0  0  0  0  0  0  0  0  0  0  0  0
  139.8380   69.1440  225.8160 C   0  0  0  0  0  0  0  0  0  0  0  0
  139.8280   68.4080  226.9760 C   0  0  0  0  0  0  0  0  0  0  0  0
  140.3990   68.8620  228.1440 C   0  0  0  0  0  0  0  0  0  0  0  0
  140.3840   68.1290  229.2790 F   0  0  0  0  0  0  0  0  0  0  0  0
  140.9970   70.1060  228.1260 C   0  0  0  0  0  0  0  0  0  0  0  0
  141.0190   70.8730  226.9560 C   0  0  0  0  0  0  0  0  0  0  0  0
  140.4360   70.3890  225.7960 C   0  0  0  0  0  0  0  0  0  0  0  0
  140.4870   71.1690  224.7060 N   0  0  0  0  0  0  0  0  0  0  0  0
  139.8710   73.3910  223.4730 H   0  0  0  0  0  0  0  0  0  0  0  0
  139.4819   73.2759  220.4861 H   0  0  0  0  0  0  0  0  0  0  0  0
  139.4412   74.7596  221.5353 H   0  0  0  0  0  0  0  0  0  0  0  0
  140.7645   72.2508  218.9908 H   0  0  0  0  0  0  0  0  0  0  0  0
  142.1350   73.0414  218.1803 H   0  0  0  0  0  0  0  0  0  0  0  0
  143.3800   71.0825  218.3379 H   0  0  0  0  0  0  0  0  0  0  0  0
  140.9920   70.1860  219.4510 H   0  0  0  0  0  0  0  0  0  0  0  0
  142.4901   70.7304  221.2165 H   0  0  0  0  0  0  0  0  0  0  0  0
  144.0959   70.5256  220.5731 H   0  0  0  0  0  0  0  0  0  0  0  0
  143.7572   72.8220  221.7496 H   0  0  0  0  0  0  0  0  0  0  0  0
  143.9718   73.1551  218.8894 H   0  0  0  0  0  0  0  0  0  0  0  0
  145.9095   71.5541  220.2258 H   0  0  0  0  0  0  0  0  0  0  0  0
  146.5929   72.6304  219.1630 H   0  0  0  0  0  0  0  0  0  0  0  0
  145.7028   73.1197  222.1573 H   0  0  0  0  0  0  0  0  0  0  0  0
  147.0393   73.8753  221.5571 H   0  0  0  0  0  0  0  0  0  0  0  0
  144.3675   75.0005  221.1489 H   0  0  0  0  0  0  0  0  0  0  0  0
  145.3843   75.3229  219.8839 H   0  0  0  0  0  0  0  0  0  0  0  0
  138.8666   69.1503  222.5670 H   0  0  0  0  0  0  0  0  0  0  0  0
  138.7761   67.7155  224.5908 H   0  0  0  0  0  0  0  0  0  0  0  0
  139.3460   67.4193  226.9717 H   0  0  0  0  0  0  0  0  0  0  0  0
  141.4617   70.4990  229.0423 H   0  0  0  0  0  0  0  0  0  0  0  0
  141.5001   71.8622  226.9571 H   0  0  0  0  0  0  0  0  0  0  0  0
  1  2  2  0
  2  3  1  0
  3  4  1  0
  4  5  1  0
  5  6  2  0
  5  7  1  0
  7  8  1  0
  8  9  1  0
  9 10  1  0
  9 11  1  0
 11 12  1  0
 12 13  1  0
 13 14  1  0
 14 15  1  0
 15 16  1  0
  2 17  1  0
 17 18  2  0
 18 19  1  0
 19 20  2  0
 20 21  1  0
 21 22  2  0
 22 23  1  0
 22 24  1  0
 24 25  2  0
 25 26  1  0
 26 27  2  0
 12  7  1  0
 16 13  1  0
 27 17  1  0
 26 20  1  0
  3 28  1  0
  4 29  1  0
  4 30  1  0
  8 31  1  0
  8 32  1  0
  9 33  1  6
 10 34  1  0
 11 35  1  0
 11 36  1  0
 12 37  1  1
 13 38  1  0
 14 39  1  0
 14 40  1  0
 15 41  1  0
 15 42  1  0
 16 43  1  0
 16 44  1  0
 18 45  1  0
 19 46  1  0
 21 47  1  0
 24 48  1  0
 25 49  1  0
M  END
>  <smiles>  (46) 
O=C(NCC(=O)N1C[C@H](O)C[C@H]1C1CCC1)c1ccc2cc(F)ccc2n1

>  <score_type>  (46) 
oracle

>  <origin>  (46) 
autodockgpu

>  <m_score__min__energy>  (46) 
-7.7699999999999996

>  <m_primary>  (46) 
energy

>  <rmsd>  (46) 
3.246165139930217

>  <m_score__min__rmsd>  (46) 
3.246165139930217

>  <meeko>  (46) 
{"free_energy": -6.84, "intermolecular_energy": -8.63, "internal_energy": -2.43, "cluster_size": 23, "cluster_id": 3, "rank_in_cluster": 16}

>  <energy>  (46) 
-7.34

>  <cluster_rmsd>  (46) 
0.19

>  <cluster>  (46) 
4

$$$$

     RDKit          3D

 49 52  0  0  0  0  0  0  0  0999 V2000
  139.9560   73.7050  222.5800 O   0  0  0  0  0  0  0  0  0  0  0  0
  140.2740   72.4890  222.4510 C   0  0  0  0  0  0  0  0  0  0  0  0
  140.7480   71.9630  221.2100 N   0  0  0  0  0  0  0  0  0  0  0  0
  140.8580   72.8700  220.0910 C   0  0  0  0  0  0  0  0  0  0  0  0
  142.1420   73.6030  220.0870 C   0  0  0  0  0  0  0  0  0  0  0  0
  142.0940   74.8510  220.2160 O   0  0  0  0  0  0  0  0  0  0  0  0
  143.3460   72.8640  219.9390 N   0  0  0  0  0  0  0  0  0  0  0  0
  144.6110   73.1140  220.5810 C   0  0  0  0  0  0  0  0  0  0  0  0
  145.6700   72.4980  219.7130 C   0  0  2  0  0  0  0  0  0  0  0  0
  146.6910   73.4030  219.4170 O   0  0  0  0  0  0  0  0  0  0  0  0
  144.9240   72.0450  218.5100 C   0  0  0  0  0  0  0  0  0  0  0  0
  143.5860   71.6800  219.0990 C   0  0  1  0  0  0  0  0  0  0  0  0
  143.6220   70.4910  219.9880 C   0  0  0  0  0  0  0  0  0  0  0  0
  144.4870   69.3380  219.5470 C   0  0  0  0  0  0  0  0  0  0  0  0
  143.3370   68.9050  218.6580 C   0  0  0  0  0  0  0  0  0  0  0  0
  142.4440   69.5760  219.7120 C   0  0  0  0  0  0  0  0  0  0  0  0
  140.1660   71.5660  223.5780 C   0  0  0  0  0  0  0  0  0  0  0  0
  139.5520   70.3290  223.4120 C   0  0  0  0  0  0  0  0  0  0  0  0
  139.4350   69.4300  224.4650 C   0  0  0  0  0  0  0  0  0  0  0  0
  139.9390   69.7710  225.7100 C   0  0  0  0  0  0  0  0  0  0  0  0
  139.8630   68.9400  226.8020 C   0  0  0  0  0  0  0  0  0  0  0  0
  140.3680   69.2910  228.0340 C   0  0  0  0  0  0  0  0  0  0  0  0
  140.2870   68.4660  229.1000 F   0  0  0  0  0  0  0  0  0  0  0  0
  140.9680   70.5280  228.1540 C   0  0  0  0  0  0  0  0  0  0  0  0
  141.0570   71.3910  227.0560 C   0  0  0  0  0  0  0  0  0  0  0  0
  140.5390   71.0100  225.8280 C   0  0  0  0  0  0  0  0  0  0  0  0
  140.6530   71.8780  224.8120 N   0  0  0  0  0  0  0  0  0  0  0  0
  141.0000   70.9400  221.1540 H   0  0  0  0  0  0  0  0  0  0  0  0
  140.7775   72.2925  219.1583 H   0  0  0  0  0  0  0  0  0  0  0  0
  140.0484   73.6098  220.1766 H   0  0  0  0  0  0  0  0  0  0  0  0
  144.7806   74.1969  220.6738 H   0  0  0  0  0  0  0  0  0  0  0  0
  144.6311   72.6826  221.5927 H   0  0  0  0  0  0  0  0  0  0  0  0
  146.1959   71.6652  220.2028 H   0  0  0  0  0  0  0  0  0  0  0  0
  146.2450   74.2840  219.3470 H   0  0  0  0  0  0  0  0  0  0  0  0
  144.8291   72.8528  217.7694 H   0  0  0  0  0  0  0  0  0  0  0  0
  145.4115   71.2225  217.9660 H   0  0  0  0  0  0  0  0  0  0  0  0
  142.8424   71.4356  218.3261 H   0  0  0  0  0  0  0  0  0  0  0  0
  143.8241   70.9964  220.9439 H   0  0  0  0  0  0  0  0  0  0  0  0
  145.4001   69.6293  219.0072 H   0  0  0  0  0  0  0  0  0  0  0  0
  144.9502   68.6512  220.2707 H   0  0  0  0  0  0  0  0  0  0  0  0
  143.3151   69.3701  217.6614 H   0  0  0  0  0  0  0  0  0  0  0  0
  143.1947   67.8661  218.3256 H   0  0  0  0  0  0  0  0  0  0  0  0
  141.5515   70.0784  219.3107 H   0  0  0  0  0  0  0  0  0  0  0  0
  141.9433   69.0054  220.5081 H   0  0  0  0  0  0  0  0  0  0  0  0
  139.1501   70.0563  222.4250 H   0  0  0  0  0  0  0  0  0  0  0  0
  138.9467   68.4563  224.3117 H   0  0  0  0  0  0  0  0  0  0  0  0
  139.3808   67.9580  226.6876 H   0  0  0  0  0  0  0  0  0  0  0  0
  141.3814   70.8394  229.1247 H   0  0  0  0  0  0  0  0  0  0  0  0
  141.5389   72.3735  227.1676 H   0  0  0  0  0  0  0  0  0  0  0  0
  1  2  2  0
  2  3  1  0
  3  4  1  0
  4  5  1  0
  5  6  2  0
  5  7  1  0
  7  8  1  0
  8  9  1  0
  9 10  1  0
  9 11  1  0
 11 12  1  0
 12 13  1  0
 13 14  1  0
 14 15  1  0
 15 16  1  0
  2 17  1  0
 17 18  2  0
 18 19  1  0
 19 20  2  0
 20 21  1  0
 21 22  2  0
 22 23  1  0
 22 24  1  0
 24 25  2  0
 25 26  1  0
 26 27  2  0
 12  7  1  0
 16 13  1  0
 27 17  1  0
 26 20  1  0
  3 28  1  0
  4 29  1  0
  4 30  1  0
  8 31  1  0
  8 32  1  0
  9 33  1  1
 10 34  1  0
 11 35  1  0
 11 36  1  0
 12 37  1  6
 13 38  1  0
 14 39  1  0
 14 40  1  0
 15 41  1  0
 15 42  1  0
 16 43  1  0
 16 44  1  0
 18 45  1  0
 19 46  1  0
 21 47  1  0
 24 48  1  0
 25 49  1  0
M  END
>  <smiles>  (47) 
O=C(NCC(=O)N1C[C@H](O)C[C@H]1C1CCC1)c1ccc2cc(F)ccc2n1

>  <score_type>  (47) 
oracle

>  <origin>  (47) 
autodockgpu

>  <m_score__min__energy>  (47) 
-7.7699999999999996

>  <m_primary>  (47) 
energy

>  <rmsd>  (47) 
4.049947596575463

>  <m_score__min__rmsd>  (47) 
4.049947596575463

>  <meeko>  (47) 
{"free_energy": -7.53, "intermolecular_energy": -9.32, "internal_energy": -1.42, "cluster_size": 23, "cluster_id": 3, "rank_in_cluster": 1}

>  <energy>  (47) 
-7.09

>  <cluster_rmsd>  (47) 
1.67

>  <cluster>  (47) 
4

$$$$

     RDKit          3D

 49 52  0  0  0  0  0  0  0  0999 V2000
  140.3950   71.3360  221.1530 O   0  0  0  0  0  0  0  0  0  0  0  0
  140.0860   71.8870  222.2470 C   0  0  0  0  0  0  0  0  0  0  0  0
  139.8580   73.2940  222.3430 N   0  0  0  0  0  0  0  0  0  0  0  0
  139.9910   74.0830  221.1400 C   0  0  0  0  0  0  0  0  0  0  0  0
  141.4000   74.4210  220.8440 C   0  0  0  0  0  0  0  0  0  0  0  0
  141.7800   75.5870  221.1090 O   0  0  0  0  0  0  0  0  0  0  0  0
  142.2360   73.4190  220.2840 N   0  0  0  0  0  0  0  0  0  0  0  0
  142.0300   72.6910  219.0590 C   0  0  0  0  0  0  0  0  0  0  0  0
  142.7920   71.4040  219.1820 C   0  0  2  0  0  0  0  0  0  0  0  0
  141.9920   70.2960  218.8900 O   0  0  0  0  0  0  0  0  0  0  0  0
  143.2850   71.4150  220.5840 C   0  0  0  0  0  0  0  0  0  0  0  0
  143.5000   72.8880  220.8190 C   0  0  1  0  0  0  0  0  0  0  0  0
  144.6120   73.4710  220.0260 C   0  0  0  0  0  0  0  0  0  0  0  0
  145.9120   72.7080  220.0130 C   0  0  0  0  0  0  0  0  0  0  0  0
  146.2300   73.3660  221.3420 C   0  0  0  0  0  0  0  0  0  0  0  0
  145.3550   74.5200  220.8290 C   0  0  0  0  0  0  0  0  0  0  0  0
  139.9500   71.0960  223.4680 C   0  0  0  0  0  0  0  0  0  0  0  0
  139.3220   69.8560  223.4300 C   0  0  0  0  0  0  0  0  0  0  0  0
  139.1770   69.0810  224.5740 C   0  0  0  0  0  0  0  0  0  0  0  0
  139.6690   69.5520  225.7820 C   0  0  0  0  0  0  0  0  0  0  0  0
  139.5660   68.8480  226.9570 C   0  0  0  0  0  0  0  0  0  0  0  0
  140.0590   69.3280  228.1500 C   0  0  0  0  0  0  0  0  0  0  0  0
  139.9530   68.6270  229.3000 F   0  0  0  0  0  0  0  0  0  0  0  0
  140.6750   70.5630  228.1420 C   0  0  0  0  0  0  0  0  0  0  0  0
  140.7910   71.2970  226.9560 C   0  0  0  0  0  0  0  0  0  0  0  0
  140.2850   70.7880  225.7710 C   0  0  0  0  0  0  0  0  0  0  0  0
  140.4240   71.5370  224.6660 N   0  0  0  0  0  0  0  0  0  0  0  0
  139.6030   73.7050  223.2800 H   0  0  0  0  0  0  0  0  0  0  0  0
  139.5791   73.5119  220.2949 H   0  0  0  0  0  0  0  0  0  0  0  0
  139.4437   75.0249  221.2928 H   0  0  0  0  0  0  0  0  0  0  0  0
  140.9589   72.4842  218.9177 H   0  0  0  0  0  0  0  0  0  0  0  0
  142.3778   73.2727  218.1926 H   0  0  0  0  0  0  0  0  0  0  0  0
  143.6190   71.3243  218.4611 H   0  0  0  0  0  0  0  0  0  0  0  0
  141.1190   70.4880  219.3150 H   0  0  0  0  0  0  0  0  0  0  0  0
  142.5356   71.0034  221.2761 H   0  0  0  0  0  0  0  0  0  0  0  0
  144.1826   70.8005  220.7472 H   0  0  0  0  0  0  0  0  0  0  0  0
  143.7513   73.1107  221.8665 H   0  0  0  0  0  0  0  0  0  0  0  0
  144.0734   73.6553  219.0848 H   0  0  0  0  0  0  0  0  0  0  0  0
  145.8032   71.6143  220.0563 H   0  0  0  0  0  0  0  0  0  0  0  0
  146.6053   72.7581  219.1605 H   0  0  0  0  0  0  0  0  0  0  0  0
  145.8418   72.8425  222.2282 H   0  0  0  0  0  0  0  0  0  0  0  0
  147.2569   73.5099  221.7090 H   0  0  0  0  0  0  0  0  0  0  0  0
  144.7544   75.0241  221.6004 H   0  0  0  0  0  0  0  0  0  0  0  0
  145.7823   75.4218  220.3663 H   0  0  0  0  0  0  0  0  0  0  0  0
  138.9313   69.4802  222.4728 H   0  0  0  0  0  0  0  0  0  0  0  0
  138.6765   68.1028  224.5220 H   0  0  0  0  0  0  0  0  0  0  0  0
  139.0719   67.8653  226.9446 H   0  0  0  0  0  0  0  0  0  0  0  0
  141.0794   70.9751  229.0783 H   0  0  0  0  0  0  0  0  0  0  0  0
  141.2849   72.2799  226.9647 H   0  0  0  0  0  0  0  0  0  0  0  0
  1  2  2  0
  2  3  1  0
  3  4  1  0
  4  5  1  0
  5  6  2  0
  5  7  1  0
  7  8  1  0
  8  9  1  0
  9 10  1  0
  9 11  1  0
 11 12  1  0
 12 13  1  0
 13 14  1  0
 14 15  1  0
 15 16  1  0
  2 17  1  0
 17 18  2  0
 18 19  1  0
 19 20  2  0
 20 21  1  0
 21 22  2  0
 22 23  1  0
 22 24  1  0
 24 25  2  0
 25 26  1  0
 26 27  2  0
 12  7  1  0
 16 13  1  0
 27 17  1  0
 26 20  1  0
  3 28  1  0
  4 29  1  0
  4 30  1  0
  8 31  1  0
  8 32  1  0
  9 33  1  6
 10 34  1  0
 11 35  1  0
 11 36  1  0
 12 37  1  1
 13 38  1  0
 14 39  1  0
 14 40  1  0
 15 41  1  0
 15 42  1  0
 16 43  1  0
 16 44  1  0
 18 45  1  0
 19 46  1  0
 21 47  1  0
 24 48  1  0
 25 49  1  0
M  END
>  <smiles>  (48) 
O=C(NCC(=O)N1C[C@H](O)C[C@H]1C1CCC1)c1ccc2cc(F)ccc2n1

>  <score_type>  (48) 
oracle

>  <origin>  (48) 
autodockgpu

>  <m_score__min__energy>  (48) 
-7.7699999999999996

>  <m_primary>  (48) 
energy

>  <rmsd>  (48) 
3.20478205738339

>  <m_score__min__rmsd>  (48) 
3.20478205738339

>  <meeko>  (48) 
{"free_energy": -6.94, "intermolecular_energy": -8.73, "internal_energy": -2.32, "cluster_size": 23, "cluster_id": 3, "rank_in_cluster": 7}

>  <energy>  (48) 
-6.84

>  <cluster_rmsd>  (48) 
1.56

>  <cluster>  (48) 
4

$$$$

     RDKit          3D

 49 52  0  0  0  0  0  0  0  0999 V2000
  141.1650   72.1650  221.3170 O   0  0  0  0  0  0  0  0  0  0  0  0
  140.4420   72.5000  222.2980 C   0  0  0  0  0  0  0  0  0  0  0  0
  139.7930   73.7720  222.3530 N   0  0  0  0  0  0  0  0  0  0  0  0
  139.9860   74.6780  221.2450 C   0  0  0  0  0  0  0  0  0  0  0  0
  139.6720   76.0780  221.6030 C   0  0  0  0  0  0  0  0  0  0  0  0
  138.8600   76.2640  222.5420 O   0  0  0  0  0  0  0  0  0  0  0  0
  140.2980   77.1230  220.8730 N   0  0  0  0  0  0  0  0  0  0  0  0
  139.8170   77.7670  219.6790 C   0  0  0  0  0  0  0  0  0  0  0  0
  141.0150   78.3370  218.9770 C   0  0  2  0  0  0  0  0  0  0  0  0
  141.0650   77.9500  217.6360 O   0  0  0  0  0  0  0  0  0  0  0  0
  142.1650   77.8350  219.7730 C   0  0  0  0  0  0  0  0  0  0  0  0
  141.5790   77.7890  221.1600 C   0  0  1  0  0  0  0  0  0  0  0  0
  141.2800   79.1250  221.7350 C   0  0  0  0  0  0  0  0  0  0  0  0
  142.3450   79.7470  222.6010 C   0  0  0  0  0  0  0  0  0  0  0  0
  141.8130   78.9000  223.7420 C   0  0  0  0  0  0  0  0  0  0  0  0
  140.4670   78.9940  223.0080 C   0  0  0  0  0  0  0  0  0  0  0  0
  140.2410   71.5900  223.4230 C   0  0  0  0  0  0  0  0  0  0  0  0
  139.5920   70.3760  223.2310 C   0  0  0  0  0  0  0  0  0  0  0  0
  139.3870   69.4900  224.2810 C   0  0  0  0  0  0  0  0  0  0  0  0
  139.8380   69.8200  225.5500 C   0  0  0  0  0  0  0  0  0  0  0  0
  139.6740   69.0010  226.6400 C   0  0  0  0  0  0  0  0  0  0  0  0
  140.1270   69.3420  227.8950 C   0  0  0  0  0  0  0  0  0  0  0  0
  139.9610   68.5290  228.9600 F   0  0  0  0  0  0  0  0  0  0  0  0
  140.7670   70.5570  228.0400 C   0  0  0  0  0  0  0  0  0  0  0  0
  140.9440   71.4080  226.9430 C   0  0  0  0  0  0  0  0  0  0  0  0
  140.4770   71.0370  225.6920 C   0  0  0  0  0  0  0  0  0  0  0  0
  140.6750   71.8930  224.6780 N   0  0  0  0  0  0  0  0  0  0  0  0
  139.2010   74.0040  223.1950 H   0  0  0  0  0  0  0  0  0  0  0  0
  141.0359   74.6226  220.9216 H   0  0  0  0  0  0  0  0  0  0  0  0
  139.3008   74.3750  220.4396 H   0  0  0  0  0  0  0  0  0  0  0  0
  139.3123   77.0348  219.0316 H   0  0  0  0  0  0  0  0  0  0  0  0
  139.0915   78.5569  219.9232 H   0  0  0  0  0  0  0  0  0  0  0  0
  141.0022   79.4359  218.9293 H   0  0  0  0  0  0  0  0  0  0  0  0
  141.7020   77.1920  217.6080 H   0  0  0  0  0  0  0  0  0  0  0  0
  142.4795   76.8358  219.4372 H   0  0  0  0  0  0  0  0  0  0  0  0
  143.0698   78.4551  219.6907 H   0  0  0  0  0  0  0  0  0  0  0  0
  142.2574   77.3141  221.8840 H   0  0  0  0  0  0  0  0  0  0  0  0
  140.9485   79.6363  220.8192 H   0  0  0  0  0  0  0  0  0  0  0  0
  143.3767   79.5144  222.2986 H   0  0  0  0  0  0  0  0  0  0  0  0
  142.4551   80.8378  222.6910 H   0  0  0  0  0  0  0  0  0  0  0  0
  142.2385   77.8880  223.8116 H   0  0  0  0  0  0  0  0  0  0  0  0
  141.9390   79.1727  224.8002 H   0  0  0  0  0  0  0  0  0  0  0  0
  139.8428   78.0903  223.0679 H   0  0  0  0  0  0  0  0  0  0  0  0
  139.6931   79.7233  223.2894 H   0  0  0  0  0  0  0  0  0  0  0  0
  139.2329   70.1111  222.2256 H   0  0  0  0  0  0  0  0  0  0  0  0
  138.8710   68.5342  224.1072 H   0  0  0  0  0  0  0  0  0  0  0  0
  139.1618   68.0368  226.5057 H   0  0  0  0  0  0  0  0  0  0  0  0
  141.1420   70.8595  229.0289 H   0  0  0  0  0  0  0  0  0  0  0  0
  141.4549   72.3733  227.0740 H   0  0  0  0  0  0  0  0  0  0  0  0
  1  2  2  0
  2  3  1  0
  3  4  1  0
  4  5  1  0
  5  6  2  0
  5  7  1  0
  7  8  1  0
  8  9  1  0
  9 10  1  0
  9 11  1  0
 11 12  1  0
 12 13  1  0
 13 14  1  0
 14 15  1  0
 15 16  1  0
  2 17  1  0
 17 18  2  0
 18 19  1  0
 19 20  2  0
 20 21  1  0
 21 22  2  0
 22 23  1  0
 22 24  1  0
 24 25  2  0
 25 26  1  0
 26 27  2  0
 12  7  1  0
 16 13  1  0
 27 17  1  0
 26 20  1  0
  3 28  1  0
  4 29  1  0
  4 30  1  0
  8 31  1  0
  8 32  1  0
  9 33  1  6
 10 34  1  0
 11 35  1  0
 11 36  1  0
 12 37  1  1
 13 38  1  0
 14 39  1  0
 14 40  1  0
 15 41  1  0
 15 42  1  0
 16 43  1  0
 16 44  1  0
 18 45  1  0
 19 46  1  0
 21 47  1  0
 24 48  1  0
 25 49  1  0
M  END
>  <smiles>  (49) 
O=C(NCC(=O)N1C[C@H](O)C[C@H]1C1CCC1)c1ccc2cc(F)ccc2n1

>  <score_type>  (49) 
oracle

>  <origin>  (49) 
autodockgpu

>  <m_score__min__energy>  (49) 
-7.7699999999999996

>  <m_primary>  (49) 
energy

>  <rmsd>  (49) 
1.9830891683724237

>  <m_score__min__rmsd>  (49) 
1.9830891683724237

>  <meeko>  (49) 
{"free_energy": -7.38, "intermolecular_energy": -9.17, "internal_energy": -1.53, "cluster_size": 13, "cluster_id": 1, "rank_in_cluster": 11}

>  <energy>  (49) 
-5.74

>  <cluster_rmsd>  (49) 
0.0

>  <cluster>  (49) 
5

$$$$

     RDKit          3D

 49 52  0  0  0  0  0  0  0  0999 V2000
  140.4580   73.6390  222.3210 O   0  0  0  0  0  0  0  0  0  0  0  0
  140.3540   72.3850  222.2040 C   0  0  0  0  0  0  0  0  0  0  0  0
  140.4170   71.7400  220.9300 N   0  0  0  0  0  0  0  0  0  0  0  0
  140.6050   72.5700  219.7630 C   0  0  0  0  0  0  0  0  0  0  0  0
  141.8220   72.2030  219.0050 C   0  0  0  0  0  0  0  0  0  0  0  0
  141.7170   71.2850  218.1570 O   0  0  0  0  0  0  0  0  0  0  0  0
  143.0280   72.9030  219.2760 N   0  0  0  0  0  0  0  0  0  0  0  0
  144.3190   72.6860  218.6790 C   0  0  0  0  0  0  0  0  0  0  0  0
  145.3420   73.2040  219.6480 C   0  0  2  0  0  0  0  0  0  0  0  0
  146.3340   72.2560  219.9130 O   0  0  0  0  0  0  0  0  0  0  0  0
  144.5430   73.5640  220.8480 C   0  0  0  0  0  0  0  0  0  0  0  0
  143.2430   74.0050  220.2280 C   0  0  1  0  0  0  0  0  0  0  0  0
  143.3410   75.2660  219.4500 C   0  0  0  0  0  0  0  0  0  0  0  0
  142.6170   76.4660  220.0050 C   0  0  0  0  0  0  0  0  0  0  0  0
  141.3580   75.9170  219.3620 C   0  0  0  0  0  0  0  0  0  0  0  0
  142.3150   75.2930  218.3340 C   0  0  0  0  0  0  0  0  0  0  0  0
  140.1630   71.5390  223.3800 C   0  0  0  0  0  0  0  0  0  0  0  0
  139.4740   70.3360  223.2700 C   0  0  0  0  0  0  0  0  0  0  0  0
  139.2770   69.5110  224.3700 C   0  0  0  0  0  0  0  0  0  0  0  0
  139.7760   69.8920  225.6060 C   0  0  0  0  0  0  0  0  0  0  0  0
  139.6240   69.1340  226.7420 C   0  0  0  0  0  0  0  0  0  0  0  0
  140.1250   69.5250  227.9630 C   0  0  0  0  0  0  0  0  0  0  0  0
  139.9690   68.7720  229.0730 F   0  0  0  0  0  0  0  0  0  0  0  0
  140.8020   70.7270  228.0260 C   0  0  0  0  0  0  0  0  0  0  0  0
  140.9690   71.5150  226.8820 C   0  0  0  0  0  0  0  0  0  0  0  0
  140.4530   71.0950  225.6660 C   0  0  0  0  0  0  0  0  0  0  0  0
  140.6440   71.8920  224.6040 N   0  0  0  0  0  0  0  0  0  0  0  0
  140.3240   70.6900  220.8870 H   0  0  0  0  0  0  0  0  0  0  0  0
  139.7308   72.4586  219.1047 H   0  0  0  0  0  0  0  0  0  0  0  0
  140.7204   73.6096  220.1035 H   0  0  0  0  0  0  0  0  0  0  0  0
  144.4772   71.6122  218.5004 H   0  0  0  0  0  0  0  0  0  0  0  0
  144.3966   73.2035  217.7114 H   0  0  0  0  0  0  0  0  0  0  0  0
  145.9041   74.0662  219.2598 H   0  0  0  0  0  0  0  0  0  0  0  0
  146.1020   71.8800  220.7990 H   0  0  0  0  0  0  0  0  0  0  0  0
  144.3983   72.6964  221.5085 H   0  0  0  0  0  0  0  0  0  0  0  0
  145.0144   74.3257  221.4864 H   0  0  0  0  0  0  0  0  0  0  0  0
  142.4652   74.1959  220.9820 H   0  0  0  0  0  0  0  0  0  0  0  0
  144.4317   75.2975  219.3108 H   0  0  0  0  0  0  0  0  0  0  0  0
  142.5870   76.5167  221.1034 H   0  0  0  0  0  0  0  0  0  0  0  0
  142.9650   77.4920  219.8146 H   0  0  0  0  0  0  0  0  0  0  0  0
  140.7951   75.1973  219.9746 H   0  0  0  0  0  0  0  0  0  0  0  0
  140.5043   76.5503  219.0790 H   0  0  0  0  0  0  0  0  0  0  0  0
  142.0118   74.3041  217.9596 H   0  0  0  0  0  0  0  0  0  0  0  0
  142.5179   75.7607  217.3593 H   0  0  0  0  0  0  0  0  0  0  0  0
  139.0764   70.0312  222.2907 H   0  0  0  0  0  0  0  0  0  0  0  0
  138.7295   68.5631  224.2613 H   0  0  0  0  0  0  0  0  0  0  0  0
  139.0818   68.1794  226.6731 H   0  0  0  0  0  0  0  0  0  0  0  0
  141.2147   71.0688  228.9866 H   0  0  0  0  0  0  0  0  0  0  0  0
  141.5110   72.4700  226.9477 H   0  0  0  0  0  0  0  0  0  0  0  0
  1  2  2  0
  2  3  1  0
  3  4  1  0
  4  5  1  0
  5  6  2  0
  5  7  1  0
  7  8  1  0
  8  9  1  0
  9 10  1  0
  9 11  1  0
 11 12  1  0
 12 13  1  0
 13 14  1  0
 14 15  1  0
 15 16  1  0
  2 17  1  0
 17 18  2  0
 18 19  1  0
 19 20  2  0
 20 21  1  0
 21 22  2  0
 22 23  1  0
 22 24  1  0
 24 25  2  0
 25 26  1  0
 26 27  2  0
 12  7  1  0
 16 13  1  0
 27 17  1  0
 26 20  1  0
  3 28  1  0
  4 29  1  0
  4 30  1  0
  8 31  1  0
  8 32  1  0
  9 33  1  6
 10 34  1  0
 11 35  1  0
 11 36  1  0
 12 37  1  1
 13 38  1  0
 14 39  1  0
 14 40  1  0
 15 41  1  0
 15 42  1  0
 16 43  1  0
 16 44  1  0
 18 45  1  0
 19 46  1  0
 21 47  1  0
 24 48  1  0
 25 49  1  0
M  END
>  <smiles>  (50) 
O=C(NCC(=O)N1C[C@H](O)C[C@H]1C1CCC1)c1ccc2cc(F)ccc2n1

>  <score_type>  (50) 
oracle

>  <origin>  (50) 
autodockgpu

>  <m_score__min__energy>  (50) 
-7.7699999999999996

>  <m_primary>  (50) 
energy

>  <rmsd>  (50) 
3.5656381568839177

>  <m_score__min__rmsd>  (50) 
3.5656381568839177

>  <meeko>  (50) 
{"free_energy": -7.52, "intermolecular_energy": -9.31, "internal_energy": -1.41, "cluster_size": 23, "cluster_id": 3, "rank_in_cluster": 4}

>  <energy>  (50) 
-5.69

>  <cluster_rmsd>  (50) 
0.14

>  <cluster>  (50) 
5

$$$$
