
     RDKit          3D

 42 44  0  0  0  0  0  0  0  0999 V2000
  137.6950   72.4240  221.7480 O   0  0  0  0  0  0  0  0  0  0  0  0
  138.5740   71.5320  221.7130 C   0  0  0  0  0  0  0  0  0  0  0  0
  139.2230   71.2470  220.4880 N   0  0  0  0  0  0  0  0  0  0  0  0
  138.8860   71.9740  219.2700 C   0  0  0  0  0  0  0  0  0  0  0  0
  139.8220   73.1050  219.0370 C   0  0  0  0  0  0  0  0  0  0  0  0
  140.8490   73.0030  218.3010 O   0  0  0  0  0  0  0  0  0  0  0  0
  139.5740   74.3370  219.6490 N   0  0  0  0  0  0  0  0  0  0  0  0
  138.4520   75.2210  219.4030 C   0  0  0  0  0  0  0  0  0  0  0  0
  138.9350   76.6220  219.7460 C   0  0  0  0  0  0  0  0  0  0  0  0
  140.3930   76.4140  220.1300 C   0  0  2  0  0  0  0  0  0  0  0  0
  141.1360   76.3710  218.9490 F   0  0  0  0  0  0  0  0  0  0  0  0
  140.3750   75.0180  220.6670 C   0  0  1  0  0  0  0  0  0  0  0  0
  139.6160   74.8860  221.9630 C   0  0  0  0  0  0  0  0  0  0  0  0
  139.9350   73.7540  222.6950 O   0  0  0  0  0  0  0  0  0  0  0  0
  138.9430   70.7760  222.9250 C   0  0  0  0  0  0  0  0  0  0  0  0
  138.5620   69.4540  223.0290 C   0  0  0  0  0  0  0  0  0  0  0  0
  138.8630   68.6660  224.1270 C   0  0  0  0  0  0  0  0  0  0  0  0
  139.5870   69.2950  225.1400 C   0  0  0  0  0  0  0  0  0  0  0  0
  139.9510   68.6250  226.2850 C   0  0  0  0  0  0  0  0  0  0  0  0
  140.6550   69.1740  227.3130 C   0  0  0  0  0  0  0  0  0  0  0  0
  141.0720   68.2500  228.7260 Cl  0  0  0  0  0  0  0  0  0  0  0  0
  141.0340   70.4960  227.2060 C   0  0  0  0  0  0  0  0  0  0  0  0
  140.6800   71.2010  226.0560 C   0  0  0  0  0  0  0  0  0  0  0  0
  139.9650   70.6170  225.0310 C   0  0  0  0  0  0  0  0  0  0  0  0
  139.6460   71.3540  223.9300 N   0  0  0  0  0  0  0  0  0  0  0  0
  139.9660   70.4890  220.4710 H   0  0  0  0  0  0  0  0  0  0  0  0
  138.9387   71.2839  218.4151 H   0  0  0  0  0  0  0  0  0  0  0  0
  137.8705   72.3821  219.3801 H   0  0  0  0  0  0  0  0  0  0  0  0
  138.1499   75.1694  218.3465 H   0  0  0  0  0  0  0  0  0  0  0  0
  137.5778   74.9382  220.0078 H   0  0  0  0  0  0  0  0  0  0  0  0
  138.8494   77.2907  218.8768 H   0  0  0  0  0  0  0  0  0  0  0  0
  138.3454   77.0934  220.5461 H   0  0  0  0  0  0  0  0  0  0  0  0
  140.7967   77.1770  220.8118 H   0  0  0  0  0  0  0  0  0  0  0  0
  141.3922   74.6455  220.8580 H   0  0  0  0  0  0  0  0  0  0  0  0
  139.8332   75.7693  222.5815 H   0  0  0  0  0  0  0  0  0  0  0  0
  138.5515   74.8021  221.6988 H   0  0  0  0  0  0  0  0  0  0  0  0
  139.1700   73.3000  223.0910 H   0  0  0  0  0  0  0  0  0  0  0  0
  137.9929   69.0054  222.2015 H   0  0  0  0  0  0  0  0  0  0  0  0
  138.5517   67.6132  224.1960 H   0  0  0  0  0  0  0  0  0  0  0  0
  139.6519   67.5704  226.3766 H   0  0  0  0  0  0  0  0  0  0  0  0
  141.6035   70.9839  228.0108 H   0  0  0  0  0  0  0  0  0  0  0  0
  140.9801   72.2552  225.9634 H   0  0  0  0  0  0  0  0  0  0  0  0
  1  2  2  0
  2  3  1  0
  3  4  1  0
  4  5  1  0
  5  6  2  0
  5  7  1  0
  7  8  1  0
  8  9  1  0
  9 10  1  0
 10 11  1  0
 10 12  1  0
 12 13  1  0
 13 14  1  0
  2 15  1  0
 15 16  2  0
 16 17  1  0
 17 18  2  0
 18 19  1  0
 19 20  2  0
 20 21  1  0
 20 22  1  0
 22 23  2  0
 23 24  1  0
 24 25  2  0
 12  7  1  0
 25 15  1  0
 24 18  1  0
  3 26  1  0
  4 27  1  0
  4 28  1  0
  8 29  1  0
  8 30  1  0
  9 31  1  0
  9 32  1  0
 10 33  1  1
 12 34  1  1
 13 35  1  0
 13 36  1  0
 14 37  1  0
 16 38  1  0
 17 39  1  0
 19 40  1  0
 22 41  1  0
 23 42  1  0
M  END
>  <smiles>  (1) 
O=C(NCC(=O)N1CC[C@H](F)[C@H]1CO)c1ccc2cc(Cl)ccc2n1

>  <score_type>  (1) 
oracle

>  <origin>  (1) 
autodockgpu

>  <m_score__min__energy>  (1) 
-6.8200000000000003

>  <m_primary>  (1) 
energy

>  <rmsd>  (1) 
2.2098523244413824

>  <m_score__min__rmsd>  (1) 
2.2098523244413824

>  <meeko>  (1) 
{"free_energy": -5.03, "intermolecular_energy": -6.82, "internal_energy": -2.38, "cluster_size": 11, "cluster_id": 4, "rank_in_cluster": 11}

>  <energy>  (1) 
-6.82

>  <cluster_rmsd>  (1) 
0.0

>  <cluster>  (1) 
1

$$$$

     RDKit          3D

 42 44  0  0  0  0  0  0  0  0999 V2000
  139.8710   72.2870  220.3150 O   0  0  0  0  0  0  0  0  0  0  0  0
  140.4340   72.5960  221.3910 C   0  0  0  0  0  0  0  0  0  0  0  0
  141.3360   73.6870  221.4120 N   0  0  0  0  0  0  0  0  0  0  0  0
  141.6160   74.4550  220.2050 C   0  0  0  0  0  0  0  0  0  0  0  0
  143.0500   74.3600  219.8240 C   0  0  0  0  0  0  0  0  0  0  0  0
  143.8270   75.3610  219.8260 O   0  0  0  0  0  0  0  0  0  0  0  0
  143.5770   73.1230  219.4430 N   0  0  0  0  0  0  0  0  0  0  0  0
  143.4650   72.4910  218.1430 C   0  0  0  0  0  0  0  0  0  0  0  0
  143.5740   70.9940  218.3910 C   0  0  0  0  0  0  0  0  0  0  0  0
  143.6930   70.8890  219.9050 C   0  0  2  0  0  0  0  0  0  0  0  0
  142.4030   70.9530  220.4320 F   0  0  0  0  0  0  0  0  0  0  0  0
  144.3550   72.1840  220.2530 C   0  0  1  0  0  0  0  0  0  0  0  0
  145.7780   72.2790  219.7630 C   0  0  0  0  0  0  0  0  0  0  0  0
  146.0290   73.3790  218.9590 O   0  0  0  0  0  0  0  0  0  0  0  0
  140.1760   71.8420  222.6330 C   0  0  0  0  0  0  0  0  0  0  0  0
  139.3660   70.7270  222.5810 C   0  0  0  0  0  0  0  0  0  0  0  0
  139.0670   69.9590  223.6930 C   0  0  0  0  0  0  0  0  0  0  0  0
  139.6430   70.3830  224.8910 C   0  0  0  0  0  0  0  0  0  0  0  0
  139.4260   69.7080  226.0700 C   0  0  0  0  0  0  0  0  0  0  0  0
  139.9540   70.0650  227.2740 C   0  0  0  0  0  0  0  0  0  0  0  0
  139.6270   69.1520  228.7180 Cl  0  0  0  0  0  0  0  0  0  0  0  0
  140.7630   71.1810  227.3220 C   0  0  0  0  0  0  0  0  0  0  0  0
  141.0010   71.8850  226.1420 C   0  0  0  0  0  0  0  0  0  0  0  0
  140.4520   71.4990  224.9370 C   0  0  0  0  0  0  0  0  0  0  0  0
  140.7170   72.2250  223.8140 N   0  0  0  0  0  0  0  0  0  0  0  0
  141.8070   73.9390  222.3290 H   0  0  0  0  0  0  0  0  0  0  0  0
  140.9999   74.0650  219.3813 H   0  0  0  0  0  0  0  0  0  0  0  0
  141.3788   75.5108  220.4028 H   0  0  0  0  0  0  0  0  0  0  0  0
  142.4951   72.7322  217.6835 H   0  0  0  0  0  0  0  0  0  0  0  0
  144.2490   72.8427  217.4562 H   0  0  0  0  0  0  0  0  0  0  0  0
  142.6766   70.4699  218.0304 H   0  0  0  0  0  0  0  0  0  0  0  0
  144.4224   70.5342  217.8630 H   0  0  0  0  0  0  0  0  0  0  0  0
  144.2095   69.9847  220.2591 H   0  0  0  0  0  0  0  0  0  0  0  0
  144.3849   72.3422  221.3412 H   0  0  0  0  0  0  0  0  0  0  0  0
  146.4416   72.3330  220.6386 H   0  0  0  0  0  0  0  0  0  0  0  0
  145.9600   71.3874  219.1450 H   0  0  0  0  0  0  0  0  0  0  0  0
  145.5560   74.1880  219.2220 H   0  0  0  0  0  0  0  0  0  0  0  0
  138.9378   70.4345  221.6109 H   0  0  0  0  0  0  0  0  0  0  0  0
  138.4180   69.0727  223.6360 H   0  0  0  0  0  0  0  0  0  0  0  0
  138.7809   68.8176  226.0383 H   0  0  0  0  0  0  0  0  0  0  0  0
  141.2112   71.5090  228.2715 H   0  0  0  0  0  0  0  0  0  0  0  0
  141.6463   72.7753  226.1732 H   0  0  0  0  0  0  0  0  0  0  0  0
  1  2  2  0
  2  3  1  0
  3  4  1  0
  4  5  1  0
  5  6  2  0
  5  7  1  0
  7  8  1  0
  8  9  1  0
  9 10  1  0
 10 11  1  0
 10 12  1  0
 12 13  1  0
 13 14  1  0
  2 15  1  0
 15 16  2  0
 16 17  1  0
 17 18  2  0
 18 19  1  0
 19 20  2  0
 20 21  1  0
 20 22  1  0
 22 23  2  0
 23 24  1  0
 24 25  2  0
 12  7  1  0
 25 15  1  0
 24 18  1  0
  3 26  1  0
  4 27  1  0
  4 28  1  0
  8 29  1  0
  8 30  1  0
  9 31  1  0
  9 32  1  0
 10 33  1  6
 12 34  1  1
 13 35  1  0
 13 36  1  0
 14 37  1  0
 16 38  1  0
 17 39  1  0
 19 40  1  0
 22 41  1  0
 23 42  1  0
M  END
>  <smiles>  (2) 
O=C(NCC(=O)N1CC[C@H](F)[C@H]1CO)c1ccc2cc(Cl)ccc2n1

>  <score_type>  (2) 
oracle

>  <origin>  (2) 
autodockgpu

>  <m_score__min__energy>  (2) 
-6.8200000000000003

>  <m_primary>  (2) 
energy

>  <rmsd>  (2) 
4.045071694131288

>  <m_score__min__rmsd>  (2) 
4.045071694131288

>  <meeko>  (2) 
{"free_energy": -5.76, "intermolecular_energy": -7.55, "internal_energy": -2.17, "cluster_size": 3, "cluster_id": 5, "rank_in_cluster": 2}

>  <energy>  (2) 
-6.53

>  <cluster_rmsd>  (2) 
1.19

>  <cluster>  (2) 
1

$$$$

     RDKit          3D

 42 44  0  0  0  0  0  0  0  0999 V2000
  136.7110   71.1660  221.3040 O   0  0  0  0  0  0  0  0  0  0  0  0
  137.4150   71.7270  222.1760 C   0  0  0  0  0  0  0  0  0  0  0  0
  137.6570   73.1180  222.0800 N   0  0  0  0  0  0  0  0  0  0  0  0
  137.1020   73.9050  220.9850 C   0  0  0  0  0  0  0  0  0  0  0  0
  137.9190   73.7680  219.7500 C   0  0  0  0  0  0  0  0  0  0  0  0
  137.4310   73.3880  218.6450 O   0  0  0  0  0  0  0  0  0  0  0  0
  139.2840   74.0660  219.7960 N   0  0  0  0  0  0  0  0  0  0  0  0
  139.9230   75.2940  219.3640 C   0  0  0  0  0  0  0  0  0  0  0  0
  141.3470   74.9180  218.9880 C   0  0  0  0  0  0  0  0  0  0  0  0
  141.3890   73.4110  219.1980 C   0  0  2  0  0  0  0  0  0  0  0  0
  140.8540   72.8140  218.0560 F   0  0  0  0  0  0  0  0  0  0  0  0
  140.3770   73.2230  220.2840 C   0  0  1  0  0  0  0  0  0  0  0  0
  140.8050   73.8060  221.6060 C   0  0  0  0  0  0  0  0  0  0  0  0
  140.3970   73.0730  222.7090 O   0  0  0  0  0  0  0  0  0  0  0  0
  137.9940   70.9640  223.2990 C   0  0  0  0  0  0  0  0  0  0  0  0
  137.5750   69.6680  223.5110 C   0  0  0  0  0  0  0  0  0  0  0  0
  138.0610   68.8760  224.5380 C   0  0  0  0  0  0  0  0  0  0  0  0
  139.0160   69.4750  225.3600 C   0  0  0  0  0  0  0  0  0  0  0  0
  139.5800   68.7970  226.4160 C   0  0  0  0  0  0  0  0  0  0  0  0
  140.5150   69.3180  227.2580 C   0  0  0  0  0  0  0  0  0  0  0  0
  141.1760   68.3880  228.5710 Cl  0  0  0  0  0  0  0  0  0  0  0  0
  140.9320   70.6150  227.0430 C   0  0  0  0  0  0  0  0  0  0  0  0
  140.3780   71.3260  225.9790 C   0  0  0  0  0  0  0  0  0  0  0  0
  139.4310   70.7720  225.1430 C   0  0  0  0  0  0  0  0  0  0  0  0
  138.9230   71.5130  224.1180 N   0  0  0  0  0  0  0  0  0  0  0  0
  138.2550   73.5830  222.8240 H   0  0  0  0  0  0  0  0  0  0  0  0
  136.0789   73.5582  220.7776 H   0  0  0  0  0  0  0  0  0  0  0  0
  137.1021   74.9634  221.2846 H   0  0  0  0  0  0  0  0  0  0  0  0
  139.3963   75.7129  218.4939 H   0  0  0  0  0  0  0  0  0  0  0  0
  139.9045   76.0571  220.1561 H   0  0  0  0  0  0  0  0  0  0  0  0
  141.5564   75.1740  217.9389 H   0  0  0  0  0  0  0  0  0  0  0  0
  142.1010   75.4529  219.5842 H   0  0  0  0  0  0  0  0  0  0  0  0
  142.3906   73.0089  219.4104 H   0  0  0  0  0  0  0  0  0  0  0  0
  140.1677   72.1578  220.4619 H   0  0  0  0  0  0  0  0  0  0  0  0
  141.9034   73.8645  221.6178 H   0  0  0  0  0  0  0  0  0  0  0  0
  140.3247   74.7923  221.6868 H   0  0  0  0  0  0  0  0  0  0  0  0
  139.5600   73.3710  223.1060 H   0  0  0  0  0  0  0  0  0  0  0  0
  136.8198   69.2433  222.8333 H   0  0  0  0  0  0  0  0  0  0  0  0
  137.7169   67.8431  224.6952 H   0  0  0  0  0  0  0  0  0  0  0  0
  139.2528   67.7617  226.5925 H   0  0  0  0  0  0  0  0  0  0  0  0
  141.6854   71.0786  227.6968 H   0  0  0  0  0  0  0  0  0  0  0  0
  140.7064   72.3606  225.8009 H   0  0  0  0  0  0  0  0  0  0  0  0
  1  2  2  0
  2  3  1  0
  3  4  1  0
  4  5  1  0
  5  6  2  0
  5  7  1  0
  7  8  1  0
  8  9  1  0
  9 10  1  0
 10 11  1  0
 10 12  1  0
 12 13  1  0
 13 14  1  0
  2 15  1  0
 15 16  2  0
 16 17  1  0
 17 18  2  0
 18 19  1  0
 19 20  2  0
 20 21  1  0
 20 22  1  0
 22 23  2  0
 23 24  1  0
 24 25  2  0
 12  7  1  0
 25 15  1  0
 24 18  1  0
  3 26  1  0
  4 27  1  0
  4 28  1  0
  8 29  1  0
  8 30  1  0
  9 31  1  0
  9 32  1  0
 10 33  1  1
 12 34  1  1
 13 35  1  0
 13 36  1  0
 14 37  1  0
 16 38  1  0
 17 39  1  0
 19 40  1  0
 22 41  1  0
 23 42  1  0
M  END
>  <smiles>  (3) 
O=C(NCC(=O)N1CC[C@H](F)[C@H]1CO)c1ccc2cc(Cl)ccc2n1

>  <score_type>  (3) 
oracle

>  <origin>  (3) 
autodockgpu

>  <m_score__min__energy>  (3) 
-6.8200000000000003

>  <m_primary>  (3) 
energy

>  <rmsd>  (3) 
2.397474708883648

>  <m_score__min__rmsd>  (3) 
2.397474708883648

>  <meeko>  (3) 
{"free_energy": -5.22, "intermolecular_energy": -7.01, "internal_energy": -2.55, "cluster_size": 4, "cluster_id": 6, "rank_in_cluster": 2}

>  <energy>  (3) 
-6.46

>  <cluster_rmsd>  (3) 
1.67

>  <cluster>  (3) 
1

$$$$

     RDKit          3D

 42 44  0  0  0  0  0  0  0  0999 V2000
  139.7070   72.4770  220.3420 O   0  0  0  0  0  0  0  0  0  0  0  0
  140.3180   72.7380  221.4050 C   0  0  0  0  0  0  0  0  0  0  0  0
  141.2250   73.8240  221.4340 N   0  0  0  0  0  0  0  0  0  0  0  0
  141.4570   74.6430  220.2490 C   0  0  0  0  0  0  0  0  0  0  0  0
  142.8000   74.3830  219.6660 C   0  0  0  0  0  0  0  0  0  0  0  0
  143.6670   75.2930  219.5090 O   0  0  0  0  0  0  0  0  0  0  0  0
  143.1330   73.0850  219.2670 N   0  0  0  0  0  0  0  0  0  0  0  0
  142.5090   72.3100  218.2130 C   0  0  0  0  0  0  0  0  0  0  0  0
  142.7150   70.8500  218.5850 C   0  0  0  0  0  0  0  0  0  0  0  0
  143.4340   70.9180  219.9250 C   0  0  2  0  0  0  0  0  0  0  0  0
  142.4650   71.1070  220.9110 F   0  0  0  0  0  0  0  0  0  0  0  0
  144.1750   72.2120  219.8110 C   0  0  1  0  0  0  0  0  0  0  0  0
  145.2800   72.1800  218.7850 C   0  0  0  0  0  0  0  0  0  0  0  0
  145.9580   73.3790  218.6440 O   0  0  0  0  0  0  0  0  0  0  0  0
  140.1100   71.9330  222.6230 C   0  0  0  0  0  0  0  0  0  0  0  0
  139.2900   70.8260  222.5600 C   0  0  0  0  0  0  0  0  0  0  0  0
  139.0350   70.0110  223.6500 C   0  0  0  0  0  0  0  0  0  0  0  0
  139.6670   70.3800  224.8380 C   0  0  0  0  0  0  0  0  0  0  0  0
  139.4990   69.6560  225.9950 C   0  0  0  0  0  0  0  0  0  0  0  0
  140.0820   69.9560  227.1880 C   0  0  0  0  0  0  0  0  0  0  0  0
  139.8130   68.9830  228.6050 Cl  0  0  0  0  0  0  0  0  0  0  0  0
  140.9020   71.0640  227.2490 C   0  0  0  0  0  0  0  0  0  0  0  0
  141.0920   71.8170  226.0900 C   0  0  0  0  0  0  0  0  0  0  0  0
  140.4860   71.4880  224.8960 C   0  0  0  0  0  0  0  0  0  0  0  0
  140.7070   72.2610  223.7950 N   0  0  0  0  0  0  0  0  0  0  0  0
  141.7370   74.0350  222.3390 H   0  0  0  0  0  0  0  0  0  0  0  0
  140.6889   74.4103  219.4968 H   0  0  0  0  0  0  0  0  0  0  0  0
  141.4058   75.7016  220.5435 H   0  0  0  0  0  0  0  0  0  0  0  0
  141.4352   72.5411  218.1538 H   0  0  0  0  0  0  0  0  0  0  0  0
  142.9479   72.5404  217.2310 H   0  0  0  0  0  0  0  0  0  0  0  0
  141.7505   70.3302  218.6831 H   0  0  0  0  0  0  0  0  0  0  0  0
  143.2812   70.2918  217.8248 H   0  0  0  0  0  0  0  0  0  0  0  0
  144.0522   70.0377  220.1551 H   0  0  0  0  0  0  0  0  0  0  0  0
  144.6398   72.4963  220.7666 H   0  0  0  0  0  0  0  0  0  0  0  0
  146.0041   71.4070  219.0818 H   0  0  0  0  0  0  0  0  0  0  0  0
  144.8053   71.9692  217.8154 H   0  0  0  0  0  0  0  0  0  0  0  0
  145.4200   74.1720  218.8180 H   0  0  0  0  0  0  0  0  0  0  0  0
  138.8162   70.5788  221.5985 H   0  0  0  0  0  0  0  0  0  0  0  0
  138.3780   69.1313  223.5838 H   0  0  0  0  0  0  0  0  0  0  0  0
  138.8468   68.7711  225.9535 H   0  0  0  0  0  0  0  0  0  0  0  0
  141.3950   71.3474  228.1906 H   0  0  0  0  0  0  0  0  0  0  0  0
  141.7457   72.7008  226.1300 H   0  0  0  0  0  0  0  0  0  0  0  0
  1  2  2  0
  2  3  1  0
  3  4  1  0
  4  5  1  0
  5  6  2  0
  5  7  1  0
  7  8  1  0
  8  9  1  0
  9 10  1  0
 10 11  1  0
 10 12  1  0
 12 13  1  0
 13 14  1  0
  2 15  1  0
 15 16  2  0
 16 17  1  0
 17 18  2  0
 18 19  1  0
 19 20  2  0
 20 21  1  0
 20 22  1  0
 22 23  2  0
 23 24  1  0
 24 25  2  0
 12  7  1  0
 25 15  1  0
 24 18  1  0
  3 26  1  0
  4 27  1  0
  4 28  1  0
  8 29  1  0
  8 30  1  0
  9 31  1  0
  9 32  1  0
 10 33  1  1
 12 34  1  1
 13 35  1  0
 13 36  1  0
 14 37  1  0
 16 38  1  0
 17 39  1  0
 19 40  1  0
 22 41  1  0
 23 42  1  0
M  END
>  <smiles>  (4) 
O=C(NCC(=O)N1CC[C@H](F)[C@H]1CO)c1ccc2cc(Cl)ccc2n1

>  <score_type>  (4) 
oracle

>  <origin>  (4) 
autodockgpu

>  <m_score__min__energy>  (4) 
-6.8200000000000003

>  <m_primary>  (4) 
energy

>  <rmsd>  (4) 
3.848163549695225

>  <m_score__min__rmsd>  (4) 
3.848163549695225

>  <meeko>  (4) 
{"free_energy": -5.57, "intermolecular_energy": -7.36, "internal_energy": -2.27, "cluster_size": 3, "cluster_id": 5, "rank_in_cluster": 3}

>  <energy>  (4) 
-6.18

>  <cluster_rmsd>  (4) 
1.84

>  <cluster>  (4) 
1

$$$$

     RDKit          3D

 42 44  0  0  0  0  0  0  0  0999 V2000
  137.3310   71.1160  221.2260 O   0  0  0  0  0  0  0  0  0  0  0  0
  137.8800   71.6630  222.2110 C   0  0  0  0  0  0  0  0  0  0  0  0
  138.0140   73.0720  222.2360 N   0  0  0  0  0  0  0  0  0  0  0  0
  137.5220   73.8940  221.1370 C   0  0  0  0  0  0  0  0  0  0  0  0
  138.3990   75.0730  220.9080 C   0  0  0  0  0  0  0  0  0  0  0  0
  137.9460   76.2500  220.7840 O   0  0  0  0  0  0  0  0  0  0  0  0
  139.7820   74.8910  220.8230 N   0  0  0  0  0  0  0  0  0  0  0  0
  140.8120   75.8160  221.2550 C   0  0  0  0  0  0  0  0  0  0  0  0
  142.0320   75.5200  220.3970 C   0  0  0  0  0  0  0  0  0  0  0  0
  141.5520   74.4250  219.4560 C   0  0  2  0  0  0  0  0  0  0  0  0
  140.8740   75.0430  218.4040 F   0  0  0  0  0  0  0  0  0  0  0  0
  140.5110   73.7410  220.2830 C   0  0  1  0  0  0  0  0  0  0  0  0
  141.0790   73.0050  221.4700 C   0  0  0  0  0  0  0  0  0  0  0  0
  140.5100   73.3580  222.6830 O   0  0  0  0  0  0  0  0  0  0  0  0
  138.3890   70.8640  223.3420 C   0  0  0  0  0  0  0  0  0  0  0  0
  138.0350   69.5340  223.4340 C   0  0  0  0  0  0  0  0  0  0  0  0
  138.4650   68.7080  224.4580 C   0  0  0  0  0  0  0  0  0  0  0  0
  139.2910   69.3070  225.4090 C   0  0  0  0  0  0  0  0  0  0  0  0
  139.7860   68.5960  226.4780 C   0  0  0  0  0  0  0  0  0  0  0  0
  140.5960   69.1150  227.4430 C   0  0  0  0  0  0  0  0  0  0  0  0
  141.1780   68.1420  228.7630 Cl  0  0  0  0  0  0  0  0  0  0  0  0
  140.9480   70.4450  227.3490 C   0  0  0  0  0  0  0  0  0  0  0  0
  140.4600   71.1890  226.2750 C   0  0  0  0  0  0  0  0  0  0  0  0
  139.6410   70.6370  225.3130 C   0  0  0  0  0  0  0  0  0  0  0  0
  139.1940   71.4120  224.2850 N   0  0  0  0  0  0  0  0  0  0  0  0
  138.4810   73.5230  223.0750 H   0  0  0  0  0  0  0  0  0  0  0  0
  137.4925   73.2863  220.2206 H   0  0  0  0  0  0  0  0  0  0  0  0
  136.5163   74.2554  221.3976 H   0  0  0  0  0  0  0  0  0  0  0  0
  140.4811   76.8540  221.1028 H   0  0  0  0  0  0  0  0  0  0  0  0
  141.0353   75.6971  222.3255 H   0  0  0  0  0  0  0  0  0  0  0  0
  142.3422   76.4129  219.8344 H   0  0  0  0  0  0  0  0  0  0  0  0
  142.9083   75.2194  220.9901 H   0  0  0  0  0  0  0  0  0  0  0  0
  142.3512   73.7748  219.0705 H   0  0  0  0  0  0  0  0  0  0  0  0
  139.9480   73.0027  219.6931 H   0  0  0  0  0  0  0  0  0  0  0  0
  140.9210   71.9274  221.3155 H   0  0  0  0  0  0  0  0  0  0  0  0
  142.1435   73.2756  221.5297 H   0  0  0  0  0  0  0  0  0  0  0  0
  140.1530   72.6100  223.1950 H   0  0  0  0  0  0  0  0  0  0  0  0
  137.3808   69.1103  222.6578 H   0  0  0  0  0  0  0  0  0  0  0  0
  138.1744   67.6488  224.5179 H   0  0  0  0  0  0  0  0  0  0  0  0
  139.5085   67.5347  226.5592 H   0  0  0  0  0  0  0  0  0  0  0  0
  141.5993   70.9089  228.1044 H   0  0  0  0  0  0  0  0  0  0  0  0
  140.7375   72.2503  226.1928 H   0  0  0  0  0  0  0  0  0  0  0  0
  1  2  2  0
  2  3  1  0
  3  4  1  0
  4  5  1  0
  5  6  2  0
  5  7  1  0
  7  8  1  0
  8  9  1  0
  9 10  1  0
 10 11  1  0
 10 12  1  0
 12 13  1  0
 13 14  1  0
  2 15  1  0
 15 16  2  0
 16 17  1  0
 17 18  2  0
 18 19  1  0
 19 20  2  0
 20 21  1  0
 20 22  1  0
 22 23  2  0
 23 24  1  0
 24 25  2  0
 12  7  1  0
 25 15  1  0
 24 18  1  0
  3 26  1  0
  4 27  1  0
  4 28  1  0
  8 29  1  0
  8 30  1  0
  9 31  1  0
  9 32  1  0
 10 33  1  6
 12 34  1  6
 13 35  1  0
 13 36  1  0
 14 37  1  0
 16 38  1  0
 17 39  1  0
 19 40  1  0
 22 41  1  0
 23 42  1  0
M  END
>  <smiles>  (5) 
O=C(NCC(=O)N1CC[C@H](F)[C@H]1CO)c1ccc2cc(Cl)ccc2n1

>  <score_type>  (5) 
oracle

>  <origin>  (5) 
autodockgpu

>  <m_score__min__energy>  (5) 
-6.8200000000000003

>  <m_primary>  (5) 
energy

>  <rmsd>  (5) 
2.56208300031031

>  <m_score__min__rmsd>  (5) 
2.56208300031031

>  <meeko>  (5) 
{"free_energy": -5.65, "intermolecular_energy": -7.44, "internal_energy": -2.7, "cluster_size": 11, "cluster_id": 4, "rank_in_cluster": 4}

>  <energy>  (5) 
-6.09

>  <cluster_rmsd>  (5) 
0.92

>  <cluster>  (5) 
1

$$$$

     RDKit          3D

 42 44  0  0  0  0  0  0  0  0999 V2000
  140.4100   72.5440  220.8140 O   0  0  0  0  0  0  0  0  0  0  0  0
  140.0350   72.8710  221.9640 C   0  0  0  0  0  0  0  0  0  0  0  0
  139.5780   74.1900  222.1950 N   0  0  0  0  0  0  0  0  0  0  0  0
  139.5360   75.1720  221.1180 C   0  0  0  0  0  0  0  0  0  0  0  0
  140.6970   76.0990  221.1840 C   0  0  0  0  0  0  0  0  0  0  0  0
  140.8340   76.9610  222.1020 O   0  0  0  0  0  0  0  0  0  0  0  0
  141.6870   76.0270  220.1990 N   0  0  0  0  0  0  0  0  0  0  0  0
  142.5850   77.0890  219.7880 C   0  0  0  0  0  0  0  0  0  0  0  0
  142.9630   76.7860  218.3460 C   0  0  0  0  0  0  0  0  0  0  0  0
  142.1600   75.5350  218.0200 C   0  0  2  0  0  0  0  0  0  0  0  0
  140.8720   75.9420  217.6710 F   0  0  0  0  0  0  0  0  0  0  0  0
  142.0470   74.8830  219.3610 C   0  0  1  0  0  0  0  0  0  0  0  0
  143.3620   74.3670  219.8880 C   0  0  0  0  0  0  0  0  0  0  0  0
  143.2400   73.3630  220.8340 O   0  0  0  0  0  0  0  0  0  0  0  0
  140.0620   71.9050  223.0800 C   0  0  0  0  0  0  0  0  0  0  0  0
  139.5760   70.6320  222.8730 C   0  0  0  0  0  0  0  0  0  0  0  0
  139.5610   69.6590  223.8580 C   0  0  0  0  0  0  0  0  0  0  0  0
  140.0740   70.0480  225.0960 C   0  0  0  0  0  0  0  0  0  0  0  0
  140.1170   69.1780  226.1600 C   0  0  0  0  0  0  0  0  0  0  0  0
  140.6040   69.4880  227.3940 C   0  0  0  0  0  0  0  0  0  0  0  0
  140.6200   68.3230  228.6850 Cl  0  0  0  0  0  0  0  0  0  0  0  0
  141.0890   70.7630  227.5980 C   0  0  0  0  0  0  0  0  0  0  0  0
  141.0580   71.6670  226.5360 C   0  0  0  0  0  0  0  0  0  0  0  0
  140.5590   71.3230  225.2980 C   0  0  0  0  0  0  0  0  0  0  0  0
  140.5530   72.2480  224.2950 N   0  0  0  0  0  0  0  0  0  0  0  0
  139.2630   74.4560  223.1730 H   0  0  0  0  0  0  0  0  0  0  0  0
  139.5529   74.6453  220.1524 H   0  0  0  0  0  0  0  0  0  0  0  0
  138.6143   75.7630  221.2239 H   0  0  0  0  0  0  0  0  0  0  0  0
  142.0792   78.0636  219.8535 H   0  0  0  0  0  0  0  0  0  0  0  0
  143.4733   77.1376  220.4350 H   0  0  0  0  0  0  0  0  0  0  0  0
  142.6810   77.6174  217.6832 H   0  0  0  0  0  0  0  0  0  0  0  0
  144.0454   76.6466  218.2085 H   0  0  0  0  0  0  0  0  0  0  0  0
  142.5946   74.9099  217.2260 H   0  0  0  0  0  0  0  0  0  0  0  0
  141.3593   74.0248  219.3360 H   0  0  0  0  0  0  0  0  0  0  0  0
  143.9428   73.9738  219.0406 H   0  0  0  0  0  0  0  0  0  0  0  0
  143.8563   75.2133  220.3874 H   0  0  0  0  0  0  0  0  0  0  0  0
  142.3860   72.8960  220.8200 H   0  0  0  0  0  0  0  0  0  0  0  0
  139.1814   70.3770  221.8784 H   0  0  0  0  0  0  0  0  0  0  0  0
  139.1707   68.6467  223.6767 H   0  0  0  0  0  0  0  0  0  0  0  0
  139.7309   68.1599  226.0038 H   0  0  0  0  0  0  0  0  0  0  0  0
  141.4917   71.0607  228.5774 H   0  0  0  0  0  0  0  0  0  0  0  0
  141.4435   72.6855  226.6913 H   0  0  0  0  0  0  0  0  0  0  0  0
  1  2  2  0
  2  3  1  0
  3  4  1  0
  4  5  1  0
  5  6  2  0
  5  7  1  0
  7  8  1  0
  8  9  1  0
  9 10  1  0
 10 11  1  0
 10 12  1  0
 12 13  1  0
 13 14  1  0
  2 15  1  0
 15 16  2  0
 16 17  1  0
 17 18  2  0
 18 19  1  0
 19 20  2  0
 20 21  1  0
 20 22  1  0
 22 23  2  0
 23 24  1  0
 24 25  2  0
 12  7  1  0
 25 15  1  0
 24 18  1  0
  3 26  1  0
  4 27  1  0
  4 28  1  0
  8 29  1  0
  8 30  1  0
  9 31  1  0
  9 32  1  0
 10 33  1  6
 12 34  1  6
 13 35  1  0
 13 36  1  0
 14 37  1  0
 16 38  1  0
 17 39  1  0
 19 40  1  0
 22 41  1  0
 23 42  1  0
M  END
>  <smiles>  (6) 
O=C(NCC(=O)N1CC[C@H](F)[C@H]1CO)c1ccc2cc(Cl)ccc2n1

>  <score_type>  (6) 
oracle

>  <origin>  (6) 
autodockgpu

>  <m_score__min__energy>  (6) 
-6.8200000000000003

>  <m_primary>  (6) 
energy

>  <rmsd>  (6) 
2.5638016914582424

>  <m_score__min__rmsd>  (6) 
2.5638016914582424

>  <meeko>  (6) 
{"free_energy": -5.97, "intermolecular_energy": -7.76, "internal_energy": -1.95, "cluster_size": 11, "cluster_id": 4, "rank_in_cluster": 1}

>  <energy>  (6) 
-6.02

>  <cluster_rmsd>  (6) 
1.15

>  <cluster>  (6) 
1

$$$$

     RDKit          3D

 42 44  0  0  0  0  0  0  0  0999 V2000
  136.7690   71.1160  221.4370 O   0  0  0  0  0  0  0  0  0  0  0  0
  137.4090   71.7040  222.3400 C   0  0  0  0  0  0  0  0  0  0  0  0
  137.5570   73.1100  222.2810 N   0  0  0  0  0  0  0  0  0  0  0  0
  136.9770   73.8820  221.1880 C   0  0  0  0  0  0  0  0  0  0  0  0
  138.0180   74.6520  220.4570 C   0  0  0  0  0  0  0  0  0  0  0  0
  137.9500   74.8850  219.2140 O   0  0  0  0  0  0  0  0  0  0  0  0
  139.1230   75.1440  221.1570 N   0  0  0  0  0  0  0  0  0  0  0  0
  139.1030   75.9820  222.3400 C   0  0  0  0  0  0  0  0  0  0  0  0
  140.4070   76.7650  222.3240 C   0  0  0  0  0  0  0  0  0  0  0  0
  141.0760   76.3230  221.0300 C   0  0  2  0  0  0  0  0  0  0  0  0
  140.5260   77.0790  219.9940 F   0  0  0  0  0  0  0  0  0  0  0  0
  140.5430   74.9350  220.8660 C   0  0  1  0  0  0  0  0  0  0  0  0
  141.0520   73.9730  221.9090 C   0  0  0  0  0  0  0  0  0  0  0  0
  140.1000   73.0770  222.3680 O   0  0  0  0  0  0  0  0  0  0  0  0
  138.0100   70.9560  223.4620 C   0  0  0  0  0  0  0  0  0  0  0  0
  137.5700   69.6750  223.7220 C   0  0  0  0  0  0  0  0  0  0  0  0
  138.0740   68.8990  224.7520 C   0  0  0  0  0  0  0  0  0  0  0  0
  139.0710   69.4960  225.5240 C   0  0  0  0  0  0  0  0  0  0  0  0
  139.6560   68.8320  226.5770 C   0  0  0  0  0  0  0  0  0  0  0  0
  140.6320   69.3520  227.3720 C   0  0  0  0  0  0  0  0  0  0  0  0
  141.3170   68.4400  228.6860 Cl  0  0  0  0  0  0  0  0  0  0  0  0
  141.0700   70.6330  227.1090 C   0  0  0  0  0  0  0  0  0  0  0  0
  140.4950   71.3290  226.0470 C   0  0  0  0  0  0  0  0  0  0  0  0
  139.5070   70.7770  225.2590 C   0  0  0  0  0  0  0  0  0  0  0  0
  138.9800   71.5040  224.2330 N   0  0  0  0  0  0  0  0  0  0  0  0
  138.1010   73.5970  223.0510 H   0  0  0  0  0  0  0  0  0  0  0  0
  136.4821   73.1940  220.4868 H   0  0  0  0  0  0  0  0  0  0  0  0
  136.2533   74.5936  221.6121 H   0  0  0  0  0  0  0  0  0  0  0  0
  138.2446   76.6691  222.3067 H   0  0  0  0  0  0  0  0  0  0  0  0
  139.0059   75.3814  223.2565 H   0  0  0  0  0  0  0  0  0  0  0  0
  140.2144   77.8480  222.3162 H   0  0  0  0  0  0  0  0  0  0  0  0
  141.0287   76.5769  223.2118 H   0  0  0  0  0  0  0  0  0  0  0  0
  142.1725   76.4113  221.0318 H   0  0  0  0  0  0  0  0  0  0  0  0
  140.8127   74.5118  219.8871 H   0  0  0  0  0  0  0  0  0  0  0  0
  141.8835   73.3997  221.4731 H   0  0  0  0  0  0  0  0  0  0  0  0
  141.3594   74.5785  222.7744 H   0  0  0  0  0  0  0  0  0  0  0  0
  139.6830   73.3270  223.2120 H   0  0  0  0  0  0  0  0  0  0  0  0
  136.7827   69.2504  223.0818 H   0  0  0  0  0  0  0  0  0  0  0  0
  137.7122   67.8790  224.9486 H   0  0  0  0  0  0  0  0  0  0  0  0
  139.3116   67.8097  226.7920 H   0  0  0  0  0  0  0  0  0  0  0  0
  141.8561   71.0955  227.7240 H   0  0  0  0  0  0  0  0  0  0  0  0
  140.8402   72.3508  225.8306 H   0  0  0  0  0  0  0  0  0  0  0  0
  1  2  2  0
  2  3  1  0
  3  4  1  0
  4  5  1  0
  5  6  2  0
  5  7  1  0
  7  8  1  0
  8  9  1  0
  9 10  1  0
 10 11  1  0
 10 12  1  0
 12 13  1  0
 13 14  1  0
  2 15  1  0
 15 16  2  0
 16 17  1  0
 17 18  2  0
 18 19  1  0
 19 20  2  0
 20 21  1  0
 20 22  1  0
 22 23  2  0
 23 24  1  0
 24 25  2  0
 12  7  1  0
 25 15  1  0
 24 18  1  0
  3 26  1  0
  4 27  1  0
  4 28  1  0
  8 29  1  0
  8 30  1  0
  9 31  1  0
  9 32  1  0
 10 33  1  1
 12 34  1  6
 13 35  1  0
 13 36  1  0
 14 37  1  0
 16 38  1  0
 17 39  1  0
 19 40  1  0
 22 41  1  0
 23 42  1  0
M  END
>  <smiles>  (7) 
O=C(NCC(=O)N1CC[C@H](F)[C@H]1CO)c1ccc2cc(Cl)ccc2n1

>  <score_type>  (7) 
oracle

>  <origin>  (7) 
autodockgpu

>  <m_score__min__energy>  (7) 
-6.8200000000000003

>  <m_primary>  (7) 
energy

>  <rmsd>  (7) 
2.7233187408065387

>  <m_score__min__rmsd>  (7) 
2.7233187408065387

>  <meeko>  (7) 
{"free_energy": -5.82, "intermolecular_energy": -7.61, "internal_energy": -2.58, "cluster_size": 21, "cluster_id": 1, "rank_in_cluster": 13}

>  <energy>  (7) 
-6.01

>  <cluster_rmsd>  (7) 
1.31

>  <cluster>  (7) 
1

$$$$

     RDKit          3D

 42 44  0  0  0  0  0  0  0  0999 V2000
  140.9530   72.7720  221.1930 O   0  0  0  0  0  0  0  0  0  0  0  0
  140.1030   72.8230  222.1120 C   0  0  0  0  0  0  0  0  0  0  0  0
  139.1250   73.8460  222.0950 N   0  0  0  0  0  0  0  0  0  0  0  0
  139.0920   74.8370  221.0260 C   0  0  0  0  0  0  0  0  0  0  0  0
  140.2370   75.7800  221.1250 C   0  0  0  0  0  0  0  0  0  0  0  0
  140.3320   76.6490  222.0420 O   0  0  0  0  0  0  0  0  0  0  0  0
  141.2600   75.7170  220.1740 N   0  0  0  0  0  0  0  0  0  0  0  0
  142.6100   75.2320  220.3770 C   0  0  0  0  0  0  0  0  0  0  0  0
  143.4750   75.9470  219.3500 C   0  0  0  0  0  0  0  0  0  0  0  0
  142.4970   76.8740  218.6410 C   0  0  2  0  0  0  0  0  0  0  0  0
  142.3600   78.0190  219.4270 F   0  0  0  0  0  0  0  0  0  0  0  0
  141.2110   76.1200  218.7670 C   0  0  1  0  0  0  0  0  0  0  0  0
  141.1840   74.8460  217.9620 C   0  0  0  0  0  0  0  0  0  0  0  0
  140.3980   73.8450  218.5090 O   0  0  0  0  0  0  0  0  0  0  0  0
  140.1040   71.8380  223.2110 C   0  0  0  0  0  0  0  0  0  0  0  0
  139.6000   70.5760  222.9760 C   0  0  0  0  0  0  0  0  0  0  0  0
  139.5610   69.5870  223.9450 C   0  0  0  0  0  0  0  0  0  0  0  0
  140.0690   69.9460  225.1930 C   0  0  0  0  0  0  0  0  0  0  0  0
  140.0890   69.0560  226.2420 C   0  0  0  0  0  0  0  0  0  0  0  0
  140.5680   69.3370  227.4860 C   0  0  0  0  0  0  0  0  0  0  0  0
  140.5540   68.1490  228.7570 Cl  0  0  0  0  0  0  0  0  0  0  0  0
  141.0720   70.6000  227.7170 C   0  0  0  0  0  0  0  0  0  0  0  0
  141.0650   71.5230  226.6710 C   0  0  0  0  0  0  0  0  0  0  0  0
  140.5720   71.2090  225.4220 C   0  0  0  0  0  0  0  0  0  0  0  0
  140.5900   72.1510  224.4370 N   0  0  0  0  0  0  0  0  0  0  0  0
  138.4100   73.8800  222.8790 H   0  0  0  0  0  0  0  0  0  0  0  0
  139.1375   74.3193  220.0565 H   0  0  0  0  0  0  0  0  0  0  0  0
  138.1597   75.4137  221.1172 H   0  0  0  0  0  0  0  0  0  0  0  0
  142.9517   75.4694  221.3953 H   0  0  0  0  0  0  0  0  0  0  0  0
  142.6663   74.1398  220.2587 H   0  0  0  0  0  0  0  0  0  0  0  0
  144.2744   76.5211  219.8413 H   0  0  0  0  0  0  0  0  0  0  0  0
  143.9825   75.2545  218.6623 H   0  0  0  0  0  0  0  0  0  0  0  0
  142.7878   77.1435  217.6149 H   0  0  0  0  0  0  0  0  0  0  0  0
  140.3545   76.7233  218.4318 H   0  0  0  0  0  0  0  0  0  0  0  0
  140.7966   75.0797  216.9594 H   0  0  0  0  0  0  0  0  0  0  0  0
  142.2149   74.4629  217.9421 H   0  0  0  0  0  0  0  0  0  0  0  0
  140.7420   73.4680  219.3380 H   0  0  0  0  0  0  0  0  0  0  0  0
  139.2113   70.3442  221.9734 H   0  0  0  0  0  0  0  0  0  0  0  0
  139.1560   68.5844  223.7433 H   0  0  0  0  0  0  0  0  0  0  0  0
  139.6902   68.0465  226.0637 H   0  0  0  0  0  0  0  0  0  0  0  0
  141.4710   70.8736  228.7049 H   0  0  0  0  0  0  0  0  0  0  0  0
  141.4650   72.5323  226.8480 H   0  0  0  0  0  0  0  0  0  0  0  0
  1  2  2  0
  2  3  1  0
  3  4  1  0
  4  5  1  0
  5  6  2  0
  5  7  1  0
  7  8  1  0
  8  9  1  0
  9 10  1  0
 10 11  1  0
 10 12  1  0
 12 13  1  0
 13 14  1  0
  2 15  1  0
 15 16  2  0
 16 17  1  0
 17 18  2  0
 18 19  1  0
 19 20  2  0
 20 21  1  0
 20 22  1  0
 22 23  2  0
 23 24  1  0
 24 25  2  0
 12  7  1  0
 25 15  1  0
 24 18  1  0
  3 26  1  0
  4 27  1  0
  4 28  1  0
  8 29  1  0
  8 30  1  0
  9 31  1  0
  9 32  1  0
 10 33  1  6
 12 34  1  1
 13 35  1  0
 13 36  1  0
 14 37  1  0
 16 38  1  0
 17 39  1  0
 19 40  1  0
 22 41  1  0
 23 42  1  0
M  END
>  <smiles>  (8) 
O=C(NCC(=O)N1CC[C@H](F)[C@H]1CO)c1ccc2cc(Cl)ccc2n1

>  <score_type>  (8) 
oracle

>  <origin>  (8) 
autodockgpu

>  <m_score__min__energy>  (8) 
-6.8200000000000003

>  <m_primary>  (8) 
energy

>  <rmsd>  (8) 
2.2687696863620586

>  <m_score__min__rmsd>  (8) 
2.2687696863620586

>  <meeko>  (8) 
{"free_energy": -5.67, "intermolecular_energy": -7.46, "internal_energy": -1.87, "cluster_size": 21, "cluster_id": 1, "rank_in_cluster": 21}

>  <energy>  (8) 
-6.01

>  <cluster_rmsd>  (8) 
0.95

>  <cluster>  (8) 
1

$$$$

     RDKit          3D

 42 44  0  0  0  0  0  0  0  0999 V2000
  140.3010   72.3850  220.8030 O   0  0  0  0  0  0  0  0  0  0  0  0
  139.9900   72.7350  221.9660 C   0  0  0  0  0  0  0  0  0  0  0  0
  139.5910   74.0720  222.2020 N   0  0  0  0  0  0  0  0  0  0  0  0
  139.5340   75.0450  221.1170 C   0  0  0  0  0  0  0  0  0  0  0  0
  140.6280   76.0450  221.2290 C   0  0  0  0  0  0  0  0  0  0  0  0
  140.7000   76.8790  222.1800 O   0  0  0  0  0  0  0  0  0  0  0  0
  141.6250   76.0810  220.2500 N   0  0  0  0  0  0  0  0  0  0  0  0
  142.5470   77.1680  219.9840 C   0  0  0  0  0  0  0  0  0  0  0  0
  142.9330   77.0450  218.5180 C   0  0  0  0  0  0  0  0  0  0  0  0
  142.1100   75.8620  218.0280 C   0  0  2  0  0  0  0  0  0  0  0  0
  140.8330   76.3370  217.7260 F   0  0  0  0  0  0  0  0  0  0  0  0
  141.9710   75.0460  219.2740 C   0  0  1  0  0  0  0  0  0  0  0  0
  143.2710   74.4410  219.7400 C   0  0  0  0  0  0  0  0  0  0  0  0
  143.1480   73.6080  220.8390 O   0  0  0  0  0  0  0  0  0  0  0  0
  140.0350   71.7800  223.0890 C   0  0  0  0  0  0  0  0  0  0  0  0
  139.5700   70.4970  222.8930 C   0  0  0  0  0  0  0  0  0  0  0  0
  139.5730   69.5330  223.8870 C   0  0  0  0  0  0  0  0  0  0  0  0
  140.0810   69.9410  225.1210 C   0  0  0  0  0  0  0  0  0  0  0  0
  140.1400   69.0810  226.1920 C   0  0  0  0  0  0  0  0  0  0  0  0
  140.6220   69.4100  227.4230 C   0  0  0  0  0  0  0  0  0  0  0  0
  140.6590   68.2560  228.7240 Cl  0  0  0  0  0  0  0  0  0  0  0  0
  141.0860   70.6940  227.6160 C   0  0  0  0  0  0  0  0  0  0  0  0
  141.0390   71.5880  226.5460 C   0  0  0  0  0  0  0  0  0  0  0  0
  140.5440   71.2260  225.3110 C   0  0  0  0  0  0  0  0  0  0  0  0
  140.5220   72.1410  224.3010 N   0  0  0  0  0  0  0  0  0  0  0  0
  139.3300   74.3580  223.1910 H   0  0  0  0  0  0  0  0  0  0  0  0
  139.6286   74.5167  220.1568 H   0  0  0  0  0  0  0  0  0  0  0  0
  138.5721   75.5752  221.1769 H   0  0  0  0  0  0  0  0  0  0  0  0
  142.0595   78.1363  220.1704 H   0  0  0  0  0  0  0  0  0  0  0  0
  143.4301   77.1148  220.6377 H   0  0  0  0  0  0  0  0  0  0  0  0
  142.6729   77.9599  217.9655 H   0  0  0  0  0  0  0  0  0  0  0  0
  144.0139   76.9030  218.3716 H   0  0  0  0  0  0  0  0  0  0  0  0
  142.5404   75.3351  217.1636 H   0  0  0  0  0  0  0  0  0  0  0  0
  141.2670   74.2124  219.1342 H   0  0  0  0  0  0  0  0  0  0  0  0
  143.6966   73.8571  218.9106 H   0  0  0  0  0  0  0  0  0  0  0  0
  143.9161   75.2771  220.0479 H   0  0  0  0  0  0  0  0  0  0  0  0
  142.3040   73.1260  220.8890 H   0  0  0  0  0  0  0  0  0  0  0  0
  139.1786   70.2267  221.9012 H   0  0  0  0  0  0  0  0  0  0  0  0
  139.1995   68.5127  223.7152 H   0  0  0  0  0  0  0  0  0  0  0  0
  139.7721   68.0549  226.0446 H   0  0  0  0  0  0  0  0  0  0  0  0
  141.4846   71.0067  228.5924 H   0  0  0  0  0  0  0  0  0  0  0  0
  141.4084   72.6138  226.6921 H   0  0  0  0  0  0  0  0  0  0  0  0
  1  2  2  0
  2  3  1  0
  3  4  1  0
  4  5  1  0
  5  6  2  0
  5  7  1  0
  7  8  1  0
  8  9  1  0
  9 10  1  0
 10 11  1  0
 10 12  1  0
 12 13  1  0
 13 14  1  0
  2 15  1  0
 15 16  2  0
 16 17  1  0
 17 18  2  0
 18 19  1  0
 19 20  2  0
 20 21  1  0
 20 22  1  0
 22 23  2  0
 23 24  1  0
 24 25  2  0
 12  7  1  0
 25 15  1  0
 24 18  1  0
  3 26  1  0
  4 27  1  0
  4 28  1  0
  8 29  1  0
  8 30  1  0
  9 31  1  0
  9 32  1  0
 10 33  1  6
 12 34  1  6
 13 35  1  0
 13 36  1  0
 14 37  1  0
 16 38  1  0
 17 39  1  0
 19 40  1  0
 22 41  1  0
 23 42  1  0
M  END
>  <smiles>  (9) 
O=C(NCC(=O)N1CC[C@H](F)[C@H]1CO)c1ccc2cc(Cl)ccc2n1

>  <score_type>  (9) 
oracle

>  <origin>  (9) 
autodockgpu

>  <m_score__min__energy>  (9) 
-6.8200000000000003

>  <m_primary>  (9) 
energy

>  <rmsd>  (9) 
2.5185350941616385

>  <m_score__min__rmsd>  (9) 
2.5185350941616385

>  <meeko>  (9) 
{"free_energy": -5.93, "intermolecular_energy": -7.72, "internal_energy": -1.96, "cluster_size": 21, "cluster_id": 1, "rank_in_cluster": 10}

>  <energy>  (9) 
-5.98

>  <cluster_rmsd>  (9) 
1.51

>  <cluster>  (9) 
1

$$$$

     RDKit          3D

 42 44  0  0  0  0  0  0  0  0999 V2000
  139.8430   72.1090  220.7210 O   0  0  0  0  0  0  0  0  0  0  0  0
  139.7810   72.5150  221.9050 C   0  0  0  0  0  0  0  0  0  0  0  0
  139.6130   73.8990  222.1550 N   0  0  0  0  0  0  0  0  0  0  0  0
  139.5110   74.8540  221.0580 C   0  0  0  0  0  0  0  0  0  0  0  0
  139.9730   76.2050  221.4720 C   0  0  0  0  0  0  0  0  0  0  0  0
  139.8920   76.6210  222.6660 O   0  0  0  0  0  0  0  0  0  0  0  0
  140.5220   77.0640  220.5150 N   0  0  0  0  0  0  0  0  0  0  0  0
  139.9200   77.4680  219.2600 C   0  0  0  0  0  0  0  0  0  0  0  0
  141.0740   77.8070  218.3290 C   0  0  0  0  0  0  0  0  0  0  0  0
  142.3100   77.4990  219.1620 C   0  0  2  0  0  0  0  0  0  0  0  0
  142.5460   76.1270  219.0700 F   0  0  0  0  0  0  0  0  0  0  0  0
  141.8160   77.7490  220.5510 C   0  0  1  0  0  0  0  0  0  0  0  0
  141.5190   79.2010  220.8280 C   0  0  0  0  0  0  0  0  0  0  0  0
  140.5960   79.4090  221.8400 O   0  0  0  0  0  0  0  0  0  0  0  0
  139.8800   71.5790  223.0410 C   0  0  0  0  0  0  0  0  0  0  0  0
  139.4550   70.2780  222.8720 C   0  0  0  0  0  0  0  0  0  0  0  0
  139.5090   69.3290  223.8800 C   0  0  0  0  0  0  0  0  0  0  0  0
  140.0290   69.7720  225.0960 C   0  0  0  0  0  0  0  0  0  0  0  0
  140.1380   68.9300  226.1780 C   0  0  0  0  0  0  0  0  0  0  0  0
  140.6330   69.2920  227.3940 C   0  0  0  0  0  0  0  0  0  0  0  0
  140.7350   68.1600  228.7100 Cl  0  0  0  0  0  0  0  0  0  0  0  0
  141.0580   70.5940  227.5590 C   0  0  0  0  0  0  0  0  0  0  0  0
  140.9590   71.4700  226.4790 C   0  0  0  0  0  0  0  0  0  0  0  0
  140.4520   71.0740  225.2590 C   0  0  0  0  0  0  0  0  0  0  0  0
  140.3790   71.9730  224.2370 N   0  0  0  0  0  0  0  0  0  0  0  0
  139.5610   74.2310  223.1610 H   0  0  0  0  0  0  0  0  0  0  0  0
  140.1318   74.5044  220.2199 H   0  0  0  0  0  0  0  0  0  0  0  0
  138.4553   74.9255  220.7575 H   0  0  0  0  0  0  0  0  0  0  0  0
  139.3208   76.6458  218.8417 H   0  0  0  0  0  0  0  0  0  0  0  0
  139.2468   78.3273  219.3952 H   0  0  0  0  0  0  0  0  0  0  0  0
  141.0448   77.1822  217.4241 H   0  0  0  0  0  0  0  0  0  0  0  0
  141.0458   78.8484  217.9759 H   0  0  0  0  0  0  0  0  0  0  0  0
  143.2073   78.0649  218.8710 H   0  0  0  0  0  0  0  0  0  0  0  0
  142.5502   77.4278  221.3045 H   0  0  0  0  0  0  0  0  0  0  0  0
  142.4589   79.6974  221.1110 H   0  0  0  0  0  0  0  0  0  0  0  0
  141.0786   79.6144  219.9087 H   0  0  0  0  0  0  0  0  0  0  0  0
  140.2870   78.5970  222.2790 H   0  0  0  0  0  0  0  0  0  0  0  0
  139.0547   69.9800  221.8917 H   0  0  0  0  0  0  0  0  0  0  0  0
  139.1647   68.2949  223.7312 H   0  0  0  0  0  0  0  0  0  0  0  0
  139.8015   67.8903  226.0523 H   0  0  0  0  0  0  0  0  0  0  0  0
  141.4663   70.9338  228.5222 H   0  0  0  0  0  0  0  0  0  0  0  0
  141.2958   72.5097  226.6038 H   0  0  0  0  0  0  0  0  0  0  0  0
  1  2  2  0
  2  3  1  0
  3  4  1  0
  4  5  1  0
  5  6  2  0
  5  7  1  0
  7  8  1  0
  8  9  1  0
  9 10  1  0
 10 11  1  0
 10 12  1  0
 12 13  1  0
 13 14  1  0
  2 15  1  0
 15 16  2  0
 16 17  1  0
 17 18  2  0
 18 19  1  0
 19 20  2  0
 20 21  1  0
 20 22  1  0
 22 23  2  0
 23 24  1  0
 24 25  2  0
 12  7  1  0
 25 15  1  0
 24 18  1  0
  3 26  1  0
  4 27  1  0
  4 28  1  0
  8 29  1  0
  8 30  1  0
  9 31  1  0
  9 32  1  0
 10 33  1  6
 12 34  1  1
 13 35  1  0
 13 36  1  0
 14 37  1  0
 16 38  1  0
 17 39  1  0
 19 40  1  0
 22 41  1  0
 23 42  1  0
M  END
>  <smiles>  (10) 
O=C(NCC(=O)N1CC[C@H](F)[C@H]1CO)c1ccc2cc(Cl)ccc2n1

>  <score_type>  (10) 
oracle

>  <origin>  (10) 
autodockgpu

>  <m_score__min__energy>  (10) 
-6.8200000000000003

>  <m_primary>  (10) 
energy

>  <rmsd>  (10) 
1.8512638177351306

>  <m_score__min__rmsd>  (10) 
1.8512638177351306

>  <meeko>  (10) 
{"free_energy": -5.76, "intermolecular_energy": -7.55, "internal_energy": -2.06, "cluster_size": 21, "cluster_id": 1, "rank_in_cluster": 18}

>  <energy>  (10) 
-5.93

>  <cluster_rmsd>  (10) 
1.96

>  <cluster>  (10) 
1

$$$$

     RDKit          3D

 42 44  0  0  0  0  0  0  0  0999 V2000
  137.4590   71.2160  221.0270 O   0  0  0  0  0  0  0  0  0  0  0  0
  138.0140   71.7630  222.0080 C   0  0  0  0  0  0  0  0  0  0  0  0
  138.2020   73.1660  222.0050 N   0  0  0  0  0  0  0  0  0  0  0  0
  137.7600   73.9820  220.8800 C   0  0  0  0  0  0  0  0  0  0  0  0
  138.3480   75.3460  220.9360 C   0  0  0  0  0  0  0  0  0  0  0  0
  137.6470   76.3890  221.0970 O   0  0  0  0  0  0  0  0  0  0  0  0
  139.7310   75.5010  220.8060 N   0  0  0  0  0  0  0  0  0  0  0  0
  140.5380   76.5940  221.3130 C   0  0  0  0  0  0  0  0  0  0  0  0
  141.7560   76.6750  220.4060 C   0  0  0  0  0  0  0  0  0  0  0  0
  141.5010   75.5940  219.3650 C   0  0  2  0  0  0  0  0  0  0  0  0
  140.6550   76.1360  218.3960 F   0  0  0  0  0  0  0  0  0  0  0  0
  140.6810   74.6100  220.1370 C   0  0  1  0  0  0  0  0  0  0  0  0
  141.4530   73.9150  221.2300 C   0  0  0  0  0  0  0  0  0  0  0  0
  140.7010   73.6150  222.3530 O   0  0  0  0  0  0  0  0  0  0  0  0
  138.4750   70.9710  223.1650 C   0  0  0  0  0  0  0  0  0  0  0  0
  138.0390   69.6690  223.2990 C   0  0  0  0  0  0  0  0  0  0  0  0
  138.4180   68.8510  224.3490 C   0  0  0  0  0  0  0  0  0  0  0  0
  139.2810   69.4270  225.2810 C   0  0  0  0  0  0  0  0  0  0  0  0
  139.7330   68.7220  226.3720 C   0  0  0  0  0  0  0  0  0  0  0  0
  140.5740   69.2200  227.3200 C   0  0  0  0  0  0  0  0  0  0  0  0
  141.0970   68.2560  228.6710 Cl  0  0  0  0  0  0  0  0  0  0  0  0
  141.0080   70.5220  227.1840 C   0  0  0  0  0  0  0  0  0  0  0  0
  140.5660   71.2610  226.0870 C   0  0  0  0  0  0  0  0  0  0  0  0
  139.7130   70.7290  225.1430 C   0  0  0  0  0  0  0  0  0  0  0  0
  139.3130   71.4980  224.0900 N   0  0  0  0  0  0  0  0  0  0  0  0
  138.6730   73.6180  222.8410 H   0  0  0  0  0  0  0  0  0  0  0  0
  138.0695   73.4969  219.9425 H   0  0  0  0  0  0  0  0  0  0  0  0
  136.6650   74.0746  220.9283 H   0  0  0  0  0  0  0  0  0  0  0  0
  139.9712   77.5360  221.2762 H   0  0  0  0  0  0  0  0  0  0  0  0
  140.8277   76.4272  222.3610 H   0  0  0  0  0  0  0  0  0  0  0  0
  141.8284   77.6657  219.9335 H   0  0  0  0  0  0  0  0  0  0  0  0
  142.7023   76.5311  220.9480 H   0  0  0  0  0  0  0  0  0  0  0  0
  142.4108   75.1880  218.8987 H   0  0  0  0  0  0  0  0  0  0  0  0
  140.2780   73.8210  219.4851 H   0  0  0  0  0  0  0  0  0  0  0  0
  141.8563   72.9757  220.8238 H   0  0  0  0  0  0  0  0  0  0  0  0
  142.2401   74.6120  221.5535 H   0  0  0  0  0  0  0  0  0  0  0  0
  140.4540   72.6770  222.4350 H   0  0  0  0  0  0  0  0  0  0  0  0
  137.3588   69.2623  222.5361 H   0  0  0  0  0  0  0  0  0  0  0  0
  138.0619   67.8144  224.4424 H   0  0  0  0  0  0  0  0  0  0  0  0
  139.3911   67.6828  226.4868 H   0  0  0  0  0  0  0  0  0  0  0  0
  141.6880   70.9679  227.9247 H   0  0  0  0  0  0  0  0  0  0  0  0
  140.9082   72.3000  225.9712 H   0  0  0  0  0  0  0  0  0  0  0  0
  1  2  2  0
  2  3  1  0
  3  4  1  0
  4  5  1  0
  5  6  2  0
  5  7  1  0
  7  8  1  0
  8  9  1  0
  9 10  1  0
 10 11  1  0
 10 12  1  0
 12 13  1  0
 13 14  1  0
  2 15  1  0
 15 16  2  0
 16 17  1  0
 17 18  2  0
 18 19  1  0
 19 20  2  0
 20 21  1  0
 20 22  1  0
 22 23  2  0
 23 24  1  0
 24 25  2  0
 12  7  1  0
 25 15  1  0
 24 18  1  0
  3 26  1  0
  4 27  1  0
  4 28  1  0
  8 29  1  0
  8 30  1  0
  9 31  1  0
  9 32  1  0
 10 33  1  6
 12 34  1  6
 13 35  1  0
 13 36  1  0
 14 37  1  0
 16 38  1  0
 17 39  1  0
 19 40  1  0
 22 41  1  0
 23 42  1  0
M  END
>  <smiles>  (11) 
O=C(NCC(=O)N1CC[C@H](F)[C@H]1CO)c1ccc2cc(Cl)ccc2n1

>  <score_type>  (11) 
oracle

>  <origin>  (11) 
autodockgpu

>  <m_score__min__energy>  (11) 
-6.8200000000000003

>  <m_primary>  (11) 
energy

>  <rmsd>  (11) 
2.361359962414515

>  <m_score__min__rmsd>  (11) 
2.361359962414515

>  <meeko>  (11) 
{"free_energy": -5.68, "intermolecular_energy": -7.47, "internal_energy": -2.47, "cluster_size": 21, "cluster_id": 1, "rank_in_cluster": 20}

>  <energy>  (11) 
-5.9

>  <cluster_rmsd>  (11) 
1.77

>  <cluster>  (11) 
1

$$$$

     RDKit          3D

 42 44  0  0  0  0  0  0  0  0999 V2000
  138.9050   72.4160  220.7750 O   0  0  0  0  0  0  0  0  0  0  0  0
  139.7510   72.5870  221.6830 C   0  0  0  0  0  0  0  0  0  0  0  0
  140.6820   73.6480  221.5720 N   0  0  0  0  0  0  0  0  0  0  0  0
  140.6710   74.5420  220.4210 C   0  0  0  0  0  0  0  0  0  0  0  0
  141.0630   75.9240  220.8040 C   0  0  0  0  0  0  0  0  0  0  0  0
  142.1930   76.4200  220.5200 O   0  0  0  0  0  0  0  0  0  0  0  0
  140.1560   76.7210  221.5090 N   0  0  0  0  0  0  0  0  0  0  0  0
  139.1850   76.2780  222.4900 C   0  0  0  0  0  0  0  0  0  0  0  0
  138.0600   77.3010  222.4620 C   0  0  0  0  0  0  0  0  0  0  0  0
  138.4820   78.2690  221.3660 C   0  0  2  0  0  0  0  0  0  0  0  0
  138.1010   77.7110  220.1450 F   0  0  0  0  0  0  0  0  0  0  0  0
  139.9730   78.1720  221.4260 C   0  0  1  0  0  0  0  0  0  0  0  0
  140.5590   78.7460  222.6910 C   0  0  0  0  0  0  0  0  0  0  0  0
  141.7980   78.2260  223.0300 O   0  0  0  0  0  0  0  0  0  0  0  0
  139.7940   71.7030  222.8640 C   0  0  0  0  0  0  0  0  0  0  0  0
  139.2150   70.4540  222.7840 C   0  0  0  0  0  0  0  0  0  0  0  0
  139.2070   69.5570  223.8380 C   0  0  0  0  0  0  0  0  0  0  0  0
  139.8270   69.9960  225.0080 C   0  0  0  0  0  0  0  0  0  0  0  0
  139.8880   69.2020  226.1300 C   0  0  0  0  0  0  0  0  0  0  0  0
  140.4760   69.5650  227.3030 C   0  0  0  0  0  0  0  0  0  0  0  0
  140.5070   68.4960  228.6750 Cl  0  0  0  0  0  0  0  0  0  0  0  0
  141.0530   70.8150  227.3800 C   0  0  0  0  0  0  0  0  0  0  0  0
  141.0070   71.6420  226.2580 C   0  0  0  0  0  0  0  0  0  0  0  0
  140.4040   71.2470  225.0830 C   0  0  0  0  0  0  0  0  0  0  0  0
  140.3880   72.0960  224.0170 N   0  0  0  0  0  0  0  0  0  0  0  0
  141.3940   73.7820  222.3480 H   0  0  0  0  0  0  0  0  0  0  0  0
  141.3788   74.1649  219.6681 H   0  0  0  0  0  0  0  0  0  0  0  0
  139.6489   74.5718  220.0155 H   0  0  0  0  0  0  0  0  0  0  0  0
  138.8016   75.2817  222.2247 H   0  0  0  0  0  0  0  0  0  0  0  0
  139.6327   76.2004  223.4918 H   0  0  0  0  0  0  0  0  0  0  0  0
  137.1006   76.8228  222.2153 H   0  0  0  0  0  0  0  0  0  0  0  0
  137.9081   77.7953  223.4329 H   0  0  0  0  0  0  0  0  0  0  0  0
  138.0702   79.2835  221.4717 H   0  0  0  0  0  0  0  0  0  0  0  0
  140.4463   78.7055  220.5885 H   0  0  0  0  0  0  0  0  0  0  0  0
  140.6653   79.8330  222.5597 H   0  0  0  0  0  0  0  0  0  0  0  0
  139.8708   78.4806  223.5070 H   0  0  0  0  0  0  0  0  0  0  0  0
  142.1710   77.6100  222.3750 H   0  0  0  0  0  0  0  0  0  0  0  0
  138.7374   70.1568  221.8387 H   0  0  0  0  0  0  0  0  0  0  0  0
  138.7423   68.5632  223.7583 H   0  0  0  0  0  0  0  0  0  0  0  0
  139.4294   68.2037  226.0754 H   0  0  0  0  0  0  0  0  0  0  0  0
  141.5394   71.1528  228.3070 H   0  0  0  0  0  0  0  0  0  0  0  0
  141.4660   72.6402  226.3123 H   0  0  0  0  0  0  0  0  0  0  0  0
  1  2  2  0
  2  3  1  0
  3  4  1  0
  4  5  1  0
  5  6  2  0
  5  7  1  0
  7  8  1  0
  8  9  1  0
  9 10  1  0
 10 11  1  0
 10 12  1  0
 12 13  1  0
 13 14  1  0
  2 15  1  0
 15 16  2  0
 16 17  1  0
 17 18  2  0
 18 19  1  0
 19 20  2  0
 20 21  1  0
 20 22  1  0
 22 23  2  0
 23 24  1  0
 24 25  2  0
 12  7  1  0
 25 15  1  0
 24 18  1  0
  3 26  1  0
  4 27  1  0
  4 28  1  0
  8 29  1  0
  8 30  1  0
  9 31  1  0
  9 32  1  0
 10 33  1  1
 12 34  1  6
 13 35  1  0
 13 36  1  0
 14 37  1  0
 16 38  1  0
 17 39  1  0
 19 40  1  0
 22 41  1  0
 23 42  1  0
M  END
>  <smiles>  (12) 
O=C(NCC(=O)N1CC[C@H](F)[C@H]1CO)c1ccc2cc(Cl)ccc2n1

>  <score_type>  (12) 
oracle

>  <origin>  (12) 
autodockgpu

>  <m_score__min__energy>  (12) 
-6.8200000000000003

>  <m_primary>  (12) 
energy

>  <rmsd>  (12) 
2.887199123713432

>  <m_score__min__rmsd>  (12) 
2.887199123713432

>  <meeko>  (12) 
{"free_energy": -5.78, "intermolecular_energy": -7.57, "internal_energy": -1.93, "cluster_size": 21, "cluster_id": 1, "rank_in_cluster": 17}

>  <energy>  (12) 
-5.87

>  <cluster_rmsd>  (12) 
1.53

>  <cluster>  (12) 
1

$$$$

     RDKit          3D

 42 44  0  0  0  0  0  0  0  0999 V2000
  140.9210   71.0440  221.6650 O   0  0  0  0  0  0  0  0  0  0  0  0
  140.6920   72.0740  222.3390 C   0  0  0  0  0  0  0  0  0  0  0  0
  140.1760   71.9430  223.6510 N   0  0  0  0  0  0  0  0  0  0  0  0
  139.9110   70.6300  224.2280 C   0  0  0  0  0  0  0  0  0  0  0  0
  140.8550   70.3230  225.3340 C   0  0  0  0  0  0  0  0  0  0  0  0
  142.0400   70.7700  225.3670 O   0  0  0  0  0  0  0  0  0  0  0  0
  140.4330   69.5070  226.3880 N   0  0  0  0  0  0  0  0  0  0  0  0
  139.2460   69.6800  227.2020 C   0  0  0  0  0  0  0  0  0  0  0  0
  139.5520   69.0240  228.5390 C   0  0  0  0  0  0  0  0  0  0  0  0
  140.9900   68.5510  228.3860 C   0  0  2  0  0  0  0  0  0  0  0  0
  141.8210   69.6420  228.6510 F   0  0  0  0  0  0  0  0  0  0  0  0
  141.0790   68.3030  226.9140 C   0  0  1  0  0  0  0  0  0  0  0  0
  140.2410   67.1370  226.4530 C   0  0  0  0  0  0  0  0  0  0  0  0
  139.4970   67.3890  225.3120 O   0  0  0  0  0  0  0  0  0  0  0  0
  140.9480   73.4200  221.7900 C   0  0  0  0  0  0  0  0  0  0  0  0
  141.7830   73.5480  220.7010 C   0  0  0  0  0  0  0  0  0  0  0  0
  142.0820   74.7680  220.1180 C   0  0  0  0  0  0  0  0  0  0  0  0
  141.4780   75.8800  220.7060 C   0  0  0  0  0  0  0  0  0  0  0  0
  141.6910   77.1510  220.2240 C   0  0  0  0  0  0  0  0  0  0  0  0
  141.1370   78.2800  220.7470 C   0  0  0  0  0  0  0  0  0  0  0  0
  141.4620   79.8500  220.0720 Cl  0  0  0  0  0  0  0  0  0  0  0  0
  140.3020   78.1480  221.8360 C   0  0  0  0  0  0  0  0  0  0  0  0
  140.0680   76.8710  222.3460 C   0  0  0  0  0  0  0  0  0  0  0  0
  140.6440   75.7460  221.7960 C   0  0  0  0  0  0  0  0  0  0  0  0
  140.3790   74.5220  222.3350 N   0  0  0  0  0  0  0  0  0  0  0  0
  139.9850   72.8230  224.2130 H   0  0  0  0  0  0  0  0  0  0  0  0
  138.8832   70.6119  224.6194 H   0  0  0  0  0  0  0  0  0  0  0  0
  140.0423   69.8731  223.4407 H   0  0  0  0  0  0  0  0  0  0  0  0
  139.0317   70.7498  227.3419 H   0  0  0  0  0  0  0  0  0  0  0  0
  138.3630   69.2287  226.7258 H   0  0  0  0  0  0  0  0  0  0  0  0
  139.4626   69.7489  229.3615 H   0  0  0  0  0  0  0  0  0  0  0  0
  138.8573   68.2066  228.7825 H   0  0  0  0  0  0  0  0  0  0  0  0
  141.2580   67.6973  229.0258 H   0  0  0  0  0  0  0  0  0  0  0  0
  142.1125   68.0926  226.6015 H   0  0  0  0  0  0  0  0  0  0  0  0
  140.9119   66.2898  226.2474 H   0  0  0  0  0  0  0  0  0  0  0  0
  139.5226   66.9256  227.2588 H   0  0  0  0  0  0  0  0  0  0  0  0
  139.9930   67.8120  224.5900 H   0  0  0  0  0  0  0  0  0  0  0  0
  142.2328   72.6389  220.2752 H   0  0  0  0  0  0  0  0  0  0  0  0
  142.7511   74.8547  219.2492 H   0  0  0  0  0  0  0  0  0  0  0  0
  142.3557   77.2633  219.3548 H   0  0  0  0  0  0  0  0  0  0  0  0
  139.8305   79.0306  222.2928 H   0  0  0  0  0  0  0  0  0  0  0  0
  139.4027   76.7582  223.2147 H   0  0  0  0  0  0  0  0  0  0  0  0
  1  2  2  0
  2  3  1  0
  3  4  1  0
  4  5  1  0
  5  6  2  0
  5  7  1  0
  7  8  1  0
  8  9  1  0
  9 10  1  0
 10 11  1  0
 10 12  1  0
 12 13  1  0
 13 14  1  0
  2 15  1  0
 15 16  2  0
 16 17  1  0
 17 18  2  0
 18 19  1  0
 19 20  2  0
 20 21  1  0
 20 22  1  0
 22 23  2  0
 23 24  1  0
 24 25  2  0
 12  7  1  0
 25 15  1  0
 24 18  1  0
  3 26  1  0
  4 27  1  0
  4 28  1  0
  8 29  1  0
  8 30  1  0
  9 31  1  0
  9 32  1  0
 10 33  1  1
 12 34  1  6
 13 35  1  0
 13 36  1  0
 14 37  1  0
 16 38  1  0
 17 39  1  0
 19 40  1  0
 22 41  1  0
 23 42  1  0
M  END
>  <smiles>  (13) 
O=C(NCC(=O)N1CC[C@H](F)[C@H]1CO)c1ccc2cc(Cl)ccc2n1

>  <score_type>  (13) 
oracle

>  <origin>  (13) 
autodockgpu

>  <m_score__min__energy>  (13) 
-6.8200000000000003

>  <m_primary>  (13) 
energy

>  <rmsd>  (13) 
8.95808942531519

>  <m_score__min__rmsd>  (13) 
8.95808942531519

>  <meeko>  (13) 
{"free_energy": -6.62, "intermolecular_energy": -8.41, "internal_energy": -1.19, "cluster_size": 5, "cluster_id": 2, "rank_in_cluster": 1}

>  <energy>  (13) 
-5.82

>  <cluster_rmsd>  (13) 
1.9

>  <cluster>  (13) 
1

$$$$

     RDKit          3D

 42 44  0  0  0  0  0  0  0  0999 V2000
  137.4640   71.2530  221.1440 O   0  0  0  0  0  0  0  0  0  0  0  0
  137.9620   71.7860  222.1630 C   0  0  0  0  0  0  0  0  0  0  0  0
  138.0740   73.1960  222.2220 N   0  0  0  0  0  0  0  0  0  0  0  0
  137.6200   74.0340  221.1190 C   0  0  0  0  0  0  0  0  0  0  0  0
  138.6010   75.1090  220.8150 C   0  0  0  0  0  0  0  0  0  0  0  0
  138.2600   76.3150  220.6310 O   0  0  0  0  0  0  0  0  0  0  0  0
  139.9590   74.7900  220.7250 N   0  0  0  0  0  0  0  0  0  0  0  0
  141.0790   75.6490  221.0540 C   0  0  0  0  0  0  0  0  0  0  0  0
  142.2460   75.1640  220.2070 C   0  0  0  0  0  0  0  0  0  0  0  0
  141.6440   74.0380  219.3780 C   0  0  2  0  0  0  0  0  0  0  0  0
  141.0000   74.6190  218.2850 F   0  0  0  0  0  0  0  0  0  0  0  0
  140.5650   73.5330  220.2820 C   0  0  1  0  0  0  0  0  0  0  0  0
  141.0920   72.8570  221.5230 C   0  0  0  0  0  0  0  0  0  0  0  0
  140.6020   73.3820  222.7070 O   0  0  0  0  0  0  0  0  0  0  0  0
  138.4330   70.9710  223.2990 C   0  0  0  0  0  0  0  0  0  0  0  0
  138.0150   69.6610  223.4000 C   0  0  0  0  0  0  0  0  0  0  0  0
  138.4050   68.8210  224.4290 C   0  0  0  0  0  0  0  0  0  0  0  0
  139.2590   69.3850  225.3760 C   0  0  0  0  0  0  0  0  0  0  0  0
  139.7210   68.6590  226.4490 C   0  0  0  0  0  0  0  0  0  0  0  0
  140.5550   69.1430  227.4100 C   0  0  0  0  0  0  0  0  0  0  0  0
  141.0900   68.1520  228.7360 Cl  0  0  0  0  0  0  0  0  0  0  0  0
  140.9710   70.4540  227.3070 C   0  0  0  0  0  0  0  0  0  0  0  0
  140.5200   71.2150  226.2290 C   0  0  0  0  0  0  0  0  0  0  0  0
  139.6740   70.6960  225.2710 C   0  0  0  0  0  0  0  0  0  0  0  0
  139.2640   71.4850  224.2380 N   0  0  0  0  0  0  0  0  0  0  0  0
  138.4980   73.6360  223.0900 H   0  0  0  0  0  0  0  0  0  0  0  0
  137.4871   73.4074  220.2247 H   0  0  0  0  0  0  0  0  0  0  0  0
  136.6696   74.5049  221.4105 H   0  0  0  0  0  0  0  0  0  0  0  0
  140.8412   76.6955  220.8127 H   0  0  0  0  0  0  0  0  0  0  0  0
  141.3164   75.6063  222.1272 H   0  0  0  0  0  0  0  0  0  0  0  0
  142.6230   75.9697  219.5599 H   0  0  0  0  0  0  0  0  0  0  0  0
  143.1054   74.8374  220.8109 H   0  0  0  0  0  0  0  0  0  0  0  0
  142.3701   73.2836  219.0409 H   0  0  0  0  0  0  0  0  0  0  0  0
  139.9218   72.8007  219.7720 H   0  0  0  0  0  0  0  0  0  0  0  0
  140.8186   71.7925  221.4784 H   0  0  0  0  0  0  0  0  0  0  0  0
  142.1802   73.0176  221.5325 H   0  0  0  0  0  0  0  0  0  0  0  0
  140.0220   72.7810  223.2080 H   0  0  0  0  0  0  0  0  0  0  0  0
  137.3402   69.2648  222.6269 H   0  0  0  0  0  0  0  0  0  0  0  0
  138.0637   67.7774  224.4952 H   0  0  0  0  0  0  0  0  0  0  0  0
  139.3932   67.6127  226.5369 H   0  0  0  0  0  0  0  0  0  0  0  0
  141.6444   70.8902  228.0595 H   0  0  0  0  0  0  0  0  0  0  0  0
  140.8489   72.2609  226.1399 H   0  0  0  0  0  0  0  0  0  0  0  0
  1  2  2  0
  2  3  1  0
  3  4  1  0
  4  5  1  0
  5  6  2  0
  5  7  1  0
  7  8  1  0
  8  9  1  0
  9 10  1  0
 10 11  1  0
 10 12  1  0
 12 13  1  0
 13 14  1  0
  2 15  1  0
 15 16  2  0
 16 17  1  0
 17 18  2  0
 18 19  1  0
 19 20  2  0
 20 21  1  0
 20 22  1  0
 22 23  2  0
 23 24  1  0
 24 25  2  0
 12  7  1  0
 25 15  1  0
 24 18  1  0
  3 26  1  0
  4 27  1  0
  4 28  1  0
  8 29  1  0
  8 30  1  0
  9 31  1  0
  9 32  1  0
 10 33  1  6
 12 34  1  6
 13 35  1  0
 13 36  1  0
 14 37  1  0
 16 38  1  0
 17 39  1  0
 19 40  1  0
 22 41  1  0
 23 42  1  0
M  END
>  <smiles>  (14) 
O=C(NCC(=O)N1CC[C@H](F)[C@H]1CO)c1ccc2cc(Cl)ccc2n1

>  <score_type>  (14) 
oracle

>  <origin>  (14) 
autodockgpu

>  <m_score__min__energy>  (14) 
-6.8200000000000003

>  <m_primary>  (14) 
energy

>  <rmsd>  (14) 
2.61017357388657

>  <m_score__min__rmsd>  (14) 
2.61017357388657

>  <meeko>  (14) 
{"free_energy": -5.7, "intermolecular_energy": -7.49, "internal_energy": -2.7, "cluster_size": 11, "cluster_id": 4, "rank_in_cluster": 3}

>  <energy>  (14) 
-5.82

>  <cluster_rmsd>  (14) 
1.58

>  <cluster>  (14) 
1

$$$$

     RDKit          3D

 42 44  0  0  0  0  0  0  0  0999 V2000
  136.2640   75.5150  221.3530 O   0  0  0  0  0  0  0  0  0  0  0  0
  137.3070   75.1490  221.9420 C   0  0  0  0  0  0  0  0  0  0  0  0
  137.4380   73.7970  222.3430 N   0  0  0  0  0  0  0  0  0  0  0  0
  136.3790   72.8290  222.0810 C   0  0  0  0  0  0  0  0  0  0  0  0
  136.4230   71.7030  223.0520 C   0  0  0  0  0  0  0  0  0  0  0  0
  135.4490   71.4130  223.8080 O   0  0  0  0  0  0  0  0  0  0  0  0
  137.5800   70.9250  223.1450 N   0  0  0  0  0  0  0  0  0  0  0  0
  137.8310   69.6540  222.4940 C   0  0  0  0  0  0  0  0  0  0  0  0
  138.8370   68.9230  223.3700 C   0  0  0  0  0  0  0  0  0  0  0  0
  139.0480   69.8700  224.5420 C   0  0  2  0  0  0  0  0  0  0  0  0
  138.0040   69.6600  225.4440 F   0  0  0  0  0  0  0  0  0  0  0  0
  138.7970   71.2020  223.9110 C   0  0  1  0  0  0  0  0  0  0  0  0
  139.8500   71.5960  222.9070 C   0  0  0  0  0  0  0  0  0  0  0  0
  140.0760   72.9600  222.8260 O   0  0  0  0  0  0  0  0  0  0  0  0
  138.4000   76.0990  222.2240 C   0  0  0  0  0  0  0  0  0  0  0  0
  139.7000   75.7180  221.9680 C   0  0  0  0  0  0  0  0  0  0  0  0
  140.7880   76.5410  222.2010 C   0  0  0  0  0  0  0  0  0  0  0  0
  140.4900   77.8020  222.7180 C   0  0  0  0  0  0  0  0  0  0  0  0
  141.4790   78.7170  222.9940 C   0  0  0  0  0  0  0  0  0  0  0  0
  141.2620   79.9630  223.4990 C   0  0  0  0  0  0  0  0  0  0  0  0
  142.5750   81.0570  223.8190 Cl  0  0  0  0  0  0  0  0  0  0  0  0
  139.9600   80.3420  223.7540 C   0  0  0  0  0  0  0  0  0  0  0  0
  138.9360   79.4350  223.4830 C   0  0  0  0  0  0  0  0  0  0  0  0
  139.1880   78.1790  222.9720 C   0  0  0  0  0  0  0  0  0  0  0  0
  138.1470   77.3320  222.7260 N   0  0  0  0  0  0  0  0  0  0  0  0
  138.3260   73.4980  222.8410 H   0  0  0  0  0  0  0  0  0  0  0  0
  135.4047   73.3334  222.1613 H   0  0  0  0  0  0  0  0  0  0  0  0
  136.5242   72.4211  221.0698 H   0  0  0  0  0  0  0  0  0  0  0  0
  136.8995   69.0740  222.4168 H   0  0  0  0  0  0  0  0  0  0  0  0
  138.2146   69.7944  221.4726 H   0  0  0  0  0  0  0  0  0  0  0  0
  138.4321   67.9592  223.7122 H   0  0  0  0  0  0  0  0  0  0  0  0
  139.7711   68.6852  222.8399 H   0  0  0  0  0  0  0  0  0  0  0  0
  140.0201   69.7612  225.0453 H   0  0  0  0  0  0  0  0  0  0  0  0
  138.7623   72.0043  224.6627 H   0  0  0  0  0  0  0  0  0  0  0  0
  140.7942   71.1061  223.1873 H   0  0  0  0  0  0  0  0  0  0  0  0
  139.4807   71.2780  221.9208 H   0  0  0  0  0  0  0  0  0  0  0  0
  139.5820   73.4910  223.4750 H   0  0  0  0  0  0  0  0  0  0  0  0
  139.8809   74.7128  221.5594 H   0  0  0  0  0  0  0  0  0  0  0  0
  141.8198   76.2219  221.9923 H   0  0  0  0  0  0  0  0  0  0  0  0
  142.5192   78.4214  222.7925 H   0  0  0  0  0  0  0  0  0  0  0  0
  139.7346   81.3382  224.1623 H   0  0  0  0  0  0  0  0  0  0  0  0
  137.8954   79.7303  223.6829 H   0  0  0  0  0  0  0  0  0  0  0  0
  1  2  2  0
  2  3  1  0
  3  4  1  0
  4  5  1  0
  5  6  2  0
  5  7  1  0
  7  8  1  0
  8  9  1  0
  9 10  1  0
 10 11  1  0
 10 12  1  0
 12 13  1  0
 13 14  1  0
  2 15  1  0
 15 16  2  0
 16 17  1  0
 17 18  2  0
 18 19  1  0
 19 20  2  0
 20 21  1  0
 20 22  1  0
 22 23  2  0
 23 24  1  0
 24 25  2  0
 12  7  1  0
 25 15  1  0
 24 18  1  0
  3 26  1  0
  4 27  1  0
  4 28  1  0
  8 29  1  0
  8 30  1  0
  9 31  1  0
  9 32  1  0
 10 33  1  1
 12 34  1  1
 13 35  1  0
 13 36  1  0
 14 37  1  0
 16 38  1  0
 17 39  1  0
 19 40  1  0
 22 41  1  0
 23 42  1  0
M  END
>  <smiles>  (15) 
O=C(NCC(=O)N1CC[C@H](F)[C@H]1CO)c1ccc2cc(Cl)ccc2n1

>  <score_type>  (15) 
oracle

>  <origin>  (15) 
autodockgpu

>  <m_score__min__energy>  (15) 
-6.8200000000000003

>  <m_primary>  (15) 
energy

>  <rmsd>  (15) 
7.658814006410152

>  <m_score__min__rmsd>  (15) 
7.658814006410152

>  <meeko>  (15) 
{"free_energy": -5.97, "intermolecular_energy": -7.76, "internal_energy": -1.62, "cluster_size": 1, "cluster_id": 3, "rank_in_cluster": 1}

>  <energy>  (15) 
-5.8

>  <cluster_rmsd>  (15) 
1.9

>  <cluster>  (15) 
1

$$$$

     RDKit          3D

 42 44  0  0  0  0  0  0  0  0999 V2000
  139.5810   72.3450  220.8570 O   0  0  0  0  0  0  0  0  0  0  0  0
  139.6020   72.7170  222.0530 C   0  0  0  0  0  0  0  0  0  0  0  0
  139.4580   74.0930  222.3540 N   0  0  0  0  0  0  0  0  0  0  0  0
  139.2860   75.0800  221.2950 C   0  0  0  0  0  0  0  0  0  0  0  0
  138.9200   76.4110  221.8490 C   0  0  0  0  0  0  0  0  0  0  0  0
  137.8890   76.5960  222.5620 O   0  0  0  0  0  0  0  0  0  0  0  0
  139.7360   77.5130  221.5800 N   0  0  0  0  0  0  0  0  0  0  0  0
  139.4810   78.5740  220.6260 C   0  0  0  0  0  0  0  0  0  0  0  0
  140.8440   79.1120  220.2180 C   0  0  0  0  0  0  0  0  0  0  0  0
  141.8210   78.2240  220.9750 C   0  0  2  0  0  0  0  0  0  0  0  0
  141.9830   77.0520  220.2360 F   0  0  0  0  0  0  0  0  0  0  0  0
  141.0250   77.8520  222.1860 C   0  0  1  0  0  0  0  0  0  0  0  0
  140.7660   79.0130  223.1110 C   0  0  0  0  0  0  0  0  0  0  0  0
  139.4900   79.0360  223.6500 O   0  0  0  0  0  0  0  0  0  0  0  0
  139.7730   71.7470  223.1520 C   0  0  0  0  0  0  0  0  0  0  0  0
  139.4200   70.4310  222.9420 C   0  0  0  0  0  0  0  0  0  0  0  0
  139.5460   69.4510  223.9120 C   0  0  0  0  0  0  0  0  0  0  0  0
  140.0600   69.8790  225.1370 C   0  0  0  0  0  0  0  0  0  0  0  0
  140.2360   69.0060  226.1850 C   0  0  0  0  0  0  0  0  0  0  0  0
  140.7300   69.3530  227.4060 C   0  0  0  0  0  0  0  0  0  0  0  0
  140.9190   68.1810  228.6780 Cl  0  0  0  0  0  0  0  0  0  0  0  0
  141.0820   70.6700  227.6130 C   0  0  0  0  0  0  0  0  0  0  0  0
  140.9150   71.5770  226.5670 C   0  0  0  0  0  0  0  0  0  0  0  0
  140.4110   71.1960  225.3410 C   0  0  0  0  0  0  0  0  0  0  0  0
  140.2690   72.1260  224.3550 N   0  0  0  0  0  0  0  0  0  0  0  0
  139.4770   74.3960  223.3700 H   0  0  0  0  0  0  0  0  0  0  0  0
  140.2282   75.1721  220.7349 H   0  0  0  0  0  0  0  0  0  0  0  0
  138.4721   74.7431  220.6362 H   0  0  0  0  0  0  0  0  0  0  0  0
  138.9486   78.1784  219.7485 H   0  0  0  0  0  0  0  0  0  0  0  0
  138.8518   79.3637  221.0624 H   0  0  0  0  0  0  0  0  0  0  0  0
  140.9924   79.0223  219.1318 H   0  0  0  0  0  0  0  0  0  0  0  0
  140.9689   80.1799  220.4505 H   0  0  0  0  0  0  0  0  0  0  0  0
  142.7969   78.6901  221.1759 H   0  0  0  0  0  0  0  0  0  0  0  0
  141.5343   77.0809  222.7827 H   0  0  0  0  0  0  0  0  0  0  0  0
  141.4891   78.9628  223.9384 H   0  0  0  0  0  0  0  0  0  0  0  0
  140.8710   79.9270  222.5080 H   0  0  0  0  0  0  0  0  0  0  0  0
  138.9350   78.2730  223.4090 H   0  0  0  0  0  0  0  0  0  0  0  0
  139.0195   70.1462  221.9579 H   0  0  0  0  0  0  0  0  0  0  0  0
  139.2600   68.4047  223.7293 H   0  0  0  0  0  0  0  0  0  0  0  0
  139.9583   67.9536  226.0260 H   0  0  0  0  0  0  0  0  0  0  0  0
  141.4858   70.9981  228.5822 H   0  0  0  0  0  0  0  0  0  0  0  0
  141.1940   72.6293  226.7246 H   0  0  0  0  0  0  0  0  0  0  0  0
  1  2  2  0
  2  3  1  0
  3  4  1  0
  4  5  1  0
  5  6  2  0
  5  7  1  0
  7  8  1  0
  8  9  1  0
  9 10  1  0
 10 11  1  0
 10 12  1  0
 12 13  1  0
 13 14  1  0
  2 15  1  0
 15 16  2  0
 16 17  1  0
 17 18  2  0
 18 19  1  0
 19 20  2  0
 20 21  1  0
 20 22  1  0
 22 23  2  0
 23 24  1  0
 24 25  2  0
 12  7  1  0
 25 15  1  0
 24 18  1  0
  3 26  1  0
  4 27  1  0
  4 28  1  0
  8 29  1  0
  8 30  1  0
  9 31  1  0
  9 32  1  0
 10 33  1  1
 12 34  1  1
 13 35  1  0
 13 36  1  0
 14 37  1  0
 16 38  1  0
 17 39  1  0
 19 40  1  0
 22 41  1  0
 23 42  1  0
M  END
>  <smiles>  (16) 
O=C(NCC(=O)N1CC[C@H](F)[C@H]1CO)c1ccc2cc(Cl)ccc2n1

>  <score_type>  (16) 
oracle

>  <origin>  (16) 
autodockgpu

>  <m_score__min__energy>  (16) 
-6.8200000000000003

>  <m_primary>  (16) 
energy

>  <rmsd>  (16) 
2.669852003752086

>  <m_score__min__rmsd>  (16) 
2.669852003752086

>  <meeko>  (16) 
{"free_energy": -6.01, "intermolecular_energy": -7.8, "internal_energy": -1.85, "cluster_size": 21, "cluster_id": 1, "rank_in_cluster": 7}

>  <energy>  (16) 
-5.8

>  <cluster_rmsd>  (16) 
1.61

>  <cluster>  (16) 
1

$$$$

     RDKit          3D

 42 44  0  0  0  0  0  0  0  0999 V2000
  136.8030   71.0800  221.5670 O   0  0  0  0  0  0  0  0  0  0  0  0
  137.5980   71.6110  222.3770 C   0  0  0  0  0  0  0  0  0  0  0  0
  137.9400   72.9750  222.2190 N   0  0  0  0  0  0  0  0  0  0  0  0
  137.3810   73.7700  221.1310 C   0  0  0  0  0  0  0  0  0  0  0  0
  138.4530   74.3890  220.3060 C   0  0  0  0  0  0  0  0  0  0  0  0
  138.2590   75.4150  219.5890 O   0  0  0  0  0  0  0  0  0  0  0  0
  139.7320   73.8250  220.3110 N   0  0  0  0  0  0  0  0  0  0  0  0
  140.9910   74.5200  220.1310 C   0  0  0  0  0  0  0  0  0  0  0  0
  141.9610   73.4960  219.5630 C   0  0  0  0  0  0  0  0  0  0  0  0
  141.1100   72.2440  219.4060 C   0  0  2  0  0  0  0  0  0  0  0  0
  140.4130   72.3570  218.2020 F   0  0  0  0  0  0  0  0  0  0  0  0
  140.0990   72.4200  220.4950 C   0  0  1  0  0  0  0  0  0  0  0  0
  140.6870   72.3130  221.8790 C   0  0  0  0  0  0  0  0  0  0  0  0
  140.4070   73.3930  222.7000 O   0  0  0  0  0  0  0  0  0  0  0  0
  138.1840   70.8390  223.4890 C   0  0  0  0  0  0  0  0  0  0  0  0
  137.8020   69.5250  223.6650 C   0  0  0  0  0  0  0  0  0  0  0  0
  138.2970   68.7240  224.6790 C   0  0  0  0  0  0  0  0  0  0  0  0
  139.2220   69.3310  225.5290 C   0  0  0  0  0  0  0  0  0  0  0  0
  139.7910   68.6460  226.5780 C   0  0  0  0  0  0  0  0  0  0  0  0
  140.6970   69.1740  227.4460 C   0  0  0  0  0  0  0  0  0  0  0  0
  141.3670   68.2330  228.7470 Cl  0  0  0  0  0  0  0  0  0  0  0  0
  141.0770   70.4880  227.2680 C   0  0  0  0  0  0  0  0  0  0  0  0
  140.5170   71.2070  226.2130 C   0  0  0  0  0  0  0  0  0  0  0  0
  139.6000   70.6450  225.3500 C   0  0  0  0  0  0  0  0  0  0  0  0
  139.0850   71.3960  224.3350 N   0  0  0  0  0  0  0  0  0  0  0  0
  138.6150   73.4140  222.9100 H   0  0  0  0  0  0  0  0  0  0  0  0
  136.7671   73.1193  220.4908 H   0  0  0  0  0  0  0  0  0  0  0  0
  136.7713   74.5748  221.5676 H   0  0  0  0  0  0  0  0  0  0  0  0
  140.8673   75.3585  219.4298 H   0  0  0  0  0  0  0  0  0  0  0  0
  141.3583   74.9381  221.0798 H   0  0  0  0  0  0  0  0  0  0  0  0
  142.3562   73.8265  218.5911 H   0  0  0  0  0  0  0  0  0  0  0  0
  142.8394   73.3374  220.2059 H   0  0  0  0  0  0  0  0  0  0  0  0
  141.6779   71.3024  219.4352 H   0  0  0  0  0  0  0  0  0  0  0  0
  139.3014   71.6651  220.4318 H   0  0  0  0  0  0  0  0  0  0  0  0
  140.2870   71.4053  222.3545 H   0  0  0  0  0  0  0  0  0  0  0  0
  141.7798   72.2839  221.7567 H   0  0  0  0  0  0  0  0  0  0  0  0
  139.9050   73.1710  223.5040 H   0  0  0  0  0  0  0  0  0  0  0  0
  137.0697   69.0939  222.9665 H   0  0  0  0  0  0  0  0  0  0  0  0
  137.9820   67.6778  224.8065 H   0  0  0  0  0  0  0  0  0  0  0  0
  139.4926   67.5976  226.7256 H   0  0  0  0  0  0  0  0  0  0  0  0
  141.8062   70.9585  227.9440 H   0  0  0  0  0  0  0  0  0  0  0  0
  140.8159   72.2551  226.0644 H   0  0  0  0  0  0  0  0  0  0  0  0
  1  2  2  0
  2  3  1  0
  3  4  1  0
  4  5  1  0
  5  6  2  0
  5  7  1  0
  7  8  1  0
  8  9  1  0
  9 10  1  0
 10 11  1  0
 10 12  1  0
 12 13  1  0
 13 14  1  0
  2 15  1  0
 15 16  2  0
 16 17  1  0
 17 18  2  0
 18 19  1  0
 19 20  2  0
 20 21  1  0
 20 22  1  0
 22 23  2  0
 23 24  1  0
 24 25  2  0
 12  7  1  0
 25 15  1  0
 24 18  1  0
  3 26  1  0
  4 27  1  0
  4 28  1  0
  8 29  1  0
  8 30  1  0
  9 31  1  0
  9 32  1  0
 10 33  1  1
 12 34  1  6
 13 35  1  0
 13 36  1  0
 14 37  1  0
 16 38  1  0
 17 39  1  0
 19 40  1  0
 22 41  1  0
 23 42  1  0
M  END
>  <smiles>  (17) 
O=C(NCC(=O)N1CC[C@H](F)[C@H]1CO)c1ccc2cc(Cl)ccc2n1

>  <score_type>  (17) 
oracle

>  <origin>  (17) 
autodockgpu

>  <m_score__min__energy>  (17) 
-6.8200000000000003

>  <m_primary>  (17) 
energy

>  <rmsd>  (17) 
2.8817253255568285

>  <m_score__min__rmsd>  (17) 
2.8817253255568285

>  <meeko>  (17) 
{"free_energy": -5.42, "intermolecular_energy": -7.21, "internal_energy": -2.49, "cluster_size": 11, "cluster_id": 4, "rank_in_cluster": 8}

>  <energy>  (17) 
-5.78

>  <cluster_rmsd>  (17) 
1.33

>  <cluster>  (17) 
1

$$$$

     RDKit          3D

 42 44  0  0  0  0  0  0  0  0999 V2000
  136.6100   71.1930  221.0870 O   0  0  0  0  0  0  0  0  0  0  0  0
  137.2040   71.7940  222.0120 C   0  0  0  0  0  0  0  0  0  0  0  0
  137.3260   73.2030  221.9560 N   0  0  0  0  0  0  0  0  0  0  0  0
  136.7710   73.9630  220.8420 C   0  0  0  0  0  0  0  0  0  0  0  0
  137.6840   75.0610  220.4270 C   0  0  0  0  0  0  0  0  0  0  0  0
  137.3560   75.9410  219.5770 O   0  0  0  0  0  0  0  0  0  0  0  0
  138.9620   75.1380  220.9900 N   0  0  0  0  0  0  0  0  0  0  0  0
  139.3440   75.8570  222.1890 C   0  0  0  0  0  0  0  0  0  0  0  0
  140.8170   76.1990  222.0240 C   0  0  0  0  0  0  0  0  0  0  0  0
  141.1580   75.6610  220.6420 C   0  0  2  0  0  0  0  0  0  0  0  0
  140.7590   76.6200  219.7090 F   0  0  0  0  0  0  0  0  0  0  0  0
  140.1990   74.5210  220.5090 C   0  0  1  0  0  0  0  0  0  0  0  0
  140.4960   73.3790  221.4480 C   0  0  0  0  0  0  0  0  0  0  0  0
  139.9720   73.5390  222.7200 O   0  0  0  0  0  0  0  0  0  0  0  0
  137.7770   71.0600  223.1560 C   0  0  0  0  0  0  0  0  0  0  0  0
  137.2080   69.8620  223.5340 C   0  0  0  0  0  0  0  0  0  0  0  0
  137.6780   69.1040  224.5930 C   0  0  0  0  0  0  0  0  0  0  0  0
  138.7790   69.6300  225.2690 C   0  0  0  0  0  0  0  0  0  0  0  0
  139.3430   68.9760  226.3400 C   0  0  0  0  0  0  0  0  0  0  0  0
  140.4160   69.4300  227.0460 C   0  0  0  0  0  0  0  0  0  0  0  0
  141.0650   68.5360  228.3890 Cl  0  0  0  0  0  0  0  0  0  0  0  0
  140.9820   70.6280  226.6660 C   0  0  0  0  0  0  0  0  0  0  0  0
  140.4320   71.3130  225.5830 C   0  0  0  0  0  0  0  0  0  0  0  0
  139.3440   70.8280  224.8870 C   0  0  0  0  0  0  0  0  0  0  0  0
  138.8470   71.5400  223.8360 N   0  0  0  0  0  0  0  0  0  0  0  0
  137.8310   73.7020  222.7450 H   0  0  0  0  0  0  0  0  0  0  0  0
  136.6145   73.2859  219.9893 H   0  0  0  0  0  0  0  0  0  0  0  0
  135.8188   74.4080  221.1664 H   0  0  0  0  0  0  0  0  0  0  0  0
  138.7476   76.7758  222.2896 H   0  0  0  0  0  0  0  0  0  0  0  0
  139.1700   75.2537  223.0922 H   0  0  0  0  0  0  0  0  0  0  0  0
  140.9752   77.2865  222.0719 H   0  0  0  0  0  0  0  0  0  0  0  0
  141.4465   75.7688  222.8169 H   0  0  0  0  0  0  0  0  0  0  0  0
  142.2186   75.4047  220.5028 H   0  0  0  0  0  0  0  0  0  0  0  0
  140.2059   74.1037  219.4912 H   0  0  0  0  0  0  0  0  0  0  0  0
  140.0766   72.4587  221.0154 H   0  0  0  0  0  0  0  0  0  0  0  0
  141.5896   73.3376  221.5595 H   0  0  0  0  0  0  0  0  0  0  0  0
  139.2570   72.9170  222.9450 H   0  0  0  0  0  0  0  0  0  0  0  0
  136.3406   69.4915  222.9680 H   0  0  0  0  0  0  0  0  0  0  0  0
  137.2137   68.1497  224.8823 H   0  0  0  0  0  0  0  0  0  0  0  0
  138.8961   68.0192  226.6479 H   0  0  0  0  0  0  0  0  0  0  0  0
  141.8496   71.0353  227.2059 H   0  0  0  0  0  0  0  0  0  0  0  0
  140.8793   72.2693  225.2742 H   0  0  0  0  0  0  0  0  0  0  0  0
  1  2  2  0
  2  3  1  0
  3  4  1  0
  4  5  1  0
  5  6  2  0
  5  7  1  0
  7  8  1  0
  8  9  1  0
  9 10  1  0
 10 11  1  0
 10 12  1  0
 12 13  1  0
 13 14  1  0
  2 15  1  0
 15 16  2  0
 16 17  1  0
 17 18  2  0
 18 19  1  0
 19 20  2  0
 20 21  1  0
 20 22  1  0
 22 23  2  0
 23 24  1  0
 24 25  2  0
 12  7  1  0
 25 15  1  0
 24 18  1  0
  3 26  1  0
  4 27  1  0
  4 28  1  0
  8 29  1  0
  8 30  1  0
  9 31  1  0
  9 32  1  0
 10 33  1  1
 12 34  1  6
 13 35  1  0
 13 36  1  0
 14 37  1  0
 16 38  1  0
 17 39  1  0
 19 40  1  0
 22 41  1  0
 23 42  1  0
M  END
>  <smiles>  (18) 
O=C(NCC(=O)N1CC[C@H](F)[C@H]1CO)c1ccc2cc(Cl)ccc2n1

>  <score_type>  (18) 
oracle

>  <origin>  (18) 
autodockgpu

>  <m_score__min__energy>  (18) 
-6.8200000000000003

>  <m_primary>  (18) 
energy

>  <rmsd>  (18) 
2.8235318213442073

>  <m_score__min__rmsd>  (18) 
2.8235318213442073

>  <meeko>  (18) 
{"free_energy": -5.73, "intermolecular_energy": -7.52, "internal_energy": -2.14, "cluster_size": 4, "cluster_id": 6, "rank_in_cluster": 1}

>  <energy>  (18) 
-5.76

>  <cluster_rmsd>  (18) 
1.66

>  <cluster>  (18) 
1

$$$$

     RDKit          3D

 42 44  0  0  0  0  0  0  0  0999 V2000
  136.2710   72.2540  222.4860 O   0  0  0  0  0  0  0  0  0  0  0  0
  137.4450   71.8160  222.4360 C   0  0  0  0  0  0  0  0  0  0  0  0
  138.2380   72.0890  221.2960 N   0  0  0  0  0  0  0  0  0  0  0  0
  137.7120   72.8700  220.1820 C   0  0  0  0  0  0  0  0  0  0  0  0
  137.5050   74.2910  220.5670 C   0  0  0  0  0  0  0  0  0  0  0  0
  136.3580   74.8270  220.6180 O   0  0  0  0  0  0  0  0  0  0  0  0
  138.6130   75.0810  220.8880 N   0  0  0  0  0  0  0  0  0  0  0  0
  138.6030   76.3590  221.5730 C   0  0  0  0  0  0  0  0  0  0  0  0
  139.8500   77.0960  221.1100 C   0  0  0  0  0  0  0  0  0  0  0  0
  140.4750   76.1440  220.1000 C   0  0  2  0  0  0  0  0  0  0  0  0
  139.8230   76.3370  218.8820 F   0  0  0  0  0  0  0  0  0  0  0  0
  140.0250   74.8130  220.6120 C   0  0  1  0  0  0  0  0  0  0  0  0
  140.6510   74.4370  221.9310 C   0  0  0  0  0  0  0  0  0  0  0  0
  140.2130   73.2270  222.4430 O   0  0  0  0  0  0  0  0  0  0  0  0
  138.0120   71.0230  223.5430 C   0  0  0  0  0  0  0  0  0  0  0  0
  137.5050   69.7640  223.7900 C   0  0  0  0  0  0  0  0  0  0  0  0
  137.9730   68.9480  224.8060 C   0  0  0  0  0  0  0  0  0  0  0  0
  139.0060   69.4800  225.5780 C   0  0  0  0  0  0  0  0  0  0  0  0
  139.5610   68.7720  226.6190 C   0  0  0  0  0  0  0  0  0  0  0  0
  140.5690   69.2270  227.4130 C   0  0  0  0  0  0  0  0  0  0  0  0
  141.2130   68.2620  228.7100 Cl  0  0  0  0  0  0  0  0  0  0  0  0
  141.0740   70.4860  227.1640 C   0  0  0  0  0  0  0  0  0  0  0  0
  140.5300   71.2270  226.1140 C   0  0  0  0  0  0  0  0  0  0  0  0
  139.5090   70.7390  225.3270 C   0  0  0  0  0  0  0  0  0  0  0  0
  139.0150   71.5070  224.3140 N   0  0  0  0  0  0  0  0  0  0  0  0
  139.2300   71.7130  221.2650 H   0  0  0  0  0  0  0  0  0  0  0  0
  138.4250   72.8259  219.3455 H   0  0  0  0  0  0  0  0  0  0  0  0
  136.7406   72.4452  219.8890 H   0  0  0  0  0  0  0  0  0  0  0  0
  137.7012   76.9288  221.3047 H   0  0  0  0  0  0  0  0  0  0  0  0
  138.5954   76.2292  222.6653 H   0  0  0  0  0  0  0  0  0  0  0  0
  139.5871   78.0535  220.6366 H   0  0  0  0  0  0  0  0  0  0  0  0
  140.5297   77.3472  221.9376 H   0  0  0  0  0  0  0  0  0  0  0  0
  141.5620   76.2604  219.9776 H   0  0  0  0  0  0  0  0  0  0  0  0
  140.2686   74.0059  219.9055 H   0  0  0  0  0  0  0  0  0  0  0  0
  141.7405   74.3784  221.7915 H   0  0  0  0  0  0  0  0  0  0  0  0
  140.3549   75.2117  222.6536 H   0  0  0  0  0  0  0  0  0  0  0  0
  139.5260   73.3020  223.1290 H   0  0  0  0  0  0  0  0  0  0  0  0
  136.6915   69.3912  223.1503 H   0  0  0  0  0  0  0  0  0  0  0  0
  137.5578   67.9465  224.9921 H   0  0  0  0  0  0  0  0  0  0  0  0
  139.1622   67.7676  226.8242 H   0  0  0  0  0  0  0  0  0  0  0  0
  141.8877   70.8971  227.7795 H   0  0  0  0  0  0  0  0  0  0  0  0
  140.9283   72.2315  225.9081 H   0  0  0  0  0  0  0  0  0  0  0  0
  1  2  2  0
  2  3  1  0
  3  4  1  0
  4  5  1  0
  5  6  2  0
  5  7  1  0
  7  8  1  0
  8  9  1  0
  9 10  1  0
 10 11  1  0
 10 12  1  0
 12 13  1  0
 13 14  1  0
  2 15  1  0
 15 16  2  0
 16 17  1  0
 17 18  2  0
 18 19  1  0
 19 20  2  0
 20 21  1  0
 20 22  1  0
 22 23  2  0
 23 24  1  0
 24 25  2  0
 12  7  1  0
 25 15  1  0
 24 18  1  0
  3 26  1  0
  4 27  1  0
  4 28  1  0
  8 29  1  0
  8 30  1  0
  9 31  1  0
  9 32  1  0
 10 33  1  6
 12 34  1  6
 13 35  1  0
 13 36  1  0
 14 37  1  0
 16 38  1  0
 17 39  1  0
 19 40  1  0
 22 41  1  0
 23 42  1  0
M  END
>  <smiles>  (19) 
O=C(NCC(=O)N1CC[C@H](F)[C@H]1CO)c1ccc2cc(Cl)ccc2n1

>  <score_type>  (19) 
oracle

>  <origin>  (19) 
autodockgpu

>  <m_score__min__energy>  (19) 
-6.8200000000000003

>  <m_primary>  (19) 
energy

>  <rmsd>  (19) 
2.598491130547955

>  <m_score__min__rmsd>  (19) 
2.598491130547955

>  <meeko>  (19) 
{"free_energy": -4.95, "intermolecular_energy": -6.74, "internal_energy": -2.46, "cluster_size": 4, "cluster_id": 6, "rank_in_cluster": 4}

>  <energy>  (19) 
-5.7

>  <cluster_rmsd>  (19) 
1.42

>  <cluster>  (19) 
1

$$$$

     RDKit          3D

 42 44  0  0  0  0  0  0  0  0999 V2000
  141.3830   71.3850  221.4050 O   0  0  0  0  0  0  0  0  0  0  0  0
  140.9690   72.4270  221.9650 C   0  0  0  0  0  0  0  0  0  0  0  0
  140.2420   72.3200  223.1750 N   0  0  0  0  0  0  0  0  0  0  0  0
  139.9700   71.0210  223.7780 C   0  0  0  0  0  0  0  0  0  0  0  0
  140.4960   70.9470  225.1670 C   0  0  0  0  0  0  0  0  0  0  0  0
  141.0500   71.9310  225.7430 O   0  0  0  0  0  0  0  0  0  0  0  0
  140.3840   69.7500  225.8790 N   0  0  0  0  0  0  0  0  0  0  0  0
  141.4210   68.7590  226.0870 C   0  0  0  0  0  0  0  0  0  0  0  0
  140.7040   67.4340  226.2950 C   0  0  0  0  0  0  0  0  0  0  0  0
  139.2340   67.7910  226.1250 C   0  0  2  0  0  0  0  0  0  0  0  0
  138.9610   67.8050  224.7570 F   0  0  0  0  0  0  0  0  0  0  0  0
  139.2100   69.2180  226.5740 C   0  0  1  0  0  0  0  0  0  0  0  0
  139.4770   69.3860  228.0480 C   0  0  0  0  0  0  0  0  0  0  0  0
  140.0680   70.5930  228.3840 O   0  0  0  0  0  0  0  0  0  0  0  0
  141.2230   73.7600  221.3860 C   0  0  0  0  0  0  0  0  0  0  0  0
  141.9670   73.8530  220.2280 C   0  0  0  0  0  0  0  0  0  0  0  0
  142.2560   75.0590  219.6120 C   0  0  0  0  0  0  0  0  0  0  0  0
  141.7440   76.1940  220.2400 C   0  0  0  0  0  0  0  0  0  0  0  0
  141.9590   77.4540  219.7310 C   0  0  0  0  0  0  0  0  0  0  0  0
  141.4920   78.6040  220.2900 C   0  0  0  0  0  0  0  0  0  0  0  0
  141.8120   80.1590  219.5780 Cl  0  0  0  0  0  0  0  0  0  0  0  0
  140.7490   78.5080  221.4480 C   0  0  0  0  0  0  0  0  0  0  0  0
  140.5140   77.2430  221.9870 C   0  0  0  0  0  0  0  0  0  0  0  0
  141.0020   76.0950  221.3980 C   0  0  0  0  0  0  0  0  0  0  0  0
  140.7420   74.8850  221.9680 N   0  0  0  0  0  0  0  0  0  0  0  0
  139.8950   73.2090  223.6400 H   0  0  0  0  0  0  0  0  0  0  0  0
  138.8826   70.8562  223.7978 H   0  0  0  0  0  0  0  0  0  0  0  0
  140.4709   70.2482  223.1764 H   0  0  0  0  0  0  0  0  0  0  0  0
  142.0778   68.7033  225.2064 H   0  0  0  0  0  0  0  0  0  0  0  0
  142.0523   69.0138  226.9510 H   0  0  0  0  0  0  0  0  0  0  0  0
  141.0181   66.6953  225.5429 H   0  0  0  0  0  0  0  0  0  0  0  0
  140.9227   66.9788  227.2722 H   0  0  0  0  0  0  0  0  0  0  0  0
  138.5390   67.1187  226.6494 H   0  0  0  0  0  0  0  0  0  0  0  0
  138.2353   69.6873  226.3750 H   0  0  0  0  0  0  0  0  0  0  0  0
  138.5189   69.3103  228.5830 H   0  0  0  0  0  0  0  0  0  0  0  0
  140.1876   68.5960  228.3326 H   0  0  0  0  0  0  0  0  0  0  0  0
  140.3370   71.1370  227.6230 H   0  0  0  0  0  0  0  0  0  0  0  0
  142.3481   72.9268  219.7732 H   0  0  0  0  0  0  0  0  0  0  0  0
  142.8502   75.1179  218.6882 H   0  0  0  0  0  0  0  0  0  0  0  0
  142.5500   77.5381  218.8071 H   0  0  0  0  0  0  0  0  0  0  0  0
  140.3503   79.4096  221.9361 H   0  0  0  0  0  0  0  0  0  0  0  0
  139.9215   77.1583  222.9099 H   0  0  0  0  0  0  0  0  0  0  0  0
  1  2  2  0
  2  3  1  0
  3  4  1  0
  4  5  1  0
  5  6  2  0
  5  7  1  0
  7  8  1  0
  8  9  1  0
  9 10  1  0
 10 11  1  0
 10 12  1  0
 12 13  1  0
 13 14  1  0
  2 15  1  0
 15 16  2  0
 16 17  1  0
 17 18  2  0
 18 19  1  0
 19 20  2  0
 20 21  1  0
 20 22  1  0
 22 23  2  0
 23 24  1  0
 24 25  2  0
 12  7  1  0
 25 15  1  0
 24 18  1  0
  3 26  1  0
  4 27  1  0
  4 28  1  0
  8 29  1  0
  8 30  1  0
  9 31  1  0
  9 32  1  0
 10 33  1  1
 12 34  1  6
 13 35  1  0
 13 36  1  0
 14 37  1  0
 16 38  1  0
 17 39  1  0
 19 40  1  0
 22 41  1  0
 23 42  1  0
M  END
>  <smiles>  (20) 
O=C(NCC(=O)N1CC[C@H](F)[C@H]1CO)c1ccc2cc(Cl)ccc2n1

>  <score_type>  (20) 
oracle

>  <origin>  (20) 
autodockgpu

>  <m_score__min__energy>  (20) 
-6.8200000000000003

>  <m_primary>  (20) 
energy

>  <rmsd>  (20) 
8.900202463231231

>  <m_score__min__rmsd>  (20) 
8.900202463231231

>  <meeko>  (20) 
{"free_energy": -6.18, "intermolecular_energy": -7.97, "internal_energy": -1.99, "cluster_size": 5, "cluster_id": 2, "rank_in_cluster": 2}

>  <energy>  (20) 
-5.68

>  <cluster_rmsd>  (20) 
1.87

>  <cluster>  (20) 
1

$$$$

     RDKit          3D

 42 44  0  0  0  0  0  0  0  0999 V2000
  139.5670   74.5050  222.0570 O   0  0  0  0  0  0  0  0  0  0  0  0
  140.7320   74.7550  221.6720 C   0  0  0  0  0  0  0  0  0  0  0  0
  141.2230   76.0790  221.7640 N   0  0  0  0  0  0  0  0  0  0  0  0
  140.3950   77.1530  222.3000 C   0  0  0  0  0  0  0  0  0  0  0  0
  141.0420   78.4790  222.1140 C   0  0  0  0  0  0  0  0  0  0  0  0
  142.1930   78.6150  221.6040 O   0  0  0  0  0  0  0  0  0  0  0  0
  140.3630   79.6340  222.5160 N   0  0  0  0  0  0  0  0  0  0  0  0
  139.6990   79.8570  223.7860 C   0  0  0  0  0  0  0  0  0  0  0  0
  138.6080   80.8820  223.5170 C   0  0  0  0  0  0  0  0  0  0  0  0
  138.7120   81.1320  222.0190 C   0  0  2  0  0  0  0  0  0  0  0  0
  138.0110   80.1110  221.3740 F   0  0  0  0  0  0  0  0  0  0  0  0
  140.1620   80.8730  221.7620 C   0  0  1  0  0  0  0  0  0  0  0  0
  141.0720   81.9000  222.3860 C   0  0  0  0  0  0  0  0  0  0  0  0
  142.2310   81.3750  222.9340 O   0  0  0  0  0  0  0  0  0  0  0  0
  141.6000   73.6940  221.1240 C   0  0  0  0  0  0  0  0  0  0  0  0
  141.0640   72.4450  220.8940 C   0  0  0  0  0  0  0  0  0  0  0  0
  141.8000   71.3900  220.3820 C   0  0  0  0  0  0  0  0  0  0  0  0
  143.1390   71.6670  220.1080 C   0  0  0  0  0  0  0  0  0  0  0  0
  143.9800   70.7060  219.5960 C   0  0  0  0  0  0  0  0  0  0  0  0
  145.2960   70.9050  219.3050 C   0  0  0  0  0  0  0  0  0  0  0  0
  146.2880   69.6310  218.6600 Cl  0  0  0  0  0  0  0  0  0  0  0  0
  145.8290   72.1550  219.5370 C   0  0  0  0  0  0  0  0  0  0  0  0
  145.0000   73.1500  220.0550 C   0  0  0  0  0  0  0  0  0  0  0  0
  143.6710   72.9180  220.3400 C   0  0  0  0  0  0  0  0  0  0  0  0
  142.9060   73.9270  220.8450 N   0  0  0  0  0  0  0  0  0  0  0  0
  142.2120   76.2790  221.4340 H   0  0  0  0  0  0  0  0  0  0  0  0
  139.4256   77.1514  221.7802 H   0  0  0  0  0  0  0  0  0  0  0  0
  140.2592   76.9814  223.3780 H   0  0  0  0  0  0  0  0  0  0  0  0
  139.2590   78.9194  224.1566 H   0  0  0  0  0  0  0  0  0  0  0  0
  140.4045   80.2124  224.5515 H   0  0  0  0  0  0  0  0  0  0  0  0
  137.6184   80.4803  223.7802 H   0  0  0  0  0  0  0  0  0  0  0  0
  138.7275   81.7992  224.1124 H   0  0  0  0  0  0  0  0  0  0  0  0
  138.3438   82.1170  221.6962 H   0  0  0  0  0  0  0  0  0  0  0  0
  140.3858   80.8648  220.6850 H   0  0  0  0  0  0  0  0  0  0  0  0
  141.3558   82.6261  221.6100 H   0  0  0  0  0  0  0  0  0  0  0  0
  140.5106   82.3577  223.2139 H   0  0  0  0  0  0  0  0  0  0  0  0
  142.5140   80.5280  222.5460 H   0  0  0  0  0  0  0  0  0  0  0  0
  140.0021   72.2788  221.1281 H   0  0  0  0  0  0  0  0  0  0  0  0
  141.3578   70.3988  220.2032 H   0  0  0  0  0  0  0  0  0  0  0  0
  143.5603   69.7067  219.4084 H   0  0  0  0  0  0  0  0  0  0  0  0
  146.8866   72.3635  219.3181 H   0  0  0  0  0  0  0  0  0  0  0  0
  145.4190   74.1498  220.2417 H   0  0  0  0  0  0  0  0  0  0  0  0
  1  2  2  0
  2  3  1  0
  3  4  1  0
  4  5  1  0
  5  6  2  0
  5  7  1  0
  7  8  1  0
  8  9  1  0
  9 10  1  0
 10 11  1  0
 10 12  1  0
 12 13  1  0
 13 14  1  0
  2 15  1  0
 15 16  2  0
 16 17  1  0
 17 18  2  0
 18 19  1  0
 19 20  2  0
 20 21  1  0
 20 22  1  0
 22 23  2  0
 23 24  1  0
 24 25  2  0
 12  7  1  0
 25 15  1  0
 24 18  1  0
  3 26  1  0
  4 27  1  0
  4 28  1  0
  8 29  1  0
  8 30  1  0
  9 31  1  0
  9 32  1  0
 10 33  1  1
 12 34  1  6
 13 35  1  0
 13 36  1  0
 14 37  1  0
 16 38  1  0
 17 39  1  0
 19 40  1  0
 22 41  1  0
 23 42  1  0
M  END
>  <smiles>  (21) 
O=C(NCC(=O)N1CC[C@H](F)[C@H]1CO)c1ccc2cc(Cl)ccc2n1

>  <score_type>  (21) 
oracle

>  <origin>  (21) 
autodockgpu

>  <m_score__min__energy>  (21) 
-6.8200000000000003

>  <m_primary>  (21) 
energy

>  <rmsd>  (21) 
6.4934797176149655

>  <m_score__min__rmsd>  (21) 
6.4934797176149655

>  <meeko>  (21) 
{"free_energy": -5.1, "intermolecular_energy": -6.89, "internal_energy": -2.26, "cluster_size": 3, "cluster_id": 7, "rank_in_cluster": 2}

>  <energy>  (21) 
-5.67

>  <cluster_rmsd>  (21) 
1.88

>  <cluster>  (21) 
1

$$$$

     RDKit          3D

 42 44  0  0  0  0  0  0  0  0999 V2000
  141.1440   72.8210  221.2430 O   0  0  0  0  0  0  0  0  0  0  0  0
  140.2680   72.8980  222.1360 C   0  0  0  0  0  0  0  0  0  0  0  0
  139.3250   73.9530  222.0930 N   0  0  0  0  0  0  0  0  0  0  0  0
  139.3570   74.9470  221.0270 C   0  0  0  0  0  0  0  0  0  0  0  0
  140.4040   75.9740  221.2750 C   0  0  0  0  0  0  0  0  0  0  0  0
  140.4790   76.6280  222.3570 O   0  0  0  0  0  0  0  0  0  0  0  0
  141.3500   76.2400  220.2810 N   0  0  0  0  0  0  0  0  0  0  0  0
  142.1300   77.4520  220.1220 C   0  0  0  0  0  0  0  0  0  0  0  0
  142.4670   77.5450  218.6420 C   0  0  0  0  0  0  0  0  0  0  0  0
  141.7660   76.3370  218.0370 C   0  0  2  0  0  0  0  0  0  0  0  0
  140.4320   76.6880  217.8270 F   0  0  0  0  0  0  0  0  0  0  0  0
  141.7730   75.3720  219.1800 C   0  0  1  0  0  0  0  0  0  0  0  0
  143.1510   74.8770  219.5360 C   0  0  0  0  0  0  0  0  0  0  0  0
  143.2820   74.4580  220.8500 O   0  0  0  0  0  0  0  0  0  0  0  0
  140.2040   71.9100  223.2310 C   0  0  0  0  0  0  0  0  0  0  0  0
  139.6520   70.6720  222.9800 C   0  0  0  0  0  0  0  0  0  0  0  0
  139.5500   69.6820  223.9440 C   0  0  0  0  0  0  0  0  0  0  0  0
  140.0460   70.0160  225.2040 C   0  0  0  0  0  0  0  0  0  0  0  0
  140.0050   69.1230  226.2500 C   0  0  0  0  0  0  0  0  0  0  0  0
  140.4690   69.3790  227.5040 C   0  0  0  0  0  0  0  0  0  0  0  0
  140.3770   68.1890  228.7700 Cl  0  0  0  0  0  0  0  0  0  0  0  0
  141.0210   70.6190  227.7520 C   0  0  0  0  0  0  0  0  0  0  0  0
  141.0760   71.5440  226.7100 C   0  0  0  0  0  0  0  0  0  0  0  0
  140.5970   71.2560  225.4490 C   0  0  0  0  0  0  0  0  0  0  0  0
  140.6760   72.1990  224.4680 N   0  0  0  0  0  0  0  0  0  0  0  0
  138.5890   74.0080  222.8550 H   0  0  0  0  0  0  0  0  0  0  0  0
  139.5694   74.4422  220.0730 H   0  0  0  0  0  0  0  0  0  0  0  0
  138.3793   75.4500  220.9927 H   0  0  0  0  0  0  0  0  0  0  0  0
  141.5430   78.3278  220.4357 H   0  0  0  0  0  0  0  0  0  0  0  0
  143.0392   77.4290  220.7407 H   0  0  0  0  0  0  0  0  0  0  0  0
  142.0811   78.4800  218.2096 H   0  0  0  0  0  0  0  0  0  0  0  0
  143.5502   77.5501  218.4505 H   0  0  0  0  0  0  0  0  0  0  0  0
  142.2186   75.9681  217.1048 H   0  0  0  0  0  0  0  0  0  0  0  0
  141.1651   74.4818  218.9607 H   0  0  0  0  0  0  0  0  0  0  0  0
  143.3939   74.0297  218.8779 H   0  0  0  0  0  0  0  0  0  0  0  0
  143.8359   75.7278  219.4057 H   0  0  0  0  0  0  0  0  0  0  0  0
  142.5490   73.9040  221.1730 H   0  0  0  0  0  0  0  0  0  0  0  0
  139.2754   70.4605  221.9684 H   0  0  0  0  0  0  0  0  0  0  0  0
  139.1073   68.6981  223.7298 H   0  0  0  0  0  0  0  0  0  0  0  0
  139.5664   68.1324  226.0595 H   0  0  0  0  0  0  0  0  0  0  0  0
  141.4091   70.8723  228.7496 H   0  0  0  0  0  0  0  0  0  0  0  0
  141.5152   72.5345  226.8996 H   0  0  0  0  0  0  0  0  0  0  0  0
  1  2  2  0
  2  3  1  0
  3  4  1  0
  4  5  1  0
  5  6  2  0
  5  7  1  0
  7  8  1  0
  8  9  1  0
  9 10  1  0
 10 11  1  0
 10 12  1  0
 12 13  1  0
 13 14  1  0
  2 15  1  0
 15 16  2  0
 16 17  1  0
 17 18  2  0
 18 19  1  0
 19 20  2  0
 20 21  1  0
 20 22  1  0
 22 23  2  0
 23 24  1  0
 24 25  2  0
 12  7  1  0
 25 15  1  0
 24 18  1  0
  3 26  1  0
  4 27  1  0
  4 28  1  0
  8 29  1  0
  8 30  1  0
  9 31  1  0
  9 32  1  0
 10 33  1  6
 12 34  1  6
 13 35  1  0
 13 36  1  0
 14 37  1  0
 16 38  1  0
 17 39  1  0
 19 40  1  0
 22 41  1  0
 23 42  1  0
M  END
>  <smiles>  (22) 
O=C(NCC(=O)N1CC[C@H](F)[C@H]1CO)c1ccc2cc(Cl)ccc2n1

>  <score_type>  (22) 
oracle

>  <origin>  (22) 
autodockgpu

>  <m_score__min__energy>  (22) 
-6.8200000000000003

>  <m_primary>  (22) 
energy

>  <rmsd>  (22) 
2.4318583272160885

>  <m_score__min__rmsd>  (22) 
2.4318583272160885

>  <meeko>  (22) 
{"free_energy": -5.9, "intermolecular_energy": -7.69, "internal_energy": -1.89, "cluster_size": 21, "cluster_id": 1, "rank_in_cluster": 11}

>  <energy>  (22) 
-6.62

>  <cluster_rmsd>  (22) 
0.0

>  <cluster>  (22) 
2

$$$$

     RDKit          3D

 42 44  0  0  0  0  0  0  0  0999 V2000
  137.8300   71.1340  220.9110 O   0  0  0  0  0  0  0  0  0  0  0  0
  138.2450   71.6830  221.9580 C   0  0  0  0  0  0  0  0  0  0  0  0
  138.2830   73.0960  222.0300 N   0  0  0  0  0  0  0  0  0  0  0  0
  137.8470   73.9190  220.9080 C   0  0  0  0  0  0  0  0  0  0  0  0
  137.8280   75.3620  221.2690 C   0  0  0  0  0  0  0  0  0  0  0  0
  136.7600   76.0410  221.3200 O   0  0  0  0  0  0  0  0  0  0  0  0
  139.0310   76.0090  221.5660 N   0  0  0  0  0  0  0  0  0  0  0  0
  139.3040   76.8600  222.7070 C   0  0  0  0  0  0  0  0  0  0  0  0
  140.4100   77.8080  222.2720 C   0  0  0  0  0  0  0  0  0  0  0  0
  140.6530   77.4320  220.8170 C   0  0  2  0  0  0  0  0  0  0  0  0
  139.6910   78.0880  220.0480 F   0  0  0  0  0  0  0  0  0  0  0  0
  140.2820   75.9830  220.8070 C   0  0  1  0  0  0  0  0  0  0  0  0
  141.2350   75.1170  221.5910 C   0  0  0  0  0  0  0  0  0  0  0  0
  140.6190   74.1280  222.3410 O   0  0  0  0  0  0  0  0  0  0  0  0
  138.6940   70.8840  223.1140 C   0  0  0  0  0  0  0  0  0  0  0  0
  138.4190   69.5330  223.1390 C   0  0  0  0  0  0  0  0  0  0  0  0
  138.8000   68.7040  224.1810 C   0  0  0  0  0  0  0  0  0  0  0  0
  139.4920   69.3240  225.2220 C   0  0  0  0  0  0  0  0  0  0  0  0
  139.9270   68.6140  226.3160 C   0  0  0  0  0  0  0  0  0  0  0  0
  140.6060   69.1520  227.3670 C   0  0  0  0  0  0  0  0  0  0  0  0
  141.1200   68.1780  228.7140 Cl  0  0  0  0  0  0  0  0  0  0  0  0
  140.8800   70.5040  227.3390 C   0  0  0  0  0  0  0  0  0  0  0  0
  140.4500   71.2490  226.2410 C   0  0  0  0  0  0  0  0  0  0  0  0
  139.7640   70.6750  225.1910 C   0  0  0  0  0  0  0  0  0  0  0  0
  139.3680   71.4520  224.1430 N   0  0  0  0  0  0  0  0  0  0  0  0
  138.6360   73.5510  222.9220 H   0  0  0  0  0  0  0  0  0  0  0  0
  138.5378   73.7699  220.0650 H   0  0  0  0  0  0  0  0  0  0  0  0
  136.8255   73.6172  220.6334 H   0  0  0  0  0  0  0  0  0  0  0  0
  138.4030   77.4266  222.9847 H   0  0  0  0  0  0  0  0  0  0  0  0
  139.6036   76.2698  223.5856 H   0  0  0  0  0  0  0  0  0  0  0  0
  140.0856   78.8556  222.3579 H   0  0  0  0  0  0  0  0  0  0  0  0
  141.3145   77.7223  222.8921 H   0  0  0  0  0  0  0  0  0  0  0  0
  141.6638   77.6638  220.4503 H   0  0  0  0  0  0  0  0  0  0  0  0
  140.2572   75.5797  219.7839 H   0  0  0  0  0  0  0  0  0  0  0  0
  141.9241   74.6338  220.8827 H   0  0  0  0  0  0  0  0  0  0  0  0
  141.7499   75.7787  222.3031 H   0  0  0  0  0  0  0  0  0  0  0  0
  140.5240   73.2740  221.8840 H   0  0  0  0  0  0  0  0  0  0  0  0
  137.8717   69.0933  222.2922 H   0  0  0  0  0  0  0  0  0  0  0  0
  138.5721   67.6279  224.1875 H   0  0  0  0  0  0  0  0  0  0  0  0
  139.7115   67.5357  226.3445 H   0  0  0  0  0  0  0  0  0  0  0  0
  141.4258   70.9839  228.1647 H   0  0  0  0  0  0  0  0  0  0  0  0
  140.6646   72.3275  226.2115 H   0  0  0  0  0  0  0  0  0  0  0  0
  1  2  2  0
  2  3  1  0
  3  4  1  0
  4  5  1  0
  5  6  2  0
  5  7  1  0
  7  8  1  0
  8  9  1  0
  9 10  1  0
 10 11  1  0
 10 12  1  0
 12 13  1  0
 13 14  1  0
  2 15  1  0
 15 16  2  0
 16 17  1  0
 17 18  2  0
 18 19  1  0
 19 20  2  0
 20 21  1  0
 20 22  1  0
 22 23  2  0
 23 24  1  0
 24 25  2  0
 12  7  1  0
 25 15  1  0
 24 18  1  0
  3 26  1  0
  4 27  1  0
  4 28  1  0
  8 29  1  0
  8 30  1  0
  9 31  1  0
  9 32  1  0
 10 33  1  6
 12 34  1  6
 13 35  1  0
 13 36  1  0
 14 37  1  0
 16 38  1  0
 17 39  1  0
 19 40  1  0
 22 41  1  0
 23 42  1  0
M  END
>  <smiles>  (23) 
O=C(NCC(=O)N1CC[C@H](F)[C@H]1CO)c1ccc2cc(Cl)ccc2n1

>  <score_type>  (23) 
oracle

>  <origin>  (23) 
autodockgpu

>  <m_score__min__energy>  (23) 
-6.8200000000000003

>  <m_primary>  (23) 
energy

>  <rmsd>  (23) 
2.569910432842851

>  <m_score__min__rmsd>  (23) 
2.569910432842851

>  <meeko>  (23) 
{"free_energy": -5.98, "intermolecular_energy": -7.77, "internal_energy": -1.96, "cluster_size": 21, "cluster_id": 1, "rank_in_cluster": 9}

>  <energy>  (23) 
-6.18

>  <cluster_rmsd>  (23) 
1.59

>  <cluster>  (23) 
2

$$$$

     RDKit          3D

 42 44  0  0  0  0  0  0  0  0999 V2000
  137.3460   71.1860  221.1490 O   0  0  0  0  0  0  0  0  0  0  0  0
  137.8160   71.7420  222.1690 C   0  0  0  0  0  0  0  0  0  0  0  0
  137.8710   73.1550  222.2250 N   0  0  0  0  0  0  0  0  0  0  0  0
  137.3900   73.9720  221.1170 C   0  0  0  0  0  0  0  0  0  0  0  0
  138.3950   74.0490  220.0240 C   0  0  0  0  0  0  0  0  0  0  0  0
  138.0790   74.0000  218.7980 O   0  0  0  0  0  0  0  0  0  0  0  0
  139.7480   74.1790  220.3470 N   0  0  0  0  0  0  0  0  0  0  0  0
  140.4140   75.3660  220.8470 C   0  0  0  0  0  0  0  0  0  0  0  0
  141.8690   75.2450  220.4200 C   0  0  0  0  0  0  0  0  0  0  0  0
  141.9020   73.9510  219.6200 C   0  0  2  0  0  0  0  0  0  0  0  0
  141.4720   74.2470  218.3250 F   0  0  0  0  0  0  0  0  0  0  0  0
  140.8010   73.1650  220.2580 C   0  0  1  0  0  0  0  0  0  0  0  0
  141.1080   72.7480  221.6740 C   0  0  0  0  0  0  0  0  0  0  0  0
  140.3590   73.4070  222.6360 O   0  0  0  0  0  0  0  0  0  0  0  0
  138.3120   70.9490  223.3100 C   0  0  0  0  0  0  0  0  0  0  0  0
  137.9020   69.6390  223.4420 C   0  0  0  0  0  0  0  0  0  0  0  0
  138.3150   68.8190  224.4790 C   0  0  0  0  0  0  0  0  0  0  0  0
  139.1860   69.4040  225.3980 C   0  0  0  0  0  0  0  0  0  0  0  0
  139.6710   68.6980  226.4750 C   0  0  0  0  0  0  0  0  0  0  0  0
  140.5220   69.2030  227.4110 C   0  0  0  0  0  0  0  0  0  0  0  0
  141.0870   68.2380  228.7430 Cl  0  0  0  0  0  0  0  0  0  0  0  0
  140.9310   70.5140  227.2760 C   0  0  0  0  0  0  0  0  0  0  0  0
  140.4550   71.2530  226.1940 C   0  0  0  0  0  0  0  0  0  0  0  0
  139.5930   70.7140  225.2620 C   0  0  0  0  0  0  0  0  0  0  0  0
  139.1590   71.4830  224.2230 N   0  0  0  0  0  0  0  0  0  0  0  0
  138.2710   73.6140  223.0940 H   0  0  0  0  0  0  0  0  0  0  0  0
  136.4641   73.5292  220.7213 H   0  0  0  0  0  0  0  0  0  0  0  0
  137.2067   74.9900  221.4913 H   0  0  0  0  0  0  0  0  0  0  0  0
  139.9622   76.2693  220.4113 H   0  0  0  0  0  0  0  0  0  0  0  0
  140.3215   75.4483  221.9400 H   0  0  0  0  0  0  0  0  0  0  0  0
  142.1673   76.1002  219.7957 H   0  0  0  0  0  0  0  0  0  0  0  0
  142.5648   75.2381  221.2719 H   0  0  0  0  0  0  0  0  0  0  0  0
  142.8842   73.4562  219.5971 H   0  0  0  0  0  0  0  0  0  0  0  0
  140.5850   72.2439  219.6969 H   0  0  0  0  0  0  0  0  0  0  0  0
  140.9142   71.6691  221.7654 H   0  0  0  0  0  0  0  0  0  0  0  0
  142.1603   73.0096  221.8591 H   0  0  0  0  0  0  0  0  0  0  0  0
  139.8840   72.8210  223.2500 H   0  0  0  0  0  0  0  0  0  0  0  0
  137.2150   69.2261  222.6887 H   0  0  0  0  0  0  0  0  0  0  0  0
  137.9785   67.7758  224.5717 H   0  0  0  0  0  0  0  0  0  0  0  0
  139.3488   67.6523  226.5880 H   0  0  0  0  0  0  0  0  0  0  0  0
  141.6179   70.9662  228.0065 H   0  0  0  0  0  0  0  0  0  0  0  0
  140.7770   72.2986  226.0800 H   0  0  0  0  0  0  0  0  0  0  0  0
  1  2  2  0
  2  3  1  0
  3  4  1  0
  4  5  1  0
  5  6  2  0
  5  7  1  0
  7  8  1  0
  8  9  1  0
  9 10  1  0
 10 11  1  0
 10 12  1  0
 12 13  1  0
 13 14  1  0
  2 15  1  0
 15 16  2  0
 16 17  1  0
 17 18  2  0
 18 19  1  0
 19 20  2  0
 20 21  1  0
 20 22  1  0
 22 23  2  0
 23 24  1  0
 24 25  2  0
 12  7  1  0
 25 15  1  0
 24 18  1  0
  3 26  1  0
  4 27  1  0
  4 28  1  0
  8 29  1  0
  8 30  1  0
  9 31  1  0
  9 32  1  0
 10 33  1  6
 12 34  1  6
 13 35  1  0
 13 36  1  0
 14 37  1  0
 16 38  1  0
 17 39  1  0
 19 40  1  0
 22 41  1  0
 23 42  1  0
M  END
>  <smiles>  (24) 
O=C(NCC(=O)N1CC[C@H](F)[C@H]1CO)c1ccc2cc(Cl)ccc2n1

>  <score_type>  (24) 
oracle

>  <origin>  (24) 
autodockgpu

>  <m_score__min__energy>  (24) 
-6.8200000000000003

>  <m_primary>  (24) 
energy

>  <rmsd>  (24) 
2.679751522585629

>  <m_score__min__rmsd>  (24) 
2.679751522585629

>  <meeko>  (24) 
{"free_energy": -5.59, "intermolecular_energy": -7.38, "internal_energy": -2.64, "cluster_size": 11, "cluster_id": 4, "rank_in_cluster": 5}

>  <energy>  (24) 
-6.15

>  <cluster_rmsd>  (24) 
1.58

>  <cluster>  (24) 
2

$$$$

     RDKit          3D

 42 44  0  0  0  0  0  0  0  0999 V2000
  139.7760   72.1930  220.7480 O   0  0  0  0  0  0  0  0  0  0  0  0
  139.6970   72.5940  221.9330 C   0  0  0  0  0  0  0  0  0  0  0  0
  139.4800   73.9700  222.1850 N   0  0  0  0  0  0  0  0  0  0  0  0
  139.3470   74.9240  221.0900 C   0  0  0  0  0  0  0  0  0  0  0  0
  140.6160   75.6650  220.8610 C   0  0  0  0  0  0  0  0  0  0  0  0
  140.7700   76.8780  221.1930 O   0  0  0  0  0  0  0  0  0  0  0  0
  141.6900   75.0110  220.2520 N   0  0  0  0  0  0  0  0  0  0  0  0
  142.5350   73.9900  220.8410 C   0  0  0  0  0  0  0  0  0  0  0  0
  143.8710   74.0800  220.1200 C   0  0  0  0  0  0  0  0  0  0  0  0
  143.6840   75.2480  219.1620 C   0  0  2  0  0  0  0  0  0  0  0  0
  143.9120   76.4220  219.8810 F   0  0  0  0  0  0  0  0  0  0  0  0
  142.2120   75.1970  218.8970 C   0  0  1  0  0  0  0  0  0  0  0  0
  141.7890   73.9830  218.1090 C   0  0  0  0  0  0  0  0  0  0  0  0
  140.5080   73.5400  218.3950 O   0  0  0  0  0  0  0  0  0  0  0  0
  139.8260   71.6590  223.0670 C   0  0  0  0  0  0  0  0  0  0  0  0
  139.4220   70.3510  222.9030 C   0  0  0  0  0  0  0  0  0  0  0  0
  139.5050   69.4030  223.9080 C   0  0  0  0  0  0  0  0  0  0  0  0
  140.0310   69.8540  225.1190 C   0  0  0  0  0  0  0  0  0  0  0  0
  140.1680   69.0140  226.2000 C   0  0  0  0  0  0  0  0  0  0  0  0
  140.6710   69.3850  227.4090 C   0  0  0  0  0  0  0  0  0  0  0  0
  140.8080   68.2540  228.7240 Cl  0  0  0  0  0  0  0  0  0  0  0  0
  141.0740   70.6940  227.5710 C   0  0  0  0  0  0  0  0  0  0  0  0
  140.9470   71.5690  226.4920 C   0  0  0  0  0  0  0  0  0  0  0  0
  140.4330   71.1640  225.2780 C   0  0  0  0  0  0  0  0  0  0  0  0
  140.3310   72.0620  224.2580 N   0  0  0  0  0  0  0  0  0  0  0  0
  139.4150   74.2980  223.1920 H   0  0  0  0  0  0  0  0  0  0  0  0
  139.0789   74.3805  220.1720 H   0  0  0  0  0  0  0  0  0  0  0  0
  138.5644   75.6500  221.3555 H   0  0  0  0  0  0  0  0  0  0  0  0
  142.6682   74.1785  221.9165 H   0  0  0  0  0  0  0  0  0  0  0  0
  142.0888   72.9900  220.7367 H   0  0  0  0  0  0  0  0  0  0  0  0
  144.6872   74.2810  220.8295 H   0  0  0  0  0  0  0  0  0  0  0  0
  144.1429   73.1459  219.6065 H   0  0  0  0  0  0  0  0  0  0  0  0
  144.3268   75.2112  218.2701 H   0  0  0  0  0  0  0  0  0  0  0  0
  141.8729   76.0760  218.3293 H   0  0  0  0  0  0  0  0  0  0  0  0
  141.8372   74.2321  217.0387 H   0  0  0  0  0  0  0  0  0  0  0  0
  142.4750   73.1696  218.3878 H   0  0  0  0  0  0  0  0  0  0  0  0
  140.4350   73.0090  219.2080 H   0  0  0  0  0  0  0  0  0  0  0  0
  139.0146   70.0466  221.9276 H   0  0  0  0  0  0  0  0  0  0  0  0
  139.1780   68.3630  223.7617 H   0  0  0  0  0  0  0  0  0  0  0  0
  139.8483   67.9685  226.0785 H   0  0  0  0  0  0  0  0  0  0  0  0
  141.4865   71.0405  228.5300 H   0  0  0  0  0  0  0  0  0  0  0  0
  141.2668   72.6145  226.6132 H   0  0  0  0  0  0  0  0  0  0  0  0
  1  2  2  0
  2  3  1  0
  3  4  1  0
  4  5  1  0
  5  6  2  0
  5  7  1  0
  7  8  1  0
  8  9  1  0
  9 10  1  0
 10 11  1  0
 10 12  1  0
 12 13  1  0
 13 14  1  0
  2 15  1  0
 15 16  2  0
 16 17  1  0
 17 18  2  0
 18 19  1  0
 19 20  2  0
 20 21  1  0
 20 22  1  0
 22 23  2  0
 23 24  1  0
 24 25  2  0
 12  7  1  0
 25 15  1  0
 24 18  1  0
  3 26  1  0
  4 27  1  0
  4 28  1  0
  8 29  1  0
  8 30  1  0
  9 31  1  0
  9 32  1  0
 10 33  1  6
 12 34  1  6
 13 35  1  0
 13 36  1  0
 14 37  1  0
 16 38  1  0
 17 39  1  0
 19 40  1  0
 22 41  1  0
 23 42  1  0
M  END
>  <smiles>  (25) 
O=C(NCC(=O)N1CC[C@H](F)[C@H]1CO)c1ccc2cc(Cl)ccc2n1

>  <score_type>  (25) 
oracle

>  <origin>  (25) 
autodockgpu

>  <m_score__min__energy>  (25) 
-6.8200000000000003

>  <m_primary>  (25) 
energy

>  <rmsd>  (25) 
2.5922029659815524

>  <m_score__min__rmsd>  (25) 
2.5922029659815524

>  <meeko>  (25) 
{"free_energy": -5.57, "intermolecular_energy": -7.36, "internal_energy": -2.11, "cluster_size": 11, "cluster_id": 4, "rank_in_cluster": 6}

>  <energy>  (25) 
-6.14

>  <cluster_rmsd>  (25) 
1.59

>  <cluster>  (25) 
2

$$$$

     RDKit          3D

 42 44  0  0  0  0  0  0  0  0999 V2000
  139.2170   72.6170  220.4370 O   0  0  0  0  0  0  0  0  0  0  0  0
  140.0560   72.7380  221.3600 C   0  0  0  0  0  0  0  0  0  0  0  0
  141.0770   73.7110  221.2450 N   0  0  0  0  0  0  0  0  0  0  0  0
  141.1660   74.5740  220.0740 C   0  0  0  0  0  0  0  0  0  0  0  0
  141.4930   75.9740  220.4550 C   0  0  0  0  0  0  0  0  0  0  0  0
  142.5690   76.5450  220.1070 O   0  0  0  0  0  0  0  0  0  0  0  0
  140.5860   76.7010  221.2310 N   0  0  0  0  0  0  0  0  0  0  0  0
  139.8010   76.2080  222.3450 C   0  0  0  0  0  0  0  0  0  0  0  0
  138.5630   77.0890  222.4120 C   0  0  0  0  0  0  0  0  0  0  0  0
  138.7290   78.0320  221.2290 C   0  0  2  0  0  0  0  0  0  0  0  0
  138.2770   77.3610  220.0920 F   0  0  0  0  0  0  0  0  0  0  0  0
  140.2180   78.1130  221.1050 C   0  0  1  0  0  0  0  0  0  0  0  0
  140.8750   78.8270  222.2590 C   0  0  0  0  0  0  0  0  0  0  0  0
  142.2550   78.7140  222.2840 O   0  0  0  0  0  0  0  0  0  0  0  0
  139.9990   71.8830  222.5610 C   0  0  0  0  0  0  0  0  0  0  0  0
  139.3190   70.6840  222.4960 C   0  0  0  0  0  0  0  0  0  0  0  0
  139.2120   69.8180  223.5710 C   0  0  0  0  0  0  0  0  0  0  0  0
  139.8420   70.2330  224.7440 C   0  0  0  0  0  0  0  0  0  0  0  0
  139.8120   69.4640  225.8850 C   0  0  0  0  0  0  0  0  0  0  0  0
  140.4030   69.8060  227.0630 C   0  0  0  0  0  0  0  0  0  0  0  0
  140.3140   68.7720  228.4600 Cl  0  0  0  0  0  0  0  0  0  0  0  0
  141.0810   71.0050  227.1260 C   0  0  0  0  0  0  0  0  0  0  0  0
  141.1290   71.8040  225.9840 C   0  0  0  0  0  0  0  0  0  0  0  0
  140.5200   71.4320  224.8040 C   0  0  0  0  0  0  0  0  0  0  0  0
  140.5990   72.2530  223.7190 N   0  0  0  0  0  0  0  0  0  0  0  0
  141.7830   73.8040  222.0330 H   0  0  0  0  0  0  0  0  0  0  0  0
  141.9525   74.1917  219.4067 H   0  0  0  0  0  0  0  0  0  0  0  0
  140.1894   74.5722  219.5677 H   0  0  0  0  0  0  0  0  0  0  0  0
  139.5146   75.1595  222.1757 H   0  0  0  0  0  0  0  0  0  0  0  0
  140.3710   76.2441  223.2851 H   0  0  0  0  0  0  0  0  0  0  0  0
  137.6475   76.4880  222.3094 H   0  0  0  0  0  0  0  0  0  0  0  0
  138.4679   77.6196  223.3709 H   0  0  0  0  0  0  0  0  0  0  0  0
  138.2111   78.9961  221.3399 H   0  0  0  0  0  0  0  0  0  0  0  0
  140.5194   78.6458  220.1910 H   0  0  0  0  0  0  0  0  0  0  0  0
  140.6172   79.8945  222.1962 H   0  0  0  0  0  0  0  0  0  0  0  0
  140.5019   78.3523  223.1785 H   0  0  0  0  0  0  0  0  0  0  0  0
  142.6130   78.0020  221.7250 H   0  0  0  0  0  0  0  0  0  0  0  0
  138.8399   70.4033  221.5464 H   0  0  0  0  0  0  0  0  0  0  0  0
  138.6661   68.8654  223.5043 H   0  0  0  0  0  0  0  0  0  0  0  0
  139.2729   68.5061  225.8423 H   0  0  0  0  0  0  0  0  0  0  0  0
  141.5732   71.3243  228.0565 H   0  0  0  0  0  0  0  0  0  0  0  0
  141.6696   72.7611  226.0258 H   0  0  0  0  0  0  0  0  0  0  0  0
  1  2  2  0
  2  3  1  0
  3  4  1  0
  4  5  1  0
  5  6  2  0
  5  7  1  0
  7  8  1  0
  8  9  1  0
  9 10  1  0
 10 11  1  0
 10 12  1  0
 12 13  1  0
 13 14  1  0
  2 15  1  0
 15 16  2  0
 16 17  1  0
 17 18  2  0
 18 19  1  0
 19 20  2  0
 20 21  1  0
 20 22  1  0
 22 23  2  0
 23 24  1  0
 24 25  2  0
 12  7  1  0
 25 15  1  0
 24 18  1  0
  3 26  1  0
  4 27  1  0
  4 28  1  0
  8 29  1  0
  8 30  1  0
  9 31  1  0
  9 32  1  0
 10 33  1  1
 12 34  1  6
 13 35  1  0
 13 36  1  0
 14 37  1  0
 16 38  1  0
 17 39  1  0
 19 40  1  0
 22 41  1  0
 23 42  1  0
M  END
>  <smiles>  (26) 
O=C(NCC(=O)N1CC[C@H](F)[C@H]1CO)c1ccc2cc(Cl)ccc2n1

>  <score_type>  (26) 
oracle

>  <origin>  (26) 
autodockgpu

>  <m_score__min__energy>  (26) 
-6.8200000000000003

>  <m_primary>  (26) 
energy

>  <rmsd>  (26) 
2.949287273062667

>  <m_score__min__rmsd>  (26) 
2.949287273062667

>  <meeko>  (26) 
{"free_energy": -5.7, "intermolecular_energy": -7.49, "internal_energy": -1.96, "cluster_size": 21, "cluster_id": 1, "rank_in_cluster": 19}

>  <energy>  (26) 
-6.1

>  <cluster_rmsd>  (26) 
1.5

>  <cluster>  (26) 
2

$$$$

     RDKit          3D

 42 44  0  0  0  0  0  0  0  0999 V2000
  141.6120   79.8050  217.4750 O   0  0  0  0  0  0  0  0  0  0  0  0
  142.1220   79.2360  218.4680 C   0  0  0  0  0  0  0  0  0  0  0  0
  142.1720   79.9170  219.7080 N   0  0  0  0  0  0  0  0  0  0  0  0
  141.6390   81.2670  219.8460 C   0  0  0  0  0  0  0  0  0  0  0  0
  141.1190   81.5060  221.2190 C   0  0  0  0  0  0  0  0  0  0  0  0
  141.1730   82.6390  221.7840 O   0  0  0  0  0  0  0  0  0  0  0  0
  140.5450   80.4470  221.9270 N   0  0  0  0  0  0  0  0  0  0  0  0
  139.4500   79.6010  221.4950 C   0  0  0  0  0  0  0  0  0  0  0  0
  138.7770   79.1010  222.7630 C   0  0  0  0  0  0  0  0  0  0  0  0
  139.5560   79.7850  223.8770 C   0  0  2  0  0  0  0  0  0  0  0  0
  139.0350   81.0720  224.0230 F   0  0  0  0  0  0  0  0  0  0  0  0
  140.9070   79.9470  223.2550 C   0  0  1  0  0  0  0  0  0  0  0  0
  141.6230   78.6390  223.0350 C   0  0  0  0  0  0  0  0  0  0  0  0
  142.5550   78.6670  222.0100 O   0  0  0  0  0  0  0  0  0  0  0  0
  142.6710   77.8700  218.3670 C   0  0  0  0  0  0  0  0  0  0  0  0
  142.9540   77.3540  217.1200 C   0  0  0  0  0  0  0  0  0  0  0  0
  143.4710   76.0850  216.9270 C   0  0  0  0  0  0  0  0  0  0  0  0
  143.6940   75.3430  218.0870 C   0  0  0  0  0  0  0  0  0  0  0  0
  144.2050   74.0660  218.0350 C   0  0  0  0  0  0  0  0  0  0  0  0
  144.4470   73.2850  219.1240 C   0  0  0  0  0  0  0  0  0  0  0  0
  145.0960   71.6790  218.9660 Cl  0  0  0  0  0  0  0  0  0  0  0  0
  144.1640   73.8040  220.3700 C   0  0  0  0  0  0  0  0  0  0  0  0
  143.6450   75.0950  220.4530 C   0  0  0  0  0  0  0  0  0  0  0  0
  143.4090   75.8630  219.3320 C   0  0  0  0  0  0  0  0  0  0  0  0
  142.9010   77.1200  219.4720 N   0  0  0  0  0  0  0  0  0  0  0  0
  142.6060   79.4250  220.5420 H   0  0  0  0  0  0  0  0  0  0  0  0
  142.4395   81.9914  219.6350 H   0  0  0  0  0  0  0  0  0  0  0  0
  140.8083   81.3862  219.1349 H   0  0  0  0  0  0  0  0  0  0  0  0
  138.7380   80.1789  220.8874 H   0  0  0  0  0  0  0  0  0  0  0  0
  139.8081   78.7663  220.8745 H   0  0  0  0  0  0  0  0  0  0  0  0
  137.7174   79.3953  222.7872 H   0  0  0  0  0  0  0  0  0  0  0  0
  138.7861   78.0042  222.8470 H   0  0  0  0  0  0  0  0  0  0  0  0
  139.5395   79.2501  224.8380 H   0  0  0  0  0  0  0  0  0  0  0  0
  141.5675   80.5678  223.8782 H   0  0  0  0  0  0  0  0  0  0  0  0
  142.1425   78.3692  223.9663 H   0  0  0  0  0  0  0  0  0  0  0  0
  140.8572   77.9042  222.7459 H   0  0  0  0  0  0  0  0  0  0  0  0
  142.6310   77.8360  221.5090 H   0  0  0  0  0  0  0  0  0  0  0  0
  142.7596   77.9806  216.2371 H   0  0  0  0  0  0  0  0  0  0  0  0
  143.6915   75.6877  215.9252 H   0  0  0  0  0  0  0  0  0  0  0  0
  144.4340   73.6469  217.0441 H   0  0  0  0  0  0  0  0  0  0  0  0
  144.3441   73.2116  221.2792 H   0  0  0  0  0  0  0  0  0  0  0  0
  143.4165   75.5145  221.4438 H   0  0  0  0  0  0  0  0  0  0  0  0
  1  2  2  0
  2  3  1  0
  3  4  1  0
  4  5  1  0
  5  6  2  0
  5  7  1  0
  7  8  1  0
  8  9  1  0
  9 10  1  0
 10 11  1  0
 10 12  1  0
 12 13  1  0
 13 14  1  0
  2 15  1  0
 15 16  2  0
 16 17  1  0
 17 18  2  0
 18 19  1  0
 19 20  2  0
 20 21  1  0
 20 22  1  0
 22 23  2  0
 23 24  1  0
 24 25  2  0
 12  7  1  0
 25 15  1  0
 24 18  1  0
  3 26  1  0
  4 27  1  0
  4 28  1  0
  8 29  1  0
  8 30  1  0
  9 31  1  0
  9 32  1  0
 10 33  1  1
 12 34  1  1
 13 35  1  0
 13 36  1  0
 14 37  1  0
 16 38  1  0
 17 39  1  0
 19 40  1  0
 22 41  1  0
 23 42  1  0
M  END
>  <smiles>  (27) 
O=C(NCC(=O)N1CC[C@H](F)[C@H]1CO)c1ccc2cc(Cl)ccc2n1

>  <score_type>  (27) 
oracle

>  <origin>  (27) 
autodockgpu

>  <m_score__min__energy>  (27) 
-6.8200000000000003

>  <m_primary>  (27) 
energy

>  <rmsd>  (27) 
8.428086330088865

>  <m_score__min__rmsd>  (27) 
8.428086330088865

>  <meeko>  (27) 
{"free_energy": -4.93, "intermolecular_energy": -6.72, "internal_energy": -2.82, "cluster_size": 1, "cluster_id": 8, "rank_in_cluster": 1}

>  <energy>  (27) 
-5.97

>  <cluster_rmsd>  (27) 
0.0

>  <cluster>  (27) 
3

$$$$

     RDKit          3D

 42 44  0  0  0  0  0  0  0  0999 V2000
  137.2060   71.1220  221.1310 O   0  0  0  0  0  0  0  0  0  0  0  0
  137.7200   71.7020  222.1160 C   0  0  0  0  0  0  0  0  0  0  0  0
  137.8250   73.1130  222.1120 N   0  0  0  0  0  0  0  0  0  0  0  0
  137.3430   73.9010  220.9830 C   0  0  0  0  0  0  0  0  0  0  0  0
  138.3970   74.0600  219.9450 C   0  0  0  0  0  0  0  0  0  0  0  0
  138.2320   73.7020  218.7410 O   0  0  0  0  0  0  0  0  0  0  0  0
  139.6250   74.6260  220.2990 N   0  0  0  0  0  0  0  0  0  0  0  0
  139.8450   75.9310  220.8900 C   0  0  0  0  0  0  0  0  0  0  0  0
  141.2480   76.3500  220.4800 C   0  0  0  0  0  0  0  0  0  0  0  0
  141.7180   75.2060  219.5920 C   0  0  2  0  0  0  0  0  0  0  0  0
  141.2020   75.4270  218.3150 F   0  0  0  0  0  0  0  0  0  0  0  0
  140.9620   74.0460  220.1570 C   0  0  1  0  0  0  0  0  0  0  0  0
  141.4060   73.6620  221.5450 C   0  0  0  0  0  0  0  0  0  0  0  0
  140.3660   73.4480  222.4360 O   0  0  0  0  0  0  0  0  0  0  0  0
  138.2180   70.9390  223.2760 C   0  0  0  0  0  0  0  0  0  0  0  0
  137.7280   69.6700  223.5020 C   0  0  0  0  0  0  0  0  0  0  0  0
  138.1360   68.8810  224.5630 C   0  0  0  0  0  0  0  0  0  0  0  0
  139.0880   69.4520  225.4080 C   0  0  0  0  0  0  0  0  0  0  0  0
  139.5780   68.7740  226.5000 C   0  0  0  0  0  0  0  0  0  0  0  0
  140.5050   69.2680  227.3650 C   0  0  0  0  0  0  0  0  0  0  0  0
  141.0700   68.3400  228.7240 Cl  0  0  0  0  0  0  0  0  0  0  0  0
  140.9940   70.5380  227.1380 C   0  0  0  0  0  0  0  0  0  0  0  0
  140.5160   71.2490  226.0370 C   0  0  0  0  0  0  0  0  0  0  0  0
  139.5750   70.7210  225.1780 C   0  0  0  0  0  0  0  0  0  0  0  0
  139.1430   71.4620  224.1180 N   0  0  0  0  0  0  0  0  0  0  0  0
  138.2620   73.5930  222.9510 H   0  0  0  0  0  0  0  0  0  0  0  0
  136.4746   73.3941  220.5370 H   0  0  0  0  0  0  0  0  0  0  0  0
  137.0645   74.8997  221.3506 H   0  0  0  0  0  0  0  0  0  0  0  0
  139.1054   76.6514  220.5103 H   0  0  0  0  0  0  0  0  0  0  0  0
  139.7395   75.8988  221.9845 H   0  0  0  0  0  0  0  0  0  0  0  0
  141.2275   77.2976  219.9218 H   0  0  0  0  0  0  0  0  0  0  0  0
  141.9110   76.5234  221.3405 H   0  0  0  0  0  0  0  0  0  0  0  0
  142.8102   75.0823  219.5499 H   0  0  0  0  0  0  0  0  0  0  0  0
  141.0725   73.1486  219.5305 H   0  0  0  0  0  0  0  0  0  0  0  0
  141.9958   72.7362  221.4746 H   0  0  0  0  0  0  0  0  0  0  0  0
  141.9877   74.5096  221.9363 H   0  0  0  0  0  0  0  0  0  0  0  0
  140.0670   72.5240  222.4930 H   0  0  0  0  0  0  0  0  0  0  0  0
  136.9777   69.2661  222.8063 H   0  0  0  0  0  0  0  0  0  0  0  0
  137.7360   67.8699  224.7293 H   0  0  0  0  0  0  0  0  0  0  0  0
  139.1932   67.7607  226.6872 H   0  0  0  0  0  0  0  0  0  0  0  0
  141.7441   70.9801  227.8102 H   0  0  0  0  0  0  0  0  0  0  0  0
  140.9015   72.2618  225.8482 H   0  0  0  0  0  0  0  0  0  0  0  0
  1  2  2  0
  2  3  1  0
  3  4  1  0
  4  5  1  0
  5  6  2  0
  5  7  1  0
  7  8  1  0
  8  9  1  0
  9 10  1  0
 10 11  1  0
 10 12  1  0
 12 13  1  0
 13 14  1  0
  2 15  1  0
 15 16  2  0
 16 17  1  0
 17 18  2  0
 18 19  1  0
 19 20  2  0
 20 21  1  0
 20 22  1  0
 22 23  2  0
 23 24  1  0
 24 25  2  0
 12  7  1  0
 25 15  1  0
 24 18  1  0
  3 26  1  0
  4 27  1  0
  4 28  1  0
  8 29  1  0
  8 30  1  0
  9 31  1  0
  9 32  1  0
 10 33  1  6
 12 34  1  6
 13 35  1  0
 13 36  1  0
 14 37  1  0
 16 38  1  0
 17 39  1  0
 19 40  1  0
 22 41  1  0
 23 42  1  0
M  END
>  <smiles>  (28) 
O=C(NCC(=O)N1CC[C@H](F)[C@H]1CO)c1ccc2cc(Cl)ccc2n1

>  <score_type>  (28) 
oracle

>  <origin>  (28) 
autodockgpu

>  <m_score__min__energy>  (28) 
-6.8200000000000003

>  <m_primary>  (28) 
energy

>  <rmsd>  (28) 
2.423684737249636

>  <m_score__min__rmsd>  (28) 
2.423684737249636

>  <meeko>  (28) 
{"free_energy": -5.29, "intermolecular_energy": -7.08, "internal_energy": -2.7, "cluster_size": 11, "cluster_id": 4, "rank_in_cluster": 9}

>  <energy>  (28) 
-5.97

>  <cluster_rmsd>  (28) 
0.0

>  <cluster>  (28) 
4

$$$$

     RDKit          3D

 42 44  0  0  0  0  0  0  0  0999 V2000
  139.9790   72.4680  220.8450 O   0  0  0  0  0  0  0  0  0  0  0  0
  139.8320   72.8230  222.0380 C   0  0  0  0  0  0  0  0  0  0  0  0
  139.5810   74.1850  222.3280 N   0  0  0  0  0  0  0  0  0  0  0  0
  139.4890   75.1780  221.2640 C   0  0  0  0  0  0  0  0  0  0  0  0
  139.2020   76.5320  221.8080 C   0  0  0  0  0  0  0  0  0  0  0  0
  138.0690   76.8580  222.2720 O   0  0  0  0  0  0  0  0  0  0  0  0
  140.2150   77.4950  221.8140 N   0  0  0  0  0  0  0  0  0  0  0  0
  141.1040   77.8190  222.9130 C   0  0  0  0  0  0  0  0  0  0  0  0
  141.5190   79.2670  222.7070 C   0  0  0  0  0  0  0  0  0  0  0  0
  140.7450   79.6900  221.4670 C   0  0  2  0  0  0  0  0  0  0  0  0
  139.4580   80.0430  221.8760 F   0  0  0  0  0  0  0  0  0  0  0  0
  140.6120   78.3950  220.7300 C   0  0  1  0  0  0  0  0  0  0  0  0
  141.9240   77.8700  220.2030 C   0  0  0  0  0  0  0  0  0  0  0  0
  142.1250   76.5180  220.4260 O   0  0  0  0  0  0  0  0  0  0  0  0
  139.9180   71.8480  223.1420 C   0  0  0  0  0  0  0  0  0  0  0  0
  139.4760   70.5590  222.9300 C   0  0  0  0  0  0  0  0  0  0  0  0
  139.5180   69.5770  223.9050 C   0  0  0  0  0  0  0  0  0  0  0  0
  140.0410   69.9720  225.1360 C   0  0  0  0  0  0  0  0  0  0  0  0
  140.1380   69.0940  226.1900 C   0  0  0  0  0  0  0  0  0  0  0  0
  140.6360   69.4090  227.4170 C   0  0  0  0  0  0  0  0  0  0  0  0
  140.7220   68.2330  228.6960 Cl  0  0  0  0  0  0  0  0  0  0  0  0
  141.0770   70.6990  227.6260 C   0  0  0  0  0  0  0  0  0  0  0  0
  140.9910   71.6120  226.5750 C   0  0  0  0  0  0  0  0  0  0  0  0
  140.4810   71.2630  225.3430 C   0  0  0  0  0  0  0  0  0  0  0  0
  140.4200   72.1960  224.3510 N   0  0  0  0  0  0  0  0  0  0  0  0
  139.4590   74.4750  223.3420 H   0  0  0  0  0  0  0  0  0  0  0  0
  140.4435   75.2067  220.7179 H   0  0  0  0  0  0  0  0  0  0  0  0
  138.6643   74.8922  220.5945 H   0  0  0  0  0  0  0  0  0  0  0  0
  140.5806   77.7049  223.8737 H   0  0  0  0  0  0  0  0  0  0  0  0
  141.9769   77.1500  222.9343 H   0  0  0  0  0  0  0  0  0  0  0  0
  141.2381   79.8829  223.5740 H   0  0  0  0  0  0  0  0  0  0  0  0
  142.6064   79.3871  222.5929 H   0  0  0  0  0  0  0  0  0  0  0  0
  141.2080   80.5110  220.8999 H   0  0  0  0  0  0  0  0  0  0  0  0
  139.9391   78.4902  219.8651 H   0  0  0  0  0  0  0  0  0  0  0  0
  141.9566   78.0493  219.1182 H   0  0  0  0  0  0  0  0  0  0  0  0
  142.7187   78.4017  220.7469 H   0  0  0  0  0  0  0  0  0  0  0  0
  142.4280   76.2970  221.3250 H   0  0  0  0  0  0  0  0  0  0  0  0
  139.0714   70.2991  221.9407 H   0  0  0  0  0  0  0  0  0  0  0  0
  139.1622   68.5525  223.7208 H   0  0  0  0  0  0  0  0  0  0  0  0
  139.7881   68.0635  226.0301 H   0  0  0  0  0  0  0  0  0  0  0  0
  141.4877   71.0013  228.6006 H   0  0  0  0  0  0  0  0  0  0  0  0
  141.3411   72.6426  226.7343 H   0  0  0  0  0  0  0  0  0  0  0  0
  1  2  2  0
  2  3  1  0
  3  4  1  0
  4  5  1  0
  5  6  2  0
  5  7  1  0
  7  8  1  0
  8  9  1  0
  9 10  1  0
 10 11  1  0
 10 12  1  0
 12 13  1  0
 13 14  1  0
  2 15  1  0
 15 16  2  0
 16 17  1  0
 17 18  2  0
 18 19  1  0
 19 20  2  0
 20 21  1  0
 20 22  1  0
 22 23  2  0
 23 24  1  0
 24 25  2  0
 12  7  1  0
 25 15  1  0
 24 18  1  0
  3 26  1  0
  4 27  1  0
  4 28  1  0
  8 29  1  0
  8 30  1  0
  9 31  1  0
  9 32  1  0
 10 33  1  6
 12 34  1  6
 13 35  1  0
 13 36  1  0
 14 37  1  0
 16 38  1  0
 17 39  1  0
 19 40  1  0
 22 41  1  0
 23 42  1  0
M  END
>  <smiles>  (29) 
O=C(NCC(=O)N1CC[C@H](F)[C@H]1CO)c1ccc2cc(Cl)ccc2n1

>  <score_type>  (29) 
oracle

>  <origin>  (29) 
autodockgpu

>  <m_score__min__energy>  (29) 
-6.8200000000000003

>  <m_primary>  (29) 
energy

>  <rmsd>  (29) 
2.95597559169162

>  <m_score__min__rmsd>  (29) 
2.95597559169162

>  <meeko>  (29) 
{"free_energy": -6.82, "intermolecular_energy": -8.61, "internal_energy": -1.13, "cluster_size": 21, "cluster_id": 1, "rank_in_cluster": 1}

>  <energy>  (29) 
-5.71

>  <cluster_rmsd>  (29) 
1.03

>  <cluster>  (29) 
4

$$$$

     RDKit          3D

 42 44  0  0  0  0  0  0  0  0999 V2000
  139.8200   71.8530  220.9430 O   0  0  0  0  0  0  0  0  0  0  0  0
  139.7390   72.2880  222.1150 C   0  0  0  0  0  0  0  0  0  0  0  0
  139.5250   73.6710  222.3280 N   0  0  0  0  0  0  0  0  0  0  0  0
  139.3970   74.5940  221.2060 C   0  0  0  0  0  0  0  0  0  0  0  0
  140.7030   75.2200  220.8680 C   0  0  0  0  0  0  0  0  0  0  0  0
  141.7180   74.5450  220.5230 O   0  0  0  0  0  0  0  0  0  0  0  0
  140.8320   76.6110  220.9310 N   0  0  0  0  0  0  0  0  0  0  0  0
  141.0620   77.4120  222.1170 C   0  0  0  0  0  0  0  0  0  0  0  0
  140.4800   78.7850  221.8190 C   0  0  0  0  0  0  0  0  0  0  0  0
  139.8850   78.6270  220.4270 C   0  0  2  0  0  0  0  0  0  0  0  0
  138.6240   78.0470  220.5730 F   0  0  0  0  0  0  0  0  0  0  0  0
  140.7660   77.5750  219.8320 C   0  0  1  0  0  0  0  0  0  0  0  0
  142.1790   78.0440  219.5930 C   0  0  0  0  0  0  0  0  0  0  0  0
  143.1400   77.0620  219.7690 O   0  0  0  0  0  0  0  0  0  0  0  0
  139.8620   71.3850  223.2760 C   0  0  0  0  0  0  0  0  0  0  0  0
  139.4590   70.0730  223.1460 C   0  0  0  0  0  0  0  0  0  0  0  0
  139.5380   69.1540  224.1790 C   0  0  0  0  0  0  0  0  0  0  0  0
  140.0570   69.6390  225.3790 C   0  0  0  0  0  0  0  0  0  0  0  0
  140.1890   68.8290  226.4830 C   0  0  0  0  0  0  0  0  0  0  0  0
  140.6860   69.2340  227.6850 C   0  0  0  0  0  0  0  0  0  0  0  0
  140.8170   68.1410  229.0310 Cl  0  0  0  0  0  0  0  0  0  0  0  0
  141.0880   70.5480  227.8110 C   0  0  0  0  0  0  0  0  0  0  0  0
  140.9670   71.3920  226.7070 C   0  0  0  0  0  0  0  0  0  0  0  0
  140.4590   70.9530  225.5030 C   0  0  0  0  0  0  0  0  0  0  0  0
  140.3620   71.8220  224.4570 N   0  0  0  0  0  0  0  0  0  0  0  0
  139.4580   74.0280  223.3250 H   0  0  0  0  0  0  0  0  0  0  0  0
  139.0266   74.0426  220.3292 H   0  0  0  0  0  0  0  0  0  0  0  0
  138.6941   75.3907  221.4910 H   0  0  0  0  0  0  0  0  0  0  0  0
  140.5562   76.9632  222.9846 H   0  0  0  0  0  0  0  0  0  0  0  0
  142.1334   77.4738  222.3582 H   0  0  0  0  0  0  0  0  0  0  0  0
  139.7024   79.0493  222.5508 H   0  0  0  0  0  0  0  0  0  0  0  0
  141.2294   79.5883  221.8749 H   0  0  0  0  0  0  0  0  0  0  0  0
  139.8145   79.5633  219.8539 H   0  0  0  0  0  0  0  0  0  0  0  0
  140.3810   77.2267  218.8622 H   0  0  0  0  0  0  0  0  0  0  0  0
  142.2495   78.4146  218.5597 H   0  0  0  0  0  0  0  0  0  0  0  0
  142.3839   78.8247  220.3403 H   0  0  0  0  0  0  0  0  0  0  0  0
  142.9220   76.3990  220.4480 H   0  0  0  0  0  0  0  0  0  0  0  0
  139.0564   69.7410  222.1777 H   0  0  0  0  0  0  0  0  0  0  0  0
  139.2127   68.1099  224.0607 H   0  0  0  0  0  0  0  0  0  0  0  0
  139.8708   67.7803  226.3886 H   0  0  0  0  0  0  0  0  0  0  0  0
  141.4953   70.9220  228.7619 H   0  0  0  0  0  0  0  0  0  0  0  0
  141.2868   72.4404  226.8000 H   0  0  0  0  0  0  0  0  0  0  0  0
  1  2  2  0
  2  3  1  0
  3  4  1  0
  4  5  1  0
  5  6  2  0
  5  7  1  0
  7  8  1  0
  8  9  1  0
  9 10  1  0
 10 11  1  0
 10 12  1  0
 12 13  1  0
 13 14  1  0
  2 15  1  0
 15 16  2  0
 16 17  1  0
 17 18  2  0
 18 19  1  0
 19 20  2  0
 20 21  1  0
 20 22  1  0
 22 23  2  0
 23 24  1  0
 24 25  2  0
 12  7  1  0
 25 15  1  0
 24 18  1  0
  3 26  1  0
  4 27  1  0
  4 28  1  0
  8 29  1  0
  8 30  1  0
  9 31  1  0
  9 32  1  0
 10 33  1  6
 12 34  1  6
 13 35  1  0
 13 36  1  0
 14 37  1  0
 16 38  1  0
 17 39  1  0
 19 40  1  0
 22 41  1  0
 23 42  1  0
M  END
>  <smiles>  (30) 
O=C(NCC(=O)N1CC[C@H](F)[C@H]1CO)c1ccc2cc(Cl)ccc2n1

>  <score_type>  (30) 
oracle

>  <origin>  (30) 
autodockgpu

>  <m_score__min__energy>  (30) 
-6.8200000000000003

>  <m_primary>  (30) 
energy

>  <rmsd>  (30) 
2.411862347072887

>  <m_score__min__rmsd>  (30) 
2.411862347072887

>  <meeko>  (30) 
{"free_energy": -6.01, "intermolecular_energy": -7.8, "internal_energy": -1.75, "cluster_size": 21, "cluster_id": 1, "rank_in_cluster": 8}

>  <energy>  (30) 
-5.7

>  <cluster_rmsd>  (30) 
1.58

>  <cluster>  (30) 
4

$$$$

     RDKit          3D

 42 44  0  0  0  0  0  0  0  0999 V2000
  136.6840   70.8850  221.5080 O   0  0  0  0  0  0  0  0  0  0  0  0
  137.3340   71.4830  222.3960 C   0  0  0  0  0  0  0  0  0  0  0  0
  137.4680   72.8910  222.3270 N   0  0  0  0  0  0  0  0  0  0  0  0
  136.8620   73.6520  221.2410 C   0  0  0  0  0  0  0  0  0  0  0  0
  137.4530   73.2860  219.9270 C   0  0  0  0  0  0  0  0  0  0  0  0
  136.7500   73.0710  218.8950 O   0  0  0  0  0  0  0  0  0  0  0  0
  138.8410   73.1700  219.8090 N   0  0  0  0  0  0  0  0  0  0  0  0
  139.6820   73.7650  218.7890 C   0  0  0  0  0  0  0  0  0  0  0  0
  140.9050   72.8680  218.6760 C   0  0  0  0  0  0  0  0  0  0  0  0
  140.6180   71.7430  219.6590 C   0  0  2  0  0  0  0  0  0  0  0  0
  139.7940   70.8200  219.0120 F   0  0  0  0  0  0  0  0  0  0  0  0
  139.7630   72.4310  220.6750 C   0  0  1  0  0  0  0  0  0  0  0  0
  140.5070   73.4650  221.4810 C   0  0  0  0  0  0  0  0  0  0  0  0
  139.9190   73.7650  222.6990 O   0  0  0  0  0  0  0  0  0  0  0  0
  137.9620   70.7480  223.5110 C   0  0  0  0  0  0  0  0  0  0  0  0
  137.5740   69.4470  223.7550 C   0  0  0  0  0  0  0  0  0  0  0  0
  138.1070   68.6790  224.7760 C   0  0  0  0  0  0  0  0  0  0  0  0
  139.0760   69.3070  225.5590 C   0  0  0  0  0  0  0  0  0  0  0  0
  139.6850   68.6550  226.6060 C   0  0  0  0  0  0  0  0  0  0  0  0
  140.6370   69.2040  227.4100 C   0  0  0  0  0  0  0  0  0  0  0  0
  141.3550   68.3060  228.7150 Cl  0  0  0  0  0  0  0  0  0  0  0  0
  141.0230   70.5050  227.1640 C   0  0  0  0  0  0  0  0  0  0  0  0
  140.4220   71.1910  226.1080 C   0  0  0  0  0  0  0  0  0  0  0  0
  139.4600   70.6080  225.3100 C   0  0  0  0  0  0  0  0  0  0  0  0
  138.9070   71.3250  224.2920 N   0  0  0  0  0  0  0  0  0  0  0  0
  138.0210   73.3870  223.0840 H   0  0  0  0  0  0  0  0  0  0  0  0
  135.7819   73.4448  221.2179 H   0  0  0  0  0  0  0  0  0  0  0  0
  137.0505   74.7209  221.4199 H   0  0  0  0  0  0  0  0  0  0  0  0
  139.1474   73.8046  217.8285 H   0  0  0  0  0  0  0  0  0  0  0  0
  139.9622   74.7962  219.0499 H   0  0  0  0  0  0  0  0  0  0  0  0
  141.0121   72.4776  217.6532 H   0  0  0  0  0  0  0  0  0  0  0  0
  141.8440   73.3972  218.8955 H   0  0  0  0  0  0  0  0  0  0  0  0
  141.5157   71.2463  220.0558 H   0  0  0  0  0  0  0  0  0  0  0  0
  139.3367   71.7167  221.3947 H   0  0  0  0  0  0  0  0  0  0  0  0
  141.5229   73.0887  221.6715 H   0  0  0  0  0  0  0  0  0  0  0  0
  140.5006   74.3923  220.8894 H   0  0  0  0  0  0  0  0  0  0  0  0
  139.4610   73.0180  223.1230 H   0  0  0  0  0  0  0  0  0  0  0  0
  136.8053   68.9989  223.1082 H   0  0  0  0  0  0  0  0  0  0  0  0
  137.7876   67.6422  224.9579 H   0  0  0  0  0  0  0  0  0  0  0  0
  139.3816   67.6171  226.8080 H   0  0  0  0  0  0  0  0  0  0  0  0
  141.7882   70.9914  227.7869 H   0  0  0  0  0  0  0  0  0  0  0  0
  140.7248   72.2290  225.9057 H   0  0  0  0  0  0  0  0  0  0  0  0
  1  2  2  0
  2  3  1  0
  3  4  1  0
  4  5  1  0
  5  6  2  0
  5  7  1  0
  7  8  1  0
  8  9  1  0
  9 10  1  0
 10 11  1  0
 10 12  1  0
 12 13  1  0
 13 14  1  0
  2 15  1  0
 15 16  2  0
 16 17  1  0
 17 18  2  0
 18 19  1  0
 19 20  2  0
 20 21  1  0
 20 22  1  0
 22 23  2  0
 23 24  1  0
 24 25  2  0
 12  7  1  0
 25 15  1  0
 24 18  1  0
  3 26  1  0
  4 27  1  0
  4 28  1  0
  8 29  1  0
  8 30  1  0
  9 31  1  0
  9 32  1  0
 10 33  1  1
 12 34  1  1
 13 35  1  0
 13 36  1  0
 14 37  1  0
 16 38  1  0
 17 39  1  0
 19 40  1  0
 22 41  1  0
 23 42  1  0
M  END
>  <smiles>  (31) 
O=C(NCC(=O)N1CC[C@H](F)[C@H]1CO)c1ccc2cc(Cl)ccc2n1

>  <score_type>  (31) 
oracle

>  <origin>  (31) 
autodockgpu

>  <m_score__min__energy>  (31) 
-6.8200000000000003

>  <m_primary>  (31) 
energy

>  <rmsd>  (31) 
2.715183464747769

>  <m_score__min__rmsd>  (31) 
2.715183464747769

>  <meeko>  (31) 
{"free_energy": -5.13, "intermolecular_energy": -6.92, "internal_energy": -2.7, "cluster_size": 4, "cluster_id": 6, "rank_in_cluster": 3}

>  <energy>  (31) 
-5.65

>  <cluster_rmsd>  (31) 
1.64

>  <cluster>  (31) 
4

$$$$

     RDKit          3D

 42 44  0  0  0  0  0  0  0  0999 V2000
  139.9800   71.9970  220.9480 O   0  0  0  0  0  0  0  0  0  0  0  0
  139.8610   72.4130  222.1240 C   0  0  0  0  0  0  0  0  0  0  0  0
  139.6450   73.7940  222.3510 N   0  0  0  0  0  0  0  0  0  0  0  0
  139.5580   74.7350  221.2400 C   0  0  0  0  0  0  0  0  0  0  0  0
  140.8980   75.2640  220.8730 C   0  0  0  0  0  0  0  0  0  0  0  0
  141.9450   74.5500  220.8890 O   0  0  0  0  0  0  0  0  0  0  0  0
  141.0250   76.6030  220.4920 N   0  0  0  0  0  0  0  0  0  0  0  0
  141.0570   77.7580  221.3670 C   0  0  0  0  0  0  0  0  0  0  0  0
  140.5440   78.9270  220.5410 C   0  0  0  0  0  0  0  0  0  0  0  0
  140.1910   78.2940  219.2030 C   0  0  2  0  0  0  0  0  0  0  0  0
  138.9190   77.7320  219.3270 F   0  0  0  0  0  0  0  0  0  0  0  0
  141.1520   77.1500  219.1400 C   0  0  1  0  0  0  0  0  0  0  0  0
  142.5880   77.5830  218.9910 C   0  0  0  0  0  0  0  0  0  0  0  0
  143.4990   76.7610  219.6340 O   0  0  0  0  0  0  0  0  0  0  0  0
  139.9420   71.4920  223.2730 C   0  0  0  0  0  0  0  0  0  0  0  0
  139.5120   70.1910  223.1180 C   0  0  0  0  0  0  0  0  0  0  0  0
  139.5510   69.2560  224.1380 C   0  0  0  0  0  0  0  0  0  0  0  0
  140.0590   69.7120  225.3540 C   0  0  0  0  0  0  0  0  0  0  0  0
  140.1520   68.8840  226.4490 C   0  0  0  0  0  0  0  0  0  0  0  0
  140.6350   69.2610  227.6650 C   0  0  0  0  0  0  0  0  0  0  0  0
  140.7170   68.1460  228.9980 Cl  0  0  0  0  0  0  0  0  0  0  0  0
  141.0650   70.5630  227.8170 C   0  0  0  0  0  0  0  0  0  0  0  0
  140.9830   71.4250  226.7240 C   0  0  0  0  0  0  0  0  0  0  0  0
  140.4870   71.0140  225.5040 C   0  0  0  0  0  0  0  0  0  0  0  0
  140.4300   71.9000  224.4700 N   0  0  0  0  0  0  0  0  0  0  0  0
  139.5460   74.1350  223.3510 H   0  0  0  0  0  0  0  0  0  0  0  0
  139.1247   74.2217  220.3689 H   0  0  0  0  0  0  0  0  0  0  0  0
  138.9246   75.5794  221.5494 H   0  0  0  0  0  0  0  0  0  0  0  0
  140.4083   77.5937  222.2401 H   0  0  0  0  0  0  0  0  0  0  0  0
  142.0724   77.9479  221.7449 H   0  0  0  0  0  0  0  0  0  0  0  0
  139.6562   79.3781  221.0082 H   0  0  0  0  0  0  0  0  0  0  0  0
  141.2798   79.7394  220.4480 H   0  0  0  0  0  0  0  0  0  0  0  0
  140.2246   78.9869  218.3493 H   0  0  0  0  0  0  0  0  0  0  0  0
  140.9333   76.4854  218.2912 H   0  0  0  0  0  0  0  0  0  0  0  0
  142.8341   77.5984  217.9190 H   0  0  0  0  0  0  0  0  0  0  0  0
  142.6696   78.5739  219.4615 H   0  0  0  0  0  0  0  0  0  0  0  0
  143.1520   76.3160  220.4280 H   0  0  0  0  0  0  0  0  0  0  0  0
  139.1196   69.8817  222.1380 H   0  0  0  0  0  0  0  0  0  0  0  0
  139.2041   68.2215  223.9985 H   0  0  0  0  0  0  0  0  0  0  0  0
  139.8122   67.8442  226.3339 H   0  0  0  0  0  0  0  0  0  0  0  0
  141.4641   70.9138  228.7801 H   0  0  0  0  0  0  0  0  0  0  0  0
  141.3242   72.4645  226.8380 H   0  0  0  0  0  0  0  0  0  0  0  0
  1  2  2  0
  2  3  1  0
  3  4  1  0
  4  5  1  0
  5  6  2  0
  5  7  1  0
  7  8  1  0
  8  9  1  0
  9 10  1  0
 10 11  1  0
 10 12  1  0
 12 13  1  0
 13 14  1  0
  2 15  1  0
 15 16  2  0
 16 17  1  0
 17 18  2  0
 18 19  1  0
 19 20  2  0
 20 21  1  0
 20 22  1  0
 22 23  2  0
 23 24  1  0
 24 25  2  0
 12  7  1  0
 25 15  1  0
 24 18  1  0
  3 26  1  0
  4 27  1  0
  4 28  1  0
  8 29  1  0
  8 30  1  0
  9 31  1  0
  9 32  1  0
 10 33  1  6
 12 34  1  6
 13 35  1  0
 13 36  1  0
 14 37  1  0
 16 38  1  0
 17 39  1  0
 19 40  1  0
 22 41  1  0
 23 42  1  0
M  END
>  <smiles>  (32) 
O=C(NCC(=O)N1CC[C@H](F)[C@H]1CO)c1ccc2cc(Cl)ccc2n1

>  <score_type>  (32) 
oracle

>  <origin>  (32) 
autodockgpu

>  <m_score__min__energy>  (32) 
-6.8200000000000003

>  <m_primary>  (32) 
energy

>  <rmsd>  (32) 
2.271457968760994

>  <m_score__min__rmsd>  (32) 
2.271457968760994

>  <meeko>  (32) 
{"free_energy": -6.02, "intermolecular_energy": -7.81, "internal_energy": -1.76, "cluster_size": 21, "cluster_id": 1, "rank_in_cluster": 6}

>  <energy>  (32) 
-5.59

>  <cluster_rmsd>  (32) 
1.73

>  <cluster>  (32) 
4

$$$$

     RDKit          3D

 42 44  0  0  0  0  0  0  0  0999 V2000
  141.3630   71.3350  221.4410 O   0  0  0  0  0  0  0  0  0  0  0  0
  140.9730   72.3830  222.0050 C   0  0  0  0  0  0  0  0  0  0  0  0
  140.2740   72.2910  223.2320 N   0  0  0  0  0  0  0  0  0  0  0  0
  140.0040   70.9970  223.8490 C   0  0  0  0  0  0  0  0  0  0  0  0
  140.4600   70.9660  225.2640 C   0  0  0  0  0  0  0  0  0  0  0  0
  140.9150   71.9880  225.8600 O   0  0  0  0  0  0  0  0  0  0  0  0
  140.3910   69.7670  225.9790 N   0  0  0  0  0  0  0  0  0  0  0  0
  141.4530   68.7970  226.1570 C   0  0  0  0  0  0  0  0  0  0  0  0
  140.7680   67.4580  226.3850 C   0  0  0  0  0  0  0  0  0  0  0  0
  139.2870   67.7870  226.2570 C   0  0  2  0  0  0  0  0  0  0  0  0
  138.9760   67.7940  224.8970 F   0  0  0  0  0  0  0  0  0  0  0  0
  139.2480   69.2130  226.7060 C   0  0  1  0  0  0  0  0  0  0  0  0
  139.5530   69.3870  228.1720 C   0  0  0  0  0  0  0  0  0  0  0  0
  140.0140   70.6480  228.5100 O   0  0  0  0  0  0  0  0  0  0  0  0
  141.2270   73.7100  221.4110 C   0  0  0  0  0  0  0  0  0  0  0  0
  141.9580   73.7910  220.2440 C   0  0  0  0  0  0  0  0  0  0  0  0
  142.2460   74.9900  219.6150 C   0  0  0  0  0  0  0  0  0  0  0  0
  141.7460   76.1330  220.2400 C   0  0  0  0  0  0  0  0  0  0  0  0
  141.9610   77.3880  219.7190 C   0  0  0  0  0  0  0  0  0  0  0  0
  141.5050   78.5440  220.2730 C   0  0  0  0  0  0  0  0  0  0  0  0
  141.8250   80.0920  219.5450 Cl  0  0  0  0  0  0  0  0  0  0  0  0
  140.7750   78.4610  221.4400 C   0  0  0  0  0  0  0  0  0  0  0  0
  140.5410   77.2010  221.9920 C   0  0  0  0  0  0  0  0  0  0  0  0
  141.0160   76.0470  221.4070 C   0  0  0  0  0  0  0  0  0  0  0  0
  140.7570   74.8420  221.9900 N   0  0  0  0  0  0  0  0  0  0  0  0
  139.9470   73.1860  223.7000 H   0  0  0  0  0  0  0  0  0  0  0  0
  138.9215   70.8041  223.8173 H   0  0  0  0  0  0  0  0  0  0  0  0
  140.5540   70.2252  223.2906 H   0  0  0  0  0  0  0  0  0  0  0  0
  142.0854   68.7541  225.2580 H   0  0  0  0  0  0  0  0  0  0  0  0
  142.1038   69.0644  227.0026 H   0  0  0  0  0  0  0  0  0  0  0  0
  141.0747   66.7253  225.6240 H   0  0  0  0  0  0  0  0  0  0  0  0
  141.0233   67.0071  227.3553 H   0  0  0  0  0  0  0  0  0  0  0  0
  138.6198   67.1026  226.8014 H   0  0  0  0  0  0  0  0  0  0  0  0
  138.2592   69.6632  226.5340 H   0  0  0  0  0  0  0  0  0  0  0  0
  138.6322   69.1923  228.7414 H   0  0  0  0  0  0  0  0  0  0  0  0
  140.3606   68.6801  228.4129 H   0  0  0  0  0  0  0  0  0  0  0  0
  140.2160   71.2220  227.7510 H   0  0  0  0  0  0  0  0  0  0  0  0
  142.3294   72.8594  219.7922 H   0  0  0  0  0  0  0  0  0  0  0  0
  142.8302   75.0385  218.6843 H   0  0  0  0  0  0  0  0  0  0  0  0
  142.5429   77.4621  218.7884 H   0  0  0  0  0  0  0  0  0  0  0  0
  140.3857   79.3682  221.9251 H   0  0  0  0  0  0  0  0  0  0  0  0
  139.9595   77.1264  222.9228 H   0  0  0  0  0  0  0  0  0  0  0  0
  1  2  2  0
  2  3  1  0
  3  4  1  0
  4  5  1  0
  5  6  2  0
  5  7  1  0
  7  8  1  0
  8  9  1  0
  9 10  1  0
 10 11  1  0
 10 12  1  0
 12 13  1  0
 13 14  1  0
  2 15  1  0
 15 16  2  0
 16 17  1  0
 17 18  2  0
 18 19  1  0
 19 20  2  0
 20 21  1  0
 20 22  1  0
 22 23  2  0
 23 24  1  0
 24 25  2  0
 12  7  1  0
 25 15  1  0
 24 18  1  0
  3 26  1  0
  4 27  1  0
  4 28  1  0
  8 29  1  0
  8 30  1  0
  9 31  1  0
  9 32  1  0
 10 33  1  1
 12 34  1  6
 13 35  1  0
 13 36  1  0
 14 37  1  0
 16 38  1  0
 17 39  1  0
 19 40  1  0
 22 41  1  0
 23 42  1  0
M  END
>  <smiles>  (33) 
O=C(NCC(=O)N1CC[C@H](F)[C@H]1CO)c1ccc2cc(Cl)ccc2n1

>  <score_type>  (33) 
oracle

>  <origin>  (33) 
autodockgpu

>  <m_score__min__energy>  (33) 
-6.8200000000000003

>  <m_primary>  (33) 
energy

>  <rmsd>  (33) 
8.914123270983405

>  <m_score__min__rmsd>  (33) 
8.914123270983405

>  <meeko>  (33) 
{"free_energy": -6.14, "intermolecular_energy": -7.93, "internal_energy": -2.02, "cluster_size": 5, "cluster_id": 2, "rank_in_cluster": 4}

>  <energy>  (33) 
-5.57

>  <cluster_rmsd>  (33) 
1.18

>  <cluster>  (33) 
4

$$$$

     RDKit          3D

 42 44  0  0  0  0  0  0  0  0999 V2000
  137.7210   70.9790  220.7440 O   0  0  0  0  0  0  0  0  0  0  0  0
  137.9410   71.5760  221.8230 C   0  0  0  0  0  0  0  0  0  0  0  0
  137.7200   72.9720  221.8990 N   0  0  0  0  0  0  0  0  0  0  0  0
  137.2390   73.7220  220.7450 C   0  0  0  0  0  0  0  0  0  0  0  0
  138.2300   73.7030  219.6360 C   0  0  0  0  0  0  0  0  0  0  0  0
  137.9380   73.3220  218.4640 O   0  0  0  0  0  0  0  0  0  0  0  0
  139.5410   74.1200  219.8820 N   0  0  0  0  0  0  0  0  0  0  0  0
  140.0340   75.4830  219.8960 C   0  0  0  0  0  0  0  0  0  0  0  0
  141.5110   75.4010  219.5420 C   0  0  0  0  0  0  0  0  0  0  0  0
  141.7380   73.9180  219.2890 C   0  0  2  0  0  0  0  0  0  0  0  0
  141.3360   73.6500  217.9790 F   0  0  0  0  0  0  0  0  0  0  0  0
  140.7120   73.2930  220.1790 C   0  0  1  0  0  0  0  0  0  0  0  0
  141.0010   73.4790  221.6470 C   0  0  0  0  0  0  0  0  0  0  0  0
  139.9450   74.0070  222.3720 O   0  0  0  0  0  0  0  0  0  0  0  0
  138.4280   70.8510  223.0120 C   0  0  0  0  0  0  0  0  0  0  0  0
  138.1140   69.5160  223.1550 C   0  0  0  0  0  0  0  0  0  0  0  0
  138.5260   68.7550  224.2360 C   0  0  0  0  0  0  0  0  0  0  0  0
  139.2900   69.4270  225.1890 C   0  0  0  0  0  0  0  0  0  0  0  0
  139.7630   68.7870  226.3120 C   0  0  0  0  0  0  0  0  0  0  0  0
  140.5120   69.3790  227.2820 C   0  0  0  0  0  0  0  0  0  0  0  0
  141.0690   68.4920  228.6710 Cl  0  0  0  0  0  0  0  0  0  0  0  0
  140.8240   70.7150  227.1370 C   0  0  0  0  0  0  0  0  0  0  0  0
  140.3590   71.3890  226.0080 C   0  0  0  0  0  0  0  0  0  0  0  0
  139.6010   70.7630  225.0420 C   0  0  0  0  0  0  0  0  0  0  0  0
  139.1720   71.4720  223.9590 N   0  0  0  0  0  0  0  0  0  0  0  0
  137.9100   73.4670  222.8180 H   0  0  0  0  0  0  0  0  0  0  0  0
  136.2986   73.2731  220.3927 H   0  0  0  0  0  0  0  0  0  0  0  0
  137.0812   74.7666  221.0514 H   0  0  0  0  0  0  0  0  0  0  0  0
  139.4966   76.0910  219.1533 H   0  0  0  0  0  0  0  0  0  0  0  0
  139.8817   75.9554  220.8776 H   0  0  0  0  0  0  0  0  0  0  0  0
  141.7319   75.9913  218.6405 H   0  0  0  0  0  0  0  0  0  0  0  0
  142.1622   75.8038  220.3317 H   0  0  0  0  0  0  0  0  0  0  0  0
  142.7727   73.5820  219.4517 H   0  0  0  0  0  0  0  0  0  0  0  0
  140.6355   72.2092  220.0070 H   0  0  0  0  0  0  0  0  0  0  0  0
  141.2570   72.4985  222.0750 H   0  0  0  0  0  0  0  0  0  0  0  0
  141.8257   74.2035  221.7171 H   0  0  0  0  0  0  0  0  0  0  0  0
  139.5830   73.4120  223.0520 H   0  0  0  0  0  0  0  0  0  0  0  0
  137.5081   69.0331  222.3741 H   0  0  0  0  0  0  0  0  0  0  0  0
  138.2675   67.6905  224.3362 H   0  0  0  0  0  0  0  0  0  0  0  0
  139.5183   67.7215  226.4342 H   0  0  0  0  0  0  0  0  0  0  0  0
  141.4262   71.2371  227.8951 H   0  0  0  0  0  0  0  0  0  0  0  0
  140.6050   72.4540  225.8846 H   0  0  0  0  0  0  0  0  0  0  0  0
  1  2  2  0
  2  3  1  0
  3  4  1  0
  4  5  1  0
  5  6  2  0
  5  7  1  0
  7  8  1  0
  8  9  1  0
  9 10  1  0
 10 11  1  0
 10 12  1  0
 12 13  1  0
 13 14  1  0
  2 15  1  0
 15 16  2  0
 16 17  1  0
 17 18  2  0
 18 19  1  0
 19 20  2  0
 20 21  1  0
 20 22  1  0
 22 23  2  0
 23 24  1  0
 24 25  2  0
 12  7  1  0
 25 15  1  0
 24 18  1  0
  3 26  1  0
  4 27  1  0
  4 28  1  0
  8 29  1  0
  8 30  1  0
  9 31  1  0
  9 32  1  0
 10 33  1  1
 12 34  1  1
 13 35  1  0
 13 36  1  0
 14 37  1  0
 16 38  1  0
 17 39  1  0
 19 40  1  0
 22 41  1  0
 23 42  1  0
M  END
>  <smiles>  (34) 
O=C(NCC(=O)N1CC[C@H](F)[C@H]1CO)c1ccc2cc(Cl)ccc2n1

>  <score_type>  (34) 
oracle

>  <origin>  (34) 
autodockgpu

>  <m_score__min__energy>  (34) 
-6.8200000000000003

>  <m_primary>  (34) 
energy

>  <rmsd>  (34) 
2.422738666094884

>  <m_score__min__rmsd>  (34) 
2.422738666094884

>  <meeko>  (34) 
{"free_energy": -5.54, "intermolecular_energy": -7.33, "internal_energy": -2.65, "cluster_size": 11, "cluster_id": 4, "rank_in_cluster": 7}

>  <energy>  (34) 
-5.54

>  <cluster_rmsd>  (34) 
1.79

>  <cluster>  (34) 
4

$$$$

     RDKit          3D

 42 44  0  0  0  0  0  0  0  0999 V2000
  139.8260   72.2980  220.2550 O   0  0  0  0  0  0  0  0  0  0  0  0
  140.4070   72.6070  221.3210 C   0  0  0  0  0  0  0  0  0  0  0  0
  141.3340   73.6770  221.3200 N   0  0  0  0  0  0  0  0  0  0  0  0
  141.6210   74.4230  220.1010 C   0  0  0  0  0  0  0  0  0  0  0  0
  143.0640   74.3540  219.7500 C   0  0  0  0  0  0  0  0  0  0  0  0
  143.8050   75.3800  219.6890 O   0  0  0  0  0  0  0  0  0  0  0  0
  143.6410   73.1110  219.4710 N   0  0  0  0  0  0  0  0  0  0  0  0
  143.5830   72.3860  218.2170 C   0  0  0  0  0  0  0  0  0  0  0  0
  143.7360   70.9150  218.5740 C   0  0  0  0  0  0  0  0  0  0  0  0
  143.8200   70.9210  220.0930 C   0  0  2  0  0  0  0  0  0  0  0  0
  142.5140   70.9770  220.5850 F   0  0  0  0  0  0  0  0  0  0  0  0
  144.4290   72.2600  220.3630 C   0  0  1  0  0  0  0  0  0  0  0  0
  145.8600   72.3690  219.9010 C   0  0  0  0  0  0  0  0  0  0  0  0
  146.0870   73.3940  218.9960 O   0  0  0  0  0  0  0  0  0  0  0  0
  140.1430   71.8750  222.5750 C   0  0  0  0  0  0  0  0  0  0  0  0
  139.2640   70.8130  222.5550 C   0  0  0  0  0  0  0  0  0  0  0  0
  138.9550   70.0680  223.6800 C   0  0  0  0  0  0  0  0  0  0  0  0
  139.5950   70.4590  224.8560 C   0  0  0  0  0  0  0  0  0  0  0  0
  139.3760   69.8030  226.0450 C   0  0  0  0  0  0  0  0  0  0  0  0
  139.9640   70.1300  227.2290 C   0  0  0  0  0  0  0  0  0  0  0  0
  139.6280   69.2430  228.6880 Cl  0  0  0  0  0  0  0  0  0  0  0  0
  140.8430   71.1920  227.2460 C   0  0  0  0  0  0  0  0  0  0  0  0
  141.0840   71.8760  226.0550 C   0  0  0  0  0  0  0  0  0  0  0  0
  140.4730   71.5220  224.8700 C   0  0  0  0  0  0  0  0  0  0  0  0
  140.7460   72.2270  223.7360 N   0  0  0  0  0  0  0  0  0  0  0  0
  141.8210   73.9290  222.2290 H   0  0  0  0  0  0  0  0  0  0  0  0
  141.0310   73.9994  219.2749 H   0  0  0  0  0  0  0  0  0  0  0  0
  141.3557   75.4771  220.2696 H   0  0  0  0  0  0  0  0  0  0  0  0
  142.6174   72.5599  217.7196 H   0  0  0  0  0  0  0  0  0  0  0  0
  144.3714   72.7161  217.5246 H   0  0  0  0  0  0  0  0  0  0  0  0
  142.8662   70.3354  218.2313 H   0  0  0  0  0  0  0  0  0  0  0  0
  144.6126   70.4496  218.0998 H   0  0  0  0  0  0  0  0  0  0  0  0
  144.3574   70.0625  220.5222 H   0  0  0  0  0  0  0  0  0  0  0  0
  144.4257   72.4965  221.4373 H   0  0  0  0  0  0  0  0  0  0  0  0
  146.4953   72.5398  220.7826 H   0  0  0  0  0  0  0  0  0  0  0  0
  146.0974   71.4291  219.3811 H   0  0  0  0  0  0  0  0  0  0  0  0
  145.5760   74.2040  219.1670 H   0  0  0  0  0  0  0  0  0  0  0  0
  138.7862   70.5454  221.6010 H   0  0  0  0  0  0  0  0  0  0  0  0
  138.2511   69.2233  223.6486 H   0  0  0  0  0  0  0  0  0  0  0  0
  138.6764   68.9542  226.0391 H   0  0  0  0  0  0  0  0  0  0  0  0
  141.3431   71.4931  228.1784 H   0  0  0  0  0  0  0  0  0  0  0  0
  141.7836   72.7249  226.0606 H   0  0  0  0  0  0  0  0  0  0  0  0
  1  2  2  0
  2  3  1  0
  3  4  1  0
  4  5  1  0
  5  6  2  0
  5  7  1  0
  7  8  1  0
  8  9  1  0
  9 10  1  0
 10 11  1  0
 10 12  1  0
 12 13  1  0
 13 14  1  0
  2 15  1  0
 15 16  2  0
 16 17  1  0
 17 18  2  0
 18 19  1  0
 19 20  2  0
 20 21  1  0
 20 22  1  0
 22 23  2  0
 23 24  1  0
 24 25  2  0
 12  7  1  0
 25 15  1  0
 24 18  1  0
  3 26  1  0
  4 27  1  0
  4 28  1  0
  8 29  1  0
  8 30  1  0
  9 31  1  0
  9 32  1  0
 10 33  1  1
 12 34  1  1
 13 35  1  0
 13 36  1  0
 14 37  1  0
 16 38  1  0
 17 39  1  0
 19 40  1  0
 22 41  1  0
 23 42  1  0
M  END
>  <smiles>  (35) 
O=C(NCC(=O)N1CC[C@H](F)[C@H]1CO)c1ccc2cc(Cl)ccc2n1

>  <score_type>  (35) 
oracle

>  <origin>  (35) 
autodockgpu

>  <m_score__min__energy>  (35) 
-6.8200000000000003

>  <m_primary>  (35) 
energy

>  <rmsd>  (35) 
4.09917030598261

>  <m_score__min__rmsd>  (35) 
4.09917030598261

>  <meeko>  (35) 
{"free_energy": -5.81, "intermolecular_energy": -7.6, "internal_energy": -2.17, "cluster_size": 3, "cluster_id": 5, "rank_in_cluster": 1}

>  <energy>  (35) 
-5.42

>  <cluster_rmsd>  (35) 
1.98

>  <cluster>  (35) 
4

$$$$

     RDKit          3D

 42 44  0  0  0  0  0  0  0  0999 V2000
  140.6730   72.5730  220.9730 O   0  0  0  0  0  0  0  0  0  0  0  0
  140.0280   72.7690  222.0290 C   0  0  0  0  0  0  0  0  0  0  0  0
  139.2530   73.9470  222.1590 N   0  0  0  0  0  0  0  0  0  0  0  0
  139.1940   74.9300  221.0840 C   0  0  0  0  0  0  0  0  0  0  0  0
  140.4050   75.7930  221.0710 C   0  0  0  0  0  0  0  0  0  0  0  0
  140.5440   76.7910  221.8390 O   0  0  0  0  0  0  0  0  0  0  0  0
  141.4420   75.5030  220.1790 N   0  0  0  0  0  0  0  0  0  0  0  0
  142.6900   74.8320  220.4820 C   0  0  0  0  0  0  0  0  0  0  0  0
  143.6960   75.3280  219.4550 C   0  0  0  0  0  0  0  0  0  0  0  0
  142.9060   76.3390  218.6370 C   0  0  2  0  0  0  0  0  0  0  0  0
  142.9190   77.5460  219.3370 F   0  0  0  0  0  0  0  0  0  0  0  0
  141.5130   75.8040  218.7480 C   0  0  1  0  0  0  0  0  0  0  0  0
  141.3180   74.4930  218.0290 C   0  0  0  0  0  0  0  0  0  0  0  0
  140.3110   73.7010  218.5560 O   0  0  0  0  0  0  0  0  0  0  0  0
  140.0640   71.7960  223.1380 C   0  0  0  0  0  0  0  0  0  0  0  0
  139.5800   70.5230  222.9250 C   0  0  0  0  0  0  0  0  0  0  0  0
  139.5730   69.5440  223.9040 C   0  0  0  0  0  0  0  0  0  0  0  0
  140.0910   69.9260  225.1410 C   0  0  0  0  0  0  0  0  0  0  0  0
  140.1420   69.0490  226.2000 C   0  0  0  0  0  0  0  0  0  0  0  0
  140.6330   69.3530  227.4330 C   0  0  0  0  0  0  0  0  0  0  0  0
  140.6590   68.1800  228.7170 Cl  0  0  0  0  0  0  0  0  0  0  0  0
  141.1160   70.6280  227.6440 C   0  0  0  0  0  0  0  0  0  0  0  0
  141.0770   71.5380  226.5880 C   0  0  0  0  0  0  0  0  0  0  0  0
  140.5730   71.2020  225.3490 C   0  0  0  0  0  0  0  0  0  0  0  0
  140.5600   72.1320  224.3530 N   0  0  0  0  0  0  0  0  0  0  0  0
  138.7120   74.1020  223.0580 H   0  0  0  0  0  0  0  0  0  0  0  0
  139.1194   74.4034  220.1211 H   0  0  0  0  0  0  0  0  0  0  0  0
  138.3145   75.5700  221.2479 H   0  0  0  0  0  0  0  0  0  0  0  0
  143.0242   75.0881  221.4982 H   0  0  0  0  0  0  0  0  0  0  0  0
  142.5787   73.7385  220.4398 H   0  0  0  0  0  0  0  0  0  0  0  0
  144.5554   75.8070  219.9470 H   0  0  0  0  0  0  0  0  0  0  0  0
  144.1149   74.5167  218.8415 H   0  0  0  0  0  0  0  0  0  0  0  0
  143.2767   76.4836  217.6115 H   0  0  0  0  0  0  0  0  0  0  0  0
  140.7761   76.5060  218.3308 H   0  0  0  0  0  0  0  0  0  0  0  0
  141.0732   74.7087  216.9785 H   0  0  0  0  0  0  0  0  0  0  0  0
  142.2555   73.9285  218.1408 H   0  0  0  0  0  0  0  0  0  0  0  0
  140.5280   73.2830  219.4070 H   0  0  0  0  0  0  0  0  0  0  0  0
  139.1807   70.2733  221.9309 H   0  0  0  0  0  0  0  0  0  0  0  0
  139.1845   68.5318  223.7183 H   0  0  0  0  0  0  0  0  0  0  0  0
  139.7591   68.0304  226.0391 H   0  0  0  0  0  0  0  0  0  0  0  0
  141.5228   70.9202  228.6233 H   0  0  0  0  0  0  0  0  0  0  0  0
  141.4605   72.5564  226.7484 H   0  0  0  0  0  0  0  0  0  0  0  0
  1  2  2  0
  2  3  1  0
  3  4  1  0
  4  5  1  0
  5  6  2  0
  5  7  1  0
  7  8  1  0
  8  9  1  0
  9 10  1  0
 10 11  1  0
 10 12  1  0
 12 13  1  0
 13 14  1  0
  2 15  1  0
 15 16  2  0
 16 17  1  0
 17 18  2  0
 18 19  1  0
 19 20  2  0
 20 21  1  0
 20 22  1  0
 22 23  2  0
 23 24  1  0
 24 25  2  0
 12  7  1  0
 25 15  1  0
 24 18  1  0
  3 26  1  0
  4 27  1  0
  4 28  1  0
  8 29  1  0
  8 30  1  0
  9 31  1  0
  9 32  1  0
 10 33  1  6
 12 34  1  6
 13 35  1  0
 13 36  1  0
 14 37  1  0
 16 38  1  0
 17 39  1  0
 19 40  1  0
 22 41  1  0
 23 42  1  0
M  END
>  <smiles>  (36) 
O=C(NCC(=O)N1CC[C@H](F)[C@H]1CO)c1ccc2cc(Cl)ccc2n1

>  <score_type>  (36) 
oracle

>  <origin>  (36) 
autodockgpu

>  <m_score__min__energy>  (36) 
-6.8200000000000003

>  <m_primary>  (36) 
energy

>  <rmsd>  (36) 
2.3790006248750664

>  <m_score__min__rmsd>  (36) 
2.3790006248750664

>  <meeko>  (36) 
{"free_energy": -5.71, "intermolecular_energy": -7.5, "internal_energy": -1.94, "cluster_size": 11, "cluster_id": 4, "rank_in_cluster": 2}

>  <energy>  (36) 
-5.29

>  <cluster_rmsd>  (36) 
1.73

>  <cluster>  (36) 
4

$$$$

     RDKit          3D

 42 44  0  0  0  0  0  0  0  0999 V2000
  136.8050   71.1010  221.4210 O   0  0  0  0  0  0  0  0  0  0  0  0
  137.4350   71.6990  222.3240 C   0  0  0  0  0  0  0  0  0  0  0  0
  137.5660   73.1070  222.2610 N   0  0  0  0  0  0  0  0  0  0  0  0
  136.9800   73.8690  221.1650 C   0  0  0  0  0  0  0  0  0  0  0  0
  138.0100   74.6670  220.4480 C   0  0  0  0  0  0  0  0  0  0  0  0
  137.9130   74.9660  219.2210 O   0  0  0  0  0  0  0  0  0  0  0  0
  139.1380   75.1110  221.1440 N   0  0  0  0  0  0  0  0  0  0  0  0
  139.1570   75.8990  222.3610 C   0  0  0  0  0  0  0  0  0  0  0  0
  140.4730   76.6610  222.3500 C   0  0  0  0  0  0  0  0  0  0  0  0
  141.1080   76.2610  221.0250 C   0  0  2  0  0  0  0  0  0  0  0  0
  140.5510   77.0690  220.0330 F   0  0  0  0  0  0  0  0  0  0  0  0
  140.5470   74.8900  220.8160 C   0  0  1  0  0  0  0  0  0  0  0  0
  141.0600   73.8770  221.8070 C   0  0  0  0  0  0  0  0  0  0  0  0
  140.0770   73.0690  222.3530 O   0  0  0  0  0  0  0  0  0  0  0  0
  138.0410   70.9620  223.4490 C   0  0  0  0  0  0  0  0  0  0  0  0
  137.6380   69.6660  223.6930 C   0  0  0  0  0  0  0  0  0  0  0  0
  138.1510   68.8970  224.7250 C   0  0  0  0  0  0  0  0  0  0  0  0
  139.1160   69.5190  225.5170 C   0  0  0  0  0  0  0  0  0  0  0  0
  139.7050   68.8670  226.5750 C   0  0  0  0  0  0  0  0  0  0  0  0
  140.6510   69.4110  227.3900 C   0  0  0  0  0  0  0  0  0  0  0  0
  141.3440   68.5110  228.7070 Cl  0  0  0  0  0  0  0  0  0  0  0  0
  141.0520   70.7070  227.1430 C   0  0  0  0  0  0  0  0  0  0  0  0
  140.4720   71.3930  226.0770 C   0  0  0  0  0  0  0  0  0  0  0  0
  139.5150   70.8160  225.2690 C   0  0  0  0  0  0  0  0  0  0  0  0
  138.9810   71.5340  224.2410 N   0  0  0  0  0  0  0  0  0  0  0  0
  138.1010   73.6020  223.0320 H   0  0  0  0  0  0  0  0  0  0  0  0
  136.5094   73.1721  220.4559 H   0  0  0  0  0  0  0  0  0  0  0  0
  136.2350   74.5614  221.5840 H   0  0  0  0  0  0  0  0  0  0  0  0
  138.3098   76.6005  222.3747 H   0  0  0  0  0  0  0  0  0  0  0  0
  139.0691   75.2620  223.2534 H   0  0  0  0  0  0  0  0  0  0  0  0
  140.2986   77.7464  222.3900 H   0  0  0  0  0  0  0  0  0  0  0  0
  141.1092   76.4273  223.2164 H   0  0  0  0  0  0  0  0  0  0  0  0
  142.2057   76.3299  221.0070 H   0  0  0  0  0  0  0  0  0  0  0  0
  140.7894   74.5027  219.8154 H   0  0  0  0  0  0  0  0  0  0  0  0
  141.7908   73.2334  221.2955 H   0  0  0  0  0  0  0  0  0  0  0  0
  141.5012   74.4446  222.6396 H   0  0  0  0  0  0  0  0  0  0  0  0
  139.7900   73.3280  223.2470 H   0  0  0  0  0  0  0  0  0  0  0  0
  136.8739   69.2222  223.0379 H   0  0  0  0  0  0  0  0  0  0  0  0
  137.8192   67.8643  224.9077 H   0  0  0  0  0  0  0  0  0  0  0  0
  139.3897   67.8328  226.7774 H   0  0  0  0  0  0  0  0  0  0  0  0
  141.8133   71.1893  227.7737 H   0  0  0  0  0  0  0  0  0  0  0  0
  140.7876   72.4270  225.8740 H   0  0  0  0  0  0  0  0  0  0  0  0
  1  2  2  0
  2  3  1  0
  3  4  1  0
  4  5  1  0
  5  6  2  0
  5  7  1  0
  7  8  1  0
  8  9  1  0
  9 10  1  0
 10 11  1  0
 10 12  1  0
 12 13  1  0
 13 14  1  0
  2 15  1  0
 15 16  2  0
 16 17  1  0
 17 18  2  0
 18 19  1  0
 19 20  2  0
 20 21  1  0
 20 22  1  0
 22 23  2  0
 23 24  1  0
 24 25  2  0
 12  7  1  0
 25 15  1  0
 24 18  1  0
  3 26  1  0
  4 27  1  0
  4 28  1  0
  8 29  1  0
  8 30  1  0
  9 31  1  0
  9 32  1  0
 10 33  1  1
 12 34  1  6
 13 35  1  0
 13 36  1  0
 14 37  1  0
 16 38  1  0
 17 39  1  0
 19 40  1  0
 22 41  1  0
 23 42  1  0
M  END
>  <smiles>  (37) 
O=C(NCC(=O)N1CC[C@H](F)[C@H]1CO)c1ccc2cc(Cl)ccc2n1

>  <score_type>  (37) 
oracle

>  <origin>  (37) 
autodockgpu

>  <m_score__min__energy>  (37) 
-6.8200000000000003

>  <m_primary>  (37) 
energy

>  <rmsd>  (37) 
2.717113772586219

>  <m_score__min__rmsd>  (37) 
2.717113772586219

>  <meeko>  (37) 
{"free_energy": -5.8, "intermolecular_energy": -7.59, "internal_energy": -2.57, "cluster_size": 21, "cluster_id": 1, "rank_in_cluster": 15}

>  <energy>  (37) 
-5.24

>  <cluster_rmsd>  (37) 
1.99

>  <cluster>  (37) 
4

$$$$

     RDKit          3D

 42 44  0  0  0  0  0  0  0  0999 V2000
  140.0630   72.4360  220.7340 O   0  0  0  0  0  0  0  0  0  0  0  0
  139.8910   72.8240  221.9130 C   0  0  0  0  0  0  0  0  0  0  0  0
  139.6230   74.1920  222.1600 N   0  0  0  0  0  0  0  0  0  0  0  0
  139.5430   75.1530  221.0660 C   0  0  0  0  0  0  0  0  0  0  0  0
  139.8290   76.5340  221.5360 C   0  0  0  0  0  0  0  0  0  0  0  0
  139.5410   76.9340  222.7030 O   0  0  0  0  0  0  0  0  0  0  0  0
  140.4390   77.4410  220.6650 N   0  0  0  0  0  0  0  0  0  0  0  0
  139.8240   78.1150  219.5380 C   0  0  0  0  0  0  0  0  0  0  0  0
  140.9520   78.4230  218.5650 C   0  0  0  0  0  0  0  0  0  0  0  0
  142.1780   77.8160  219.2320 C   0  0  2  0  0  0  0  0  0  0  0  0
  142.1910   76.4550  218.9260 F   0  0  0  0  0  0  0  0  0  0  0  0
  141.8230   77.9190  220.6810 C   0  0  1  0  0  0  0  0  0  0  0  0
  141.7750   79.3380  221.1860 C   0  0  0  0  0  0  0  0  0  0  0  0
  140.9920   79.5140  222.3150 O   0  0  0  0  0  0  0  0  0  0  0  0
  139.9640   71.8820  223.0460 C   0  0  0  0  0  0  0  0  0  0  0  0
  139.5240   70.5870  222.8670 C   0  0  0  0  0  0  0  0  0  0  0  0
  139.5540   69.6340  223.8710 C   0  0  0  0  0  0  0  0  0  0  0  0
  140.0630   70.0650  225.0960 C   0  0  0  0  0  0  0  0  0  0  0  0
  140.1480   69.2180  226.1760 C   0  0  0  0  0  0  0  0  0  0  0  0
  140.6320   69.5690  227.3990 C   0  0  0  0  0  0  0  0  0  0  0  0
  140.7030   68.4300  228.7120 Cl  0  0  0  0  0  0  0  0  0  0  0  0
  141.0710   70.8650  227.5750 C   0  0  0  0  0  0  0  0  0  0  0  0
  140.9970   71.7470  226.4970 C   0  0  0  0  0  0  0  0  0  0  0  0
  140.5010   71.3610  225.2700 C   0  0  0  0  0  0  0  0  0  0  0  0
  140.4520   72.2650  224.2500 N   0  0  0  0  0  0  0  0  0  0  0  0
  139.4790   74.5090  223.1620 H   0  0  0  0  0  0  0  0  0  0  0  0
  140.2768   74.8784  220.2939 H   0  0  0  0  0  0  0  0  0  0  0  0
  138.5214   75.1302  220.6588 H   0  0  0  0  0  0  0  0  0  0  0  0
  139.0777   77.4613  219.0629 H   0  0  0  0  0  0  0  0  0  0  0  0
  139.3029   79.0312  219.8528 H   0  0  0  0  0  0  0  0  0  0  0  0
  140.7653   77.9554  217.5870 H   0  0  0  0  0  0  0  0  0  0  0  0
  141.0628   79.4993  218.3670 H   0  0  0  0  0  0  0  0  0  0  0  0
  143.1310   78.2843  218.9449 H   0  0  0  0  0  0  0  0  0  0  0  0
  142.5474   77.3839  221.3125 H   0  0  0  0  0  0  0  0  0  0  0  0
  142.8012   79.6535  221.4256 H   0  0  0  0  0  0  0  0  0  0  0  0
  141.3181   79.9416  220.3880 H   0  0  0  0  0  0  0  0  0  0  0  0
  140.5360   78.7090  222.6190 H   0  0  0  0  0  0  0  0  0  0  0  0
  139.1311   70.2980  221.8810 H   0  0  0  0  0  0  0  0  0  0  0  0
  139.1997   68.6047  223.7129 H   0  0  0  0  0  0  0  0  0  0  0  0
  139.8001   68.1831  226.0421 H   0  0  0  0  0  0  0  0  0  0  0  0
  141.4709   71.1957  228.5449 H   0  0  0  0  0  0  0  0  0  0  0  0
  141.3450   72.7820  226.6299 H   0  0  0  0  0  0  0  0  0  0  0  0
  1  2  2  0
  2  3  1  0
  3  4  1  0
  4  5  1  0
  5  6  2  0
  5  7  1  0
  7  8  1  0
  8  9  1  0
  9 10  1  0
 10 11  1  0
 10 12  1  0
 12 13  1  0
 13 14  1  0
  2 15  1  0
 15 16  2  0
 16 17  1  0
 17 18  2  0
 18 19  1  0
 19 20  2  0
 20 21  1  0
 20 22  1  0
 22 23  2  0
 23 24  1  0
 24 25  2  0
 12  7  1  0
 25 15  1  0
 24 18  1  0
  3 26  1  0
  4 27  1  0
  4 28  1  0
  8 29  1  0
  8 30  1  0
  9 31  1  0
  9 32  1  0
 10 33  1  1
 12 34  1  1
 13 35  1  0
 13 36  1  0
 14 37  1  0
 16 38  1  0
 17 39  1  0
 19 40  1  0
 22 41  1  0
 23 42  1  0
M  END
>  <smiles>  (38) 
O=C(NCC(=O)N1CC[C@H](F)[C@H]1CO)c1ccc2cc(Cl)ccc2n1

>  <score_type>  (38) 
oracle

>  <origin>  (38) 
autodockgpu

>  <m_score__min__energy>  (38) 
-6.8200000000000003

>  <m_primary>  (38) 
energy

>  <rmsd>  (38) 
2.1808823228981677

>  <m_score__min__rmsd>  (38) 
2.1808823228981677

>  <meeko>  (38) 
{"free_energy": -5.82, "intermolecular_energy": -7.61, "internal_energy": -2.02, "cluster_size": 21, "cluster_id": 1, "rank_in_cluster": 14}

>  <energy>  (38) 
-5.03

>  <cluster_rmsd>  (38) 
1.87

>  <cluster>  (38) 
4

$$$$

     RDKit          3D

 42 44  0  0  0  0  0  0  0  0999 V2000
  138.1110   75.2780  222.4140 O   0  0  0  0  0  0  0  0  0  0  0  0
  139.2780   75.6640  222.1670 C   0  0  0  0  0  0  0  0  0  0  0  0
  139.6130   77.0250  222.3630 N   0  0  0  0  0  0  0  0  0  0  0  0
  138.6250   77.9810  222.8480 C   0  0  0  0  0  0  0  0  0  0  0  0
  139.2700   79.2350  223.3190 C   0  0  0  0  0  0  0  0  0  0  0  0
  138.6530   80.1100  223.9970 O   0  0  0  0  0  0  0  0  0  0  0  0
  140.6110   79.4740  223.0070 N   0  0  0  0  0  0  0  0  0  0  0  0
  141.7610   79.2210  223.8540 C   0  0  0  0  0  0  0  0  0  0  0  0
  142.8370   80.1990  223.4080 C   0  0  0  0  0  0  0  0  0  0  0  0
  142.1530   81.0120  222.3170 C   0  0  2  0  0  0  0  0  0  0  0  0
  141.4060   82.0100  222.9440 F   0  0  0  0  0  0  0  0  0  0  0  0
  141.1680   80.0280  221.7720 C   0  0  1  0  0  0  0  0  0  0  0  0
  141.8130   78.8760  221.0440 C   0  0  0  0  0  0  0  0  0  0  0  0
  140.9220   78.0660  220.3600 O   0  0  0  0  0  0  0  0  0  0  0  0
  140.3050   74.7260  221.6760 C   0  0  0  0  0  0  0  0  0  0  0  0
  140.0130   73.3790  221.6300 C   0  0  0  0  0  0  0  0  0  0  0  0
  140.9120   72.4260  221.1840 C   0  0  0  0  0  0  0  0  0  0  0  0
  142.1540   72.9130  220.7770 C   0  0  0  0  0  0  0  0  0  0  0  0
  143.1380   72.0720  220.3120 C   0  0  0  0  0  0  0  0  0  0  0  0
  144.3710   72.4760  219.8990 C   0  0  0  0  0  0  0  0  0  0  0  0
  145.5570   71.3410  219.3260 Cl  0  0  0  0  0  0  0  0  0  0  0  0
  144.6610   73.8240  219.9470 C   0  0  0  0  0  0  0  0  0  0  0  0
  143.6820   74.7010  220.4130 C   0  0  0  0  0  0  0  0  0  0  0  0
  142.4420   74.2610  220.8250 C   0  0  0  0  0  0  0  0  0  0  0  0
  141.5230   75.1630  221.2720 N   0  0  0  0  0  0  0  0  0  0  0  0
  140.6040   77.3400  222.1510 H   0  0  0  0  0  0  0  0  0  0  0  0
  137.9286   78.2216  222.0312 H   0  0  0  0  0  0  0  0  0  0  0  0
  138.0904   77.5269  223.6954 H   0  0  0  0  0  0  0  0  0  0  0  0
  141.5029   79.3927  224.9094 H   0  0  0  0  0  0  0  0  0  0  0  0
  142.1034   78.1794  223.7660 H   0  0  0  0  0  0  0  0  0  0  0  0
  143.1500   80.8452  224.2413 H   0  0  0  0  0  0  0  0  0  0  0  0
  143.7512   79.6976  223.0575 H   0  0  0  0  0  0  0  0  0  0  0  0
  142.8396   81.4515  221.5785 H   0  0  0  0  0  0  0  0  0  0  0  0
  140.4759   80.5029  221.0610 H   0  0  0  0  0  0  0  0  0  0  0  0
  142.5329   79.2852  220.3199 H   0  0  0  0  0  0  0  0  0  0  0  0
  142.2895   78.2457  221.8093 H   0  0  0  0  0  0  0  0  0  0  0  0
  141.1040   77.1120  220.4340 H   0  0  0  0  0  0  0  0  0  0  0  0
  139.0189   73.0464  221.9635 H   0  0  0  0  0  0  0  0  0  0  0  0
  140.6634   71.3549  221.1526 H   0  0  0  0  0  0  0  0  0  0  0  0
  142.9128   70.9961  220.2708 H   0  0  0  0  0  0  0  0  0  0  0  0
  145.6435   74.1990  219.6246 H   0  0  0  0  0  0  0  0  0  0  0  0
  143.9060   75.7772  220.4531 H   0  0  0  0  0  0  0  0  0  0  0  0
  1  2  2  0
  2  3  1  0
  3  4  1  0
  4  5  1  0
  5  6  2  0
  5  7  1  0
  7  8  1  0
  8  9  1  0
  9 10  1  0
 10 11  1  0
 10 12  1  0
 12 13  1  0
 13 14  1  0
  2 15  1  0
 15 16  2  0
 16 17  1  0
 17 18  2  0
 18 19  1  0
 19 20  2  0
 20 21  1  0
 20 22  1  0
 22 23  2  0
 23 24  1  0
 24 25  2  0
 12  7  1  0
 25 15  1  0
 24 18  1  0
  3 26  1  0
  4 27  1  0
  4 28  1  0
  8 29  1  0
  8 30  1  0
  9 31  1  0
  9 32  1  0
 10 33  1  6
 12 34  1  6
 13 35  1  0
 13 36  1  0
 14 37  1  0
 16 38  1  0
 17 39  1  0
 19 40  1  0
 22 41  1  0
 23 42  1  0
M  END
>  <smiles>  (39) 
O=C(NCC(=O)N1CC[C@H](F)[C@H]1CO)c1ccc2cc(Cl)ccc2n1

>  <score_type>  (39) 
oracle

>  <origin>  (39) 
autodockgpu

>  <m_score__min__energy>  (39) 
-6.8200000000000003

>  <m_primary>  (39) 
energy

>  <rmsd>  (39) 
6.270974840444332

>  <m_score__min__rmsd>  (39) 
6.270974840444332

>  <meeko>  (39) 
{"free_energy": -5.1, "intermolecular_energy": -6.89, "internal_energy": -2.69, "cluster_size": 3, "cluster_id": 7, "rank_in_cluster": 1}

>  <energy>  (39) 
-5.81

>  <cluster_rmsd>  (39) 
0.0

>  <cluster>  (39) 
5

$$$$

     RDKit          3D

 42 44  0  0  0  0  0  0  0  0999 V2000
  140.6690   72.6040  220.9890 O   0  0  0  0  0  0  0  0  0  0  0  0
  140.0350   72.8090  222.0510 C   0  0  0  0  0  0  0  0  0  0  0  0
  139.2830   74.0000  222.1890 N   0  0  0  0  0  0  0  0  0  0  0  0
  139.2330   74.9880  221.1170 C   0  0  0  0  0  0  0  0  0  0  0  0
  140.4920   75.7760  221.0490 C   0  0  0  0  0  0  0  0  0  0  0  0
  141.5730   75.3010  220.5900 O   0  0  0  0  0  0  0  0  0  0  0  0
  140.4990   77.0970  221.5070 N   0  0  0  0  0  0  0  0  0  0  0  0
  141.0700   77.5870  222.7460 C   0  0  0  0  0  0  0  0  0  0  0  0
  140.2880   78.8400  223.1040 C   0  0  0  0  0  0  0  0  0  0  0  0
  139.2400   78.9370  222.0050 C   0  0  2  0  0  0  0  0  0  0  0  0
  138.1850   78.0930  222.3560 F   0  0  0  0  0  0  0  0  0  0  0  0
  139.9380   78.2820  220.8550 C   0  0  1  0  0  0  0  0  0  0  0  0
  141.1100   79.0760  220.3380 C   0  0  0  0  0  0  0  0  0  0  0  0
  142.1850   78.3020  219.9320 O   0  0  0  0  0  0  0  0  0  0  0  0
  140.0610   71.8330  223.1570 C   0  0  0  0  0  0  0  0  0  0  0  0
  139.5770   70.5610  222.9370 C   0  0  0  0  0  0  0  0  0  0  0  0
  139.5610   69.5800  223.9130 C   0  0  0  0  0  0  0  0  0  0  0  0
  140.0710   69.9570  225.1550 C   0  0  0  0  0  0  0  0  0  0  0  0
  140.1130   69.0770  226.2110 C   0  0  0  0  0  0  0  0  0  0  0  0
  140.5950   69.3760  227.4490 C   0  0  0  0  0  0  0  0  0  0  0  0
  140.6100   68.1990  228.7300 Cl  0  0  0  0  0  0  0  0  0  0  0  0
  141.0790   70.6490  227.6670 C   0  0  0  0  0  0  0  0  0  0  0  0
  141.0500   71.5630  226.6140 C   0  0  0  0  0  0  0  0  0  0  0  0
  140.5540   71.2310  225.3700 C   0  0  0  0  0  0  0  0  0  0  0  0
  140.5490   72.1650  224.3770 N   0  0  0  0  0  0  0  0  0  0  0  0
  138.7510   74.1640  223.0920 H   0  0  0  0  0  0  0  0  0  0  0  0
  139.0827   74.4695  220.1586 H   0  0  0  0  0  0  0  0  0  0  0  0
  138.4016   75.6790  221.3204 H   0  0  0  0  0  0  0  0  0  0  0  0
  140.9656   76.8321  223.5393 H   0  0  0  0  0  0  0  0  0  0  0  0
  142.1435   77.8008  222.6369 H   0  0  0  0  0  0  0  0  0  0  0  0
  139.8132   78.7375  224.0909 H   0  0  0  0  0  0  0  0  0  0  0  0
  140.9234   79.7356  223.1675 H   0  0  0  0  0  0  0  0  0  0  0  0
  138.8720   79.9562  221.8160 H   0  0  0  0  0  0  0  0  0  0  0  0
  139.2588   78.1301  220.0031 H   0  0  0  0  0  0  0  0  0  0  0  0
  140.7704   79.6727  219.4786 H   0  0  0  0  0  0  0  0  0  0  0  0
  141.4649   79.6967  221.1739 H   0  0  0  0  0  0  0  0  0  0  0  0
  142.1510   77.3750  220.2280 H   0  0  0  0  0  0  0  0  0  0  0  0
  139.1853   70.3143  221.9392 H   0  0  0  0  0  0  0  0  0  0  0  0
  139.1716   68.5692  223.7217 H   0  0  0  0  0  0  0  0  0  0  0  0
  139.7301   68.0594  226.0438 H   0  0  0  0  0  0  0  0  0  0  0  0
  141.4792   70.9372  228.6502 H   0  0  0  0  0  0  0  0  0  0  0  0
  141.4345   72.5801  226.7804 H   0  0  0  0  0  0  0  0  0  0  0  0
  1  2  2  0
  2  3  1  0
  3  4  1  0
  4  5  1  0
  5  6  2  0
  5  7  1  0
  7  8  1  0
  8  9  1  0
  9 10  1  0
 10 11  1  0
 10 12  1  0
 12 13  1  0
 13 14  1  0
  2 15  1  0
 15 16  2  0
 16 17  1  0
 17 18  2  0
 18 19  1  0
 19 20  2  0
 20 21  1  0
 20 22  1  0
 22 23  2  0
 23 24  1  0
 24 25  2  0
 12  7  1  0
 25 15  1  0
 24 18  1  0
  3 26  1  0
  4 27  1  0
  4 28  1  0
  8 29  1  0
  8 30  1  0
  9 31  1  0
  9 32  1  0
 10 33  1  6
 12 34  1  6
 13 35  1  0
 13 36  1  0
 14 37  1  0
 16 38  1  0
 17 39  1  0
 19 40  1  0
 22 41  1  0
 23 42  1  0
M  END
>  <smiles>  (40) 
O=C(NCC(=O)N1CC[C@H](F)[C@H]1CO)c1ccc2cc(Cl)ccc2n1

>  <score_type>  (40) 
oracle

>  <origin>  (40) 
autodockgpu

>  <m_score__min__energy>  (40) 
-6.8200000000000003

>  <m_primary>  (40) 
energy

>  <rmsd>  (40) 
2.8785043422993737

>  <m_score__min__rmsd>  (40) 
2.8785043422993737

>  <meeko>  (40) 
{"free_energy": -6.09, "intermolecular_energy": -7.88, "internal_energy": -1.67, "cluster_size": 21, "cluster_id": 1, "rank_in_cluster": 5}

>  <energy>  (40) 
-5.76

>  <cluster_rmsd>  (40) 
0.13

>  <cluster>  (40) 
5

$$$$

     RDKit          3D

 42 44  0  0  0  0  0  0  0  0999 V2000
  141.4670   71.4050  221.3800 O   0  0  0  0  0  0  0  0  0  0  0  0
  141.0510   72.4330  221.9640 C   0  0  0  0  0  0  0  0  0  0  0  0
  140.3390   72.2980  223.1790 N   0  0  0  0  0  0  0  0  0  0  0  0
  140.0850   70.9860  223.7610 C   0  0  0  0  0  0  0  0  0  0  0  0
  140.5960   70.9030  225.1550 C   0  0  0  0  0  0  0  0  0  0  0  0
  141.1730   71.8720  225.7320 O   0  0  0  0  0  0  0  0  0  0  0  0
  140.4430   69.7110  225.8700 N   0  0  0  0  0  0  0  0  0  0  0  0
  141.4540   68.6990  226.1040 C   0  0  0  0  0  0  0  0  0  0  0  0
  140.7030   67.3910  226.3030 C   0  0  0  0  0  0  0  0  0  0  0  0
  139.2460   67.7800  226.1020 C   0  0  2  0  0  0  0  0  0  0  0  0
  139.0010   67.7930  224.7280 F   0  0  0  0  0  0  0  0  0  0  0  0
  139.2440   69.2090  226.5430 C   0  0  1  0  0  0  0  0  0  0  0  0
  139.4850   69.3780  228.0220 C   0  0  0  0  0  0  0  0  0  0  0  0
  140.0870   70.5770  228.3650 O   0  0  0  0  0  0  0  0  0  0  0  0
  141.2900   73.7780  221.4060 C   0  0  0  0  0  0  0  0  0  0  0  0
  142.0450   73.9010  220.2590 C   0  0  0  0  0  0  0  0  0  0  0  0
  142.3210   75.1200  219.6630 C   0  0  0  0  0  0  0  0  0  0  0  0
  141.7820   76.2370  220.3010 C   0  0  0  0  0  0  0  0  0  0  0  0
  141.9810   77.5080  219.8130 C   0  0  0  0  0  0  0  0  0  0  0  0
  141.4860   78.6420  220.3820 C   0  0  0  0  0  0  0  0  0  0  0  0
  141.7880   80.2120  219.6960 Cl  0  0  0  0  0  0  0  0  0  0  0  0
  140.7310   78.5160  221.5290 C   0  0  0  0  0  0  0  0  0  0  0  0
  140.5120   77.2390  222.0470 C   0  0  0  0  0  0  0  0  0  0  0  0
  141.0270   76.1090  221.4480 C   0  0  0  0  0  0  0  0  0  0  0  0
  140.7820   74.8860  221.9980 N   0  0  0  0  0  0  0  0  0  0  0  0
  139.9920   73.1760  223.6650 H   0  0  0  0  0  0  0  0  0  0  0  0
  139.0008   70.8002  223.7655 H   0  0  0  0  0  0  0  0  0  0  0  0
  140.6077   70.2313  223.1550 H   0  0  0  0  0  0  0  0  0  0  0  0
  142.1275   68.6246  225.2375 H   0  0  0  0  0  0  0  0  0  0  0  0
  142.0732   68.9442  226.9795 H   0  0  0  0  0  0  0  0  0  0  0  0
  141.0154   66.6420  225.5604 H   0  0  0  0  0  0  0  0  0  0  0  0
  140.8917   66.9354  227.2863 H   0  0  0  0  0  0  0  0  0  0  0  0
  138.5261   67.1261  226.6160 H   0  0  0  0  0  0  0  0  0  0  0  0
  138.2844   69.6990  226.3217 H   0  0  0  0  0  0  0  0  0  0  0  0
  138.5157   69.3183  228.5386 H   0  0  0  0  0  0  0  0  0  0  0  0
  140.1779   68.5785  228.3231 H   0  0  0  0  0  0  0  0  0  0  0  0
  140.4120   71.0980  227.6090 H   0  0  0  0  0  0  0  0  0  0  0  0
  142.4470   72.9879  219.7956 H   0  0  0  0  0  0  0  0  0  0  0  0
  142.9251   75.2020  218.7474 H   0  0  0  0  0  0  0  0  0  0  0  0
  142.5826   77.6158  218.8984 H   0  0  0  0  0  0  0  0  0  0  0  0
  140.3104   79.4032  222.0250 H   0  0  0  0  0  0  0  0  0  0  0  0
  139.9100   77.1305  222.9613 H   0  0  0  0  0  0  0  0  0  0  0  0
  1  2  2  0
  2  3  1  0
  3  4  1  0
  4  5  1  0
  5  6  2  0
  5  7  1  0
  7  8  1  0
  8  9  1  0
  9 10  1  0
 10 11  1  0
 10 12  1  0
 12 13  1  0
 13 14  1  0
  2 15  1  0
 15 16  2  0
 16 17  1  0
 17 18  2  0
 18 19  1  0
 19 20  2  0
 20 21  1  0
 20 22  1  0
 22 23  2  0
 23 24  1  0
 24 25  2  0
 12  7  1  0
 25 15  1  0
 24 18  1  0
  3 26  1  0
  4 27  1  0
  4 28  1  0
  8 29  1  0
  8 30  1  0
  9 31  1  0
  9 32  1  0
 10 33  1  1
 12 34  1  6
 13 35  1  0
 13 36  1  0
 14 37  1  0
 16 38  1  0
 17 39  1  0
 19 40  1  0
 22 41  1  0
 23 42  1  0
M  END
>  <smiles>  (41) 
O=C(NCC(=O)N1CC[C@H](F)[C@H]1CO)c1ccc2cc(Cl)ccc2n1

>  <score_type>  (41) 
oracle

>  <origin>  (41) 
autodockgpu

>  <m_score__min__energy>  (41) 
-6.8200000000000003

>  <m_primary>  (41) 
energy

>  <rmsd>  (41) 
8.912553329116845

>  <m_score__min__rmsd>  (41) 
8.912553329116845

>  <meeko>  (41) 
{"free_energy": -6.15, "intermolecular_energy": -7.94, "internal_energy": -1.98, "cluster_size": 5, "cluster_id": 2, "rank_in_cluster": 3}

>  <energy>  (41) 
-5.57

>  <cluster_rmsd>  (41) 
0.46

>  <cluster>  (41) 
5

$$$$

     RDKit          3D

 42 44  0  0  0  0  0  0  0  0999 V2000
  141.1350   73.1210  220.6200 O   0  0  0  0  0  0  0  0  0  0  0  0
  141.6550   74.2050  220.9760 C   0  0  0  0  0  0  0  0  0  0  0  0
  143.0530   74.3780  220.8450 N   0  0  0  0  0  0  0  0  0  0  0  0
  143.8960   73.3190  220.3040 C   0  0  0  0  0  0  0  0  0  0  0  0
  144.2770   73.5970  218.8940 C   0  0  0  0  0  0  0  0  0  0  0  0
  145.2790   73.0570  218.3360 O   0  0  0  0  0  0  0  0  0  0  0  0
  143.5090   74.4890  218.1400 N   0  0  0  0  0  0  0  0  0  0  0  0
  142.3420   74.1740  217.3400 C   0  0  0  0  0  0  0  0  0  0  0  0
  142.2780   75.2340  216.2520 C   0  0  0  0  0  0  0  0  0  0  0  0
  143.5160   76.0840  216.5050 C   0  0  2  0  0  0  0  0  0  0  0  0
  144.5980   75.4360  215.9080 F   0  0  0  0  0  0  0  0  0  0  0  0
  143.6970   75.9320  217.9820 C   0  0  1  0  0  0  0  0  0  0  0  0
  142.6080   76.5930  218.7880 C   0  0  0  0  0  0  0  0  0  0  0  0
  143.0280   77.0910  220.0100 O   0  0  0  0  0  0  0  0  0  0  0  0
  140.8350   75.3000  221.5280 C   0  0  0  0  0  0  0  0  0  0  0  0
  139.4650   75.1480  221.5790 C   0  0  0  0  0  0  0  0  0  0  0  0
  138.6160   76.1210  222.0800 C   0  0  0  0  0  0  0  0  0  0  0  0
  139.2350   77.2830  222.5380 C   0  0  0  0  0  0  0  0  0  0  0  0
  138.5070   78.3270  223.0600 C   0  0  0  0  0  0  0  0  0  0  0  0
  139.0430   79.4890  223.5250 C   0  0  0  0  0  0  0  0  0  0  0  0
  138.0440   80.7590  224.1690 Cl  0  0  0  0  0  0  0  0  0  0  0  0
  140.4130   79.6380  223.4720 C   0  0  0  0  0  0  0  0  0  0  0  0
  141.1780   78.5960  222.9480 C   0  0  0  0  0  0  0  0  0  0  0  0
  140.6050   77.4300  222.4840 C   0  0  0  0  0  0  0  0  0  0  0  0
  141.4020   76.4440  221.9820 N   0  0  0  0  0  0  0  0  0  0  0  0
  143.4820   75.3000  221.1500 H   0  0  0  0  0  0  0  0  0  0  0  0
  144.8088   73.2417  220.9130 H   0  0  0  0  0  0  0  0  0  0  0  0
  143.3287   72.3769  220.3304 H   0  0  0  0  0  0  0  0  0  0  0  0
  142.4440   73.1740  216.8932 H   0  0  0  0  0  0  0  0  0  0  0  0
  141.4265   74.1682  217.9497 H   0  0  0  0  0  0  0  0  0  0  0  0
  142.3149   74.7742  215.2534 H   0  0  0  0  0  0  0  0  0  0  0  0
  141.3463   75.8181  216.2793 H   0  0  0  0  0  0  0  0  0  0  0  0
  143.4391   77.1197  216.1425 H   0  0  0  0  0  0  0  0  0  0  0  0
  144.6486   76.3684  218.3196 H   0  0  0  0  0  0  0  0  0  0  0  0
  142.1999   77.4267  218.1978 H   0  0  0  0  0  0  0  0  0  0  0  0
  141.8594   75.8165  219.0039 H   0  0  0  0  0  0  0  0  0  0  0  0
  142.5920   76.6890  220.7830 H   0  0  0  0  0  0  0  0  0  0  0  0
  139.0266   74.2112  221.2046 H   0  0  0  0  0  0  0  0  0  0  0  0
  137.5249   75.9857  222.1142 H   0  0  0  0  0  0  0  0  0  0  0  0
  137.4136   78.2150  223.1049 H   0  0  0  0  0  0  0  0  0  0  0  0
  140.8923   80.5591  223.8353 H   0  0  0  0  0  0  0  0  0  0  0  0
  142.2714   78.7074  222.9034 H   0  0  0  0  0  0  0  0  0  0  0  0
  1  2  2  0
  2  3  1  0
  3  4  1  0
  4  5  1  0
  5  6  2  0
  5  7  1  0
  7  8  1  0
  8  9  1  0
  9 10  1  0
 10 11  1  0
 10 12  1  0
 12 13  1  0
 13 14  1  0
  2 15  1  0
 15 16  2  0
 16 17  1  0
 17 18  2  0
 18 19  1  0
 19 20  2  0
 20 21  1  0
 20 22  1  0
 22 23  2  0
 23 24  1  0
 24 25  2  0
 12  7  1  0
 25 15  1  0
 24 18  1  0
  3 26  1  0
  4 27  1  0
  4 28  1  0
  8 29  1  0
  8 30  1  0
  9 31  1  0
  9 32  1  0
 10 33  1  1
 12 34  1  1
 13 35  1  0
 13 36  1  0
 14 37  1  0
 16 38  1  0
 17 39  1  0
 19 40  1  0
 22 41  1  0
 23 42  1  0
M  END
>  <smiles>  (42) 
O=C(NCC(=O)N1CC[C@H](F)[C@H]1CO)c1ccc2cc(Cl)ccc2n1

>  <score_type>  (42) 
oracle

>  <origin>  (42) 
autodockgpu

>  <m_score__min__energy>  (42) 
-6.8200000000000003

>  <m_primary>  (42) 
energy

>  <rmsd>  (42) 
6.489141111539309

>  <m_score__min__rmsd>  (42) 
6.489141111539309

>  <meeko>  (42) 
{"free_energy": -4.7, "intermolecular_energy": -6.49, "internal_energy": -2.91, "cluster_size": 1, "cluster_id": 9, "rank_in_cluster": 1}

>  <energy>  (42) 
-5.73

>  <cluster_rmsd>  (42) 
0.0

>  <cluster>  (42) 
6

$$$$

     RDKit          3D

 42 44  0  0  0  0  0  0  0  0999 V2000
  140.3100   72.4980  220.7940 O   0  0  0  0  0  0  0  0  0  0  0  0
  139.9850   72.8320  221.9570 C   0  0  0  0  0  0  0  0  0  0  0  0
  139.5710   74.1630  222.2060 N   0  0  0  0  0  0  0  0  0  0  0  0
  139.5160   75.1470  221.1310 C   0  0  0  0  0  0  0  0  0  0  0  0
  140.5550   76.1960  221.3040 C   0  0  0  0  0  0  0  0  0  0  0  0
  140.6590   76.8910  222.3580 O   0  0  0  0  0  0  0  0  0  0  0  0
  141.4620   76.4380  220.2680 N   0  0  0  0  0  0  0  0  0  0  0  0
  142.1910   77.6660  220.0170 C   0  0  0  0  0  0  0  0  0  0  0  0
  142.4820   77.6870  218.5250 C   0  0  0  0  0  0  0  0  0  0  0  0
  141.8090   76.4230  218.0100 C   0  0  2  0  0  0  0  0  0  0  0  0
  140.4570   76.7140  217.8220 F   0  0  0  0  0  0  0  0  0  0  0  0
  141.8840   75.5250  219.2040 C   0  0  1  0  0  0  0  0  0  0  0  0
  143.2900   75.0990  219.5440 C   0  0  0  0  0  0  0  0  0  0  0  0
  143.4510   74.6670  220.8500 O   0  0  0  0  0  0  0  0  0  0  0  0
  140.0280   71.8640  223.0700 C   0  0  0  0  0  0  0  0  0  0  0  0
  139.5580   70.5850  222.8610 C   0  0  0  0  0  0  0  0  0  0  0  0
  139.5580   69.6100  223.8440 C   0  0  0  0  0  0  0  0  0  0  0  0
  140.0700   70.0030  225.0810 C   0  0  0  0  0  0  0  0  0  0  0  0
  140.1280   69.1300  226.1430 C   0  0  0  0  0  0  0  0  0  0  0  0
  140.6130   69.4440  227.3760 C   0  0  0  0  0  0  0  0  0  0  0  0
  140.6480   68.2760  228.6650 Cl  0  0  0  0  0  0  0  0  0  0  0  0
  141.0830   70.7240  227.5830 C   0  0  0  0  0  0  0  0  0  0  0  0
  141.0370   71.6300  226.5230 C   0  0  0  0  0  0  0  0  0  0  0  0
  140.5390   71.2830  225.2850 C   0  0  0  0  0  0  0  0  0  0  0  0
  140.5190   72.2100  224.2850 N   0  0  0  0  0  0  0  0  0  0  0  0
  139.2990   74.4340  223.1950 H   0  0  0  0  0  0  0  0  0  0  0  0
  139.6785   74.6370  220.1700 H   0  0  0  0  0  0  0  0  0  0  0  0
  138.5281   75.6303  221.1535 H   0  0  0  0  0  0  0  0  0  0  0  0
  141.5807   78.5366  220.2991 H   0  0  0  0  0  0  0  0  0  0  0  0
  143.1179   77.7106  220.6076 H   0  0  0  0  0  0  0  0  0  0  0  0
  142.0498   78.5818  218.0533 H   0  0  0  0  0  0  0  0  0  0  0  0
  143.5583   77.7194  218.3004 H   0  0  0  0  0  0  0  0  0  0  0  0
  142.2482   76.0184  217.0862 H   0  0  0  0  0  0  0  0  0  0  0  0
  141.3025   74.6035  219.0533 H   0  0  0  0  0  0  0  0  0  0  0  0
  143.5738   74.2766  218.8709 H   0  0  0  0  0  0  0  0  0  0  0  0
  143.9278   75.9870  219.4234 H   0  0  0  0  0  0  0  0  0  0  0  0
  143.0110   75.2220  221.5180 H   0  0  0  0  0  0  0  0  0  0  0  0
  139.1646   70.3270  221.8667 H   0  0  0  0  0  0  0  0  0  0  0  0
  139.1796   68.5933  223.6619 H   0  0  0  0  0  0  0  0  0  0  0  0
  139.7565   68.1068  225.9849 H   0  0  0  0  0  0  0  0  0  0  0  0
  141.4851   71.0239  228.5619 H   0  0  0  0  0  0  0  0  0  0  0  0
  141.4097   72.6530  226.6798 H   0  0  0  0  0  0  0  0  0  0  0  0
  1  2  2  0
  2  3  1  0
  3  4  1  0
  4  5  1  0
  5  6  2  0
  5  7  1  0
  7  8  1  0
  8  9  1  0
  9 10  1  0
 10 11  1  0
 10 12  1  0
 12 13  1  0
 13 14  1  0
  2 15  1  0
 15 16  2  0
 16 17  1  0
 17 18  2  0
 18 19  1  0
 19 20  2  0
 20 21  1  0
 20 22  1  0
 22 23  2  0
 23 24  1  0
 24 25  2  0
 12  7  1  0
 25 15  1  0
 24 18  1  0
  3 26  1  0
  4 27  1  0
  4 28  1  0
  8 29  1  0
  8 30  1  0
  9 31  1  0
  9 32  1  0
 10 33  1  6
 12 34  1  6
 13 35  1  0
 13 36  1  0
 14 37  1  0
 16 38  1  0
 17 39  1  0
 19 40  1  0
 22 41  1  0
 23 42  1  0
M  END
>  <smiles>  (43) 
O=C(NCC(=O)N1CC[C@H](F)[C@H]1CO)c1ccc2cc(Cl)ccc2n1

>  <score_type>  (43) 
oracle

>  <origin>  (43) 
autodockgpu

>  <m_score__min__energy>  (43) 
-6.8200000000000003

>  <m_primary>  (43) 
energy

>  <rmsd>  (43) 
2.453230560298263

>  <m_score__min__rmsd>  (43) 
2.453230560298263

>  <meeko>  (43) 
{"free_energy": -6.46, "intermolecular_energy": -8.25, "internal_energy": -1.38, "cluster_size": 21, "cluster_id": 1, "rank_in_cluster": 3}

>  <energy>  (43) 
-5.22

>  <cluster_rmsd>  (43) 
1.27

>  <cluster>  (43) 
6

$$$$

     RDKit          3D

 42 44  0  0  0  0  0  0  0  0999 V2000
  139.9910   74.8930  221.9870 O   0  0  0  0  0  0  0  0  0  0  0  0
  140.2800   73.7280  221.6280 C   0  0  0  0  0  0  0  0  0  0  0  0
  140.9490   73.5280  220.3970 N   0  0  0  0  0  0  0  0  0  0  0  0
  141.3070   74.6540  219.5430 C   0  0  0  0  0  0  0  0  0  0  0  0
  142.6910   75.1230  219.8150 C   0  0  0  0  0  0  0  0  0  0  0  0
  142.9960   76.3500  219.8960 O   0  0  0  0  0  0  0  0  0  0  0  0
  143.7100   74.1820  219.9900 N   0  0  0  0  0  0  0  0  0  0  0  0
  144.9990   74.4000  220.6190 C   0  0  0  0  0  0  0  0  0  0  0  0
  145.9460   73.3820  220.0030 C   0  0  0  0  0  0  0  0  0  0  0  0
  145.0820   72.6620  218.9770 C   0  0  2  0  0  0  0  0  0  0  0  0
  145.0610   73.4460  217.8230 F   0  0  0  0  0  0  0  0  0  0  0  0
  143.7210   72.7750  219.5860 C   0  0  1  0  0  0  0  0  0  0  0  0
  143.5630   71.9700  220.8510 C   0  0  0  0  0  0  0  0  0  0  0  0
  142.3200   71.3770  220.9960 O   0  0  0  0  0  0  0  0  0  0  0  0
  139.9350   72.5630  222.4660 C   0  0  0  0  0  0  0  0  0  0  0  0
  138.8150   71.8230  222.1520 C   0  0  0  0  0  0  0  0  0  0  0  0
  138.4130   70.7150  222.8790 C   0  0  0  0  0  0  0  0  0  0  0  0
  139.2210   70.3840  223.9660 C   0  0  0  0  0  0  0  0  0  0  0  0
  138.9340   69.3050  224.7710 C   0  0  0  0  0  0  0  0  0  0  0  0
  139.6760   68.9240  225.8470 C   0  0  0  0  0  0  0  0  0  0  0  0
  139.2390   67.5440  226.8120 Cl  0  0  0  0  0  0  0  0  0  0  0  0
  140.7960   69.6660  226.1590 C   0  0  0  0  0  0  0  0  0  0  0  0
  141.1120   70.7640  225.3600 C   0  0  0  0  0  0  0  0  0  0  0  0
  140.3410   71.1270  224.2760 C   0  0  0  0  0  0  0  0  0  0  0  0
  140.6970   72.2110  223.5300 N   0  0  0  0  0  0  0  0  0  0  0  0
  141.1890   72.5360  220.1040 H   0  0  0  0  0  0  0  0  0  0  0  0
  141.2353   74.3419  218.4906 H   0  0  0  0  0  0  0  0  0  0  0  0
  140.6136   75.4817  219.7530 H   0  0  0  0  0  0  0  0  0  0  0  0
  145.3538   75.4217  220.4185 H   0  0  0  0  0  0  0  0  0  0  0  0
  144.9383   74.2832  221.7111 H   0  0  0  0  0  0  0  0  0  0  0  0
  146.7975   73.8815  219.5178 H   0  0  0  0  0  0  0  0  0  0  0  0
  146.3824   72.6999  220.7475 H   0  0  0  0  0  0  0  0  0  0  0  0
  145.4115   71.6390  218.7429 H   0  0  0  0  0  0  0  0  0  0  0  0
  142.9395   72.4306  218.8928 H   0  0  0  0  0  0  0  0  0  0  0  0
  144.3255   71.1772  220.8527 H   0  0  0  0  0  0  0  0  0  0  0  0
  143.6769   72.6734  221.6890 H   0  0  0  0  0  0  0  0  0  0  0  0
  141.9040   71.5170  221.8660 H   0  0  0  0  0  0  0  0  0  0  0  0
  138.2125   72.1269  221.2833 H   0  0  0  0  0  0  0  0  0  0  0  0
  137.5161   70.1348  222.6164 H   0  0  0  0  0  0  0  0  0  0  0  0
  138.0423   68.7085  224.5278 H   0  0  0  0  0  0  0  0  0  0  0  0
  141.4263   69.3973  227.0196 H   0  0  0  0  0  0  0  0  0  0  0  0
  142.0046   71.3595  225.6020 H   0  0  0  0  0  0  0  0  0  0  0  0
  1  2  2  0
  2  3  1  0
  3  4  1  0
  4  5  1  0
  5  6  2  0
  5  7  1  0
  7  8  1  0
  8  9  1  0
  9 10  1  0
 10 11  1  0
 10 12  1  0
 12 13  1  0
 13 14  1  0
  2 15  1  0
 15 16  2  0
 16 17  1  0
 17 18  2  0
 18 19  1  0
 19 20  2  0
 20 21  1  0
 20 22  1  0
 22 23  2  0
 23 24  1  0
 24 25  2  0
 12  7  1  0
 25 15  1  0
 24 18  1  0
  3 26  1  0
  4 27  1  0
  4 28  1  0
  8 29  1  0
  8 30  1  0
  9 31  1  0
  9 32  1  0
 10 33  1  6
 12 34  1  6
 13 35  1  0
 13 36  1  0
 14 37  1  0
 16 38  1  0
 17 39  1  0
 19 40  1  0
 22 41  1  0
 23 42  1  0
M  END
>  <smiles>  (44) 
O=C(NCC(=O)N1CC[C@H](F)[C@H]1CO)c1ccc2cc(Cl)ccc2n1

>  <score_type>  (44) 
oracle

>  <origin>  (44) 
autodockgpu

>  <m_score__min__energy>  (44) 
-6.8200000000000003

>  <m_primary>  (44) 
energy

>  <rmsd>  (44) 
4.370472735875195

>  <m_score__min__rmsd>  (44) 
4.370472735875195

>  <meeko>  (44) 
{"free_energy": -5.24, "intermolecular_energy": -7.03, "internal_energy": -2.43, "cluster_size": 11, "cluster_id": 4, "rank_in_cluster": 10}

>  <energy>  (44) 
-5.13

>  <cluster_rmsd>  (44) 
1.65

>  <cluster>  (44) 
6

$$$$

     RDKit          3D

 42 44  0  0  0  0  0  0  0  0999 V2000
  139.3560   69.6720  222.0690 O   0  0  0  0  0  0  0  0  0  0  0  0
  139.3240   70.7360  222.7310 C   0  0  0  0  0  0  0  0  0  0  0  0
  138.7070   70.7400  224.0050 N   0  0  0  0  0  0  0  0  0  0  0  0
  138.1100   69.5290  224.5560 C   0  0  0  0  0  0  0  0  0  0  0  0
  139.1280   68.6840  225.2350 C   0  0  0  0  0  0  0  0  0  0  0  0
  139.2980   67.4600  224.9560 O   0  0  0  0  0  0  0  0  0  0  0  0
  139.9370   69.2490  226.2240 N   0  0  0  0  0  0  0  0  0  0  0  0
  141.0200   68.6020  226.9390 C   0  0  0  0  0  0  0  0  0  0  0  0
  141.1270   69.3160  228.2780 C   0  0  0  0  0  0  0  0  0  0  0  0
  139.9970   70.3340  228.2340 C   0  0  2  0  0  0  0  0  0  0  0  0
  138.8230   69.6730  228.6000 F   0  0  0  0  0  0  0  0  0  0  0  0
  139.8850   70.6070  226.7680 C   0  0  1  0  0  0  0  0  0  0  0  0
  141.0780   71.3360  226.2030 C   0  0  0  0  0  0  0  0  0  0  0  0
  140.8610   71.9020  224.9580 O   0  0  0  0  0  0  0  0  0  0  0  0
  139.9180   71.9810  222.2070 C   0  0  0  0  0  0  0  0  0  0  0  0
  141.0430   71.9010  221.4130 C   0  0  0  0  0  0  0  0  0  0  0  0
  141.6680   73.0140  220.8770 C   0  0  0  0  0  0  0  0  0  0  0  0
  141.0850   74.2420  221.1900 C   0  0  0  0  0  0  0  0  0  0  0  0
  141.6080   75.4250  220.7210 C   0  0  0  0  0  0  0  0  0  0  0  0
  141.0930   76.6570  220.9860 C   0  0  0  0  0  0  0  0  0  0  0  0
  141.8200   78.1040  220.3500 Cl  0  0  0  0  0  0  0  0  0  0  0  0
  139.9680   76.7330  221.7810 C   0  0  0  0  0  0  0  0  0  0  0  0
  139.4160   75.5500  222.2700 C   0  0  0  0  0  0  0  0  0  0  0  0
  139.9600   74.3160  221.9850 C   0  0  0  0  0  0  0  0  0  0  0  0
  139.3790   73.1910  222.4900 N   0  0  0  0  0  0  0  0  0  0  0  0
  138.6860   71.6460  224.5570 H   0  0  0  0  0  0  0  0  0  0  0  0
  137.3353   69.8110  225.2842 H   0  0  0  0  0  0  0  0  0  0  0  0
  137.6747   68.9496  223.7285 H   0  0  0  0  0  0  0  0  0  0  0  0
  140.7939   67.5363  227.0915 H   0  0  0  0  0  0  0  0  0  0  0  0
  141.9636   68.6589  226.3765 H   0  0  0  0  0  0  0  0  0  0  0  0
  140.9879   68.6110  229.1109 H   0  0  0  0  0  0  0  0  0  0  0  0
  142.1122   69.7787  228.4374 H   0  0  0  0  0  0  0  0  0  0  0  0
  140.1564   71.2181  228.8688 H   0  0  0  0  0  0  0  0  0  0  0  0
  139.0017   71.2211  226.5387 H   0  0  0  0  0  0  0  0  0  0  0  0
  141.3551   72.1381  226.9029 H   0  0  0  0  0  0  0  0  0  0  0  0
  141.8739   70.5875  226.0751 H   0  0  0  0  0  0  0  0  0  0  0  0
  139.9980   72.3430  224.8590 H   0  0  0  0  0  0  0  0  0  0  0  0
  141.4627   70.9077  221.1958 H   0  0  0  0  0  0  0  0  0  0  0  0
  142.5654   72.9351  220.2458 H   0  0  0  0  0  0  0  0  0  0  0  0
  142.5055   75.3716  220.0872 H   0  0  0  0  0  0  0  0  0  0  0  0
  139.5163   77.7062  222.0238 H   0  0  0  0  0  0  0  0  0  0  0  0
  138.5181   75.6030  222.9032 H   0  0  0  0  0  0  0  0  0  0  0  0
  1  2  2  0
  2  3  1  0
  3  4  1  0
  4  5  1  0
  5  6  2  0
  5  7  1  0
  7  8  1  0
  8  9  1  0
  9 10  1  0
 10 11  1  0
 10 12  1  0
 12 13  1  0
 13 14  1  0
  2 15  1  0
 15 16  2  0
 16 17  1  0
 17 18  2  0
 18 19  1  0
 19 20  2  0
 20 21  1  0
 20 22  1  0
 22 23  2  0
 23 24  1  0
 24 25  2  0
 12  7  1  0
 25 15  1  0
 24 18  1  0
  3 26  1  0
  4 27  1  0
  4 28  1  0
  8 29  1  0
  8 30  1  0
  9 31  1  0
  9 32  1  0
 10 33  1  1
 12 34  1  1
 13 35  1  0
 13 36  1  0
 14 37  1  0
 16 38  1  0
 17 39  1  0
 19 40  1  0
 22 41  1  0
 23 42  1  0
M  END
>  <smiles>  (45) 
O=C(NCC(=O)N1CC[C@H](F)[C@H]1CO)c1ccc2cc(Cl)ccc2n1

>  <score_type>  (45) 
oracle

>  <origin>  (45) 
autodockgpu

>  <m_score__min__energy>  (45) 
-6.8200000000000003

>  <m_primary>  (45) 
energy

>  <rmsd>  (45) 
8.092591400086778

>  <m_score__min__rmsd>  (45) 
8.092591400086778

>  <meeko>  (45) 
{"free_energy": -6.1, "intermolecular_energy": -7.89, "internal_energy": -2.07, "cluster_size": 5, "cluster_id": 2, "rank_in_cluster": 5}

>  <energy>  (45) 
-4.95

>  <cluster_rmsd>  (45) 
1.01

>  <cluster>  (45) 
6

$$$$

     RDKit          3D

 42 44  0  0  0  0  0  0  0  0999 V2000
  139.9370   72.1950  220.7270 O   0  0  0  0  0  0  0  0  0  0  0  0
  139.8390   72.5990  221.9090 C   0  0  0  0  0  0  0  0  0  0  0  0
  139.6480   73.9790  222.1550 N   0  0  0  0  0  0  0  0  0  0  0  0
  139.5630   74.9350  221.0580 C   0  0  0  0  0  0  0  0  0  0  0  0
  139.9430   76.3030  221.5000 C   0  0  0  0  0  0  0  0  0  0  0  0
  139.7820   76.7080  222.6890 O   0  0  0  0  0  0  0  0  0  0  0  0
  140.5010   77.1910  220.5750 N   0  0  0  0  0  0  0  0  0  0  0  0
  139.8500   77.7610  219.4130 C   0  0  0  0  0  0  0  0  0  0  0  0
  140.9590   78.0760  218.4200 C   0  0  0  0  0  0  0  0  0  0  0  0
  142.2170   77.5810  219.1190 C   0  0  2  0  0  0  0  0  0  0  0  0
  142.3080   76.2060  218.8930 F   0  0  0  0  0  0  0  0  0  0  0  0
  141.8550   77.7470  220.5600 C   0  0  1  0  0  0  0  0  0  0  0  0
  141.7260   79.1890  220.9810 C   0  0  0  0  0  0  0  0  0  0  0  0
  141.2520   79.3640  222.2710 O   0  0  0  0  0  0  0  0  0  0  0  0
  139.9190   71.6610  223.0460 C   0  0  0  0  0  0  0  0  0  0  0  0
  139.4700   70.3680  222.8780 C   0  0  0  0  0  0  0  0  0  0  0  0
  139.5060   69.4200  223.8860 C   0  0  0  0  0  0  0  0  0  0  0  0
  140.0320   69.8550  225.1030 C   0  0  0  0  0  0  0  0  0  0  0  0
  140.1240   69.0120  226.1870 C   0  0  0  0  0  0  0  0  0  0  0  0
  140.6240   69.3670  227.4030 C   0  0  0  0  0  0  0  0  0  0  0  0
  140.7040   68.2340  228.7210 Cl  0  0  0  0  0  0  0  0  0  0  0  0
  141.0720   70.6610  227.5670 C   0  0  0  0  0  0  0  0  0  0  0  0
  140.9910   71.5380  226.4860 C   0  0  0  0  0  0  0  0  0  0  0  0
  140.4790   71.1490  225.2660 C   0  0  0  0  0  0  0  0  0  0  0  0
  140.4230   72.0480  224.2430 N   0  0  0  0  0  0  0  0  0  0  0  0
  139.5660   74.3100  223.1610 H   0  0  0  0  0  0  0  0  0  0  0  0
  140.2421   74.6174  220.2530 H   0  0  0  0  0  0  0  0  0  0  0  0
  138.5224   74.9625  220.7026 H   0  0  0  0  0  0  0  0  0  0  0  0
  139.1428   77.0389  218.9790 H   0  0  0  0  0  0  0  0  0  0  0  0
  139.2773   78.6628  219.6752 H   0  0  0  0  0  0  0  0  0  0  0  0
  140.8005   77.5415  217.4717 H   0  0  0  0  0  0  0  0  0  0  0  0
  141.0076   79.1433  218.1581 H   0  0  0  0  0  0  0  0  0  0  0  0
  143.1417   78.0863  218.8032 H   0  0  0  0  0  0  0  0  0  0  0  0
  142.6074   77.2912  221.2204 H   0  0  0  0  0  0  0  0  0  0  0  0
  142.7182   79.6587  220.9114 H   0  0  0  0  0  0  0  0  0  0  0  0
  140.9880   79.6499  220.3080 H   0  0  0  0  0  0  0  0  0  0  0  0
  140.6490   78.6640  222.5790 H   0  0  0  0  0  0  0  0  0  0  0  0
  139.0646   70.0765  221.8979 H   0  0  0  0  0  0  0  0  0  0  0  0
  139.1440   68.3920  223.7375 H   0  0  0  0  0  0  0  0  0  0  0  0
  139.7686   67.9785  226.0624 H   0  0  0  0  0  0  0  0  0  0  0  0
  141.4847   70.9943  228.5306 H   0  0  0  0  0  0  0  0  0  0  0  0
  141.3463   72.5716  226.6101 H   0  0  0  0  0  0  0  0  0  0  0  0
  1  2  2  0
  2  3  1  0
  3  4  1  0
  4  5  1  0
  5  6  2  0
  5  7  1  0
  7  8  1  0
  8  9  1  0
  9 10  1  0
 10 11  1  0
 10 12  1  0
 12 13  1  0
 13 14  1  0
  2 15  1  0
 15 16  2  0
 16 17  1  0
 17 18  2  0
 18 19  1  0
 19 20  2  0
 20 21  1  0
 20 22  1  0
 22 23  2  0
 23 24  1  0
 24 25  2  0
 12  7  1  0
 25 15  1  0
 24 18  1  0
  3 26  1  0
  4 27  1  0
  4 28  1  0
  8 29  1  0
  8 30  1  0
  9 31  1  0
  9 32  1  0
 10 33  1  6
 12 34  1  1
 13 35  1  0
 13 36  1  0
 14 37  1  0
 16 38  1  0
 17 39  1  0
 19 40  1  0
 22 41  1  0
 23 42  1  0
M  END
>  <smiles>  (46) 
O=C(NCC(=O)N1CC[C@H](F)[C@H]1CO)c1ccc2cc(Cl)ccc2n1

>  <score_type>  (46) 
oracle

>  <origin>  (46) 
autodockgpu

>  <m_score__min__energy>  (46) 
-6.8200000000000003

>  <m_primary>  (46) 
energy

>  <rmsd>  (46) 
1.9703376327773905

>  <m_score__min__rmsd>  (46) 
1.9703376327773905

>  <meeko>  (46) 
{"free_energy": -5.8, "intermolecular_energy": -7.59, "internal_energy": -2.03, "cluster_size": 21, "cluster_id": 1, "rank_in_cluster": 16}

>  <energy>  (46) 
-5.1

>  <cluster_rmsd>  (46) 
0.0

>  <cluster>  (46) 
7

$$$$

     RDKit          3D

 42 44  0  0  0  0  0  0  0  0999 V2000
  136.9500   70.9270  221.4670 O   0  0  0  0  0  0  0  0  0  0  0  0
  137.6160   71.4910  222.3660 C   0  0  0  0  0  0  0  0  0  0  0  0
  137.7880   72.8960  222.3230 N   0  0  0  0  0  0  0  0  0  0  0  0
  137.2010   73.6930  221.2520 C   0  0  0  0  0  0  0  0  0  0  0  0
  137.5580   75.1300  221.3900 C   0  0  0  0  0  0  0  0  0  0  0  0
  136.6930   76.0350  221.5870 O   0  0  0  0  0  0  0  0  0  0  0  0
  138.8990   75.5140  221.2980 N   0  0  0  0  0  0  0  0  0  0  0  0
  139.5230   76.6580  221.9330 C   0  0  0  0  0  0  0  0  0  0  0  0
  140.7100   77.0310  221.0580 C   0  0  0  0  0  0  0  0  0  0  0  0
  140.6280   76.0450  219.9020 C   0  0  2  0  0  0  0  0  0  0  0  0
  139.7040   76.5500  218.9860 F   0  0  0  0  0  0  0  0  0  0  0  0
  139.9760   74.8640  220.5490 C   0  0  1  0  0  0  0  0  0  0  0  0
  140.8510   74.1840  221.5700 C   0  0  0  0  0  0  0  0  0  0  0  0
  140.1540   73.4710  222.5310 O   0  0  0  0  0  0  0  0  0  0  0  0
  138.2240   70.7180  223.4660 C   0  0  0  0  0  0  0  0  0  0  0  0
  137.9560   69.3690  223.5610 C   0  0  0  0  0  0  0  0  0  0  0  0
  138.4820   68.5630  224.5570 C   0  0  0  0  0  0  0  0  0  0  0  0
  139.3130   69.2050  225.4750 C   0  0  0  0  0  0  0  0  0  0  0  0
  139.8990   68.5200  226.5140 C   0  0  0  0  0  0  0  0  0  0  0  0
  140.7190   69.0810  227.4460 C   0  0  0  0  0  0  0  0  0  0  0  0
  141.4180   68.1370  228.7290 Cl  0  0  0  0  0  0  0  0  0  0  0  0
  140.9850   70.4300  227.3480 C   0  0  0  0  0  0  0  0  0  0  0  0
  140.4040   71.1510  226.3040 C   0  0  0  0  0  0  0  0  0  0  0  0
  139.5770   70.5550  225.3760 C   0  0  0  0  0  0  0  0  0  0  0  0
  139.0360   71.3080  224.3760 N   0  0  0  0  0  0  0  0  0  0  0  0
  138.3540   73.3620  223.0890 H   0  0  0  0  0  0  0  0  0  0  0  0
  137.5724   73.3228  220.2850 H   0  0  0  0  0  0  0  0  0  0  0  0
  136.1065   73.6000  221.3099 H   0  0  0  0  0  0  0  0  0  0  0  0
  138.8133   77.4964  221.9913 H   0  0  0  0  0  0  0  0  0  0  0  0
  139.8389   76.4245  222.9605 H   0  0  0  0  0  0  0  0  0  0  0  0
  140.6219   78.0666  220.6976 H   0  0  0  0  0  0  0  0  0  0  0  0
  141.6687   76.9805  221.5950 H   0  0  0  0  0  0  0  0  0  0  0  0
  141.5898   75.8419  219.4083 H   0  0  0  0  0  0  0  0  0  0  0  0
  139.7011   74.0986  219.8083 H   0  0  0  0  0  0  0  0  0  0  0  0
  141.5201   73.4884  221.0423 H   0  0  0  0  0  0  0  0  0  0  0  0
  141.3950   74.9798  222.0999 H   0  0  0  0  0  0  0  0  0  0  0  0
  139.5940   74.0160  223.1130 H   0  0  0  0  0  0  0  0  0  0  0  0
  137.2938   68.9116  222.8111 H   0  0  0  0  0  0  0  0  0  0  0  0
  138.2591   67.4877  224.6199 H   0  0  0  0  0  0  0  0  0  0  0  0
  139.6908   67.4432  226.5982 H   0  0  0  0  0  0  0  0  0  0  0  0
  141.6413   70.9275  228.0772 H   0  0  0  0  0  0  0  0  0  0  0  0
  140.6123   72.2277  226.2190 H   0  0  0  0  0  0  0  0  0  0  0  0
  1  2  2  0
  2  3  1  0
  3  4  1  0
  4  5  1  0
  5  6  2  0
  5  7  1  0
  7  8  1  0
  8  9  1  0
  9 10  1  0
 10 11  1  0
 10 12  1  0
 12 13  1  0
 13 14  1  0
  2 15  1  0
 15 16  2  0
 16 17  1  0
 17 18  2  0
 18 19  1  0
 19 20  2  0
 20 21  1  0
 20 22  1  0
 22 23  2  0
 23 24  1  0
 24 25  2  0
 12  7  1  0
 25 15  1  0
 24 18  1  0
  3 26  1  0
  4 27  1  0
  4 28  1  0
  8 29  1  0
  8 30  1  0
  9 31  1  0
  9 32  1  0
 10 33  1  6
 12 34  1  6
 13 35  1  0
 13 36  1  0
 14 37  1  0
 16 38  1  0
 17 39  1  0
 19 40  1  0
 22 41  1  0
 23 42  1  0
M  END
>  <smiles>  (47) 
O=C(NCC(=O)N1CC[C@H](F)[C@H]1CO)c1ccc2cc(Cl)ccc2n1

>  <score_type>  (47) 
oracle

>  <origin>  (47) 
autodockgpu

>  <m_score__min__energy>  (47) 
-6.8200000000000003

>  <m_primary>  (47) 
energy

>  <rmsd>  (47) 
2.4917912559471533

>  <m_score__min__rmsd>  (47) 
2.4917912559471533

>  <meeko>  (47) 
{"free_energy": -6.18, "intermolecular_energy": -7.97, "internal_energy": -1.88, "cluster_size": 21, "cluster_id": 1, "rank_in_cluster": 4}

>  <energy>  (47) 
-5.1

>  <cluster_rmsd>  (47) 
1.96

>  <cluster>  (47) 
7

$$$$

     RDKit          3D

 42 44  0  0  0  0  0  0  0  0999 V2000
  140.5300   72.4310  220.7000 O   0  0  0  0  0  0  0  0  0  0  0  0
  140.0970   72.7890  221.8200 C   0  0  0  0  0  0  0  0  0  0  0  0
  139.5930   74.1020  221.9800 N   0  0  0  0  0  0  0  0  0  0  0  0
  139.5700   75.0400  220.8650 C   0  0  0  0  0  0  0  0  0  0  0  0
  140.3880   76.2480  221.1550 C   0  0  0  0  0  0  0  0  0  0  0  0
  141.6030   76.3500  220.8120 O   0  0  0  0  0  0  0  0  0  0  0  0
  139.8070   77.3210  221.8350 N   0  0  0  0  0  0  0  0  0  0  0  0
  138.6890   77.2670  222.7560 C   0  0  0  0  0  0  0  0  0  0  0  0
  138.0280   78.6350  222.6990 C   0  0  0  0  0  0  0  0  0  0  0  0
  138.8380   79.3820  221.6490 C   0  0  2  0  0  0  0  0  0  0  0  0
  138.3430   79.0120  220.3970 F   0  0  0  0  0  0  0  0  0  0  0  0
  140.1800   78.7360  221.7790 C   0  0  1  0  0  0  0  0  0  0  0  0
  140.8690   79.0440  223.0840 C   0  0  0  0  0  0  0  0  0  0  0  0
  141.8300   78.1170  223.4520 O   0  0  0  0  0  0  0  0  0  0  0  0
  140.1040   71.8670  222.9730 C   0  0  0  0  0  0  0  0  0  0  0  0
  139.6070   70.5910  222.8100 C   0  0  0  0  0  0  0  0  0  0  0  0
  139.5730   69.6590  223.8330 C   0  0  0  0  0  0  0  0  0  0  0  0
  140.0790   70.0900  225.0590 C   0  0  0  0  0  0  0  0  0  0  0  0
  140.1040   69.2620  226.1570 C   0  0  0  0  0  0  0  0  0  0  0  0
  140.5820   69.6150  227.3820 C   0  0  0  0  0  0  0  0  0  0  0  0
  140.5750   68.5020  228.7180 Cl  0  0  0  0  0  0  0  0  0  0  0  0
  141.0780   70.8920  227.5410 C   0  0  0  0  0  0  0  0  0  0  0  0
  141.0660   71.7540  226.4450 C   0  0  0  0  0  0  0  0  0  0  0  0
  140.5750   71.3680  225.2160 C   0  0  0  0  0  0  0  0  0  0  0  0
  140.5880   72.2520  224.1780 N   0  0  0  0  0  0  0  0  0  0  0  0
  139.2300   74.3940  222.9330 H   0  0  0  0  0  0  0  0  0  0  0  0
  139.9717   74.5421  219.9702 H   0  0  0  0  0  0  0  0  0  0  0  0
  138.5297   75.3576  220.7012 H   0  0  0  0  0  0  0  0  0  0  0  0
  137.9779   76.4865  222.4476 H   0  0  0  0  0  0  0  0  0  0  0  0
  139.0207   77.0236  223.7762 H   0  0  0  0  0  0  0  0  0  0  0  0
  136.9745   78.5495  222.3944 H   0  0  0  0  0  0  0  0  0  0  0  0
  138.0184   79.1453  223.6734 H   0  0  0  0  0  0  0  0  0  0  0  0
  138.8279   80.4764  221.7595 H   0  0  0  0  0  0  0  0  0  0  0  0
  140.8614   79.0593  220.9783 H   0  0  0  0  0  0  0  0  0  0  0  0
  141.3546   80.0269  222.9940 H   0  0  0  0  0  0  0  0  0  0  0  0
  140.0934   79.0212  223.8637 H   0  0  0  0  0  0  0  0  0  0  0  0
  142.0090   77.4330  222.7830 H   0  0  0  0  0  0  0  0  0  0  0  0
  139.2200   70.3006  221.8221 H   0  0  0  0  0  0  0  0  0  0  0  0
  139.1730   68.6446  223.6883 H   0  0  0  0  0  0  0  0  0  0  0  0
  139.7098   68.2421  226.0369 H   0  0  0  0  0  0  0  0  0  0  0  0
  141.4747   71.2235  228.5119 H   0  0  0  0  0  0  0  0  0  0  0  0
  141.4606   72.7738  226.5648 H   0  0  0  0  0  0  0  0  0  0  0  0
  1  2  2  0
  2  3  1  0
  3  4  1  0
  4  5  1  0
  5  6  2  0
  5  7  1  0
  7  8  1  0
  8  9  1  0
  9 10  1  0
 10 11  1  0
 10 12  1  0
 12 13  1  0
 13 14  1  0
  2 15  1  0
 15 16  2  0
 16 17  1  0
 17 18  2  0
 18 19  1  0
 19 20  2  0
 20 21  1  0
 20 22  1  0
 22 23  2  0
 23 24  1  0
 24 25  2  0
 12  7  1  0
 25 15  1  0
 24 18  1  0
  3 26  1  0
  4 27  1  0
  4 28  1  0
  8 29  1  0
  8 30  1  0
  9 31  1  0
  9 32  1  0
 10 33  1  1
 12 34  1  6
 13 35  1  0
 13 36  1  0
 14 37  1  0
 16 38  1  0
 17 39  1  0
 19 40  1  0
 22 41  1  0
 23 42  1  0
M  END
>  <smiles>  (48) 
O=C(NCC(=O)N1CC[C@H](F)[C@H]1CO)c1ccc2cc(Cl)ccc2n1

>  <score_type>  (48) 
oracle

>  <origin>  (48) 
autodockgpu

>  <m_score__min__energy>  (48) 
-6.8200000000000003

>  <m_primary>  (48) 
energy

>  <rmsd>  (48) 
3.083018471732729

>  <m_score__min__rmsd>  (48) 
3.083018471732729

>  <meeko>  (48) 
{"free_energy": -6.53, "intermolecular_energy": -8.32, "internal_energy": -1.59, "cluster_size": 21, "cluster_id": 1, "rank_in_cluster": 2}

>  <energy>  (48) 
-5.06

>  <cluster_rmsd>  (48) 
0.15

>  <cluster>  (48) 
7

$$$$

     RDKit          3D

 42 44  0  0  0  0  0  0  0  0999 V2000
  139.6670   72.0230  220.8250 O   0  0  0  0  0  0  0  0  0  0  0  0
  139.6650   72.4380  222.0070 C   0  0  0  0  0  0  0  0  0  0  0  0
  139.5230   73.8250  222.2540 N   0  0  0  0  0  0  0  0  0  0  0  0
  139.3790   74.7740  221.1560 C   0  0  0  0  0  0  0  0  0  0  0  0
  140.4030   75.8490  221.2310 C   0  0  0  0  0  0  0  0  0  0  0  0
  141.3790   75.8110  222.0380 O   0  0  0  0  0  0  0  0  0  0  0  0
  140.2980   76.9550  220.3820 N   0  0  0  0  0  0  0  0  0  0  0  0
  139.1310   77.7900  220.1810 C   0  0  0  0  0  0  0  0  0  0  0  0
  139.2640   78.3710  218.7810 C   0  0  0  0  0  0  0  0  0  0  0  0
  140.5430   77.7390  218.2510 C   0  0  2  0  0  0  0  0  0  0  0  0
  140.2160   76.4700  217.7700 F   0  0  0  0  0  0  0  0  0  0  0  0
  141.3250   77.5240  219.5070 C   0  0  1  0  0  0  0  0  0  0  0  0
  141.7740   78.8070  220.1590 C   0  0  0  0  0  0  0  0  0  0  0  0
  142.0610   78.6880  221.5090 O   0  0  0  0  0  0  0  0  0  0  0  0
  139.8080   71.5090  223.1450 C   0  0  0  0  0  0  0  0  0  0  0  0
  139.4230   70.1950  222.9850 C   0  0  0  0  0  0  0  0  0  0  0  0
  139.5200   69.2520  223.9940 C   0  0  0  0  0  0  0  0  0  0  0  0
  140.0390   69.7150  225.2030 C   0  0  0  0  0  0  0  0  0  0  0  0
  140.1890   68.8800  226.2870 C   0  0  0  0  0  0  0  0  0  0  0  0
  140.6870   69.2630  227.4950 C   0  0  0  0  0  0  0  0  0  0  0  0
  140.8410   68.1390  228.8140 Cl  0  0  0  0  0  0  0  0  0  0  0  0
  141.0710   70.5780  227.6510 C   0  0  0  0  0  0  0  0  0  0  0  0
  140.9310   71.4470  226.5700 C   0  0  0  0  0  0  0  0  0  0  0  0
  140.4220   71.0310  225.3580 C   0  0  0  0  0  0  0  0  0  0  0  0
  140.3080   71.9240  224.3340 N   0  0  0  0  0  0  0  0  0  0  0  0
  139.5230   74.1660  223.2590 H   0  0  0  0  0  0  0  0  0  0  0  0
  139.4921   74.2378  220.2022 H   0  0  0  0  0  0  0  0  0  0  0  0
  138.3841   75.2378  221.2272 H   0  0  0  0  0  0  0  0  0  0  0  0
  138.2132   77.1887  220.2592 H   0  0  0  0  0  0  0  0  0  0  0  0
  139.0684   78.5829  220.9409 H   0  0  0  0  0  0  0  0  0  0  0  0
  138.4014   78.0939  218.1573 H   0  0  0  0  0  0  0  0  0  0  0  0
  139.2968   79.4705  218.7760 H   0  0  0  0  0  0  0  0  0  0  0  0
  141.0517   78.3270  217.4729 H   0  0  0  0  0  0  0  0  0  0  0  0
  142.2322   76.9304  219.3210 H   0  0  0  0  0  0  0  0  0  0  0  0
  142.6803   79.1572  219.6433 H   0  0  0  0  0  0  0  0  0  0  0  0
  140.9356   79.5142  220.0753 H   0  0  0  0  0  0  0  0  0  0  0  0
  142.2500   77.7800  221.8040 H   0  0  0  0  0  0  0  0  0  0  0  0
  139.0201   69.8813  222.0107 H   0  0  0  0  0  0  0  0  0  0  0  0
  139.2084   68.2067  223.8516 H   0  0  0  0  0  0  0  0  0  0  0  0
  139.8852   67.8294  226.1690 H   0  0  0  0  0  0  0  0  0  0  0  0
  141.4793   70.9340  228.6084 H   0  0  0  0  0  0  0  0  0  0  0  0
  141.2361   72.4973  226.6876 H   0  0  0  0  0  0  0  0  0  0  0  0
  1  2  2  0
  2  3  1  0
  3  4  1  0
  4  5  1  0
  5  6  2  0
  5  7  1  0
  7  8  1  0
  8  9  1  0
  9 10  1  0
 10 11  1  0
 10 12  1  0
 12 13  1  0
 13 14  1  0
  2 15  1  0
 15 16  2  0
 16 17  1  0
 17 18  2  0
 18 19  1  0
 19 20  2  0
 20 21  1  0
 20 22  1  0
 22 23  2  0
 23 24  1  0
 24 25  2  0
 12  7  1  0
 25 15  1  0
 24 18  1  0
  3 26  1  0
  4 27  1  0
  4 28  1  0
  8 29  1  0
  8 30  1  0
  9 31  1  0
  9 32  1  0
 10 33  1  6
 12 34  1  6
 13 35  1  0
 13 36  1  0
 14 37  1  0
 16 38  1  0
 17 39  1  0
 19 40  1  0
 22 41  1  0
 23 42  1  0
M  END
>  <smiles>  (49) 
O=C(NCC(=O)N1CC[C@H](F)[C@H]1CO)c1ccc2cc(Cl)ccc2n1

>  <score_type>  (49) 
oracle

>  <origin>  (49) 
autodockgpu

>  <m_score__min__energy>  (49) 
-6.8200000000000003

>  <m_primary>  (49) 
energy

>  <rmsd>  (49) 
1.8801712002649085

>  <m_score__min__rmsd>  (49) 
1.8801712002649085

>  <meeko>  (49) 
{"free_energy": -5.87, "intermolecular_energy": -7.66, "internal_energy": -1.87, "cluster_size": 21, "cluster_id": 1, "rank_in_cluster": 12}

>  <energy>  (49) 
-4.93

>  <cluster_rmsd>  (49) 
0.0

>  <cluster>  (49) 
8

$$$$

     RDKit          3D

 42 44  0  0  0  0  0  0  0  0999 V2000
  138.1400   75.4110  222.3630 O   0  0  0  0  0  0  0  0  0  0  0  0
  139.3340   75.7660  222.2230 C   0  0  0  0  0  0  0  0  0  0  0  0
  139.7030   77.0950  222.5410 N   0  0  0  0  0  0  0  0  0  0  0  0
  138.7190   78.0540  223.0280 C   0  0  0  0  0  0  0  0  0  0  0  0
  139.3520   79.3560  223.3670 C   0  0  0  0  0  0  0  0  0  0  0  0
  138.7320   80.2830  223.9690 O   0  0  0  0  0  0  0  0  0  0  0  0
  140.6840   79.5820  223.0100 N   0  0  0  0  0  0  0  0  0  0  0  0
  141.8550   79.3750  223.8400 C   0  0  0  0  0  0  0  0  0  0  0  0
  142.9160   80.3330  223.3190 C   0  0  0  0  0  0  0  0  0  0  0  0
  142.2030   81.0880  222.2060 C   0  0  2  0  0  0  0  0  0  0  0  0
  141.4670   82.1140  222.8010 F   0  0  0  0  0  0  0  0  0  0  0  0
  141.2080   80.0750  221.7350 C   0  0  1  0  0  0  0  0  0  0  0  0
  141.8400   78.8900  221.0500 C   0  0  0  0  0  0  0  0  0  0  0  0
  140.9430   78.0790  220.3750 O   0  0  0  0  0  0  0  0  0  0  0  0
  140.3590   74.8240  221.7340 C   0  0  0  0  0  0  0  0  0  0  0  0
  140.0890   73.4720  221.7580 C   0  0  0  0  0  0  0  0  0  0  0  0
  140.9890   72.5150  221.3190 C   0  0  0  0  0  0  0  0  0  0  0  0
  142.2050   73.0050  220.8420 C   0  0  0  0  0  0  0  0  0  0  0  0
  143.1850   72.1600  220.3770 C   0  0  0  0  0  0  0  0  0  0  0  0
  144.3940   72.5670  219.8980 C   0  0  0  0  0  0  0  0  0  0  0  0
  145.5780   71.4270  219.3290 Cl  0  0  0  0  0  0  0  0  0  0  0  0
  144.6600   73.9200  219.8750 C   0  0  0  0  0  0  0  0  0  0  0  0
  143.6840   74.8000  220.3410 C   0  0  0  0  0  0  0  0  0  0  0  0
  142.4690   74.3580  220.8200 C   0  0  0  0  0  0  0  0  0  0  0  0
  141.5520   75.2640  221.2630 N   0  0  0  0  0  0  0  0  0  0  0  0
  140.7170   77.3840  222.4190 H   0  0  0  0  0  0  0  0  0  0  0  0
  137.9612   78.2169  222.2474 H   0  0  0  0  0  0  0  0  0  0  0  0
  138.2587   77.6451  223.9395 H   0  0  0  0  0  0  0  0  0  0  0  0
  141.6220   79.5986  224.8915 H   0  0  0  0  0  0  0  0  0  0  0  0
  142.1994   78.3312  223.7960 H   0  0  0  0  0  0  0  0  0  0  0  0
  143.2464   81.0212  224.1110 H   0  0  0  0  0  0  0  0  0  0  0  0
  143.8234   79.8172  222.9717 H   0  0  0  0  0  0  0  0  0  0  0  0
  142.8699   81.4915  221.4298 H   0  0  0  0  0  0  0  0  0  0  0  0
  140.4965   80.5115  221.0186 H   0  0  0  0  0  0  0  0  0  0  0  0
  142.5791   79.2639  220.3262 H   0  0  0  0  0  0  0  0  0  0  0  0
  142.2916   78.2722  221.8402 H   0  0  0  0  0  0  0  0  0  0  0  0
  141.0950   77.1240  220.4890 H   0  0  0  0  0  0  0  0  0  0  0  0
  139.1143   73.1382  222.1434 H   0  0  0  0  0  0  0  0  0  0  0  0
  140.7600   71.4394  221.3448 H   0  0  0  0  0  0  0  0  0  0  0  0
  142.9785   71.0797  220.3928 H   0  0  0  0  0  0  0  0  0  0  0  0
  145.6218   74.2970  219.4970 H   0  0  0  0  0  0  0  0  0  0  0  0
  143.8898   75.8805  220.3260 H   0  0  0  0  0  0  0  0  0  0  0  0
  1  2  2  0
  2  3  1  0
  3  4  1  0
  4  5  1  0
  5  6  2  0
  5  7  1  0
  7  8  1  0
  8  9  1  0
  9 10  1  0
 10 11  1  0
 10 12  1  0
 12 13  1  0
 13 14  1  0
  2 15  1  0
 15 16  2  0
 16 17  1  0
 17 18  2  0
 18 19  1  0
 19 20  2  0
 20 21  1  0
 20 22  1  0
 22 23  2  0
 23 24  1  0
 24 25  2  0
 12  7  1  0
 25 15  1  0
 24 18  1  0
  3 26  1  0
  4 27  1  0
  4 28  1  0
  8 29  1  0
  8 30  1  0
  9 31  1  0
  9 32  1  0
 10 33  1  6
 12 34  1  6
 13 35  1  0
 13 36  1  0
 14 37  1  0
 16 38  1  0
 17 39  1  0
 19 40  1  0
 22 41  1  0
 23 42  1  0
M  END
>  <smiles>  (50) 
O=C(NCC(=O)N1CC[C@H](F)[C@H]1CO)c1ccc2cc(Cl)ccc2n1

>  <score_type>  (50) 
oracle

>  <origin>  (50) 
autodockgpu

>  <m_score__min__energy>  (50) 
-6.8200000000000003

>  <m_primary>  (50) 
energy

>  <rmsd>  (50) 
6.343030837644603

>  <m_score__min__rmsd>  (50) 
6.343030837644603

>  <meeko>  (50) 
{"free_energy": -5.06, "intermolecular_energy": -6.85, "internal_energy": -2.7, "cluster_size": 3, "cluster_id": 7, "rank_in_cluster": 3}

>  <energy>  (50) 
-4.7

>  <cluster_rmsd>  (50) 
0.0

>  <cluster>  (50) 
9

$$$$
