
     RDKit          3D

 52 54  0  0  0  0  0  0  0  0999 V2000
  137.8280   76.3930  223.0550 C   0  0  0  0  0  0  0  0  0  0  0  0
  138.4330   75.8050  221.8690 N   0  0  0  0  0  0  0  0  0  0  0  0
  137.5510   75.3270  220.8180 C   0  0  0  0  0  0  0  0  0  0  0  0
  137.5750   73.8180  220.7830 C   0  0  0  0  0  0  0  0  0  0  0  0
  138.2300   73.2510  221.9710 N   0  0  0  0  0  0  0  0  0  0  0  0
  138.5540   71.8640  222.0040 C   0  0  0  0  0  0  0  0  0  0  0  0
  138.2870   71.0880  221.0250 O   0  0  0  0  0  0  0  0  0  0  0  0
  139.2090   71.3510  223.2060 C   0  0  0  0  0  0  0  0  0  0  0  0
  140.3340   71.9780  223.7060 C   0  0  0  0  0  0  0  0  0  0  0  0
  140.9870   71.5290  224.8400 C   0  0  0  0  0  0  0  0  0  0  0  0
  140.5000   70.4060  225.5090 C   0  0  0  0  0  0  0  0  0  0  0  0
  141.1370   69.9490  226.6410 C   0  0  0  0  0  0  0  0  0  0  0  0
  140.6030   68.8320  227.2590 C   0  0  0  0  0  0  0  0  0  0  0  0
  141.3240   68.1460  228.7170 Cl  0  0  0  0  0  0  0  0  0  0  0  0
  139.4760   68.2260  226.7370 C   0  0  0  0  0  0  0  0  0  0  0  0
  138.8370   68.6890  225.5970 C   0  0  0  0  0  0  0  0  0  0  0  0
  139.3710   69.8050  224.9800 C   0  0  0  0  0  0  0  0  0  0  0  0
  138.7550   70.2650  223.8700 N   0  0  0  0  0  0  0  0  0  0  0  0
  139.8690   75.7010  221.7330 C   0  0  0  0  0  0  0  0  0  0  0  0
  140.4080   74.7130  222.2930 O   0  0  0  0  0  0  0  0  0  0  0  0
  140.5410   76.7380  220.9690 C   0  0  0  0  0  0  0  0  0  0  0  0
  141.3090   77.7060  221.6690 N   0  0  0  0  0  0  0  0  0  0  0  0
  141.1300   77.7500  223.0620 C   0  0  0  0  0  0  0  0  0  0  0  0
  141.0070   79.0390  223.7640 C   0  0  0  0  0  0  0  0  0  0  0  0
  140.8580   80.1790  222.8160 C   0  0  0  0  0  0  0  0  0  0  0  0
  142.0210   80.0470  221.8220 C   0  0  0  0  0  0  0  0  0  0  0  0
  141.8210   78.8050  220.9740 C   0  0  0  0  0  0  0  0  0  0  0  0
  138.2816   75.9521  223.9549 H   0  0  0  0  0  0  0  0  0  0  0  0
  137.9985   77.4797  223.0532 H   0  0  0  0  0  0  0  0  0  0  0  0
  136.7466   76.1916  223.0532 H   0  0  0  0  0  0  0  0  0  0  0  0
  136.5255   75.6722  221.0157 H   0  0  0  0  0  0  0  0  0  0  0  0
  137.8917   75.7200  219.8488 H   0  0  0  0  0  0  0  0  0  0  0  0
  136.5404   73.4471  220.7366 H   0  0  0  0  0  0  0  0  0  0  0  0
  138.1486   73.5072  219.8973 H   0  0  0  0  0  0  0  0  0  0  0  0
  138.4670   73.8460  222.8000 H   0  0  0  0  0  0  0  0  0  0  0  0
  140.7239   72.8646  223.1846 H   0  0  0  0  0  0  0  0  0  0  0  0
  141.8810   72.0521  225.2103 H   0  0  0  0  0  0  0  0  0  0  0  0
  142.0323   70.4505  227.0372 H   0  0  0  0  0  0  0  0  0  0  0  0
  139.0693   67.3401  227.2468 H   0  0  0  0  0  0  0  0  0  0  0  0
  137.9416   68.1887  225.1996 H   0  0  0  0  0  0  0  0  0  0  0  0
  141.2184   76.2342  220.2638 H   0  0  0  0  0  0  0  0  0  0  0  0
  139.7199   77.3178  220.5222 H   0  0  0  0  0  0  0  0  0  0  0  0
  140.2112   77.1853  223.2787 H   0  0  0  0  0  0  0  0  0  0  0  0
  142.0818   77.3525  223.4442 H   0  0  0  0  0  0  0  0  0  0  0  0
  140.1238   79.0039  224.4188 H   0  0  0  0  0  0  0  0  0  0  0  0
  141.9272   79.1985  224.3452 H   0  0  0  0  0  0  0  0  0  0  0  0
  139.8943   80.1165  222.2893 H   0  0  0  0  0  0  0  0  0  0  0  0
  140.8780   81.1469  223.3383 H   0  0  0  0  0  0  0  0  0  0  0  0
  142.0508   80.9341  221.1722 H   0  0  0  0  0  0  0  0  0  0  0  0
  142.9688   79.9659  222.3743 H   0  0  0  0  0  0  0  0  0  0  0  0
  141.1231   79.0528  220.1606 H   0  0  0  0  0  0  0  0  0  0  0  0
  142.8166   78.5099  220.6110 H   0  0  0  0  0  0  0  0  0  0  0  0
  1  2  1  0
  2  3  1  0
  3  4  1  0
  4  5  1  0
  5  6  1  0
  6  7  2  0
  6  8  1  0
  8  9  2  0
  9 10  1  0
 10 11  2  0
 11 12  1  0
 12 13  2  0
 13 14  1  0
 13 15  1  0
 15 16  2  0
 16 17  1  0
 17 18  2  0
  2 19  1  0
 19 20  2  0
 19 21  1  0
 21 22  1  0
 22 23  1  0
 23 24  1  0
 24 25  1  0
 25 26  1  0
 26 27  1  0
 18  8  1  0
 27 22  1  0
 17 11  1  0
  1 28  1  0
  1 29  1  0
  1 30  1  0
  3 31  1  0
  3 32  1  0
  4 33  1  0
  4 34  1  0
  5 35  1  0
  9 36  1  0
 10 37  1  0
 12 38  1  0
 15 39  1  0
 16 40  1  0
 21 41  1  0
 21 42  1  0
 23 43  1  0
 23 44  1  0
 24 45  1  0
 24 46  1  0
 25 47  1  0
 25 48  1  0
 26 49  1  0
 26 50  1  0
 27 51  1  0
 27 52  1  0
M  END
>  <smiles>  (1) 
CN(CCNC(=O)c1ccc2cc(Cl)ccc2n1)C(=O)CN1CCCCC1

>  <score_type>  (1) 
oracle

>  <origin>  (1) 
autodockgpu

>  <m_score__min__energy>  (1) 
-7.9299999999999997

>  <m_primary>  (1) 
energy

>  <rmsd>  (1) 
9.0283298512945

>  <m_score__min__rmsd>  (1) 
9.0283298512945

>  <meeko>  (1) 
{"free_energy": -7.33, "intermolecular_energy": -9.42, "internal_energy": -1.91, "cluster_size": 28, "cluster_id": 1, "rank_in_cluster": 16}

>  <energy>  (1) 
-7.93

>  <cluster_rmsd>  (1) 
0.0

>  <cluster>  (1) 
1

$$$$

     RDKit          3D

 52 54  0  0  0  0  0  0  0  0999 V2000
  137.8460   76.1680  223.0160 C   0  0  0  0  0  0  0  0  0  0  0  0
  138.5200   75.6800  221.8220 N   0  0  0  0  0  0  0  0  0  0  0  0
  137.7020   75.1930  220.7260 C   0  0  0  0  0  0  0  0  0  0  0  0
  137.6290   73.6860  220.7770 C   0  0  0  0  0  0  0  0  0  0  0  0
  138.2920   73.1440  221.9730 N   0  0  0  0  0  0  0  0  0  0  0  0
  138.4250   71.7350  222.1280 C   0  0  0  0  0  0  0  0  0  0  0  0
  137.9790   70.9170  221.2540 O   0  0  0  0  0  0  0  0  0  0  0  0
  139.0970   71.2470  223.3320 C   0  0  0  0  0  0  0  0  0  0  0  0
  140.1750   71.9370  223.8530 C   0  0  0  0  0  0  0  0  0  0  0  0
  140.8410   71.5140  224.9900 C   0  0  0  0  0  0  0  0  0  0  0  0
  140.4170   70.3540  225.6390 C   0  0  0  0  0  0  0  0  0  0  0  0
  141.0690   69.9220  226.7720 C   0  0  0  0  0  0  0  0  0  0  0  0
  140.5980   68.7660  227.3700 C   0  0  0  0  0  0  0  0  0  0  0  0
  141.3430   68.1070  228.8280 Cl  0  0  0  0  0  0  0  0  0  0  0  0
  139.5170   68.0980  226.8250 C   0  0  0  0  0  0  0  0  0  0  0  0
  138.8640   68.5350  225.6840 C   0  0  0  0  0  0  0  0  0  0  0  0
  139.3350   69.6910  225.0880 C   0  0  0  0  0  0  0  0  0  0  0  0
  138.7040   70.1260  223.9760 N   0  0  0  0  0  0  0  0  0  0  0  0
  139.9640   75.6820  221.7230 C   0  0  0  0  0  0  0  0  0  0  0  0
  140.5600   74.7430  222.3090 O   0  0  0  0  0  0  0  0  0  0  0  0
  140.5750   76.7580  220.9620 C   0  0  0  0  0  0  0  0  0  0  0  0
  140.5940   78.0610  221.5240 N   0  0  0  0  0  0  0  0  0  0  0  0
  141.4960   78.2670  222.5820 C   0  0  0  0  0  0  0  0  0  0  0  0
  141.0870   79.0150  223.7830 C   0  0  0  0  0  0  0  0  0  0  0  0
  139.6200   79.2740  223.8070 C   0  0  0  0  0  0  0  0  0  0  0  0
  139.2900   79.9180  222.4530 C   0  0  0  0  0  0  0  0  0  0  0  0
  139.4870   78.8970  221.3480 C   0  0  0  0  0  0  0  0  0  0  0  0
  138.3654   75.7920  223.9098 H   0  0  0  0  0  0  0  0  0  0  0  0
  137.8583   77.2679  223.0203 H   0  0  0  0  0  0  0  0  0  0  0  0
  136.8049   75.8130  223.0203 H   0  0  0  0  0  0  0  0  0  0  0  0
  136.6883   75.6114  220.8121 H   0  0  0  0  0  0  0  0  0  0  0  0
  138.1498   75.5042  219.7707 H   0  0  0  0  0  0  0  0  0  0  0  0
  136.5720   73.3815  220.7877 H   0  0  0  0  0  0  0  0  0  0  0  0
  138.1473   73.2898  219.8913 H   0  0  0  0  0  0  0  0  0  0  0  0
  138.6720   73.7740  222.7190 H   0  0  0  0  0  0  0  0  0  0  0  0
  140.5150   72.8528  223.3472 H   0  0  0  0  0  0  0  0  0  0  0  0
  141.6962   72.0867  225.3782 H   0  0  0  0  0  0  0  0  0  0  0  0
  141.9277   70.4721  227.1844 H   0  0  0  0  0  0  0  0  0  0  0  0
  139.1607   67.1814  227.3179 H   0  0  0  0  0  0  0  0  0  0  0  0
  138.0063   67.9853  225.2691 H   0  0  0  0  0  0  0  0  0  0  0  0
  141.6201   76.4702  220.7749 H   0  0  0  0  0  0  0  0  0  0  0  0
  139.9326   76.8577  220.0747 H   0  0  0  0  0  0  0  0  0  0  0  0
  141.8115   77.2705  222.9246 H   0  0  0  0  0  0  0  0  0  0  0  0
  142.2567   78.9219  222.1321 H   0  0  0  0  0  0  0  0  0  0  0  0
  141.3591   78.4312  224.6747 H   0  0  0  0  0  0  0  0  0  0  0  0
  141.6032   79.9863  223.7703 H   0  0  0  0  0  0  0  0  0  0  0  0
  139.0660   78.3315  223.9287 H   0  0  0  0  0  0  0  0  0  0  0  0
  139.3363   79.9256  224.6466 H   0  0  0  0  0  0  0  0  0  0  0  0
  138.2446   80.2602  222.4544 H   0  0  0  0  0  0  0  0  0  0  0  0
  139.9557   80.7769  222.2826 H   0  0  0  0  0  0  0  0  0  0  0  0
  138.5859   78.2682  221.2961 H   0  0  0  0  0  0  0  0  0  0  0  0
  139.6672   79.4658  220.4239 H   0  0  0  0  0  0  0  0  0  0  0  0
  1  2  1  0
  2  3  1  0
  3  4  1  0
  4  5  1  0
  5  6  1  0
  6  7  2  0
  6  8  1  0
  8  9  2  0
  9 10  1  0
 10 11  2  0
 11 12  1  0
 12 13  2  0
 13 14  1  0
 13 15  1  0
 15 16  2  0
 16 17  1  0
 17 18  2  0
  2 19  1  0
 19 20  2  0
 19 21  1  0
 21 22  1  0
 22 23  1  0
 23 24  1  0
 24 25  1  0
 25 26  1  0
 26 27  1  0
 18  8  1  0
 27 22  1  0
 17 11  1  0
  1 28  1  0
  1 29  1  0
  1 30  1  0
  3 31  1  0
  3 32  1  0
  4 33  1  0
  4 34  1  0
  5 35  1  0
  9 36  1  0
 10 37  1  0
 12 38  1  0
 15 39  1  0
 16 40  1  0
 21 41  1  0
 21 42  1  0
 23 43  1  0
 23 44  1  0
 24 45  1  0
 24 46  1  0
 25 47  1  0
 25 48  1  0
 26 49  1  0
 26 50  1  0
 27 51  1  0
 27 52  1  0
M  END
>  <smiles>  (2) 
CN(CCNC(=O)c1ccc2cc(Cl)ccc2n1)C(=O)CN1CCCCC1

>  <score_type>  (2) 
oracle

>  <origin>  (2) 
autodockgpu

>  <m_score__min__energy>  (2) 
-7.9299999999999997

>  <m_primary>  (2) 
energy

>  <rmsd>  (2) 
8.880635716643384

>  <m_score__min__rmsd>  (2) 
8.880635716643384

>  <meeko>  (2) 
{"free_energy": -6.93, "intermolecular_energy": -9.02, "internal_energy": -2.1, "cluster_size": 28, "cluster_id": 1, "rank_in_cluster": 28}

>  <energy>  (2) 
-7.74

>  <cluster_rmsd>  (2) 
0.82

>  <cluster>  (2) 
1

$$$$

     RDKit          3D

 52 54  0  0  0  0  0  0  0  0999 V2000
  141.4570   73.4090  220.5080 C   0  0  0  0  0  0  0  0  0  0  0  0
  140.3250   74.3130  220.6510 N   0  0  0  0  0  0  0  0  0  0  0  0
  139.1210   74.0260  219.8920 C   0  0  0  0  0  0  0  0  0  0  0  0
  138.0430   73.5200  220.8200 C   0  0  0  0  0  0  0  0  0  0  0  0
  138.6010   72.9970  222.0760 N   0  0  0  0  0  0  0  0  0  0  0  0
  138.8930   71.6070  222.1930 C   0  0  0  0  0  0  0  0  0  0  0  0
  138.6800   70.7930  221.2320 O   0  0  0  0  0  0  0  0  0  0  0  0
  139.4520   71.1380  223.4600 C   0  0  0  0  0  0  0  0  0  0  0  0
  140.3580   71.9190  224.1510 C   0  0  0  0  0  0  0  0  0  0  0  0
  140.9120   71.5170  225.3540 C   0  0  0  0  0  0  0  0  0  0  0  0
  140.5500   70.2820  225.8930 C   0  0  0  0  0  0  0  0  0  0  0  0
  141.0920   69.8690  227.0900 C   0  0  0  0  0  0  0  0  0  0  0  0
  140.6900   68.6360  227.5730 C   0  0  0  0  0  0  0  0  0  0  0  0
  141.3080   67.9910  229.0960 Cl  0  0  0  0  0  0  0  0  0  0  0  0
  139.7820   67.8770  226.8590 C   0  0  0  0  0  0  0  0  0  0  0  0
  139.2390   68.2960  225.6550 C   0  0  0  0  0  0  0  0  0  0  0  0
  139.6410   69.5280  225.1730 C   0  0  0  0  0  0  0  0  0  0  0  0
  139.1160   69.9460  224.0010 N   0  0  0  0  0  0  0  0  0  0  0  0
  140.3910   75.4640  221.5250 C   0  0  0  0  0  0  0  0  0  0  0  0
  139.7420   75.3820  222.5980 O   0  0  0  0  0  0  0  0  0  0  0  0
  141.1930   76.5910  221.0800 C   0  0  0  0  0  0  0  0  0  0  0  0
  140.9920   77.8530  221.6970 N   0  0  0  0  0  0  0  0  0  0  0  0
  141.1790   78.9800  220.8800 C   0  0  0  0  0  0  0  0  0  0  0  0
  141.9140   80.1560  221.3780 C   0  0  0  0  0  0  0  0  0  0  0  0
  142.5870   79.8840  222.6790 C   0  0  0  0  0  0  0  0  0  0  0  0
  141.4970   79.3160  223.5990 C   0  0  0  0  0  0  0  0  0  0  0  0
  141.0670   77.9520  223.0900 C   0  0  0  0  0  0  0  0  0  0  0  0
  141.8217   73.1177  221.5041 H   0  0  0  0  0  0  0  0  0  0  0  0
  141.1419   72.5113  219.9559 H   0  0  0  0  0  0  0  0  0  0  0  0
  142.2628   73.9149  219.9559 H   0  0  0  0  0  0  0  0  0  0  0  0
  138.7744   74.9442  219.3952 H   0  0  0  0  0  0  0  0  0  0  0  0
  139.3413   73.2577  219.1363 H   0  0  0  0  0  0  0  0  0  0  0  0
  137.3572   74.3479  221.0532 H   0  0  0  0  0  0  0  0  0  0  0  0
  137.5155   72.6984  220.3134 H   0  0  0  0  0  0  0  0  0  0  0  0
  138.7920   73.6250  222.8920 H   0  0  0  0  0  0  0  0  0  0  0  0
  140.6489   72.8932  223.7310 H   0  0  0  0  0  0  0  0  0  0  0  0
  141.6298   72.1641  225.8794 H   0  0  0  0  0  0  0  0  0  0  0  0
  141.8134   70.4925  227.6385 H   0  0  0  0  0  0  0  0  0  0  0  0
  139.4779   66.9002  227.2632 H   0  0  0  0  0  0  0  0  0  0  0  0
  138.5175   67.6738  225.1051 H   0  0  0  0  0  0  0  0  0  0  0  0
  142.2478   76.3192  221.2336 H   0  0  0  0  0  0  0  0  0  0  0  0
  140.8790   76.7489  220.0377 H   0  0  0  0  0  0  0  0  0  0  0  0
  141.7124   78.6328  219.9828 H   0  0  0  0  0  0  0  0  0  0  0  0
  140.1561   79.3648  220.7549 H   0  0  0  0  0  0  0  0  0  0  0  0
  142.6757   80.4389  220.6365 H   0  0  0  0  0  0  0  0  0  0  0  0
  141.1892   80.9686  221.5339 H   0  0  0  0  0  0  0  0  0  0  0  0
  143.3970   79.1517  222.5462 H   0  0  0  0  0  0  0  0  0  0  0  0
  143.0405   80.7935  223.0998 H   0  0  0  0  0  0  0  0  0  0  0  0
  141.8933   79.2182  224.6204 H   0  0  0  0  0  0  0  0  0  0  0  0
  140.6316   79.9950  223.6055 H   0  0  0  0  0  0  0  0  0  0  0  0
  141.7915   77.2065  223.4495 H   0  0  0  0  0  0  0  0  0  0  0  0
  140.0500   77.7803  223.4723 H   0  0  0  0  0  0  0  0  0  0  0  0
  1  2  1  0
  2  3  1  0
  3  4  1  0
  4  5  1  0
  5  6  1  0
  6  7  2  0
  6  8  1  0
  8  9  2  0
  9 10  1  0
 10 11  2  0
 11 12  1  0
 12 13  2  0
 13 14  1  0
 13 15  1  0
 15 16  2  0
 16 17  1  0
 17 18  2  0
  2 19  1  0
 19 20  2  0
 19 21  1  0
 21 22  1  0
 22 23  1  0
 23 24  1  0
 24 25  1  0
 25 26  1  0
 26 27  1  0
 18  8  1  0
 27 22  1  0
 17 11  1  0
  1 28  1  0
  1 29  1  0
  1 30  1  0
  3 31  1  0
  3 32  1  0
  4 33  1  0
  4 34  1  0
  5 35  1  0
  9 36  1  0
 10 37  1  0
 12 38  1  0
 15 39  1  0
 16 40  1  0
 21 41  1  0
 21 42  1  0
 23 43  1  0
 23 44  1  0
 24 45  1  0
 24 46  1  0
 25 47  1  0
 25 48  1  0
 26 49  1  0
 26 50  1  0
 27 51  1  0
 27 52  1  0
M  END
>  <smiles>  (3) 
CN(CCNC(=O)c1ccc2cc(Cl)ccc2n1)C(=O)CN1CCCCC1

>  <score_type>  (3) 
oracle

>  <origin>  (3) 
autodockgpu

>  <m_score__min__energy>  (3) 
-7.9299999999999997

>  <m_primary>  (3) 
energy

>  <rmsd>  (3) 
8.925362350630094

>  <m_score__min__rmsd>  (3) 
8.925362350630094

>  <meeko>  (3) 
{"free_energy": -7.47, "intermolecular_energy": -9.56, "internal_energy": -1.87, "cluster_size": 28, "cluster_id": 1, "rank_in_cluster": 7}

>  <energy>  (3) 
-7.72

>  <cluster_rmsd>  (3) 
1.1

>  <cluster>  (3) 
1

$$$$

     RDKit          3D

 52 54  0  0  0  0  0  0  0  0999 V2000
  138.6190   69.8100  222.4410 C   0  0  0  0  0  0  0  0  0  0  0  0
  138.9140   71.2210  222.2460 N   0  0  0  0  0  0  0  0  0  0  0  0
  138.1140   71.9610  221.2850 C   0  0  0  0  0  0  0  0  0  0  0  0
  137.2040   72.9210  222.0130 C   0  0  0  0  0  0  0  0  0  0  0  0
  137.8790   74.1890  222.3220 N   0  0  0  0  0  0  0  0  0  0  0  0
  137.2210   75.4230  222.0510 C   0  0  0  0  0  0  0  0  0  0  0  0
  136.0510   75.4630  221.5380 O   0  0  0  0  0  0  0  0  0  0  0  0
  137.9330   76.6570  222.3830 C   0  0  0  0  0  0  0  0  0  0  0  0
  137.2290   77.8180  222.6390 C   0  0  0  0  0  0  0  0  0  0  0  0
  137.8590   79.0070  222.9570 C   0  0  0  0  0  0  0  0  0  0  0  0
  139.2520   79.0460  223.0240 C   0  0  0  0  0  0  0  0  0  0  0  0
  139.8930   80.2220  223.3420 C   0  0  0  0  0  0  0  0  0  0  0  0
  141.2760   80.1940  223.3950 C   0  0  0  0  0  0  0  0  0  0  0  0
  142.2190   81.6330  223.7920 Cl  0  0  0  0  0  0  0  0  0  0  0  0
  141.9530   79.0170  223.1340 C   0  0  0  0  0  0  0  0  0  0  0  0
  141.3050   77.8350  222.8130 C   0  0  0  0  0  0  0  0  0  0  0  0
  139.9230   77.8640  222.7620 C   0  0  0  0  0  0  0  0  0  0  0  0
  139.2810   76.7170  222.4520 N   0  0  0  0  0  0  0  0  0  0  0  0
  139.9700   71.8760  222.9880 C   0  0  0  0  0  0  0  0  0  0  0  0
  140.1820   73.0810  222.7020 O   0  0  0  0  0  0  0  0  0  0  0  0
  140.6730   71.0830  223.9820 C   0  0  0  0  0  0  0  0  0  0  0  0
  140.1450   71.0210  225.2980 N   0  0  0  0  0  0  0  0  0  0  0  0
  140.7230   71.8880  226.2400 C   0  0  0  0  0  0  0  0  0  0  0  0
  141.0480   71.4150  227.5970 C   0  0  0  0  0  0  0  0  0  0  0  0
  140.9140   69.9360  227.7200 C   0  0  0  0  0  0  0  0  0  0  0  0
  139.5100   69.6020  227.1950 C   0  0  0  0  0  0  0  0  0  0  0  0
  139.4520   69.8760  225.7030 C   0  0  0  0  0  0  0  0  0  0  0  0
  138.5731   69.5904  223.5179 H   0  0  0  0  0  0  0  0  0  0  0  0
  137.6513   69.5701  221.9763 H   0  0  0  0  0  0  0  0  0  0  0  0
  139.4096   69.2025  221.9763 H   0  0  0  0  0  0  0  0  0  0  0  0
  138.7781   72.5247  220.6133 H   0  0  0  0  0  0  0  0  0  0  0  0
  137.5062   71.2569  220.6978 H   0  0  0  0  0  0  0  0  0  0  0  0
  136.3282   73.1293  221.3809 H   0  0  0  0  0  0  0  0  0  0  0  0
  136.9056   72.4536  222.9630 H   0  0  0  0  0  0  0  0  0  0  0  0
  138.8390   74.2090  222.7420 H   0  0  0  0  0  0  0  0  0  0  0  0
  136.1304   77.7956  222.5881 H   0  0  0  0  0  0  0  0  0  0  0  0
  137.2678   79.9132  223.1552 H   0  0  0  0  0  0  0  0  0  0  0  0
  139.3301   81.1449  223.5454 H   0  0  0  0  0  0  0  0  0  0  0  0
  143.0519   79.0190  223.1832 H   0  0  0  0  0  0  0  0  0  0  0  0
  141.8664   76.9117  222.6072 H   0  0  0  0  0  0  0  0  0  0  0  0
  140.7181   70.0518  223.6016 H   0  0  0  0  0  0  0  0  0  0  0  0
  141.6373   71.5981  224.1035 H   0  0  0  0  0  0  0  0  0  0  0  0
  141.6640   72.2488  225.7992 H   0  0  0  0  0  0  0  0  0  0  0  0
  139.9238   72.6219  226.4208 H   0  0  0  0  0  0  0  0  0  0  0  0
  142.0843   71.6985  227.8332 H   0  0  0  0  0  0  0  0  0  0  0  0
  140.3387   71.8797  228.2976 H   0  0  0  0  0  0  0  0  0  0  0  0
  141.6804   69.4296  227.1149 H   0  0  0  0  0  0  0  0  0  0  0  0
  141.0500   69.6006  228.7587 H   0  0  0  0  0  0  0  0  0  0  0  0
  139.2910   68.5404  227.3821 H   0  0  0  0  0  0  0  0  0  0  0  0
  138.7660   70.2253  227.7126 H   0  0  0  0  0  0  0  0  0  0  0  0
  139.8813   69.0103  225.1774 H   0  0  0  0  0  0  0  0  0  0  0  0
  138.3936   70.0463  225.4563 H   0  0  0  0  0  0  0  0  0  0  0  0
  1  2  1  0
  2  3  1  0
  3  4  1  0
  4  5  1  0
  5  6  1  0
  6  7  2  0
  6  8  1  0
  8  9  2  0
  9 10  1  0
 10 11  2  0
 11 12  1  0
 12 13  2  0
 13 14  1  0
 13 15  1  0
 15 16  2  0
 16 17  1  0
 17 18  2  0
  2 19  1  0
 19 20  2  0
 19 21  1  0
 21 22  1  0
 22 23  1  0
 23 24  1  0
 24 25  1  0
 25 26  1  0
 26 27  1  0
 18  8  1  0
 27 22  1  0
 17 11  1  0
  1 28  1  0
  1 29  1  0
  1 30  1  0
  3 31  1  0
  3 32  1  0
  4 33  1  0
  4 34  1  0
  5 35  1  0
  9 36  1  0
 10 37  1  0
 12 38  1  0
 15 39  1  0
 16 40  1  0
 21 41  1  0
 21 42  1  0
 23 43  1  0
 23 44  1  0
 24 45  1  0
 24 46  1  0
 25 47  1  0
 25 48  1  0
 26 49  1  0
 26 50  1  0
 27 51  1  0
 27 52  1  0
M  END
>  <smiles>  (4) 
CN(CCNC(=O)c1ccc2cc(Cl)ccc2n1)C(=O)CN1CCCCC1

>  <score_type>  (4) 
oracle

>  <origin>  (4) 
autodockgpu

>  <m_score__min__energy>  (4) 
-7.9299999999999997

>  <m_primary>  (4) 
energy

>  <rmsd>  (4) 
4.88282755341991

>  <m_score__min__rmsd>  (4) 
4.88282755341991

>  <meeko>  (4) 
{"free_energy": -7.29, "intermolecular_energy": -9.38, "internal_energy": -1.96, "cluster_size": 16, "cluster_id": 3, "rank_in_cluster": 10}

>  <energy>  (4) 
-7.68

>  <cluster_rmsd>  (4) 
0.83

>  <cluster>  (4) 
1

$$$$

     RDKit          3D

 52 54  0  0  0  0  0  0  0  0999 V2000
  138.3430   77.8220  220.6840 C   0  0  0  0  0  0  0  0  0  0  0  0
  138.8180   76.6100  221.3340 N   0  0  0  0  0  0  0  0  0  0  0  0
  137.8830   75.5110  221.4990 C   0  0  0  0  0  0  0  0  0  0  0  0
  138.5120   74.2290  221.0090 C   0  0  0  0  0  0  0  0  0  0  0  0
  138.8640   73.3310  222.1180 N   0  0  0  0  0  0  0  0  0  0  0  0
  138.5710   71.9400  222.0200 C   0  0  0  0  0  0  0  0  0  0  0  0
  138.0020   71.4440  220.9890 O   0  0  0  0  0  0  0  0  0  0  0  0
  138.9470   71.0890  223.1480 C   0  0  0  0  0  0  0  0  0  0  0  0
  138.5990   69.7520  223.1550 C   0  0  0  0  0  0  0  0  0  0  0  0
  138.9340   68.9080  224.1990 C   0  0  0  0  0  0  0  0  0  0  0  0
  139.6460   69.4160  225.2860 C   0  0  0  0  0  0  0  0  0  0  0  0
  139.9880   68.5870  226.3310 C   0  0  0  0  0  0  0  0  0  0  0  0
  140.6980   69.1510  227.3780 C   0  0  0  0  0  0  0  0  0  0  0  0
  141.1980   68.1990  228.7780 Cl  0  0  0  0  0  0  0  0  0  0  0  0
  141.0310   70.4920  227.3420 C   0  0  0  0  0  0  0  0  0  0  0  0
  140.6850   71.3230  226.2890 C   0  0  0  0  0  0  0  0  0  0  0  0
  139.9770   70.7590  225.2430 C   0  0  0  0  0  0  0  0  0  0  0  0
  139.6360   71.5590  224.2110 N   0  0  0  0  0  0  0  0  0  0  0  0
  140.1830   76.4950  221.8020 C   0  0  0  0  0  0  0  0  0  0  0  0
  140.4930   75.4020  222.3380 O   0  0  0  0  0  0  0  0  0  0  0  0
  141.0500   77.6440  221.6060 C   0  0  0  0  0  0  0  0  0  0  0  0
  141.2470   78.5380  222.6910 N   0  0  0  0  0  0  0  0  0  0  0  0
  140.0840   79.0730  223.2710 C   0  0  0  0  0  0  0  0  0  0  0  0
  140.0090   80.5020  223.6220 C   0  0  0  0  0  0  0  0  0  0  0  0
  141.1630   81.2720  223.0780 C   0  0  0  0  0  0  0  0  0  0  0  0
  142.4190   80.5180  223.5380 C   0  0  0  0  0  0  0  0  0  0  0  0
  142.4830   79.1730  222.8380 C   0  0  0  0  0  0  0  0  0  0  0  0
  138.0543   78.5588  221.4481 H   0  0  0  0  0  0  0  0  0  0  0  0
  139.1440   78.2395  220.0563 H   0  0  0  0  0  0  0  0  0  0  0  0
  137.4716   77.5840  220.0563 H   0  0  0  0  0  0  0  0  0  0  0  0
  137.6243   75.4078  222.5632 H   0  0  0  0  0  0  0  0  0  0  0  0
  136.9733   75.7163  220.9156 H   0  0  0  0  0  0  0  0  0  0  0  0
  137.8001   73.7142  220.3471 H   0  0  0  0  0  0  0  0  0  0  0  0
  139.4373   74.4870  220.4731 H   0  0  0  0  0  0  0  0  0  0  0  0
  139.3300   73.6900  222.9850 H   0  0  0  0  0  0  0  0  0  0  0  0
  138.0366   69.3447  222.3018 H   0  0  0  0  0  0  0  0  0  0  0  0
  138.6421   67.8478  224.1723 H   0  0  0  0  0  0  0  0  0  0  0  0
  139.7094   67.5229  226.3341 H   0  0  0  0  0  0  0  0  0  0  0  0
  141.5947   70.9174  228.1853 H   0  0  0  0  0  0  0  0  0  0  0  0
  140.9619   72.3876  226.2848 H   0  0  0  0  0  0  0  0  0  0  0  0
  142.0396   77.2587  221.3193 H   0  0  0  0  0  0  0  0  0  0  0  0
  140.5276   78.2492  220.8505 H   0  0  0  0  0  0  0  0  0  0  0  0
  139.2628   78.8790  222.5653 H   0  0  0  0  0  0  0  0  0  0  0  0
  140.0479   78.5767  224.2520 H   0  0  0  0  0  0  0  0  0  0  0  0
  139.0780   80.9201  223.2115 H   0  0  0  0  0  0  0  0  0  0  0  0
  140.0326   80.5841  224.7187 H   0  0  0  0  0  0  0  0  0  0  0  0
  141.1173   81.3068  221.9795 H   0  0  0  0  0  0  0  0  0  0  0  0
  141.1609   82.3128  223.4341 H   0  0  0  0  0  0  0  0  0  0  0  0
  143.3135   81.1063  223.2854 H   0  0  0  0  0  0  0  0  0  0  0  0
  142.3779   80.3646  224.6265 H   0  0  0  0  0  0  0  0  0  0  0  0
  142.9118   79.3266  221.8367 H   0  0  0  0  0  0  0  0  0  0  0  0
  143.0981   78.5183  223.4729 H   0  0  0  0  0  0  0  0  0  0  0  0
  1  2  1  0
  2  3  1  0
  3  4  1  0
  4  5  1  0
  5  6  1  0
  6  7  2  0
  6  8  1  0
  8  9  2  0
  9 10  1  0
 10 11  2  0
 11 12  1  0
 12 13  2  0
 13 14  1  0
 13 15  1  0
 15 16  2  0
 16 17  1  0
 17 18  2  0
  2 19  1  0
 19 20  2  0
 19 21  1  0
 21 22  1  0
 22 23  1  0
 23 24  1  0
 24 25  1  0
 25 26  1  0
 26 27  1  0
 18  8  1  0
 27 22  1  0
 17 11  1  0
  1 28  1  0
  1 29  1  0
  1 30  1  0
  3 31  1  0
  3 32  1  0
  4 33  1  0
  4 34  1  0
  5 35  1  0
  9 36  1  0
 10 37  1  0
 12 38  1  0
 15 39  1  0
 16 40  1  0
 21 41  1  0
 21 42  1  0
 23 43  1  0
 23 44  1  0
 24 45  1  0
 24 46  1  0
 25 47  1  0
 25 48  1  0
 26 49  1  0
 26 50  1  0
 27 51  1  0
 27 52  1  0
M  END
>  <smiles>  (5) 
CN(CCNC(=O)c1ccc2cc(Cl)ccc2n1)C(=O)CN1CCCCC1

>  <score_type>  (5) 
oracle

>  <origin>  (5) 
autodockgpu

>  <m_score__min__energy>  (5) 
-7.9299999999999997

>  <m_primary>  (5) 
energy

>  <rmsd>  (5) 
9.815334467988876

>  <m_score__min__rmsd>  (5) 
9.815334467988876

>  <meeko>  (5) 
{"free_energy": -7.68, "intermolecular_energy": -9.77, "internal_energy": -1.74, "cluster_size": 28, "cluster_id": 1, "rank_in_cluster": 4}

>  <energy>  (5) 
-7.6

>  <cluster_rmsd>  (5) 
1.42

>  <cluster>  (5) 
1

$$$$

     RDKit          3D

 52 54  0  0  0  0  0  0  0  0999 V2000
  137.7060   70.8920  223.8590 C   0  0  0  0  0  0  0  0  0  0  0  0
  138.5430   71.6500  222.9410 N   0  0  0  0  0  0  0  0  0  0  0  0
  137.9640   72.0740  221.6790 C   0  0  0  0  0  0  0  0  0  0  0  0
  137.0450   73.2490  221.9110 C   0  0  0  0  0  0  0  0  0  0  0  0
  137.7870   74.4590  222.2940 N   0  0  0  0  0  0  0  0  0  0  0  0
  137.2480   75.7430  221.9920 C   0  0  0  0  0  0  0  0  0  0  0  0
  136.1300   75.8770  221.3890 O   0  0  0  0  0  0  0  0  0  0  0  0
  138.0220   76.9140  222.4000 C   0  0  0  0  0  0  0  0  0  0  0  0
  137.3810   78.1030  222.6920 C   0  0  0  0  0  0  0  0  0  0  0  0
  138.0720   79.2360  223.0820 C   0  0  0  0  0  0  0  0  0  0  0  0
  139.4620   79.1870  223.1870 C   0  0  0  0  0  0  0  0  0  0  0  0
  140.1630   80.3070  223.5770 C   0  0  0  0  0  0  0  0  0  0  0  0
  141.5400   80.1910  223.6640 C   0  0  0  0  0  0  0  0  0  0  0  0
  142.5540   81.5510  224.1530 Cl  0  0  0  0  0  0  0  0  0  0  0  0
  142.1520   78.9890  223.3660 C   0  0  0  0  0  0  0  0  0  0  0  0
  141.4440   77.8640  222.9730 C   0  0  0  0  0  0  0  0  0  0  0  0
  140.0690   77.9800  222.8870 C   0  0  0  0  0  0  0  0  0  0  0  0
  139.3690   76.8890  222.5070 N   0  0  0  0  0  0  0  0  0  0  0  0
  139.9130   71.9770  223.2730 C   0  0  0  0  0  0  0  0  0  0  0  0
  140.3750   73.0210  222.7480 O   0  0  0  0  0  0  0  0  0  0  0  0
  140.6130   71.0740  224.1700 C   0  0  0  0  0  0  0  0  0  0  0  0
  140.1320   70.9300  225.4980 N   0  0  0  0  0  0  0  0  0  0  0  0
  140.6280   71.8470  226.4400 C   0  0  0  0  0  0  0  0  0  0  0  0
  141.0440   71.3970  227.7800 C   0  0  0  0  0  0  0  0  0  0  0  0
  141.0900   69.9110  227.8810 C   0  0  0  0  0  0  0  0  0  0  0  0
  139.7230   69.4190  227.3860 C   0  0  0  0  0  0  0  0  0  0  0  0
  139.5920   69.7050  225.9010 C   0  0  0  0  0  0  0  0  0  0  0  0
  137.9800   71.1402  224.8950 H   0  0  0  0  0  0  0  0  0  0  0  0
  136.6498   71.1472  223.6879 H   0  0  0  0  0  0  0  0  0  0  0  0
  137.8555   69.8157  223.6879 H   0  0  0  0  0  0  0  0  0  0  0  0
  138.7679   72.3691  220.9885 H   0  0  0  0  0  0  0  0  0  0  0  0
  137.3902   71.2427  221.2435 H   0  0  0  0  0  0  0  0  0  0  0  0
  136.4872   73.4523  220.9850 H   0  0  0  0  0  0  0  0  0  0  0  0
  136.3644   72.9914  222.7359 H   0  0  0  0  0  0  0  0  0  0  0  0
  138.7090   74.4000  222.7890 H   0  0  0  0  0  0  0  0  0  0  0  0
  136.2849   78.1499  222.6116 H   0  0  0  0  0  0  0  0  0  0  0  0
  137.5306   80.1667  223.3072 H   0  0  0  0  0  0  0  0  0  0  0  0
  139.6510   81.2525  223.8092 H   0  0  0  0  0  0  0  0  0  0  0  0
  143.2472   78.9218  223.4438 H   0  0  0  0  0  0  0  0  0  0  0  0
  141.9549   76.9183  222.7393 H   0  0  0  0  0  0  0  0  0  0  0  0
  140.5925   70.0763  223.7073 H   0  0  0  0  0  0  0  0  0  0  0  0
  141.6059   71.5316  224.2916 H   0  0  0  0  0  0  0  0  0  0  0  0
  141.5069   72.3241  225.9817 H   0  0  0  0  0  0  0  0  0  0  0  0
  139.7523   72.4775  226.6536 H   0  0  0  0  0  0  0  0  0  0  0  0
  142.0454   71.7986  227.9944 H   0  0  0  0  0  0  0  0  0  0  0  0
  140.3040   71.7640  228.5064 H   0  0  0  0  0  0  0  0  0  0  0  0
  141.8947   69.5082  227.2484 H   0  0  0  0  0  0  0  0  0  0  0  0
  141.2925   69.5799  228.9103 H   0  0  0  0  0  0  0  0  0  0  0  0
  139.6375   68.3362  227.5602 H   0  0  0  0  0  0  0  0  0  0  0  0
  138.9243   69.9415  227.9328 H   0  0  0  0  0  0  0  0  0  0  0  0
  140.1069   68.9043  225.3499 H   0  0  0  0  0  0  0  0  0  0  0  0
  138.5145   69.7510  225.6845 H   0  0  0  0  0  0  0  0  0  0  0  0
  1  2  1  0
  2  3  1  0
  3  4  1  0
  4  5  1  0
  5  6  1  0
  6  7  2  0
  6  8  1  0
  8  9  2  0
  9 10  1  0
 10 11  2  0
 11 12  1  0
 12 13  2  0
 13 14  1  0
 13 15  1  0
 15 16  2  0
 16 17  1  0
 17 18  2  0
  2 19  1  0
 19 20  2  0
 19 21  1  0
 21 22  1  0
 22 23  1  0
 23 24  1  0
 24 25  1  0
 25 26  1  0
 26 27  1  0
 18  8  1  0
 27 22  1  0
 17 11  1  0
  1 28  1  0
  1 29  1  0
  1 30  1  0
  3 31  1  0
  3 32  1  0
  4 33  1  0
  4 34  1  0
  5 35  1  0
  9 36  1  0
 10 37  1  0
 12 38  1  0
 15 39  1  0
 16 40  1  0
 21 41  1  0
 21 42  1  0
 23 43  1  0
 23 44  1  0
 24 45  1  0
 24 46  1  0
 25 47  1  0
 25 48  1  0
 26 49  1  0
 26 50  1  0
 27 51  1  0
 27 52  1  0
M  END
>  <smiles>  (6) 
CN(CCNC(=O)c1ccc2cc(Cl)ccc2n1)C(=O)CN1CCCCC1

>  <score_type>  (6) 
oracle

>  <origin>  (6) 
autodockgpu

>  <m_score__min__energy>  (6) 
-7.9299999999999997

>  <m_primary>  (6) 
energy

>  <rmsd>  (6) 
4.9476486642459685

>  <m_score__min__rmsd>  (6) 
4.9476486642459685

>  <meeko>  (6) 
{"free_energy": -7.53, "intermolecular_energy": -9.62, "internal_energy": -1.83, "cluster_size": 16, "cluster_id": 3, "rank_in_cluster": 2}

>  <energy>  (6) 
-7.54

>  <cluster_rmsd>  (6) 
0.89

>  <cluster>  (6) 
1

$$$$

     RDKit          3D

 52 54  0  0  0  0  0  0  0  0999 V2000
  137.4190   69.4410  223.3890 C   0  0  0  0  0  0  0  0  0  0  0  0
  137.8680   70.8200  223.5010 N   0  0  0  0  0  0  0  0  0  0  0  0
  136.8910   71.8760  223.2970 C   0  0  0  0  0  0  0  0  0  0  0  0
  137.2050   72.6190  222.0210 C   0  0  0  0  0  0  0  0  0  0  0  0
  137.8670   73.9050  222.2840 N   0  0  0  0  0  0  0  0  0  0  0  0
  137.1740   75.1220  222.0240 C   0  0  0  0  0  0  0  0  0  0  0  0
  135.9830   75.1310  221.5610 O   0  0  0  0  0  0  0  0  0  0  0  0
  137.8740   76.3740  222.3070 C   0  0  0  0  0  0  0  0  0  0  0  0
  137.1660   77.5540  222.4300 C   0  0  0  0  0  0  0  0  0  0  0  0
  137.7850   78.7610  222.6990 C   0  0  0  0  0  0  0  0  0  0  0  0
  139.1720   78.7990  222.8520 C   0  0  0  0  0  0  0  0  0  0  0  0
  139.8020   79.9930  223.1220 C   0  0  0  0  0  0  0  0  0  0  0  0
  141.1790   79.9620  223.2650 C   0  0  0  0  0  0  0  0  0  0  0  0
  142.1070   81.4230  223.6130 Cl  0  0  0  0  0  0  0  0  0  0  0  0
  141.8600   78.7660  223.1360 C   0  0  0  0  0  0  0  0  0  0  0  0
  141.2220   77.5670  222.8640 C   0  0  0  0  0  0  0  0  0  0  0  0
  139.8470   77.5980  222.7220 C   0  0  0  0  0  0  0  0  0  0  0  0
  139.2160   76.4340  222.4580 N   0  0  0  0  0  0  0  0  0  0  0  0
  139.2460   71.1380  223.8090 C   0  0  0  0  0  0  0  0  0  0  0  0
  139.6910   72.2040  223.3150 O   0  0  0  0  0  0  0  0  0  0  0  0
  139.9700   70.2010  224.6510 C   0  0  0  0  0  0  0  0  0  0  0  0
  139.7770   70.2630  226.0560 N   0  0  0  0  0  0  0  0  0  0  0  0
  140.3420   71.3690  226.7120 C   0  0  0  0  0  0  0  0  0  0  0  0
  141.0590   71.2010  227.9880 C   0  0  0  0  0  0  0  0  0  0  0  0
  141.2890   69.7650  228.3140 C   0  0  0  0  0  0  0  0  0  0  0  0
  139.9150   69.0890  228.2050 C   0  0  0  0  0  0  0  0  0  0  0  0
  139.4660   69.0930  226.7550 C   0  0  0  0  0  0  0  0  0  0  0  0
  137.2811   69.0175  224.3948 H   0  0  0  0  0  0  0  0  0  0  0  0
  136.4642   69.4094  222.8438 H   0  0  0  0  0  0  0  0  0  0  0  0
  138.1722   68.8533  222.8438 H   0  0  0  0  0  0  0  0  0  0  0  0
  135.8856   71.4354  223.2258 H   0  0  0  0  0  0  0  0  0  0  0  0
  136.9280   72.5758  224.1449 H   0  0  0  0  0  0  0  0  0  0  0  0
  137.8686   71.9976  221.4017 H   0  0  0  0  0  0  0  0  0  0  0  0
  136.2562   72.8237  221.5035 H   0  0  0  0  0  0  0  0  0  0  0  0
  138.8430   73.9500  222.6620 H   0  0  0  0  0  0  0  0  0  0  0  0
  136.0728   77.5327  222.3098 H   0  0  0  0  0  0  0  0  0  0  0  0
  137.1904   79.6818  222.7915 H   0  0  0  0  0  0  0  0  0  0  0  0
  139.2360   80.9311  223.2199 H   0  0  0  0  0  0  0  0  0  0  0  0
  142.9536   78.7665  223.2542 H   0  0  0  0  0  0  0  0  0  0  0  0
  141.7865   76.6281  222.7650 H   0  0  0  0  0  0  0  0  0  0  0  0
  139.6857   69.1884  224.3287 H   0  0  0  0  0  0  0  0  0  0  0  0
  141.0262   70.4754  224.5123 H   0  0  0  0  0  0  0  0  0  0  0  0
  141.0558   71.8211  226.0077 H   0  0  0  0  0  0  0  0  0  0  0  0
  139.4600   71.9589  227.0022 H   0  0  0  0  0  0  0  0  0  0  0  0
  142.0318   71.7097  227.9184 H   0  0  0  0  0  0  0  0  0  0  0  0
  140.4391   71.6356  228.7860 H   0  0  0  0  0  0  0  0  0  0  0  0
  141.9944   69.3175  227.5984 H   0  0  0  0  0  0  0  0  0  0  0  0
  141.7241   69.6409  229.3166 H   0  0  0  0  0  0  0  0  0  0  0  0
  139.9865   68.0518  228.5644 H   0  0  0  0  0  0  0  0  0  0  0  0
  139.1850   69.6384  228.8177 H   0  0  0  0  0  0  0  0  0  0  0  0
  139.9495   68.2479  226.2431 H   0  0  0  0  0  0  0  0  0  0  0  0
  138.3687   69.0173  226.7666 H   0  0  0  0  0  0  0  0  0  0  0  0
  1  2  1  0
  2  3  1  0
  3  4  1  0
  4  5  1  0
  5  6  1  0
  6  7  2  0
  6  8  1  0
  8  9  2  0
  9 10  1  0
 10 11  2  0
 11 12  1  0
 12 13  2  0
 13 14  1  0
 13 15  1  0
 15 16  2  0
 16 17  1  0
 17 18  2  0
  2 19  1  0
 19 20  2  0
 19 21  1  0
 21 22  1  0
 22 23  1  0
 23 24  1  0
 24 25  1  0
 25 26  1  0
 26 27  1  0
 18  8  1  0
 27 22  1  0
 17 11  1  0
  1 28  1  0
  1 29  1  0
  1 30  1  0
  3 31  1  0
  3 32  1  0
  4 33  1  0
  4 34  1  0
  5 35  1  0
  9 36  1  0
 10 37  1  0
 12 38  1  0
 15 39  1  0
 16 40  1  0
 21 41  1  0
 21 42  1  0
 23 43  1  0
 23 44  1  0
 24 45  1  0
 24 46  1  0
 25 47  1  0
 25 48  1  0
 26 49  1  0
 26 50  1  0
 27 51  1  0
 27 52  1  0
M  END
>  <smiles>  (7) 
CN(CCNC(=O)c1ccc2cc(Cl)ccc2n1)C(=O)CN1CCCCC1

>  <score_type>  (7) 
oracle

>  <origin>  (7) 
autodockgpu

>  <m_score__min__energy>  (7) 
-7.9299999999999997

>  <m_primary>  (7) 
energy

>  <rmsd>  (7) 
5.512265672298821

>  <m_score__min__rmsd>  (7) 
5.512265672298821

>  <meeko>  (7) 
{"free_energy": -6.92, "intermolecular_energy": -9.01, "internal_energy": -1.88, "cluster_size": 16, "cluster_id": 3, "rank_in_cluster": 14}

>  <energy>  (7) 
-7.47

>  <cluster_rmsd>  (7) 
1.09

>  <cluster>  (7) 
1

$$$$

     RDKit          3D

 52 54  0  0  0  0  0  0  0  0999 V2000
  137.4200   70.7100  224.2060 C   0  0  0  0  0  0  0  0  0  0  0  0
  138.2780   71.3240  223.2040 N   0  0  0  0  0  0  0  0  0  0  0  0
  137.7190   71.5750  221.8870 C   0  0  0  0  0  0  0  0  0  0  0  0
  136.7990   72.7710  221.9440 C   0  0  0  0  0  0  0  0  0  0  0  0
  137.5240   74.0060  222.2770 N   0  0  0  0  0  0  0  0  0  0  0  0
  136.9320   75.2700  221.9920 C   0  0  0  0  0  0  0  0  0  0  0  0
  135.7800   75.3650  221.4480 O   0  0  0  0  0  0  0  0  0  0  0  0
  137.6920   76.4680  222.3480 C   0  0  0  0  0  0  0  0  0  0  0  0
  137.0330   77.6410  222.6610 C   0  0  0  0  0  0  0  0  0  0  0  0
  137.7090   78.7980  223.0040 C   0  0  0  0  0  0  0  0  0  0  0  0
  139.1040   78.7890  223.0370 C   0  0  0  0  0  0  0  0  0  0  0  0
  139.7910   79.9330  223.3790 C   0  0  0  0  0  0  0  0  0  0  0  0
  141.1730   79.8580  223.3960 C   0  0  0  0  0  0  0  0  0  0  0  0
  142.1710   81.2520  223.8170 Cl  0  0  0  0  0  0  0  0  0  0  0  0
  141.8040   78.6710  223.0770 C   0  0  0  0  0  0  0  0  0  0  0  0
  141.1100   77.5220  222.7330 C   0  0  0  0  0  0  0  0  0  0  0  0
  139.7290   77.5970  222.7170 C   0  0  0  0  0  0  0  0  0  0  0  0
  139.0430   76.4820  222.3850 N   0  0  0  0  0  0  0  0  0  0  0  0
  139.6470   71.6810  223.5050 C   0  0  0  0  0  0  0  0  0  0  0  0
  140.0670   72.7470  222.9890 O   0  0  0  0  0  0  0  0  0  0  0  0
  140.3940   70.7810  224.3670 C   0  0  0  0  0  0  0  0  0  0  0  0
  139.9500   70.5970  225.7030 N   0  0  0  0  0  0  0  0  0  0  0  0
  140.3790   71.5570  226.6350 C   0  0  0  0  0  0  0  0  0  0  0  0
  140.8560   71.1500  227.9680 C   0  0  0  0  0  0  0  0  0  0  0  0
  141.0380   69.6740  228.0690 C   0  0  0  0  0  0  0  0  0  0  0  0
  139.7120   69.0600  227.5980 C   0  0  0  0  0  0  0  0  0  0  0  0
  139.5300   69.3300  226.1160 C   0  0  0  0  0  0  0  0  0  0  0  0
  137.7846   70.9709  225.2105 H   0  0  0  0  0  0  0  0  0  0  0  0
  136.3907   71.0779  224.0825 H   0  0  0  0  0  0  0  0  0  0  0  0
  137.4361   69.6171  224.0825 H   0  0  0  0  0  0  0  0  0  0  0  0
  138.5341   71.7743  221.1757 H   0  0  0  0  0  0  0  0  0  0  0  0
  137.1497   70.6929  221.5588 H   0  0  0  0  0  0  0  0  0  0  0  0
  136.3166   72.8954  220.9633 H   0  0  0  0  0  0  0  0  0  0  0  0
  136.0540   72.5903  222.7328 H   0  0  0  0  0  0  0  0  0  0  0  0
  138.4720   73.9790  222.7220 H   0  0  0  0  0  0  0  0  0  0  0  0
  135.9334   77.6555  222.6366 H   0  0  0  0  0  0  0  0  0  0  0  0
  137.1530   79.7152  223.2481 H   0  0  0  0  0  0  0  0  0  0  0  0
  139.2640   80.8659  223.6279 H   0  0  0  0  0  0  0  0  0  0  0  0
  142.9033   78.6366  223.0969 H   0  0  0  0  0  0  0  0  0  0  0  0
  141.6357   76.5887  222.4830 H   0  0  0  0  0  0  0  0  0  0  0  0
  140.3905   69.7923  223.8848 H   0  0  0  0  0  0  0  0  0  0  0  0
  141.3760   71.2648  224.4743 H   0  0  0  0  0  0  0  0  0  0  0  0
  141.2042   72.1085  226.1608 H   0  0  0  0  0  0  0  0  0  0  0  0
  139.4546   72.1079  226.8629 H   0  0  0  0  0  0  0  0  0  0  0  0
  141.8203   71.6411  228.1654 H   0  0  0  0  0  0  0  0  0  0  0  0
  140.0981   71.4503  228.7065 H   0  0  0  0  0  0  0  0  0  0  0  0
  141.8647   69.3442  227.4226 H   0  0  0  0  0  0  0  0  0  0  0  0
  141.2877   69.3645  229.0946 H   0  0  0  0  0  0  0  0  0  0  0  0
  139.7273   67.9743  227.7741 H   0  0  0  0  0  0  0  0  0  0  0  0
  138.8792   69.5098  228.1585 H   0  0  0  0  0  0  0  0  0  0  0  0
  140.1053   68.5778  225.5563 H   0  0  0  0  0  0  0  0  0  0  0  0
  138.4491   69.2784  225.9186 H   0  0  0  0  0  0  0  0  0  0  0  0
  1  2  1  0
  2  3  1  0
  3  4  1  0
  4  5  1  0
  5  6  1  0
  6  7  2  0
  6  8  1  0
  8  9  2  0
  9 10  1  0
 10 11  2  0
 11 12  1  0
 12 13  2  0
 13 14  1  0
 13 15  1  0
 15 16  2  0
 16 17  1  0
 17 18  2  0
  2 19  1  0
 19 20  2  0
 19 21  1  0
 21 22  1  0
 22 23  1  0
 23 24  1  0
 24 25  1  0
 25 26  1  0
 26 27  1  0
 18  8  1  0
 27 22  1  0
 17 11  1  0
  1 28  1  0
  1 29  1  0
  1 30  1  0
  3 31  1  0
  3 32  1  0
  4 33  1  0
  4 34  1  0
  5 35  1  0
  9 36  1  0
 10 37  1  0
 12 38  1  0
 15 39  1  0
 16 40  1  0
 21 41  1  0
 21 42  1  0
 23 43  1  0
 23 44  1  0
 24 45  1  0
 24 46  1  0
 25 47  1  0
 25 48  1  0
 26 49  1  0
 26 50  1  0
 27 51  1  0
 27 52  1  0
M  END
>  <smiles>  (8) 
CN(CCNC(=O)c1ccc2cc(Cl)ccc2n1)C(=O)CN1CCCCC1

>  <score_type>  (8) 
oracle

>  <origin>  (8) 
autodockgpu

>  <m_score__min__energy>  (8) 
-7.9299999999999997

>  <m_primary>  (8) 
energy

>  <rmsd>  (8) 
5.24299065159525

>  <m_score__min__rmsd>  (8) 
5.24299065159525

>  <meeko>  (8) 
{"free_energy": -7.47, "intermolecular_energy": -9.56, "internal_energy": -1.93, "cluster_size": 16, "cluster_id": 3, "rank_in_cluster": 5}

>  <energy>  (8) 
-7.46

>  <cluster_rmsd>  (8) 
1.01

>  <cluster>  (8) 
1

$$$$

     RDKit          3D

 52 54  0  0  0  0  0  0  0  0999 V2000
  139.4850   71.4940  219.4100 C   0  0  0  0  0  0  0  0  0  0  0  0
  139.7050   72.6800  220.2250 N   0  0  0  0  0  0  0  0  0  0  0  0
  138.7380   73.7600  220.1350 C   0  0  0  0  0  0  0  0  0  0  0  0
  137.7500   73.6530  221.2710 C   0  0  0  0  0  0  0  0  0  0  0  0
  138.2650   72.8240  222.3700 N   0  0  0  0  0  0  0  0  0  0  0  0
  137.8710   71.4590  222.4690 C   0  0  0  0  0  0  0  0  0  0  0  0
  137.0730   70.9270  221.6250 O   0  0  0  0  0  0  0  0  0  0  0  0
  138.4160   70.6760  223.5770 C   0  0  0  0  0  0  0  0  0  0  0  0
  138.1150   69.3330  223.6940 C   0  0  0  0  0  0  0  0  0  0  0  0
  138.6080   68.5530  224.7240 C   0  0  0  0  0  0  0  0  0  0  0  0
  139.4380   69.1330  225.6840 C   0  0  0  0  0  0  0  0  0  0  0  0
  139.9380   68.3690  226.7140 C   0  0  0  0  0  0  0  0  0  0  0  0
  140.7580   69.0040  227.6320 C   0  0  0  0  0  0  0  0  0  0  0  0
  141.4640   68.1380  228.9980 Cl  0  0  0  0  0  0  0  0  0  0  0  0
  141.0410   70.3490  227.4890 C   0  0  0  0  0  0  0  0  0  0  0  0
  140.5360   71.1150  226.4510 C   0  0  0  0  0  0  0  0  0  0  0  0
  139.7170   70.4800  225.5350 C   0  0  0  0  0  0  0  0  0  0  0  0
  139.2210   71.2180  224.5180 N   0  0  0  0  0  0  0  0  0  0  0  0
  140.8500   72.7840  221.1030 C   0  0  0  0  0  0  0  0  0  0  0  0
  140.7590   73.6240  222.0340 O   0  0  0  0  0  0  0  0  0  0  0  0
  141.9810   71.9160  220.8250 C   0  0  0  0  0  0  0  0  0  0  0  0
  143.1110   72.4650  220.1630 N   0  0  0  0  0  0  0  0  0  0  0  0
  144.3530   72.2640  220.7880 C   0  0  0  0  0  0  0  0  0  0  0  0
  145.3320   73.3620  220.8850 C   0  0  0  0  0  0  0  0  0  0  0  0
  144.7450   74.6700  220.4790 C   0  0  0  0  0  0  0  0  0  0  0  0
  144.1150   74.4320  219.0990 C   0  0  0  0  0  0  0  0  0  0  0  0
  142.9270   73.4990  219.2410 C   0  0  0  0  0  0  0  0  0  0  0  0
  139.3237   70.6244  220.0641 H   0  0  0  0  0  0  0  0  0  0  0  0
  138.5995   71.6445  218.7751 H   0  0  0  0  0  0  0  0  0  0  0  0
  140.3656   71.3169  218.7751 H   0  0  0  0  0  0  0  0  0  0  0  0
  139.2614   74.7256  220.1951 H   0  0  0  0  0  0  0  0  0  0  0  0
  138.2015   73.6902  219.1773 H   0  0  0  0  0  0  0  0  0  0  0  0
  137.5395   74.6620  221.6553 H   0  0  0  0  0  0  0  0  0  0  0  0
  136.8368   73.1770  220.8844 H   0  0  0  0  0  0  0  0  0  0  0  0
  138.9200   73.2150  223.0880 H   0  0  0  0  0  0  0  0  0  0  0  0
  137.4606   68.8679  222.9420 H   0  0  0  0  0  0  0  0  0  0  0  0
  138.3484   67.4859  224.7859 H   0  0  0  0  0  0  0  0  0  0  0  0
  139.6966   67.2996  226.8042 H   0  0  0  0  0  0  0  0  0  0  0  0
  141.6947   70.8317  228.2304 H   0  0  0  0  0  0  0  0  0  0  0  0
  140.7765   72.1844  226.3591 H   0  0  0  0  0  0  0  0  0  0  0  0
  142.3308   71.5198  221.7897 H   0  0  0  0  0  0  0  0  0  0  0  0
  141.5845   71.1777  220.1125 H   0  0  0  0  0  0  0  0  0  0  0  0
  144.1384   71.9422  221.8178 H   0  0  0  0  0  0  0  0  0  0  0  0
  144.8521   71.5482  220.1183 H   0  0  0  0  0  0  0  0  0  0  0  0
  145.6802   73.4366  221.9258 H   0  0  0  0  0  0  0  0  0  0  0  0
  146.1646   73.1365  220.2024 H   0  0  0  0  0  0  0  0  0  0  0  0
  143.9782   74.9870  221.2012 H   0  0  0  0  0  0  0  0  0  0  0  0
  145.5056   75.4640  220.4467 H   0  0  0  0  0  0  0  0  0  0  0  0
  143.7798   75.3915  218.6783 H   0  0  0  0  0  0  0  0  0  0  0  0
  144.8599   73.9786  218.4285 H   0  0  0  0  0  0  0  0  0  0  0  0
  142.0587   74.0940  219.5603 H   0  0  0  0  0  0  0  0  0  0  0  0
  142.7835   73.0225  218.2600 H   0  0  0  0  0  0  0  0  0  0  0  0
  1  2  1  0
  2  3  1  0
  3  4  1  0
  4  5  1  0
  5  6  1  0
  6  7  2  0
  6  8  1  0
  8  9  2  0
  9 10  1  0
 10 11  2  0
 11 12  1  0
 12 13  2  0
 13 14  1  0
 13 15  1  0
 15 16  2  0
 16 17  1  0
 17 18  2  0
  2 19  1  0
 19 20  2  0
 19 21  1  0
 21 22  1  0
 22 23  1  0
 23 24  1  0
 24 25  1  0
 25 26  1  0
 26 27  1  0
 18  8  1  0
 27 22  1  0
 17 11  1  0
  1 28  1  0
  1 29  1  0
  1 30  1  0
  3 31  1  0
  3 32  1  0
  4 33  1  0
  4 34  1  0
  5 35  1  0
  9 36  1  0
 10 37  1  0
 12 38  1  0
 15 39  1  0
 16 40  1  0
 21 41  1  0
 21 42  1  0
 23 43  1  0
 23 44  1  0
 24 45  1  0
 24 46  1  0
 25 47  1  0
 25 48  1  0
 26 49  1  0
 26 50  1  0
 27 51  1  0
 27 52  1  0
M  END
>  <smiles>  (9) 
CN(CCNC(=O)c1ccc2cc(Cl)ccc2n1)C(=O)CN1CCCCC1

>  <score_type>  (9) 
oracle

>  <origin>  (9) 
autodockgpu

>  <m_score__min__energy>  (9) 
-7.9299999999999997

>  <m_primary>  (9) 
energy

>  <rmsd>  (9) 
9.248042816711083

>  <m_score__min__rmsd>  (9) 
9.248042816711083

>  <meeko>  (9) 
{"free_energy": -6.46, "intermolecular_energy": -8.55, "internal_energy": -2.39, "cluster_size": 3, "cluster_id": 4, "rank_in_cluster": 3}

>  <energy>  (9) 
-7.45

>  <cluster_rmsd>  (9) 
0.85

>  <cluster>  (9) 
1

$$$$

     RDKit          3D

 52 54  0  0  0  0  0  0  0  0999 V2000
  137.8970   71.0860  224.1680 C   0  0  0  0  0  0  0  0  0  0  0  0
  138.9820   71.0820  223.1990 N   0  0  0  0  0  0  0  0  0  0  0  0
  138.7270   70.5080  221.8890 C   0  0  0  0  0  0  0  0  0  0  0  0
  138.0350   71.5250  221.0140 C   0  0  0  0  0  0  0  0  0  0  0  0
  138.4540   72.8980  221.3310 N   0  0  0  0  0  0  0  0  0  0  0  0
  137.5050   73.8220  221.8550 C   0  0  0  0  0  0  0  0  0  0  0  0
  136.2870   73.4930  222.0580 O   0  0  0  0  0  0  0  0  0  0  0  0
  137.9730   75.1730  222.1600 C   0  0  0  0  0  0  0  0  0  0  0  0
  137.0650   76.1840  222.4080 C   0  0  0  0  0  0  0  0  0  0  0  0
  137.4610   77.4770  222.7020 C   0  0  0  0  0  0  0  0  0  0  0  0
  138.8220   77.7790  222.7500 C   0  0  0  0  0  0  0  0  0  0  0  0
  139.2320   79.0610  223.0420 C   0  0  0  0  0  0  0  0  0  0  0  0
  140.5960   79.2950  223.0780 C   0  0  0  0  0  0  0  0  0  0  0  0
  141.2520   80.8940  223.4410 Cl  0  0  0  0  0  0  0  0  0  0  0  0
  141.4810   78.2640  222.8250 C   0  0  0  0  0  0  0  0  0  0  0  0
  141.0650   76.9760  222.5300 C   0  0  0  0  0  0  0  0  0  0  0  0
  139.7020   76.7420  222.4950 C   0  0  0  0  0  0  0  0  0  0  0  0
  139.2870   75.4890  222.2110 N   0  0  0  0  0  0  0  0  0  0  0  0
  140.2790   71.6370  223.5220 C   0  0  0  0  0  0  0  0  0  0  0  0
  140.6390   72.6330  222.8460 O   0  0  0  0  0  0  0  0  0  0  0  0
  141.0290   70.9930  224.5870 C   0  0  0  0  0  0  0  0  0  0  0  0
  140.3880   70.7810  225.8360 N   0  0  0  0  0  0  0  0  0  0  0  0
  140.7000   71.6960  226.8560 C   0  0  0  0  0  0  0  0  0  0  0  0
  140.9630   71.2300  228.2280 C   0  0  0  0  0  0  0  0  0  0  0  0
  141.0870   69.7470  228.3010 C   0  0  0  0  0  0  0  0  0  0  0  0
  139.8290   69.1920  227.6170 C   0  0  0  0  0  0  0  0  0  0  0  0
  139.8760   69.5150  226.1350 C   0  0  0  0  0  0  0  0  0  0  0  0
  138.3143   71.0845  225.1858 H   0  0  0  0  0  0  0  0  0  0  0  0
  137.2814   71.9864  224.0255 H   0  0  0  0  0  0  0  0  0  0  0  0
  137.2748   70.1901  224.0255 H   0  0  0  0  0  0  0  0  0  0  0  0
  139.6810   70.2158  221.4258 H   0  0  0  0  0  0  0  0  0  0  0  0
  138.0830   69.6229  221.9981 H   0  0  0  0  0  0  0  0  0  0  0  0
  138.2780   71.3131  219.9623 H   0  0  0  0  0  0  0  0  0  0  0  0
  136.9526   71.4491  221.1945 H   0  0  0  0  0  0  0  0  0  0  0  0
  139.4410   73.2160  221.1810 H   0  0  0  0  0  0  0  0  0  0  0  0
  135.9901   75.9534  222.3705 H   0  0  0  0  0  0  0  0  0  0  0  0
  136.7109   78.2579  222.8957 H   0  0  0  0  0  0  0  0  0  0  0  0
  138.5068   79.8645  223.2382 H   0  0  0  0  0  0  0  0  0  0  0  0
  142.5601   78.4749  222.8593 H   0  0  0  0  0  0  0  0  0  0  0  0
  141.7890   76.1720  222.3316 H   0  0  0  0  0  0  0  0  0  0  0  0
  141.3436   70.0078  224.2124 H   0  0  0  0  0  0  0  0  0  0  0  0
  141.8355   71.7050  224.8163 H   0  0  0  0  0  0  0  0  0  0  0  0
  141.6009   72.2360  226.5292 H   0  0  0  0  0  0  0  0  0  0  0  0
  139.7675   72.2691  226.9657 H   0  0  0  0  0  0  0  0  0  0  0  0
  141.9008   71.6824  228.5828 H   0  0  0  0  0  0  0  0  0  0  0  0
  140.1123   71.5306  228.8573 H   0  0  0  0  0  0  0  0  0  0  0  0
  141.9912   69.4110  227.7723 H   0  0  0  0  0  0  0  0  0  0  0  0
  141.1727   69.3969  229.3403 H   0  0  0  0  0  0  0  0  0  0  0  0
  139.7881   68.1013  227.7536 H   0  0  0  0  0  0  0  0  0  0  0  0
  138.9351   69.6509  228.0646 H   0  0  0  0  0  0  0  0  0  0  0  0
  140.5068   68.7628  225.6387 H   0  0  0  0  0  0  0  0  0  0  0  0
  138.8355   69.5048  225.7782 H   0  0  0  0  0  0  0  0  0  0  0  0
  1  2  1  0
  2  3  1  0
  3  4  1  0
  4  5  1  0
  5  6  1  0
  6  7  2  0
  6  8  1  0
  8  9  2  0
  9 10  1  0
 10 11  2  0
 11 12  1  0
 12 13  2  0
 13 14  1  0
 13 15  1  0
 15 16  2  0
 16 17  1  0
 17 18  2  0
  2 19  1  0
 19 20  2  0
 19 21  1  0
 21 22  1  0
 22 23  1  0
 23 24  1  0
 24 25  1  0
 25 26  1  0
 26 27  1  0
 18  8  1  0
 27 22  1  0
 17 11  1  0
  1 28  1  0
  1 29  1  0
  1 30  1  0
  3 31  1  0
  3 32  1  0
  4 33  1  0
  4 34  1  0
  5 35  1  0
  9 36  1  0
 10 37  1  0
 12 38  1  0
 15 39  1  0
 16 40  1  0
 21 41  1  0
 21 42  1  0
 23 43  1  0
 23 44  1  0
 24 45  1  0
 24 46  1  0
 25 47  1  0
 25 48  1  0
 26 49  1  0
 26 50  1  0
 27 51  1  0
 27 52  1  0
M  END
>  <smiles>  (10) 
CN(CCNC(=O)c1ccc2cc(Cl)ccc2n1)C(=O)CN1CCCCC1

>  <score_type>  (10) 
oracle

>  <origin>  (10) 
autodockgpu

>  <m_score__min__energy>  (10) 
-7.9299999999999997

>  <m_primary>  (10) 
energy

>  <rmsd>  (10) 
5.542136656604054

>  <m_score__min__rmsd>  (10) 
5.542136656604054

>  <meeko>  (10) 
{"free_energy": -6.69, "intermolecular_energy": -8.78, "internal_energy": -2.28, "cluster_size": 16, "cluster_id": 3, "rank_in_cluster": 16}

>  <energy>  (10) 
-7.44

>  <cluster_rmsd>  (10) 
1.0

>  <cluster>  (10) 
1

$$$$

     RDKit          3D

 52 54  0  0  0  0  0  0  0  0999 V2000
  138.5090   69.4850  223.1790 C   0  0  0  0  0  0  0  0  0  0  0  0
  138.9080   70.8080  222.7240 N   0  0  0  0  0  0  0  0  0  0  0  0
  138.2110   71.3780  221.5840 C   0  0  0  0  0  0  0  0  0  0  0  0
  137.2060   72.3990  222.0610 C   0  0  0  0  0  0  0  0  0  0  0  0
  137.8340   73.6980  222.3400 N   0  0  0  0  0  0  0  0  0  0  0  0
  137.1360   74.9010  222.0290 C   0  0  0  0  0  0  0  0  0  0  0  0
  135.9700   74.8850  221.5070 O   0  0  0  0  0  0  0  0  0  0  0  0
  137.8010   76.1670  222.3320 C   0  0  0  0  0  0  0  0  0  0  0  0
  137.0560   77.3080  222.5550 C   0  0  0  0  0  0  0  0  0  0  0  0
  137.6420   78.5270  222.8450 C   0  0  0  0  0  0  0  0  0  0  0  0
  139.0320   78.6170  222.9170 C   0  0  0  0  0  0  0  0  0  0  0  0
  139.6290   79.8230  223.2060 C   0  0  0  0  0  0  0  0  0  0  0  0
  141.0120   79.8460  223.2650 C   0  0  0  0  0  0  0  0  0  0  0  0
  141.9010   81.3270  223.6280 Cl  0  0  0  0  0  0  0  0  0  0  0  0
  141.7320   78.6880  223.0370 C   0  0  0  0  0  0  0  0  0  0  0  0
  141.1270   77.4750  222.7450 C   0  0  0  0  0  0  0  0  0  0  0  0
  139.7460   77.4540  222.6870 C   0  0  0  0  0  0  0  0  0  0  0  0
  139.1470   76.2770  222.4050 N   0  0  0  0  0  0  0  0  0  0  0  0
  139.9650   71.5420  223.3850 C   0  0  0  0  0  0  0  0  0  0  0  0
  140.1590   72.7160  222.9820 O   0  0  0  0  0  0  0  0  0  0  0  0
  140.6900   70.8550  224.4400 C   0  0  0  0  0  0  0  0  0  0  0  0
  140.1610   70.8850  225.7570 N   0  0  0  0  0  0  0  0  0  0  0  0
  140.6820   71.8700  226.6120 C   0  0  0  0  0  0  0  0  0  0  0  0
  141.0290   71.5480  228.0070 C   0  0  0  0  0  0  0  0  0  0  0  0
  140.9860   70.0820  228.2690 C   0  0  0  0  0  0  0  0  0  0  0  0
  139.6070   69.6140  227.7800 C   0  0  0  0  0  0  0  0  0  0  0  0
  139.5390   69.7420  226.2690 C   0  0  0  0  0  0  0  0  0  0  0  0
  138.5021   69.4621  224.2787 H   0  0  0  0  0  0  0  0  0  0  0  0
  137.5017   69.2556  222.8011 H   0  0  0  0  0  0  0  0  0  0  0  0
  139.2215   68.7370  222.8011 H   0  0  0  0  0  0  0  0  0  0  0  0
  138.9378   71.8643  220.9167 H   0  0  0  0  0  0  0  0  0  0  0  0
  137.6876   70.5782  221.0396 H   0  0  0  0  0  0  0  0  0  0  0  0
  136.4400   72.5342  221.2832 H   0  0  0  0  0  0  0  0  0  0  0  0
  136.7610   72.0279  222.9960 H   0  0  0  0  0  0  0  0  0  0  0  0
  138.7890   73.7630  222.7660 H   0  0  0  0  0  0  0  0  0  0  0  0
  135.9591   77.2455  222.5001 H   0  0  0  0  0  0  0  0  0  0  0  0
  137.0180   79.4164  223.0171 H   0  0  0  0  0  0  0  0  0  0  0  0
  139.0325   80.7302  223.3826 H   0  0  0  0  0  0  0  0  0  0  0  0
  142.8299   78.7307  223.0894 H   0  0  0  0  0  0  0  0  0  0  0  0
  141.7215   76.5668  222.5668 H   0  0  0  0  0  0  0  0  0  0  0  0
  140.7675   69.7980  224.1454 H   0  0  0  0  0  0  0  0  0  0  0  0
  141.6380   71.4074  224.5184 H   0  0  0  0  0  0  0  0  0  0  0  0
  141.6016   72.2433  226.1377 H   0  0  0  0  0  0  0  0  0  0  0  0
  139.8394   72.5682  226.7239 H   0  0  0  0  0  0  0  0  0  0  0  0
  142.0446   71.9161  228.2143 H   0  0  0  0  0  0  0  0  0  0  0  0
  140.2890   72.0318  228.6614 H   0  0  0  0  0  0  0  0  0  0  0  0
  141.7847   69.5692  227.7130 H   0  0  0  0  0  0  0  0  0  0  0  0
  141.1381   69.8548  229.3345 H   0  0  0  0  0  0  0  0  0  0  0  0
  139.4528   68.5633  228.0668 H   0  0  0  0  0  0  0  0  0  0  0  0
  138.8237   70.2362  228.2376 H   0  0  0  0  0  0  0  0  0  0  0  0
  140.0241   68.8592  225.8269 H   0  0  0  0  0  0  0  0  0  0  0  0
  138.4732   69.8215  226.0086 H   0  0  0  0  0  0  0  0  0  0  0  0
  1  2  1  0
  2  3  1  0
  3  4  1  0
  4  5  1  0
  5  6  1  0
  6  7  2  0
  6  8  1  0
  8  9  2  0
  9 10  1  0
 10 11  2  0
 11 12  1  0
 12 13  2  0
 13 14  1  0
 13 15  1  0
 15 16  2  0
 16 17  1  0
 17 18  2  0
  2 19  1  0
 19 20  2  0
 19 21  1  0
 21 22  1  0
 22 23  1  0
 23 24  1  0
 24 25  1  0
 25 26  1  0
 26 27  1  0
 18  8  1  0
 27 22  1  0
 17 11  1  0
  1 28  1  0
  1 29  1  0
  1 30  1  0
  3 31  1  0
  3 32  1  0
  4 33  1  0
  4 34  1  0
  5 35  1  0
  9 36  1  0
 10 37  1  0
 12 38  1  0
 15 39  1  0
 16 40  1  0
 21 41  1  0
 21 42  1  0
 23 43  1  0
 23 44  1  0
 24 45  1  0
 24 46  1  0
 25 47  1  0
 25 48  1  0
 26 49  1  0
 26 50  1  0
 27 51  1  0
 27 52  1  0
M  END
>  <smiles>  (11) 
CN(CCNC(=O)c1ccc2cc(Cl)ccc2n1)C(=O)CN1CCCCC1

>  <score_type>  (11) 
oracle

>  <origin>  (11) 
autodockgpu

>  <m_score__min__energy>  (11) 
-7.9299999999999997

>  <m_primary>  (11) 
energy

>  <rmsd>  (11) 
5.298629921513273

>  <m_score__min__rmsd>  (11) 
5.298629921513273

>  <meeko>  (11) 
{"free_energy": -7.37, "intermolecular_energy": -9.46, "internal_energy": -1.95, "cluster_size": 16, "cluster_id": 3, "rank_in_cluster": 7}

>  <energy>  (11) 
-7.42

>  <cluster_rmsd>  (11) 
0.89

>  <cluster>  (11) 
1

$$$$

     RDKit          3D

 52 54  0  0  0  0  0  0  0  0999 V2000
  139.7420   77.5360  222.2550 C   0  0  0  0  0  0  0  0  0  0  0  0
  139.6820   76.1870  221.7140 N   0  0  0  0  0  0  0  0  0  0  0  0
  138.3800   75.6500  221.3580 C   0  0  0  0  0  0  0  0  0  0  0  0
  138.5270   74.2160  220.9090 C   0  0  0  0  0  0  0  0  0  0  0  0
  138.8340   73.3180  222.0320 N   0  0  0  0  0  0  0  0  0  0  0  0
  138.7720   71.9070  221.8440 C   0  0  0  0  0  0  0  0  0  0  0  0
  138.4510   71.3920  220.7200 O   0  0  0  0  0  0  0  0  0  0  0  0
  139.0910   71.0570  222.9900 C   0  0  0  0  0  0  0  0  0  0  0  0
  138.7350   69.7230  222.9870 C   0  0  0  0  0  0  0  0  0  0  0  0
  139.0180   68.8810  224.0480 C   0  0  0  0  0  0  0  0  0  0  0  0
  139.6840   69.3880  225.1630 C   0  0  0  0  0  0  0  0  0  0  0  0
  139.9740   68.5620  226.2260 C   0  0  0  0  0  0  0  0  0  0  0  0
  140.6400   69.1250  227.3010 C   0  0  0  0  0  0  0  0  0  0  0  0
  141.0710   68.1750  228.7250 Cl  0  0  0  0  0  0  0  0  0  0  0  0
  140.9830   70.4640  227.2760 C   0  0  0  0  0  0  0  0  0  0  0  0
  140.6890   71.2930  226.2050 C   0  0  0  0  0  0  0  0  0  0  0  0
  140.0250   70.7290  225.1310 C   0  0  0  0  0  0  0  0  0  0  0  0
  139.7360   71.5280  224.0820 N   0  0  0  0  0  0  0  0  0  0  0  0
  140.8820   75.3980  221.5310 C   0  0  0  0  0  0  0  0  0  0  0  0
  141.0400   74.4390  222.3280 O   0  0  0  0  0  0  0  0  0  0  0  0
  141.7750   75.7900  220.4550 C   0  0  0  0  0  0  0  0  0  0  0  0
  142.6550   74.8150  219.9150 N   0  0  0  0  0  0  0  0  0  0  0  0
  142.0970   73.5500  219.6600 C   0  0  0  0  0  0  0  0  0  0  0  0
  142.8240   72.3210  220.0210 C   0  0  0  0  0  0  0  0  0  0  0  0
  144.0250   72.6070  220.8560 C   0  0  0  0  0  0  0  0  0  0  0  0
  144.8190   73.6750  220.0900 C   0  0  0  0  0  0  0  0  0  0  0  0
  144.0340   74.9740  220.0770 C   0  0  0  0  0  0  0  0  0  0  0  0
  139.7400   77.4907  223.3541 H   0  0  0  0  0  0  0  0  0  0  0  0
  140.6630   78.0288  221.9100 H   0  0  0  0  0  0  0  0  0  0  0  0
  138.8684   78.1086  221.9100 H   0  0  0  0  0  0  0  0  0  0  0  0
  137.7150   75.6929  222.2331 H   0  0  0  0  0  0  0  0  0  0  0  0
  137.9513   76.2463  220.5390 H   0  0  0  0  0  0  0  0  0  0  0  0
  137.5856   73.8916  220.4415 H   0  0  0  0  0  0  0  0  0  0  0  0
  139.3624   74.1665  220.1950 H   0  0  0  0  0  0  0  0  0  0  0  0
  139.1000   73.6920  222.9730 H   0  0  0  0  0  0  0  0  0  0  0  0
  138.2085   69.3156  222.1113 H   0  0  0  0  0  0  0  0  0  0  0  0
  138.7206   67.8226  224.0121 H   0  0  0  0  0  0  0  0  0  0  0  0
  139.6885   67.4997  226.2211 H   0  0  0  0  0  0  0  0  0  0  0  0
  141.5112   70.8891  228.1422 H   0  0  0  0  0  0  0  0  0  0  0  0
  140.9722   72.3559  226.2091 H   0  0  0  0  0  0  0  0  0  0  0  0
  141.1471   76.1539  219.6284 H   0  0  0  0  0  0  0  0  0  0  0  0
  142.4446   76.5302  220.9173 H   0  0  0  0  0  0  0  0  0  0  0  0
  141.1371   73.5162  220.1961 H   0  0  0  0  0  0  0  0  0  0  0  0
  142.0756   73.5084  218.5610 H   0  0  0  0  0  0  0  0  0  0  0  0
  142.1482   71.6615  220.5852 H   0  0  0  0  0  0  0  0  0  0  0  0
  143.1634   71.8417  219.0909 H   0  0  0  0  0  0  0  0  0  0  0  0
  143.7240   72.9875  221.8432 H   0  0  0  0  0  0  0  0  0  0  0  0
  144.6247   71.7011  221.0284 H   0  0  0  0  0  0  0  0  0  0  0  0
  145.7882   73.8368  220.5845 H   0  0  0  0  0  0  0  0  0  0  0  0
  144.9874   73.3371  219.0568 H   0  0  0  0  0  0  0  0  0  0  0  0
  144.2106   75.4920  221.0312 H   0  0  0  0  0  0  0  0  0  0  0  0
  144.3880   75.5453  219.2062 H   0  0  0  0  0  0  0  0  0  0  0  0
  1  2  1  0
  2  3  1  0
  3  4  1  0
  4  5  1  0
  5  6  1  0
  6  7  2  0
  6  8  1  0
  8  9  2  0
  9 10  1  0
 10 11  2  0
 11 12  1  0
 12 13  2  0
 13 14  1  0
 13 15  1  0
 15 16  2  0
 16 17  1  0
 17 18  2  0
  2 19  1  0
 19 20  2  0
 19 21  1  0
 21 22  1  0
 22 23  1  0
 23 24  1  0
 24 25  1  0
 25 26  1  0
 26 27  1  0
 18  8  1  0
 27 22  1  0
 17 11  1  0
  1 28  1  0
  1 29  1  0
  1 30  1  0
  3 31  1  0
  3 32  1  0
  4 33  1  0
  4 34  1  0
  5 35  1  0
  9 36  1  0
 10 37  1  0
 12 38  1  0
 15 39  1  0
 16 40  1  0
 21 41  1  0
 21 42  1  0
 23 43  1  0
 23 44  1  0
 24 45  1  0
 24 46  1  0
 25 47  1  0
 25 48  1  0
 26 49  1  0
 26 50  1  0
 27 51  1  0
 27 52  1  0
M  END
>  <smiles>  (12) 
CN(CCNC(=O)c1ccc2cc(Cl)ccc2n1)C(=O)CN1CCCCC1

>  <score_type>  (12) 
oracle

>  <origin>  (12) 
autodockgpu

>  <m_score__min__energy>  (12) 
-7.9299999999999997

>  <m_primary>  (12) 
energy

>  <rmsd>  (12) 
8.881007200945321

>  <m_score__min__rmsd>  (12) 
8.881007200945321

>  <meeko>  (12) 
{"free_energy": -7.0, "intermolecular_energy": -9.09, "internal_energy": -2.23, "cluster_size": 3, "cluster_id": 4, "rank_in_cluster": 1}

>  <energy>  (12) 
-7.41

>  <cluster_rmsd>  (12) 
0.86

>  <cluster>  (12) 
1

$$$$

     RDKit          3D

 52 54  0  0  0  0  0  0  0  0999 V2000
  141.6190   73.7030  220.5440 C   0  0  0  0  0  0  0  0  0  0  0  0
  140.5350   74.6610  220.6990 N   0  0  0  0  0  0  0  0  0  0  0  0
  139.3430   74.4810  219.8890 C   0  0  0  0  0  0  0  0  0  0  0  0
  138.1560   74.2130  220.7830 C   0  0  0  0  0  0  0  0  0  0  0  0
  138.5120   73.3630  221.9280 N   0  0  0  0  0  0  0  0  0  0  0  0
  138.4030   71.9470  221.8160 C   0  0  0  0  0  0  0  0  0  0  0  0
  137.9970   71.3870  220.7420 O   0  0  0  0  0  0  0  0  0  0  0  0
  138.7740   71.1460  222.9810 C   0  0  0  0  0  0  0  0  0  0  0  0
  138.3220   69.8460  223.1050 C   0  0  0  0  0  0  0  0  0  0  0  0
  138.6490   69.0510  224.1880 C   0  0  0  0  0  0  0  0  0  0  0  0
  139.4620   69.5700  225.1960 C   0  0  0  0  0  0  0  0  0  0  0  0
  139.7980   68.7890  226.2790 C   0  0  0  0  0  0  0  0  0  0  0  0
  140.6100   69.3620  227.2430 C   0  0  0  0  0  0  0  0  0  0  0  0
  141.1130   68.4680  228.6800 Cl  0  0  0  0  0  0  0  0  0  0  0  0
  141.0470   70.6640  227.0920 C   0  0  0  0  0  0  0  0  0  0  0  0
  140.7070   71.4470  226.0010 C   0  0  0  0  0  0  0  0  0  0  0  0
  139.8960   70.8740  225.0380 C   0  0  0  0  0  0  0  0  0  0  0  0
  139.5610   71.6280  223.9700 N   0  0  0  0  0  0  0  0  0  0  0  0
  140.6330   75.7620  221.6330 C   0  0  0  0  0  0  0  0  0  0  0  0
  139.9980   75.6320  222.7090 O   0  0  0  0  0  0  0  0  0  0  0  0
  141.4500   76.8970  221.2380 C   0  0  0  0  0  0  0  0  0  0  0  0
  141.2730   78.1290  221.9200 N   0  0  0  0  0  0  0  0  0  0  0  0
  141.4100   79.2920  221.1430 C   0  0  0  0  0  0  0  0  0  0  0  0
  142.1620   80.4520  221.6530 C   0  0  0  0  0  0  0  0  0  0  0  0
  142.9050   80.1300  222.9040 C   0  0  0  0  0  0  0  0  0  0  0  0
  141.8690   79.5130  223.8540 C   0  0  0  0  0  0  0  0  0  0  0  0
  141.4220   78.1690  223.3090 C   0  0  0  0  0  0  0  0  0  0  0  0
  141.9750   73.3884  221.5361 H   0  0  0  0  0  0  0  0  0  0  0  0
  141.2560   72.8252  219.9893 H   0  0  0  0  0  0  0  0  0  0  0  0
  142.4456   74.1711  219.9893 H   0  0  0  0  0  0  0  0  0  0  0  0
  139.1595   75.3923  219.3009 H   0  0  0  0  0  0  0  0  0  0  0  0
  139.4887   73.6271  219.2111 H   0  0  0  0  0  0  0  0  0  0  0  0
  137.7702   75.1722  221.1587 H   0  0  0  0  0  0  0  0  0  0  0  0
  137.3955   73.6842  220.1898 H   0  0  0  0  0  0  0  0  0  0  0  0
  138.8480   73.7750  222.8300 H   0  0  0  0  0  0  0  0  0  0  0  0
  137.6800   69.4293  222.3149 H   0  0  0  0  0  0  0  0  0  0  0  0
  138.2719   68.0198  224.2542 H   0  0  0  0  0  0  0  0  0  0  0  0
  139.4369   67.7543  226.3743 H   0  0  0  0  0  0  0  0  0  0  0  0
  141.6920   71.0970  227.8708 H   0  0  0  0  0  0  0  0  0  0  0  0
  141.0671   72.4819  225.9044 H   0  0  0  0  0  0  0  0  0  0  0  0
  142.5014   76.6015  221.3691 H   0  0  0  0  0  0  0  0  0  0  0  0
  141.1319   77.1119  220.2072 H   0  0  0  0  0  0  0  0  0  0  0  0
  141.8986   78.9880  220.2055 H   0  0  0  0  0  0  0  0  0  0  0  0
  140.3795   79.6727  221.0868 H   0  0  0  0  0  0  0  0  0  0  0  0
  142.8814   80.7740  220.8857 H   0  0  0  0  0  0  0  0  0  0  0  0
  141.4406   81.2502  221.8824 H   0  0  0  0  0  0  0  0  0  0  0  0
  143.7117   79.4114  222.6970 H   0  0  0  0  0  0  0  0  0  0  0  0
  143.3741   81.0245  223.3398 H   0  0  0  0  0  0  0  0  0  0  0  0
  142.3193   79.3745  224.8480 H   0  0  0  0  0  0  0  0  0  0  0  0
  141.0007   80.1833  223.9358 H   0  0  0  0  0  0  0  0  0  0  0  0
  142.1700   77.4154  223.5965 H   0  0  0  0  0  0  0  0  0  0  0  0
  140.4279   77.9721  223.7368 H   0  0  0  0  0  0  0  0  0  0  0  0
  1  2  1  0
  2  3  1  0
  3  4  1  0
  4  5  1  0
  5  6  1  0
  6  7  2  0
  6  8  1  0
  8  9  2  0
  9 10  1  0
 10 11  2  0
 11 12  1  0
 12 13  2  0
 13 14  1  0
 13 15  1  0
 15 16  2  0
 16 17  1  0
 17 18  2  0
  2 19  1  0
 19 20  2  0
 19 21  1  0
 21 22  1  0
 22 23  1  0
 23 24  1  0
 24 25  1  0
 25 26  1  0
 26 27  1  0
 18  8  1  0
 27 22  1  0
 17 11  1  0
  1 28  1  0
  1 29  1  0
  1 30  1  0
  3 31  1  0
  3 32  1  0
  4 33  1  0
  4 34  1  0
  5 35  1  0
  9 36  1  0
 10 37  1  0
 12 38  1  0
 15 39  1  0
 16 40  1  0
 21 41  1  0
 21 42  1  0
 23 43  1  0
 23 44  1  0
 24 45  1  0
 24 46  1  0
 25 47  1  0
 25 48  1  0
 26 49  1  0
 26 50  1  0
 27 51  1  0
 27 52  1  0
M  END
>  <smiles>  (13) 
CN(CCNC(=O)c1ccc2cc(Cl)ccc2n1)C(=O)CN1CCCCC1

>  <score_type>  (13) 
oracle

>  <origin>  (13) 
autodockgpu

>  <m_score__min__energy>  (13) 
-7.9299999999999997

>  <m_primary>  (13) 
energy

>  <rmsd>  (13) 
9.470613641791454

>  <m_score__min__rmsd>  (13) 
9.470613641791454

>  <meeko>  (13) 
{"free_energy": -7.42, "intermolecular_energy": -9.51, "internal_energy": -2.07, "cluster_size": 28, "cluster_id": 1, "rank_in_cluster": 11}

>  <energy>  (13) 
-7.4

>  <cluster_rmsd>  (13) 
0.86

>  <cluster>  (13) 
1

$$$$

     RDKit          3D

 52 54  0  0  0  0  0  0  0  0999 V2000
  140.8250   77.9900  220.0800 C   0  0  0  0  0  0  0  0  0  0  0  0
  140.8360   76.8490  220.9830 N   0  0  0  0  0  0  0  0  0  0  0  0
  141.7030   75.7300  220.6590 C   0  0  0  0  0  0  0  0  0  0  0  0
  140.8680   74.5040  220.3790 C   0  0  0  0  0  0  0  0  0  0  0  0
  140.7550   73.6350  221.5600 N   0  0  0  0  0  0  0  0  0  0  0  0
  140.1360   72.3580  221.4390 C   0  0  0  0  0  0  0  0  0  0  0  0
  139.6680   71.9400  220.3260 O   0  0  0  0  0  0  0  0  0  0  0  0
  140.0540   71.5300  222.6420 C   0  0  0  0  0  0  0  0  0  0  0  0
  139.4050   70.3110  222.6030 C   0  0  0  0  0  0  0  0  0  0  0  0
  139.3030   69.4940  223.7150 C   0  0  0  0  0  0  0  0  0  0  0  0
  139.8730   69.9060  224.9200 C   0  0  0  0  0  0  0  0  0  0  0  0
  139.7810   69.1020  226.0340 C   0  0  0  0  0  0  0  0  0  0  0  0
  140.3690   69.5670  227.1980 C   0  0  0  0  0  0  0  0  0  0  0  0
  140.3240   68.6330  228.6960 Cl  0  0  0  0  0  0  0  0  0  0  0  0
  141.0120   70.7900  227.2060 C   0  0  0  0  0  0  0  0  0  0  0  0
  141.1020   71.5970  226.0830 C   0  0  0  0  0  0  0  0  0  0  0  0
  140.5150   71.1320  224.9200 C   0  0  0  0  0  0  0  0  0  0  0  0
  140.5980   71.9090  223.8200 N   0  0  0  0  0  0  0  0  0  0  0  0
  140.0130   76.8260  222.1720 C   0  0  0  0  0  0  0  0  0  0  0  0
  139.8640   75.7050  222.7200 O   0  0  0  0  0  0  0  0  0  0  0  0
  139.4440   78.0890  222.6110 C   0  0  0  0  0  0  0  0  0  0  0  0
  140.3050   79.0500  223.2040 N   0  0  0  0  0  0  0  0  0  0  0  0
  139.9230   80.3950  223.0640 C   0  0  0  0  0  0  0  0  0  0  0  0
  140.9160   81.4270  222.7210 C   0  0  0  0  0  0  0  0  0  0  0  0
  142.2260   80.8330  222.3310 C   0  0  0  0  0  0  0  0  0  0  0  0
  142.6010   79.8710  223.4670 C   0  0  0  0  0  0  0  0  0  0  0  0
  141.6310   78.7030  223.4780 C   0  0  0  0  0  0  0  0  0  0  0  0
  140.8160   78.9211  220.6657 H   0  0  0  0  0  0  0  0  0  0  0  0
  141.7234   77.9644  219.4458 H   0  0  0  0  0  0  0  0  0  0  0  0
  139.9272   77.9471  219.4458 H   0  0  0  0  0  0  0  0  0  0  0  0
  142.3008   75.9763  219.7691 H   0  0  0  0  0  0  0  0  0  0  0  0
  142.3716   75.5291  221.5091 H   0  0  0  0  0  0  0  0  0  0  0  0
  139.8602   74.8224  220.0742 H   0  0  0  0  0  0  0  0  0  0  0  0
  141.3617   73.9308  219.5805 H   0  0  0  0  0  0  0  0  0  0  0  0
  141.1220   73.9340  222.4950 H   0  0  0  0  0  0  0  0  0  0  0  0
  138.9543   69.9788  221.6562 H   0  0  0  0  0  0  0  0  0  0  0  0
  138.7779   68.5296  223.6497 H   0  0  0  0  0  0  0  0  0  0  0  0
  139.2628   68.1323  226.0006 H   0  0  0  0  0  0  0  0  0  0  0  0
  141.4717   71.1376  228.1429 H   0  0  0  0  0  0  0  0  0  0  0  0
  141.6190   72.5674  226.1151 H   0  0  0  0  0  0  0  0  0  0  0  0
  138.9864   78.5627  221.7300 H   0  0  0  0  0  0  0  0  0  0  0  0
  138.7559   77.8072  223.4216 H   0  0  0  0  0  0  0  0  0  0  0  0
  139.1557   80.4233  222.2763 H   0  0  0  0  0  0  0  0  0  0  0  0
  139.6240   80.6725  224.0856 H   0  0  0  0  0  0  0  0  0  0  0  0
  140.5322   82.0238  221.8804 H   0  0  0  0  0  0  0  0  0  0  0  0
  141.0779   82.0523  223.6114 H   0  0  0  0  0  0  0  0  0  0  0  0
  142.1316   80.2864  221.3811 H   0  0  0  0  0  0  0  0  0  0  0  0
  142.9944   81.6062  222.1837 H   0  0  0  0  0  0  0  0  0  0  0  0
  143.6236   79.4976  223.3094 H   0  0  0  0  0  0  0  0  0  0  0  0
  142.5499   80.4008  224.4297 H   0  0  0  0  0  0  0  0  0  0  0  0
  141.9597   77.9759  222.7208 H   0  0  0  0  0  0  0  0  0  0  0  0
  141.6436   78.2946  224.4993 H   0  0  0  0  0  0  0  0  0  0  0  0
  1  2  1  0
  2  3  1  0
  3  4  1  0
  4  5  1  0
  5  6  1  0
  6  7  2  0
  6  8  1  0
  8  9  2  0
  9 10  1  0
 10 11  2  0
 11 12  1  0
 12 13  2  0
 13 14  1  0
 13 15  1  0
 15 16  2  0
 16 17  1  0
 17 18  2  0
  2 19  1  0
 19 20  2  0
 19 21  1  0
 21 22  1  0
 22 23  1  0
 23 24  1  0
 24 25  1  0
 25 26  1  0
 26 27  1  0
 18  8  1  0
 27 22  1  0
 17 11  1  0
  1 28  1  0
  1 29  1  0
  1 30  1  0
  3 31  1  0
  3 32  1  0
  4 33  1  0
  4 34  1  0
  5 35  1  0
  9 36  1  0
 10 37  1  0
 12 38  1  0
 15 39  1  0
 16 40  1  0
 21 41  1  0
 21 42  1  0
 23 43  1  0
 23 44  1  0
 24 45  1  0
 24 46  1  0
 25 47  1  0
 25 48  1  0
 26 49  1  0
 26 50  1  0
 27 51  1  0
 27 52  1  0
M  END
>  <smiles>  (14) 
CN(CCNC(=O)c1ccc2cc(Cl)ccc2n1)C(=O)CN1CCCCC1

>  <score_type>  (14) 
oracle

>  <origin>  (14) 
autodockgpu

>  <m_score__min__energy>  (14) 
-7.9299999999999997

>  <m_primary>  (14) 
energy

>  <rmsd>  (14) 
9.352053473893818

>  <m_score__min__rmsd>  (14) 
9.352053473893818

>  <meeko>  (14) 
{"free_energy": -7.33, "intermolecular_energy": -9.41, "internal_energy": -1.97, "cluster_size": 28, "cluster_id": 1, "rank_in_cluster": 17}

>  <energy>  (14) 
-7.38

>  <cluster_rmsd>  (14) 
0.96

>  <cluster>  (14) 
1

$$$$

     RDKit          3D

 52 54  0  0  0  0  0  0  0  0999 V2000
  140.5140   76.3380  219.1440 C   0  0  0  0  0  0  0  0  0  0  0  0
  140.0210   75.4690  220.2020 N   0  0  0  0  0  0  0  0  0  0  0  0
  139.3180   74.2570  219.8190 C   0  0  0  0  0  0  0  0  0  0  0  0
  138.1490   74.0330  220.7470 C   0  0  0  0  0  0  0  0  0  0  0  0
  138.5130   73.1910  221.8960 N   0  0  0  0  0  0  0  0  0  0  0  0
  138.3840   71.7750  221.8030 C   0  0  0  0  0  0  0  0  0  0  0  0
  137.9530   71.2080  220.7420 O   0  0  0  0  0  0  0  0  0  0  0  0
  138.7650   70.9830  222.9710 C   0  0  0  0  0  0  0  0  0  0  0  0
  138.3820   69.6590  223.0680 C   0  0  0  0  0  0  0  0  0  0  0  0
  138.7210   68.8710  224.1530 C   0  0  0  0  0  0  0  0  0  0  0  0
  139.4730   69.4230  225.1900 C   0  0  0  0  0  0  0  0  0  0  0  0
  139.8190   68.6500  226.2760 C   0  0  0  0  0  0  0  0  0  0  0  0
  140.5690   69.2560  227.2690 C   0  0  0  0  0  0  0  0  0  0  0  0
  141.0780   68.3760  228.7130 Cl  0  0  0  0  0  0  0  0  0  0  0  0
  140.9370   70.5820  227.1450 C   0  0  0  0  0  0  0  0  0  0  0  0
  140.5860   71.3570  226.0510 C   0  0  0  0  0  0  0  0  0  0  0  0
  139.8380   70.7510  225.0580 C   0  0  0  0  0  0  0  0  0  0  0  0
  139.4930   71.4970  223.9870 N   0  0  0  0  0  0  0  0  0  0  0  0
  140.2260   75.7940  221.5970 C   0  0  0  0  0  0  0  0  0  0  0  0
  140.5940   74.8480  222.3380 O   0  0  0  0  0  0  0  0  0  0  0  0
  139.9870   77.1700  221.9990 C   0  0  0  0  0  0  0  0  0  0  0  0
  141.1010   78.0380  222.1400 N   0  0  0  0  0  0  0  0  0  0  0  0
  141.5090   78.3140  223.4560 C   0  0  0  0  0  0  0  0  0  0  0  0
  141.8640   79.6850  223.8610 C   0  0  0  0  0  0  0  0  0  0  0  0
  141.5080   80.6860  222.8160 C   0  0  0  0  0  0  0  0  0  0  0  0
  142.1390   80.1700  221.5150 C   0  0  0  0  0  0  0  0  0  0  0  0
  141.4390   78.8930  221.0870 C   0  0  0  0  0  0  0  0  0  0  0  0
  141.0103   77.2128  219.5895 H   0  0  0  0  0  0  0  0  0  0  0  0
  141.2334   75.7859  218.5214 H   0  0  0  0  0  0  0  0  0  0  0  0
  139.6710   76.6722  218.5214 H   0  0  0  0  0  0  0  0  0  0  0  0
  138.9515   74.3574  218.7867 H   0  0  0  0  0  0  0  0  0  0  0  0
  140.0052   73.4006  219.8850 H   0  0  0  0  0  0  0  0  0  0  0  0
  137.7976   75.0073  221.1175 H   0  0  0  0  0  0  0  0  0  0  0  0
  137.3602   73.5150  220.1818 H   0  0  0  0  0  0  0  0  0  0  0  0
  138.8690   73.6090  222.7880 H   0  0  0  0  0  0  0  0  0  0  0  0
  137.7875   69.2167  222.2550 H   0  0  0  0  0  0  0  0  0  0  0  0
  138.4008   67.8196  224.1976 H   0  0  0  0  0  0  0  0  0  0  0  0
  139.5125   67.5962  226.3510 H   0  0  0  0  0  0  0  0  0  0  0  0
  141.5329   71.0413  227.9474 H   0  0  0  0  0  0  0  0  0  0  0  0
  140.8900   72.4115  225.9755 H   0  0  0  0  0  0  0  0  0  0  0  0
  139.3205   77.6169  221.2467 H   0  0  0  0  0  0  0  0  0  0  0  0
  139.5808   77.0860  223.0178 H   0  0  0  0  0  0  0  0  0  0  0  0
  140.6867   77.9951  224.1134 H   0  0  0  0  0  0  0  0  0  0  0  0
  142.4673   77.7795  223.5329 H   0  0  0  0  0  0  0  0  0  0  0  0
  141.3253   79.9322  224.7877 H   0  0  0  0  0  0  0  0  0  0  0  0
  142.9530   79.7235  224.0112 H   0  0  0  0  0  0  0  0  0  0  0  0
  140.4155   80.7581  222.7102 H   0  0  0  0  0  0  0  0  0  0  0  0
  141.8740   81.6906  223.0744 H   0  0  0  0  0  0  0  0  0  0  0  0
  142.0297   80.9301  220.7274 H   0  0  0  0  0  0  0  0  0  0  0  0
  143.2071   79.9657  221.6805 H   0  0  0  0  0  0  0  0  0  0  0  0
  140.5150   79.1683  220.5574 H   0  0  0  0  0  0  0  0  0  0  0  0
  142.1499   78.3433  220.4526 H   0  0  0  0  0  0  0  0  0  0  0  0
  1  2  1  0
  2  3  1  0
  3  4  1  0
  4  5  1  0
  5  6  1  0
  6  7  2  0
  6  8  1  0
  8  9  2  0
  9 10  1  0
 10 11  2  0
 11 12  1  0
 12 13  2  0
 13 14  1  0
 13 15  1  0
 15 16  2  0
 16 17  1  0
 17 18  2  0
  2 19  1  0
 19 20  2  0
 19 21  1  0
 21 22  1  0
 22 23  1  0
 23 24  1  0
 24 25  1  0
 25 26  1  0
 26 27  1  0
 18  8  1  0
 27 22  1  0
 17 11  1  0
  1 28  1  0
  1 29  1  0
  1 30  1  0
  3 31  1  0
  3 32  1  0
  4 33  1  0
  4 34  1  0
  5 35  1  0
  9 36  1  0
 10 37  1  0
 12 38  1  0
 15 39  1  0
 16 40  1  0
 21 41  1  0
 21 42  1  0
 23 43  1  0
 23 44  1  0
 24 45  1  0
 24 46  1  0
 25 47  1  0
 25 48  1  0
 26 49  1  0
 26 50  1  0
 27 51  1  0
 27 52  1  0
M  END
>  <smiles>  (15) 
CN(CCNC(=O)c1ccc2cc(Cl)ccc2n1)C(=O)CN1CCCCC1

>  <score_type>  (15) 
oracle

>  <origin>  (15) 
autodockgpu

>  <m_score__min__energy>  (15) 
-7.9299999999999997

>  <m_primary>  (15) 
energy

>  <rmsd>  (15) 
9.61905429315139

>  <m_score__min__rmsd>  (15) 
9.61905429315139

>  <meeko>  (15) 
{"free_energy": -7.45, "intermolecular_energy": -9.53, "internal_energy": -1.95, "cluster_size": 28, "cluster_id": 1, "rank_in_cluster": 9}

>  <energy>  (15) 
-7.35

>  <cluster_rmsd>  (15) 
0.97

>  <cluster>  (15) 
1

$$$$

     RDKit          3D

 52 54  0  0  0  0  0  0  0  0999 V2000
  137.2500   68.5030  222.7510 C   0  0  0  0  0  0  0  0  0  0  0  0
  137.8300   69.1810  223.9010 N   0  0  0  0  0  0  0  0  0  0  0  0
  137.5080   70.5830  224.1020 C   0  0  0  0  0  0  0  0  0  0  0  0
  137.2530   71.2420  222.7680 C   0  0  0  0  0  0  0  0  0  0  0  0
  137.8920   72.5630  222.6770 N   0  0  0  0  0  0  0  0  0  0  0  0
  139.1240   72.7040  221.9760 C   0  0  0  0  0  0  0  0  0  0  0  0
  139.6990   71.7070  221.4200 O   0  0  0  0  0  0  0  0  0  0  0  0
  139.7160   74.0390  221.9090 C   0  0  0  0  0  0  0  0  0  0  0  0
  140.9650   74.2180  221.3480 C   0  0  0  0  0  0  0  0  0  0  0  0
  141.5640   75.4630  221.2620 C   0  0  0  0  0  0  0  0  0  0  0  0
  140.8910   76.5800  221.7570 C   0  0  0  0  0  0  0  0  0  0  0  0
  141.4740   77.8250  221.6770 C   0  0  0  0  0  0  0  0  0  0  0  0
  140.7530   78.8930  222.1830 C   0  0  0  0  0  0  0  0  0  0  0  0
  141.3860   80.5410  222.1410 Cl  0  0  0  0  0  0  0  0  0  0  0  0
  139.5050   78.6830  222.7390 C   0  0  0  0  0  0  0  0  0  0  0  0
  138.9220   77.4280  222.8180 C   0  0  0  0  0  0  0  0  0  0  0  0
  139.6420   76.3620  222.3120 C   0  0  0  0  0  0  0  0  0  0  0  0
  139.0820   75.1350  222.3830 N   0  0  0  0  0  0  0  0  0  0  0  0
  138.7000   68.4840  224.8230 C   0  0  0  0  0  0  0  0  0  0  0  0
  139.2130   67.4170  224.4000 O   0  0  0  0  0  0  0  0  0  0  0  0
  138.8910   69.0790  226.1340 C   0  0  0  0  0  0  0  0  0  0  0  0
  140.1000   69.7770  226.3910 N   0  0  0  0  0  0  0  0  0  0  0  0
  140.5400   69.7850  227.7260 C   0  0  0  0  0  0  0  0  0  0  0  0
  141.0550   71.0210  228.3400 C   0  0  0  0  0  0  0  0  0  0  0  0
  140.8180   72.2140  227.4790 C   0  0  0  0  0  0  0  0  0  0  0  0
  141.3820   71.8470  226.0990 C   0  0  0  0  0  0  0  0  0  0  0  0
  140.5350   70.7480  225.4840 C   0  0  0  0  0  0  0  0  0  0  0  0
  136.5712   67.7096  223.0970 H   0  0  0  0  0  0  0  0  0  0  0  0
  136.6877   69.2274  222.1434 H   0  0  0  0  0  0  0  0  0  0  0  0
  138.0527   68.0597  222.1434 H   0  0  0  0  0  0  0  0  0  0  0  0
  136.6077   70.6653  224.7287 H   0  0  0  0  0  0  0  0  0  0  0  0
  138.3515   71.0830  224.6004 H   0  0  0  0  0  0  0  0  0  0  0  0
  137.6532   70.5979  221.9711 H   0  0  0  0  0  0  0  0  0  0  0  0
  136.1673   71.3807  222.6587 H   0  0  0  0  0  0  0  0  0  0  0  0
  137.4600   73.4100  223.1170 H   0  0  0  0  0  0  0  0  0  0  0  0
  141.5021   73.3416  220.9562 H   0  0  0  0  0  0  0  0  0  0  0  0
  142.5602   75.5703  220.8081 H   0  0  0  0  0  0  0  0  0  0  0  0
  142.4695   77.9648  221.2304 H   0  0  0  0  0  0  0  0  0  0  0  0
  138.9518   79.5474  223.1350 H   0  0  0  0  0  0  0  0  0  0  0  0
  137.9270   77.2861  223.2651 H   0  0  0  0  0  0  0  0  0  0  0  0
  138.0661   69.7894  226.2916 H   0  0  0  0  0  0  0  0  0  0  0  0
  138.9262   68.2182  226.8180 H   0  0  0  0  0  0  0  0  0  0  0  0
  139.6869   69.4608  228.3401 H   0  0  0  0  0  0  0  0  0  0  0  0
  141.4286   69.1373  227.6955 H   0  0  0  0  0  0  0  0  0  0  0  0
  140.5509   71.1744  229.3056 H   0  0  0  0  0  0  0  0  0  0  0  0
  142.1412   70.9076  228.4712 H   0  0  0  0  0  0  0  0  0  0  0  0
  139.7415   72.4290  227.4089 H   0  0  0  0  0  0  0  0  0  0  0  0
  141.3000   73.1137  227.8891 H   0  0  0  0  0  0  0  0  0  0  0  0
  141.3630   72.7330  225.4474 H   0  0  0  0  0  0  0  0  0  0  0  0
  142.4184   71.4948  226.2076 H   0  0  0  0  0  0  0  0  0  0  0  0
  139.6491   71.2122  225.0260 H   0  0  0  0  0  0  0  0  0  0  0  0
  141.1746   70.2307  224.7537 H   0  0  0  0  0  0  0  0  0  0  0  0
  1  2  1  0
  2  3  1  0
  3  4  1  0
  4  5  1  0
  5  6  1  0
  6  7  2  0
  6  8  1  0
  8  9  2  0
  9 10  1  0
 10 11  2  0
 11 12  1  0
 12 13  2  0
 13 14  1  0
 13 15  1  0
 15 16  2  0
 16 17  1  0
 17 18  2  0
  2 19  1  0
 19 20  2  0
 19 21  1  0
 21 22  1  0
 22 23  1  0
 23 24  1  0
 24 25  1  0
 25 26  1  0
 26 27  1  0
 18  8  1  0
 27 22  1  0
 17 11  1  0
  1 28  1  0
  1 29  1  0
  1 30  1  0
  3 31  1  0
  3 32  1  0
  4 33  1  0
  4 34  1  0
  5 35  1  0
  9 36  1  0
 10 37  1  0
 12 38  1  0
 15 39  1  0
 16 40  1  0
 21 41  1  0
 21 42  1  0
 23 43  1  0
 23 44  1  0
 24 45  1  0
 24 46  1  0
 25 47  1  0
 25 48  1  0
 26 49  1  0
 26 50  1  0
 27 51  1  0
 27 52  1  0
M  END
>  <smiles>  (16) 
CN(CCNC(=O)c1ccc2cc(Cl)ccc2n1)C(=O)CN1CCCCC1

>  <score_type>  (16) 
oracle

>  <origin>  (16) 
autodockgpu

>  <m_score__min__energy>  (16) 
-7.9299999999999997

>  <m_primary>  (16) 
energy

>  <rmsd>  (16) 
6.7267516309105115

>  <m_score__min__rmsd>  (16) 
6.7267516309105115

>  <meeko>  (16) 
{"free_energy": -7.39, "intermolecular_energy": -9.48, "internal_energy": -1.6, "cluster_size": 16, "cluster_id": 3, "rank_in_cluster": 6}

>  <energy>  (16) 
-7.33

>  <cluster_rmsd>  (16) 
0.94

>  <cluster>  (16) 
1

$$$$

     RDKit          3D

 52 54  0  0  0  0  0  0  0  0999 V2000
  138.4350   69.7640  222.0040 C   0  0  0  0  0  0  0  0  0  0  0  0
  138.1270   70.7360  223.0420 N   0  0  0  0  0  0  0  0  0  0  0  0
  136.8730   71.4630  222.9480 C   0  0  0  0  0  0  0  0  0  0  0  0
  136.9670   72.5000  221.8550 C   0  0  0  0  0  0  0  0  0  0  0  0
  137.9510   73.5450  222.1720 N   0  0  0  0  0  0  0  0  0  0  0  0
  137.7150   74.8860  221.7530 C   0  0  0  0  0  0  0  0  0  0  0  0
  136.6670   75.2120  221.0980 O   0  0  0  0  0  0  0  0  0  0  0  0
  138.7210   75.8900  222.0990 C   0  0  0  0  0  0  0  0  0  0  0  0
  140.0660   75.5940  221.9850 C   0  0  0  0  0  0  0  0  0  0  0  0
  141.0520   76.5120  222.3000 C   0  0  0  0  0  0  0  0  0  0  0  0
  140.6860   77.7810  222.7490 C   0  0  0  0  0  0  0  0  0  0  0  0
  141.6560   78.7060  223.0640 C   0  0  0  0  0  0  0  0  0  0  0  0
  141.2270   79.9480  223.5000 C   0  0  0  0  0  0  0  0  0  0  0  0
  142.3690   81.2220  223.9360 Cl  0  0  0  0  0  0  0  0  0  0  0  0
  139.8750   80.2140  223.6040 C   0  0  0  0  0  0  0  0  0  0  0  0
  138.9010   79.2810  223.2860 C   0  0  0  0  0  0  0  0  0  0  0  0
  139.3300   78.0410  222.8500 C   0  0  0  0  0  0  0  0  0  0  0  0
  138.3890   77.1250  222.5360 N   0  0  0  0  0  0  0  0  0  0  0  0
  139.0390   70.9740  224.1410 C   0  0  0  0  0  0  0  0  0  0  0  0
  139.8920   71.8800  223.9660 O   0  0  0  0  0  0  0  0  0  0  0  0
  138.8780   70.1490  225.3260 C   0  0  0  0  0  0  0  0  0  0  0  0
  140.0270   69.8550  226.1070 N   0  0  0  0  0  0  0  0  0  0  0  0
  140.5030   68.5350  226.0370 C   0  0  0  0  0  0  0  0  0  0  0  0
  140.9220   67.8210  227.2560 C   0  0  0  0  0  0  0  0  0  0  0  0
  140.5530   68.5640  228.4930 C   0  0  0  0  0  0  0  0  0  0  0  0
  141.1070   69.9840  228.3050 C   0  0  0  0  0  0  0  0  0  0  0  0
  140.3450   70.6790  227.1910 C   0  0  0  0  0  0  0  0  0  0  0  0
  138.7361   68.8138  222.4692 H   0  0  0  0  0  0  0  0  0  0  0  0
  137.5447   69.6004  221.3790 H   0  0  0  0  0  0  0  0  0  0  0  0
  139.2571   70.1430  221.3790 H   0  0  0  0  0  0  0  0  0  0  0  0
  136.0593   70.7601  222.7162 H   0  0  0  0  0  0  0  0  0  0  0  0
  136.6682   71.9617  223.9068 H   0  0  0  0  0  0  0  0  0  0  0  0
  137.2643   72.0040  220.9192 H   0  0  0  0  0  0  0  0  0  0  0  0
  135.9819   72.9793  221.7551 H   0  0  0  0  0  0  0  0  0  0  0  0
  138.8260   73.3280  222.7050 H   0  0  0  0  0  0  0  0  0  0  0  0
  140.3626   74.5953  221.6321 H   0  0  0  0  0  0  0  0  0  0  0  0
  142.1139   76.2439  222.1974 H   0  0  0  0  0  0  0  0  0  0  0  0
  142.7262   78.4683  222.9731 H   0  0  0  0  0  0  0  0  0  0  0  0
  139.5587   81.2078  223.9538 H   0  0  0  0  0  0  0  0  0  0  0  0
  137.8305   79.5172  223.3767 H   0  0  0  0  0  0  0  0  0  0  0  0
  138.1605   70.6615  225.9837 H   0  0  0  0  0  0  0  0  0  0  0  0
  138.5615   69.1715  224.9332 H   0  0  0  0  0  0  0  0  0  0  0  0
  139.7010   67.9355  225.5817 H   0  0  0  0  0  0  0  0  0  0  0  0
  141.4454   68.6433  225.4800 H   0  0  0  0  0  0  0  0  0  0  0  0
  140.4345   66.8351  227.2753 H   0  0  0  0  0  0  0  0  0  0  0  0
  142.0174   67.7231  227.2327 H   0  0  0  0  0  0  0  0  0  0  0  0
  139.4598   68.5914  228.6124 H   0  0  0  0  0  0  0  0  0  0  0  0
  140.9638   68.0836  229.3932 H   0  0  0  0  0  0  0  0  0  0  0  0
  140.9883   70.5510  229.2401 H   0  0  0  0  0  0  0  0  0  0  0  0
  142.1739   69.9305  228.0426 H   0  0  0  0  0  0  0  0  0  0  0  0
  139.4075   71.0737  227.6097 H   0  0  0  0  0  0  0  0  0  0  0  0
  141.0066   71.4672  226.8025 H   0  0  0  0  0  0  0  0  0  0  0  0
  1  2  1  0
  2  3  1  0
  3  4  1  0
  4  5  1  0
  5  6  1  0
  6  7  2  0
  6  8  1  0
  8  9  2  0
  9 10  1  0
 10 11  2  0
 11 12  1  0
 12 13  2  0
 13 14  1  0
 13 15  1  0
 15 16  2  0
 16 17  1  0
 17 18  2  0
  2 19  1  0
 19 20  2  0
 19 21  1  0
 21 22  1  0
 22 23  1  0
 23 24  1  0
 24 25  1  0
 25 26  1  0
 26 27  1  0
 18  8  1  0
 27 22  1  0
 17 11  1  0
  1 28  1  0
  1 29  1  0
  1 30  1  0
  3 31  1  0
  3 32  1  0
  4 33  1  0
  4 34  1  0
  5 35  1  0
  9 36  1  0
 10 37  1  0
 12 38  1  0
 15 39  1  0
 16 40  1  0
 21 41  1  0
 21 42  1  0
 23 43  1  0
 23 44  1  0
 24 45  1  0
 24 46  1  0
 25 47  1  0
 25 48  1  0
 26 49  1  0
 26 50  1  0
 27 51  1  0
 27 52  1  0
M  END
>  <smiles>  (17) 
CN(CCNC(=O)c1ccc2cc(Cl)ccc2n1)C(=O)CN1CCCCC1

>  <score_type>  (17) 
oracle

>  <origin>  (17) 
autodockgpu

>  <m_score__min__energy>  (17) 
-7.9299999999999997

>  <m_primary>  (17) 
energy

>  <rmsd>  (17) 
5.7977423389295115

>  <m_score__min__rmsd>  (17) 
5.7977423389295115

>  <meeko>  (17) 
{"free_energy": -7.15, "intermolecular_energy": -9.24, "internal_energy": -1.66, "cluster_size": 16, "cluster_id": 3, "rank_in_cluster": 12}

>  <energy>  (17) 
-7.33

>  <cluster_rmsd>  (17) 
1.3

>  <cluster>  (17) 
1

$$$$

     RDKit          3D

 52 54  0  0  0  0  0  0  0  0999 V2000
  136.0040   69.0990  224.4740 C   0  0  0  0  0  0  0  0  0  0  0  0
  137.3880   69.5400  224.3790 N   0  0  0  0  0  0  0  0  0  0  0  0
  137.6500   70.8470  223.8010 C   0  0  0  0  0  0  0  0  0  0  0  0
  139.0140   70.8520  223.1540 C   0  0  0  0  0  0  0  0  0  0  0  0
  139.4760   72.2160  222.8580 N   0  0  0  0  0  0  0  0  0  0  0  0
  140.1730   72.4770  221.6430 C   0  0  0  0  0  0  0  0  0  0  0  0
  140.4150   71.5520  220.7950 O   0  0  0  0  0  0  0  0  0  0  0  0
  140.6050   73.8510  221.3930 C   0  0  0  0  0  0  0  0  0  0  0  0
  141.5370   74.1170  220.4080 C   0  0  0  0  0  0  0  0  0  0  0  0
  141.9750   75.4010  220.1360 C   0  0  0  0  0  0  0  0  0  0  0  0
  141.4650   76.4680  220.8750 C   0  0  0  0  0  0  0  0  0  0  0  0
  141.8900   77.7520  220.6140 C   0  0  0  0  0  0  0  0  0  0  0  0
  141.3450   78.7670  221.3810 C   0  0  0  0  0  0  0  0  0  0  0  0
  141.8040   80.4550  221.1470 Cl  0  0  0  0  0  0  0  0  0  0  0  0
  140.4150   78.4690  222.3600 C   0  0  0  0  0  0  0  0  0  0  0  0
  139.9900   77.1760  222.6200 C   0  0  0  0  0  0  0  0  0  0  0  0
  140.5350   76.1630  221.8530 C   0  0  0  0  0  0  0  0  0  0  0  0
  140.1260   74.8990  222.0980 N   0  0  0  0  0  0  0  0  0  0  0  0
  138.4740   68.7080  224.8480 C   0  0  0  0  0  0  0  0  0  0  0  0
  138.9790   67.9290  224.0020 O   0  0  0  0  0  0  0  0  0  0  0  0
  138.8710   68.8550  226.2380 C   0  0  0  0  0  0  0  0  0  0  0  0
  140.0760   69.5460  226.5300 N   0  0  0  0  0  0  0  0  0  0  0  0
  140.3380   69.7890  227.8890 C   0  0  0  0  0  0  0  0  0  0  0  0
  140.8430   71.0990  228.3350 C   0  0  0  0  0  0  0  0  0  0  0  0
  140.7920   72.1170  227.2470 C   0  0  0  0  0  0  0  0  0  0  0  0
  141.5080   71.4780  226.0480 C   0  0  0  0  0  0  0  0  0  0  0  0
  140.6830   70.3130  225.5310 C   0  0  0  0  0  0  0  0  0  0  0  0
  135.7199   69.0085  225.5328 H   0  0  0  0  0  0  0  0  0  0  0  0
  135.3505   69.8334  223.9805 H   0  0  0  0  0  0  0  0  0  0  0  0
  135.8958   68.1219  223.9805 H   0  0  0  0  0  0  0  0  0  0  0  0
  136.8849   71.0720  223.0434 H   0  0  0  0  0  0  0  0  0  0  0  0
  137.6195   71.6091  224.5937 H   0  0  0  0  0  0  0  0  0  0  0  0
  139.7325   70.3733  223.8356 H   0  0  0  0  0  0  0  0  0  0  0  0
  138.9422   70.3029  222.2036 H   0  0  0  0  0  0  0  0  0  0  0  0
  139.3030   73.0070  223.5220 H   0  0  0  0  0  0  0  0  0  0  0  0
  141.9440   73.2805  219.8209 H   0  0  0  0  0  0  0  0  0  0  0  0
  142.7182   75.5784  219.3447 H   0  0  0  0  0  0  0  0  0  0  0  0
  142.6314   77.9618  219.8290 H   0  0  0  0  0  0  0  0  0  0  0  0
  139.9953   79.2922  222.9569 H   0  0  0  0  0  0  0  0  0  0  0  0
  139.2490   76.9641  223.4049 H   0  0  0  0  0  0  0  0  0  0  0  0
  138.0583   69.3882  226.7529 H   0  0  0  0  0  0  0  0  0  0  0  0
  139.0640   67.8251  226.5726 H   0  0  0  0  0  0  0  0  0  0  0  0
  139.3940   69.6165  228.4267 H   0  0  0  0  0  0  0  0  0  0  0  0
  141.1821   69.1160  228.1001 H   0  0  0  0  0  0  0  0  0  0  0  0
  140.2282   71.4485  229.1775 H   0  0  0  0  0  0  0  0  0  0  0  0
  141.8941   70.9740  228.6344 H   0  0  0  0  0  0  0  0  0  0  0  0
  139.7486   72.3522  226.9901 H   0  0  0  0  0  0  0  0  0  0  0  0
  141.2697   73.0604  227.5502 H   0  0  0  0  0  0  0  0  0  0  0  0
  141.6272   72.2260  225.2503 H   0  0  0  0  0  0  0  0  0  0  0  0
  142.4986   71.1166  226.3612 H   0  0  0  0  0  0  0  0  0  0  0  0
  139.8938   70.7136  224.8778 H   0  0  0  0  0  0  0  0  0  0  0  0
  141.3796   69.6454  225.0028 H   0  0  0  0  0  0  0  0  0  0  0  0
  1  2  1  0
  2  3  1  0
  3  4  1  0
  4  5  1  0
  5  6  1  0
  6  7  2  0
  6  8  1  0
  8  9  2  0
  9 10  1  0
 10 11  2  0
 11 12  1  0
 12 13  2  0
 13 14  1  0
 13 15  1  0
 15 16  2  0
 16 17  1  0
 17 18  2  0
  2 19  1  0
 19 20  2  0
 19 21  1  0
 21 22  1  0
 22 23  1  0
 23 24  1  0
 24 25  1  0
 25 26  1  0
 26 27  1  0
 18  8  1  0
 27 22  1  0
 17 11  1  0
  1 28  1  0
  1 29  1  0
  1 30  1  0
  3 31  1  0
  3 32  1  0
  4 33  1  0
  4 34  1  0
  5 35  1  0
  9 36  1  0
 10 37  1  0
 12 38  1  0
 15 39  1  0
 16 40  1  0
 21 41  1  0
 21 42  1  0
 23 43  1  0
 23 44  1  0
 24 45  1  0
 24 46  1  0
 25 47  1  0
 25 48  1  0
 26 49  1  0
 26 50  1  0
 27 51  1  0
 27 52  1  0
M  END
>  <smiles>  (18) 
CN(CCNC(=O)c1ccc2cc(Cl)ccc2n1)C(=O)CN1CCCCC1

>  <score_type>  (18) 
oracle

>  <origin>  (18) 
autodockgpu

>  <m_score__min__energy>  (18) 
-7.9299999999999997

>  <m_primary>  (18) 
energy

>  <rmsd>  (18) 
6.803210244144551

>  <m_score__min__rmsd>  (18) 
6.803210244144551

>  <meeko>  (18) 
{"free_energy": -7.34, "intermolecular_energy": -9.43, "internal_energy": -1.38, "cluster_size": 16, "cluster_id": 3, "rank_in_cluster": 8}

>  <energy>  (18) 
-7.31

>  <cluster_rmsd>  (18) 
0.74

>  <cluster>  (18) 
1

$$$$

     RDKit          3D

 52 54  0  0  0  0  0  0  0  0999 V2000
  135.9790   76.2440  221.2000 C   0  0  0  0  0  0  0  0  0  0  0  0
  137.4300   76.1760  221.2990 N   0  0  0  0  0  0  0  0  0  0  0  0
  138.1490   75.4200  220.2880 C   0  0  0  0  0  0  0  0  0  0  0  0
  139.5270   75.0730  220.7980 C   0  0  0  0  0  0  0  0  0  0  0  0
  139.4750   74.1080  221.9060 N   0  0  0  0  0  0  0  0  0  0  0  0
  140.1310   72.8500  221.7780 C   0  0  0  0  0  0  0  0  0  0  0  0
  140.7670   72.5290  220.7170 O   0  0  0  0  0  0  0  0  0  0  0  0
  140.0550   71.9280  222.9100 C   0  0  0  0  0  0  0  0  0  0  0  0
  139.4140   70.7120  222.7740 C   0  0  0  0  0  0  0  0  0  0  0  0
  139.3180   69.8080  223.8170 C   0  0  0  0  0  0  0  0  0  0  0  0
  139.8850   70.1270  225.0510 C   0  0  0  0  0  0  0  0  0  0  0  0
  139.7990   69.2360  226.0980 C   0  0  0  0  0  0  0  0  0  0  0  0
  140.3840   69.6100  227.2950 C   0  0  0  0  0  0  0  0  0  0  0  0
  140.3460   68.5600  228.7140 Cl  0  0  0  0  0  0  0  0  0  0  0  0
  141.0190   70.8330  227.4010 C   0  0  0  0  0  0  0  0  0  0  0  0
  141.1030   71.7280  226.3460 C   0  0  0  0  0  0  0  0  0  0  0  0
  140.5190   71.3530  225.1500 C   0  0  0  0  0  0  0  0  0  0  0  0
  140.5970   72.2160  224.1150 N   0  0  0  0  0  0  0  0  0  0  0  0
  138.1400   76.8420  222.3690 C   0  0  0  0  0  0  0  0  0  0  0  0
  138.1810   76.2340  223.4680 O   0  0  0  0  0  0  0  0  0  0  0  0
  138.7310   78.1350  222.0690 C   0  0  0  0  0  0  0  0  0  0  0  0
  139.7680   78.6180  222.9090 N   0  0  0  0  0  0  0  0  0  0  0  0
  139.5700   79.8920  223.4690 C   0  0  0  0  0  0  0  0  0  0  0  0
  140.6660   80.8750  223.5060 C   0  0  0  0  0  0  0  0  0  0  0  0
  141.8390   80.4350  222.6990 C   0  0  0  0  0  0  0  0  0  0  0  0
  142.1710   79.0180  223.1880 C   0  0  0  0  0  0  0  0  0  0  0  0
  141.0500   78.0730  222.7950 C   0  0  0  0  0  0  0  0  0  0  0  0
  135.5432   76.2644  222.2098 H   0  0  0  0  0  0  0  0  0  0  0  0
  135.6909   77.1566  220.6577 H   0  0  0  0  0  0  0  0  0  0  0  0
  135.6068   75.3623  220.6577 H   0  0  0  0  0  0  0  0  0  0  0  0
  137.5985   74.4947  220.0627 H   0  0  0  0  0  0  0  0  0  0  0  0
  138.2400   76.0266  219.3749 H   0  0  0  0  0  0  0  0  0  0  0  0
  140.1117   74.6375  219.9743 H   0  0  0  0  0  0  0  0  0  0  0  0
  139.9944   75.9960  221.1717 H   0  0  0  0  0  0  0  0  0  0  0  0
  138.9650   74.3240  222.7950 H   0  0  0  0  0  0  0  0  0  0  0  0
  138.9647   70.4536  221.8037 H   0  0  0  0  0  0  0  0  0  0  0  0
  138.8001   68.8480  223.6747 H   0  0  0  0  0  0  0  0  0  0  0  0
  139.2872   68.2686  225.9873 H   0  0  0  0  0  0  0  0  0  0  0  0
  141.4768   71.1075  228.3628 H   0  0  0  0  0  0  0  0  0  0  0  0
  141.6131   72.6964  226.4556 H   0  0  0  0  0  0  0  0  0  0  0  0
  139.1401   78.0762  221.0496 H   0  0  0  0  0  0  0  0  0  0  0  0
  137.9078   78.8486  222.2209 H   0  0  0  0  0  0  0  0  0  0  0  0
  138.7482   80.3586  222.9060 H   0  0  0  0  0  0  0  0  0  0  0  0
  139.4041   79.6692  224.5333 H   0  0  0  0  0  0  0  0  0  0  0  0
  140.2986   81.8315  223.1060 H   0  0  0  0  0  0  0  0  0  0  0  0
  140.9930   80.9796  224.5510 H   0  0  0  0  0  0  0  0  0  0  0  0
  141.5852   80.4219  221.6288 H   0  0  0  0  0  0  0  0  0  0  0  0
  142.6937   81.1169  222.8194 H   0  0  0  0  0  0  0  0  0  0  0  0
  143.1121   78.6822  222.7281 H   0  0  0  0  0  0  0  0  0  0  0  0
  142.2800   79.0234  224.2826 H   0  0  0  0  0  0  0  0  0  0  0  0
  141.2043   77.7730  221.7480 H   0  0  0  0  0  0  0  0  0  0  0  0
  141.0940   77.2258  223.4952 H   0  0  0  0  0  0  0  0  0  0  0  0
  1  2  1  0
  2  3  1  0
  3  4  1  0
  4  5  1  0
  5  6  1  0
  6  7  2  0
  6  8  1  0
  8  9  2  0
  9 10  1  0
 10 11  2  0
 11 12  1  0
 12 13  2  0
 13 14  1  0
 13 15  1  0
 15 16  2  0
 16 17  1  0
 17 18  2  0
  2 19  1  0
 19 20  2  0
 19 21  1  0
 21 22  1  0
 22 23  1  0
 23 24  1  0
 24 25  1  0
 25 26  1  0
 26 27  1  0
 18  8  1  0
 27 22  1  0
 17 11  1  0
  1 28  1  0
  1 29  1  0
  1 30  1  0
  3 31  1  0
  3 32  1  0
  4 33  1  0
  4 34  1  0
  5 35  1  0
  9 36  1  0
 10 37  1  0
 12 38  1  0
 15 39  1  0
 16 40  1  0
 21 41  1  0
 21 42  1  0
 23 43  1  0
 23 44  1  0
 24 45  1  0
 24 46  1  0
 25 47  1  0
 25 48  1  0
 26 49  1  0
 26 50  1  0
 27 51  1  0
 27 52  1  0
M  END
>  <smiles>  (19) 
CN(CCNC(=O)c1ccc2cc(Cl)ccc2n1)C(=O)CN1CCCCC1

>  <score_type>  (19) 
oracle

>  <origin>  (19) 
autodockgpu

>  <m_score__min__energy>  (19) 
-7.9299999999999997

>  <m_primary>  (19) 
energy

>  <rmsd>  (19) 
9.183991458715454

>  <m_score__min__rmsd>  (19) 
9.183991458715454

>  <meeko>  (19) 
{"free_energy": -7.17, "intermolecular_energy": -9.26, "internal_energy": -1.84, "cluster_size": 28, "cluster_id": 1, "rank_in_cluster": 23}

>  <energy>  (19) 
-7.31

>  <cluster_rmsd>  (19) 
0.83

>  <cluster>  (19) 
1

$$$$

     RDKit          3D

 52 54  0  0  0  0  0  0  0  0999 V2000
  142.0600   73.9940  220.0360 C   0  0  0  0  0  0  0  0  0  0  0  0
  140.8530   74.7400  220.3610 N   0  0  0  0  0  0  0  0  0  0  0  0
  139.6100   74.3400  219.7250 C   0  0  0  0  0  0  0  0  0  0  0  0
  138.4980   74.3280  220.7470 C   0  0  0  0  0  0  0  0  0  0  0  0
  138.8150   73.4650  221.8940 N   0  0  0  0  0  0  0  0  0  0  0  0
  138.6340   72.0560  221.7880 C   0  0  0  0  0  0  0  0  0  0  0  0
  138.1970   71.5130  220.7170 O   0  0  0  0  0  0  0  0  0  0  0  0
  138.9700   71.2420  222.9550 C   0  0  0  0  0  0  0  0  0  0  0  0
  138.5570   69.9250  223.0250 C   0  0  0  0  0  0  0  0  0  0  0  0
  138.8520   69.1160  224.1080 C   0  0  0  0  0  0  0  0  0  0  0  0
  139.5900   69.6390  225.1700 C   0  0  0  0  0  0  0  0  0  0  0  0
  139.8930   68.8460  226.2540 C   0  0  0  0  0  0  0  0  0  0  0  0
  140.6300   69.4230  227.2730 C   0  0  0  0  0  0  0  0  0  0  0  0
  141.0850   68.5150  228.7170 Cl  0  0  0  0  0  0  0  0  0  0  0  0
  141.0290   70.7430  227.1750 C   0  0  0  0  0  0  0  0  0  0  0  0
  140.7220   71.5390  226.0830 C   0  0  0  0  0  0  0  0  0  0  0  0
  139.9860   70.9610  225.0650 C   0  0  0  0  0  0  0  0  0  0  0  0
  139.6830   71.7280  223.9950 N   0  0  0  0  0  0  0  0  0  0  0  0
  140.8850   75.8480  221.2910 C   0  0  0  0  0  0  0  0  0  0  0  0
  140.4310   75.6180  222.4400 O   0  0  0  0  0  0  0  0  0  0  0  0
  141.4320   77.1040  220.8090 C   0  0  0  0  0  0  0  0  0  0  0  0
  141.1240   78.2950  221.5180 N   0  0  0  0  0  0  0  0  0  0  0  0
  142.1940   79.1760  221.7460 C   0  0  0  0  0  0  0  0  0  0  0  0
  142.3700   79.8200  223.0590 C   0  0  0  0  0  0  0  0  0  0  0  0
  141.4620   79.2440  224.0910 C   0  0  0  0  0  0  0  0  0  0  0  0
  140.0530   79.3010  223.4820 C   0  0  0  0  0  0  0  0  0  0  0  0
  139.9720   78.3400  222.3090 C   0  0  0  0  0  0  0  0  0  0  0  0
  142.5610   73.6844  220.9650 H   0  0  0  0  0  0  0  0  0  0  0  0
  141.7934   73.1030  219.4487 H   0  0  0  0  0  0  0  0  0  0  0  0
  142.7377   74.6310  219.4487 H   0  0  0  0  0  0  0  0  0  0  0  0
  139.3631   75.0522  218.9239 H   0  0  0  0  0  0  0  0  0  0  0  0
  139.7255   73.3322  219.2995 H   0  0  0  0  0  0  0  0  0  0  0  0
  138.3365   75.3543  221.1084 H   0  0  0  0  0  0  0  0  0  0  0  0
  137.5942   73.9308  220.2618 H   0  0  0  0  0  0  0  0  0  0  0  0
  139.1750   73.8630  222.7930 H   0  0  0  0  0  0  0  0  0  0  0  0
  137.9741   69.5058  222.1916 H   0  0  0  0  0  0  0  0  0  0  0  0
  138.5082   68.0714  224.1313 H   0  0  0  0  0  0  0  0  0  0  0  0
  139.5631   67.7980  226.3077 H   0  0  0  0  0  0  0  0  0  0  0  0
  141.6143   71.1794  227.9978 H   0  0  0  0  0  0  0  0  0  0  0  0
  141.0503   72.5874  226.0282 H   0  0  0  0  0  0  0  0  0  0  0  0
  142.5272   77.0015  220.8072 H   0  0  0  0  0  0  0  0  0  0  0  0
  140.9563   77.2451  219.8273 H   0  0  0  0  0  0  0  0  0  0  0  0
  143.1156   78.6092  221.5478 H   0  0  0  0  0  0  0  0  0  0  0  0
  141.9588   80.0240  221.0860 H   0  0  0  0  0  0  0  0  0  0  0  0
  143.4113   79.6816  223.3854 H   0  0  0  0  0  0  0  0  0  0  0  0
  142.1252   80.8868  222.9491 H   0  0  0  0  0  0  0  0  0  0  0  0
  141.7429   78.2036  224.3116 H   0  0  0  0  0  0  0  0  0  0  0  0
  141.5182   79.8007  225.0381 H   0  0  0  0  0  0  0  0  0  0  0  0
  139.3122   79.0146  224.2431 H   0  0  0  0  0  0  0  0  0  0  0  0
  139.8436   80.3235  223.1348 H   0  0  0  0  0  0  0  0  0  0  0  0
  139.7862   77.3302  222.7038 H   0  0  0  0  0  0  0  0  0  0  0  0
  139.1607   78.7034  221.6612 H   0  0  0  0  0  0  0  0  0  0  0  0
  1  2  1  0
  2  3  1  0
  3  4  1  0
  4  5  1  0
  5  6  1  0
  6  7  2  0
  6  8  1  0
  8  9  2  0
  9 10  1  0
 10 11  2  0
 11 12  1  0
 12 13  2  0
 13 14  1  0
 13 15  1  0
 15 16  2  0
 16 17  1  0
 17 18  2  0
  2 19  1  0
 19 20  2  0
 19 21  1  0
 21 22  1  0
 22 23  1  0
 23 24  1  0
 24 25  1  0
 25 26  1  0
 26 27  1  0
 18  8  1  0
 27 22  1  0
 17 11  1  0
  1 28  1  0
  1 29  1  0
  1 30  1  0
  3 31  1  0
  3 32  1  0
  4 33  1  0
  4 34  1  0
  5 35  1  0
  9 36  1  0
 10 37  1  0
 12 38  1  0
 15 39  1  0
 16 40  1  0
 21 41  1  0
 21 42  1  0
 23 43  1  0
 23 44  1  0
 24 45  1  0
 24 46  1  0
 25 47  1  0
 25 48  1  0
 26 49  1  0
 26 50  1  0
 27 51  1  0
 27 52  1  0
M  END
>  <smiles>  (20) 
CN(CCNC(=O)c1ccc2cc(Cl)ccc2n1)C(=O)CN1CCCCC1

>  <score_type>  (20) 
oracle

>  <origin>  (20) 
autodockgpu

>  <m_score__min__energy>  (20) 
-7.9299999999999997

>  <m_primary>  (20) 
energy

>  <rmsd>  (20) 
9.259315715080456

>  <m_score__min__rmsd>  (20) 
9.259315715080456

>  <meeko>  (20) 
{"free_energy": -7.24, "intermolecular_energy": -9.33, "internal_energy": -2.03, "cluster_size": 28, "cluster_id": 1, "rank_in_cluster": 21}

>  <energy>  (20) 
-7.28

>  <cluster_rmsd>  (20) 
1.13

>  <cluster>  (20) 
1

$$$$

     RDKit          3D

 52 54  0  0  0  0  0  0  0  0999 V2000
  140.1730   77.8040  220.9910 C   0  0  0  0  0  0  0  0  0  0  0  0
  139.9960   76.3740  221.1970 N   0  0  0  0  0  0  0  0  0  0  0  0
  138.6420   75.8490  221.2150 C   0  0  0  0  0  0  0  0  0  0  0  0
  138.6550   74.3960  220.8050 C   0  0  0  0  0  0  0  0  0  0  0  0
  138.9380   73.5070  221.9410 N   0  0  0  0  0  0  0  0  0  0  0  0
  138.9800   72.0970  221.7420 C   0  0  0  0  0  0  0  0  0  0  0  0
  138.7730   71.5750  220.5940 O   0  0  0  0  0  0  0  0  0  0  0  0
  139.2710   71.2580  222.9030 C   0  0  0  0  0  0  0  0  0  0  0  0
  138.9170   69.9220  222.9010 C   0  0  0  0  0  0  0  0  0  0  0  0
  139.1730   69.0900  223.9760 C   0  0  0  0  0  0  0  0  0  0  0  0
  139.8100   69.6070  225.1040 C   0  0  0  0  0  0  0  0  0  0  0  0
  140.0740   68.7900  226.1810 C   0  0  0  0  0  0  0  0  0  0  0  0
  140.7100   69.3640  227.2680 C   0  0  0  0  0  0  0  0  0  0  0  0
  141.1060   68.4260  228.7110 Cl  0  0  0  0  0  0  0  0  0  0  0  0
  141.0520   70.7030  227.2410 C   0  0  0  0  0  0  0  0  0  0  0  0
  140.7850   71.5220  226.1560 C   0  0  0  0  0  0  0  0  0  0  0  0
  140.1500   70.9480  225.0700 C   0  0  0  0  0  0  0  0  0  0  0  0
  139.8860   71.7380  224.0060 N   0  0  0  0  0  0  0  0  0  0  0  0
  141.1320   75.4960  221.3750 C   0  0  0  0  0  0  0  0  0  0  0  0
  141.0650   74.6940  222.3400 O   0  0  0  0  0  0  0  0  0  0  0  0
  142.2270   75.6270  220.4290 C   0  0  0  0  0  0  0  0  0  0  0  0
  142.8660   74.4480  219.9640 N   0  0  0  0  0  0  0  0  0  0  0  0
  142.0230   73.4450  219.4560 C   0  0  0  0  0  0  0  0  0  0  0  0
  142.2410   72.0310  219.8070 C   0  0  0  0  0  0  0  0  0  0  0  0
  143.2490   71.8730  220.8930 C   0  0  0  0  0  0  0  0  0  0  0  0
  144.4820   72.6630  220.4310 C   0  0  0  0  0  0  0  0  0  0  0  0
  144.1550   74.1450  220.4150 C   0  0  0  0  0  0  0  0  0  0  0  0
  140.2356   78.3099  221.9658 H   0  0  0  0  0  0  0  0  0  0  0  0
  141.0999   77.9811  220.4258 H   0  0  0  0  0  0  0  0  0  0  0  0
  139.3172   78.2017  220.4258 H   0  0  0  0  0  0  0  0  0  0  0  0
  138.2283   75.9389  222.2303 H   0  0  0  0  0  0  0  0  0  0  0  0
  138.0198   76.4210  220.5110 H   0  0  0  0  0  0  0  0  0  0  0  0
  137.6714   74.1360  220.3867 H   0  0  0  0  0  0  0  0  0  0  0  0
  139.4523   74.2599  220.0595 H   0  0  0  0  0  0  0  0  0  0  0  0
  139.1130   73.8880  222.9020 H   0  0  0  0  0  0  0  0  0  0  0  0
  138.4149   69.5064  222.0149 H   0  0  0  0  0  0  0  0  0  0  0  0
  138.8771   68.0311  223.9416 H   0  0  0  0  0  0  0  0  0  0  0  0
  139.7915   67.7269  226.1774 H   0  0  0  0  0  0  0  0  0  0  0  0
  141.5569   71.1361  228.1170 H   0  0  0  0  0  0  0  0  0  0  0  0
  141.0666   72.5853  226.1583 H   0  0  0  0  0  0  0  0  0  0  0  0
  141.8325   76.1519  219.5465 H   0  0  0  0  0  0  0  0  0  0  0  0
  143.0104   76.1518  220.9955 H   0  0  0  0  0  0  0  0  0  0  0  0
  141.0032   73.6963  219.7827 H   0  0  0  0  0  0  0  0  0  0  0  0
  142.2385   73.4662  218.3775 H   0  0  0  0  0  0  0  0  0  0  0  0
  141.2872   71.5975  220.1423 H   0  0  0  0  0  0  0  0  0  0  0  0
  142.6214   71.5145  218.9134 H   0  0  0  0  0  0  0  0  0  0  0  0
  142.8626   72.2826  221.8379 H   0  0  0  0  0  0  0  0  0  0  0  0
  143.4885   70.8149  221.0749 H   0  0  0  0  0  0  0  0  0  0  0  0
  145.3164   72.4789  221.1237 H   0  0  0  0  0  0  0  0  0  0  0  0
  144.7677   72.3391  219.4193 H   0  0  0  0  0  0  0  0  0  0  0  0
  144.2607   74.5316  221.4394 H   0  0  0  0  0  0  0  0  0  0  0  0
  144.8536   74.6127  219.7056 H   0  0  0  0  0  0  0  0  0  0  0  0
  1  2  1  0
  2  3  1  0
  3  4  1  0
  4  5  1  0
  5  6  1  0
  6  7  2  0
  6  8  1  0
  8  9  2  0
  9 10  1  0
 10 11  2  0
 11 12  1  0
 12 13  2  0
 13 14  1  0
 13 15  1  0
 15 16  2  0
 16 17  1  0
 17 18  2  0
  2 19  1  0
 19 20  2  0
 19 21  1  0
 21 22  1  0
 22 23  1  0
 23 24  1  0
 24 25  1  0
 25 26  1  0
 26 27  1  0
 18  8  1  0
 27 22  1  0
 17 11  1  0
  1 28  1  0
  1 29  1  0
  1 30  1  0
  3 31  1  0
  3 32  1  0
  4 33  1  0
  4 34  1  0
  5 35  1  0
  9 36  1  0
 10 37  1  0
 12 38  1  0
 15 39  1  0
 16 40  1  0
 21 41  1  0
 21 42  1  0
 23 43  1  0
 23 44  1  0
 24 45  1  0
 24 46  1  0
 25 47  1  0
 25 48  1  0
 26 49  1  0
 26 50  1  0
 27 51  1  0
 27 52  1  0
M  END
>  <smiles>  (21) 
CN(CCNC(=O)c1ccc2cc(Cl)ccc2n1)C(=O)CN1CCCCC1

>  <score_type>  (21) 
oracle

>  <origin>  (21) 
autodockgpu

>  <m_score__min__energy>  (21) 
-7.9299999999999997

>  <m_primary>  (21) 
energy

>  <rmsd>  (21) 
8.59386200913438

>  <m_score__min__rmsd>  (21) 
8.59386200913438

>  <meeko>  (21) 
{"free_energy": -6.57, "intermolecular_energy": -8.66, "internal_energy": -2.44, "cluster_size": 3, "cluster_id": 4, "rank_in_cluster": 2}

>  <energy>  (21) 
-7.24

>  <cluster_rmsd>  (21) 
1.11

>  <cluster>  (21) 
1

$$$$

     RDKit          3D

 52 54  0  0  0  0  0  0  0  0999 V2000
  137.8580   71.1310  223.9760 C   0  0  0  0  0  0  0  0  0  0  0  0
  137.8540   69.8030  224.5710 N   0  0  0  0  0  0  0  0  0  0  0  0
  136.6220   69.3300  225.1790 C   0  0  0  0  0  0  0  0  0  0  0  0
  135.4470   69.7240  224.3180 C   0  0  0  0  0  0  0  0  0  0  0  0
  134.7750   70.9300  224.8240 N   0  0  0  0  0  0  0  0  0  0  0  0
  134.0100   70.8610  226.0230 C   0  0  0  0  0  0  0  0  0  0  0  0
  133.8830   69.7710  226.6780 O   0  0  0  0  0  0  0  0  0  0  0  0
  133.3670   72.0890  226.4870 C   0  0  0  0  0  0  0  0  0  0  0  0
  132.1610   72.0320  227.1600 C   0  0  0  0  0  0  0  0  0  0  0  0
  131.5170   73.1670  227.6180 C   0  0  0  0  0  0  0  0  0  0  0  0
  132.0960   74.4170  227.3980 C   0  0  0  0  0  0  0  0  0  0  0  0
  131.4680   75.5560  227.8500 C   0  0  0  0  0  0  0  0  0  0  0  0
  132.0960   76.7640  227.6030 C   0  0  0  0  0  0  0  0  0  0  0  0
  131.3960   78.2970  228.1300 Cl  0  0  0  0  0  0  0  0  0  0  0  0
  133.3020   76.7900  226.9270 C   0  0  0  0  0  0  0  0  0  0  0  0
  133.9310   75.6430  226.4730 C   0  0  0  0  0  0  0  0  0  0  0  0
  133.3040   74.4350  226.7210 C   0  0  0  0  0  0  0  0  0  0  0  0
  133.9100   73.3110  226.2850 N   0  0  0  0  0  0  0  0  0  0  0  0
  139.0380   68.9710  224.5580 C   0  0  0  0  0  0  0  0  0  0  0  0
  138.8430   67.7320  224.4870 O   0  0  0  0  0  0  0  0  0  0  0  0
  140.3230   69.6450  224.6280 C   0  0  0  0  0  0  0  0  0  0  0  0
  140.8040   70.0580  225.8980 N   0  0  0  0  0  0  0  0  0  0  0  0
  140.8300   69.0740  226.9010 C   0  0  0  0  0  0  0  0  0  0  0  0
  140.3740   69.3820  228.2670 C   0  0  0  0  0  0  0  0  0  0  0  0
  139.7020   70.7100  228.3460 C   0  0  0  0  0  0  0  0  0  0  0  0
  140.6790   71.7080  227.7080 C   0  0  0  0  0  0  0  0  0  0  0  0
  140.7970   71.4180  226.2230 C   0  0  0  0  0  0  0  0  0  0  0  0
  137.8603   71.8897  224.7725 H   0  0  0  0  0  0  0  0  0  0  0  0
  138.7565   71.2509  223.3529 H   0  0  0  0  0  0  0  0  0  0  0  0
  136.9602   71.2563  223.3529 H   0  0  0  0  0  0  0  0  0  0  0  0
  136.6568   68.2344  225.2714 H   0  0  0  0  0  0  0  0  0  0  0  0
  136.5109   69.7810  226.1761 H   0  0  0  0  0  0  0  0  0  0  0  0
  135.8046   69.9187  223.2961 H   0  0  0  0  0  0  0  0  0  0  0  0
  134.7210   68.8977  224.3340 H   0  0  0  0  0  0  0  0  0  0  0  0
  134.8470   71.8460  224.3210 H   0  0  0  0  0  0  0  0  0  0  0  0
  131.6976   71.0503  227.3374 H   0  0  0  0  0  0  0  0  0  0  0  0
  130.5579   73.0849  228.1504 H   0  0  0  0  0  0  0  0  0  0  0  0
  130.5079   75.5076  228.3847 H   0  0  0  0  0  0  0  0  0  0  0  0
  133.7817   77.7625  226.7422 H   0  0  0  0  0  0  0  0  0  0  0  0
  134.8903   75.6904  225.9369 H   0  0  0  0  0  0  0  0  0  0  0  0
  141.0722   68.9600  224.2043 H   0  0  0  0  0  0  0  0  0  0  0  0
  140.1628   70.5865  224.0821 H   0  0  0  0  0  0  0  0  0  0  0  0
  140.2066   68.2421  226.5415 H   0  0  0  0  0  0  0  0  0  0  0  0
  141.9060   68.8900  227.0368 H   0  0  0  0  0  0  0  0  0  0  0  0
  139.6642   68.6053  228.5879 H   0  0  0  0  0  0  0  0  0  0  0  0
  141.2575   69.4092  228.9217 H   0  0  0  0  0  0  0  0  0  0  0  0
  138.7530   70.6934  227.7900 H   0  0  0  0  0  0  0  0  0  0  0  0
  139.4627   70.9831  229.3843 H   0  0  0  0  0  0  0  0  0  0  0  0
  140.3047   72.7321  227.8534 H   0  0  0  0  0  0  0  0  0  0  0  0
  141.6669   71.6091  228.1815 H   0  0  0  0  0  0  0  0  0  0  0  0
  139.9446   71.8893  225.7118 H   0  0  0  0  0  0  0  0  0  0  0  0
  141.7679   71.8224  225.9008 H   0  0  0  0  0  0  0  0  0  0  0  0
  1  2  1  0
  2  3  1  0
  3  4  1  0
  4  5  1  0
  5  6  1  0
  6  7  2  0
  6  8  1  0
  8  9  2  0
  9 10  1  0
 10 11  2  0
 11 12  1  0
 12 13  2  0
 13 14  1  0
 13 15  1  0
 15 16  2  0
 16 17  1  0
 17 18  2  0
  2 19  1  0
 19 20  2  0
 19 21  1  0
 21 22  1  0
 22 23  1  0
 23 24  1  0
 24 25  1  0
 25 26  1  0
 26 27  1  0
 18  8  1  0
 27 22  1  0
 17 11  1  0
  1 28  1  0
  1 29  1  0
  1 30  1  0
  3 31  1  0
  3 32  1  0
  4 33  1  0
  4 34  1  0
  5 35  1  0
  9 36  1  0
 10 37  1  0
 12 38  1  0
 15 39  1  0
 16 40  1  0
 21 41  1  0
 21 42  1  0
 23 43  1  0
 23 44  1  0
 24 45  1  0
 24 46  1  0
 25 47  1  0
 25 48  1  0
 26 49  1  0
 26 50  1  0
 27 51  1  0
 27 52  1  0
M  END
>  <smiles>  (22) 
CN(CCNC(=O)c1ccc2cc(Cl)ccc2n1)C(=O)CN1CCCCC1

>  <score_type>  (22) 
oracle

>  <origin>  (22) 
autodockgpu

>  <m_score__min__energy>  (22) 
-7.9299999999999997

>  <m_primary>  (22) 
energy

>  <rmsd>  (22) 
9.513980356283618

>  <m_score__min__rmsd>  (22) 
9.513980356283618

>  <meeko>  (22) 
{"free_energy": -7.71, "intermolecular_energy": -9.79, "internal_energy": -1.44, "cluster_size": 3, "cluster_id": 2, "rank_in_cluster": 1}

>  <energy>  (22) 
-7.24

>  <cluster_rmsd>  (22) 
1.03

>  <cluster>  (22) 
1

$$$$

     RDKit          3D

 52 54  0  0  0  0  0  0  0  0999 V2000
  138.2760   69.2920  223.7060 C   0  0  0  0  0  0  0  0  0  0  0  0
  138.8250   70.5150  223.1390 N   0  0  0  0  0  0  0  0  0  0  0  0
  138.3930   70.9060  221.8080 C   0  0  0  0  0  0  0  0  0  0  0  0
  137.5840   72.1780  221.8890 C   0  0  0  0  0  0  0  0  0  0  0  0
  138.4280   73.3480  222.1720 N   0  0  0  0  0  0  0  0  0  0  0  0
  138.4180   74.4570  221.2780 C   0  0  0  0  0  0  0  0  0  0  0  0
  137.6940   74.4660  220.2250 O   0  0  0  0  0  0  0  0  0  0  0  0
  139.2710   75.5990  221.6070 C   0  0  0  0  0  0  0  0  0  0  0  0
  140.5770   75.6420  221.1600 C   0  0  0  0  0  0  0  0  0  0  0  0
  141.4200   76.7010  221.4450 C   0  0  0  0  0  0  0  0  0  0  0  0
  140.9430   77.7670  222.2100 C   0  0  0  0  0  0  0  0  0  0  0  0
  141.7700   78.8290  222.5000 C   0  0  0  0  0  0  0  0  0  0  0  0
  141.2360   79.8550  223.2600 C   0  0  0  0  0  0  0  0  0  0  0  0
  142.1890   81.2740  223.7010 Cl  0  0  0  0  0  0  0  0  0  0  0  0
  139.9250   79.7840  223.6930 C   0  0  0  0  0  0  0  0  0  0  0  0
  139.0960   78.7130  223.4000 C   0  0  0  0  0  0  0  0  0  0  0  0
  139.6300   77.6880  222.6400 C   0  0  0  0  0  0  0  0  0  0  0  0
  138.8300   76.6410  222.3460 N   0  0  0  0  0  0  0  0  0  0  0  0
  139.7710   71.3250  223.8760 C   0  0  0  0  0  0  0  0  0  0  0  0
  140.6350   71.9270  223.1910 O   0  0  0  0  0  0  0  0  0  0  0  0
  139.6300   71.3600  225.3210 C   0  0  0  0  0  0  0  0  0  0  0  0
  140.5100   70.5720  226.1080 N   0  0  0  0  0  0  0  0  0  0  0  0
  140.7390   69.2610  225.6570 C   0  0  0  0  0  0  0  0  0  0  0  0
  140.7500   68.1320  226.6030 C   0  0  0  0  0  0  0  0  0  0  0  0
  140.2690   68.5320  227.9560 C   0  0  0  0  0  0  0  0  0  0  0  0
  141.1020   69.7610  228.3460 C   0  0  0  0  0  0  0  0  0  0  0  0
  140.7360   70.9250  227.4420 C   0  0  0  0  0  0  0  0  0  0  0  0
  138.3031   69.3525  224.8040 H   0  0  0  0  0  0  0  0  0  0  0  0
  137.2356   69.1674  223.3712 H   0  0  0  0  0  0  0  0  0  0  0  0
  138.8744   68.4318  223.3712 H   0  0  0  0  0  0  0  0  0  0  0  0
  139.2746   71.0732  221.1718 H   0  0  0  0  0  0  0  0  0  0  0  0
  137.7727   70.1065  221.3767 H   0  0  0  0  0  0  0  0  0  0  0  0
  137.0700   72.3342  220.9291 H   0  0  0  0  0  0  0  0  0  0  0  0
  136.8627   72.0711  222.7126 H   0  0  0  0  0  0  0  0  0  0  0  0
  139.0400   73.3870  223.0210 H   0  0  0  0  0  0  0  0  0  0  0  0
  140.9599   74.8056  220.5568 H   0  0  0  0  0  0  0  0  0  0  0  0
  142.4551   76.7032  221.0729 H   0  0  0  0  0  0  0  0  0  0  0  0
  142.8100   78.8606  222.1431 H   0  0  0  0  0  0  0  0  0  0  0  0
  139.5232   80.6122  224.2952 H   0  0  0  0  0  0  0  0  0  0  0  0
  138.0561   78.6793  223.7571 H   0  0  0  0  0  0  0  0  0  0  0  0
  139.7628   72.4059  225.6347 H   0  0  0  0  0  0  0  0  0  0  0  0
  138.6386   70.9203  225.5049 H   0  0  0  0  0  0  0  0  0  0  0  0
  139.9562   69.0424  224.9158 H   0  0  0  0  0  0  0  0  0  0  0  0
  141.7818   69.2998  225.3090 H   0  0  0  0  0  0  0  0  0  0  0  0
  140.0966   67.3369  226.2146 H   0  0  0  0  0  0  0  0  0  0  0  0
  141.7880   67.7816  226.7015 H   0  0  0  0  0  0  0  0  0  0  0  0
  139.1998   68.7881  227.9228 H   0  0  0  0  0  0  0  0  0  0  0  0
  140.3828   67.7162  228.6851 H   0  0  0  0  0  0  0  0  0  0  0  0
  140.8934   70.0290  229.3922 H   0  0  0  0  0  0  0  0  0  0  0  0
  142.1718   69.5307  228.2341 H   0  0  0  0  0  0  0  0  0  0  0  0
  139.8199   71.3905  227.8345 H   0  0  0  0  0  0  0  0  0  0  0  0
  141.5988   71.6073  227.4441 H   0  0  0  0  0  0  0  0  0  0  0  0
  1  2  1  0
  2  3  1  0
  3  4  1  0
  4  5  1  0
  5  6  1  0
  6  7  2  0
  6  8  1  0
  8  9  2  0
  9 10  1  0
 10 11  2  0
 11 12  1  0
 12 13  2  0
 13 14  1  0
 13 15  1  0
 15 16  2  0
 16 17  1  0
 17 18  2  0
  2 19  1  0
 19 20  2  0
 19 21  1  0
 21 22  1  0
 22 23  1  0
 23 24  1  0
 24 25  1  0
 25 26  1  0
 26 27  1  0
 18  8  1  0
 27 22  1  0
 17 11  1  0
  1 28  1  0
  1 29  1  0
  1 30  1  0
  3 31  1  0
  3 32  1  0
  4 33  1  0
  4 34  1  0
  5 35  1  0
  9 36  1  0
 10 37  1  0
 12 38  1  0
 15 39  1  0
 16 40  1  0
 21 41  1  0
 21 42  1  0
 23 43  1  0
 23 44  1  0
 24 45  1  0
 24 46  1  0
 25 47  1  0
 25 48  1  0
 26 49  1  0
 26 50  1  0
 27 51  1  0
 27 52  1  0
M  END
>  <smiles>  (23) 
CN(CCNC(=O)c1ccc2cc(Cl)ccc2n1)C(=O)CN1CCCCC1

>  <score_type>  (23) 
oracle

>  <origin>  (23) 
autodockgpu

>  <m_score__min__energy>  (23) 
-7.9299999999999997

>  <m_primary>  (23) 
energy

>  <rmsd>  (23) 
5.60012592920518

>  <m_score__min__rmsd>  (23) 
5.60012592920518

>  <meeko>  (23) 
{"free_energy": -7.12, "intermolecular_energy": -9.21, "internal_energy": -1.7, "cluster_size": 16, "cluster_id": 3, "rank_in_cluster": 13}

>  <energy>  (23) 
-7.17

>  <cluster_rmsd>  (23) 
1.34

>  <cluster>  (23) 
1

$$$$

     RDKit          3D

 52 54  0  0  0  0  0  0  0  0999 V2000
  142.3010   74.7930  220.6630 C   0  0  0  0  0  0  0  0  0  0  0  0
  140.9450   75.3050  220.7920 N   0  0  0  0  0  0  0  0  0  0  0  0
  139.9170   74.7420  219.9340 C   0  0  0  0  0  0  0  0  0  0  0  0
  138.6780   74.4550  220.7480 C   0  0  0  0  0  0  0  0  0  0  0  0
  138.9610   73.5670  221.8850 N   0  0  0  0  0  0  0  0  0  0  0  0
  138.9260   72.1550  221.7040 C   0  0  0  0  0  0  0  0  0  0  0  0
  138.6500   71.6290  220.5730 O   0  0  0  0  0  0  0  0  0  0  0  0
  139.2220   71.3160  222.8650 C   0  0  0  0  0  0  0  0  0  0  0  0
  138.8750   69.9790  222.8620 C   0  0  0  0  0  0  0  0  0  0  0  0
  139.1350   69.1470  223.9370 C   0  0  0  0  0  0  0  0  0  0  0  0
  139.7680   69.6680  225.0660 C   0  0  0  0  0  0  0  0  0  0  0  0
  140.0350   68.8520  226.1420 C   0  0  0  0  0  0  0  0  0  0  0  0
  140.6680   69.4290  227.2310 C   0  0  0  0  0  0  0  0  0  0  0  0
  141.0680   68.4930  228.6730 Cl  0  0  0  0  0  0  0  0  0  0  0  0
  141.0030   70.7690  227.2040 C   0  0  0  0  0  0  0  0  0  0  0  0
  140.7320   71.5880  226.1190 C   0  0  0  0  0  0  0  0  0  0  0  0
  140.1000   71.0110  225.0320 C   0  0  0  0  0  0  0  0  0  0  0  0
  139.8330   71.8000  223.9690 N   0  0  0  0  0  0  0  0  0  0  0  0
  140.6230   76.3440  221.7470 C   0  0  0  0  0  0  0  0  0  0  0  0
  139.9060   75.9980  222.7190 O   0  0  0  0  0  0  0  0  0  0  0  0
  141.1560   77.6710  221.4890 C   0  0  0  0  0  0  0  0  0  0  0  0
  141.3190   78.5600  222.5830 N   0  0  0  0  0  0  0  0  0  0  0  0
  140.1400   79.1010  223.1230 C   0  0  0  0  0  0  0  0  0  0  0  0
  140.0610   80.5290  223.4760 C   0  0  0  0  0  0  0  0  0  0  0  0
  141.2390   81.2940  222.9760 C   0  0  0  0  0  0  0  0  0  0  0  0
  142.4730   80.5300  223.4780 C   0  0  0  0  0  0  0  0  0  0  0  0
  142.5540   79.1870  222.7770 C   0  0  0  0  0  0  0  0  0  0  0  0
  142.7287   74.6315  221.6635 H   0  0  0  0  0  0  0  0  0  0  0  0
  142.2824   73.8400  220.1140 H   0  0  0  0  0  0  0  0  0  0  0  0
  142.9169   75.5205  220.1140 H   0  0  0  0  0  0  0  0  0  0  0  0
  139.6729   75.4591  219.1364 H   0  0  0  0  0  0  0  0  0  0  0  0
  140.2857   73.8064  219.4883 H   0  0  0  0  0  0  0  0  0  0  0  0
  138.2761   75.4049  221.1304 H   0  0  0  0  0  0  0  0  0  0  0  0
  137.9510   73.9503  220.0948 H   0  0  0  0  0  0  0  0  0  0  0  0
  139.1910   73.9510  222.8330 H   0  0  0  0  0  0  0  0  0  0  0  0
  138.3753   69.5615  221.9754 H   0  0  0  0  0  0  0  0  0  0  0  0
  138.8457   68.0863  223.9017 H   0  0  0  0  0  0  0  0  0  0  0  0
  139.7577   67.7875  226.1374 H   0  0  0  0  0  0  0  0  0  0  0  0
  141.5059   71.2042  228.0802 H   0  0  0  0  0  0  0  0  0  0  0  0
  141.0080   72.6528  226.1222 H   0  0  0  0  0  0  0  0  0  0  0  0
  142.1458   77.5392  221.0275 H   0  0  0  0  0  0  0  0  0  0  0  0
  140.3897   78.1519  220.8633 H   0  0  0  0  0  0  0  0  0  0  0  0
  139.3432   78.9145  222.3879 H   0  0  0  0  0  0  0  0  0  0  0  0
  140.0665   78.6022  224.1006 H   0  0  0  0  0  0  0  0  0  0  0  0
  139.1478   80.9541  223.0339 H   0  0  0  0  0  0  0  0  0  0  0  0
  140.0458   80.6074  224.5731 H   0  0  0  0  0  0  0  0  0  0  0  0
  141.2328   81.3329  221.8767 H   0  0  0  0  0  0  0  0  0  0  0  0
  141.2307   82.3336  223.3354 H   0  0  0  0  0  0  0  0  0  0  0  0
  143.3797   81.1133  223.2595 H   0  0  0  0  0  0  0  0  0  0  0  0
  142.3915   80.3734  224.5637 H   0  0  0  0  0  0  0  0  0  0  0  0
  143.0200   79.3406  221.7925 H   0  0  0  0  0  0  0  0  0  0  0  0
  143.1414   78.5266  223.4318 H   0  0  0  0  0  0  0  0  0  0  0  0
  1  2  1  0
  2  3  1  0
  3  4  1  0
  4  5  1  0
  5  6  1  0
  6  7  2  0
  6  8  1  0
  8  9  2  0
  9 10  1  0
 10 11  2  0
 11 12  1  0
 12 13  2  0
 13 14  1  0
 13 15  1  0
 15 16  2  0
 16 17  1  0
 17 18  2  0
  2 19  1  0
 19 20  2  0
 19 21  1  0
 21 22  1  0
 22 23  1  0
 23 24  1  0
 24 25  1  0
 25 26  1  0
 26 27  1  0
 18  8  1  0
 27 22  1  0
 17 11  1  0
  1 28  1  0
  1 29  1  0
  1 30  1  0
  3 31  1  0
  3 32  1  0
  4 33  1  0
  4 34  1  0
  5 35  1  0
  9 36  1  0
 10 37  1  0
 12 38  1  0
 15 39  1  0
 16 40  1  0
 21 41  1  0
 21 42  1  0
 23 43  1  0
 23 44  1  0
 24 45  1  0
 24 46  1  0
 25 47  1  0
 25 48  1  0
 26 49  1  0
 26 50  1  0
 27 51  1  0
 27 52  1  0
M  END
>  <smiles>  (24) 
CN(CCNC(=O)c1ccc2cc(Cl)ccc2n1)C(=O)CN1CCCCC1

>  <score_type>  (24) 
oracle

>  <origin>  (24) 
autodockgpu

>  <m_score__min__energy>  (24) 
-7.9299999999999997

>  <m_primary>  (24) 
energy

>  <rmsd>  (24) 
9.622265742681053

>  <m_score__min__rmsd>  (24) 
9.622265742681053

>  <meeko>  (24) 
{"free_energy": -7.72, "intermolecular_energy": -9.81, "internal_energy": -1.94, "cluster_size": 28, "cluster_id": 1, "rank_in_cluster": 3}

>  <energy>  (24) 
-7.15

>  <cluster_rmsd>  (24) 
1.12

>  <cluster>  (24) 
1

$$$$

     RDKit          3D

 52 54  0  0  0  0  0  0  0  0999 V2000
  141.7480   74.7590  220.0000 C   0  0  0  0  0  0  0  0  0  0  0  0
  141.3660   76.0370  220.5820 N   0  0  0  0  0  0  0  0  0  0  0  0
  140.2250   76.0650  221.4800 C   0  0  0  0  0  0  0  0  0  0  0  0
  139.3630   74.8480  221.2450 C   0  0  0  0  0  0  0  0  0  0  0  0
  139.5130   73.8540  222.3180 N   0  0  0  0  0  0  0  0  0  0  0  0
  139.6340   72.4730  221.9890 C   0  0  0  0  0  0  0  0  0  0  0  0
  139.6130   72.0660  220.7780 O   0  0  0  0  0  0  0  0  0  0  0  0
  139.7870   71.5250  223.0920 C   0  0  0  0  0  0  0  0  0  0  0  0
  139.4140   70.2050  222.9300 C   0  0  0  0  0  0  0  0  0  0  0  0
  139.5410   69.2730  223.9450 C   0  0  0  0  0  0  0  0  0  0  0  0
  140.0620   69.6710  225.1770 C   0  0  0  0  0  0  0  0  0  0  0  0
  140.1960   68.7540  226.1950 C   0  0  0  0  0  0  0  0  0  0  0  0
  140.7220   69.2110  227.3910 C   0  0  0  0  0  0  0  0  0  0  0  0
  140.9470   68.1380  228.7750 Cl  0  0  0  0  0  0  0  0  0  0  0  0
  141.0860   70.5380  227.5230 C   0  0  0  0  0  0  0  0  0  0  0  0
  140.9490   71.4580  226.4960 C   0  0  0  0  0  0  0  0  0  0  0  0
  140.4240   71.0010  225.3010 C   0  0  0  0  0  0  0  0  0  0  0  0
  140.2880   71.8890  224.2930 N   0  0  0  0  0  0  0  0  0  0  0  0
  142.0990   77.2470  220.2810 C   0  0  0  0  0  0  0  0  0  0  0  0
  143.2030   77.0950  219.6990 O   0  0  0  0  0  0  0  0  0  0  0  0
  141.4930   78.5060  220.6780 C   0  0  0  0  0  0  0  0  0  0  0  0
  141.5390   78.8790  222.0470 N   0  0  0  0  0  0  0  0  0  0  0  0
  140.3010   79.1360  222.6600 C   0  0  0  0  0  0  0  0  0  0  0  0
  140.1310   80.2980  223.5500 C   0  0  0  0  0  0  0  0  0  0  0  0
  141.3030   81.2180  223.4990 C   0  0  0  0  0  0  0  0  0  0  0  0
  142.5340   80.3350  223.7500 C   0  0  0  0  0  0  0  0  0  0  0  0
  142.7260   79.3920  222.5760 C   0  0  0  0  0  0  0  0  0  0  0  0
  141.9630   74.0396  220.8039 H   0  0  0  0  0  0  0  0  0  0  0  0
  140.9243   74.3785  219.3781 H   0  0  0  0  0  0  0  0  0  0  0  0
  142.6454   74.8929  219.3781 H   0  0  0  0  0  0  0  0  0  0  0  0
  140.5792   76.0667  222.5214 H   0  0  0  0  0  0  0  0  0  0  0  0
  139.6336   76.9728  221.2897 H   0  0  0  0  0  0  0  0  0  0  0  0
  138.3100   75.1622  221.1961 H   0  0  0  0  0  0  0  0  0  0  0  0
  139.6821   74.3815  220.3013 H   0  0  0  0  0  0  0  0  0  0  0  0
  139.5340   74.1380  223.3260 H   0  0  0  0  0  0  0  0  0  0  0  0
  139.0022   69.8839  221.9618 H   0  0  0  0  0  0  0  0  0  0  0  0
  139.2344   68.2292  223.7824 H   0  0  0  0  0  0  0  0  0  0  0  0
  139.8979   67.7033  226.0636 H   0  0  0  0  0  0  0  0  0  0  0  0
  141.5016   70.8777  228.4831 H   0  0  0  0  0  0  0  0  0  0  0  0
  141.2458   72.5092  226.6259 H   0  0  0  0  0  0  0  0  0  0  0  0
  141.9947   79.3017  220.1078 H   0  0  0  0  0  0  0  0  0  0  0  0
  140.4214   78.3648  220.4737 H   0  0  0  0  0  0  0  0  0  0  0  0
  139.5663   79.2505  221.8493 H   0  0  0  0  0  0  0  0  0  0  0  0
  140.1834   78.2828  223.3442 H   0  0  0  0  0  0  0  0  0  0  0  0
  139.2315   80.8517  223.2429 H   0  0  0  0  0  0  0  0  0  0  0  0
  140.0369   79.9252  224.5806 H   0  0  0  0  0  0  0  0  0  0  0  0
  141.3706   81.6990  222.5121 H   0  0  0  0  0  0  0  0  0  0  0  0
  141.2210   82.0226  224.2446 H   0  0  0  0  0  0  0  0  0  0  0  0
  143.4252   80.9704  223.8599 H   0  0  0  0  0  0  0  0  0  0  0  0
  142.3856   79.7507  224.6701 H   0  0  0  0  0  0  0  0  0  0  0  0
  143.2502   79.9384  221.7781 H   0  0  0  0  0  0  0  0  0  0  0  0
  143.2981   78.5321  222.9546 H   0  0  0  0  0  0  0  0  0  0  0  0
  1  2  1  0
  2  3  1  0
  3  4  1  0
  4  5  1  0
  5  6  1  0
  6  7  2  0
  6  8  1  0
  8  9  2  0
  9 10  1  0
 10 11  2  0
 11 12  1  0
 12 13  2  0
 13 14  1  0
 13 15  1  0
 15 16  2  0
 16 17  1  0
 17 18  2  0
  2 19  1  0
 19 20  2  0
 19 21  1  0
 21 22  1  0
 22 23  1  0
 23 24  1  0
 24 25  1  0
 25 26  1  0
 26 27  1  0
 18  8  1  0
 27 22  1  0
 17 11  1  0
  1 28  1  0
  1 29  1  0
  1 30  1  0
  3 31  1  0
  3 32  1  0
  4 33  1  0
  4 34  1  0
  5 35  1  0
  9 36  1  0
 10 37  1  0
 12 38  1  0
 15 39  1  0
 16 40  1  0
 21 41  1  0
 21 42  1  0
 23 43  1  0
 23 44  1  0
 24 45  1  0
 24 46  1  0
 25 47  1  0
 25 48  1  0
 26 49  1  0
 26 50  1  0
 27 51  1  0
 27 52  1  0
M  END
>  <smiles>  (25) 
CN(CCNC(=O)c1ccc2cc(Cl)ccc2n1)C(=O)CN1CCCCC1

>  <score_type>  (25) 
oracle

>  <origin>  (25) 
autodockgpu

>  <m_score__min__energy>  (25) 
-7.9299999999999997

>  <m_primary>  (25) 
energy

>  <rmsd>  (25) 
9.638012274415944

>  <m_score__min__rmsd>  (25) 
9.638012274415944

>  <meeko>  (25) 
{"free_energy": -7.6, "intermolecular_energy": -9.69, "internal_energy": -1.26, "cluster_size": 28, "cluster_id": 1, "rank_in_cluster": 5}

>  <energy>  (25) 
-6.96

>  <cluster_rmsd>  (25) 
1.0

>  <cluster>  (25) 
1

$$$$

     RDKit          3D

 52 54  0  0  0  0  0  0  0  0999 V2000
  139.7060   76.2720  218.7350 C   0  0  0  0  0  0  0  0  0  0  0  0
  139.8260   75.4140  219.9050 N   0  0  0  0  0  0  0  0  0  0  0  0
  139.1210   74.1440  219.8960 C   0  0  0  0  0  0  0  0  0  0  0  0
  138.1060   74.1190  221.0140 C   0  0  0  0  0  0  0  0  0  0  0  0
  138.5240   73.2410  222.1160 N   0  0  0  0  0  0  0  0  0  0  0  0
  138.1130   71.8770  222.1260 C   0  0  0  0  0  0  0  0  0  0  0  0
  137.3810   71.3890  221.2000 O   0  0  0  0  0  0  0  0  0  0  0  0
  138.5610   71.0440  223.2410 C   0  0  0  0  0  0  0  0  0  0  0  0
  138.1640   69.7230  223.3250 C   0  0  0  0  0  0  0  0  0  0  0  0
  138.5640   68.8970  224.3600 C   0  0  0  0  0  0  0  0  0  0  0  0
  139.3950   69.4060  225.3590 C   0  0  0  0  0  0  0  0  0  0  0  0
  139.8020   68.5950  226.3940 C   0  0  0  0  0  0  0  0  0  0  0  0
  140.6280   69.1600  227.3510 C   0  0  0  0  0  0  0  0  0  0  0  0
  141.2210   68.2290  228.7290 Cl  0  0  0  0  0  0  0  0  0  0  0  0
  141.0070   70.4840  227.2410 C   0  0  0  0  0  0  0  0  0  0  0  0
  140.5950   71.2970  226.1980 C   0  0  0  0  0  0  0  0  0  0  0  0
  139.7710   70.7330  225.2420 C   0  0  0  0  0  0  0  0  0  0  0  0
  139.3650   71.5160  224.2200 N   0  0  0  0  0  0  0  0  0  0  0  0
  140.6260   75.8070  221.0440 C   0  0  0  0  0  0  0  0  0  0  0  0
  140.5290   75.0810  222.0650 O   0  0  0  0  0  0  0  0  0  0  0  0
  141.4540   76.9920  220.8970 C   0  0  0  0  0  0  0  0  0  0  0  0
  141.1600   78.1290  221.6940 N   0  0  0  0  0  0  0  0  0  0  0  0
  141.4040   79.3800  221.1030 C   0  0  0  0  0  0  0  0  0  0  0  0
  142.0540   80.4580  221.8680 C   0  0  0  0  0  0  0  0  0  0  0  0
  142.5950   79.9720  223.1690 C   0  0  0  0  0  0  0  0  0  0  0  0
  141.4290   79.2490  223.8590 C   0  0  0  0  0  0  0  0  0  0  0  0
  141.0880   77.9890  223.0830 C   0  0  0  0  0  0  0  0  0  0  0  0
  139.5603   77.3135  219.0575 H   0  0  0  0  0  0  0  0  0  0  0  0
  140.6230   76.1998  218.1317 H   0  0  0  0  0  0  0  0  0  0  0  0
  138.8440   75.9510  218.1317 H   0  0  0  0  0  0  0  0  0  0  0  0
  138.6066   74.0179  218.9319 H   0  0  0  0  0  0  0  0  0  0  0  0
  139.8418   73.3255  220.0392 H   0  0  0  0  0  0  0  0  0  0  0  0
  137.9794   75.1405  221.4020 H   0  0  0  0  0  0  0  0  0  0  0  0
  137.1614   73.7286  220.6074 H   0  0  0  0  0  0  0  0  0  0  0  0
  139.1230   73.5950  222.8990 H   0  0  0  0  0  0  0  0  0  0  0  0
  137.5077   69.3145  222.5424 H   0  0  0  0  0  0  0  0  0  0  0  0
  138.2304   67.8494  224.3953 H   0  0  0  0  0  0  0  0  0  0  0  0
  139.4848   67.5437  226.4581 H   0  0  0  0  0  0  0  0  0  0  0  0
  141.6633   70.9103  228.0140 H   0  0  0  0  0  0  0  0  0  0  0  0
  140.9107   72.3487  226.1330 H   0  0  0  0  0  0  0  0  0  0  0  0
  142.4884   76.6951  221.1246 H   0  0  0  0  0  0  0  0  0  0  0  0
  141.2606   77.3285  219.8678 H   0  0  0  0  0  0  0  0  0  0  0  0
  142.0366   79.1938  220.2225 H   0  0  0  0  0  0  0  0  0  0  0  0
  140.3909   79.7742  220.9352 H   0  0  0  0  0  0  0  0  0  0  0  0
  142.8814   80.8683  221.2705 H   0  0  0  0  0  0  0  0  0  0  0  0
  141.2971   81.2272  222.0810 H   0  0  0  0  0  0  0  0  0  0  0  0
  143.4316   79.2777  223.0013 H   0  0  0  0  0  0  0  0  0  0  0  0
  142.9806   80.7992  223.7831 H   0  0  0  0  0  0  0  0  0  0  0  0
  141.7192   78.9807  224.8855 H   0  0  0  0  0  0  0  0  0  0  0  0
  140.5514   79.9115  223.8888 H   0  0  0  0  0  0  0  0  0  0  0  0
  141.7897   77.1979  223.3859 H   0  0  0  0  0  0  0  0  0  0  0  0
  140.0414   77.7477  223.3204 H   0  0  0  0  0  0  0  0  0  0  0  0
  1  2  1  0
  2  3  1  0
  3  4  1  0
  4  5  1  0
  5  6  1  0
  6  7  2  0
  6  8  1  0
  8  9  2  0
  9 10  1  0
 10 11  2  0
 11 12  1  0
 12 13  2  0
 13 14  1  0
 13 15  1  0
 15 16  2  0
 16 17  1  0
 17 18  2  0
  2 19  1  0
 19 20  2  0
 19 21  1  0
 21 22  1  0
 22 23  1  0
 23 24  1  0
 24 25  1  0
 25 26  1  0
 26 27  1  0
 18  8  1  0
 27 22  1  0
 17 11  1  0
  1 28  1  0
  1 29  1  0
  1 30  1  0
  3 31  1  0
  3 32  1  0
  4 33  1  0
  4 34  1  0
  5 35  1  0
  9 36  1  0
 10 37  1  0
 12 38  1  0
 15 39  1  0
 16 40  1  0
 21 41  1  0
 21 42  1  0
 23 43  1  0
 23 44  1  0
 24 45  1  0
 24 46  1  0
 25 47  1  0
 25 48  1  0
 26 49  1  0
 26 50  1  0
 27 51  1  0
 27 52  1  0
M  END
>  <smiles>  (26) 
CN(CCNC(=O)c1ccc2cc(Cl)ccc2n1)C(=O)CN1CCCCC1

>  <score_type>  (26) 
oracle

>  <origin>  (26) 
autodockgpu

>  <m_score__min__energy>  (26) 
-7.9299999999999997

>  <m_primary>  (26) 
energy

>  <rmsd>  (26) 
9.496972831471002

>  <m_score__min__rmsd>  (26) 
9.496972831471002

>  <meeko>  (26) 
{"free_energy": -7.35, "intermolecular_energy": -9.43, "internal_energy": -1.86, "cluster_size": 28, "cluster_id": 1, "rank_in_cluster": 15}

>  <energy>  (26) 
-6.95

>  <cluster_rmsd>  (26) 
1.02

>  <cluster>  (26) 
1

$$$$

     RDKit          3D

 52 54  0  0  0  0  0  0  0  0999 V2000
  138.3180   78.0460  220.3570 C   0  0  0  0  0  0  0  0  0  0  0  0
  138.6180   76.9400  221.2540 N   0  0  0  0  0  0  0  0  0  0  0  0
  138.0140   75.6490  220.9730 C   0  0  0  0  0  0  0  0  0  0  0  0
  139.0950   74.6250  220.7240 C   0  0  0  0  0  0  0  0  0  0  0  0
  139.2700   73.7220  221.8700 N   0  0  0  0  0  0  0  0  0  0  0  0
  139.3320   72.3150  221.6570 C   0  0  0  0  0  0  0  0  0  0  0  0
  139.2350   71.8070  220.4880 O   0  0  0  0  0  0  0  0  0  0  0  0
  139.5130   71.4600  222.8290 C   0  0  0  0  0  0  0  0  0  0  0  0
  139.0560   70.1560  222.8160 C   0  0  0  0  0  0  0  0  0  0  0  0
  139.2060   69.3110  223.9010 C   0  0  0  0  0  0  0  0  0  0  0  0
  139.8390   69.7820  225.0510 C   0  0  0  0  0  0  0  0  0  0  0  0
  139.9970   68.9510  226.1380 C   0  0  0  0  0  0  0  0  0  0  0  0
  140.6360   69.4780  227.2480 C   0  0  0  0  0  0  0  0  0  0  0  0
  140.9020   68.5180  228.7060 Cl  0  0  0  0  0  0  0  0  0  0  0  0
  141.0820   70.7860  227.2310 C   0  0  0  0  0  0  0  0  0  0  0  0
  140.9210   71.6190  226.1360 C   0  0  0  0  0  0  0  0  0  0  0  0
  140.2830   71.0920  225.0280 C   0  0  0  0  0  0  0  0  0  0  0  0
  140.1230   71.8950  223.9540 N   0  0  0  0  0  0  0  0  0  0  0  0
  139.4950   77.1130  222.3910 C   0  0  0  0  0  0  0  0  0  0  0  0
  140.1840   76.1140  222.7160 O   0  0  0  0  0  0  0  0  0  0  0  0
  139.4930   78.4140  223.0390 C   0  0  0  0  0  0  0  0  0  0  0  0
  140.4500   79.3780  222.6270 N   0  0  0  0  0  0  0  0  0  0  0  0
  141.7500   78.8990  222.3910 C   0  0  0  0  0  0  0  0  0  0  0  0
  142.9250   79.6440  222.8760 C   0  0  0  0  0  0  0  0  0  0  0  0
  142.5430   80.7530  223.7950 C   0  0  0  0  0  0  0  0  0  0  0  0
  141.4780   81.5650  223.0450 C   0  0  0  0  0  0  0  0  0  0  0  0
  140.2190   80.7300  222.8980 C   0  0  0  0  0  0  0  0  0  0  0  0
  138.0751   78.9416  220.9476 H   0  0  0  0  0  0  0  0  0  0  0  0
  139.1929   78.2513  219.7227 H   0  0  0  0  0  0  0  0  0  0  0  0
  137.4593   77.7811  219.7227 H   0  0  0  0  0  0  0  0  0  0  0  0
  137.4045   75.3354  221.8333 H   0  0  0  0  0  0  0  0  0  0  0  0
  137.3774   75.7313  220.0797 H   0  0  0  0  0  0  0  0  0  0  0  0
  138.8234   74.0291  219.8402 H   0  0  0  0  0  0  0  0  0  0  0  0
  140.0422   75.1614  220.5654 H   0  0  0  0  0  0  0  0  0  0  0  0
  139.3530   74.0900  222.8480 H   0  0  0  0  0  0  0  0  0  0  0  0
  138.5561   69.7771  221.9124 H   0  0  0  0  0  0  0  0  0  0  0  0
  138.8299   68.2782  223.8572 H   0  0  0  0  0  0  0  0  0  0  0  0
  139.6314   67.9136  226.1251 H   0  0  0  0  0  0  0  0  0  0  0  0
  141.5861   71.1823  228.1248 H   0  0  0  0  0  0  0  0  0  0  0  0
  141.2856   72.6568  226.1473 H   0  0  0  0  0  0  0  0  0  0  0  0
  138.4982   78.8551  222.8785 H   0  0  0  0  0  0  0  0  0  0  0  0
  139.7637   78.1952  224.0825 H   0  0  0  0  0  0  0  0  0  0  0  0
  141.8033   77.8982  222.8443 H   0  0  0  0  0  0  0  0  0  0  0  0
  141.8451   78.9752  221.2978 H   0  0  0  0  0  0  0  0  0  0  0  0
  143.5883   78.9502  223.4133 H   0  0  0  0  0  0  0  0  0  0  0  0
  143.4314   80.0844  222.0044 H   0  0  0  0  0  0  0  0  0  0  0  0
  142.1294   80.3501  224.7313 H   0  0  0  0  0  0  0  0  0  0  0  0
  143.4103   81.3730  224.0660 H   0  0  0  0  0  0  0  0  0  0  0  0
  141.2478   82.4797  223.6109 H   0  0  0  0  0  0  0  0  0  0  0  0
  141.8571   81.8371  222.0489 H   0  0  0  0  0  0  0  0  0  0  0  0
  139.6484   80.8001  223.8358 H   0  0  0  0  0  0  0  0  0  0  0  0
  139.6738   81.1345  222.0325 H   0  0  0  0  0  0  0  0  0  0  0  0
  1  2  1  0
  2  3  1  0
  3  4  1  0
  4  5  1  0
  5  6  1  0
  6  7  2  0
  6  8  1  0
  8  9  2  0
  9 10  1  0
 10 11  2  0
 11 12  1  0
 12 13  2  0
 13 14  1  0
 13 15  1  0
 15 16  2  0
 16 17  1  0
 17 18  2  0
  2 19  1  0
 19 20  2  0
 19 21  1  0
 21 22  1  0
 22 23  1  0
 23 24  1  0
 24 25  1  0
 25 26  1  0
 26 27  1  0
 18  8  1  0
 27 22  1  0
 17 11  1  0
  1 28  1  0
  1 29  1  0
  1 30  1  0
  3 31  1  0
  3 32  1  0
  4 33  1  0
  4 34  1  0
  5 35  1  0
  9 36  1  0
 10 37  1  0
 12 38  1  0
 15 39  1  0
 16 40  1  0
 21 41  1  0
 21 42  1  0
 23 43  1  0
 23 44  1  0
 24 45  1  0
 24 46  1  0
 25 47  1  0
 25 48  1  0
 26 49  1  0
 26 50  1  0
 27 51  1  0
 27 52  1  0
M  END
>  <smiles>  (27) 
CN(CCNC(=O)c1ccc2cc(Cl)ccc2n1)C(=O)CN1CCCCC1

>  <score_type>  (27) 
oracle

>  <origin>  (27) 
autodockgpu

>  <m_score__min__energy>  (27) 
-7.9299999999999997

>  <m_primary>  (27) 
energy

>  <rmsd>  (27) 
9.719379167531603

>  <m_score__min__rmsd>  (27) 
9.719379167531603

>  <meeko>  (27) 
{"free_energy": -7.44, "intermolecular_energy": -9.53, "internal_energy": -1.73, "cluster_size": 28, "cluster_id": 1, "rank_in_cluster": 10}

>  <energy>  (27) 
-6.95

>  <cluster_rmsd>  (27) 
1.38

>  <cluster>  (27) 
1

$$$$

     RDKit          3D

 52 54  0  0  0  0  0  0  0  0999 V2000
  139.2420   69.6860  221.5740 C   0  0  0  0  0  0  0  0  0  0  0  0
  139.1010   71.0840  221.9510 N   0  0  0  0  0  0  0  0  0  0  0  0
  138.4070   71.9720  221.0360 C   0  0  0  0  0  0  0  0  0  0  0  0
  137.4620   72.8610  221.8080 C   0  0  0  0  0  0  0  0  0  0  0  0
  138.0910   74.1350  222.1860 N   0  0  0  0  0  0  0  0  0  0  0  0
  137.4730   75.3640  221.8170 C   0  0  0  0  0  0  0  0  0  0  0  0
  136.3790   75.3950  221.1580 O   0  0  0  0  0  0  0  0  0  0  0  0
  138.1360   76.6030  222.2210 C   0  0  0  0  0  0  0  0  0  0  0  0
  137.3920   77.7390  222.4720 C   0  0  0  0  0  0  0  0  0  0  0  0
  137.9760   78.9330  222.8580 C   0  0  0  0  0  0  0  0  0  0  0  0
  139.3620   79.0010  223.0010 C   0  0  0  0  0  0  0  0  0  0  0  0
  139.9570   80.1810  223.3860 C   0  0  0  0  0  0  0  0  0  0  0  0
  141.3360   80.1820  223.5130 C   0  0  0  0  0  0  0  0  0  0  0  0
  142.2210   81.6290  224.0010 Cl  0  0  0  0  0  0  0  0  0  0  0  0
  142.0530   79.0290  223.2560 C   0  0  0  0  0  0  0  0  0  0  0  0
  141.4510   77.8430  222.8680 C   0  0  0  0  0  0  0  0  0  0  0  0
  140.0740   77.8420  222.7420 C   0  0  0  0  0  0  0  0  0  0  0  0
  139.4780   76.6910  222.3660 N   0  0  0  0  0  0  0  0  0  0  0  0
  139.6330   71.5810  223.2020 C   0  0  0  0  0  0  0  0  0  0  0  0
  140.3620   72.6020  223.1260 O   0  0  0  0  0  0  0  0  0  0  0  0
  139.2750   70.8570  224.4090 C   0  0  0  0  0  0  0  0  0  0  0  0
  140.2530   70.7120  225.4280 N   0  0  0  0  0  0  0  0  0  0  0  0
  140.4030   69.4220  225.9640 C   0  0  0  0  0  0  0  0  0  0  0  0
  140.5410   69.2230  227.4170 C   0  0  0  0  0  0  0  0  0  0  0  0
  140.2630   70.4720  228.1810 C   0  0  0  0  0  0  0  0  0  0  0  0
  141.1540   71.5510  227.5480 C   0  0  0  0  0  0  0  0  0  0  0  0
  140.6720   71.8400  226.1390 C   0  0  0  0  0  0  0  0  0  0  0  0
  139.3045   69.0662  222.4807 H   0  0  0  0  0  0  0  0  0  0  0  0
  138.3704   69.3772  220.9782 H   0  0  0  0  0  0  0  0  0  0  0  0
  140.1577   69.5575  220.9782 H   0  0  0  0  0  0  0  0  0  0  0  0
  139.1410   72.5942  220.5030 H   0  0  0  0  0  0  0  0  0  0  0  0
  137.8345   71.3738  220.3118 H   0  0  0  0  0  0  0  0  0  0  0  0
  136.5815   73.0711  221.1831 H   0  0  0  0  0  0  0  0  0  0  0  0
  137.1777   72.3348  222.7312 H   0  0  0  0  0  0  0  0  0  0  0  0
  138.9900   74.1610  222.7240 H   0  0  0  0  0  0  0  0  0  0  0  0
  136.2985   77.6934  222.3615 H   0  0  0  0  0  0  0  0  0  0  0  0
  137.3535   79.8194  223.0501 H   0  0  0  0  0  0  0  0  0  0  0  0
  139.3623   81.0849  223.5844 H   0  0  0  0  0  0  0  0  0  0  0  0
  143.1474   79.0538  223.3640 H   0  0  0  0  0  0  0  0  0  0  0  0
  142.0445   76.9387  222.6682 H   0  0  0  0  0  0  0  0  0  0  0  0
  138.4149   71.3768  224.8562 H   0  0  0  0  0  0  0  0  0  0  0  0
  139.0935   69.8290  224.0622 H   0  0  0  0  0  0  0  0  0  0  0  0
  139.5193   68.8468  225.6506 H   0  0  0  0  0  0  0  0  0  0  0  0
  141.3849   69.1091  225.5792 H   0  0  0  0  0  0  0  0  0  0  0  0
  139.8322   68.4454  227.7378 H   0  0  0  0  0  0  0  0  0  0  0  0
  141.5796   68.9239  227.6216 H   0  0  0  0  0  0  0  0  0  0  0  0
  139.2022   70.7489  228.0912 H   0  0  0  0  0  0  0  0  0  0  0  0
  140.4737   70.3482  229.2535 H   0  0  0  0  0  0  0  0  0  0  0  0
  141.1008   72.4703  228.1498 H   0  0  0  0  0  0  0  0  0  0  0  0
  142.1943   71.1952  227.5146 H   0  0  0  0  0  0  0  0  0  0  0  0
  139.8262   72.5405  226.2019 H   0  0  0  0  0  0  0  0  0  0  0  0
  141.5323   72.2533  225.5922 H   0  0  0  0  0  0  0  0  0  0  0  0
  1  2  1  0
  2  3  1  0
  3  4  1  0
  4  5  1  0
  5  6  1  0
  6  7  2  0
  6  8  1  0
  8  9  2  0
  9 10  1  0
 10 11  2  0
 11 12  1  0
 12 13  2  0
 13 14  1  0
 13 15  1  0
 15 16  2  0
 16 17  1  0
 17 18  2  0
  2 19  1  0
 19 20  2  0
 19 21  1  0
 21 22  1  0
 22 23  1  0
 23 24  1  0
 24 25  1  0
 25 26  1  0
 26 27  1  0
 18  8  1  0
 27 22  1  0
 17 11  1  0
  1 28  1  0
  1 29  1  0
  1 30  1  0
  3 31  1  0
  3 32  1  0
  4 33  1  0
  4 34  1  0
  5 35  1  0
  9 36  1  0
 10 37  1  0
 12 38  1  0
 15 39  1  0
 16 40  1  0
 21 41  1  0
 21 42  1  0
 23 43  1  0
 23 44  1  0
 24 45  1  0
 24 46  1  0
 25 47  1  0
 25 48  1  0
 26 49  1  0
 26 50  1  0
 27 51  1  0
 27 52  1  0
M  END
>  <smiles>  (28) 
CN(CCNC(=O)c1ccc2cc(Cl)ccc2n1)C(=O)CN1CCCCC1

>  <score_type>  (28) 
oracle

>  <origin>  (28) 
autodockgpu

>  <m_score__min__energy>  (28) 
-7.9299999999999997

>  <m_primary>  (28) 
energy

>  <rmsd>  (28) 
4.989149141067988

>  <m_score__min__rmsd>  (28) 
4.989149141067988

>  <meeko>  (28) 
{"free_energy": -7.31, "intermolecular_energy": -9.4, "internal_energy": -1.9, "cluster_size": 16, "cluster_id": 3, "rank_in_cluster": 9}

>  <energy>  (28) 
-6.93

>  <cluster_rmsd>  (28) 
1.1

>  <cluster>  (28) 
1

$$$$

     RDKit          3D

 52 54  0  0  0  0  0  0  0  0999 V2000
  137.5590   70.9210  223.8400 C   0  0  0  0  0  0  0  0  0  0  0  0
  138.4840   71.6510  222.9850 N   0  0  0  0  0  0  0  0  0  0  0  0
  138.0050   72.1020  221.6900 C   0  0  0  0  0  0  0  0  0  0  0  0
  137.0890   73.2870  221.8720 C   0  0  0  0  0  0  0  0  0  0  0  0
  137.8280   74.4990  222.2570 N   0  0  0  0  0  0  0  0  0  0  0  0
  137.2690   75.7810  221.9910 C   0  0  0  0  0  0  0  0  0  0  0  0
  136.1350   75.9140  221.4170 O   0  0  0  0  0  0  0  0  0  0  0  0
  138.0400   76.9540  222.3990 C   0  0  0  0  0  0  0  0  0  0  0  0
  137.3970   78.1410  222.6940 C   0  0  0  0  0  0  0  0  0  0  0  0
  138.0860   79.2750  223.0850 C   0  0  0  0  0  0  0  0  0  0  0  0
  139.4760   79.2290  223.1890 C   0  0  0  0  0  0  0  0  0  0  0  0
  140.1750   80.3490  223.5790 C   0  0  0  0  0  0  0  0  0  0  0  0
  141.5520   80.2370  223.6660 C   0  0  0  0  0  0  0  0  0  0  0  0
  142.5640   81.5980  224.1550 Cl  0  0  0  0  0  0  0  0  0  0  0  0
  142.1670   79.0360  223.3650 C   0  0  0  0  0  0  0  0  0  0  0  0
  141.4610   77.9110  222.9720 C   0  0  0  0  0  0  0  0  0  0  0  0
  140.0850   78.0230  222.8860 C   0  0  0  0  0  0  0  0  0  0  0  0
  139.3880   76.9320  222.5060 N   0  0  0  0  0  0  0  0  0  0  0  0
  139.8400   71.9240  223.4080 C   0  0  0  0  0  0  0  0  0  0  0  0
  140.3450   72.9960  222.9890 O   0  0  0  0  0  0  0  0  0  0  0  0
  140.4780   70.9420  224.2670 C   0  0  0  0  0  0  0  0  0  0  0  0
  140.0490   70.8410  225.6170 N   0  0  0  0  0  0  0  0  0  0  0  0
  140.6020   71.7710  226.5140 C   0  0  0  0  0  0  0  0  0  0  0  0
  141.0630   71.3460  227.8470 C   0  0  0  0  0  0  0  0  0  0  0  0
  141.0850   69.8620  227.9840 C   0  0  0  0  0  0  0  0  0  0  0  0
  139.6890   69.3860  227.5570 C   0  0  0  0  0  0  0  0  0  0  0  0
  139.5020   69.6380  226.0720 C   0  0  0  0  0  0  0  0  0  0  0  0
  137.8041   71.1145  224.8947 H   0  0  0  0  0  0  0  0  0  0  0  0
  136.5306   71.2535  223.6356 H   0  0  0  0  0  0  0  0  0  0  0  0
  137.6434   69.8434  223.6356 H   0  0  0  0  0  0  0  0  0  0  0  0
  138.8615   72.3944  221.0647 H   0  0  0  0  0  0  0  0  0  0  0  0
  137.4527   71.2859  221.2011 H   0  0  0  0  0  0  0  0  0  0  0  0
  136.5622   73.4777  220.9254 H   0  0  0  0  0  0  0  0  0  0  0  0
  136.3811   73.0491  222.6796 H   0  0  0  0  0  0  0  0  0  0  0  0
  138.7620   74.4410  222.7280 H   0  0  0  0  0  0  0  0  0  0  0  0
  136.3007   78.1857  222.6153 H   0  0  0  0  0  0  0  0  0  0  0  0
  137.5427   80.2042  223.3118 H   0  0  0  0  0  0  0  0  0  0  0  0
  139.6609   81.2932  223.8117 H   0  0  0  0  0  0  0  0  0  0  0  0
  143.2625   78.9711  223.4408 H   0  0  0  0  0  0  0  0  0  0  0  0
  141.9739   76.9665  222.7377 H   0  0  0  0  0  0  0  0  0  0  0  0
  140.3245   69.9565  223.8031 H   0  0  0  0  0  0  0  0  0  0  0  0
  141.5202   71.2861  224.3410 H   0  0  0  0  0  0  0  0  0  0  0  0
  141.4710   72.2173  226.0083 H   0  0  0  0  0  0  0  0  0  0  0  0
  139.7491   72.4257  226.7461 H   0  0  0  0  0  0  0  0  0  0  0  0
  142.0796   71.7328  228.0111 H   0  0  0  0  0  0  0  0  0  0  0  0
  140.3598   71.7454  228.5927 H   0  0  0  0  0  0  0  0  0  0  0  0
  141.8553   69.4276  227.3299 H   0  0  0  0  0  0  0  0  0  0  0  0
  141.3234   69.5521  229.0122 H   0  0  0  0  0  0  0  0  0  0  0  0
  139.5898   68.3098  227.7618 H   0  0  0  0  0  0  0  0  0  0  0  0
  138.9239   69.9384  228.1223 H   0  0  0  0  0  0  0  0  0  0  0  0
  139.9776   68.8135  225.5206 H   0  0  0  0  0  0  0  0  0  0  0  0
  138.4176   69.7008  225.8984 H   0  0  0  0  0  0  0  0  0  0  0  0
  1  2  1  0
  2  3  1  0
  3  4  1  0
  4  5  1  0
  5  6  1  0
  6  7  2  0
  6  8  1  0
  8  9  2  0
  9 10  1  0
 10 11  2  0
 11 12  1  0
 12 13  2  0
 13 14  1  0
 13 15  1  0
 15 16  2  0
 16 17  1  0
 17 18  2  0
  2 19  1  0
 19 20  2  0
 19 21  1  0
 21 22  1  0
 22 23  1  0
 23 24  1  0
 24 25  1  0
 25 26  1  0
 26 27  1  0
 18  8  1  0
 27 22  1  0
 17 11  1  0
  1 28  1  0
  1 29  1  0
  1 30  1  0
  3 31  1  0
  3 32  1  0
  4 33  1  0
  4 34  1  0
  5 35  1  0
  9 36  1  0
 10 37  1  0
 12 38  1  0
 15 39  1  0
 16 40  1  0
 21 41  1  0
 21 42  1  0
 23 43  1  0
 23 44  1  0
 24 45  1  0
 24 46  1  0
 25 47  1  0
 25 48  1  0
 26 49  1  0
 26 50  1  0
 27 51  1  0
 27 52  1  0
M  END
>  <smiles>  (29) 
CN(CCNC(=O)c1ccc2cc(Cl)ccc2n1)C(=O)CN1CCCCC1

>  <score_type>  (29) 
oracle

>  <origin>  (29) 
autodockgpu

>  <m_score__min__energy>  (29) 
-7.9299999999999997

>  <m_primary>  (29) 
energy

>  <rmsd>  (29) 
4.958855110207591

>  <m_score__min__rmsd>  (29) 
4.958855110207591

>  <meeko>  (29) 
{"free_energy": -7.49, "intermolecular_energy": -9.58, "internal_energy": -1.94, "cluster_size": 16, "cluster_id": 3, "rank_in_cluster": 4}

>  <energy>  (29) 
-7.71

>  <cluster_rmsd>  (29) 
0.0

>  <cluster>  (29) 
2

$$$$

     RDKit          3D

 52 54  0  0  0  0  0  0  0  0999 V2000
  140.1480   77.7330  219.7790 C   0  0  0  0  0  0  0  0  0  0  0  0
  140.0700   76.7180  220.8190 N   0  0  0  0  0  0  0  0  0  0  0  0
  140.3500   75.3410  220.4520 C   0  0  0  0  0  0  0  0  0  0  0  0
  139.1150   74.4990  220.6600 C   0  0  0  0  0  0  0  0  0  0  0  0
  139.2480   73.6050  221.8200 N   0  0  0  0  0  0  0  0  0  0  0  0
  139.4820   72.2150  221.6170 C   0  0  0  0  0  0  0  0  0  0  0  0
  139.5770   71.7130  220.4460 O   0  0  0  0  0  0  0  0  0  0  0  0
  139.6140   71.3710  222.8040 C   0  0  0  0  0  0  0  0  0  0  0  0
  139.1330   70.0760  222.7920 C   0  0  0  0  0  0  0  0  0  0  0  0
  139.2360   69.2400  223.8900 C   0  0  0  0  0  0  0  0  0  0  0  0
  139.8440   69.7130  225.0530 C   0  0  0  0  0  0  0  0  0  0  0  0
  139.9550   68.8920  226.1530 C   0  0  0  0  0  0  0  0  0  0  0  0
  140.5720   69.4200  227.2750 C   0  0  0  0  0  0  0  0  0  0  0  0
  140.7780   68.4730  228.7500 Cl  0  0  0  0  0  0  0  0  0  0  0  0
  141.0430   70.7190  227.2570 C   0  0  0  0  0  0  0  0  0  0  0  0
  140.9290   71.5420  226.1480 C   0  0  0  0  0  0  0  0  0  0  0  0
  140.3130   71.0150  225.0280 C   0  0  0  0  0  0  0  0  0  0  0  0
  140.1990   71.8080  223.9410 N   0  0  0  0  0  0  0  0  0  0  0  0
  139.7290   77.0650  222.1820 C   0  0  0  0  0  0  0  0  0  0  0  0
  139.5240   76.1020  222.9630 O   0  0  0  0  0  0  0  0  0  0  0  0
  139.6570   78.4790  222.5090 C   0  0  0  0  0  0  0  0  0  0  0  0
  140.8240   79.2710  222.3500 N   0  0  0  0  0  0  0  0  0  0  0  0
  141.8640   79.0340  223.2650 C   0  0  0  0  0  0  0  0  0  0  0  0
  142.5940   80.1560  223.8800 C   0  0  0  0  0  0  0  0  0  0  0  0
  141.9430   81.4670  223.5990 C   0  0  0  0  0  0  0  0  0  0  0  0
  141.7600   81.5210  222.0750 C   0  0  0  0  0  0  0  0  0  0  0  0
  140.7390   80.4800  221.6530 C   0  0  0  0  0  0  0  0  0  0  0  0
  140.2244   78.7277  220.2424 H   0  0  0  0  0  0  0  0  0  0  0  0
  141.0348   77.5505  219.1542 H   0  0  0  0  0  0  0  0  0  0  0  0
  139.2437   77.6881  219.1542 H   0  0  0  0  0  0  0  0  0  0  0  0
  140.6483   75.2978  219.3941 H   0  0  0  0  0  0  0  0  0  0  0  0
  141.1652   74.9544  221.0813 H   0  0  0  0  0  0  0  0  0  0  0  0
  138.2542   75.1646  220.8212 H   0  0  0  0  0  0  0  0  0  0  0  0
  138.9733   73.8759  219.7647 H   0  0  0  0  0  0  0  0  0  0  0  0
  139.1770   73.9690  222.8000 H   0  0  0  0  0  0  0  0  0  0  0  0
  138.6517   69.6965  221.8786 H   0  0  0  0  0  0  0  0  0  0  0  0
  138.8427   68.2136  223.8462 H   0  0  0  0  0  0  0  0  0  0  0  0
  139.5703   67.8615  226.1411 H   0  0  0  0  0  0  0  0  0  0  0  0
  141.5286   71.1162  228.1606 H   0  0  0  0  0  0  0  0  0  0  0  0
  141.3130   72.5727  226.1583 H   0  0  0  0  0  0  0  0  0  0  0  0
  138.8759   78.9202  221.8724 H   0  0  0  0  0  0  0  0  0  0  0  0
  139.4658   78.4956  223.5921 H   0  0  0  0  0  0  0  0  0  0  0  0
  141.4295   78.4514  224.0907 H   0  0  0  0  0  0  0  0  0  0  0  0
  142.6330   78.5522  222.6433 H   0  0  0  0  0  0  0  0  0  0  0  0
  142.6286   80.0029  224.9687 H   0  0  0  0  0  0  0  0  0  0  0  0
  143.6058   80.1799  223.4490 H   0  0  0  0  0  0  0  0  0  0  0  0
  140.9681   81.5275  224.1049 H   0  0  0  0  0  0  0  0  0  0  0  0
  142.5492   82.3085  223.9655 H   0  0  0  0  0  0  0  0  0  0  0  0
  141.4069   82.5210  221.7829 H   0  0  0  0  0  0  0  0  0  0  0  0
  142.7212   81.3142  221.5818 H   0  0  0  0  0  0  0  0  0  0  0  0
  139.7345   80.8990  221.8125 H   0  0  0  0  0  0  0  0  0  0  0  0
  140.9449   80.2486  220.5975 H   0  0  0  0  0  0  0  0  0  0  0  0
  1  2  1  0
  2  3  1  0
  3  4  1  0
  4  5  1  0
  5  6  1  0
  6  7  2  0
  6  8  1  0
  8  9  2  0
  9 10  1  0
 10 11  2  0
 11 12  1  0
 12 13  2  0
 13 14  1  0
 13 15  1  0
 15 16  2  0
 16 17  1  0
 17 18  2  0
  2 19  1  0
 19 20  2  0
 19 21  1  0
 21 22  1  0
 22 23  1  0
 23 24  1  0
 24 25  1  0
 25 26  1  0
 26 27  1  0
 18  8  1  0
 27 22  1  0
 17 11  1  0
  1 28  1  0
  1 29  1  0
  1 30  1  0
  3 31  1  0
  3 32  1  0
  4 33  1  0
  4 34  1  0
  5 35  1  0
  9 36  1  0
 10 37  1  0
 12 38  1  0
 15 39  1  0
 16 40  1  0
 21 41  1  0
 21 42  1  0
 23 43  1  0
 23 44  1  0
 24 45  1  0
 24 46  1  0
 25 47  1  0
 25 48  1  0
 26 49  1  0
 26 50  1  0
 27 51  1  0
 27 52  1  0
M  END
>  <smiles>  (30) 
CN(CCNC(=O)c1ccc2cc(Cl)ccc2n1)C(=O)CN1CCCCC1

>  <score_type>  (30) 
oracle

>  <origin>  (30) 
autodockgpu

>  <m_score__min__energy>  (30) 
-7.9299999999999997

>  <m_primary>  (30) 
energy

>  <rmsd>  (30) 
9.765756668928374

>  <m_score__min__rmsd>  (30) 
9.765756668928374

>  <meeko>  (30) 
{"free_energy": -7.38, "intermolecular_energy": -9.47, "internal_energy": -1.76, "cluster_size": 28, "cluster_id": 1, "rank_in_cluster": 14}

>  <energy>  (30) 
-6.91

>  <cluster_rmsd>  (30) 
1.3

>  <cluster>  (30) 
2

$$$$

     RDKit          3D

 52 54  0  0  0  0  0  0  0  0999 V2000
  141.7830   75.0870  221.0430 C   0  0  0  0  0  0  0  0  0  0  0  0
  140.3570   75.3750  221.0370 N   0  0  0  0  0  0  0  0  0  0  0  0
  139.5340   74.7310  220.0280 C   0  0  0  0  0  0  0  0  0  0  0  0
  138.2800   74.1850  220.6680 C   0  0  0  0  0  0  0  0  0  0  0  0
  138.5820   73.3370  221.8310 N   0  0  0  0  0  0  0  0  0  0  0  0
  138.8750   71.9560  221.6400 C   0  0  0  0  0  0  0  0  0  0  0  0
  138.8800   71.4250  220.4790 O   0  0  0  0  0  0  0  0  0  0  0  0
  139.1730   71.1580  222.8280 C   0  0  0  0  0  0  0  0  0  0  0  0
  138.7910   69.8320  222.8890 C   0  0  0  0  0  0  0  0  0  0  0  0
  139.0530   69.0380  223.9910 C   0  0  0  0  0  0  0  0  0  0  0  0
  139.7260   69.5860  225.0830 C   0  0  0  0  0  0  0  0  0  0  0  0
  139.9950   68.8080  226.1870 C   0  0  0  0  0  0  0  0  0  0  0  0
  140.6670   69.4100  227.2360 C   0  0  0  0  0  0  0  0  0  0  0  0
  141.0750   68.5230  228.7070 Cl  0  0  0  0  0  0  0  0  0  0  0  0
  141.0370   70.7390  227.1470 C   0  0  0  0  0  0  0  0  0  0  0  0
  140.7640   71.5200  226.0350 C   0  0  0  0  0  0  0  0  0  0  0  0
  140.0930   70.9170  224.9870 C   0  0  0  0  0  0  0  0  0  0  0  0
  139.8230   71.6690  223.8980 N   0  0  0  0  0  0  0  0  0  0  0  0
  139.7690   76.2740  222.0070 C   0  0  0  0  0  0  0  0  0  0  0  0
  139.3000   75.7390  223.0430 O   0  0  0  0  0  0  0  0  0  0  0  0
  139.7790   77.6920  221.6890 C   0  0  0  0  0  0  0  0  0  0  0  0
  140.9740   78.4260  221.9060 N   0  0  0  0  0  0  0  0  0  0  0  0
  141.4720   78.4270  223.2200 C   0  0  0  0  0  0  0  0  0  0  0  0
  141.9720   79.6690  223.8340 C   0  0  0  0  0  0  0  0  0  0  0  0
  141.6570   80.8670  223.0070 C   0  0  0  0  0  0  0  0  0  0  0  0
  142.1710   80.5440  221.5960 C   0  0  0  0  0  0  0  0  0  0  0  0
  141.3360   79.4270  220.9990 C   0  0  0  0  0  0  0  0  0  0  0  0
  142.1382   75.0153  222.0816 H   0  0  0  0  0  0  0  0  0  0  0  0
  141.9667   74.1336  220.5260 H   0  0  0  0  0  0  0  0  0  0  0  0
  142.3223   75.8944  220.5260 H   0  0  0  0  0  0  0  0  0  0  0  0
  139.2607   75.4651  219.2557 H   0  0  0  0  0  0  0  0  0  0  0  0
  140.0984   73.9057  219.5693 H   0  0  0  0  0  0  0  0  0  0  0  0
  137.6523   75.0269  220.9953 H   0  0  0  0  0  0  0  0  0  0  0  0
  137.7580   73.5674  219.9223 H   0  0  0  0  0  0  0  0  0  0  0  0
  138.5870   73.7270  222.8040 H   0  0  0  0  0  0  0  0  0  0  0  0
  138.2602   69.3923  222.0318 H   0  0  0  0  0  0  0  0  0  0  0  0
  138.7339   67.9854  224.0060 H   0  0  0  0  0  0  0  0  0  0  0  0
  139.6885   67.7525  226.2329 H   0  0  0  0  0  0  0  0  0  0  0  0
  141.5702   71.1956  227.9939 H   0  0  0  0  0  0  0  0  0  0  0  0
  141.0686   72.5760  225.9881 H   0  0  0  0  0  0  0  0  0  0  0  0
  139.5285   77.7873  220.6221 H   0  0  0  0  0  0  0  0  0  0  0  0
  139.0605   78.1318  222.3964 H   0  0  0  0  0  0  0  0  0  0  0  0
  140.6582   78.0634  223.8646 H   0  0  0  0  0  0  0  0  0  0  0  0
  142.3798   77.8112  223.1385 H   0  0  0  0  0  0  0  0  0  0  0  0
  141.5065   79.7883  224.8235 H   0  0  0  0  0  0  0  0  0  0  0  0
  143.0662   79.5909  223.9155 H   0  0  0  0  0  0  0  0  0  0  0  0
  140.5718   81.0458  222.9884 H   0  0  0  0  0  0  0  0  0  0  0  0
  142.1265   81.7754  223.4124 H   0  0  0  0  0  0  0  0  0  0  0  0
  142.0921   81.4399  220.9626 H   0  0  0  0  0  0  0  0  0  0  0  0
  143.2228   80.2269  221.6517 H   0  0  0  0  0  0  0  0  0  0  0  0
  140.4157   79.8678  220.5882 H   0  0  0  0  0  0  0  0  0  0  0  0
  141.9605   78.9444  220.2328 H   0  0  0  0  0  0  0  0  0  0  0  0
  1  2  1  0
  2  3  1  0
  3  4  1  0
  4  5  1  0
  5  6  1  0
  6  7  2  0
  6  8  1  0
  8  9  2  0
  9 10  1  0
 10 11  2  0
 11 12  1  0
 12 13  2  0
 13 14  1  0
 13 15  1  0
 15 16  2  0
 16 17  1  0
 17 18  2  0
  2 19  1  0
 19 20  2  0
 19 21  1  0
 21 22  1  0
 22 23  1  0
 23 24  1  0
 24 25  1  0
 25 26  1  0
 26 27  1  0
 18  8  1  0
 27 22  1  0
 17 11  1  0
  1 28  1  0
  1 29  1  0
  1 30  1  0
  3 31  1  0
  3 32  1  0
  4 33  1  0
  4 34  1  0
  5 35  1  0
  9 36  1  0
 10 37  1  0
 12 38  1  0
 15 39  1  0
 16 40  1  0
 21 41  1  0
 21 42  1  0
 23 43  1  0
 23 44  1  0
 24 45  1  0
 24 46  1  0
 25 47  1  0
 25 48  1  0
 26 49  1  0
 26 50  1  0
 27 51  1  0
 27 52  1  0
M  END
>  <smiles>  (31) 
CN(CCNC(=O)c1ccc2cc(Cl)ccc2n1)C(=O)CN1CCCCC1

>  <score_type>  (31) 
oracle

>  <origin>  (31) 
autodockgpu

>  <m_score__min__energy>  (31) 
-7.9299999999999997

>  <m_primary>  (31) 
energy

>  <rmsd>  (31) 
9.642025857594664

>  <m_score__min__rmsd>  (31) 
9.642025857594664

>  <meeko>  (31) 
{"free_energy": -7.31, "intermolecular_energy": -9.4, "internal_energy": -2.05, "cluster_size": 28, "cluster_id": 1, "rank_in_cluster": 19}

>  <energy>  (31) 
-6.78

>  <cluster_rmsd>  (31) 
1.76

>  <cluster>  (31) 
2

$$$$

     RDKit          3D

 52 54  0  0  0  0  0  0  0  0999 V2000
  139.0270   71.6640  220.3330 C   0  0  0  0  0  0  0  0  0  0  0  0
  138.7990   71.7040  221.7700 N   0  0  0  0  0  0  0  0  0  0  0  0
  137.5070   71.2690  222.2690 C   0  0  0  0  0  0  0  0  0  0  0  0
  136.5690   72.4500  222.3470 C   0  0  0  0  0  0  0  0  0  0  0  0
  137.2940   73.7170  222.5120 N   0  0  0  0  0  0  0  0  0  0  0  0
  136.6060   74.9530  222.3380 C   0  0  0  0  0  0  0  0  0  0  0  0
  135.3650   74.9940  222.0360 O   0  0  0  0  0  0  0  0  0  0  0  0
  137.3710   76.1850  222.5190 C   0  0  0  0  0  0  0  0  0  0  0  0
  136.7180   77.3930  222.6710 C   0  0  0  0  0  0  0  0  0  0  0  0
  137.4000   78.5840  222.8460 C   0  0  0  0  0  0  0  0  0  0  0  0
  138.7950   78.5740  222.8710 C   0  0  0  0  0  0  0  0  0  0  0  0
  139.4880   79.7520  223.0460 C   0  0  0  0  0  0  0  0  0  0  0  0
  140.8700   79.6750  223.0650 C   0  0  0  0  0  0  0  0  0  0  0  0
  141.8750   81.1100  223.2830 Cl  0  0  0  0  0  0  0  0  0  0  0  0
  141.4950   78.4520  222.9100 C   0  0  0  0  0  0  0  0  0  0  0  0
  140.7950   77.2690  222.7330 C   0  0  0  0  0  0  0  0  0  0  0  0
  139.4150   77.3470  222.7160 C   0  0  0  0  0  0  0  0  0  0  0  0
  138.7230   76.2000  222.5460 N   0  0  0  0  0  0  0  0  0  0  0  0
  139.8280   72.1580  222.6800 C   0  0  0  0  0  0  0  0  0  0  0  0
  140.0650   73.3920  222.6750 O   0  0  0  0  0  0  0  0  0  0  0  0
  140.4800   71.1520  223.5010 C   0  0  0  0  0  0  0  0  0  0  0  0
  139.9810   70.9180  224.8090 N   0  0  0  0  0  0  0  0  0  0  0  0
  140.6880   71.5240  225.8610 C   0  0  0  0  0  0  0  0  0  0  0  0
  140.9840   70.7790  227.0960 C   0  0  0  0  0  0  0  0  0  0  0  0
  140.6650   69.3290  226.9640 C   0  0  0  0  0  0  0  0  0  0  0  0
  139.2180   69.2680  226.4550 C   0  0  0  0  0  0  0  0  0  0  0  0
  139.1580   69.8110  225.0390 C   0  0  0  0  0  0  0  0  0  0  0  0
  140.0929   71.4770  220.1359 H   0  0  0  0  0  0  0  0  0  0  0  0
  138.4250   70.8578  219.8885 H   0  0  0  0  0  0  0  0  0  0  0  0
  138.7354   72.6270  219.8885 H   0  0  0  0  0  0  0  0  0  0  0  0
  137.0877   70.5130  221.5888 H   0  0  0  0  0  0  0  0  0  0  0  0
  137.6307   70.8345  223.2719 H   0  0  0  0  0  0  0  0  0  0  0  0
  135.9784   72.4966  221.4202 H   0  0  0  0  0  0  0  0  0  0  0  0
  135.9205   72.3122  223.2247 H   0  0  0  0  0  0  0  0  0  0  0  0
  138.3130   73.7360  222.7580 H   0  0  0  0  0  0  0  0  0  0  0  0
  135.6183   77.4084  222.6523 H   0  0  0  0  0  0  0  0  0  0  0  0
  136.8485   79.5284  222.9641 H   0  0  0  0  0  0  0  0  0  0  0  0
  138.9654   80.7125  223.1655 H   0  0  0  0  0  0  0  0  0  0  0  0
  142.5943   78.4161  222.9279 H   0  0  0  0  0  0  0  0  0  0  0  0
  141.3160   76.3079  222.6111 H   0  0  0  0  0  0  0  0  0  0  0  0
  140.4201   70.1988  222.9553 H   0  0  0  0  0  0  0  0  0  0  0  0
  141.4909   71.5530  223.6662 H   0  0  0  0  0  0  0  0  0  0  0  0
  141.6560   71.8422  225.4465 H   0  0  0  0  0  0  0  0  0  0  0  0
  139.9929   72.3036  226.2060 H   0  0  0  0  0  0  0  0  0  0  0  0
  142.0537   70.8875  227.3283 H   0  0  0  0  0  0  0  0  0  0  0  0
  140.3579   71.1926  227.9003 H   0  0  0  0  0  0  0  0  0  0  0  0
  141.3454   68.8503  226.2444 H   0  0  0  0  0  0  0  0  0  0  0  0
  140.7822   68.7983  227.9203 H   0  0  0  0  0  0  0  0  0  0  0  0
  138.8699   68.2245  226.4629 H   0  0  0  0  0  0  0  0  0  0  0  0
  138.5730   69.8739  227.1083 H   0  0  0  0  0  0  0  0  0  0  0  0
  139.4602   69.0086  224.3499 H   0  0  0  0  0  0  0  0  0  0  0  0
  138.1241   70.1495  224.8764 H   0  0  0  0  0  0  0  0  0  0  0  0
  1  2  1  0
  2  3  1  0
  3  4  1  0
  4  5  1  0
  5  6  1  0
  6  7  2  0
  6  8  1  0
  8  9  2  0
  9 10  1  0
 10 11  2  0
 11 12  1  0
 12 13  2  0
 13 14  1  0
 13 15  1  0
 15 16  2  0
 16 17  1  0
 17 18  2  0
  2 19  1  0
 19 20  2  0
 19 21  1  0
 21 22  1  0
 22 23  1  0
 23 24  1  0
 24 25  1  0
 25 26  1  0
 26 27  1  0
 18  8  1  0
 27 22  1  0
 17 11  1  0
  1 28  1  0
  1 29  1  0
  1 30  1  0
  3 31  1  0
  3 32  1  0
  4 33  1  0
  4 34  1  0
  5 35  1  0
  9 36  1  0
 10 37  1  0
 12 38  1  0
 15 39  1  0
 16 40  1  0
 21 41  1  0
 21 42  1  0
 23 43  1  0
 23 44  1  0
 24 45  1  0
 24 46  1  0
 25 47  1  0
 25 48  1  0
 26 49  1  0
 26 50  1  0
 27 51  1  0
 27 52  1  0
M  END
>  <smiles>  (32) 
CN(CCNC(=O)c1ccc2cc(Cl)ccc2n1)C(=O)CN1CCCCC1

>  <score_type>  (32) 
oracle

>  <origin>  (32) 
autodockgpu

>  <m_score__min__energy>  (32) 
-7.9299999999999997

>  <m_primary>  (32) 
energy

>  <rmsd>  (32) 
4.774116460348834

>  <m_score__min__rmsd>  (32) 
4.774116460348834

>  <meeko>  (32) 
{"free_energy": -6.77, "intermolecular_energy": -8.86, "internal_energy": -2.28, "cluster_size": 16, "cluster_id": 3, "rank_in_cluster": 15}

>  <energy>  (32) 
-7.61

>  <cluster_rmsd>  (32) 
0.0

>  <cluster>  (32) 
3

$$$$

     RDKit          3D

 52 54  0  0  0  0  0  0  0  0999 V2000
  136.8160   76.2700  221.3620 C   0  0  0  0  0  0  0  0  0  0  0  0
  138.0830   75.5640  221.2420 N   0  0  0  0  0  0  0  0  0  0  0  0
  138.2060   74.5530  220.2070 C   0  0  0  0  0  0  0  0  0  0  0  0
  137.6160   73.2510  220.6950 C   0  0  0  0  0  0  0  0  0  0  0  0
  138.2480   72.7960  221.9420 N   0  0  0  0  0  0  0  0  0  0  0  0
  138.5480   71.4140  222.1170 C   0  0  0  0  0  0  0  0  0  0  0  0
  138.2800   70.5480  221.2170 O   0  0  0  0  0  0  0  0  0  0  0  0
  139.1810   71.0130  223.3730 C   0  0  0  0  0  0  0  0  0  0  0  0
  140.1030   71.8430  223.9820 C   0  0  0  0  0  0  0  0  0  0  0  0
  140.7260   71.5060  225.1700 C   0  0  0  0  0  0  0  0  0  0  0  0
  140.4210   70.2900  225.7810 C   0  0  0  0  0  0  0  0  0  0  0  0
  141.0320   69.9420  226.9650 C   0  0  0  0  0  0  0  0  0  0  0  0
  140.6830   68.7230  227.5220 C   0  0  0  0  0  0  0  0  0  0  0  0
  141.3930   68.1600  229.0370 Cl  0  0  0  0  0  0  0  0  0  0  0  0
  139.7580   67.9150  226.8890 C   0  0  0  0  0  0  0  0  0  0  0  0
  139.1450   68.2680  225.6970 C   0  0  0  0  0  0  0  0  0  0  0  0
  139.4930   69.4860  225.1420 C   0  0  0  0  0  0  0  0  0  0  0  0
  138.9010   69.8400  223.9820 N   0  0  0  0  0  0  0  0  0  0  0  0
  139.1920   75.8580  222.1230 C   0  0  0  0  0  0  0  0  0  0  0  0
  140.0370   74.9400  222.2750 O   0  0  0  0  0  0  0  0  0  0  0  0
  139.2190   77.1740  222.7400 C   0  0  0  0  0  0  0  0  0  0  0  0
  140.2490   78.0760  222.3670 N   0  0  0  0  0  0  0  0  0  0  0  0
  141.4330   78.0110  223.1210 C   0  0  0  0  0  0  0  0  0  0  0  0
  142.1110   79.2410  223.5650 C   0  0  0  0  0  0  0  0  0  0  0  0
  141.2780   80.4540  223.3270 C   0  0  0  0  0  0  0  0  0  0  0  0
  140.8670   80.3920  221.8490 C   0  0  0  0  0  0  0  0  0  0  0  0
  139.9230   79.2230  221.6370 C   0  0  0  0  0  0  0  0  0  0  0  0
  136.5715   76.4062  222.4258 H   0  0  0  0  0  0  0  0  0  0  0  0
  136.8966   77.2532  220.8755 H   0  0  0  0  0  0  0  0  0  0  0  0
  136.0223   75.6841  220.8755 H   0  0  0  0  0  0  0  0  0  0  0  0
  137.6675   74.8839  219.3067 H   0  0  0  0  0  0  0  0  0  0  0  0
  139.2692   74.4042  219.9674 H   0  0  0  0  0  0  0  0  0  0  0  0
  136.5398   73.3928  220.8729 H   0  0  0  0  0  0  0  0  0  0  0  0
  137.7932   72.4864  219.9243 H   0  0  0  0  0  0  0  0  0  0  0  0
  138.4860   73.4670  222.7100 H   0  0  0  0  0  0  0  0  0  0  0  0
  140.3496   72.8036  223.5061 H   0  0  0  0  0  0  0  0  0  0  0  0
  141.4550   72.1904  225.6284 H   0  0  0  0  0  0  0  0  0  0  0  0
  141.7660   70.6040  227.4478 H   0  0  0  0  0  0  0  0  0  0  0  0
  139.4971   66.9511  227.3504 H   0  0  0  0  0  0  0  0  0  0  0  0
  138.4118   67.6065  225.2124 H   0  0  0  0  0  0  0  0  0  0  0  0
  138.2607   77.6614  222.5074 H   0  0  0  0  0  0  0  0  0  0  0  0
  139.4129   76.9689  223.8032 H   0  0  0  0  0  0  0  0  0  0  0  0
  141.1958   77.4378  224.0294 H   0  0  0  0  0  0  0  0  0  0  0  0
  142.1523   77.5777  222.4105 H   0  0  0  0  0  0  0  0  0  0  0  0
  142.3228   79.1611  224.6415 H   0  0  0  0  0  0  0  0  0  0  0  0
  143.0390   79.3464  222.9840 H   0  0  0  0  0  0  0  0  0  0  0  0
  140.3881   80.4411  223.9735 H   0  0  0  0  0  0  0  0  0  0  0  0
  141.8302   81.3773  223.5566 H   0  0  0  0  0  0  0  0  0  0  0  0
  140.3610   81.3278  221.5692 H   0  0  0  0  0  0  0  0  0  0  0  0
  141.7624   80.2593  221.2239 H   0  0  0  0  0  0  0  0  0  0  0  0
  138.9113   79.5407  221.9295 H   0  0  0  0  0  0  0  0  0  0  0  0
  139.9969   78.9494  220.5741 H   0  0  0  0  0  0  0  0  0  0  0  0
  1  2  1  0
  2  3  1  0
  3  4  1  0
  4  5  1  0
  5  6  1  0
  6  7  2  0
  6  8  1  0
  8  9  2  0
  9 10  1  0
 10 11  2  0
 11 12  1  0
 12 13  2  0
 13 14  1  0
 13 15  1  0
 15 16  2  0
 16 17  1  0
 17 18  2  0
  2 19  1  0
 19 20  2  0
 19 21  1  0
 21 22  1  0
 22 23  1  0
 23 24  1  0
 24 25  1  0
 25 26  1  0
 26 27  1  0
 18  8  1  0
 27 22  1  0
 17 11  1  0
  1 28  1  0
  1 29  1  0
  1 30  1  0
  3 31  1  0
  3 32  1  0
  4 33  1  0
  4 34  1  0
  5 35  1  0
  9 36  1  0
 10 37  1  0
 12 38  1  0
 15 39  1  0
 16 40  1  0
 21 41  1  0
 21 42  1  0
 23 43  1  0
 23 44  1  0
 24 45  1  0
 24 46  1  0
 25 47  1  0
 25 48  1  0
 26 49  1  0
 26 50  1  0
 27 51  1  0
 27 52  1  0
M  END
>  <smiles>  (33) 
CN(CCNC(=O)c1ccc2cc(Cl)ccc2n1)C(=O)CN1CCCCC1

>  <score_type>  (33) 
oracle

>  <origin>  (33) 
autodockgpu

>  <m_score__min__energy>  (33) 
-7.9299999999999997

>  <m_primary>  (33) 
energy

>  <rmsd>  (33) 
9.133092196999128

>  <m_score__min__rmsd>  (33) 
9.133092196999128

>  <meeko>  (33) 
{"free_energy": -7.24, "intermolecular_energy": -9.33, "internal_energy": -1.77, "cluster_size": 28, "cluster_id": 1, "rank_in_cluster": 22}

>  <energy>  (33) 
-7.53

>  <cluster_rmsd>  (33) 
1.94

>  <cluster>  (33) 
3

$$$$

     RDKit          3D

 52 54  0  0  0  0  0  0  0  0999 V2000
  139.1040   75.9420  219.3170 C   0  0  0  0  0  0  0  0  0  0  0  0
  139.0070   75.5970  220.7280 N   0  0  0  0  0  0  0  0  0  0  0  0
  137.6850   75.3760  221.2880 C   0  0  0  0  0  0  0  0  0  0  0  0
  137.3080   73.9210  221.1440 C   0  0  0  0  0  0  0  0  0  0  0  0
  137.8400   73.1050  222.2460 N   0  0  0  0  0  0  0  0  0  0  0  0
  137.5600   71.7090  222.2890 C   0  0  0  0  0  0  0  0  0  0  0  0
  136.8510   71.1380  221.3930 O   0  0  0  0  0  0  0  0  0  0  0  0
  138.1170   70.9420  223.4010 C   0  0  0  0  0  0  0  0  0  0  0  0
  137.6960   69.6460  223.6310 C   0  0  0  0  0  0  0  0  0  0  0  0
  138.1960   68.8820  224.6700 C   0  0  0  0  0  0  0  0  0  0  0  0
  139.1570   69.4290  225.5210 C   0  0  0  0  0  0  0  0  0  0  0  0
  139.6650   68.6790  226.5580 C   0  0  0  0  0  0  0  0  0  0  0  0
  140.6180   69.2790  227.3640 C   0  0  0  0  0  0  0  0  0  0  0  0
  141.3480   68.4270  228.7260 Cl  0  0  0  0  0  0  0  0  0  0  0  0
  141.0190   70.5770  227.1090 C   0  0  0  0  0  0  0  0  0  0  0  0
  140.5050   71.3290  226.0640 C   0  0  0  0  0  0  0  0  0  0  0  0
  139.5540   70.7290  225.2600 C   0  0  0  0  0  0  0  0  0  0  0  0
  139.0490   71.4520  224.2380 N   0  0  0  0  0  0  0  0  0  0  0  0
  140.1890   75.4720  221.5530 C   0  0  0  0  0  0  0  0  0  0  0  0
  140.2340   74.4670  222.3060 O   0  0  0  0  0  0  0  0  0  0  0  0
  141.1970   76.5110  221.4300 C   0  0  0  0  0  0  0  0  0  0  0  0
  140.8460   77.8400  221.7840 N   0  0  0  0  0  0  0  0  0  0  0  0
  141.8070   78.8280  221.5110 C   0  0  0  0  0  0  0  0  0  0  0  0
  142.1050   79.8800  222.4990 C   0  0  0  0  0  0  0  0  0  0  0  0
  141.4670   79.6060  223.8170 C   0  0  0  0  0  0  0  0  0  0  0  0
  139.9840   79.3490  223.5150 C   0  0  0  0  0  0  0  0  0  0  0  0
  139.8450   78.0530  222.7360 C   0  0  0  0  0  0  0  0  0  0  0  0
  139.4005   76.9966  219.2169 H   0  0  0  0  0  0  0  0  0  0  0  0
  139.8570   75.3020  218.8340 H   0  0  0  0  0  0  0  0  0  0  0  0
  138.1278   75.7882  218.8340 H   0  0  0  0  0  0  0  0  0  0  0  0
  137.6890   75.6490  222.3536 H   0  0  0  0  0  0  0  0  0  0  0  0
  136.9532   75.9968  220.7504 H   0  0  0  0  0  0  0  0  0  0  0  0
  136.2112   73.8369  221.1365 H   0  0  0  0  0  0  0  0  0  0  0  0
  137.7407   73.5481  220.2039 H   0  0  0  0  0  0  0  0  0  0  0  0
  138.4250   73.5280  223.0050 H   0  0  0  0  0  0  0  0  0  0  0  0
  136.9379   69.2073  222.9655 H   0  0  0  0  0  0  0  0  0  0  0  0
  137.8394   67.8529  224.8239 H   0  0  0  0  0  0  0  0  0  0  0  0
  139.3283   67.6475  226.7385 H   0  0  0  0  0  0  0  0  0  0  0  0
  141.7777   71.0323  227.7626 H   0  0  0  0  0  0  0  0  0  0  0  0
  140.8402   72.3608  225.8821 H   0  0  0  0  0  0  0  0  0  0  0  0
  142.0446   76.2183  222.0671 H   0  0  0  0  0  0  0  0  0  0  0  0
  141.3987   76.5642  220.3500 H   0  0  0  0  0  0  0  0  0  0  0  0
  142.7531   78.3013  221.3176 H   0  0  0  0  0  0  0  0  0  0  0  0
  141.3520   79.3909  220.6826 H   0  0  0  0  0  0  0  0  0  0  0  0
  143.1947   79.9385  222.6374 H   0  0  0  0  0  0  0  0  0  0  0  0
  141.7004   80.8288  222.1169 H   0  0  0  0  0  0  0  0  0  0  0  0
  141.9217   78.7214  224.2867 H   0  0  0  0  0  0  0  0  0  0  0  0
  141.5997   80.4459  224.5148 H   0  0  0  0  0  0  0  0  0  0  0  0
  139.4253   79.2712  224.4594 H   0  0  0  0  0  0  0  0  0  0  0  0
  139.5809   80.1810  222.9189 H   0  0  0  0  0  0  0  0  0  0  0  0
  139.8676   77.2177  223.4514 H   0  0  0  0  0  0  0  0  0  0  0  0
  138.8962   78.1197  222.1835 H   0  0  0  0  0  0  0  0  0  0  0  0
  1  2  1  0
  2  3  1  0
  3  4  1  0
  4  5  1  0
  5  6  1  0
  6  7  2  0
  6  8  1  0
  8  9  2  0
  9 10  1  0
 10 11  2  0
 11 12  1  0
 12 13  2  0
 13 14  1  0
 13 15  1  0
 15 16  2  0
 16 17  1  0
 17 18  2  0
  2 19  1  0
 19 20  2  0
 19 21  1  0
 21 22  1  0
 22 23  1  0
 23 24  1  0
 24 25  1  0
 25 26  1  0
 26 27  1  0
 18  8  1  0
 27 22  1  0
 17 11  1  0
  1 28  1  0
  1 29  1  0
  1 30  1  0
  3 31  1  0
  3 32  1  0
  4 33  1  0
  4 34  1  0
  5 35  1  0
  9 36  1  0
 10 37  1  0
 12 38  1  0
 15 39  1  0
 16 40  1  0
 21 41  1  0
 21 42  1  0
 23 43  1  0
 23 44  1  0
 24 45  1  0
 24 46  1  0
 25 47  1  0
 25 48  1  0
 26 49  1  0
 26 50  1  0
 27 51  1  0
 27 52  1  0
M  END
>  <smiles>  (34) 
CN(CCNC(=O)c1ccc2cc(Cl)ccc2n1)C(=O)CN1CCCCC1

>  <score_type>  (34) 
oracle

>  <origin>  (34) 
autodockgpu

>  <m_score__min__energy>  (34) 
-7.9299999999999997

>  <m_primary>  (34) 
energy

>  <rmsd>  (34) 
9.46422311649188

>  <m_score__min__rmsd>  (34) 
9.46422311649188

>  <meeko>  (34) 
{"free_energy": -7.28, "intermolecular_energy": -9.37, "internal_energy": -2.09, "cluster_size": 28, "cluster_id": 1, "rank_in_cluster": 20}

>  <energy>  (34) 
-7.5

>  <cluster_rmsd>  (34) 
0.87

>  <cluster>  (34) 
3

$$$$

     RDKit          3D

 52 54  0  0  0  0  0  0  0  0999 V2000
  142.2190   76.1970  220.0590 C   0  0  0  0  0  0  0  0  0  0  0  0
  140.8890   75.8880  220.5620 N   0  0  0  0  0  0  0  0  0  0  0  0
  140.1590   74.7980  219.9380 C   0  0  0  0  0  0  0  0  0  0  0  0
  138.8830   74.5380  220.7020 C   0  0  0  0  0  0  0  0  0  0  0  0
  139.1020   73.6430  221.8480 N   0  0  0  0  0  0  0  0  0  0  0  0
  139.1630   72.2350  221.6420 C   0  0  0  0  0  0  0  0  0  0  0  0
  139.0290   71.7190  220.4800 O   0  0  0  0  0  0  0  0  0  0  0  0
  139.3880   71.3890  222.8130 C   0  0  0  0  0  0  0  0  0  0  0  0
  138.9780   70.0690  222.8050 C   0  0  0  0  0  0  0  0  0  0  0  0
  139.1710   69.2310  223.8890 C   0  0  0  0  0  0  0  0  0  0  0  0
  139.7980   69.7270  225.0330 C   0  0  0  0  0  0  0  0  0  0  0  0
  139.9990   68.9040  226.1190 C   0  0  0  0  0  0  0  0  0  0  0  0
  140.6290   69.4550  227.2210 C   0  0  0  0  0  0  0  0  0  0  0  0
  140.9470   68.5080  228.6770 Cl  0  0  0  0  0  0  0  0  0  0  0  0
  141.0270   70.7780  227.1990 C   0  0  0  0  0  0  0  0  0  0  0  0
  140.8240   71.6040  226.1040 C   0  0  0  0  0  0  0  0  0  0  0  0
  140.1940   71.0520  225.0030 C   0  0  0  0  0  0  0  0  0  0  0  0
  139.9930   71.8480  223.9310 N   0  0  0  0  0  0  0  0  0  0  0  0
  140.3060   76.6390  221.6520 C   0  0  0  0  0  0  0  0  0  0  0  0
  140.1200   76.0070  222.7220 O   0  0  0  0  0  0  0  0  0  0  0  0
  139.9970   78.0370  221.4040 C   0  0  0  0  0  0  0  0  0  0  0  0
  140.4710   79.0090  222.3230 N   0  0  0  0  0  0  0  0  0  0  0  0
  140.5540   80.3270  221.8430 C   0  0  0  0  0  0  0  0  0  0  0  0
  141.7300   81.1630  222.1410 C   0  0  0  0  0  0  0  0  0  0  0  0
  142.8330   80.3750  222.7590 C   0  0  0  0  0  0  0  0  0  0  0  0
  142.2000   79.6350  223.9460 C   0  0  0  0  0  0  0  0  0  0  0  0
  141.2210   78.5970  223.4290 C   0  0  0  0  0  0  0  0  0  0  0  0
  142.9033   76.3560  220.9054 H   0  0  0  0  0  0  0  0  0  0  0  0
  142.5828   75.3595  219.4457 H   0  0  0  0  0  0  0  0  0  0  0  0
  142.1763   77.1091  219.4457 H   0  0  0  0  0  0  0  0  0  0  0  0
  139.9152   75.0680  218.8999 H   0  0  0  0  0  0  0  0  0  0  0  0
  140.7807   73.8906  219.9470 H   0  0  0  0  0  0  0  0  0  0  0  0
  138.4873   75.4962  221.0698 H   0  0  0  0  0  0  0  0  0  0  0  0
  138.1710   74.0502  220.0200 H   0  0  0  0  0  0  0  0  0  0  0  0
  139.2150   74.0180  222.8190 H   0  0  0  0  0  0  0  0  0  0  0  0
  138.4819   69.6716  221.9072 H   0  0  0  0  0  0  0  0  0  0  0  0
  138.8338   68.1847  223.8495 H   0  0  0  0  0  0  0  0  0  0  0  0
  139.6726   67.8536  226.1107 H   0  0  0  0  0  0  0  0  0  0  0  0
  141.5256   71.1932  228.0872 H   0  0  0  0  0  0  0  0  0  0  0  0
  141.1503   72.6545  226.1105 H   0  0  0  0  0  0  0  0  0  0  0  0
  140.4137   78.2917  220.4184 H   0  0  0  0  0  0  0  0  0  0  0  0
  138.9022   78.0910  221.4960 H   0  0  0  0  0  0  0  0  0  0  0  0
  140.4803   80.2676  220.7471 H   0  0  0  0  0  0  0  0  0  0  0  0
  139.7458   80.8376  222.3871 H   0  0  0  0  0  0  0  0  0  0  0  0
  142.0945   81.6100  221.2043 H   0  0  0  0  0  0  0  0  0  0  0  0
  141.4228   81.9380  222.8586 H   0  0  0  0  0  0  0  0  0  0  0  0
  143.2440   79.6568  222.0343 H   0  0  0  0  0  0  0  0  0  0  0  0
  143.6636   81.0211  223.0794 H   0  0  0  0  0  0  0  0  0  0  0  0
  142.9878   79.1373  224.5305 H   0  0  0  0  0  0  0  0  0  0  0  0
  141.6685   80.3544  224.5863 H   0  0  0  0  0  0  0  0  0  0  0  0
  141.7899   77.6998  223.1437 H   0  0  0  0  0  0  0  0  0  0  0  0
  140.5039   78.4103  224.2419 H   0  0  0  0  0  0  0  0  0  0  0  0
  1  2  1  0
  2  3  1  0
  3  4  1  0
  4  5  1  0
  5  6  1  0
  6  7  2  0
  6  8  1  0
  8  9  2  0
  9 10  1  0
 10 11  2  0
 11 12  1  0
 12 13  2  0
 13 14  1  0
 13 15  1  0
 15 16  2  0
 16 17  1  0
 17 18  2  0
  2 19  1  0
 19 20  2  0
 19 21  1  0
 21 22  1  0
 22 23  1  0
 23 24  1  0
 24 25  1  0
 25 26  1  0
 26 27  1  0
 18  8  1  0
 27 22  1  0
 17 11  1  0
  1 28  1  0
  1 29  1  0
  1 30  1  0
  3 31  1  0
  3 32  1  0
  4 33  1  0
  4 34  1  0
  5 35  1  0
  9 36  1  0
 10 37  1  0
 12 38  1  0
 15 39  1  0
 16 40  1  0
 21 41  1  0
 21 42  1  0
 23 43  1  0
 23 44  1  0
 24 45  1  0
 24 46  1  0
 25 47  1  0
 25 48  1  0
 26 49  1  0
 26 50  1  0
 27 51  1  0
 27 52  1  0
M  END
>  <smiles>  (35) 
CN(CCNC(=O)c1ccc2cc(Cl)ccc2n1)C(=O)CN1CCCCC1

>  <score_type>  (35) 
oracle

>  <origin>  (35) 
autodockgpu

>  <m_score__min__energy>  (35) 
-7.9299999999999997

>  <m_primary>  (35) 
energy

>  <rmsd>  (35) 
9.412708004643031

>  <m_score__min__rmsd>  (35) 
9.412708004643031

>  <meeko>  (35) 
{"free_energy": -7.54, "intermolecular_energy": -9.63, "internal_energy": -1.87, "cluster_size": 28, "cluster_id": 1, "rank_in_cluster": 6}

>  <energy>  (35) 
-7.49

>  <cluster_rmsd>  (35) 
1.96

>  <cluster>  (35) 
3

$$$$

     RDKit          3D

 52 54  0  0  0  0  0  0  0  0999 V2000
  136.8890   77.5940  220.0940 C   0  0  0  0  0  0  0  0  0  0  0  0
  137.5730   76.7110  221.0260 N   0  0  0  0  0  0  0  0  0  0  0  0
  138.0250   75.4200  220.5380 C   0  0  0  0  0  0  0  0  0  0  0  0
  139.4270   75.1520  221.0300 C   0  0  0  0  0  0  0  0  0  0  0  0
  139.4490   74.1530  222.1080 N   0  0  0  0  0  0  0  0  0  0  0  0
  140.0700   72.8900  221.8870 C   0  0  0  0  0  0  0  0  0  0  0  0
  140.6110   72.5940  220.7680 O   0  0  0  0  0  0  0  0  0  0  0  0
  140.0710   71.9340  222.9930 C   0  0  0  0  0  0  0  0  0  0  0  0
  139.5630   70.6620  222.8120 C   0  0  0  0  0  0  0  0  0  0  0  0
  139.5440   69.7240  223.8290 C   0  0  0  0  0  0  0  0  0  0  0  0
  140.0520   70.0640  225.0820 C   0  0  0  0  0  0  0  0  0  0  0  0
  140.0410   69.1410  226.1030 C   0  0  0  0  0  0  0  0  0  0  0  0
  140.5630   69.5400  227.3220 C   0  0  0  0  0  0  0  0  0  0  0  0
  140.6090   68.4510  228.7110 Cl  0  0  0  0  0  0  0  0  0  0  0  0
  141.0640   70.8190  227.4730 C   0  0  0  0  0  0  0  0  0  0  0  0
  141.0720   71.7470  226.4430 C   0  0  0  0  0  0  0  0  0  0  0  0
  140.5520   71.3470  225.2260 C   0  0  0  0  0  0  0  0  0  0  0  0
  140.5570   72.2430  224.2160 N   0  0  0  0  0  0  0  0  0  0  0  0
  137.8040   77.1030  222.4000 C   0  0  0  0  0  0  0  0  0  0  0  0
  137.9000   76.1680  223.2340 O   0  0  0  0  0  0  0  0  0  0  0  0
  137.9000   78.5260  222.6770 C   0  0  0  0  0  0  0  0  0  0  0  0
  139.1700   79.1520  222.5770 N   0  0  0  0  0  0  0  0  0  0  0  0
  140.0700   78.5860  221.6580 C   0  0  0  0  0  0  0  0  0  0  0  0
  141.4860   78.3930  222.0130 C   0  0  0  0  0  0  0  0  0  0  0  0
  141.7360   78.6360  223.4620 C   0  0  0  0  0  0  0  0  0  0  0  0
  141.1350   80.0170  223.7610 C   0  0  0  0  0  0  0  0  0  0  0  0
  139.6250   79.9480  223.6320 C   0  0  0  0  0  0  0  0  0  0  0  0
  136.3097   78.3419  220.6554 H   0  0  0  0  0  0  0  0  0  0  0  0
  137.6301   78.1039  219.4609 H   0  0  0  0  0  0  0  0  0  0  0  0
  136.2100   77.0039  219.4609 H   0  0  0  0  0  0  0  0  0  0  0  0
  137.3511   74.6331  220.9077 H   0  0  0  0  0  0  0  0  0  0  0  0
  138.0197   75.4243  219.4380 H   0  0  0  0  0  0  0  0  0  0  0  0
  140.0338   74.7822  220.1903 H   0  0  0  0  0  0  0  0  0  0  0  0
  139.8334   76.0929  221.4294 H   0  0  0  0  0  0  0  0  0  0  0  0
  139.0180   74.3490  223.0430 H   0  0  0  0  0  0  0  0  0  0  0  0
  139.1602   70.3857  221.8264 H   0  0  0  0  0  0  0  0  0  0  0  0
  139.1321   68.7198  223.6506 H   0  0  0  0  0  0  0  0  0  0  0  0
  139.6348   68.1293  225.9568 H   0  0  0  0  0  0  0  0  0  0  0  0
  141.4733   71.1129  228.4508 H   0  0  0  0  0  0  0  0  0  0  0  0
  141.4755   72.7600  226.5881 H   0  0  0  0  0  0  0  0  0  0  0  0
  137.2286   79.0397  221.9732 H   0  0  0  0  0  0  0  0  0  0  0  0
  137.6417   78.6105  223.7429 H   0  0  0  0  0  0  0  0  0  0  0  0
  139.6727   77.5932  221.4002 H   0  0  0  0  0  0  0  0  0  0  0  0
  140.1181   79.3450  220.8632 H   0  0  0  0  0  0  0  0  0  0  0  0
  141.7752   77.3596  221.7710 H   0  0  0  0  0  0  0  0  0  0  0  0
  142.0822   79.1176  221.4390 H   0  0  0  0  0  0  0  0  0  0  0  0
  141.2438   77.8634  224.0710 H   0  0  0  0  0  0  0  0  0  0  0  0
  142.8092   78.5998  223.7007 H   0  0  0  0  0  0  0  0  0  0  0  0
  141.4025   80.3200  224.7841 H   0  0  0  0  0  0  0  0  0  0  0  0
  141.5316   80.7529  223.0461 H   0  0  0  0  0  0  0  0  0  0  0  0
  139.2181   79.5414  224.5696 H   0  0  0  0  0  0  0  0  0  0  0  0
  139.2814   80.9718  223.4228 H   0  0  0  0  0  0  0  0  0  0  0  0
  1  2  1  0
  2  3  1  0
  3  4  1  0
  4  5  1  0
  5  6  1  0
  6  7  2  0
  6  8  1  0
  8  9  2  0
  9 10  1  0
 10 11  2  0
 11 12  1  0
 12 13  2  0
 13 14  1  0
 13 15  1  0
 15 16  2  0
 16 17  1  0
 17 18  2  0
  2 19  1  0
 19 20  2  0
 19 21  1  0
 21 22  1  0
 22 23  1  0
 23 24  1  0
 24 25  1  0
 25 26  1  0
 26 27  1  0
 18  8  1  0
 27 22  1  0
 17 11  1  0
  1 28  1  0
  1 29  1  0
  1 30  1  0
  3 31  1  0
  3 32  1  0
  4 33  1  0
  4 34  1  0
  5 35  1  0
  9 36  1  0
 10 37  1  0
 12 38  1  0
 15 39  1  0
 16 40  1  0
 21 41  1  0
 21 42  1  0
 23 43  1  0
 23 44  1  0
 24 45  1  0
 24 46  1  0
 25 47  1  0
 25 48  1  0
 26 49  1  0
 26 50  1  0
 27 51  1  0
 27 52  1  0
M  END
>  <smiles>  (36) 
CN(CCNC(=O)c1ccc2cc(Cl)ccc2n1)C(=O)CN1CCCCC1

>  <score_type>  (36) 
oracle

>  <origin>  (36) 
autodockgpu

>  <m_score__min__energy>  (36) 
-7.9299999999999997

>  <m_primary>  (36) 
energy

>  <rmsd>  (36) 
9.122121539116643

>  <m_score__min__rmsd>  (36) 
9.122121539116643

>  <meeko>  (36) 
{"free_energy": -6.95, "intermolecular_energy": -9.03, "internal_energy": -1.94, "cluster_size": 28, "cluster_id": 1, "rank_in_cluster": 27}

>  <energy>  (36) 
-7.47

>  <cluster_rmsd>  (36) 
1.86

>  <cluster>  (36) 
3

$$$$

     RDKit          3D

 52 54  0  0  0  0  0  0  0  0999 V2000
  137.1660   68.5880  223.1210 C   0  0  0  0  0  0  0  0  0  0  0  0
  138.0700   69.4700  223.8440 N   0  0  0  0  0  0  0  0  0  0  0  0
  137.7770   70.8930  223.8500 C   0  0  0  0  0  0  0  0  0  0  0  0
  137.7870   71.4200  222.4350 C   0  0  0  0  0  0  0  0  0  0  0  0
  138.3930   72.7570  222.3520 N   0  0  0  0  0  0  0  0  0  0  0  0
  139.5630   72.9530  221.5630 C   0  0  0  0  0  0  0  0  0  0  0  0
  140.1100   71.9930  220.9210 O   0  0  0  0  0  0  0  0  0  0  0  0
  140.1240   74.3020  221.5080 C   0  0  0  0  0  0  0  0  0  0  0  0
  141.2890   74.5420  220.8050 C   0  0  0  0  0  0  0  0  0  0  0  0
  141.8550   75.8020  220.7250 C   0  0  0  0  0  0  0  0  0  0  0  0
  141.2370   76.8720  221.3730 C   0  0  0  0  0  0  0  0  0  0  0  0
  141.7880   78.1310  221.3000 C   0  0  0  0  0  0  0  0  0  0  0  0
  141.1250   79.1500  221.9630 C   0  0  0  0  0  0  0  0  0  0  0  0
  141.7260   80.8100  221.9480 Cl  0  0  0  0  0  0  0  0  0  0  0  0
  139.9620   78.8790  222.6590 C   0  0  0  0  0  0  0  0  0  0  0  0
  139.4110   77.6100  222.7300 C   0  0  0  0  0  0  0  0  0  0  0  0
  140.0730   76.5920  222.0680 C   0  0  0  0  0  0  0  0  0  0  0  0
  139.5430   75.3520  222.1290 N   0  0  0  0  0  0  0  0  0  0  0  0
  139.2270   68.9520  224.5400 C   0  0  0  0  0  0  0  0  0  0  0  0
  139.1430   67.7650  224.9460 O   0  0  0  0  0  0  0  0  0  0  0  0
  140.3620   69.8450  224.6990 C   0  0  0  0  0  0  0  0  0  0  0  0
  140.8030   70.1530  226.0120 N   0  0  0  0  0  0  0  0  0  0  0  0
  140.7450   69.1070  226.9480 C   0  0  0  0  0  0  0  0  0  0  0  0
  140.2420   69.3450  228.3120 C   0  0  0  0  0  0  0  0  0  0  0  0
  139.6220   70.6930  228.4510 C   0  0  0  0  0  0  0  0  0  0  0  0
  140.6650   71.6860  227.9210 C   0  0  0  0  0  0  0  0  0  0  0  0
  140.8360   71.4880  226.4260 C   0  0  0  0  0  0  0  0  0  0  0  0
  136.5695   68.0060  223.8389 H   0  0  0  0  0  0  0  0  0  0  0  0
  136.4954   69.1885  222.4888 H   0  0  0  0  0  0  0  0  0  0  0  0
  137.7498   67.9028  222.4888 H   0  0  0  0  0  0  0  0  0  0  0  0
  136.7853   71.0604  224.2956 H   0  0  0  0  0  0  0  0  0  0  0  0
  138.5408   71.4200  224.4407 H   0  0  0  0  0  0  0  0  0  0  0  0
  138.3628   70.7287  221.8021 H   0  0  0  0  0  0  0  0  0  0  0  0
  136.7445   71.4964  222.0924 H   0  0  0  0  0  0  0  0  0  0  0  0
  137.9830   73.5750  222.8610 H   0  0  0  0  0  0  0  0  0  0  0  0
  141.7828   73.7036  220.2919 H   0  0  0  0  0  0  0  0  0  0  0  0
  142.7833   75.9587  220.1560 H   0  0  0  0  0  0  0  0  0  0  0  0
  142.7152   78.3197  220.7391 H   0  0  0  0  0  0  0  0  0  0  0  0
  139.4531   79.7048  223.1778 H   0  0  0  0  0  0  0  0  0  0  0  0
  138.4839   77.4196  223.2906 H   0  0  0  0  0  0  0  0  0  0  0  0
  141.2113   69.3878  224.1702 H   0  0  0  0  0  0  0  0  0  0  0  0
  140.0051   70.8070  224.3025 H   0  0  0  0  0  0  0  0  0  0  0  0
  140.1051   68.3275  226.5088 H   0  0  0  0  0  0  0  0  0  0  0  0
  141.8058   68.8694  227.1160 H   0  0  0  0  0  0  0  0  0  0  0  0
  139.4877   68.5808  228.5507 H   0  0  0  0  0  0  0  0  0  0  0  0
  141.0959   69.2908  229.0033 H   0  0  0  0  0  0  0  0  0  0  0  0
  138.6982   70.7534  227.8569 H   0  0  0  0  0  0  0  0  0  0  0  0
  139.3491   70.9089  229.4945 H   0  0  0  0  0  0  0  0  0  0  0  0
  140.3267   72.7139  228.1187 H   0  0  0  0  0  0  0  0  0  0  0  0
  141.6265   71.5135  228.4267 H   0  0  0  0  0  0  0  0  0  0  0  0
  140.0262   72.0273  225.9128 H   0  0  0  0  0  0  0  0  0  0  0  0
  141.8353   71.8707  226.1713 H   0  0  0  0  0  0  0  0  0  0  0  0
  1  2  1  0
  2  3  1  0
  3  4  1  0
  4  5  1  0
  5  6  1  0
  6  7  2  0
  6  8  1  0
  8  9  2  0
  9 10  1  0
 10 11  2  0
 11 12  1  0
 12 13  2  0
 13 14  1  0
 13 15  1  0
 15 16  2  0
 16 17  1  0
 17 18  2  0
  2 19  1  0
 19 20  2  0
 19 21  1  0
 21 22  1  0
 22 23  1  0
 23 24  1  0
 24 25  1  0
 25 26  1  0
 26 27  1  0
 18  8  1  0
 27 22  1  0
 17 11  1  0
  1 28  1  0
  1 29  1  0
  1 30  1  0
  3 31  1  0
  3 32  1  0
  4 33  1  0
  4 34  1  0
  5 35  1  0
  9 36  1  0
 10 37  1  0
 12 38  1  0
 15 39  1  0
 16 40  1  0
 21 41  1  0
 21 42  1  0
 23 43  1  0
 23 44  1  0
 24 45  1  0
 24 46  1  0
 25 47  1  0
 25 48  1  0
 26 49  1  0
 26 50  1  0
 27 51  1  0
 27 52  1  0
M  END
>  <smiles>  (37) 
CN(CCNC(=O)c1ccc2cc(Cl)ccc2n1)C(=O)CN1CCCCC1

>  <score_type>  (37) 
oracle

>  <origin>  (37) 
autodockgpu

>  <m_score__min__energy>  (37) 
-7.9299999999999997

>  <m_primary>  (37) 
energy

>  <rmsd>  (37) 
6.40693881047607

>  <m_score__min__rmsd>  (37) 
6.40693881047607

>  <meeko>  (37) 
{"free_energy": -7.61, "intermolecular_energy": -9.69, "internal_energy": -1.46, "cluster_size": 16, "cluster_id": 3, "rank_in_cluster": 1}

>  <energy>  (37) 
-7.39

>  <cluster_rmsd>  (37) 
0.72

>  <cluster>  (37) 
3

$$$$

     RDKit          3D

 52 54  0  0  0  0  0  0  0  0999 V2000
  138.5050   78.3910  221.4450 C   0  0  0  0  0  0  0  0  0  0  0  0
  139.0720   77.0540  221.5410 N   0  0  0  0  0  0  0  0  0  0  0  0
  138.1910   75.9200  221.3200 C   0  0  0  0  0  0  0  0  0  0  0  0
  139.0030   74.7200  220.8970 C   0  0  0  0  0  0  0  0  0  0  0  0
  139.2350   73.7930  222.0140 N   0  0  0  0  0  0  0  0  0  0  0  0
  139.1220   72.3890  221.8020 C   0  0  0  0  0  0  0  0  0  0  0  0
  138.8190   71.9050  220.6590 O   0  0  0  0  0  0  0  0  0  0  0  0
  139.3680   71.5100  222.9440 C   0  0  0  0  0  0  0  0  0  0  0  0
  138.9570   70.1920  222.9080 C   0  0  0  0  0  0  0  0  0  0  0  0
  139.1690   69.3230  223.9640 C   0  0  0  0  0  0  0  0  0  0  0  0
  139.8190   69.7850  225.1080 C   0  0  0  0  0  0  0  0  0  0  0  0
  140.0390   68.9320  226.1660 C   0  0  0  0  0  0  0  0  0  0  0  0
  140.6920   69.4510  227.2710 C   0  0  0  0  0  0  0  0  0  0  0  0
  141.0370   68.4630  228.6930 Cl  0  0  0  0  0  0  0  0  0  0  0  0
  141.0920   70.7740  227.2780 C   0  0  0  0  0  0  0  0  0  0  0  0
  140.8690   71.6300  226.2120 C   0  0  0  0  0  0  0  0  0  0  0  0
  140.2170   71.1110  225.1080 C   0  0  0  0  0  0  0  0  0  0  0  0
  139.9960   71.9370  224.0630 N   0  0  0  0  0  0  0  0  0  0  0  0
  140.4720   76.8520  221.8430 C   0  0  0  0  0  0  0  0  0  0  0  0
  140.7310   75.9770  222.7080 O   0  0  0  0  0  0  0  0  0  0  0  0
  141.4310   77.6740  221.1250 C   0  0  0  0  0  0  0  0  0  0  0  0
  141.8490   78.8970  221.7110 N   0  0  0  0  0  0  0  0  0  0  0  0
  141.8440   78.9450  223.1160 C   0  0  0  0  0  0  0  0  0  0  0  0
  141.3240   80.1270  223.8250 C   0  0  0  0  0  0  0  0  0  0  0  0
  140.6300   81.0710  222.9040 C   0  0  0  0  0  0  0  0  0  0  0  0
  141.6200   81.3380  221.7620 C   0  0  0  0  0  0  0  0  0  0  0  0
  141.8080   80.0690  220.9500 C   0  0  0  0  0  0  0  0  0  0  0  0
  138.3355   78.7908  222.4557 H   0  0  0  0  0  0  0  0  0  0  0  0
  139.2024   79.0470  220.9034 H   0  0  0  0  0  0  0  0  0  0  0  0
  137.5486   78.3457  220.9034 H   0  0  0  0  0  0  0  0  0  0  0  0
  137.6532   75.6878  222.2511 H   0  0  0  0  0  0  0  0  0  0  0  0
  137.4687   76.1686  220.5285 H   0  0  0  0  0  0  0  0  0  0  0  0
  138.4627   74.1882  220.1000 H   0  0  0  0  0  0  0  0  0  0  0  0
  139.9809   75.0781  220.5428 H   0  0  0  0  0  0  0  0  0  0  0  0
  139.4840   74.1420  222.9700 H   0  0  0  0  0  0  0  0  0  0  0  0
  138.4435   69.8202  222.0091 H   0  0  0  0  0  0  0  0  0  0  0  0
  138.8284   68.2789  223.9016 H   0  0  0  0  0  0  0  0  0  0  0  0
  139.7100   67.8828  226.1347 H   0  0  0  0  0  0  0  0  0  0  0  0
  141.6091   71.1635  228.1673 H   0  0  0  0  0  0  0  0  0  0  0  0
  141.1970   72.6795  226.2422 H   0  0  0  0  0  0  0  0  0  0  0  0
  142.3325   77.0625  220.9724 H   0  0  0  0  0  0  0  0  0  0  0  0
  140.8937   77.9815  220.2157 H   0  0  0  0  0  0  0  0  0  0  0  0
  141.2481   78.0859  223.4579 H   0  0  0  0  0  0  0  0  0  0  0  0
  142.9153   78.9604  223.3653 H   0  0  0  0  0  0  0  0  0  0  0  0
  140.6122   79.7945  224.5949 H   0  0  0  0  0  0  0  0  0  0  0  0
  142.1775   80.6564  224.2736 H   0  0  0  0  0  0  0  0  0  0  0  0
  139.7070   80.6175  222.5136 H   0  0  0  0  0  0  0  0  0  0  0  0
  140.3405   82.0002  223.4167 H   0  0  0  0  0  0  0  0  0  0  0  0
  141.2256   82.1338  221.1130 H   0  0  0  0  0  0  0  0  0  0  0  0
  142.5873   81.6528  222.1806 H   0  0  0  0  0  0  0  0  0  0  0  0
  140.9724   79.9885  220.2391 H   0  0  0  0  0  0  0  0  0  0  0  0
  142.7861   80.1557  220.4542 H   0  0  0  0  0  0  0  0  0  0  0  0
  1  2  1  0
  2  3  1  0
  3  4  1  0
  4  5  1  0
  5  6  1  0
  6  7  2  0
  6  8  1  0
  8  9  2  0
  9 10  1  0
 10 11  2  0
 11 12  1  0
 12 13  2  0
 13 14  1  0
 13 15  1  0
 15 16  2  0
 16 17  1  0
 17 18  2  0
  2 19  1  0
 19 20  2  0
 19 21  1  0
 21 22  1  0
 22 23  1  0
 23 24  1  0
 24 25  1  0
 25 26  1  0
 26 27  1  0
 18  8  1  0
 27 22  1  0
 17 11  1  0
  1 28  1  0
  1 29  1  0
  1 30  1  0
  3 31  1  0
  3 32  1  0
  4 33  1  0
  4 34  1  0
  5 35  1  0
  9 36  1  0
 10 37  1  0
 12 38  1  0
 15 39  1  0
 16 40  1  0
 21 41  1  0
 21 42  1  0
 23 43  1  0
 23 44  1  0
 24 45  1  0
 24 46  1  0
 25 47  1  0
 25 48  1  0
 26 49  1  0
 26 50  1  0
 27 51  1  0
 27 52  1  0
M  END
>  <smiles>  (38) 
CN(CCNC(=O)c1ccc2cc(Cl)ccc2n1)C(=O)CN1CCCCC1

>  <score_type>  (38) 
oracle

>  <origin>  (38) 
autodockgpu

>  <m_score__min__energy>  (38) 
-7.9299999999999997

>  <m_primary>  (38) 
energy

>  <rmsd>  (38) 
9.72430969640383

>  <m_score__min__rmsd>  (38) 
9.72430969640383

>  <meeko>  (38) 
{"free_energy": -7.31, "intermolecular_energy": -9.4, "internal_energy": -1.96, "cluster_size": 28, "cluster_id": 1, "rank_in_cluster": 18}

>  <energy>  (38) 
-7.37

>  <cluster_rmsd>  (38) 
1.79

>  <cluster>  (38) 
3

$$$$

     RDKit          3D

 52 54  0  0  0  0  0  0  0  0999 V2000
  141.8000   73.5280  219.7720 C   0  0  0  0  0  0  0  0  0  0  0  0
  140.6810   74.3630  220.1810 N   0  0  0  0  0  0  0  0  0  0  0  0
  139.3880   74.1220  219.5650 C   0  0  0  0  0  0  0  0  0  0  0  0
  138.3060   74.1780  220.6160 C   0  0  0  0  0  0  0  0  0  0  0  0
  138.6250   73.3350  221.7780 N   0  0  0  0  0  0  0  0  0  0  0  0
  138.6460   71.9170  221.6370 C   0  0  0  0  0  0  0  0  0  0  0  0
  138.3890   71.3490  220.5220 O   0  0  0  0  0  0  0  0  0  0  0  0
  138.9750   71.1250  222.8210 C   0  0  0  0  0  0  0  0  0  0  0  0
  138.6030   69.7960  222.8930 C   0  0  0  0  0  0  0  0  0  0  0  0
  138.8940   69.0070  223.9910 C   0  0  0  0  0  0  0  0  0  0  0  0
  139.5850   69.5630  225.0680 C   0  0  0  0  0  0  0  0  0  0  0  0
  139.8830   68.7900  226.1680 C   0  0  0  0  0  0  0  0  0  0  0  0
  140.5730   69.4010  227.2010 C   0  0  0  0  0  0  0  0  0  0  0  0
  141.0170   68.5210  228.6660 Cl  0  0  0  0  0  0  0  0  0  0  0  0
  140.9310   70.7320  227.1000 C   0  0  0  0  0  0  0  0  0  0  0  0
  140.6290   71.5070  225.9930 C   0  0  0  0  0  0  0  0  0  0  0  0
  139.9400   70.8970  224.9600 C   0  0  0  0  0  0  0  0  0  0  0  0
  139.6430   71.6430  223.8750 N   0  0  0  0  0  0  0  0  0  0  0  0
  140.8440   75.4030  221.1740 C   0  0  0  0  0  0  0  0  0  0  0  0
  140.4820   75.1130  222.3420 O   0  0  0  0  0  0  0  0  0  0  0  0
  141.4040   76.6660  220.7270 C   0  0  0  0  0  0  0  0  0  0  0  0
  140.9110   77.8680  221.3000 N   0  0  0  0  0  0  0  0  0  0  0  0
  141.7860   78.9670  221.2830 C   0  0  0  0  0  0  0  0  0  0  0  0
  141.9310   79.8300  222.4680 C   0  0  0  0  0  0  0  0  0  0  0  0
  141.2570   79.2520  223.6660 C   0  0  0  0  0  0  0  0  0  0  0  0
  139.8220   78.9340  223.2210 C   0  0  0  0  0  0  0  0  0  0  0  0
  139.8480   77.8070  222.2050 C   0  0  0  0  0  0  0  0  0  0  0  0
  142.3157   73.1432  220.6642 H   0  0  0  0  0  0  0  0  0  0  0  0
  141.4281   72.6849  219.1713 H   0  0  0  0  0  0  0  0  0  0  0  0
  142.5023   74.1246  219.1713 H   0  0  0  0  0  0  0  0  0  0  0  0
  139.1972   74.8913  218.8023 H   0  0  0  0  0  0  0  0  0  0  0  0
  139.3880   73.1277  219.0945 H   0  0  0  0  0  0  0  0  0  0  0  0
  138.1911   75.2189  220.9528 H   0  0  0  0  0  0  0  0  0  0  0  0
  137.3753   73.8010  220.1670 H   0  0  0  0  0  0  0  0  0  0  0  0
  138.8410   73.7540  222.7130 H   0  0  0  0  0  0  0  0  0  0  0  0
  138.0569   69.3506  222.0484 H   0  0  0  0  0  0  0  0  0  0  0  0
  138.5838   67.9519  224.0149 H   0  0  0  0  0  0  0  0  0  0  0  0
  139.5855   67.7324  226.2235 H   0  0  0  0  0  0  0  0  0  0  0  0
  141.4788   71.1951  227.9339 H   0  0  0  0  0  0  0  0  0  0  0  0
  140.9250   72.5650  225.9372 H   0  0  0  0  0  0  0  0  0  0  0  0
  142.4850   76.6306  220.9275 H   0  0  0  0  0  0  0  0  0  0  0  0
  141.1083   76.7316  219.6695 H   0  0  0  0  0  0  0  0  0  0  0  0
  142.7868   78.5687  221.0598 H   0  0  0  0  0  0  0  0  0  0  0  0
  141.3226   79.6386  220.5452 H   0  0  0  0  0  0  0  0  0  0  0  0
  143.0016   79.9540  222.6881 H   0  0  0  0  0  0  0  0  0  0  0  0
  141.4561   80.7967  222.2444 H   0  0  0  0  0  0  0  0  0  0  0  0
  141.7705   78.3347  223.9900 H   0  0  0  0  0  0  0  0  0  0  0  0
  141.2737   79.9484  224.5173 H   0  0  0  0  0  0  0  0  0  0  0  0
  139.2264   78.6279  224.0936 H   0  0  0  0  0  0  0  0  0  0  0  0
  139.3713   79.8285  222.7664 H   0  0  0  0  0  0  0  0  0  0  0  0
  139.9152   76.8541  222.7504 H   0  0  0  0  0  0  0  0  0  0  0  0
  138.9261   77.8987  221.6119 H   0  0  0  0  0  0  0  0  0  0  0  0
  1  2  1  0
  2  3  1  0
  3  4  1  0
  4  5  1  0
  5  6  1  0
  6  7  2  0
  6  8  1  0
  8  9  2  0
  9 10  1  0
 10 11  2  0
 11 12  1  0
 12 13  2  0
 13 14  1  0
 13 15  1  0
 15 16  2  0
 16 17  1  0
 17 18  2  0
  2 19  1  0
 19 20  2  0
 19 21  1  0
 21 22  1  0
 22 23  1  0
 23 24  1  0
 24 25  1  0
 25 26  1  0
 26 27  1  0
 18  8  1  0
 27 22  1  0
 17 11  1  0
  1 28  1  0
  1 29  1  0
  1 30  1  0
  3 31  1  0
  3 32  1  0
  4 33  1  0
  4 34  1  0
  5 35  1  0
  9 36  1  0
 10 37  1  0
 12 38  1  0
 15 39  1  0
 16 40  1  0
 21 41  1  0
 21 42  1  0
 23 43  1  0
 23 44  1  0
 24 45  1  0
 24 46  1  0
 25 47  1  0
 25 48  1  0
 26 49  1  0
 26 50  1  0
 27 51  1  0
 27 52  1  0
M  END
>  <smiles>  (39) 
CN(CCNC(=O)c1ccc2cc(Cl)ccc2n1)C(=O)CN1CCCCC1

>  <score_type>  (39) 
oracle

>  <origin>  (39) 
autodockgpu

>  <m_score__min__energy>  (39) 
-7.9299999999999997

>  <m_primary>  (39) 
energy

>  <rmsd>  (39) 
9.217108627854662

>  <m_score__min__rmsd>  (39) 
9.217108627854662

>  <meeko>  (39) 
{"free_energy": -7.15, "intermolecular_energy": -9.24, "internal_energy": -2.07, "cluster_size": 28, "cluster_id": 1, "rank_in_cluster": 24}

>  <energy>  (39) 
-7.34

>  <cluster_rmsd>  (39) 
0.97

>  <cluster>  (39) 
3

$$$$

     RDKit          3D

 52 54  0  0  0  0  0  0  0  0999 V2000
  138.4540   68.3380  222.4190 C   0  0  0  0  0  0  0  0  0  0  0  0
  138.2620   69.4990  223.2750 N   0  0  0  0  0  0  0  0  0  0  0  0
  138.4540   70.8160  222.6930 C   0  0  0  0  0  0  0  0  0  0  0  0
  139.9040   71.2180  222.8130 C   0  0  0  0  0  0  0  0  0  0  0  0
  140.0990   72.6530  222.5590 N   0  0  0  0  0  0  0  0  0  0  0  0
  141.0220   73.0740  221.5590 C   0  0  0  0  0  0  0  0  0  0  0  0
  141.6950   72.2350  220.8700 O   0  0  0  0  0  0  0  0  0  0  0  0
  141.1750   74.5120  221.3420 C   0  0  0  0  0  0  0  0  0  0  0  0
  141.9930   74.9790  220.3310 C   0  0  0  0  0  0  0  0  0  0  0  0
  142.1670   76.3300  220.0880 C   0  0  0  0  0  0  0  0  0  0  0  0
  141.4980   77.2590  220.8850 C   0  0  0  0  0  0  0  0  0  0  0  0
  141.6600   78.6070  220.6530 C   0  0  0  0  0  0  0  0  0  0  0  0
  140.9660   79.4770  221.4770 C   0  0  0  0  0  0  0  0  0  0  0  0
  141.0860   81.2280  221.2850 Cl  0  0  0  0  0  0  0  0  0  0  0  0
  140.1550   78.9800  222.4790 C   0  0  0  0  0  0  0  0  0  0  0  0
  139.9950   77.6230  222.7100 C   0  0  0  0  0  0  0  0  0  0  0  0
  140.6870   76.7540  221.8860 C   0  0  0  0  0  0  0  0  0  0  0  0
  140.5370   75.4300  222.1020 N   0  0  0  0  0  0  0  0  0  0  0  0
  137.8870   69.3530  224.6640 C   0  0  0  0  0  0  0  0  0  0  0  0
  136.7920   69.8700  225.0000 O   0  0  0  0  0  0  0  0  0  0  0  0
  138.8060   68.6290  225.5270 C   0  0  0  0  0  0  0  0  0  0  0  0
  139.9240   69.3220  226.0590 N   0  0  0  0  0  0  0  0  0  0  0  0
  140.5780   68.7060  227.1400 C   0  0  0  0  0  0  0  0  0  0  0  0
  141.0010   69.4950  228.3110 C   0  0  0  0  0  0  0  0  0  0  0  0
  140.4480   70.8780  228.2820 C   0  0  0  0  0  0  0  0  0  0  0  0
  140.8180   71.4440  226.9030 C   0  0  0  0  0  0  0  0  0  0  0  0
  140.0510   70.6950  225.8290 C   0  0  0  0  0  0  0  0  0  0  0  0
  138.6019   67.4436  223.0420 H   0  0  0  0  0  0  0  0  0  0  0  0
  137.5665   68.1999  221.7840 H   0  0  0  0  0  0  0  0  0  0  0  0
  139.3387   68.4929  221.7840 H   0  0  0  0  0  0  0  0  0  0  0  0
  138.1678   70.7919  221.6312 H   0  0  0  0  0  0  0  0  0  0  0  0
  137.8279   71.5456  223.2275 H   0  0  0  0  0  0  0  0  0  0  0  0
  140.2541   70.9862  223.8297 H   0  0  0  0  0  0  0  0  0  0  0  0
  140.4761   70.6579  222.0587 H   0  0  0  0  0  0  0  0  0  0  0  0
  139.5720   73.3790  223.0990 H   0  0  0  0  0  0  0  0  0  0  0  0
  142.5236   74.2524  219.6981 H   0  0  0  0  0  0  0  0  0  0  0  0
  142.8261   76.6680  219.2747 H   0  0  0  0  0  0  0  0  0  0  0  0
  142.3124   78.9764  219.8481 H   0  0  0  0  0  0  0  0  0  0  0  0
  139.6137   79.6912  223.1202 H   0  0  0  0  0  0  0  0  0  0  0  0
  139.3443   77.2522  223.5157 H   0  0  0  0  0  0  0  0  0  0  0  0
  138.2220   68.2520  226.3795 H   0  0  0  0  0  0  0  0  0  0  0  0
  139.2498   67.8675  224.8688 H   0  0  0  0  0  0  0  0  0  0  0  0
  139.8991   67.9260  227.5151 H   0  0  0  0  0  0  0  0  0  0  0  0
  141.5345   68.3881  226.6995 H   0  0  0  0  0  0  0  0  0  0  0  0
  140.6503   68.9914  229.2239 H   0  0  0  0  0  0  0  0  0  0  0  0
  142.0985   69.5677  228.2930 H   0  0  0  0  0  0  0  0  0  0  0  0
  139.3554   70.8570  228.4075 H   0  0  0  0  0  0  0  0  0  0  0  0
  140.8544   71.4952  229.0968 H   0  0  0  0  0  0  0  0  0  0  0  0
  140.5578   72.5120  226.8627 H   0  0  0  0  0  0  0  0  0  0  0  0
  141.8984   71.3244  226.7343 H   0  0  0  0  0  0  0  0  0  0  0  0
  139.0416   71.1272  225.7628 H   0  0  0  0  0  0  0  0  0  0  0  0
  140.6273   70.8046  224.8985 H   0  0  0  0  0  0  0  0  0  0  0  0
  1  2  1  0
  2  3  1  0
  3  4  1  0
  4  5  1  0
  5  6  1  0
  6  7  2  0
  6  8  1  0
  8  9  2  0
  9 10  1  0
 10 11  2  0
 11 12  1  0
 12 13  2  0
 13 14  1  0
 13 15  1  0
 15 16  2  0
 16 17  1  0
 17 18  2  0
  2 19  1  0
 19 20  2  0
 19 21  1  0
 21 22  1  0
 22 23  1  0
 23 24  1  0
 24 25  1  0
 25 26  1  0
 26 27  1  0
 18  8  1  0
 27 22  1  0
 17 11  1  0
  1 28  1  0
  1 29  1  0
  1 30  1  0
  3 31  1  0
  3 32  1  0
  4 33  1  0
  4 34  1  0
  5 35  1  0
  9 36  1  0
 10 37  1  0
 12 38  1  0
 15 39  1  0
 16 40  1  0
 21 41  1  0
 21 42  1  0
 23 43  1  0
 23 44  1  0
 24 45  1  0
 24 46  1  0
 25 47  1  0
 25 48  1  0
 26 49  1  0
 26 50  1  0
 27 51  1  0
 27 52  1  0
M  END
>  <smiles>  (40) 
CN(CCNC(=O)c1ccc2cc(Cl)ccc2n1)C(=O)CN1CCCCC1

>  <score_type>  (40) 
oracle

>  <origin>  (40) 
autodockgpu

>  <m_score__min__energy>  (40) 
-7.9299999999999997

>  <m_primary>  (40) 
energy

>  <rmsd>  (40) 
6.240665695273871

>  <m_score__min__rmsd>  (40) 
6.240665695273871

>  <meeko>  (40) 
{"free_energy": -7.19, "intermolecular_energy": -9.28, "internal_energy": -1.34, "cluster_size": 16, "cluster_id": 3, "rank_in_cluster": 11}

>  <energy>  (40) 
-7.31

>  <cluster_rmsd>  (40) 
1.88

>  <cluster>  (40) 
3

$$$$

     RDKit          3D

 52 54  0  0  0  0  0  0  0  0999 V2000
  141.6910   77.4680  220.1640 C   0  0  0  0  0  0  0  0  0  0  0  0
  140.7820   76.5390  220.8190 N   0  0  0  0  0  0  0  0  0  0  0  0
  140.6100   75.2220  220.2310 C   0  0  0  0  0  0  0  0  0  0  0  0
  139.2790   74.6480  220.6520 C   0  0  0  0  0  0  0  0  0  0  0  0
  139.4100   73.7460  221.8060 N   0  0  0  0  0  0  0  0  0  0  0  0
  139.4380   72.3370  221.6010 C   0  0  0  0  0  0  0  0  0  0  0  0
  139.3480   71.8260  220.4330 O   0  0  0  0  0  0  0  0  0  0  0  0
  139.5760   71.4840  222.7800 C   0  0  0  0  0  0  0  0  0  0  0  0
  139.1180   70.1810  222.7530 C   0  0  0  0  0  0  0  0  0  0  0  0
  139.2280   69.3380  223.8450 C   0  0  0  0  0  0  0  0  0  0  0  0
  139.8200   69.8100  225.0160 C   0  0  0  0  0  0  0  0  0  0  0  0
  139.9390   68.9820  226.1090 C   0  0  0  0  0  0  0  0  0  0  0  0
  140.5380   69.5100  227.2400 C   0  0  0  0  0  0  0  0  0  0  0  0
  140.7520   68.5530  228.7080 Cl  0  0  0  0  0  0  0  0  0  0  0  0
  140.9870   70.8170  227.2370 C   0  0  0  0  0  0  0  0  0  0  0  0
  140.8660   71.6480  226.1350 C   0  0  0  0  0  0  0  0  0  0  0  0
  140.2670   71.1200  225.0060 C   0  0  0  0  0  0  0  0  0  0  0  0
  140.1460   71.9210  223.9260 N   0  0  0  0  0  0  0  0  0  0  0  0
  140.0710   76.9090  222.0240 C   0  0  0  0  0  0  0  0  0  0  0  0
  139.9430   76.0070  222.8890 O   0  0  0  0  0  0  0  0  0  0  0  0
  139.5810   78.2730  222.1130 C   0  0  0  0  0  0  0  0  0  0  0  0
  140.3150   79.2090  222.8870 N   0  0  0  0  0  0  0  0  0  0  0  0
  140.1320   80.5630  222.5620 C   0  0  0  0  0  0  0  0  0  0  0  0
  141.2820   81.4800  222.4850 C   0  0  0  0  0  0  0  0  0  0  0  0
  142.5820   80.7530  222.5500 C   0  0  0  0  0  0  0  0  0  0  0  0
  142.4960   79.8630  223.7980 C   0  0  0  0  0  0  0  0  0  0  0  0
  141.4550   78.7810  223.5750 C   0  0  0  0  0  0  0  0  0  0  0  0
  142.2464   78.0356  220.9251 H   0  0  0  0  0  0  0  0  0  0  0  0
  142.3987   76.9071  219.5359 H   0  0  0  0  0  0  0  0  0  0  0  0
  141.1148   78.1634  219.5359 H   0  0  0  0  0  0  0  0  0  0  0  0
  140.6428   75.3038  219.1345 H   0  0  0  0  0  0  0  0  0  0  0  0
  141.4181   74.5602  220.5759 H   0  0  0  0  0  0  0  0  0  0  0  0
  138.6048   75.4743  220.9215 H   0  0  0  0  0  0  0  0  0  0  0  0
  138.8772   74.0664  219.8092 H   0  0  0  0  0  0  0  0  0  0  0  0
  139.4850   74.1180  222.7820 H   0  0  0  0  0  0  0  0  0  0  0  0
  138.6503   69.8008  221.8329 H   0  0  0  0  0  0  0  0  0  0  0  0
  138.8521   68.3057  223.7898 H   0  0  0  0  0  0  0  0  0  0  0  0
  139.5737   67.9447  226.0849 H   0  0  0  0  0  0  0  0  0  0  0  0
  141.4601   71.2140  228.1473 H   0  0  0  0  0  0  0  0  0  0  0  0
  141.2314   72.6853  226.1572 H   0  0  0  0  0  0  0  0  0  0  0  0
  139.5322   78.6676  221.0874 H   0  0  0  0  0  0  0  0  0  0  0  0
  138.6219   78.1795  222.6436 H   0  0  0  0  0  0  0  0  0  0  0  0
  139.6450   80.5864  221.5760 H   0  0  0  0  0  0  0  0  0  0  0  0
  139.5687   80.9482  223.4247 H   0  0  0  0  0  0  0  0  0  0  0  0
  141.2318   82.0335  221.5357 H   0  0  0  0  0  0  0  0  0  0  0  0
  141.2308   82.1619  223.3466 H   0  0  0  0  0  0  0  0  0  0  0  0
  142.7234   80.1381  221.6490 H   0  0  0  0  0  0  0  0  0  0  0  0
  143.4339   81.4469  222.6031 H   0  0  0  0  0  0  0  0  0  0  0  0
  143.4749   79.3975  223.9849 H   0  0  0  0  0  0  0  0  0  0  0  0
  142.2100   80.4746  224.6664 H   0  0  0  0  0  0  0  0  0  0  0  0
  141.9210   77.9691  222.9972 H   0  0  0  0  0  0  0  0  0  0  0  0
  141.1180   78.4595  224.5715 H   0  0  0  0  0  0  0  0  0  0  0  0
  1  2  1  0
  2  3  1  0
  3  4  1  0
  4  5  1  0
  5  6  1  0
  6  7  2  0
  6  8  1  0
  8  9  2  0
  9 10  1  0
 10 11  2  0
 11 12  1  0
 12 13  2  0
 13 14  1  0
 13 15  1  0
 15 16  2  0
 16 17  1  0
 17 18  2  0
  2 19  1  0
 19 20  2  0
 19 21  1  0
 21 22  1  0
 22 23  1  0
 23 24  1  0
 24 25  1  0
 25 26  1  0
 26 27  1  0
 18  8  1  0
 27 22  1  0
 17 11  1  0
  1 28  1  0
  1 29  1  0
  1 30  1  0
  3 31  1  0
  3 32  1  0
  4 33  1  0
  4 34  1  0
  5 35  1  0
  9 36  1  0
 10 37  1  0
 12 38  1  0
 15 39  1  0
 16 40  1  0
 21 41  1  0
 21 42  1  0
 23 43  1  0
 23 44  1  0
 24 45  1  0
 24 46  1  0
 25 47  1  0
 25 48  1  0
 26 49  1  0
 26 50  1  0
 27 51  1  0
 27 52  1  0
M  END
>  <smiles>  (41) 
CN(CCNC(=O)c1ccc2cc(Cl)ccc2n1)C(=O)CN1CCCCC1

>  <score_type>  (41) 
oracle

>  <origin>  (41) 
autodockgpu

>  <m_score__min__energy>  (41) 
-7.9299999999999997

>  <m_primary>  (41) 
energy

>  <rmsd>  (41) 
9.450419947024894

>  <m_score__min__rmsd>  (41) 
9.450419947024894

>  <meeko>  (41) 
{"free_energy": -7.46, "intermolecular_energy": -9.55, "internal_energy": -1.82, "cluster_size": 28, "cluster_id": 1, "rank_in_cluster": 8}

>  <energy>  (41) 
-7.29

>  <cluster_rmsd>  (41) 
1.9

>  <cluster>  (41) 
3

$$$$

     RDKit          3D

 52 54  0  0  0  0  0  0  0  0999 V2000
  138.4960   68.9360  222.2300 C   0  0  0  0  0  0  0  0  0  0  0  0
  137.6200   69.6900  223.1140 N   0  0  0  0  0  0  0  0  0  0  0  0
  136.2330   69.2750  223.2190 C   0  0  0  0  0  0  0  0  0  0  0  0
  135.8220   69.2350  224.6720 C   0  0  0  0  0  0  0  0  0  0  0  0
  135.2110   70.5010  225.1040 N   0  0  0  0  0  0  0  0  0  0  0  0
  134.1070   70.4800  226.0040 C   0  0  0  0  0  0  0  0  0  0  0  0
  133.6240   69.3840  226.4500 O   0  0  0  0  0  0  0  0  0  0  0  0
  133.5400   71.7650  226.4080 C   0  0  0  0  0  0  0  0  0  0  0  0
  132.3740   71.8080  227.1480 C   0  0  0  0  0  0  0  0  0  0  0  0
  131.8010   73.0010  227.5530 C   0  0  0  0  0  0  0  0  0  0  0  0
  132.4140   74.2050  227.2080 C   0  0  0  0  0  0  0  0  0  0  0  0
  131.8560   75.4000  227.6050 C   0  0  0  0  0  0  0  0  0  0  0  0
  132.5140   76.5590  227.2330 C   0  0  0  0  0  0  0  0  0  0  0  0
  131.9050   78.1550  227.6790 Cl  0  0  0  0  0  0  0  0  0  0  0  0
  133.6790   76.4850  226.4920 C   0  0  0  0  0  0  0  0  0  0  0  0
  134.2370   75.2810  226.0930 C   0  0  0  0  0  0  0  0  0  0  0  0
  133.5790   74.1230  226.4660 C   0  0  0  0  0  0  0  0  0  0  0  0
  134.1160   72.9440  226.0840 N   0  0  0  0  0  0  0  0  0  0  0  0
  138.1120   70.8200  223.8720 C   0  0  0  0  0  0  0  0  0  0  0  0
  137.4150   71.8650  223.8230 O   0  0  0  0  0  0  0  0  0  0  0  0
  139.3520   70.6370  224.6070 C   0  0  0  0  0  0  0  0  0  0  0  0
  139.3270   69.8620  225.7960 N   0  0  0  0  0  0  0  0  0  0  0  0
  140.0420   70.3800  226.8890 C   0  0  0  0  0  0  0  0  0  0  0  0
  140.8870   69.5030  227.7180 C   0  0  0  0  0  0  0  0  0  0  0  0
  141.0510   68.1510  227.1140 C   0  0  0  0  0  0  0  0  0  0  0  0
  139.6280   67.6530  226.8190 C   0  0  0  0  0  0  0  0  0  0  0  0
  139.0160   68.5010  225.7190 C   0  0  0  0  0  0  0  0  0  0  0  0
  139.1943   68.3350  222.8310 H   0  0  0  0  0  0  0  0  0  0  0  0
  137.8921   68.2708  221.5954 H   0  0  0  0  0  0  0  0  0  0  0  0
  139.0639   69.6322  221.5954 H   0  0  0  0  0  0  0  0  0  0  0  0
  135.5955   69.9900  222.6783 H   0  0  0  0  0  0  0  0  0  0  0  0
  136.1185   68.2728  222.7804 H   0  0  0  0  0  0  0  0  0  0  0  0
  135.0943   68.4224  224.8135 H   0  0  0  0  0  0  0  0  0  0  0  0
  136.7252   69.0683  225.2773 H   0  0  0  0  0  0  0  0  0  0  0  0
  135.5710   71.4240  224.7650 H   0  0  0  0  0  0  0  0  0  0  0  0
  131.8847   70.8624  227.4245 H   0  0  0  0  0  0  0  0  0  0  0  0
  130.8714   72.9994  228.1411 H   0  0  0  0  0  0  0  0  0  0  0  0
  130.9268   75.4317  228.1928 H   0  0  0  0  0  0  0  0  0  0  0  0
  134.1835   77.4202  226.2076 H   0  0  0  0  0  0  0  0  0  0  0  0
  135.1653   75.2476  225.5037 H   0  0  0  0  0  0  0  0  0  0  0  0
  140.0675   70.1582  223.9224 H   0  0  0  0  0  0  0  0  0  0  0  0
  139.6129   71.6488  224.9508 H   0  0  0  0  0  0  0  0  0  0  0  0
  140.7007   71.1654  226.4899 H   0  0  0  0  0  0  0  0  0  0  0  0
  139.2441   70.6806  227.5840 H   0  0  0  0  0  0  0  0  0  0  0  0
  141.8790   69.9657  227.8272 H   0  0  0  0  0  0  0  0  0  0  0  0
  140.3946   69.3812  228.6941 H   0  0  0  0  0  0  0  0  0  0  0  0
  141.6357   68.2144  226.1844 H   0  0  0  0  0  0  0  0  0  0  0  0
  141.5892   67.4677  227.7874 H   0  0  0  0  0  0  0  0  0  0  0  0
  139.6665   66.6027  226.4945 H   0  0  0  0  0  0  0  0  0  0  0  0
  139.0147   67.7321  227.7287 H   0  0  0  0  0  0  0  0  0  0  0  0
  139.3754   68.1205  224.7515 H   0  0  0  0  0  0  0  0  0  0  0  0
  137.9248   68.4222  225.8333 H   0  0  0  0  0  0  0  0  0  0  0  0
  1  2  1  0
  2  3  1  0
  3  4  1  0
  4  5  1  0
  5  6  1  0
  6  7  2  0
  6  8  1  0
  8  9  2  0
  9 10  1  0
 10 11  2  0
 11 12  1  0
 12 13  2  0
 13 14  1  0
 13 15  1  0
 15 16  2  0
 16 17  1  0
 17 18  2  0
  2 19  1  0
 19 20  2  0
 19 21  1  0
 21 22  1  0
 22 23  1  0
 23 24  1  0
 24 25  1  0
 25 26  1  0
 26 27  1  0
 18  8  1  0
 27 22  1  0
 17 11  1  0
  1 28  1  0
  1 29  1  0
  1 30  1  0
  3 31  1  0
  3 32  1  0
  4 33  1  0
  4 34  1  0
  5 35  1  0
  9 36  1  0
 10 37  1  0
 12 38  1  0
 15 39  1  0
 16 40  1  0
 21 41  1  0
 21 42  1  0
 23 43  1  0
 23 44  1  0
 24 45  1  0
 24 46  1  0
 25 47  1  0
 25 48  1  0
 26 49  1  0
 26 50  1  0
 27 51  1  0
 27 52  1  0
M  END
>  <smiles>  (42) 
CN(CCNC(=O)c1ccc2cc(Cl)ccc2n1)C(=O)CN1CCCCC1

>  <score_type>  (42) 
oracle

>  <origin>  (42) 
autodockgpu

>  <m_score__min__energy>  (42) 
-7.9299999999999997

>  <m_primary>  (42) 
energy

>  <rmsd>  (42) 
9.14326768372443

>  <m_score__min__rmsd>  (42) 
9.14326768372443

>  <meeko>  (42) 
{"free_energy": -6.91, "intermolecular_energy": -9.0, "internal_energy": -2.22, "cluster_size": 3, "cluster_id": 2, "rank_in_cluster": 2}

>  <energy>  (42) 
-7.19

>  <cluster_rmsd>  (42) 
1.24

>  <cluster>  (42) 
3

$$$$

     RDKit          3D

 52 54  0  0  0  0  0  0  0  0999 V2000
  138.9800   77.5350  219.7620 C   0  0  0  0  0  0  0  0  0  0  0  0
  139.2780   76.4150  220.6420 N   0  0  0  0  0  0  0  0  0  0  0  0
  139.3300   75.0850  220.0610 C   0  0  0  0  0  0  0  0  0  0  0  0
  138.1500   74.2740  220.5390 C   0  0  0  0  0  0  0  0  0  0  0  0
  138.4960   73.4270  221.6900 N   0  0  0  0  0  0  0  0  0  0  0  0
  138.3640   72.0120  221.5900 C   0  0  0  0  0  0  0  0  0  0  0  0
  137.9460   71.4500  220.5210 O   0  0  0  0  0  0  0  0  0  0  0  0
  138.7270   71.2150  222.7600 C   0  0  0  0  0  0  0  0  0  0  0  0
  138.2110   69.9430  222.9220 C   0  0  0  0  0  0  0  0  0  0  0  0
  138.5270   69.1520  224.0120 C   0  0  0  0  0  0  0  0  0  0  0  0
  139.3940   69.6460  224.9860 C   0  0  0  0  0  0  0  0  0  0  0  0
  139.7190   68.8690  226.0760 C   0  0  0  0  0  0  0  0  0  0  0  0
  140.5870   69.4160  227.0050 C   0  0  0  0  0  0  0  0  0  0  0  0
  141.0840   68.5250  228.4460 Cl  0  0  0  0  0  0  0  0  0  0  0  0
  141.0870   70.6910  226.8170 C   0  0  0  0  0  0  0  0  0  0  0  0
  140.7570   71.4700  225.7190 C   0  0  0  0  0  0  0  0  0  0  0  0
  139.8910   70.9230  224.7910 C   0  0  0  0  0  0  0  0  0  0  0  0
  139.5650   71.6740  223.7170 N   0  0  0  0  0  0  0  0  0  0  0  0
  139.5200   76.6140  222.0550 C   0  0  0  0  0  0  0  0  0  0  0  0
  140.0130   75.6380  222.6740 O   0  0  0  0  0  0  0  0  0  0  0  0
  139.1710   77.9100  222.6110 C   0  0  0  0  0  0  0  0  0  0  0  0
  140.2110   78.7340  223.1150 N   0  0  0  0  0  0  0  0  0  0  0  0
  139.9120   80.1010  223.2430 C   0  0  0  0  0  0  0  0  0  0  0  0
  140.8830   81.1250  222.8230 C   0  0  0  0  0  0  0  0  0  0  0  0
  142.0260   80.5360  222.0700 C   0  0  0  0  0  0  0  0  0  0  0  0
  142.5650   79.4020  222.9550 C   0  0  0  0  0  0  0  0  0  0  0  0
  141.5340   78.2910  223.0320 C   0  0  0  0  0  0  0  0  0  0  0  0
  138.7436   78.4233  220.3662 H   0  0  0  0  0  0  0  0  0  0  0  0
  139.8535   77.7451  219.1273 H   0  0  0  0  0  0  0  0  0  0  0  0
  138.1176   77.2832  219.1273 H   0  0  0  0  0  0  0  0  0  0  0  0
  139.2993   75.1637  218.9643 H   0  0  0  0  0  0  0  0  0  0  0  0
  140.2619   74.5889  220.3700 H   0  0  0  0  0  0  0  0  0  0  0  0
  137.3424   74.9606  220.8329 H   0  0  0  0  0  0  0  0  0  0  0  0
  137.8325   73.6170  219.7159 H   0  0  0  0  0  0  0  0  0  0  0  0
  138.8410   73.8410  222.5880 H   0  0  0  0  0  0  0  0  0  0  0  0
  137.5259   69.5463  222.1583 H   0  0  0  0  0  0  0  0  0  0  0  0
  138.0987   68.1435  224.1094 H   0  0  0  0  0  0  0  0  0  0  0  0
  139.3064   67.8572  226.2027 H   0  0  0  0  0  0  0  0  0  0  0  0
  141.7748   71.1042  227.5694 H   0  0  0  0  0  0  0  0  0  0  0  0
  141.1677   72.4825  225.5914 H   0  0  0  0  0  0  0  0  0  0  0  0
  138.6631   78.4775  221.8173 H   0  0  0  0  0  0  0  0  0  0  0  0
  138.5661   77.6682  223.4974 H   0  0  0  0  0  0  0  0  0  0  0  0
  138.9963   80.2783  222.6599 H   0  0  0  0  0  0  0  0  0  0  0  0
  139.8642   80.2407  224.3330 H   0  0  0  0  0  0  0  0  0  0  0  0
  140.3721   81.8555  222.1786 H   0  0  0  0  0  0  0  0  0  0  0  0
  141.2839   81.6043  223.7283 H   0  0  0  0  0  0  0  0  0  0  0  0
  141.6844   80.1386  221.1029 H   0  0  0  0  0  0  0  0  0  0  0  0
  142.8007   81.2866  221.8545 H   0  0  0  0  0  0  0  0  0  0  0  0
  143.4966   79.0091  222.5216 H   0  0  0  0  0  0  0  0  0  0  0  0
  142.7665   79.7877  223.9653 H   0  0  0  0  0  0  0  0  0  0  0  0
  141.6320   77.6680  222.1307 H   0  0  0  0  0  0  0  0  0  0  0  0
  141.7381   77.7380  223.9608 H   0  0  0  0  0  0  0  0  0  0  0  0
  1  2  1  0
  2  3  1  0
  3  4  1  0
  4  5  1  0
  5  6  1  0
  6  7  2  0
  6  8  1  0
  8  9  2  0
  9 10  1  0
 10 11  2  0
 11 12  1  0
 12 13  2  0
 13 14  1  0
 13 15  1  0
 15 16  2  0
 16 17  1  0
 17 18  2  0
  2 19  1  0
 19 20  2  0
 19 21  1  0
 21 22  1  0
 22 23  1  0
 23 24  1  0
 24 25  1  0
 25 26  1  0
 26 27  1  0
 18  8  1  0
 27 22  1  0
 17 11  1  0
  1 28  1  0
  1 29  1  0
  1 30  1  0
  3 31  1  0
  3 32  1  0
  4 33  1  0
  4 34  1  0
  5 35  1  0
  9 36  1  0
 10 37  1  0
 12 38  1  0
 15 39  1  0
 16 40  1  0
 21 41  1  0
 21 42  1  0
 23 43  1  0
 23 44  1  0
 24 45  1  0
 24 46  1  0
 25 47  1  0
 25 48  1  0
 26 49  1  0
 26 50  1  0
 27 51  1  0
 27 52  1  0
M  END
>  <smiles>  (43) 
CN(CCNC(=O)c1ccc2cc(Cl)ccc2n1)C(=O)CN1CCCCC1

>  <score_type>  (43) 
oracle

>  <origin>  (43) 
autodockgpu

>  <m_score__min__energy>  (43) 
-7.9299999999999997

>  <m_primary>  (43) 
energy

>  <rmsd>  (43) 
9.465197927286514

>  <m_score__min__rmsd>  (43) 
9.465197927286514

>  <meeko>  (43) 
{"free_energy": -6.95, "intermolecular_energy": -9.04, "internal_energy": -1.99, "cluster_size": 28, "cluster_id": 1, "rank_in_cluster": 26}

>  <energy>  (43) 
-7.15

>  <cluster_rmsd>  (43) 
1.74

>  <cluster>  (43) 
3

$$$$

     RDKit          3D

 52 54  0  0  0  0  0  0  0  0999 V2000
  139.0640   68.1770  224.7400 C   0  0  0  0  0  0  0  0  0  0  0  0
  138.9760   69.2990  223.8180 N   0  0  0  0  0  0  0  0  0  0  0  0
  138.5600   69.0300  222.4530 C   0  0  0  0  0  0  0  0  0  0  0  0
  137.0580   68.8790  222.4000 C   0  0  0  0  0  0  0  0  0  0  0  0
  136.3740   69.9240  223.1750 N   0  0  0  0  0  0  0  0  0  0  0  0
  135.3590   69.5620  224.1070 C   0  0  0  0  0  0  0  0  0  0  0  0
  135.0190   68.3440  224.2900 O   0  0  0  0  0  0  0  0  0  0  0  0
  134.7130   70.6380  224.8560 C   0  0  0  0  0  0  0  0  0  0  0  0
  133.8350   70.3420  225.8800 C   0  0  0  0  0  0  0  0  0  0  0  0
  133.2010   71.3270  226.6170 C   0  0  0  0  0  0  0  0  0  0  0  0
  133.4520   72.6670  226.3230 C   0  0  0  0  0  0  0  0  0  0  0  0
  132.8300   73.6590  227.0490 C   0  0  0  0  0  0  0  0  0  0  0  0
  133.1230   74.9680  226.7100 C   0  0  0  0  0  0  0  0  0  0  0  0
  132.3950   76.3320  227.5630 Cl  0  0  0  0  0  0  0  0  0  0  0  0
  134.0070   75.2340  225.6810 C   0  0  0  0  0  0  0  0  0  0  0  0
  134.6300   74.2340  224.9520 C   0  0  0  0  0  0  0  0  0  0  0  0
  134.3370   72.9260  225.2910 C   0  0  0  0  0  0  0  0  0  0  0  0
  134.9410   71.9440  224.5880 N   0  0  0  0  0  0  0  0  0  0  0  0
  139.2910   70.6460  224.2430 C   0  0  0  0  0  0  0  0  0  0  0  0
  138.3230   71.4450  224.3080 O   0  0  0  0  0  0  0  0  0  0  0  0
  140.6800   70.9380  224.5500 C   0  0  0  0  0  0  0  0  0  0  0  0
  141.1180   70.8140  225.8940 N   0  0  0  0  0  0  0  0  0  0  0  0
  141.2170   69.5050  226.3960 C   0  0  0  0  0  0  0  0  0  0  0  0
  140.7290   69.1790  227.7470 C   0  0  0  0  0  0  0  0  0  0  0  0
  139.9510   70.3010  228.3460 C   0  0  0  0  0  0  0  0  0  0  0  0
  140.8480   71.5410  228.2210 C   0  0  0  0  0  0  0  0  0  0  0  0
  140.9980   71.9080  226.7560 C   0  0  0  0  0  0  0  0  0  0  0  0
  139.0348   68.5495  225.7746 H   0  0  0  0  0  0  0  0  0  0  0  0
  138.2165   67.4964  224.5712 H   0  0  0  0  0  0  0  0  0  0  0  0
  140.0073   67.6368  224.5712 H   0  0  0  0  0  0  0  0  0  0  0  0
  138.8668   69.8649  221.8058 H   0  0  0  0  0  0  0  0  0  0  0  0
  139.0326   68.0999  222.1043 H   0  0  0  0  0  0  0  0  0  0  0  0
  136.7311   68.9424  221.3516 H   0  0  0  0  0  0  0  0  0  0  0  0
  136.7979   67.9043  222.8385 H   0  0  0  0  0  0  0  0  0  0  0  0
  136.6160   70.9370  223.0580 H   0  0  0  0  0  0  0  0  0  0  0  0
  133.6327   69.2873  226.1180 H   0  0  0  0  0  0  0  0  0  0  0  0
  132.5066   71.0559  227.4259 H   0  0  0  0  0  0  0  0  0  0  0  0
  132.1302   73.4205  227.8635 H   0  0  0  0  0  0  0  0  0  0  0  0
  134.2247   76.2828  225.4307 H   0  0  0  0  0  0  0  0  0  0  0  0
  135.3293   74.4711  224.1367 H   0  0  0  0  0  0  0  0  0  0  0  0
  141.2962   70.2577  223.9438 H   0  0  0  0  0  0  0  0  0  0  0  0
  140.7836   72.0111  224.3315 H   0  0  0  0  0  0  0  0  0  0  0  0
  140.6652   68.8582  225.6980 H   0  0  0  0  0  0  0  0  0  0  0  0
  142.3035   69.3582  226.4856 H   0  0  0  0  0  0  0  0  0  0  0  0
  140.0824   68.2912  227.6863 H   0  0  0  0  0  0  0  0  0  0  0  0
  141.6032   68.9917  228.3879 H   0  0  0  0  0  0  0  0  0  0  0  0
  139.0098   70.4514  227.7968 H   0  0  0  0  0  0  0  0  0  0  0  0
  139.6841   70.0966  229.3934 H   0  0  0  0  0  0  0  0  0  0  0  0
  140.3912   72.3809  228.7650 H   0  0  0  0  0  0  0  0  0  0  0  0
  141.8378   71.3236  228.6489 H   0  0  0  0  0  0  0  0  0  0  0  0
  140.1130   72.4875  226.4546 H   0  0  0  0  0  0  0  0  0  0  0  0
  141.9348   72.4781  226.6705 H   0  0  0  0  0  0  0  0  0  0  0  0
  1  2  1  0
  2  3  1  0
  3  4  1  0
  4  5  1  0
  5  6  1  0
  6  7  2  0
  6  8  1  0
  8  9  2  0
  9 10  1  0
 10 11  2  0
 11 12  1  0
 12 13  2  0
 13 14  1  0
 13 15  1  0
 15 16  2  0
 16 17  1  0
 17 18  2  0
  2 19  1  0
 19 20  2  0
 19 21  1  0
 21 22  1  0
 22 23  1  0
 23 24  1  0
 24 25  1  0
 25 26  1  0
 26 27  1  0
 18  8  1  0
 27 22  1  0
 17 11  1  0
  1 28  1  0
  1 29  1  0
  1 30  1  0
  3 31  1  0
  3 32  1  0
  4 33  1  0
  4 34  1  0
  5 35  1  0
  9 36  1  0
 10 37  1  0
 12 38  1  0
 15 39  1  0
 16 40  1  0
 21 41  1  0
 21 42  1  0
 23 43  1  0
 23 44  1  0
 24 45  1  0
 24 46  1  0
 25 47  1  0
 25 48  1  0
 26 49  1  0
 26 50  1  0
 27 51  1  0
 27 52  1  0
M  END
>  <smiles>  (44) 
CN(CCNC(=O)c1ccc2cc(Cl)ccc2n1)C(=O)CN1CCCCC1

>  <score_type>  (44) 
oracle

>  <origin>  (44) 
autodockgpu

>  <m_score__min__energy>  (44) 
-7.9299999999999997

>  <m_primary>  (44) 
energy

>  <rmsd>  (44) 
9.324612491883123

>  <m_score__min__rmsd>  (44) 
9.324612491883123

>  <meeko>  (44) 
{"free_energy": -6.78, "intermolecular_energy": -8.87, "internal_energy": -2.33, "cluster_size": 3, "cluster_id": 2, "rank_in_cluster": 3}

>  <energy>  (44) 
-7.12

>  <cluster_rmsd>  (44) 
1.43

>  <cluster>  (44) 
3

$$$$

     RDKit          3D

 52 54  0  0  0  0  0  0  0  0999 V2000
  138.1220   76.8750  220.5760 C   0  0  0  0  0  0  0  0  0  0  0  0
  139.0610   75.7660  220.6650 N   0  0  0  0  0  0  0  0  0  0  0  0
  138.7520   74.5500  219.9330 C   0  0  0  0  0  0  0  0  0  0  0  0
  137.7830   73.7100  220.7300 C   0  0  0  0  0  0  0  0  0  0  0  0
  138.3940   73.1830  221.9590 N   0  0  0  0  0  0  0  0  0  0  0  0
  138.6640   71.7890  222.0710 C   0  0  0  0  0  0  0  0  0  0  0  0
  138.3860   70.9720  221.1290 O   0  0  0  0  0  0  0  0  0  0  0  0
  139.2780   71.3170  223.3110 C   0  0  0  0  0  0  0  0  0  0  0  0
  140.3200   72.0210  223.8830 C   0  0  0  0  0  0  0  0  0  0  0  0
  140.9300   71.6130  225.0560 C   0  0  0  0  0  0  0  0  0  0  0  0
  140.4860   70.4520  225.6890 C   0  0  0  0  0  0  0  0  0  0  0  0
  141.0830   70.0350  226.8580 C   0  0  0  0  0  0  0  0  0  0  0  0
  140.5940   68.8770  227.4380 C   0  0  0  0  0  0  0  0  0  0  0  0
  141.2700   68.2340  228.9370 Cl  0  0  0  0  0  0  0  0  0  0  0  0
  139.5510   68.1930  226.8420 C   0  0  0  0  0  0  0  0  0  0  0  0
  138.9530   68.6160  225.6660 C   0  0  0  0  0  0  0  0  0  0  0  0
  139.4410   69.7730  225.0870 C   0  0  0  0  0  0  0  0  0  0  0  0
  138.8640   70.1950  223.9410 N   0  0  0  0  0  0  0  0  0  0  0  0
  140.2690   75.8680  221.4540 C   0  0  0  0  0  0  0  0  0  0  0  0
  140.4230   74.9950  222.3450 O   0  0  0  0  0  0  0  0  0  0  0  0
  141.1770   76.9580  221.1410 C   0  0  0  0  0  0  0  0  0  0  0  0
  141.0730   78.1620  221.8870 N   0  0  0  0  0  0  0  0  0  0  0  0
  141.1680   79.3560  221.1530 C   0  0  0  0  0  0  0  0  0  0  0  0
  141.9760   80.4820  221.6520 C   0  0  0  0  0  0  0  0  0  0  0  0
  142.8080   80.0960  222.8260 C   0  0  0  0  0  0  0  0  0  0  0  0
  141.8390   79.4510  223.8270 C   0  0  0  0  0  0  0  0  0  0  0  0
  141.3290   78.1380  223.2610 C   0  0  0  0  0  0  0  0  0  0  0  0
  137.8445   77.2027  221.5887 H   0  0  0  0  0  0  0  0  0  0  0  0
  138.5914   77.7105  220.0360 H   0  0  0  0  0  0  0  0  0  0  0  0
  137.2205   76.5497  220.0360 H   0  0  0  0  0  0  0  0  0  0  0  0
  138.2997   74.8107  218.9648 H   0  0  0  0  0  0  0  0  0  0  0  0
  139.6776   73.9796  219.7660 H   0  0  0  0  0  0  0  0  0  0  0  0
  136.9157   74.3297  221.0018 H   0  0  0  0  0  0  0  0  0  0  0  0
  137.4811   72.8554  220.1067 H   0  0  0  0  0  0  0  0  0  0  0  0
  138.6390   73.8130  222.7600 H   0  0  0  0  0  0  0  0  0  0  0  0
  140.6768   72.9369  223.3892 H   0  0  0  0  0  0  0  0  0  0  0  0
  141.7567   72.1983  225.4850 H   0  0  0  0  0  0  0  0  0  0  0  0
  141.9124   70.5977  227.3112 H   0  0  0  0  0  0  0  0  0  0  0  0
  139.1805   67.2748  227.3213 H   0  0  0  0  0  0  0  0  0  0  0  0
  138.1237   68.0542  225.2114 H   0  0  0  0  0  0  0  0  0  0  0  0
  142.2001   76.5781  221.2787 H   0  0  0  0  0  0  0  0  0  0  0  0
  140.9028   77.2512  220.1169 H   0  0  0  0  0  0  0  0  0  0  0  0
  141.5771   79.0877  220.1678 H   0  0  0  0  0  0  0  0  0  0  0  0
  140.1426   79.7521  221.1943 H   0  0  0  0  0  0  0  0  0  0  0  0
  142.6391   80.8280  220.8454 H   0  0  0  0  0  0  0  0  0  0  0  0
  141.2877   81.2785  221.9710 H   0  0  0  0  0  0  0  0  0  0  0  0
  143.5846   79.3770  222.5261 H   0  0  0  0  0  0  0  0  0  0  0  0
  143.3236   80.9645  223.2617 H   0  0  0  0  0  0  0  0  0  0  0  0
  142.3630   79.2628  224.7757 H   0  0  0  0  0  0  0  0  0  0  0  0
  140.9907   80.1282  224.0055 H   0  0  0  0  0  0  0  0  0  0  0  0
  142.0842   77.3625  223.4567 H   0  0  0  0  0  0  0  0  0  0  0  0
  140.3678   77.9351  223.7559 H   0  0  0  0  0  0  0  0  0  0  0  0
  1  2  1  0
  2  3  1  0
  3  4  1  0
  4  5  1  0
  5  6  1  0
  6  7  2  0
  6  8  1  0
  8  9  2  0
  9 10  1  0
 10 11  2  0
 11 12  1  0
 12 13  2  0
 13 14  1  0
 13 15  1  0
 15 16  2  0
 16 17  1  0
 17 18  2  0
  2 19  1  0
 19 20  2  0
 19 21  1  0
 21 22  1  0
 22 23  1  0
 23 24  1  0
 24 25  1  0
 25 26  1  0
 26 27  1  0
 18  8  1  0
 27 22  1  0
 17 11  1  0
  1 28  1  0
  1 29  1  0
  1 30  1  0
  3 31  1  0
  3 32  1  0
  4 33  1  0
  4 34  1  0
  5 35  1  0
  9 36  1  0
 10 37  1  0
 12 38  1  0
 15 39  1  0
 16 40  1  0
 21 41  1  0
 21 42  1  0
 23 43  1  0
 23 44  1  0
 24 45  1  0
 24 46  1  0
 25 47  1  0
 25 48  1  0
 26 49  1  0
 26 50  1  0
 27 51  1  0
 27 52  1  0
M  END
>  <smiles>  (45) 
CN(CCNC(=O)c1ccc2cc(Cl)ccc2n1)C(=O)CN1CCCCC1

>  <score_type>  (45) 
oracle

>  <origin>  (45) 
autodockgpu

>  <m_score__min__energy>  (45) 
-7.9299999999999997

>  <m_primary>  (45) 
energy

>  <rmsd>  (45) 
8.907698493268843

>  <m_score__min__rmsd>  (45) 
8.907698493268843

>  <meeko>  (45) 
{"free_energy": -7.4, "intermolecular_energy": -9.49, "internal_energy": -1.8, "cluster_size": 28, "cluster_id": 1, "rank_in_cluster": 13}

>  <energy>  (45) 
-6.92

>  <cluster_rmsd>  (45) 
1.77

>  <cluster>  (45) 
3

$$$$

     RDKit          3D

 52 54  0  0  0  0  0  0  0  0999 V2000
  141.9890   74.9770  220.5410 C   0  0  0  0  0  0  0  0  0  0  0  0
  140.5670   75.2240  220.7260 N   0  0  0  0  0  0  0  0  0  0  0  0
  139.6300   74.4690  219.9130 C   0  0  0  0  0  0  0  0  0  0  0  0
  138.4080   74.1270  220.7310 C   0  0  0  0  0  0  0  0  0  0  0  0
  138.7380   73.2680  221.8780 N   0  0  0  0  0  0  0  0  0  0  0  0
  138.6370   71.8530  221.7520 C   0  0  0  0  0  0  0  0  0  0  0  0
  138.2620   71.3000  220.6630 O   0  0  0  0  0  0  0  0  0  0  0  0
  138.9820   71.0440  222.9200 C   0  0  0  0  0  0  0  0  0  0  0  0
  138.6430   69.7050  222.9630 C   0  0  0  0  0  0  0  0  0  0  0  0
  138.9490   68.9010  224.0460 C   0  0  0  0  0  0  0  0  0  0  0  0
  139.6220   69.4510  225.1370 C   0  0  0  0  0  0  0  0  0  0  0  0
  139.9360   68.6620  226.2210 C   0  0  0  0  0  0  0  0  0  0  0  0
  140.6060   69.2680  227.2700 C   0  0  0  0  0  0  0  0  0  0  0  0
  141.0670   68.3680  228.7180 Cl  0  0  0  0  0  0  0  0  0  0  0  0
  140.9320   70.6090  227.1990 C   0  0  0  0  0  0  0  0  0  0  0  0
  140.6140   71.4000  226.1060 C   0  0  0  0  0  0  0  0  0  0  0  0
  139.9450   70.7950  225.0590 C   0  0  0  0  0  0  0  0  0  0  0  0
  139.6330   71.5560  223.9880 N   0  0  0  0  0  0  0  0  0  0  0  0
  140.0940   76.1910  221.6930 C   0  0  0  0  0  0  0  0  0  0  0  0
  139.6150   75.7210  222.7560 O   0  0  0  0  0  0  0  0  0  0  0  0
  140.2170   77.5950  221.3430 C   0  0  0  0  0  0  0  0  0  0  0  0
  141.3000   78.3370  221.8850 N   0  0  0  0  0  0  0  0  0  0  0  0
  141.4990   78.2190  223.2710 C   0  0  0  0  0  0  0  0  0  0  0  0
  141.7940   79.4060  224.0910 C   0  0  0  0  0  0  0  0  0  0  0  0
  141.6090   80.6730  223.3280 C   0  0  0  0  0  0  0  0  0  0  0  0
  142.4320   80.5060  222.0430 C   0  0  0  0  0  0  0  0  0  0  0  0
  141.8010   79.4320  221.1750 C   0  0  0  0  0  0  0  0  0  0  0  0
  142.4772   74.8922  221.5231 H   0  0  0  0  0  0  0  0  0  0  0  0
  142.1287   74.0411  219.9800 H   0  0  0  0  0  0  0  0  0  0  0  0
  142.4361   75.8109  219.9800 H   0  0  0  0  0  0  0  0  0  0  0  0
  139.3309   75.0729  219.0436 H   0  0  0  0  0  0  0  0  0  0  0  0
  140.1105   73.5409  219.5700 H   0  0  0  0  0  0  0  0  0  0  0  0
  137.9569   75.0588  221.1028 H   0  0  0  0  0  0  0  0  0  0  0  0
  137.7080   73.5777  220.0843 H   0  0  0  0  0  0  0  0  0  0  0  0
  139.0480   73.6750  222.7930 H   0  0  0  0  0  0  0  0  0  0  0  0
  138.1118   69.2636  222.1068 H   0  0  0  0  0  0  0  0  0  0  0  0
  138.6645   67.8384  224.0470 H   0  0  0  0  0  0  0  0  0  0  0  0
  139.6661   67.5961  226.2521 H   0  0  0  0  0  0  0  0  0  0  0  0
  141.4657   71.0676  228.0445 H   0  0  0  0  0  0  0  0  0  0  0  0
  140.8832   72.4660  226.0734 H   0  0  0  0  0  0  0  0  0  0  0  0
  140.3017   77.6502  220.2477 H   0  0  0  0  0  0  0  0  0  0  0  0
  139.3239   78.0614  221.7845 H   0  0  0  0  0  0  0  0  0  0  0  0
  140.5823   77.7720  223.6833 H   0  0  0  0  0  0  0  0  0  0  0  0
  142.4303   77.6374  223.3368 H   0  0  0  0  0  0  0  0  0  0  0  0
  141.1199   79.4134  224.9602 H   0  0  0  0  0  0  0  0  0  0  0  0
  142.8470   79.3490  224.4040 H   0  0  0  0  0  0  0  0  0  0  0  0
  140.5465   80.8239  223.0864 H   0  0  0  0  0  0  0  0  0  0  0  0
  141.9347   81.5486  223.9086 H   0  0  0  0  0  0  0  0  0  0  0  0
  142.4505   81.4584  221.4928 H   0  0  0  0  0  0  0  0  0  0  0  0
  143.4601   80.2122  222.3012 H   0  0  0  0  0  0  0  0  0  0  0  0
  140.9716   79.8867  220.6134 H   0  0  0  0  0  0  0  0  0  0  0  0
  142.5987   79.0457  220.5235 H   0  0  0  0  0  0  0  0  0  0  0  0
  1  2  1  0
  2  3  1  0
  3  4  1  0
  4  5  1  0
  5  6  1  0
  6  7  2  0
  6  8  1  0
  8  9  2  0
  9 10  1  0
 10 11  2  0
 11 12  1  0
 12 13  2  0
 13 14  1  0
 13 15  1  0
 15 16  2  0
 16 17  1  0
 17 18  2  0
  2 19  1  0
 19 20  2  0
 19 21  1  0
 21 22  1  0
 22 23  1  0
 23 24  1  0
 24 25  1  0
 25 26  1  0
 26 27  1  0
 18  8  1  0
 27 22  1  0
 17 11  1  0
  1 28  1  0
  1 29  1  0
  1 30  1  0
  3 31  1  0
  3 32  1  0
  4 33  1  0
  4 34  1  0
  5 35  1  0
  9 36  1  0
 10 37  1  0
 12 38  1  0
 15 39  1  0
 16 40  1  0
 21 41  1  0
 21 42  1  0
 23 43  1  0
 23 44  1  0
 24 45  1  0
 24 46  1  0
 25 47  1  0
 25 48  1  0
 26 49  1  0
 26 50  1  0
 27 51  1  0
 27 52  1  0
M  END
>  <smiles>  (46) 
CN(CCNC(=O)c1ccc2cc(Cl)ccc2n1)C(=O)CN1CCCCC1

>  <score_type>  (46) 
oracle

>  <origin>  (46) 
autodockgpu

>  <m_score__min__energy>  (46) 
-7.9299999999999997

>  <m_primary>  (46) 
energy

>  <rmsd>  (46) 
9.668444379738844

>  <m_score__min__rmsd>  (46) 
9.668444379738844

>  <meeko>  (46) 
{"free_energy": -7.41, "intermolecular_energy": -9.5, "internal_energy": -2.02, "cluster_size": 28, "cluster_id": 1, "rank_in_cluster": 12}

>  <energy>  (46) 
-6.77

>  <cluster_rmsd>  (46) 
1.92

>  <cluster>  (46) 
3

$$$$

     RDKit          3D

 52 54  0  0  0  0  0  0  0  0999 V2000
  138.1900   77.4960  222.7370 C   0  0  0  0  0  0  0  0  0  0  0  0
  138.7890   76.3990  221.9910 N   0  0  0  0  0  0  0  0  0  0  0  0
  137.9030   75.4520  221.3370 C   0  0  0  0  0  0  0  0  0  0  0  0
  138.6870   74.2370  220.9040 C   0  0  0  0  0  0  0  0  0  0  0  0
  138.9740   73.3380  222.0320 N   0  0  0  0  0  0  0  0  0  0  0  0
  138.8960   71.9280  221.8480 C   0  0  0  0  0  0  0  0  0  0  0  0
  138.5770   71.4130  220.7230 O   0  0  0  0  0  0  0  0  0  0  0  0
  139.1960   71.0780  223.0000 C   0  0  0  0  0  0  0  0  0  0  0  0
  138.8400   69.7430  222.9900 C   0  0  0  0  0  0  0  0  0  0  0  0
  139.1050   68.9010  224.0550 C   0  0  0  0  0  0  0  0  0  0  0  0
  139.7530   69.4080  225.1820 C   0  0  0  0  0  0  0  0  0  0  0  0
  140.0250   68.5820  226.2490 C   0  0  0  0  0  0  0  0  0  0  0  0
  140.6720   69.1450  227.3360 C   0  0  0  0  0  0  0  0  0  0  0  0
  141.0790   68.1950  228.7670 Cl  0  0  0  0  0  0  0  0  0  0  0  0
  141.0160   70.4840  227.3160 C   0  0  0  0  0  0  0  0  0  0  0  0
  140.7400   71.3130  226.2410 C   0  0  0  0  0  0  0  0  0  0  0  0
  140.0940   70.7490  225.1560 C   0  0  0  0  0  0  0  0  0  0  0  0
  139.8220   71.5480  224.1020 N   0  0  0  0  0  0  0  0  0  0  0  0
  140.2260   76.2520  221.8970 C   0  0  0  0  0  0  0  0  0  0  0  0
  140.7010   75.1730  222.3320 O   0  0  0  0  0  0  0  0  0  0  0  0
  140.9690   77.3560  221.3160 C   0  0  0  0  0  0  0  0  0  0  0  0
  141.0530   78.5740  222.0410 N   0  0  0  0  0  0  0  0  0  0  0  0
  141.1750   79.7450  221.2740 C   0  0  0  0  0  0  0  0  0  0  0  0
  142.1280   80.8000  221.6590 C   0  0  0  0  0  0  0  0  0  0  0  0
  143.0430   80.3550  222.7490 C   0  0  0  0  0  0  0  0  0  0  0  0
  142.1320   79.8140  223.8600 C   0  0  0  0  0  0  0  0  0  0  0  0
  141.4510   78.5450  223.3800 C   0  0  0  0  0  0  0  0  0  0  0  0
  138.2938   77.3058  223.8154 H   0  0  0  0  0  0  0  0  0  0  0  0
  138.7000   78.4360  222.4797 H   0  0  0  0  0  0  0  0  0  0  0  0
  137.1235   77.5752  222.4797 H   0  0  0  0  0  0  0  0  0  0  0  0
  137.1127   75.1463  222.0384 H   0  0  0  0  0  0  0  0  0  0  0  0
  137.4501   75.9268  220.4542 H   0  0  0  0  0  0  0  0  0  0  0  0
  138.1035   73.6872  220.1508 H   0  0  0  0  0  0  0  0  0  0  0  0
  139.6463   74.5806  220.4897 H   0  0  0  0  0  0  0  0  0  0  0  0
  139.2370   73.7120  222.9750 H   0  0  0  0  0  0  0  0  0  0  0  0
  138.3286   69.3360  222.1053 H   0  0  0  0  0  0  0  0  0  0  0  0
  138.8080   67.8427  224.0139 H   0  0  0  0  0  0  0  0  0  0  0  0
  139.7404   67.5195  226.2385 H   0  0  0  0  0  0  0  0  0  0  0  0
  141.5305   70.9089  228.1905 H   0  0  0  0  0  0  0  0  0  0  0  0
  141.0230   72.3759  226.2500 H   0  0  0  0  0  0  0  0  0  0  0  0
  141.9983   77.0040  221.1527 H   0  0  0  0  0  0  0  0  0  0  0  0
  140.3972   77.6193  220.4139 H   0  0  0  0  0  0  0  0  0  0  0  0
  141.4513   79.4276  220.2577 H   0  0  0  0  0  0  0  0  0  0  0  0
  140.1992   80.2329  221.4143 H   0  0  0  0  0  0  0  0  0  0  0  0
  142.7297   81.0733  220.7796 H   0  0  0  0  0  0  0  0  0  0  0  0
  141.5513   81.6604  222.0293 H   0  0  0  0  0  0  0  0  0  0  0  0
  143.7163   79.5645  222.3859 H   0  0  0  0  0  0  0  0  0  0  0  0
  143.6773   81.1786  223.1087 H   0  0  0  0  0  0  0  0  0  0  0  0
  142.7345   79.5919  224.7531 H   0  0  0  0  0  0  0  0  0  0  0  0
  141.3707   80.5674  224.1106 H   0  0  0  0  0  0  0  0  0  0  0  0
  142.1517   77.7074  223.5125 H   0  0  0  0  0  0  0  0  0  0  0  0
  140.5339   78.4359  223.9776 H   0  0  0  0  0  0  0  0  0  0  0  0
  1  2  1  0
  2  3  1  0
  3  4  1  0
  4  5  1  0
  5  6  1  0
  6  7  2  0
  6  8  1  0
  8  9  2  0
  9 10  1  0
 10 11  2  0
 11 12  1  0
 12 13  2  0
 13 14  1  0
 13 15  1  0
 15 16  2  0
 16 17  1  0
 17 18  2  0
  2 19  1  0
 19 20  2  0
 19 21  1  0
 21 22  1  0
 22 23  1  0
 23 24  1  0
 24 25  1  0
 25 26  1  0
 26 27  1  0
 18  8  1  0
 27 22  1  0
 17 11  1  0
  1 28  1  0
  1 29  1  0
  1 30  1  0
  3 31  1  0
  3 32  1  0
  4 33  1  0
  4 34  1  0
  5 35  1  0
  9 36  1  0
 10 37  1  0
 12 38  1  0
 15 39  1  0
 16 40  1  0
 21 41  1  0
 21 42  1  0
 23 43  1  0
 23 44  1  0
 24 45  1  0
 24 46  1  0
 25 47  1  0
 25 48  1  0
 26 49  1  0
 26 50  1  0
 27 51  1  0
 27 52  1  0
M  END
>  <smiles>  (47) 
CN(CCNC(=O)c1ccc2cc(Cl)ccc2n1)C(=O)CN1CCCCC1

>  <score_type>  (47) 
oracle

>  <origin>  (47) 
autodockgpu

>  <m_score__min__energy>  (47) 
-7.9299999999999997

>  <m_primary>  (47) 
energy

>  <rmsd>  (47) 
9.707843347759397

>  <m_score__min__rmsd>  (47) 
9.707843347759397

>  <meeko>  (47) 
{"free_energy": -7.93, "intermolecular_energy": -10.02, "internal_energy": -1.7, "cluster_size": 28, "cluster_id": 1, "rank_in_cluster": 1}

>  <energy>  (47) 
-6.69

>  <cluster_rmsd>  (47) 
1.67

>  <cluster>  (47) 
3

$$$$

     RDKit          3D

 52 54  0  0  0  0  0  0  0  0999 V2000
  138.3180   77.4740  220.2480 C   0  0  0  0  0  0  0  0  0  0  0  0
  138.7760   76.4200  221.1410 N   0  0  0  0  0  0  0  0  0  0  0  0
  137.7820   75.5310  221.7150 C   0  0  0  0  0  0  0  0  0  0  0  0
  138.0010   74.1260  221.2050 C   0  0  0  0  0  0  0  0  0  0  0  0
  138.2810   73.1840  222.2980 N   0  0  0  0  0  0  0  0  0  0  0  0
  139.3320   72.2320  222.1570 C   0  0  0  0  0  0  0  0  0  0  0  0
  140.0440   72.1690  221.0990 O   0  0  0  0  0  0  0  0  0  0  0  0
  139.5740   71.3210  223.2750 C   0  0  0  0  0  0  0  0  0  0  0  0
  139.2780   69.9770  223.1520 C   0  0  0  0  0  0  0  0  0  0  0  0
  139.4910   69.0780  224.1820 C   0  0  0  0  0  0  0  0  0  0  0  0
  140.0210   69.5340  225.3890 C   0  0  0  0  0  0  0  0  0  0  0  0
  140.2400   68.6510  226.4220 C   0  0  0  0  0  0  0  0  0  0  0  0
  140.7710   69.1670  227.5930 C   0  0  0  0  0  0  0  0  0  0  0  0
  141.1000   68.1410  228.9910 Cl  0  0  0  0  0  0  0  0  0  0  0  0
  141.0560   70.5160  227.6850 C   0  0  0  0  0  0  0  0  0  0  0  0
  140.8340   71.4020  226.6440 C   0  0  0  0  0  0  0  0  0  0  0  0
  140.3040   70.8860  225.4750 C   0  0  0  0  0  0  0  0  0  0  0  0
  140.0860   71.7420  224.4530 N   0  0  0  0  0  0  0  0  0  0  0  0
  140.1800   76.2560  221.4490 C   0  0  0  0  0  0  0  0  0  0  0  0
  140.4970   75.1890  222.0330 O   0  0  0  0  0  0  0  0  0  0  0  0
  141.0760   77.3300  221.0560 C   0  0  0  0  0  0  0  0  0  0  0  0
  140.9610   78.5830  221.7130 N   0  0  0  0  0  0  0  0  0  0  0  0
  141.7360   79.6310  221.1900 C   0  0  0  0  0  0  0  0  0  0  0  0
  142.4720   80.5410  222.0850 C   0  0  0  0  0  0  0  0  0  0  0  0
  142.4680   80.0610  223.4950 C   0  0  0  0  0  0  0  0  0  0  0  0
  140.9950   79.8010  223.8410 C   0  0  0  0  0  0  0  0  0  0  0  0
  140.4860   78.6250  223.0270 C   0  0  0  0  0  0  0  0  0  0  0  0
  137.9490   78.3232  220.8419 H   0  0  0  0  0  0  0  0  0  0  0  0
  139.1531   77.8057  219.6136 H   0  0  0  0  0  0  0  0  0  0  0  0
  137.5057   77.0898  219.6136 H   0  0  0  0  0  0  0  0  0  0  0  0
  137.8724   75.5404  222.8112 H   0  0  0  0  0  0  0  0  0  0  0  0
  136.7772   75.8717  221.4245 H   0  0  0  0  0  0  0  0  0  0  0  0
  137.0964   73.7955  220.6735 H   0  0  0  0  0  0  0  0  0  0  0  0
  138.8726   74.1387  220.5340 H   0  0  0  0  0  0  0  0  0  0  0  0
  137.7240   73.1950  223.1850 H   0  0  0  0  0  0  0  0  0  0  0  0
  138.8591   69.6095  222.2036 H   0  0  0  0  0  0  0  0  0  0  0  0
  139.2448   68.0140  224.0503 H   0  0  0  0  0  0  0  0  0  0  0  0
  140.0035   67.5814  226.3220 H   0  0  0  0  0  0  0  0  0  0  0  0
  141.4770   70.9025  228.6249 H   0  0  0  0  0  0  0  0  0  0  0  0
  141.0694   72.4720  226.7426 H   0  0  0  0  0  0  0  0  0  0  0  0
  142.1032   76.9715  221.2181 H   0  0  0  0  0  0  0  0  0  0  0  0
  140.7967   77.5458  220.0142 H   0  0  0  0  0  0  0  0  0  0  0  0
  142.4831   79.1692  220.5278 H   0  0  0  0  0  0  0  0  0  0  0  0
  140.9820   80.2905  220.7356 H   0  0  0  0  0  0  0  0  0  0  0  0
  143.5132   80.6151  221.7380 H   0  0  0  0  0  0  0  0  0  0  0  0
  141.9730   81.5209  222.0583 H   0  0  0  0  0  0  0  0  0  0  0  0
  143.0528   79.1338  223.5862 H   0  0  0  0  0  0  0  0  0  0  0  0
  142.9213   80.7967  224.1757 H   0  0  0  0  0  0  0  0  0  0  0  0
  140.9047   79.5718  224.9131 H   0  0  0  0  0  0  0  0  0  0  0  0
  140.3991   80.6954  223.6068 H   0  0  0  0  0  0  0  0  0  0  0  0
  140.7925   77.6978  223.5333 H   0  0  0  0  0  0  0  0  0  0  0  0
  139.3937   78.7376  222.9623 H   0  0  0  0  0  0  0  0  0  0  0  0
  1  2  1  0
  2  3  1  0
  3  4  1  0
  4  5  1  0
  5  6  1  0
  6  7  2  0
  6  8  1  0
  8  9  2  0
  9 10  1  0
 10 11  2  0
 11 12  1  0
 12 13  2  0
 13 14  1  0
 13 15  1  0
 15 16  2  0
 16 17  1  0
 17 18  2  0
  2 19  1  0
 19 20  2  0
 19 21  1  0
 21 22  1  0
 22 23  1  0
 23 24  1  0
 24 25  1  0
 25 26  1  0
 26 27  1  0
 18  8  1  0
 27 22  1  0
 17 11  1  0
  1 28  1  0
  1 29  1  0
  1 30  1  0
  3 31  1  0
  3 32  1  0
  4 33  1  0
  4 34  1  0
  5 35  1  0
  9 36  1  0
 10 37  1  0
 12 38  1  0
 15 39  1  0
 16 40  1  0
 21 41  1  0
 21 42  1  0
 23 43  1  0
 23 44  1  0
 24 45  1  0
 24 46  1  0
 25 47  1  0
 25 48  1  0
 26 49  1  0
 26 50  1  0
 27 51  1  0
 27 52  1  0
M  END
>  <smiles>  (48) 
CN(CCNC(=O)c1ccc2cc(Cl)ccc2n1)C(=O)CN1CCCCC1

>  <score_type>  (48) 
oracle

>  <origin>  (48) 
autodockgpu

>  <m_score__min__energy>  (48) 
-7.9299999999999997

>  <m_primary>  (48) 
energy

>  <rmsd>  (48) 
9.553488349251378

>  <m_score__min__rmsd>  (48) 
9.553488349251378

>  <meeko>  (48) 
{"free_energy": -7.74, "intermolecular_energy": -9.82, "internal_energy": -1.13, "cluster_size": 28, "cluster_id": 1, "rank_in_cluster": 2}

>  <energy>  (48) 
-7.0

>  <cluster_rmsd>  (48) 
0.0

>  <cluster>  (48) 
4

$$$$

     RDKit          3D

 52 54  0  0  0  0  0  0  0  0999 V2000
  136.7170   68.5350  223.0140 C   0  0  0  0  0  0  0  0  0  0  0  0
  137.7560   69.3130  223.6730 N   0  0  0  0  0  0  0  0  0  0  0  0
  137.9300   70.6980  223.2750 C   0  0  0  0  0  0  0  0  0  0  0  0
  139.3250   70.9010  222.7350 C   0  0  0  0  0  0  0  0  0  0  0  0
  139.6450   72.3250  222.5610 N   0  0  0  0  0  0  0  0  0  0  0  0
  140.6260   72.7170  221.6050 C   0  0  0  0  0  0  0  0  0  0  0  0
  141.2460   71.8590  220.8890 O   0  0  0  0  0  0  0  0  0  0  0  0
  140.9030   74.1450  221.4660 C   0  0  0  0  0  0  0  0  0  0  0  0
  141.9100   74.5790  220.6250 C   0  0  0  0  0  0  0  0  0  0  0  0
  142.2070   75.9210  220.4610 C   0  0  0  0  0  0  0  0  0  0  0  0
  141.4710   76.8740  221.1650 C   0  0  0  0  0  0  0  0  0  0  0  0
  141.7550   78.2130  221.0110 C   0  0  0  0  0  0  0  0  0  0  0  0
  140.9860   79.1090  221.7350 C   0  0  0  0  0  0  0  0  0  0  0  0
  141.2470   80.8520  221.6270 Cl  0  0  0  0  0  0  0  0  0  0  0  0
  139.9860   78.6440  222.5680 C   0  0  0  0  0  0  0  0  0  0  0  0
  139.7040   77.2960  222.7220 C   0  0  0  0  0  0  0  0  0  0  0  0
  140.4720   76.4020  221.9980 C   0  0  0  0  0  0  0  0  0  0  0  0
  140.2040   75.0860  222.1390 N   0  0  0  0  0  0  0  0  0  0  0  0
  138.5930   68.7280  224.6990 C   0  0  0  0  0  0  0  0  0  0  0  0
  139.1820   67.6620  224.3910 O   0  0  0  0  0  0  0  0  0  0  0  0
  138.6690   69.4270  225.9710 C   0  0  0  0  0  0  0  0  0  0  0  0
  139.9370   69.8790  226.4220 N   0  0  0  0  0  0  0  0  0  0  0  0
  140.0690   70.0710  227.8070 C   0  0  0  0  0  0  0  0  0  0  0  0
  140.7520   71.2630  228.3390 C   0  0  0  0  0  0  0  0  0  0  0  0
  141.0280   72.2700  227.2750 C   0  0  0  0  0  0  0  0  0  0  0  0
  141.7530   71.5040  226.1590 C   0  0  0  0  0  0  0  0  0  0  0  0
  140.7950   70.5150  225.5210 C   0  0  0  0  0  0  0  0  0  0  0  0
  136.0795   68.0576  223.7728 H   0  0  0  0  0  0  0  0  0  0  0  0
  136.1049   69.1987  222.3856 H   0  0  0  0  0  0  0  0  0  0  0  0
  137.1815   67.7608  222.3856 H   0  0  0  0  0  0  0  0  0  0  0  0
  137.1959   70.9493  222.4952 H   0  0  0  0  0  0  0  0  0  0  0  0
  137.7791   71.3496  224.1483 H   0  0  0  0  0  0  0  0  0  0  0  0
  140.0460   70.4580  223.4378 H   0  0  0  0  0  0  0  0  0  0  0  0
  139.3821   70.4165  221.7491 H   0  0  0  0  0  0  0  0  0  0  0  0
  139.1650   73.0650  223.1250 H   0  0  0  0  0  0  0  0  0  0  0  0
  142.4952   73.8330  220.0672 H   0  0  0  0  0  0  0  0  0  0  0  0
  143.0149   76.2326  219.7826 H   0  0  0  0  0  0  0  0  0  0  0  0
  142.5579   78.5559  220.3419 H   0  0  0  0  0  0  0  0  0  0  0  0
  139.3886   79.3749  223.1327 H   0  0  0  0  0  0  0  0  0  0  0  0
  138.9027   76.9513  223.3921 H   0  0  0  0  0  0  0  0  0  0  0  0
  138.0178   70.3103  225.8953 H   0  0  0  0  0  0  0  0  0  0  0  0
  138.3746   68.6693  226.7121 H   0  0  0  0  0  0  0  0  0  0  0  0
  139.0501   70.0815  228.2213 H   0  0  0  0  0  0  0  0  0  0  0  0
  140.7385   69.2509  228.1057 H   0  0  0  0  0  0  0  0  0  0  0  0
  140.1144   71.7242  229.1076 H   0  0  0  0  0  0  0  0  0  0  0  0
  141.7157   70.9422  228.7614 H   0  0  0  0  0  0  0  0  0  0  0  0
  140.0874   72.6981  226.8983 H   0  0  0  0  0  0  0  0  0  0  0  0
  141.6334   73.1067  227.6538 H   0  0  0  0  0  0  0  0  0  0  0  0
  142.1082   72.2140  225.3976 H   0  0  0  0  0  0  0  0  0  0  0  0
  142.6113   70.9623  226.5832 H   0  0  0  0  0  0  0  0  0  0  0  0
  140.1817   71.0559  224.7852 H   0  0  0  0  0  0  0  0  0  0  0  0
  141.4137   69.7269  225.0671 H   0  0  0  0  0  0  0  0  0  0  0  0
  1  2  1  0
  2  3  1  0
  3  4  1  0
  4  5  1  0
  5  6  1  0
  6  7  2  0
  6  8  1  0
  8  9  2  0
  9 10  1  0
 10 11  2  0
 11 12  1  0
 12 13  2  0
 13 14  1  0
 13 15  1  0
 15 16  2  0
 16 17  1  0
 17 18  2  0
  2 19  1  0
 19 20  2  0
 19 21  1  0
 21 22  1  0
 22 23  1  0
 23 24  1  0
 24 25  1  0
 25 26  1  0
 26 27  1  0
 18  8  1  0
 27 22  1  0
 17 11  1  0
  1 28  1  0
  1 29  1  0
  1 30  1  0
  3 31  1  0
  3 32  1  0
  4 33  1  0
  4 34  1  0
  5 35  1  0
  9 36  1  0
 10 37  1  0
 12 38  1  0
 15 39  1  0
 16 40  1  0
 21 41  1  0
 21 42  1  0
 23 43  1  0
 23 44  1  0
 24 45  1  0
 24 46  1  0
 25 47  1  0
 25 48  1  0
 26 49  1  0
 26 50  1  0
 27 51  1  0
 27 52  1  0
M  END
>  <smiles>  (49) 
CN(CCNC(=O)c1ccc2cc(Cl)ccc2n1)C(=O)CN1CCCCC1

>  <score_type>  (49) 
oracle

>  <origin>  (49) 
autodockgpu

>  <m_score__min__energy>  (49) 
-7.9299999999999997

>  <m_primary>  (49) 
energy

>  <rmsd>  (49) 
6.465472944480032

>  <m_score__min__rmsd>  (49) 
6.465472944480032

>  <meeko>  (49) 
{"free_energy": -7.5, "intermolecular_energy": -9.59, "internal_energy": -1.46, "cluster_size": 16, "cluster_id": 3, "rank_in_cluster": 3}

>  <energy>  (49) 
-6.57

>  <cluster_rmsd>  (49) 
0.5

>  <cluster>  (49) 
4

$$$$

     RDKit          3D

 52 54  0  0  0  0  0  0  0  0999 V2000
  137.9220   76.3690  222.5690 C   0  0  0  0  0  0  0  0  0  0  0  0
  138.7640   75.6570  221.6190 N   0  0  0  0  0  0  0  0  0  0  0  0
  138.1690   75.2310  220.3640 C   0  0  0  0  0  0  0  0  0  0  0  0
  137.3010   74.0180  220.5990 C   0  0  0  0  0  0  0  0  0  0  0  0
  137.7810   73.2100  221.7300 N   0  0  0  0  0  0  0  0  0  0  0  0
  137.5050   71.8130  221.7670 C   0  0  0  0  0  0  0  0  0  0  0  0
  136.8430   71.2340  220.8400 O   0  0  0  0  0  0  0  0  0  0  0  0
  138.0100   71.0540  222.9100 C   0  0  0  0  0  0  0  0  0  0  0  0
  137.5380   69.7800  223.1610 C   0  0  0  0  0  0  0  0  0  0  0  0
  137.9870   69.0240  224.2290 C   0  0  0  0  0  0  0  0  0  0  0  0
  138.9480   69.5580  225.0880 C   0  0  0  0  0  0  0  0  0  0  0  0
  139.4050   68.8170  226.1540 C   0  0  0  0  0  0  0  0  0  0  0  0
  140.3610   69.4030  226.9670 C   0  0  0  0  0  0  0  0  0  0  0  0
  141.0300   68.5590  228.3660 Cl  0  0  0  0  0  0  0  0  0  0  0  0
  140.8140   70.6790  226.6900 C   0  0  0  0  0  0  0  0  0  0  0  0
  140.3510   71.4220  225.6170 C   0  0  0  0  0  0  0  0  0  0  0  0
  139.3970   70.8360  224.8050 C   0  0  0  0  0  0  0  0  0  0  0  0
  138.9400   71.5520  223.7550 N   0  0  0  0  0  0  0  0  0  0  0  0
  140.1540   75.3810  221.9080 C   0  0  0  0  0  0  0  0  0  0  0  0
  140.4110   74.2290  222.3400 O   0  0  0  0  0  0  0  0  0  0  0  0
  141.1060   76.4530  221.6740 C   0  0  0  0  0  0  0  0  0  0  0  0
  140.8620   77.7190  222.2690 N   0  0  0  0  0  0  0  0  0  0  0  0
  140.4230   78.7350  221.4040 C   0  0  0  0  0  0  0  0  0  0  0  0
  140.9790   80.0960  221.5000 C   0  0  0  0  0  0  0  0  0  0  0  0
  142.1590   80.1540  222.4080 C   0  0  0  0  0  0  0  0  0  0  0  0
  141.7040   79.5050  223.7230 C   0  0  0  0  0  0  0  0  0  0  0  0
  141.4590   78.0240  223.4950 C   0  0  0  0  0  0  0  0  0  0  0  0
  138.2268   76.1113  223.5940 H   0  0  0  0  0  0  0  0  0  0  0  0
  138.0314   77.4527  222.4155 H   0  0  0  0  0  0  0  0  0  0  0  0
  136.8715   76.0811  222.4155 H   0  0  0  0  0  0  0  0  0  0  0  0
  137.5547   76.0467  219.9549 H   0  0  0  0  0  0  0  0  0  0  0  0
  138.9664   74.9760  219.6504 H   0  0  0  0  0  0  0  0  0  0  0  0
  136.2743   74.3512  220.8106 H   0  0  0  0  0  0  0  0  0  0  0  0
  137.3370   73.3931  219.6945 H   0  0  0  0  0  0  0  0  0  0  0  0
  138.3270   73.6390  222.5140 H   0  0  0  0  0  0  0  0  0  0  0  0
  136.7795   69.3523  222.4888 H   0  0  0  0  0  0  0  0  0  0  0  0
  137.5904   68.0122  224.3992 H   0  0  0  0  0  0  0  0  0  0  0  0
  139.0272   67.8030  226.3518 H   0  0  0  0  0  0  0  0  0  0  0  0
  141.5742   71.1230  227.3495 H   0  0  0  0  0  0  0  0  0  0  0  0
  140.7266   72.4367  225.4186 H   0  0  0  0  0  0  0  0  0  0  0  0
  142.0830   76.1051  222.0405 H   0  0  0  0  0  0  0  0  0  0  0  0
  141.0338   76.6455  220.5934 H   0  0  0  0  0  0  0  0  0  0  0  0
  140.6236   78.3850  220.3806 H   0  0  0  0  0  0  0  0  0  0  0  0
  139.3742   78.8766  221.7039 H   0  0  0  0  0  0  0  0  0  0  0  0
  141.2864   80.4257  220.4966 H   0  0  0  0  0  0  0  0  0  0  0  0
  140.1996   80.7531  221.9132 H   0  0  0  0  0  0  0  0  0  0  0  0
  143.0027   79.5955  221.9765 H   0  0  0  0  0  0  0  0  0  0  0  0
  142.5016   81.1878  222.5628 H   0  0  0  0  0  0  0  0  0  0  0  0
  142.4856   79.6346  224.4861 H   0  0  0  0  0  0  0  0  0  0  0  0
  140.7748   79.9829  224.0669 H   0  0  0  0  0  0  0  0  0  0  0  0
  142.4268   77.5036  223.5451 H   0  0  0  0  0  0  0  0  0  0  0  0
  140.7558   77.6986  224.2758 H   0  0  0  0  0  0  0  0  0  0  0  0
  1  2  1  0
  2  3  1  0
  3  4  1  0
  4  5  1  0
  5  6  1  0
  6  7  2  0
  6  8  1  0
  8  9  2  0
  9 10  1  0
 10 11  2  0
 11 12  1  0
 12 13  2  0
 13 14  1  0
 13 15  1  0
 15 16  2  0
 16 17  1  0
 17 18  2  0
  2 19  1  0
 19 20  2  0
 19 21  1  0
 21 22  1  0
 22 23  1  0
 23 24  1  0
 24 25  1  0
 25 26  1  0
 26 27  1  0
 18  8  1  0
 27 22  1  0
 17 11  1  0
  1 28  1  0
  1 29  1  0
  1 30  1  0
  3 31  1  0
  3 32  1  0
  4 33  1  0
  4 34  1  0
  5 35  1  0
  9 36  1  0
 10 37  1  0
 12 38  1  0
 15 39  1  0
 16 40  1  0
 21 41  1  0
 21 42  1  0
 23 43  1  0
 23 44  1  0
 24 45  1  0
 24 46  1  0
 25 47  1  0
 25 48  1  0
 26 49  1  0
 26 50  1  0
 27 51  1  0
 27 52  1  0
M  END
>  <smiles>  (50) 
CN(CCNC(=O)c1ccc2cc(Cl)ccc2n1)C(=O)CN1CCCCC1

>  <score_type>  (50) 
oracle

>  <origin>  (50) 
autodockgpu

>  <m_score__min__energy>  (50) 
-7.9299999999999997

>  <m_primary>  (50) 
energy

>  <rmsd>  (50) 
9.530215302300798

>  <m_score__min__rmsd>  (50) 
9.530215302300798

>  <meeko>  (50) 
{"free_energy": -6.96, "intermolecular_energy": -9.05, "internal_energy": -2.26, "cluster_size": 28, "cluster_id": 1, "rank_in_cluster": 25}

>  <energy>  (50) 
-6.46

>  <cluster_rmsd>  (50) 
1.19

>  <cluster>  (50) 
4

$$$$
