
     RDKit          3D

 55 58  0  0  0  0  0  0  0  0999 V2000
  146.0520   73.4520  218.2740 N   0  0  0  0  0  0  0  0  0  0  0  0
  145.8100   72.8780  219.9000 S   0  0  0  0  0  0  0  0  0  0  0  0
  146.3100   71.4770  220.0550 O   0  0  0  0  0  0  0  0  0  0  0  0
  146.5520   73.7580  220.8790 O   0  0  0  0  0  0  0  0  0  0  0  0
  144.1040   73.0000  220.2880 C   0  0  0  0  0  0  0  0  0  0  0  0
  143.3330   71.8440  220.3200 C   0  0  0  0  0  0  0  0  0  0  0  0
  141.9870   71.9260  220.6240 C   0  0  0  0  0  0  0  0  0  0  0  0
  141.3650   73.1250  220.9030 C   0  0  0  0  0  0  0  0  0  0  0  0
  139.9510   73.2420  221.2280 C   0  0  0  0  0  0  0  0  0  0  0  0
  139.1420   72.2340  221.4240 C   0  0  0  0  0  0  0  0  0  0  0  0
  139.3170   71.3100  222.5660 C   0  0  0  0  0  0  0  0  0  0  0  0
  140.0140   71.8010  223.6040 N   0  0  0  0  0  0  0  0  0  0  0  0
  140.2450   71.0650  224.7000 C   0  0  0  0  0  0  0  0  0  0  0  0
  140.9600   71.5590  225.7720 C   0  0  0  0  0  0  0  0  0  0  0  0
  141.1930   70.7880  226.9010 C   0  0  0  0  0  0  0  0  0  0  0  0
  140.6960   69.5120  226.9350 C   0  0  0  0  0  0  0  0  0  0  0  0
  140.9930   68.5300  228.3720 Cl  0  0  0  0  0  0  0  0  0  0  0  0
  139.9850   69.0360  225.8560 C   0  0  0  0  0  0  0  0  0  0  0  0
  139.7410   69.7830  224.7250 C   0  0  0  0  0  0  0  0  0  0  0  0
  139.0280   69.3100  223.6420 C   0  0  0  0  0  0  0  0  0  0  0  0
  138.5950   68.1280  223.7330 O   0  0  0  0  0  0  0  0  0  0  0  0
  138.8010   70.0680  222.5340 N   0  0  0  0  0  0  0  0  0  0  0  0
  138.0700   69.5710  221.4030 C   0  0  0  0  0  0  0  0  0  0  0  0
  138.9230   69.0820  220.2620 C   0  0  0  0  0  0  0  0  0  0  0  0
  140.3040   68.8020  220.8260 C   0  0  0  0  0  0  0  0  0  0  0  0
  141.3550   68.7750  219.7420 C   0  0  0  0  0  0  0  0  0  0  0  0
  140.7740   68.5770  218.3590 C   0  0  0  0  0  0  0  0  0  0  0  0
  139.7900   69.6370  217.9840 C   0  0  0  0  0  0  0  0  0  0  0  0
  138.9450   70.0850  219.1620 C   0  0  0  0  0  0  0  0  0  0  0  0
  142.1730   74.2540  220.8610 C   0  0  0  0  0  0  0  0  0  0  0  0
  143.5060   74.2200  220.5650 C   0  0  0  0  0  0  0  0  0  0  0  0
  145.2790   74.1080  218.0490 H   0  0  0  0  0  0  0  0  0  0  0  0
  146.9690   73.9510  218.2010 H   0  0  0  0  0  0  0  0  0  0  0  0
  143.7920   70.8679  220.1043 H   0  0  0  0  0  0  0  0  0  0  0  0
  141.3906   71.0019  220.6441 H   0  0  0  0  0  0  0  0  0  0  0  0
  139.5315   74.2551  221.3153 H   0  0  0  0  0  0  0  0  0  0  0  0
  138.3108   72.0688  220.7226 H   0  0  0  0  0  0  0  0  0  0  0  0
  141.3532   72.5855  225.7301 H   0  0  0  0  0  0  0  0  0  0  0  0
  141.7640   71.1920  227.7500 H   0  0  0  0  0  0  0  0  0  0  0  0
  139.5929   68.0092  225.8996 H   0  0  0  0  0  0  0  0  0  0  0  0
  137.4417   68.7345  221.7429 H   0  0  0  0  0  0  0  0  0  0  0  0
  137.4901   70.4204  221.0128 H   0  0  0  0  0  0  0  0  0  0  0  0
  138.5171   68.1601  219.8199 H   0  0  0  0  0  0  0  0  0  0  0  0
  140.5594   69.5891  221.5507 H   0  0  0  0  0  0  0  0  0  0  0  0
  140.2835   67.8137  221.3085 H   0  0  0  0  0  0  0  0  0  0  0  0
  141.9008   69.7299  219.7593 H   0  0  0  0  0  0  0  0  0  0  0  0
  142.0161   67.9199  219.9463 H   0  0  0  0  0  0  0  0  0  0  0  0
  141.5962   68.5871  217.6283 H   0  0  0  0  0  0  0  0  0  0  0  0
  140.2390   67.6159  218.3604 H   0  0  0  0  0  0  0  0  0  0  0  0
  140.3390   70.5060  217.5924 H   0  0  0  0  0  0  0  0  0  0  0  0
  139.1129   69.2135  217.2275 H   0  0  0  0  0  0  0  0  0  0  0  0
  139.3557   71.0278  219.5524 H   0  0  0  0  0  0  0  0  0  0  0  0
  137.9126   70.2111  218.8040 H   0  0  0  0  0  0  0  0  0  0  0  0
  141.7139   75.2297  221.0782 H   0  0  0  0  0  0  0  0  0  0  0  0
  144.0969   75.1476  220.5466 H   0  0  0  0  0  0  0  0  0  0  0  0
  1  2  1  0
  2  3  2  0
  2  4  2  0
  2  5  1  0
  5  6  2  0
  6  7  1  0
  7  8  2  0
  8  9  1  0
  9 10  2  0
 10 11  1  0
 11 12  2  0
 12 13  1  0
 13 14  2  0
 14 15  1  0
 15 16  2  0
 16 17  1  0
 16 18  1  0
 18 19  2  0
 19 20  1  0
 20 21  2  0
 20 22  1  0
 22 23  1  0
 23 24  1  0
 24 25  1  0
 25 26  1  0
 26 27  1  0
 27 28  1  0
 28 29  1  0
  8 30  1  0
 30 31  2  0
 31  5  1  0
 22 11  1  0
 29 24  1  0
 19 13  1  0
  1 32  1  0
  1 33  1  0
  6 34  1  0
  7 35  1  0
  9 36  1  0
 10 37  1  0
 14 38  1  0
 15 39  1  0
 18 40  1  0
 23 41  1  0
 23 42  1  0
 24 43  1  0
 25 44  1  0
 25 45  1  0
 26 46  1  0
 26 47  1  0
 27 48  1  0
 27 49  1  0
 28 50  1  0
 28 51  1  0
 29 52  1  0
 29 53  1  0
 30 54  1  0
 31 55  1  0
M  END
>  <smiles>  (1) 
NS(=O)(=O)c1ccc(/C=C/c2nc3ccc(Cl)cc3c(=O)n2CC2CCCCC2)cc1

>  <score_type>  (1) 
oracle

>  <origin>  (1) 
autodockgpu

>  <m_score__min__energy>  (1) 
-9.4900000000000002

>  <m_primary>  (1) 
energy

>  <rmsd>  (1) 
10.18570892405348

>  <m_score__min__rmsd>  (1) 
10.18570892405348

>  <meeko>  (1) 
{"free_energy": -8.1, "intermolecular_energy": -10.19, "internal_energy": -2.08, "cluster_size": 15, "cluster_id": 2, "rank_in_cluster": 13}

>  <energy>  (1) 
-9.49

>  <cluster_rmsd>  (1) 
0.0

>  <cluster>  (1) 
1

$$$$

     RDKit          3D

 55 58  0  0  0  0  0  0  0  0999 V2000
  132.8350   74.5070  227.4750 N   0  0  0  0  0  0  0  0  0  0  0  0
  133.2450   73.2800  226.3110 S   0  0  0  0  0  0  0  0  0  0  0  0
  133.8040   72.0670  226.9830 O   0  0  0  0  0  0  0  0  0  0  0  0
  132.0170   72.8690  225.5320 O   0  0  0  0  0  0  0  0  0  0  0  0
  134.3820   73.9590  225.1590 C   0  0  0  0  0  0  0  0  0  0  0  0
  134.5230   75.3390  225.0820 C   0  0  0  0  0  0  0  0  0  0  0  0
  135.4150   75.8880  224.1790 C   0  0  0  0  0  0  0  0  0  0  0  0
  136.1840   75.1120  223.3390 C   0  0  0  0  0  0  0  0  0  0  0  0
  137.1320   75.6610  222.3790 C   0  0  0  0  0  0  0  0  0  0  0  0
  138.2450   76.2710  222.6910 C   0  0  0  0  0  0  0  0  0  0  0  0
  139.5190   75.9570  222.0070 C   0  0  0  0  0  0  0  0  0  0  0  0
  139.9110   74.6740  222.0770 N   0  0  0  0  0  0  0  0  0  0  0  0
  141.0470   74.2580  221.5010 C   0  0  0  0  0  0  0  0  0  0  0  0
  141.4590   72.9430  221.5680 C   0  0  0  0  0  0  0  0  0  0  0  0
  142.6380   72.5250  220.9680 C   0  0  0  0  0  0  0  0  0  0  0  0
  143.3960   73.4510  220.3010 C   0  0  0  0  0  0  0  0  0  0  0  0
  144.8960   72.9190  219.5370 Cl  0  0  0  0  0  0  0  0  0  0  0  0
  142.9690   74.7590  220.2450 C   0  0  0  0  0  0  0  0  0  0  0  0
  141.8030   75.1970  220.8320 C   0  0  0  0  0  0  0  0  0  0  0  0
  141.3710   76.5060  220.7790 C   0  0  0  0  0  0  0  0  0  0  0  0
  142.1110   77.3120  220.1490 O   0  0  0  0  0  0  0  0  0  0  0  0
  140.2140   76.9150  221.3680 N   0  0  0  0  0  0  0  0  0  0  0  0
  139.7720   78.2800  221.3230 C   0  0  0  0  0  0  0  0  0  0  0  0
  140.5180   79.2200  222.2340 C   0  0  0  0  0  0  0  0  0  0  0  0
  141.4330   80.0560  221.3570 C   0  0  0  0  0  0  0  0  0  0  0  0
  142.5550   80.6770  222.1550 C   0  0  0  0  0  0  0  0  0  0  0  0
  142.2740   80.7160  223.6410 C   0  0  0  0  0  0  0  0  0  0  0  0
  142.0260   79.3600  224.2220 C   0  0  0  0  0  0  0  0  0  0  0  0
  141.2580   78.4570  223.2740 C   0  0  0  0  0  0  0  0  0  0  0  0
  136.0110   73.7380  223.4490 C   0  0  0  0  0  0  0  0  0  0  0  0
  135.1430   73.1530  224.3260 C   0  0  0  0  0  0  0  0  0  0  0  0
  132.8620   74.0740  228.4190 H   0  0  0  0  0  0  0  0  0  0  0  0
  133.5260   75.2920  227.4290 H   0  0  0  0  0  0  0  0  0  0  0  0
  133.9275   75.9923  225.7367 H   0  0  0  0  0  0  0  0  0  0  0  0
  135.5141   76.9824  224.1295 H   0  0  0  0  0  0  0  0  0  0  0  0
  136.8931   75.5541  221.3106 H   0  0  0  0  0  0  0  0  0  0  0  0
  138.2344   77.0363  223.4811 H   0  0  0  0  0  0  0  0  0  0  0  0
  140.8402   72.2112  222.1080 H   0  0  0  0  0  0  0  0  0  0  0  0
  142.9570   71.4739  221.0265 H   0  0  0  0  0  0  0  0  0  0  0  0
  143.5895   75.4894  219.7051 H   0  0  0  0  0  0  0  0  0  0  0  0
  139.8866   78.6422  220.2907 H   0  0  0  0  0  0  0  0  0  0  0  0
  138.7285   78.2774  221.6709 H   0  0  0  0  0  0  0  0  0  0  0  0
  139.8326   79.8841  222.7809 H   0  0  0  0  0  0  0  0  0  0  0  0
  141.8643   79.4126  220.5760 H   0  0  0  0  0  0  0  0  0  0  0  0
  140.8369   80.8672  220.9136 H   0  0  0  0  0  0  0  0  0  0  0  0
  143.4705   80.0909  221.9869 H   0  0  0  0  0  0  0  0  0  0  0  0
  142.6641   81.7171  221.8139 H   0  0  0  0  0  0  0  0  0  0  0  0
  143.1403   81.1631  224.1505 H   0  0  0  0  0  0  0  0  0  0  0  0
  141.3605   81.3107  223.7889 H   0  0  0  0  0  0  0  0  0  0  0  0
  142.9944   78.8908  224.4503 H   0  0  0  0  0  0  0  0  0  0  0  0
  141.4176   79.4895  225.1292 H   0  0  0  0  0  0  0  0  0  0  0  0
  141.9694   77.7815  222.7765 H   0  0  0  0  0  0  0  0  0  0  0  0
  140.5190   77.8999  223.8686 H   0  0  0  0  0  0  0  0  0  0  0  0
  136.6061   73.0852  222.7934 H   0  0  0  0  0  0  0  0  0  0  0  0
  135.0489   72.0580  224.3710 H   0  0  0  0  0  0  0  0  0  0  0  0
  1  2  1  0
  2  3  2  0
  2  4  2  0
  2  5  1  0
  5  6  2  0
  6  7  1  0
  7  8  2  0
  8  9  1  0
  9 10  2  0
 10 11  1  0
 11 12  2  0
 12 13  1  0
 13 14  2  0
 14 15  1  0
 15 16  2  0
 16 17  1  0
 16 18  1  0
 18 19  2  0
 19 20  1  0
 20 21  2  0
 20 22  1  0
 22 23  1  0
 23 24  1  0
 24 25  1  0
 25 26  1  0
 26 27  1  0
 27 28  1  0
 28 29  1  0
  8 30  1  0
 30 31  2  0
 31  5  1  0
 22 11  1  0
 29 24  1  0
 19 13  1  0
  1 32  1  0
  1 33  1  0
  6 34  1  0
  7 35  1  0
  9 36  1  0
 10 37  1  0
 14 38  1  0
 15 39  1  0
 18 40  1  0
 23 41  1  0
 23 42  1  0
 24 43  1  0
 25 44  1  0
 25 45  1  0
 26 46  1  0
 26 47  1  0
 27 48  1  0
 27 49  1  0
 28 50  1  0
 28 51  1  0
 29 52  1  0
 29 53  1  0
 30 54  1  0
 31 55  1  0
M  END
>  <smiles>  (2) 
NS(=O)(=O)c1ccc(/C=C/c2nc3ccc(Cl)cc3c(=O)n2CC2CCCCC2)cc1

>  <score_type>  (2) 
oracle

>  <origin>  (2) 
autodockgpu

>  <m_score__min__energy>  (2) 
-9.4900000000000002

>  <m_primary>  (2) 
energy

>  <rmsd>  (2) 
7.021722413492121

>  <m_score__min__rmsd>  (2) 
7.021722413492121

>  <meeko>  (2) 
{"free_energy": -8.54, "intermolecular_energy": -10.63, "internal_energy": -1.32, "cluster_size": 5, "cluster_id": 3, "rank_in_cluster": 4}

>  <energy>  (2) 
-9.43

>  <cluster_rmsd>  (2) 
0.34

>  <cluster>  (2) 
1

$$$$

     RDKit          3D

 55 58  0  0  0  0  0  0  0  0999 V2000
  139.2340   67.2610  226.3920 N   0  0  0  0  0  0  0  0  0  0  0  0
  140.3490   68.5790  226.6150 S   0  0  0  0  0  0  0  0  0  0  0  0
  140.2000   69.1850  227.9730 O   0  0  0  0  0  0  0  0  0  0  0  0
  141.7710   68.0880  226.4660 O   0  0  0  0  0  0  0  0  0  0  0  0
  140.0770   69.7610  225.3480 C   0  0  0  0  0  0  0  0  0  0  0  0
  140.8770   70.8960  225.2980 C   0  0  0  0  0  0  0  0  0  0  0  0
  140.6730   71.8350  224.3040 C   0  0  0  0  0  0  0  0  0  0  0  0
  139.6950   71.6930  223.3440 C   0  0  0  0  0  0  0  0  0  0  0  0
  139.4580   72.6650  222.2860 C   0  0  0  0  0  0  0  0  0  0  0  0
  140.3310   73.0110  221.3780 C   0  0  0  0  0  0  0  0  0  0  0  0
  140.7640   74.4170  221.2130 C   0  0  0  0  0  0  0  0  0  0  0  0
  140.1240   75.3120  221.9840 N   0  0  0  0  0  0  0  0  0  0  0  0
  140.4190   76.6180  221.9310 C   0  0  0  0  0  0  0  0  0  0  0  0
  139.7680   77.5450  222.7180 C   0  0  0  0  0  0  0  0  0  0  0  0
  140.0820   78.8940  222.6530 C   0  0  0  0  0  0  0  0  0  0  0  0
  141.0620   79.2960  221.7830 C   0  0  0  0  0  0  0  0  0  0  0  0
  141.4630   81.0140  221.7010 Cl  0  0  0  0  0  0  0  0  0  0  0  0
  141.7010   78.3570  221.0060 C   0  0  0  0  0  0  0  0  0  0  0  0
  141.4060   77.0120  221.0530 C   0  0  0  0  0  0  0  0  0  0  0  0
  142.0440   76.0670  220.2760 C   0  0  0  0  0  0  0  0  0  0  0  0
  142.9380   76.4980  219.4960 O   0  0  0  0  0  0  0  0  0  0  0  0
  141.7340   74.7430  220.3400 N   0  0  0  0  0  0  0  0  0  0  0  0
  142.3900   73.7620  219.5230 C   0  0  0  0  0  0  0  0  0  0  0  0
  143.6950   73.2480  220.0710 C   0  0  0  0  0  0  0  0  0  0  0  0
  144.5170   74.4610  220.4720 C   0  0  0  0  0  0  0  0  0  0  0  0
  145.9860   74.1280  220.5780 C   0  0  0  0  0  0  0  0  0  0  0  0
  146.2490   72.6450  220.7140 C   0  0  0  0  0  0  0  0  0  0  0  0
  145.7060   71.8500  219.5710 C   0  0  0  0  0  0  0  0  0  0  0  0
  144.3830   72.3960  219.0650 C   0  0  0  0  0  0  0  0  0  0  0  0
  138.9180   70.5440  223.4310 C   0  0  0  0  0  0  0  0  0  0  0  0
  139.0850   69.5910  224.3940 C   0  0  0  0  0  0  0  0  0  0  0  0
  139.4910   66.7690  225.5140 H   0  0  0  0  0  0  0  0  0  0  0  0
  139.2980   66.5950  227.1980 H   0  0  0  0  0  0  0  0  0  0  0  0
  141.6692   71.0468  226.0461 H   0  0  0  0  0  0  0  0  0  0  0  0
  141.3149   72.7280  224.2787 H   0  0  0  0  0  0  0  0  0  0  0  0
  138.4686   73.1443  222.2485 H   0  0  0  0  0  0  0  0  0  0  0  0
  140.7549   72.2385  220.7196 H   0  0  0  0  0  0  0  0  0  0  0  0
  138.9837   77.2072  223.4114 H   0  0  0  0  0  0  0  0  0  0  0  0
  139.5566   79.6249  223.2852 H   0  0  0  0  0  0  0  0  0  0  0  0
  142.4854   78.6968  220.3137 H   0  0  0  0  0  0  0  0  0  0  0  0
  141.7091   72.9063  219.4040 H   0  0  0  0  0  0  0  0  0  0  0  0
  142.6309   74.2633  218.5740 H   0  0  0  0  0  0  0  0  0  0  0  0
  143.5397   72.6059  220.9505 H   0  0  0  0  0  0  0  0  0  0  0  0
  144.3834   75.2484  219.7156 H   0  0  0  0  0  0  0  0  0  0  0  0
  144.1696   74.8005  221.4589 H   0  0  0  0  0  0  0  0  0  0  0  0
  146.4939   74.4922  219.6728 H   0  0  0  0  0  0  0  0  0  0  0  0
  146.3680   74.6140  221.4879 H   0  0  0  0  0  0  0  0  0  0  0  0
  147.3360   72.4849  220.7676 H   0  0  0  0  0  0  0  0  0  0  0  0
  145.7387   72.3019  221.6261 H   0  0  0  0  0  0  0  0  0  0  0  0
  146.4352   71.8711  218.7477 H   0  0  0  0  0  0  0  0  0  0  0  0
  145.5317   70.8242  219.9279 H   0  0  0  0  0  0  0  0  0  0  0  0
  144.5715   72.9974  218.1635 H   0  0  0  0  0  0  0  0  0  0  0  0
  143.7283   71.5385  218.8503 H   0  0  0  0  0  0  0  0  0  0  0  0
  138.1253   70.3944  222.6832 H   0  0  0  0  0  0  0  0  0  0  0  0
  138.4409   68.6995  224.4130 H   0  0  0  0  0  0  0  0  0  0  0  0
  1  2  1  0
  2  3  2  0
  2  4  2  0
  2  5  1  0
  5  6  2  0
  6  7  1  0
  7  8  2  0
  8  9  1  0
  9 10  2  0
 10 11  1  0
 11 12  2  0
 12 13  1  0
 13 14  2  0
 14 15  1  0
 15 16  2  0
 16 17  1  0
 16 18  1  0
 18 19  2  0
 19 20  1  0
 20 21  2  0
 20 22  1  0
 22 23  1  0
 23 24  1  0
 24 25  1  0
 25 26  1  0
 26 27  1  0
 27 28  1  0
 28 29  1  0
  8 30  1  0
 30 31  2  0
 31  5  1  0
 22 11  1  0
 29 24  1  0
 19 13  1  0
  1 32  1  0
  1 33  1  0
  6 34  1  0
  7 35  1  0
  9 36  1  0
 10 37  1  0
 14 38  1  0
 15 39  1  0
 18 40  1  0
 23 41  1  0
 23 42  1  0
 24 43  1  0
 25 44  1  0
 25 45  1  0
 26 46  1  0
 26 47  1  0
 27 48  1  0
 27 49  1  0
 28 50  1  0
 28 51  1  0
 29 52  1  0
 29 53  1  0
 30 54  1  0
 31 55  1  0
M  END
>  <smiles>  (3) 
NS(=O)(=O)c1ccc(/C=C/c2nc3ccc(Cl)cc3c(=O)n2CC2CCCCC2)cc1

>  <score_type>  (3) 
oracle

>  <origin>  (3) 
autodockgpu

>  <m_score__min__energy>  (3) 
-9.4900000000000002

>  <m_primary>  (3) 
energy

>  <rmsd>  (3) 
5.365894372903198

>  <m_score__min__rmsd>  (3) 
5.365894372903198

>  <meeko>  (3) 
{"free_energy": -9.49, "intermolecular_energy": -11.58, "internal_energy": -1.09, "cluster_size": 12, "cluster_id": 1, "rank_in_cluster": 1}

>  <energy>  (3) 
-9.37

>  <cluster_rmsd>  (3) 
0.38

>  <cluster>  (3) 
1

$$$$

     RDKit          3D

 55 58  0  0  0  0  0  0  0  0999 V2000
  140.2500   67.3940  227.0560 N   0  0  0  0  0  0  0  0  0  0  0  0
  140.1510   69.0780  227.4870 S   0  0  0  0  0  0  0  0  0  0  0  0
  139.0240   69.3230  228.4390 O   0  0  0  0  0  0  0  0  0  0  0  0
  141.4350   69.5230  228.1470 O   0  0  0  0  0  0  0  0  0  0  0  0
  139.9710   70.0210  226.0190 C   0  0  0  0  0  0  0  0  0  0  0  0
  141.0120   70.8490  225.6150 C   0  0  0  0  0  0  0  0  0  0  0  0
  140.8840   71.5970  224.4600 C   0  0  0  0  0  0  0  0  0  0  0  0
  139.7500   71.5570  223.6770 C   0  0  0  0  0  0  0  0  0  0  0  0
  139.5870   72.3330  222.4560 C   0  0  0  0  0  0  0  0  0  0  0  0
  140.5620   72.7050  221.6700 C   0  0  0  0  0  0  0  0  0  0  0  0
  140.8220   74.1320  221.3780 C   0  0  0  0  0  0  0  0  0  0  0  0
  140.1380   75.0100  222.1320 N   0  0  0  0  0  0  0  0  0  0  0  0
  140.2810   76.3320  221.9670 C   0  0  0  0  0  0  0  0  0  0  0  0
  139.5840   77.2410  222.7360 C   0  0  0  0  0  0  0  0  0  0  0  0
  139.7400   78.6080  222.5560 C   0  0  0  0  0  0  0  0  0  0  0  0
  140.6080   79.0450  221.5900 C   0  0  0  0  0  0  0  0  0  0  0  0
  140.8060   80.7840  221.3610 Cl  0  0  0  0  0  0  0  0  0  0  0  0
  141.2950   78.1230  220.8330 C   0  0  0  0  0  0  0  0  0  0  0  0
  141.1570   76.7620  220.9940 C   0  0  0  0  0  0  0  0  0  0  0  0
  141.8440   75.8340  220.2370 C   0  0  0  0  0  0  0  0  0  0  0  0
  142.6290   76.2980  219.3650 O   0  0  0  0  0  0  0  0  0  0  0  0
  141.6890   74.4940  220.4150 N   0  0  0  0  0  0  0  0  0  0  0  0
  142.3950   73.5290  219.6190 C   0  0  0  0  0  0  0  0  0  0  0  0
  143.7310   73.1070  220.1710 C   0  0  0  0  0  0  0  0  0  0  0  0
  144.4350   74.3660  220.6450 C   0  0  0  0  0  0  0  0  0  0  0  0
  145.9260   74.1590  220.7670 C   0  0  0  0  0  0  0  0  0  0  0  0
  146.3180   72.7000  220.8400 C   0  0  0  0  0  0  0  0  0  0  0  0
  145.8660   71.9160  219.6490 C   0  0  0  0  0  0  0  0  0  0  0  0
  144.5090   72.3680  219.1410 C   0  0  0  0  0  0  0  0  0  0  0  0
  138.7350   70.7170  224.1170 C   0  0  0  0  0  0  0  0  0  0  0  0
  138.8190   69.9600  225.2510 C   0  0  0  0  0  0  0  0  0  0  0  0
  141.0360   66.9730  227.5880 H   0  0  0  0  0  0  0  0  0  0  0  0
  139.3570   66.9060  227.3040 H   0  0  0  0  0  0  0  0  0  0  0  0
  141.9338   70.9086  226.2122 H   0  0  0  0  0  0  0  0  0  0  0  0
  141.7167   72.2476  224.1545 H   0  0  0  0  0  0  0  0  0  0  0  0
  138.5657   72.6284  222.1739 H   0  0  0  0  0  0  0  0  0  0  0  0
  141.2056   71.9383  221.2140 H   0  0  0  0  0  0  0  0  0  0  0  0
  138.8906   76.8747  223.5074 H   0  0  0  0  0  0  0  0  0  0  0  0
  139.1797   79.3245  223.1746 H   0  0  0  0  0  0  0  0  0  0  0  0
  141.9879   78.4911  220.0620 H   0  0  0  0  0  0  0  0  0  0  0  0
  141.7638   72.6326  219.5294 H   0  0  0  0  0  0  0  0  0  0  0  0
  142.5998   74.0158  218.6541 H   0  0  0  0  0  0  0  0  0  0  0  0
  143.6182   72.4131  221.0170 H   0  0  0  0  0  0  0  0  0  0  0  0
  144.2450   75.1741  219.9233 H   0  0  0  0  0  0  0  0  0  0  0  0
  144.0420   74.6255  221.6391 H   0  0  0  0  0  0  0  0  0  0  0  0
  146.4149   74.6095  219.8907 H   0  0  0  0  0  0  0  0  0  0  0  0
  146.2473   74.6326  221.7064 H   0  0  0  0  0  0  0  0  0  0  0  0
  147.4139   72.6339  220.9085 H   0  0  0  0  0  0  0  0  0  0  0  0
  145.8261   72.2697  221.7248 H   0  0  0  0  0  0  0  0  0  0  0  0
  146.6044   72.0402  218.8431 H   0  0  0  0  0  0  0  0  0  0  0  0
  145.7766   70.8630  219.9543 H   0  0  0  0  0  0  0  0  0  0  0  0
  144.6591   73.0266  218.2728 H   0  0  0  0  0  0  0  0  0  0  0  0
  143.9365   71.4679  218.8726 H   0  0  0  0  0  0  0  0  0  0  0  0
  137.8132   70.6582  223.5197 H   0  0  0  0  0  0  0  0  0  0  0  0
  137.9833   69.3106  225.5506 H   0  0  0  0  0  0  0  0  0  0  0  0
  1  2  1  0
  2  3  2  0
  2  4  2  0
  2  5  1  0
  5  6  2  0
  6  7  1  0
  7  8  2  0
  8  9  1  0
  9 10  2  0
 10 11  1  0
 11 12  2  0
 12 13  1  0
 13 14  2  0
 14 15  1  0
 15 16  2  0
 16 17  1  0
 16 18  1  0
 18 19  2  0
 19 20  1  0
 20 21  2  0
 20 22  1  0
 22 23  1  0
 23 24  1  0
 24 25  1  0
 25 26  1  0
 26 27  1  0
 27 28  1  0
 28 29  1  0
  8 30  1  0
 30 31  2  0
 31  5  1  0
 22 11  1  0
 29 24  1  0
 19 13  1  0
  1 32  1  0
  1 33  1  0
  6 34  1  0
  7 35  1  0
  9 36  1  0
 10 37  1  0
 14 38  1  0
 15 39  1  0
 18 40  1  0
 23 41  1  0
 23 42  1  0
 24 43  1  0
 25 44  1  0
 25 45  1  0
 26 46  1  0
 26 47  1  0
 27 48  1  0
 27 49  1  0
 28 50  1  0
 28 51  1  0
 29 52  1  0
 29 53  1  0
 30 54  1  0
 31 55  1  0
M  END
>  <smiles>  (4) 
NS(=O)(=O)c1ccc(/C=C/c2nc3ccc(Cl)cc3c(=O)n2CC2CCCCC2)cc1

>  <score_type>  (4) 
oracle

>  <origin>  (4) 
autodockgpu

>  <m_score__min__energy>  (4) 
-9.4900000000000002

>  <m_primary>  (4) 
energy

>  <rmsd>  (4) 
5.488023247345873

>  <m_score__min__rmsd>  (4) 
5.488023247345873

>  <meeko>  (4) 
{"free_energy": -9.29, "intermolecular_energy": -11.38, "internal_energy": -1.2, "cluster_size": 12, "cluster_id": 1, "rank_in_cluster": 6}

>  <energy>  (4) 
-9.34

>  <cluster_rmsd>  (4) 
0.41

>  <cluster>  (4) 
1

$$$$

     RDKit          3D

 55 58  0  0  0  0  0  0  0  0999 V2000
  132.8480   74.3480  227.5370 N   0  0  0  0  0  0  0  0  0  0  0  0
  133.3790   73.1700  226.3710 S   0  0  0  0  0  0  0  0  0  0  0  0
  134.0580   72.0190  227.0420 O   0  0  0  0  0  0  0  0  0  0  0  0
  132.1990   72.6380  225.5930 O   0  0  0  0  0  0  0  0  0  0  0  0
  134.4400   73.9630  225.2200 C   0  0  0  0  0  0  0  0  0  0  0  0
  134.5510   75.3480  225.2440 C   0  0  0  0  0  0  0  0  0  0  0  0
  135.3830   75.9850  224.3430 C   0  0  0  0  0  0  0  0  0  0  0  0
  136.1220   75.2940  223.4060 C   0  0  0  0  0  0  0  0  0  0  0  0
  137.0070   75.9380  222.4450 C   0  0  0  0  0  0  0  0  0  0  0  0
  138.1950   76.4070  222.7190 C   0  0  0  0  0  0  0  0  0  0  0  0
  139.4050   75.9060  222.0310 C   0  0  0  0  0  0  0  0  0  0  0  0
  139.6780   74.6040  222.2180 N   0  0  0  0  0  0  0  0  0  0  0  0
  140.7460   74.0250  221.6520 C   0  0  0  0  0  0  0  0  0  0  0  0
  141.0360   72.6890  221.8380 C   0  0  0  0  0  0  0  0  0  0  0  0
  142.1440   72.1020  221.2470 C   0  0  0  0  0  0  0  0  0  0  0  0
  142.9570   72.8800  220.4650 C   0  0  0  0  0  0  0  0  0  0  0  0
  144.3680   72.1330  219.7120 Cl  0  0  0  0  0  0  0  0  0  0  0  0
  142.6520   74.2110  220.2900 C   0  0  0  0  0  0  0  0  0  0  0  0
  141.5570   74.8160  220.8670 C   0  0  0  0  0  0  0  0  0  0  0  0
  141.2470   76.1500  220.6940 C   0  0  0  0  0  0  0  0  0  0  0  0
  142.0320   76.8140  219.9620 O   0  0  0  0  0  0  0  0  0  0  0  0
  140.1590   76.7250  221.2750 N   0  0  0  0  0  0  0  0  0  0  0  0
  139.8440   78.1150  221.1050 C   0  0  0  0  0  0  0  0  0  0  0  0
  140.4960   79.0400  222.1000 C   0  0  0  0  0  0  0  0  0  0  0  0
  141.4670   79.9130  221.3260 C   0  0  0  0  0  0  0  0  0  0  0  0
  142.5080   80.5270  222.2320 C   0  0  0  0  0  0  0  0  0  0  0  0
  142.1030   80.5210  223.6890 C   0  0  0  0  0  0  0  0  0  0  0  0
  141.8300   79.1470  224.2110 C   0  0  0  0  0  0  0  0  0  0  0  0
  141.1600   78.2590  223.1790 C   0  0  0  0  0  0  0  0  0  0  0  0
  135.9820   73.9120  223.4170 C   0  0  0  0  0  0  0  0  0  0  0  0
  135.1720   73.2420  224.2890 C   0  0  0  0  0  0  0  0  0  0  0  0
  131.9520   74.7520  227.1990 H   0  0  0  0  0  0  0  0  0  0  0  0
  132.6970   73.8910  228.4670 H   0  0  0  0  0  0  0  0  0  0  0  0
  133.9788   75.9351  225.9774 H   0  0  0  0  0  0  0  0  0  0  0  0
  135.4584   77.0820  224.3744 H   0  0  0  0  0  0  0  0  0  0  0  0
  136.6477   76.0369  221.4100 H   0  0  0  0  0  0  0  0  0  0  0  0
  138.2983   77.1942  223.4804 H   0  0  0  0  0  0  0  0  0  0  0  0
  140.3742   72.0769  222.4684 H   0  0  0  0  0  0  0  0  0  0  0  0
  142.3656   71.0358  221.4022 H   0  0  0  0  0  0  0  0  0  0  0  0
  143.3148   74.8211  219.6588 H   0  0  0  0  0  0  0  0  0  0  0  0
  140.1643   78.4171  220.0969 H   0  0  0  0  0  0  0  0  0  0  0  0
  138.7593   78.2069  221.2633 H   0  0  0  0  0  0  0  0  0  0  0  0
  139.7559   79.6785  222.6045 H   0  0  0  0  0  0  0  0  0  0  0  0
  141.9726   79.2980  220.5670 H   0  0  0  0  0  0  0  0  0  0  0  0
  140.8968   80.7279  220.8560 H   0  0  0  0  0  0  0  0  0  0  0  0
  143.4437   79.9584  222.1262 H   0  0  0  0  0  0  0  0  0  0  0  0
  142.6285   81.5776  221.9290 H   0  0  0  0  0  0  0  0  0  0  0  0
  142.9160   80.9664  224.2812 H   0  0  0  0  0  0  0  0  0  0  0  0
  141.1705   81.0982  223.7749 H   0  0  0  0  0  0  0  0  0  0  0  0
  142.7835   78.6860  224.5081 H   0  0  0  0  0  0  0  0  0  0  0  0
  141.1451   79.2430  225.0664 H   0  0  0  0  0  0  0  0  0  0  0  0
  141.9221   77.6082  222.7255 H   0  0  0  0  0  0  0  0  0  0  0  0
  140.3838   77.6744  223.6945 H   0  0  0  0  0  0  0  0  0  0  0  0
  136.5546   73.3254  222.6836 H   0  0  0  0  0  0  0  0  0  0  0  0
  135.1013   72.1449  224.2532 H   0  0  0  0  0  0  0  0  0  0  0  0
  1  2  1  0
  2  3  2  0
  2  4  2  0
  2  5  1  0
  5  6  2  0
  6  7  1  0
  7  8  2  0
  8  9  1  0
  9 10  2  0
 10 11  1  0
 11 12  2  0
 12 13  1  0
 13 14  2  0
 14 15  1  0
 15 16  2  0
 16 17  1  0
 16 18  1  0
 18 19  2  0
 19 20  1  0
 20 21  2  0
 20 22  1  0
 22 23  1  0
 23 24  1  0
 24 25  1  0
 25 26  1  0
 26 27  1  0
 27 28  1  0
 28 29  1  0
  8 30  1  0
 30 31  2  0
 31  5  1  0
 22 11  1  0
 29 24  1  0
 19 13  1  0
  1 32  1  0
  1 33  1  0
  6 34  1  0
  7 35  1  0
  9 36  1  0
 10 37  1  0
 14 38  1  0
 15 39  1  0
 18 40  1  0
 23 41  1  0
 23 42  1  0
 24 43  1  0
 25 44  1  0
 25 45  1  0
 26 46  1  0
 26 47  1  0
 27 48  1  0
 27 49  1  0
 28 50  1  0
 28 51  1  0
 29 52  1  0
 29 53  1  0
 30 54  1  0
 31 55  1  0
M  END
>  <smiles>  (5) 
NS(=O)(=O)c1ccc(/C=C/c2nc3ccc(Cl)cc3c(=O)n2CC2CCCCC2)cc1

>  <score_type>  (5) 
oracle

>  <origin>  (5) 
autodockgpu

>  <m_score__min__energy>  (5) 
-9.4900000000000002

>  <m_primary>  (5) 
energy

>  <rmsd>  (5) 
7.094907289706148

>  <m_score__min__rmsd>  (5) 
7.094907289706148

>  <meeko>  (5) 
{"free_energy": -8.49, "intermolecular_energy": -10.58, "internal_energy": -1.36, "cluster_size": 5, "cluster_id": 3, "rank_in_cluster": 5}

>  <energy>  (5) 
-9.33

>  <cluster_rmsd>  (5) 
0.44

>  <cluster>  (5) 
1

$$$$

     RDKit          3D

 55 58  0  0  0  0  0  0  0  0999 V2000
  146.3050   73.4340  218.8710 N   0  0  0  0  0  0  0  0  0  0  0  0
  145.9130   72.2590  220.0940 S   0  0  0  0  0  0  0  0  0  0  0  0
  146.4190   70.9030  219.7190 O   0  0  0  0  0  0  0  0  0  0  0  0
  146.5390   72.6520  221.4130 O   0  0  0  0  0  0  0  0  0  0  0  0
  144.1750   72.2560  220.3300 C   0  0  0  0  0  0  0  0  0  0  0  0
  143.5090   73.4670  220.4710 C   0  0  0  0  0  0  0  0  0  0  0  0
  142.1390   73.4790  220.6570 C   0  0  0  0  0  0  0  0  0  0  0  0
  141.3920   72.3220  220.7080 C   0  0  0  0  0  0  0  0  0  0  0  0
  139.9480   72.3030  220.9010 C   0  0  0  0  0  0  0  0  0  0  0  0
  139.3450   72.4640  222.0490 C   0  0  0  0  0  0  0  0  0  0  0  0
  139.4560   71.4600  223.1310 C   0  0  0  0  0  0  0  0  0  0  0  0
  140.1540   71.8500  224.2110 N   0  0  0  0  0  0  0  0  0  0  0  0
  140.3300   71.0350  225.2600 C   0  0  0  0  0  0  0  0  0  0  0  0
  141.0460   71.4250  226.3730 C   0  0  0  0  0  0  0  0  0  0  0  0
  141.2220   70.5720  227.4530 C   0  0  0  0  0  0  0  0  0  0  0  0
  140.6680   69.3210  227.3940 C   0  0  0  0  0  0  0  0  0  0  0  0
  140.8920   68.2350  228.7680 Cl  0  0  0  0  0  0  0  0  0  0  0  0
  139.9580   68.9490  226.2750 C   0  0  0  0  0  0  0  0  0  0  0  0
  139.7690   69.7780  225.1910 C   0  0  0  0  0  0  0  0  0  0  0  0
  139.0580   69.4100  224.0680 C   0  0  0  0  0  0  0  0  0  0  0  0
  138.5700   68.2460  224.0740 O   0  0  0  0  0  0  0  0  0  0  0  0
  138.8860   70.2470  223.0090 N   0  0  0  0  0  0  0  0  0  0  0  0
  138.1560   69.8600  221.8350 C   0  0  0  0  0  0  0  0  0  0  0  0
  138.5810   68.5480  221.2280 C   0  0  0  0  0  0  0  0  0  0  0  0
  140.0400   68.6940  220.8320 C   0  0  0  0  0  0  0  0  0  0  0  0
  140.4440   67.6630  219.8050 C   0  0  0  0  0  0  0  0  0  0  0  0
  139.4980   66.4840  219.7440 C   0  0  0  0  0  0  0  0  0  0  0  0
  138.0920   66.8830  219.4290 C   0  0  0  0  0  0  0  0  0  0  0  0
  137.7060   68.2010  220.0760 C   0  0  0  0  0  0  0  0  0  0  0  0
  142.0970   71.1340  220.5610 C   0  0  0  0  0  0  0  0  0  0  0  0
  143.4490   71.0750  220.3760 C   0  0  0  0  0  0  0  0  0  0  0  0
  145.4260   73.6890  218.3800 H   0  0  0  0  0  0  0  0  0  0  0  0
  146.7220   74.2870  219.3120 H   0  0  0  0  0  0  0  0  0  0  0  0
  144.0695   74.4128  220.4348 H   0  0  0  0  0  0  0  0  0  0  0  0
  141.6272   74.4463  220.7682 H   0  0  0  0  0  0  0  0  0  0  0  0
  139.3182   72.1410  220.0138 H   0  0  0  0  0  0  0  0  0  0  0  0
  138.7402   73.3676  222.2154 H   0  0  0  0  0  0  0  0  0  0  0  0
  141.4862   72.4326  226.4048 H   0  0  0  0  0  0  0  0  0  0  0  0
  141.7934   70.8932  228.3364 H   0  0  0  0  0  0  0  0  0  0  0  0
  139.5200   67.9404  226.2448 H   0  0  0  0  0  0  0  0  0  0  0  0
  137.0921   69.7835  222.1038 H   0  0  0  0  0  0  0  0  0  0  0  0
  138.3591   70.6310  221.0771 H   0  0  0  0  0  0  0  0  0  0  0  0
  138.4788   67.7184  221.9430 H   0  0  0  0  0  0  0  0  0  0  0  0
  140.1966   69.6979  220.4105 H   0  0  0  0  0  0  0  0  0  0  0  0
  140.6567   68.5441  221.7305 H   0  0  0  0  0  0  0  0  0  0  0  0
  140.4677   68.1444  218.8162 H   0  0  0  0  0  0  0  0  0  0  0  0
  141.4312   67.2767  220.0987 H   0  0  0  0  0  0  0  0  0  0  0  0
  139.8495   65.7917  218.9648 H   0  0  0  0  0  0  0  0  0  0  0  0
  139.4930   66.0126  220.7378 H   0  0  0  0  0  0  0  0  0  0  0  0
  137.9885   66.9812  218.3383 H   0  0  0  0  0  0  0  0  0  0  0  0
  137.4249   66.1050  219.8286 H   0  0  0  0  0  0  0  0  0  0  0  0
  137.7814   68.9991  219.3228 H   0  0  0  0  0  0  0  0  0  0  0  0
  136.6786   68.0988  220.4556 H   0  0  0  0  0  0  0  0  0  0  0  0
  141.5354   70.1888  220.5955 H   0  0  0  0  0  0  0  0  0  0  0  0
  143.9550   70.1046  220.2651 H   0  0  0  0  0  0  0  0  0  0  0  0
  1  2  1  0
  2  3  2  0
  2  4  2  0
  2  5  1  0
  5  6  2  0
  6  7  1  0
  7  8  2  0
  8  9  1  0
  9 10  2  0
 10 11  1  0
 11 12  2  0
 12 13  1  0
 13 14  2  0
 14 15  1  0
 15 16  2  0
 16 17  1  0
 16 18  1  0
 18 19  2  0
 19 20  1  0
 20 21  2  0
 20 22  1  0
 22 23  1  0
 23 24  1  0
 24 25  1  0
 25 26  1  0
 26 27  1  0
 27 28  1  0
 28 29  1  0
  8 30  1  0
 30 31  2  0
 31  5  1  0
 22 11  1  0
 29 24  1  0
 19 13  1  0
  1 32  1  0
  1 33  1  0
  6 34  1  0
  7 35  1  0
  9 36  1  0
 10 37  1  0
 14 38  1  0
 15 39  1  0
 18 40  1  0
 23 41  1  0
 23 42  1  0
 24 43  1  0
 25 44  1  0
 25 45  1  0
 26 46  1  0
 26 47  1  0
 27 48  1  0
 27 49  1  0
 28 50  1  0
 28 51  1  0
 29 52  1  0
 29 53  1  0
 30 54  1  0
 31 55  1  0
M  END
>  <smiles>  (6) 
NS(=O)(=O)c1ccc(/C=C/c2nc3ccc(Cl)cc3c(=O)n2CC2CCCCC2)cc1

>  <score_type>  (6) 
oracle

>  <origin>  (6) 
autodockgpu

>  <m_score__min__energy>  (6) 
-9.4900000000000002

>  <m_primary>  (6) 
energy

>  <rmsd>  (6) 
10.604956589554002

>  <m_score__min__rmsd>  (6) 
10.604956589554002

>  <meeko>  (6) 
{"free_energy": -8.17, "intermolecular_energy": -10.26, "internal_energy": -1.74, "cluster_size": 15, "cluster_id": 2, "rank_in_cluster": 11}

>  <energy>  (6) 
-9.29

>  <cluster_rmsd>  (6) 
0.66

>  <cluster>  (6) 
1

$$$$

     RDKit          3D

 55 58  0  0  0  0  0  0  0  0999 V2000
  146.6540   73.6660  218.9300 N   0  0  0  0  0  0  0  0  0  0  0  0
  145.9770   72.5720  220.1040 S   0  0  0  0  0  0  0  0  0  0  0  0
  146.2180   71.1490  219.7130 O   0  0  0  0  0  0  0  0  0  0  0  0
  146.6060   72.8060  221.4580 O   0  0  0  0  0  0  0  0  0  0  0  0
  144.2640   72.9160  220.2650 C   0  0  0  0  0  0  0  0  0  0  0  0
  143.4250   71.9410  220.7910 C   0  0  0  0  0  0  0  0  0  0  0  0
  142.0740   72.1990  220.9240 C   0  0  0  0  0  0  0  0  0  0  0  0
  141.5120   73.4020  220.5520 C   0  0  0  0  0  0  0  0  0  0  0  0
  140.0930   73.7020  220.6810 C   0  0  0  0  0  0  0  0  0  0  0  0
  139.4490   73.8040  221.8130 C   0  0  0  0  0  0  0  0  0  0  0  0
  139.2680   72.6400  222.7090 C   0  0  0  0  0  0  0  0  0  0  0  0
  140.3350   72.3150  223.4570 N   0  0  0  0  0  0  0  0  0  0  0  0
  140.3030   71.2810  224.3090 C   0  0  0  0  0  0  0  0  0  0  0  0
  141.3940   70.9380  225.0810 C   0  0  0  0  0  0  0  0  0  0  0  0
  141.3480   69.8650  225.9580 C   0  0  0  0  0  0  0  0  0  0  0  0
  140.1880   69.1420  226.0460 C   0  0  0  0  0  0  0  0  0  0  0  0
  140.1290   67.7760  227.1630 Cl  0  0  0  0  0  0  0  0  0  0  0  0
  139.1100   69.4980  225.2680 C   0  0  0  0  0  0  0  0  0  0  0  0
  139.1310   70.5600  224.3900 C   0  0  0  0  0  0  0  0  0  0  0  0
  138.0530   70.9210  223.6080 C   0  0  0  0  0  0  0  0  0  0  0  0
  137.0130   70.2170  223.7350 O   0  0  0  0  0  0  0  0  0  0  0  0
  138.0990   71.9740  222.7470 N   0  0  0  0  0  0  0  0  0  0  0  0
  136.9810   72.3410  221.9250 C   0  0  0  0  0  0  0  0  0  0  0  0
  136.0010   73.2840  222.5720 C   0  0  0  0  0  0  0  0  0  0  0  0
  136.5640   74.6860  222.4180 C   0  0  0  0  0  0  0  0  0  0  0  0
  135.9510   75.6450  223.4120 C   0  0  0  0  0  0  0  0  0  0  0  0
  134.6490   75.1420  223.9950 C   0  0  0  0  0  0  0  0  0  0  0  0
  134.7930   73.8280  224.6920 C   0  0  0  0  0  0  0  0  0  0  0  0
  135.7780   72.9080  223.9940 C   0  0  0  0  0  0  0  0  0  0  0  0
  142.3870   74.3480  220.0320 C   0  0  0  0  0  0  0  0  0  0  0  0
  143.7280   74.1360  219.8830 C   0  0  0  0  0  0  0  0  0  0  0  0
  145.8680   74.1190  218.4260 H   0  0  0  0  0  0  0  0  0  0  0  0
  147.2310   74.3960  219.4100 H   0  0  0  0  0  0  0  0  0  0  0  0
  143.8346   70.9680  221.1002 H   0  0  0  0  0  0  0  0  0  0  0  0
  141.4234   71.4165  221.3417 H   0  0  0  0  0  0  0  0  0  0  0  0
  139.5196   73.8544  219.7547 H   0  0  0  0  0  0  0  0  0  0  0  0
  139.0313   74.7782  222.1073 H   0  0  0  0  0  0  0  0  0  0  0  0
  142.3189   71.5277  224.9990 H   0  0  0  0  0  0  0  0  0  0  0  0
  142.2234   69.6004  226.5693 H   0  0  0  0  0  0  0  0  0  0  0  0
  138.1866   68.9060  225.3510 H   0  0  0  0  0  0  0  0  0  0  0  0
  137.3691   72.8227  221.0154 H   0  0  0  0  0  0  0  0  0  0  0  0
  136.4280   71.4117  221.7234 H   0  0  0  0  0  0  0  0  0  0  0  0
  135.0133   73.2338  222.0905 H   0  0  0  0  0  0  0  0  0  0  0  0
  137.6518   74.6532  222.5781 H   0  0  0  0  0  0  0  0  0  0  0  0
  136.3260   75.0425  221.4049 H   0  0  0  0  0  0  0  0  0  0  0  0
  136.6653   75.8018  224.2337 H   0  0  0  0  0  0  0  0  0  0  0  0
  135.7310   76.5791  222.8744 H   0  0  0  0  0  0  0  0  0  0  0  0
  134.2782   75.8838  224.7176 H   0  0  0  0  0  0  0  0  0  0  0  0
  133.9475   74.9976  223.1601 H   0  0  0  0  0  0  0  0  0  0  0  0
  135.1450   74.0092  225.7183 H   0  0  0  0  0  0  0  0  0  0  0  0
  133.8099   73.3347  224.6844 H   0  0  0  0  0  0  0  0  0  0  0  0
  136.7400   72.9530  224.5256 H   0  0  0  0  0  0  0  0  0  0  0  0
  135.3544   71.8929  224.0084 H   0  0  0  0  0  0  0  0  0  0  0  0
  141.9771   75.3210  219.7234 H   0  0  0  0  0  0  0  0  0  0  0  0
  144.3738   74.9226  219.4656 H   0  0  0  0  0  0  0  0  0  0  0  0
  1  2  1  0
  2  3  2  0
  2  4  2  0
  2  5  1  0
  5  6  2  0
  6  7  1  0
  7  8  2  0
  8  9  1  0
  9 10  2  0
 10 11  1  0
 11 12  2  0
 12 13  1  0
 13 14  2  0
 14 15  1  0
 15 16  2  0
 16 17  1  0
 16 18  1  0
 18 19  2  0
 19 20  1  0
 20 21  2  0
 20 22  1  0
 22 23  1  0
 23 24  1  0
 24 25  1  0
 25 26  1  0
 26 27  1  0
 27 28  1  0
 28 29  1  0
  8 30  1  0
 30 31  2  0
 31  5  1  0
 22 11  1  0
 29 24  1  0
 19 13  1  0
  1 32  1  0
  1 33  1  0
  6 34  1  0
  7 35  1  0
  9 36  1  0
 10 37  1  0
 14 38  1  0
 15 39  1  0
 18 40  1  0
 23 41  1  0
 23 42  1  0
 24 43  1  0
 25 44  1  0
 25 45  1  0
 26 46  1  0
 26 47  1  0
 27 48  1  0
 27 49  1  0
 28 50  1  0
 28 51  1  0
 29 52  1  0
 29 53  1  0
 30 54  1  0
 31 55  1  0
M  END
>  <smiles>  (7) 
NS(=O)(=O)c1ccc(/C=C/c2nc3ccc(Cl)cc3c(=O)n2CC2CCCCC2)cc1

>  <score_type>  (7) 
oracle

>  <origin>  (7) 
autodockgpu

>  <m_score__min__energy>  (7) 
-9.4900000000000002

>  <m_primary>  (7) 
energy

>  <rmsd>  (7) 
9.646793506696143

>  <m_score__min__rmsd>  (7) 
9.646793506696143

>  <meeko>  (7) 
{"free_energy": -8.21, "intermolecular_energy": -10.3, "internal_energy": -1.48, "cluster_size": 2, "cluster_id": 4, "rank_in_cluster": 2}

>  <energy>  (7) 
-8.99

>  <cluster_rmsd>  (7) 
0.61

>  <cluster>  (7) 
1

$$$$

     RDKit          3D

 55 58  0  0  0  0  0  0  0  0999 V2000
  139.2510   67.0780  226.2380 N   0  0  0  0  0  0  0  0  0  0  0  0
  139.9370   68.5780  226.7960 S   0  0  0  0  0  0  0  0  0  0  0  0
  139.2630   69.0450  228.0460 O   0  0  0  0  0  0  0  0  0  0  0  0
  141.4090   68.3990  227.0880 O   0  0  0  0  0  0  0  0  0  0  0  0
  139.8070   69.7650  225.5110 C   0  0  0  0  0  0  0  0  0  0  0  0
  140.8940   70.5830  225.2330 C   0  0  0  0  0  0  0  0  0  0  0  0
  140.8050   71.5230  224.2230 C   0  0  0  0  0  0  0  0  0  0  0  0
  139.6650   71.6850  223.4650 C   0  0  0  0  0  0  0  0  0  0  0  0
  139.5420   72.6650  222.3950 C   0  0  0  0  0  0  0  0  0  0  0  0
  140.4790   72.9490  221.5290 C   0  0  0  0  0  0  0  0  0  0  0  0
  140.8780   74.3460  221.2500 C   0  0  0  0  0  0  0  0  0  0  0  0
  140.3370   75.2740  222.0570 N   0  0  0  0  0  0  0  0  0  0  0  0
  140.6150   76.5770  221.9090 C   0  0  0  0  0  0  0  0  0  0  0  0
  140.0640   77.5370  222.7320 C   0  0  0  0  0  0  0  0  0  0  0  0
  140.3590   78.8820  222.5690 C   0  0  0  0  0  0  0  0  0  0  0  0
  141.2170   79.2470  221.5640 C   0  0  0  0  0  0  0  0  0  0  0  0
  141.5930   80.9590  221.3560 Cl  0  0  0  0  0  0  0  0  0  0  0  0
  141.7570   78.2740  220.7530 C   0  0  0  0  0  0  0  0  0  0  0  0
  141.4790   76.9320  220.8960 C   0  0  0  0  0  0  0  0  0  0  0  0
  142.0180   75.9540  220.0850 C   0  0  0  0  0  0  0  0  0  0  0  0
  142.8020   76.3510  219.1790 O   0  0  0  0  0  0  0  0  0  0  0  0
  141.7270   74.6340  220.2460 N   0  0  0  0  0  0  0  0  0  0  0  0
  142.2780   73.6190  219.3950 C   0  0  0  0  0  0  0  0  0  0  0  0
  143.7700   73.4420  219.5020 C   0  0  0  0  0  0  0  0  0  0  0  0
  144.0690   71.9860  219.1900 C   0  0  0  0  0  0  0  0  0  0  0  0
  145.4210   71.5700  219.7190 C   0  0  0  0  0  0  0  0  0  0  0  0
  146.3300   72.7430  220.0140 C   0  0  0  0  0  0  0  0  0  0  0  0
  145.7480   73.6940  221.0100 C   0  0  0  0  0  0  0  0  0  0  0  0
  144.2470   73.8500  220.8510 C   0  0  0  0  0  0  0  0  0  0  0  0
  138.6020   70.8450  223.7760 C   0  0  0  0  0  0  0  0  0  0  0  0
  138.6460   69.9040  224.7650 C   0  0  0  0  0  0  0  0  0  0  0  0
  139.6750   66.8560  225.3160 H   0  0  0  0  0  0  0  0  0  0  0  0
  139.4630   66.3100  226.9170 H   0  0  0  0  0  0  0  0  0  0  0  0
  141.8226   70.4835  225.8142 H   0  0  0  0  0  0  0  0  0  0  0  0
  141.6746   72.1643  224.0170 H   0  0  0  0  0  0  0  0  0  0  0  0
  138.5888   73.2072  222.3090 H   0  0  0  0  0  0  0  0  0  0  0  0
  140.9828   72.1298  220.9950 H   0  0  0  0  0  0  0  0  0  0  0  0
  139.3767   77.2294  223.5338 H   0  0  0  0  0  0  0  0  0  0  0  0
  139.9144   79.6394  223.2314 H   0  0  0  0  0  0  0  0  0  0  0  0
  142.4441   78.5832  219.9516 H   0  0  0  0  0  0  0  0  0  0  0  0
  141.8011   72.6617  219.6522 H   0  0  0  0  0  0  0  0  0  0  0  0
  142.0791   73.9413  218.3623 H   0  0  0  0  0  0  0  0  0  0  0  0
  144.3061   74.0844  218.7879 H   0  0  0  0  0  0  0  0  0  0  0  0
  143.2953   71.3557  219.6527 H   0  0  0  0  0  0  0  0  0  0  0  0
  144.0746   71.8626  218.0970 H   0  0  0  0  0  0  0  0  0  0  0  0
  145.2730   70.9996  220.6478 H   0  0  0  0  0  0  0  0  0  0  0  0
  145.9071   70.9669  218.9380 H   0  0  0  0  0  0  0  0  0  0  0  0
  147.2815   72.3587  220.4101 H   0  0  0  0  0  0  0  0  0  0  0  0
  146.4715   73.2957  219.0735 H   0  0  0  0  0  0  0  0  0  0  0  0
  145.9591   73.3187  222.0222 H   0  0  0  0  0  0  0  0  0  0  0  0
  146.2076   74.6791  220.8419 H   0  0  0  0  0  0  0  0  0  0  0  0
  143.7459   73.2260  221.6057 H   0  0  0  0  0  0  0  0  0  0  0  0
  144.0066   74.9154  220.9817 H   0  0  0  0  0  0  0  0  0  0  0  0
  137.6742   70.9436  223.1934 H   0  0  0  0  0  0  0  0  0  0  0  0
  137.7733   69.2656  224.9669 H   0  0  0  0  0  0  0  0  0  0  0  0
  1  2  1  0
  2  3  2  0
  2  4  2  0
  2  5  1  0
  5  6  2  0
  6  7  1  0
  7  8  2  0
  8  9  1  0
  9 10  2  0
 10 11  1  0
 11 12  2  0
 12 13  1  0
 13 14  2  0
 14 15  1  0
 15 16  2  0
 16 17  1  0
 16 18  1  0
 18 19  2  0
 19 20  1  0
 20 21  2  0
 20 22  1  0
 22 23  1  0
 23 24  1  0
 24 25  1  0
 25 26  1  0
 26 27  1  0
 27 28  1  0
 28 29  1  0
  8 30  1  0
 30 31  2  0
 31  5  1  0
 22 11  1  0
 29 24  1  0
 19 13  1  0
  1 32  1  0
  1 33  1  0
  6 34  1  0
  7 35  1  0
  9 36  1  0
 10 37  1  0
 14 38  1  0
 15 39  1  0
 18 40  1  0
 23 41  1  0
 23 42  1  0
 24 43  1  0
 25 44  1  0
 25 45  1  0
 26 46  1  0
 26 47  1  0
 27 48  1  0
 27 49  1  0
 28 50  1  0
 28 51  1  0
 29 52  1  0
 29 53  1  0
 30 54  1  0
 31 55  1  0
M  END
>  <smiles>  (8) 
NS(=O)(=O)c1ccc(/C=C/c2nc3ccc(Cl)cc3c(=O)n2CC2CCCCC2)cc1

>  <score_type>  (8) 
oracle

>  <origin>  (8) 
autodockgpu

>  <m_score__min__energy>  (8) 
-9.4900000000000002

>  <m_primary>  (8) 
energy

>  <rmsd>  (8) 
5.659018735703589

>  <m_score__min__rmsd>  (8) 
5.659018735703589

>  <meeko>  (8) 
{"free_energy": -9.33, "intermolecular_energy": -11.42, "internal_energy": -1.32, "cluster_size": 12, "cluster_id": 1, "rank_in_cluster": 5}

>  <energy>  (8) 
-8.83

>  <cluster_rmsd>  (8) 
0.53

>  <cluster>  (8) 
1

$$$$

     RDKit          3D

 55 58  0  0  0  0  0  0  0  0999 V2000
  145.9440   73.4090  218.3140 N   0  0  0  0  0  0  0  0  0  0  0  0
  145.6630   72.4920  219.7670 S   0  0  0  0  0  0  0  0  0  0  0  0
  146.2770   71.1320  219.6720 O   0  0  0  0  0  0  0  0  0  0  0  0
  146.2660   73.2040  220.9560 O   0  0  0  0  0  0  0  0  0  0  0  0
  143.9330   72.4010  220.0450 C   0  0  0  0  0  0  0  0  0  0  0  0
  143.0650   72.8610  219.0620 C   0  0  0  0  0  0  0  0  0  0  0  0
  141.6990   72.7950  219.2680 C   0  0  0  0  0  0  0  0  0  0  0  0
  141.1520   72.2820  220.4250 C   0  0  0  0  0  0  0  0  0  0  0  0
  139.7190   72.1990  220.6680 C   0  0  0  0  0  0  0  0  0  0  0  0
  139.1420   72.4060  221.8230 C   0  0  0  0  0  0  0  0  0  0  0  0
  139.2820   71.4500  222.9430 C   0  0  0  0  0  0  0  0  0  0  0  0
  139.9770   71.8970  224.0010 N   0  0  0  0  0  0  0  0  0  0  0  0
  140.1780   71.1290  225.0810 C   0  0  0  0  0  0  0  0  0  0  0  0
  140.8910   71.5790  226.1730 C   0  0  0  0  0  0  0  0  0  0  0  0
  141.0920   70.7750  227.2840 C   0  0  0  0  0  0  0  0  0  0  0  0
  140.5660   69.5090  227.2800 C   0  0  0  0  0  0  0  0  0  0  0  0
  140.8220   68.4850  228.6940 Cl  0  0  0  0  0  0  0  0  0  0  0  0
  139.8570   69.0780  226.1810 C   0  0  0  0  0  0  0  0  0  0  0  0
  139.6440   69.8590  225.0670 C   0  0  0  0  0  0  0  0  0  0  0  0
  138.9350   69.4300  223.9630 C   0  0  0  0  0  0  0  0  0  0  0  0
  138.4730   68.2570  224.0190 O   0  0  0  0  0  0  0  0  0  0  0  0
  138.7380   70.2210  222.8730 N   0  0  0  0  0  0  0  0  0  0  0  0
  138.0100   69.7700  221.7210 C   0  0  0  0  0  0  0  0  0  0  0  0
  138.7470   68.7870  220.8490 C   0  0  0  0  0  0  0  0  0  0  0  0
  138.4060   67.3980  221.3580 C   0  0  0  0  0  0  0  0  0  0  0  0
  139.4210   66.3740  220.9070 C   0  0  0  0  0  0  0  0  0  0  0  0
  140.2470   66.8390  219.7280 C   0  0  0  0  0  0  0  0  0  0  0  0
  140.9980   68.1010  220.0060 C   0  0  0  0  0  0  0  0  0  0  0  0
  140.2090   69.0650  220.8730 C   0  0  0  0  0  0  0  0  0  0  0  0
  142.0550   71.8330  221.3790 C   0  0  0  0  0  0  0  0  0  0  0  0
  143.4110   71.8790  221.2190 C   0  0  0  0  0  0  0  0  0  0  0  0
  145.2040   74.1340  218.2450 H   0  0  0  0  0  0  0  0  0  0  0  0
  146.8840   73.8680  218.3540 H   0  0  0  0  0  0  0  0  0  0  0  0
  143.4627   73.2758  218.1241 H   0  0  0  0  0  0  0  0  0  0  0  0
  141.0252   73.1648  218.4811 H   0  0  0  0  0  0  0  0  0  0  0  0
  139.0728   71.9428  219.8155 H   0  0  0  0  0  0  0  0  0  0  0  0
  138.5373   73.3138  221.9653 H   0  0  0  0  0  0  0  0  0  0  0  0
  141.3085   72.5966  226.1617 H   0  0  0  0  0  0  0  0  0  0  0  0
  141.6610   71.1446  228.1498 H   0  0  0  0  0  0  0  0  0  0  0  0
  139.4404   68.0600  226.1936 H   0  0  0  0  0  0  0  0  0  0  0  0
  137.0833   69.2902  222.0688 H   0  0  0  0  0  0  0  0  0  0  0  0
  137.8330   70.6606  221.1001 H   0  0  0  0  0  0  0  0  0  0  0  0
  138.4429   68.8728  219.7954 H   0  0  0  0  0  0  0  0  0  0  0  0
  138.3827   67.4168  222.4576 H   0  0  0  0  0  0  0  0  0  0  0  0
  137.4257   67.1133  220.9483 H   0  0  0  0  0  0  0  0  0  0  0  0
  140.0985   66.1589  221.7464 H   0  0  0  0  0  0  0  0  0  0  0  0
  138.8660   65.4797  220.5873 H   0  0  0  0  0  0  0  0  0  0  0  0
  140.9693   66.0497  219.4723 H   0  0  0  0  0  0  0  0  0  0  0  0
  139.5535   67.0432  218.8989 H   0  0  0  0  0  0  0  0  0  0  0  0
  141.9355   67.8476  220.5226 H   0  0  0  0  0  0  0  0  0  0  0  0
  141.1896   68.5963  219.0427 H   0  0  0  0  0  0  0  0  0  0  0  0
  140.5671   68.9812  221.9097 H   0  0  0  0  0  0  0  0  0  0  0  0
  140.3634   70.0778  220.4726 H   0  0  0  0  0  0  0  0  0  0  0  0
  141.6565   71.4170  222.3161 H   0  0  0  0  0  0  0  0  0  0  0  0
  144.0791   71.5074  222.0099 H   0  0  0  0  0  0  0  0  0  0  0  0
  1  2  1  0
  2  3  2  0
  2  4  2  0
  2  5  1  0
  5  6  2  0
  6  7  1  0
  7  8  2  0
  8  9  1  0
  9 10  2  0
 10 11  1  0
 11 12  2  0
 12 13  1  0
 13 14  2  0
 14 15  1  0
 15 16  2  0
 16 17  1  0
 16 18  1  0
 18 19  2  0
 19 20  1  0
 20 21  2  0
 20 22  1  0
 22 23  1  0
 23 24  1  0
 24 25  1  0
 25 26  1  0
 26 27  1  0
 27 28  1  0
 28 29  1  0
  8 30  1  0
 30 31  2  0
 31  5  1  0
 22 11  1  0
 29 24  1  0
 19 13  1  0
  1 32  1  0
  1 33  1  0
  6 34  1  0
  7 35  1  0
  9 36  1  0
 10 37  1  0
 14 38  1  0
 15 39  1  0
 18 40  1  0
 23 41  1  0
 23 42  1  0
 24 43  1  0
 25 44  1  0
 25 45  1  0
 26 46  1  0
 26 47  1  0
 27 48  1  0
 27 49  1  0
 28 50  1  0
 28 51  1  0
 29 52  1  0
 29 53  1  0
 30 54  1  0
 31 55  1  0
M  END
>  <smiles>  (9) 
NS(=O)(=O)c1ccc(/C=C/c2nc3ccc(Cl)cc3c(=O)n2CC2CCCCC2)cc1

>  <score_type>  (9) 
oracle

>  <origin>  (9) 
autodockgpu

>  <m_score__min__energy>  (9) 
-9.4900000000000002

>  <m_primary>  (9) 
energy

>  <rmsd>  (9) 
10.871800599238377

>  <m_score__min__rmsd>  (9) 
10.871800599238377

>  <meeko>  (9) 
{"free_energy": -8.17, "intermolecular_energy": -10.26, "internal_energy": -1.87, "cluster_size": 15, "cluster_id": 2, "rank_in_cluster": 10}

>  <energy>  (9) 
-8.81

>  <cluster_rmsd>  (9) 
0.88

>  <cluster>  (9) 
1

$$$$

     RDKit          3D

 55 58  0  0  0  0  0  0  0  0999 V2000
  139.0720   67.0170  226.4470 N   0  0  0  0  0  0  0  0  0  0  0  0
  140.0120   68.3980  226.9370 S   0  0  0  0  0  0  0  0  0  0  0  0
  139.4810   68.9860  228.2060 O   0  0  0  0  0  0  0  0  0  0  0  0
  141.4500   67.9960  227.1660 O   0  0  0  0  0  0  0  0  0  0  0  0
  140.0050   69.5700  225.6320 C   0  0  0  0  0  0  0  0  0  0  0  0
  140.8970   70.6350  225.6740 C   0  0  0  0  0  0  0  0  0  0  0  0
  140.9020   71.5660  224.6520 C   0  0  0  0  0  0  0  0  0  0  0  0
  140.0480   71.4810  223.5730 C   0  0  0  0  0  0  0  0  0  0  0  0
  140.0320   72.4450  222.4820 C   0  0  0  0  0  0  0  0  0  0  0  0
  138.9650   73.0560  222.0380 C   0  0  0  0  0  0  0  0  0  0  0  0
  138.7960   74.5200  222.1730 C   0  0  0  0  0  0  0  0  0  0  0  0
  139.9350   75.2300  222.2270 N   0  0  0  0  0  0  0  0  0  0  0  0
  139.9210   76.5640  222.3510 C   0  0  0  0  0  0  0  0  0  0  0  0
  141.0850   77.3030  222.4080 C   0  0  0  0  0  0  0  0  0  0  0  0
  141.0580   78.6830  222.5370 C   0  0  0  0  0  0  0  0  0  0  0  0
  139.8410   79.3100  222.6090 C   0  0  0  0  0  0  0  0  0  0  0  0
  139.8060   81.0670  222.7730 Cl  0  0  0  0  0  0  0  0  0  0  0  0
  138.6900   78.5560  222.5510 C   0  0  0  0  0  0  0  0  0  0  0  0
  138.6920   77.1840  222.4220 C   0  0  0  0  0  0  0  0  0  0  0  0
  137.5420   76.4250  222.3640 C   0  0  0  0  0  0  0  0  0  0  0  0
  136.4520   77.0590  222.4330 O   0  0  0  0  0  0  0  0  0  0  0  0
  137.5700   75.0700  222.2370 N   0  0  0  0  0  0  0  0  0  0  0  0
  136.3730   74.2800  222.1890 C   0  0  0  0  0  0  0  0  0  0  0  0
  135.8050   73.9030  223.5320 C   0  0  0  0  0  0  0  0  0  0  0  0
  134.9320   72.6800  223.3190 C   0  0  0  0  0  0  0  0  0  0  0  0
  133.9480   72.4940  224.4500 C   0  0  0  0  0  0  0  0  0  0  0  0
  134.3360   73.2480  225.7030 C   0  0  0  0  0  0  0  0  0  0  0  0
  134.4670   74.7200  225.4790 C   0  0  0  0  0  0  0  0  0  0  0  0
  135.0580   75.0470  224.1200 C   0  0  0  0  0  0  0  0  0  0  0  0
  139.1750   70.4010  223.5700 C   0  0  0  0  0  0  0  0  0  0  0  0
  139.1350   69.4590  224.5580 C   0  0  0  0  0  0  0  0  0  0  0  0
  138.9920   66.3790  227.2630 H   0  0  0  0  0  0  0  0  0  0  0  0
  138.1180   67.3210  226.1430 H   0  0  0  0  0  0  0  0  0  0  0  0
  141.5962   70.7367  226.5170 H   0  0  0  0  0  0  0  0  0  0  0  0
  141.6125   72.4043  224.7015 H   0  0  0  0  0  0  0  0  0  0  0  0
  140.9904   72.6768  221.9944 H   0  0  0  0  0  0  0  0  0  0  0  0
  138.1731   72.4673  221.5519 H   0  0  0  0  0  0  0  0  0  0  0  0
  142.0544   76.7864  222.3499 H   0  0  0  0  0  0  0  0  0  0  0  0
  141.9923   79.2620  222.5806 H   0  0  0  0  0  0  0  0  0  0  0  0
  137.7216   79.0743  222.6106 H   0  0  0  0  0  0  0  0  0  0  0  0
  135.6082   74.8522  221.6434 H   0  0  0  0  0  0  0  0  0  0  0  0
  136.6472   73.3361  221.6952 H   0  0  0  0  0  0  0  0  0  0  0  0
  136.5989   73.6609  224.2539 H   0  0  0  0  0  0  0  0  0  0  0  0
  134.3754   72.7986  222.3777 H   0  0  0  0  0  0  0  0  0  0  0  0
  135.5839   71.7948  223.2817 H   0  0  0  0  0  0  0  0  0  0  0  0
  132.9616   72.8502  224.1182 H   0  0  0  0  0  0  0  0  0  0  0  0
  133.9354   71.4232  224.7016 H   0  0  0  0  0  0  0  0  0  0  0  0
  133.5650   73.0767  226.4686 H   0  0  0  0  0  0  0  0  0  0  0  0
  135.3200   72.8738  226.0221 H   0  0  0  0  0  0  0  0  0  0  0  0
  133.4697   75.1785  225.5503 H   0  0  0  0  0  0  0  0  0  0  0  0
  135.1483   75.1171  226.2459 H   0  0  0  0  0  0  0  0  0  0  0  0
  134.2407   75.3226  223.4373 H   0  0  0  0  0  0  0  0  0  0  0  0
  135.7690   75.8752  224.2559 H   0  0  0  0  0  0  0  0  0  0  0  0
  138.4775   70.2987  222.7256 H   0  0  0  0  0  0  0  0  0  0  0  0
  138.4220   68.6232  224.5025 H   0  0  0  0  0  0  0  0  0  0  0  0
  1  2  1  0
  2  3  2  0
  2  4  2  0
  2  5  1  0
  5  6  2  0
  6  7  1  0
  7  8  2  0
  8  9  1  0
  9 10  2  0
 10 11  1  0
 11 12  2  0
 12 13  1  0
 13 14  2  0
 14 15  1  0
 15 16  2  0
 16 17  1  0
 16 18  1  0
 18 19  2  0
 19 20  1  0
 20 21  2  0
 20 22  1  0
 22 23  1  0
 23 24  1  0
 24 25  1  0
 25 26  1  0
 26 27  1  0
 27 28  1  0
 28 29  1  0
  8 30  1  0
 30 31  2  0
 31  5  1  0
 22 11  1  0
 29 24  1  0
 19 13  1  0
  1 32  1  0
  1 33  1  0
  6 34  1  0
  7 35  1  0
  9 36  1  0
 10 37  1  0
 14 38  1  0
 15 39  1  0
 18 40  1  0
 23 41  1  0
 23 42  1  0
 24 43  1  0
 25 44  1  0
 25 45  1  0
 26 46  1  0
 26 47  1  0
 27 48  1  0
 27 49  1  0
 28 50  1  0
 28 51  1  0
 29 52  1  0
 29 53  1  0
 30 54  1  0
 31 55  1  0
M  END
>  <smiles>  (10) 
NS(=O)(=O)c1ccc(/C=C/c2nc3ccc(Cl)cc3c(=O)n2CC2CCCCC2)cc1

>  <score_type>  (10) 
oracle

>  <origin>  (10) 
autodockgpu

>  <m_score__min__energy>  (10) 
-9.4900000000000002

>  <m_primary>  (10) 
energy

>  <rmsd>  (10) 
7.197361650045358

>  <m_score__min__rmsd>  (10) 
7.197361650045358

>  <meeko>  (10) 
{"free_energy": -8.37, "intermolecular_energy": -10.46, "internal_energy": -1.43, "cluster_size": 8, "cluster_id": 5, "rank_in_cluster": 5}

>  <energy>  (10) 
-8.79

>  <cluster_rmsd>  (10) 
1.16

>  <cluster>  (10) 
1

$$$$

     RDKit          3D

 55 58  0  0  0  0  0  0  0  0999 V2000
  139.2800   67.3820  226.2270 N   0  0  0  0  0  0  0  0  0  0  0  0
  139.9410   68.9030  226.7570 S   0  0  0  0  0  0  0  0  0  0  0  0
  139.2030   69.4230  227.9490 O   0  0  0  0  0  0  0  0  0  0  0  0
  141.3950   68.7350  227.1350 O   0  0  0  0  0  0  0  0  0  0  0  0
  139.8840   70.0350  225.4180 C   0  0  0  0  0  0  0  0  0  0  0  0
  141.0270   70.7540  225.0910 C   0  0  0  0  0  0  0  0  0  0  0  0
  140.9950   71.6490  224.0380 C   0  0  0  0  0  0  0  0  0  0  0  0
  139.8610   71.8630  223.2850 C   0  0  0  0  0  0  0  0  0  0  0  0
  139.7980   72.7980  222.1700 C   0  0  0  0  0  0  0  0  0  0  0  0
  140.8230   73.1790  221.4540 C   0  0  0  0  0  0  0  0  0  0  0  0
  141.1070   74.6100  221.2070 C   0  0  0  0  0  0  0  0  0  0  0  0
  140.6090   75.4630  222.1180 N   0  0  0  0  0  0  0  0  0  0  0  0
  140.7940   76.7860  222.0090 C   0  0  0  0  0  0  0  0  0  0  0  0
  140.2870   77.6710  222.9380 C   0  0  0  0  0  0  0  0  0  0  0  0
  140.4840   79.0380  222.8150 C   0  0  0  0  0  0  0  0  0  0  0  0
  141.1990   79.5020  221.7420 C   0  0  0  0  0  0  0  0  0  0  0  0
  141.4500   81.2420  221.5850 Cl  0  0  0  0  0  0  0  0  0  0  0  0
  141.6970   78.6040  220.8250 C   0  0  0  0  0  0  0  0  0  0  0  0
  141.5140   77.2420  220.9260 C   0  0  0  0  0  0  0  0  0  0  0  0
  142.0120   76.3390  220.0100 C   0  0  0  0  0  0  0  0  0  0  0  0
  142.6630   76.8260  219.0440 O   0  0  0  0  0  0  0  0  0  0  0  0
  141.8170   74.9970  220.1320 N   0  0  0  0  0  0  0  0  0  0  0  0
  142.3250   74.0580  219.1710 C   0  0  0  0  0  0  0  0  0  0  0  0
  143.5470   73.2970  219.6130 C   0  0  0  0  0  0  0  0  0  0  0  0
  144.5240   74.3120  220.1770 C   0  0  0  0  0  0  0  0  0  0  0  0
  145.9340   73.7720  220.2050 C   0  0  0  0  0  0  0  0  0  0  0  0
  145.9930   72.2640  220.1110 C   0  0  0  0  0  0  0  0  0  0  0  0
  145.3500   71.7320  218.8710 C   0  0  0  0  0  0  0  0  0  0  0  0
  144.1150   72.5220  218.4770 C   0  0  0  0  0  0  0  0  0  0  0  0
  138.7420   71.1220  223.6460 C   0  0  0  0  0  0  0  0  0  0  0  0
  138.7280   70.2280  224.6780 C   0  0  0  0  0  0  0  0  0  0  0  0
  139.7460   67.1250  225.3350 H   0  0  0  0  0  0  0  0  0  0  0  0
  139.4600   66.6420  226.9440 H   0  0  0  0  0  0  0  0  0  0  0  0
  141.9531   70.6117  225.6673 H   0  0  0  0  0  0  0  0  0  0  0  0
  141.9082   72.2109  223.7922 H   0  0  0  0  0  0  0  0  0  0  0  0
  138.8136   73.2149  221.9110 H   0  0  0  0  0  0  0  0  0  0  0  0
  141.4906   72.4174  221.0247 H   0  0  0  0  0  0  0  0  0  0  0  0
  139.7146   77.2842  223.7940 H   0  0  0  0  0  0  0  0  0  0  0  0
  140.0754   79.7344  223.5620 H   0  0  0  0  0  0  0  0  0  0  0  0
  142.2691   78.9928  219.9697 H   0  0  0  0  0  0  0  0  0  0  0  0
  141.5301   73.3301  218.9512 H   0  0  0  0  0  0  0  0  0  0  0  0
  142.6295   74.6482  218.2941 H   0  0  0  0  0  0  0  0  0  0  0  0
  143.3044   72.5567  220.3896 H   0  0  0  0  0  0  0  0  0  0  0  0
  144.5005   75.2160  219.5507 H   0  0  0  0  0  0  0  0  0  0  0  0
  144.2233   74.5411  221.2100 H   0  0  0  0  0  0  0  0  0  0  0  0
  146.4890   74.1978  219.3561 H   0  0  0  0  0  0  0  0  0  0  0  0
  146.3760   74.0582  221.1708 H   0  0  0  0  0  0  0  0  0  0  0  0
  147.0481   71.9529  220.1202 H   0  0  0  0  0  0  0  0  0  0  0  0
  145.4385   71.8582  220.9700 H   0  0  0  0  0  0  0  0  0  0  0  0
  146.0776   71.7791  218.0473 H   0  0  0  0  0  0  0  0  0  0  0  0
  145.0369   70.6969  219.0723 H   0  0  0  0  0  0  0  0  0  0  0  0
  144.3859   73.2221  217.6730 H   0  0  0  0  0  0  0  0  0  0  0  0
  143.3501   71.8035  218.1475 H   0  0  0  0  0  0  0  0  0  0  0  0
  137.8166   71.2635  223.0685 H   0  0  0  0  0  0  0  0  0  0  0  0
  137.8119   69.6687  224.9188 H   0  0  0  0  0  0  0  0  0  0  0  0
  1  2  1  0
  2  3  2  0
  2  4  2  0
  2  5  1  0
  5  6  2  0
  6  7  1  0
  7  8  2  0
  8  9  1  0
  9 10  2  0
 10 11  1  0
 11 12  2  0
 12 13  1  0
 13 14  2  0
 14 15  1  0
 15 16  2  0
 16 17  1  0
 16 18  1  0
 18 19  2  0
 19 20  1  0
 20 21  2  0
 20 22  1  0
 22 23  1  0
 23 24  1  0
 24 25  1  0
 25 26  1  0
 26 27  1  0
 27 28  1  0
 28 29  1  0
  8 30  1  0
 30 31  2  0
 31  5  1  0
 22 11  1  0
 29 24  1  0
 19 13  1  0
  1 32  1  0
  1 33  1  0
  6 34  1  0
  7 35  1  0
  9 36  1  0
 10 37  1  0
 14 38  1  0
 15 39  1  0
 18 40  1  0
 23 41  1  0
 23 42  1  0
 24 43  1  0
 25 44  1  0
 25 45  1  0
 26 46  1  0
 26 47  1  0
 27 48  1  0
 27 49  1  0
 28 50  1  0
 28 51  1  0
 29 52  1  0
 29 53  1  0
 30 54  1  0
 31 55  1  0
M  END
>  <smiles>  (11) 
NS(=O)(=O)c1ccc(/C=C/c2nc3ccc(Cl)cc3c(=O)n2CC2CCCCC2)cc1

>  <score_type>  (11) 
oracle

>  <origin>  (11) 
autodockgpu

>  <m_score__min__energy>  (11) 
-9.4900000000000002

>  <m_primary>  (11) 
energy

>  <rmsd>  (11) 
5.2646339798963195

>  <m_score__min__rmsd>  (11) 
5.2646339798963195

>  <meeko>  (11) 
{"free_energy": -8.83, "intermolecular_energy": -10.91, "internal_energy": -1.29, "cluster_size": 12, "cluster_id": 1, "rank_in_cluster": 8}

>  <energy>  (11) 
-8.78

>  <cluster_rmsd>  (11) 
0.81

>  <cluster>  (11) 
1

$$$$

     RDKit          3D

 55 58  0  0  0  0  0  0  0  0999 V2000
  139.6420   67.3930  227.1130 N   0  0  0  0  0  0  0  0  0  0  0  0
  139.9260   69.0830  227.4210 S   0  0  0  0  0  0  0  0  0  0  0  0
  138.9610   69.6150  228.4320 O   0  0  0  0  0  0  0  0  0  0  0  0
  141.3270   69.2890  227.9460 O   0  0  0  0  0  0  0  0  0  0  0  0
  139.8120   69.9540  225.9020 C   0  0  0  0  0  0  0  0  0  0  0  0
  140.7610   70.9250  225.6060 C   0  0  0  0  0  0  0  0  0  0  0  0
  140.6830   71.6180  224.4120 C   0  0  0  0  0  0  0  0  0  0  0  0
  139.6890   71.3840  223.4870 C   0  0  0  0  0  0  0  0  0  0  0  0
  139.5820   72.0980  222.2220 C   0  0  0  0  0  0  0  0  0  0  0  0
  138.5550   72.8160  221.8520 C   0  0  0  0  0  0  0  0  0  0  0  0
  138.5400   74.2870  222.0090 C   0  0  0  0  0  0  0  0  0  0  0  0
  139.7320   74.8530  222.2620 N   0  0  0  0  0  0  0  0  0  0  0  0
  139.8560   76.1770  222.4270 C   0  0  0  0  0  0  0  0  0  0  0  0
  141.0750   76.7680  222.6880 C   0  0  0  0  0  0  0  0  0  0  0  0
  141.1910   78.1400  222.8570 C   0  0  0  0  0  0  0  0  0  0  0  0
  140.0600   78.9080  222.7620 C   0  0  0  0  0  0  0  0  0  0  0  0
  140.2060   80.6540  222.9780 Cl  0  0  0  0  0  0  0  0  0  0  0  0
  138.8520   78.3010  222.5020 C   0  0  0  0  0  0  0  0  0  0  0  0
  138.7130   76.9410  222.3290 C   0  0  0  0  0  0  0  0  0  0  0  0
  137.5040   76.3280  222.0680 C   0  0  0  0  0  0  0  0  0  0  0  0
  136.5000   77.0880  221.9900 O   0  0  0  0  0  0  0  0  0  0  0  0
  137.3930   74.9820  221.9020 N   0  0  0  0  0  0  0  0  0  0  0  0
  136.1330   74.3440  221.6420 C   0  0  0  0  0  0  0  0  0  0  0  0
  135.3350   73.9920  222.8700 C   0  0  0  0  0  0  0  0  0  0  0  0
  135.4370   75.1720  223.8200 C   0  0  0  0  0  0  0  0  0  0  0  0
  135.1050   74.7760  225.2390 C   0  0  0  0  0  0  0  0  0  0  0  0
  134.3320   73.4780  225.3260 C   0  0  0  0  0  0  0  0  0  0  0  0
  135.0600   72.3250  224.7130 C   0  0  0  0  0  0  0  0  0  0  0  0
  135.8350   72.7260  223.4710 C   0  0  0  0  0  0  0  0  0  0  0  0
  138.7620   70.4060  223.8230 C   0  0  0  0  0  0  0  0  0  0  0  0
  138.8000   69.6970  224.9890 C   0  0  0  0  0  0  0  0  0  0  0  0
  140.5490   66.8960  227.2010 H   0  0  0  0  0  0  0  0  0  0  0  0
  138.9620   67.0100  227.8120 H   0  0  0  0  0  0  0  0  0  0  0  0
  141.5707   71.1414  226.3184 H   0  0  0  0  0  0  0  0  0  0  0  0
  141.4418   72.3836  224.1927 H   0  0  0  0  0  0  0  0  0  0  0  0
  140.4302   72.0274  221.5252 H   0  0  0  0  0  0  0  0  0  0  0  0
  137.6800   72.3144  221.4130 H   0  0  0  0  0  0  0  0  0  0  0  0
  141.9737   76.1382  222.7637 H   0  0  0  0  0  0  0  0  0  0  0  0
  142.1684   78.6009  223.0625 H   0  0  0  0  0  0  0  0  0  0  0  0
  137.9542   78.9323  222.4288 H   0  0  0  0  0  0  0  0  0  0  0  0
  135.5273   75.0230  221.0239 H   0  0  0  0  0  0  0  0  0  0  0  0
  136.3664   73.3922  221.1425 H   0  0  0  0  0  0  0  0  0  0  0  0
  134.2776   73.8106  222.6271 H   0  0  0  0  0  0  0  0  0  0  0  0
  136.4637   75.5658  223.7906 H   0  0  0  0  0  0  0  0  0  0  0  0
  134.7131   75.9352  223.4983 H   0  0  0  0  0  0  0  0  0  0  0  0
  136.0444   74.6627  225.8000 H   0  0  0  0  0  0  0  0  0  0  0  0
  134.4674   75.5671  225.6604 H   0  0  0  0  0  0  0  0  0  0  0  0
  134.1448   73.2513  226.3860 H   0  0  0  0  0  0  0  0  0  0  0  0
  133.3957   73.6132  224.7647 H   0  0  0  0  0  0  0  0  0  0  0  0
  135.7645   71.9179  225.4532 H   0  0  0  0  0  0  0  0  0  0  0  0
  134.3120   71.5756  224.4148 H   0  0  0  0  0  0  0  0  0  0  0  0
  136.8926   72.8584  223.7428 H   0  0  0  0  0  0  0  0  0  0  0  0
  135.7054   71.9283  222.7247 H   0  0  0  0  0  0  0  0  0  0  0  0
  137.9523   70.1907  223.1102 H   0  0  0  0  0  0  0  0  0  0  0  0
  138.0384   68.9323  225.2015 H   0  0  0  0  0  0  0  0  0  0  0  0
  1  2  1  0
  2  3  2  0
  2  4  2  0
  2  5  1  0
  5  6  2  0
  6  7  1  0
  7  8  2  0
  8  9  1  0
  9 10  2  0
 10 11  1  0
 11 12  2  0
 12 13  1  0
 13 14  2  0
 14 15  1  0
 15 16  2  0
 16 17  1  0
 16 18  1  0
 18 19  2  0
 19 20  1  0
 20 21  2  0
 20 22  1  0
 22 23  1  0
 23 24  1  0
 24 25  1  0
 25 26  1  0
 26 27  1  0
 27 28  1  0
 28 29  1  0
  8 30  1  0
 30 31  2  0
 31  5  1  0
 22 11  1  0
 29 24  1  0
 19 13  1  0
  1 32  1  0
  1 33  1  0
  6 34  1  0
  7 35  1  0
  9 36  1  0
 10 37  1  0
 14 38  1  0
 15 39  1  0
 18 40  1  0
 23 41  1  0
 23 42  1  0
 24 43  1  0
 25 44  1  0
 25 45  1  0
 26 46  1  0
 26 47  1  0
 27 48  1  0
 27 49  1  0
 28 50  1  0
 28 51  1  0
 29 52  1  0
 29 53  1  0
 30 54  1  0
 31 55  1  0
M  END
>  <smiles>  (12) 
NS(=O)(=O)c1ccc(/C=C/c2nc3ccc(Cl)cc3c(=O)n2CC2CCCCC2)cc1

>  <score_type>  (12) 
oracle

>  <origin>  (12) 
autodockgpu

>  <m_score__min__energy>  (12) 
-9.4900000000000002

>  <m_primary>  (12) 
energy

>  <rmsd>  (12) 
7.021067090104644

>  <m_score__min__rmsd>  (12) 
7.021067090104644

>  <meeko>  (12) 
{"free_energy": -8.57, "intermolecular_energy": -10.66, "internal_energy": -1.61, "cluster_size": 8, "cluster_id": 5, "rank_in_cluster": 2}

>  <energy>  (12) 
-8.28

>  <cluster_rmsd>  (12) 
1.29

>  <cluster>  (12) 
1

$$$$

     RDKit          3D

 55 58  0  0  0  0  0  0  0  0999 V2000
  145.9020   73.2920  218.3410 N   0  0  0  0  0  0  0  0  0  0  0  0
  145.7240   72.4250  219.8410 S   0  0  0  0  0  0  0  0  0  0  0  0
  146.3880   71.0870  219.7700 O   0  0  0  0  0  0  0  0  0  0  0  0
  146.3500   73.2070  220.9720 O   0  0  0  0  0  0  0  0  0  0  0  0
  144.0130   72.2780  220.2010 C   0  0  0  0  0  0  0  0  0  0  0  0
  143.3870   71.0510  220.0210 C   0  0  0  0  0  0  0  0  0  0  0  0
  142.0390   70.9210  220.3010 C   0  0  0  0  0  0  0  0  0  0  0  0
  141.2770   71.9740  220.7600 C   0  0  0  0  0  0  0  0  0  0  0  0
  139.8570   71.8670  221.0650 C   0  0  0  0  0  0  0  0  0  0  0  0
  139.3270   72.0580  222.2440 C   0  0  0  0  0  0  0  0  0  0  0  0
  139.5180   71.0880  223.3460 C   0  0  0  0  0  0  0  0  0  0  0  0
  140.1160   71.5740  224.4460 N   0  0  0  0  0  0  0  0  0  0  0  0
  140.3480   70.7990  225.5140 C   0  0  0  0  0  0  0  0  0  0  0  0
  140.9620   71.2880  226.6490 C   0  0  0  0  0  0  0  0  0  0  0  0
  141.1980   70.4760  227.7490 C   0  0  0  0  0  0  0  0  0  0  0  0
  140.8080   69.1640  227.6880 C   0  0  0  0  0  0  0  0  0  0  0  0
  141.1080   68.1310  229.0870 Cl  0  0  0  0  0  0  0  0  0  0  0  0
  140.1970   68.6940  226.5480 C   0  0  0  0  0  0  0  0  0  0  0  0
  139.9520   69.4810  225.4440 C   0  0  0  0  0  0  0  0  0  0  0  0
  139.3400   69.0140  224.2990 C   0  0  0  0  0  0  0  0  0  0  0  0
  139.0010   67.7980  224.3040 O   0  0  0  0  0  0  0  0  0  0  0  0
  139.1090   69.8120  223.2200 N   0  0  0  0  0  0  0  0  0  0  0  0
  138.4830   69.3230  222.0250 C   0  0  0  0  0  0  0  0  0  0  0  0
  139.3060   68.3400  221.2340 C   0  0  0  0  0  0  0  0  0  0  0  0
  139.2300   68.7660  219.7780 C   0  0  0  0  0  0  0  0  0  0  0  0
  139.5920   67.6330  218.8470 C   0  0  0  0  0  0  0  0  0  0  0  0
  140.3600   66.5250  219.5320 C   0  0  0  0  0  0  0  0  0  0  0  0
  139.6140   65.9220  220.6790 C   0  0  0  0  0  0  0  0  0  0  0  0
  138.8130   66.9540  221.4530 C   0  0  0  0  0  0  0  0  0  0  0  0
  141.9430   73.1820  220.9270 C   0  0  0  0  0  0  0  0  0  0  0  0
  143.2720   73.3550  220.6630 C   0  0  0  0  0  0  0  0  0  0  0  0
  145.2890   72.8390  217.6360 H   0  0  0  0  0  0  0  0  0  0  0  0
  145.6150   74.2910  218.4670 H   0  0  0  0  0  0  0  0  0  0  0  0
  143.9613   70.1862  219.6572 H   0  0  0  0  0  0  0  0  0  0  0  0
  141.5580   69.9430  220.1522 H   0  0  0  0  0  0  0  0  0  0  0  0
  139.1786   71.6053  220.2396 H   0  0  0  0  0  0  0  0  0  0  0  0
  138.7246   72.9610  222.4220 H   0  0  0  0  0  0  0  0  0  0  0  0
  141.2707   72.3433  226.6823 H   0  0  0  0  0  0  0  0  0  0  0  0
  141.6870   70.8764  228.6493 H   0  0  0  0  0  0  0  0  0  0  0  0
  139.8892   67.6384  226.5167 H   0  0  0  0  0  0  0  0  0  0  0  0
  137.5420   68.8296  222.3096 H   0  0  0  0  0  0  0  0  0  0  0  0
  138.3369   70.1973  221.3736 H   0  0  0  0  0  0  0  0  0  0  0  0
  140.3571   68.3387  221.5582 H   0  0  0  0  0  0  0  0  0  0  0  0
  138.2046   69.0966  219.5560 H   0  0  0  0  0  0  0  0  0  0  0  0
  139.9493   69.5833  219.6209 H   0  0  0  0  0  0  0  0  0  0  0  0
  138.6648   67.2114  218.4316 H   0  0  0  0  0  0  0  0  0  0  0  0
  140.2431   68.0476  218.0633 H   0  0  0  0  0  0  0  0  0  0  0  0
  140.5687   65.7353  218.7952 H   0  0  0  0  0  0  0  0  0  0  0  0
  141.2845   66.9646  219.9345 H   0  0  0  0  0  0  0  0  0  0  0  0
  138.9244   65.1583  220.2900 H   0  0  0  0  0  0  0  0  0  0  0  0
  140.3521   65.4843  221.3671 H   0  0  0  0  0  0  0  0  0  0  0  0
  137.7625   66.8985  221.1316 H   0  0  0  0  0  0  0  0  0  0  0  0
  138.9214   66.7264  222.5237 H   0  0  0  0  0  0  0  0  0  0  0  0
  141.3686   74.0463  221.2918 H   0  0  0  0  0  0  0  0  0  0  0  0
  143.7477   74.3351  220.8148 H   0  0  0  0  0  0  0  0  0  0  0  0
  1  2  1  0
  2  3  2  0
  2  4  2  0
  2  5  1  0
  5  6  2  0
  6  7  1  0
  7  8  2  0
  8  9  1  0
  9 10  2  0
 10 11  1  0
 11 12  2  0
 12 13  1  0
 13 14  2  0
 14 15  1  0
 15 16  2  0
 16 17  1  0
 16 18  1  0
 18 19  2  0
 19 20  1  0
 20 21  2  0
 20 22  1  0
 22 23  1  0
 23 24  1  0
 24 25  1  0
 25 26  1  0
 26 27  1  0
 27 28  1  0
 28 29  1  0
  8 30  1  0
 30 31  2  0
 31  5  1  0
 22 11  1  0
 29 24  1  0
 19 13  1  0
  1 32  1  0
  1 33  1  0
  6 34  1  0
  7 35  1  0
  9 36  1  0
 10 37  1  0
 14 38  1  0
 15 39  1  0
 18 40  1  0
 23 41  1  0
 23 42  1  0
 24 43  1  0
 25 44  1  0
 25 45  1  0
 26 46  1  0
 26 47  1  0
 27 48  1  0
 27 49  1  0
 28 50  1  0
 28 51  1  0
 29 52  1  0
 29 53  1  0
 30 54  1  0
 31 55  1  0
M  END
>  <smiles>  (13) 
NS(=O)(=O)c1ccc(/C=C/c2nc3ccc(Cl)cc3c(=O)n2CC2CCCCC2)cc1

>  <score_type>  (13) 
oracle

>  <origin>  (13) 
autodockgpu

>  <m_score__min__energy>  (13) 
-9.4900000000000002

>  <m_primary>  (13) 
energy

>  <rmsd>  (13) 
10.69715001352744

>  <m_score__min__rmsd>  (13) 
10.69715001352744

>  <meeko>  (13) 
{"free_energy": -8.47, "intermolecular_energy": -10.56, "internal_energy": -1.66, "cluster_size": 15, "cluster_id": 2, "rank_in_cluster": 8}

>  <energy>  (13) 
-9.05

>  <cluster_rmsd>  (13) 
0.0

>  <cluster>  (13) 
2

$$$$

     RDKit          3D

 55 58  0  0  0  0  0  0  0  0999 V2000
  139.4670   67.3900  227.2100 N   0  0  0  0  0  0  0  0  0  0  0  0
  139.8930   69.0350  227.5890 S   0  0  0  0  0  0  0  0  0  0  0  0
  138.8300   69.6880  228.4130 O   0  0  0  0  0  0  0  0  0  0  0  0
  141.1870   69.0720  228.3680 O   0  0  0  0  0  0  0  0  0  0  0  0
  140.1690   69.9010  226.0890 C   0  0  0  0  0  0  0  0  0  0  0  0
  140.8470   71.1130  226.1220 C   0  0  0  0  0  0  0  0  0  0  0  0
  141.0710   71.8060  224.9470 C   0  0  0  0  0  0  0  0  0  0  0  0
  140.6450   71.3380  223.7220 C   0  0  0  0  0  0  0  0  0  0  0  0
  140.8680   72.0450  222.4690 C   0  0  0  0  0  0  0  0  0  0  0  0
  140.0580   72.9320  221.9550 C   0  0  0  0  0  0  0  0  0  0  0  0
  140.5390   74.2620  221.5220 C   0  0  0  0  0  0  0  0  0  0  0  0
  140.1700   75.2920  222.3020 N   0  0  0  0  0  0  0  0  0  0  0  0
  140.5380   76.5490  222.0190 C   0  0  0  0  0  0  0  0  0  0  0  0
  140.1640   77.6140  222.8140 C   0  0  0  0  0  0  0  0  0  0  0  0
  140.5500   78.9110  222.5110 C   0  0  0  0  0  0  0  0  0  0  0  0
  141.3180   79.1210  221.3960 C   0  0  0  0  0  0  0  0  0  0  0  0
  141.8110   80.7710  221.0100 Cl  0  0  0  0  0  0  0  0  0  0  0  0
  141.6820   78.0460  220.6150 C   0  0  0  0  0  0  0  0  0  0  0  0
  141.3100   76.7500  220.8960 C   0  0  0  0  0  0  0  0  0  0  0  0
  141.6720   75.6700  220.1170 C   0  0  0  0  0  0  0  0  0  0  0  0
  142.3810   75.9270  219.1040 O   0  0  0  0  0  0  0  0  0  0  0  0
  141.2920   74.3980  220.4150 N   0  0  0  0  0  0  0  0  0  0  0  0
  141.6580   73.2770  219.5970 C   0  0  0  0  0  0  0  0  0  0  0  0
  143.1170   72.9050  219.6470 C   0  0  0  0  0  0  0  0  0  0  0  0
  143.6930   73.5290  220.9060 C   0  0  0  0  0  0  0  0  0  0  0  0
  145.1960   73.6450  220.8330 C   0  0  0  0  0  0  0  0  0  0  0  0
  145.8110   72.7410  219.7870 C   0  0  0  0  0  0  0  0  0  0  0  0
  145.2880   73.0040  218.4110 C   0  0  0  0  0  0  0  0  0  0  0  0
  143.8110   73.3580  218.4120 C   0  0  0  0  0  0  0  0  0  0  0  0
  139.9730   70.1220  223.7350 C   0  0  0  0  0  0  0  0  0  0  0  0
  139.7290   69.4050  224.8710 C   0  0  0  0  0  0  0  0  0  0  0  0
  140.3420   66.8300  227.1910 H   0  0  0  0  0  0  0  0  0  0  0  0
  138.8210   67.0080  227.9400 H   0  0  0  0  0  0  0  0  0  0  0  0
  141.2043   71.5198  227.0795 H   0  0  0  0  0  0  0  0  0  0  0  0
  141.6082   72.7649  224.9909 H   0  0  0  0  0  0  0  0  0  0  0  0
  141.7886   71.8149  221.9126 H   0  0  0  0  0  0  0  0  0  0  0  0
  138.9924   72.6836  221.8415 H   0  0  0  0  0  0  0  0  0  0  0  0
  139.5472   77.4299  223.7060 H   0  0  0  0  0  0  0  0  0  0  0  0
  140.2464   79.7523  223.1514 H   0  0  0  0  0  0  0  0  0  0  0  0
  142.2996   78.2317  219.7239 H   0  0  0  0  0  0  0  0  0  0  0  0
  141.0720   72.4068  219.9277 H   0  0  0  0  0  0  0  0  0  0  0  0
  141.4503   73.5723  218.5579 H   0  0  0  0  0  0  0  0  0  0  0  0
  143.2559   71.8145  219.6861 H   0  0  0  0  0  0  0  0  0  0  0  0
  143.2636   74.5335  221.0348 H   0  0  0  0  0  0  0  0  0  0  0  0
  143.4396   72.8804  221.7575 H   0  0  0  0  0  0  0  0  0  0  0  0
  145.4554   74.6864  220.5919 H   0  0  0  0  0  0  0  0  0  0  0  0
  145.5966   73.3363  221.8098 H   0  0  0  0  0  0  0  0  0  0  0  0
  146.8999   72.8971  219.7845 H   0  0  0  0  0  0  0  0  0  0  0  0
  145.5467   71.7057  220.0485 H   0  0  0  0  0  0  0  0  0  0  0  0
  145.8517   73.8407  217.9725 H   0  0  0  0  0  0  0  0  0  0  0  0
  145.4122   72.0828  217.8227 H   0  0  0  0  0  0  0  0  0  0  0  0
  143.7101   74.4504  218.3313 H   0  0  0  0  0  0  0  0  0  0  0  0
  143.3439   72.8443  217.5588 H   0  0  0  0  0  0  0  0  0  0  0  0
  139.6179   69.7144  222.7770 H   0  0  0  0  0  0  0  0  0  0  0  0
  139.1908   68.4470  224.8208 H   0  0  0  0  0  0  0  0  0  0  0  0
  1  2  1  0
  2  3  2  0
  2  4  2  0
  2  5  1  0
  5  6  2  0
  6  7  1  0
  7  8  2  0
  8  9  1  0
  9 10  2  0
 10 11  1  0
 11 12  2  0
 12 13  1  0
 13 14  2  0
 14 15  1  0
 15 16  2  0
 16 17  1  0
 16 18  1  0
 18 19  2  0
 19 20  1  0
 20 21  2  0
 20 22  1  0
 22 23  1  0
 23 24  1  0
 24 25  1  0
 25 26  1  0
 26 27  1  0
 27 28  1  0
 28 29  1  0
  8 30  1  0
 30 31  2  0
 31  5  1  0
 22 11  1  0
 29 24  1  0
 19 13  1  0
  1 32  1  0
  1 33  1  0
  6 34  1  0
  7 35  1  0
  9 36  1  0
 10 37  1  0
 14 38  1  0
 15 39  1  0
 18 40  1  0
 23 41  1  0
 23 42  1  0
 24 43  1  0
 25 44  1  0
 25 45  1  0
 26 46  1  0
 26 47  1  0
 27 48  1  0
 27 49  1  0
 28 50  1  0
 28 51  1  0
 29 52  1  0
 29 53  1  0
 30 54  1  0
 31 55  1  0
M  END
>  <smiles>  (14) 
NS(=O)(=O)c1ccc(/C=C/c2nc3ccc(Cl)cc3c(=O)n2CC2CCCCC2)cc1

>  <score_type>  (14) 
oracle

>  <origin>  (14) 
autodockgpu

>  <m_score__min__energy>  (14) 
-9.4900000000000002

>  <m_primary>  (14) 
energy

>  <rmsd>  (14) 
5.348656565785658

>  <m_score__min__rmsd>  (14) 
5.348656565785658

>  <meeko>  (14) 
{"free_energy": -8.81, "intermolecular_energy": -10.9, "internal_energy": -1.39, "cluster_size": 12, "cluster_id": 1, "rank_in_cluster": 9}

>  <energy>  (14) 
-8.86

>  <cluster_rmsd>  (14) 
1.39

>  <cluster>  (14) 
2

$$$$

     RDKit          3D

 55 58  0  0  0  0  0  0  0  0999 V2000
  145.9580   73.3900  217.8860 N   0  0  0  0  0  0  0  0  0  0  0  0
  145.8830   72.9670  219.5730 S   0  0  0  0  0  0  0  0  0  0  0  0
  146.3000   71.5480  219.7900 O   0  0  0  0  0  0  0  0  0  0  0  0
  146.8010   73.8600  220.3760 O   0  0  0  0  0  0  0  0  0  0  0  0
  144.2510   73.2550  220.1490 C   0  0  0  0  0  0  0  0  0  0  0  0
  143.4210   72.1690  220.4000 C   0  0  0  0  0  0  0  0  0  0  0  0
  142.1320   72.3810  220.8540 C   0  0  0  0  0  0  0  0  0  0  0  0
  141.6270   73.6450  221.0740 C   0  0  0  0  0  0  0  0  0  0  0  0
  140.2750   73.8990  221.5520 C   0  0  0  0  0  0  0  0  0  0  0  0
  139.3250   73.0040  221.6240 C   0  0  0  0  0  0  0  0  0  0  0  0
  139.1890   72.1100  222.7940 C   0  0  0  0  0  0  0  0  0  0  0  0
  140.3060   71.9350  223.5210 N   0  0  0  0  0  0  0  0  0  0  0  0
  140.3170   71.1480  224.6050 C   0  0  0  0  0  0  0  0  0  0  0  0
  141.4590   70.9620  225.3580 C   0  0  0  0  0  0  0  0  0  0  0  0
  141.4590   70.1450  226.4790 C   0  0  0  0  0  0  0  0  0  0  0  0
  140.2930   69.5170  226.8300 C   0  0  0  0  0  0  0  0  0  0  0  0
  140.2920   68.4760  228.2560 Cl  0  0  0  0  0  0  0  0  0  0  0  0
  139.1640   69.7140  226.0670 C   0  0  0  0  0  0  0  0  0  0  0  0
  139.1400   70.5210  224.9500 C   0  0  0  0  0  0  0  0  0  0  0  0
  138.0110   70.7220  224.1830 C   0  0  0  0  0  0  0  0  0  0  0  0
  136.9680   70.1190  224.5570 O   0  0  0  0  0  0  0  0  0  0  0  0
  138.0120   71.5250  223.0830 N   0  0  0  0  0  0  0  0  0  0  0  0
  136.8410   71.7240  222.2780 C   0  0  0  0  0  0  0  0  0  0  0  0
  135.9270   72.8250  222.7490 C   0  0  0  0  0  0  0  0  0  0  0  0
  136.5740   74.1400  222.3530 C   0  0  0  0  0  0  0  0  0  0  0  0
  136.0320   75.2940  223.1620 C   0  0  0  0  0  0  0  0  0  0  0  0
  134.7070   74.9840  223.8220 C   0  0  0  0  0  0  0  0  0  0  0  0
  134.7760   73.8050  224.7390 C   0  0  0  0  0  0  0  0  0  0  0  0
  135.6950   72.7170  224.2140 C   0  0  0  0  0  0  0  0  0  0  0  0
  142.4910   74.7010  220.8110 C   0  0  0  0  0  0  0  0  0  0  0  0
  143.7700   74.5380  220.3620 C   0  0  0  0  0  0  0  0  0  0  0  0
  145.0980   73.0320  217.4280 H   0  0  0  0  0  0  0  0  0  0  0  0
  146.0070   74.4310  217.7780 H   0  0  0  0  0  0  0  0  0  0  0  0
  143.7879   71.1447  220.2382 H   0  0  0  0  0  0  0  0  0  0  0  0
  141.4871   71.5109  221.0463 H   0  0  0  0  0  0  0  0  0  0  0  0
  140.0349   74.9220  221.8773 H   0  0  0  0  0  0  0  0  0  0  0  0
  138.6091   72.9136  220.7938 H   0  0  0  0  0  0  0  0  0  0  0  0
  142.3879   71.4721  225.0630 H   0  0  0  0  0  0  0  0  0  0  0  0
  142.3743   70.0045  227.0727 H   0  0  0  0  0  0  0  0  0  0  0  0
  138.2363   69.2026  226.3632 H   0  0  0  0  0  0  0  0  0  0  0  0
  137.1664   71.9642  221.2550 H   0  0  0  0  0  0  0  0  0  0  0  0
  136.2602   70.7921  222.3427 H   0  0  0  0  0  0  0  0  0  0  0  0
  134.9333   72.7539  222.2826 H   0  0  0  0  0  0  0  0  0  0  0  0
  137.6592   74.0675  222.5178 H   0  0  0  0  0  0  0  0  0  0  0  0
  136.3485   74.3281  221.2929 H   0  0  0  0  0  0  0  0  0  0  0  0
  136.7625   75.5468  223.9446 H   0  0  0  0  0  0  0  0  0  0  0  0
  135.8655   76.1316  222.4687 H   0  0  0  0  0  0  0  0  0  0  0  0
  134.3901   75.8626  224.4031 H   0  0  0  0  0  0  0  0  0  0  0  0
  133.9896   74.7406  223.0244 H   0  0  0  0  0  0  0  0  0  0  0  0
  135.1487   74.1403  225.7181 H   0  0  0  0  0  0  0  0  0  0  0  0
  133.7641   73.3808  224.8168 H   0  0  0  0  0  0  0  0  0  0  0  0
  136.6630   72.7931  224.7310 H   0  0  0  0  0  0  0  0  0  0  0  0
  135.2094   71.7486  224.4049 H   0  0  0  0  0  0  0  0  0  0  0  0
  142.1241   75.7252  220.9736 H   0  0  0  0  0  0  0  0  0  0  0  0
  144.4100   75.4122  220.1719 H   0  0  0  0  0  0  0  0  0  0  0  0
  1  2  1  0
  2  3  2  0
  2  4  2  0
  2  5  1  0
  5  6  2  0
  6  7  1  0
  7  8  2  0
  8  9  1  0
  9 10  2  0
 10 11  1  0
 11 12  2  0
 12 13  1  0
 13 14  2  0
 14 15  1  0
 15 16  2  0
 16 17  1  0
 16 18  1  0
 18 19  2  0
 19 20  1  0
 20 21  2  0
 20 22  1  0
 22 23  1  0
 23 24  1  0
 24 25  1  0
 25 26  1  0
 26 27  1  0
 27 28  1  0
 28 29  1  0
  8 30  1  0
 30 31  2  0
 31  5  1  0
 22 11  1  0
 29 24  1  0
 19 13  1  0
  1 32  1  0
  1 33  1  0
  6 34  1  0
  7 35  1  0
  9 36  1  0
 10 37  1  0
 14 38  1  0
 15 39  1  0
 18 40  1  0
 23 41  1  0
 23 42  1  0
 24 43  1  0
 25 44  1  0
 25 45  1  0
 26 46  1  0
 26 47  1  0
 27 48  1  0
 27 49  1  0
 28 50  1  0
 28 51  1  0
 29 52  1  0
 29 53  1  0
 30 54  1  0
 31 55  1  0
M  END
>  <smiles>  (15) 
NS(=O)(=O)c1ccc(/C=C/c2nc3ccc(Cl)cc3c(=O)n2CC2CCCCC2)cc1

>  <score_type>  (15) 
oracle

>  <origin>  (15) 
autodockgpu

>  <m_score__min__energy>  (15) 
-9.4900000000000002

>  <m_primary>  (15) 
energy

>  <rmsd>  (15) 
9.750918712188415

>  <m_score__min__rmsd>  (15) 
9.750918712188415

>  <meeko>  (15) 
{"free_energy": -8.67, "intermolecular_energy": -10.75, "internal_energy": -1.4, "cluster_size": 2, "cluster_id": 4, "rank_in_cluster": 1}

>  <energy>  (15) 
-8.8

>  <cluster_rmsd>  (15) 
0.29

>  <cluster>  (15) 
2

$$$$

     RDKit          3D

 55 58  0  0  0  0  0  0  0  0999 V2000
  146.0140   73.4430  218.3350 N   0  0  0  0  0  0  0  0  0  0  0  0
  145.7160   72.5520  219.8010 S   0  0  0  0  0  0  0  0  0  0  0  0
  146.2850   71.1720  219.7160 O   0  0  0  0  0  0  0  0  0  0  0  0
  146.3520   73.2570  220.9760 O   0  0  0  0  0  0  0  0  0  0  0  0
  143.9860   72.5200  220.0930 C   0  0  0  0  0  0  0  0  0  0  0  0
  143.4640   71.5680  220.9600 C   0  0  0  0  0  0  0  0  0  0  0  0
  142.1030   71.5320  221.2000 C   0  0  0  0  0  0  0  0  0  0  0  0
  141.2260   72.4140  220.6070 C   0  0  0  0  0  0  0  0  0  0  0  0
  139.7890   72.4000  220.8400 C   0  0  0  0  0  0  0  0  0  0  0  0
  139.2170   72.5950  221.9990 C   0  0  0  0  0  0  0  0  0  0  0  0
  139.3150   71.6000  223.0890 C   0  0  0  0  0  0  0  0  0  0  0  0
  140.0950   71.9520  224.1250 N   0  0  0  0  0  0  0  0  0  0  0  0
  140.2700   71.1400  225.1760 C   0  0  0  0  0  0  0  0  0  0  0  0
  141.0690   71.4920  226.2450 C   0  0  0  0  0  0  0  0  0  0  0  0
  141.2420   70.6420  227.3270 C   0  0  0  0  0  0  0  0  0  0  0  0
  140.6000   69.4320  227.3170 C   0  0  0  0  0  0  0  0  0  0  0  0
  140.8200   68.3500  228.6950 Cl  0  0  0  0  0  0  0  0  0  0  0  0
  139.8070   69.0970  226.2430 C   0  0  0  0  0  0  0  0  0  0  0  0
  139.6190   69.9250  225.1570 C   0  0  0  0  0  0  0  0  0  0  0  0
  138.8250   69.5940  224.0790 C   0  0  0  0  0  0  0  0  0  0  0  0
  138.2580   68.4670  224.1290 O   0  0  0  0  0  0  0  0  0  0  0  0
  138.6560   70.4290  223.0170 N   0  0  0  0  0  0  0  0  0  0  0  0
  137.8400   70.0790  221.8890 C   0  0  0  0  0  0  0  0  0  0  0  0
  138.4420   69.0550  220.9630 C   0  0  0  0  0  0  0  0  0  0  0  0
  139.9360   69.0340  221.2340 C   0  0  0  0  0  0  0  0  0  0  0  0
  140.7030   68.4310  220.0810 C   0  0  0  0  0  0  0  0  0  0  0  0
  139.8360   67.6000  219.1620 C   0  0  0  0  0  0  0  0  0  0  0  0
  138.7040   68.3770  218.5710 C   0  0  0  0  0  0  0  0  0  0  0  0
  138.1200   69.3830  219.5470 C   0  0  0  0  0  0  0  0  0  0  0  0
  141.7900   73.3500  219.7480 C   0  0  0  0  0  0  0  0  0  0  0  0
  143.1280   73.4220  219.4830 C   0  0  0  0  0  0  0  0  0  0  0  0
  145.2380   74.1230  218.2100 H   0  0  0  0  0  0  0  0  0  0  0  0
  146.9230   73.9570  218.4050 H   0  0  0  0  0  0  0  0  0  0  0  0
  144.1310   70.8458  221.4535 H   0  0  0  0  0  0  0  0  0  0  0  0
  141.7060   70.7720  221.8890 H   0  0  0  0  0  0  0  0  0  0  0  0
  139.1354   72.2111  219.9756 H   0  0  0  0  0  0  0  0  0  0  0  0
  138.6489   73.5217  222.1678 H   0  0  0  0  0  0  0  0  0  0  0  0
  141.5789   72.4666  226.2386 H   0  0  0  0  0  0  0  0  0  0  0  0
  141.8804   70.9329  228.1742 H   0  0  0  0  0  0  0  0  0  0  0  0
  139.2988   68.1215  226.2517 H   0  0  0  0  0  0  0  0  0  0  0  0
  136.8876   69.6792  222.2674 H   0  0  0  0  0  0  0  0  0  0  0  0
  137.7223   70.9985  221.2968 H   0  0  0  0  0  0  0  0  0  0  0  0
  138.0259   68.0525  221.1415 H   0  0  0  0  0  0  0  0  0  0  0  0
  140.2842   70.0652  221.3936 H   0  0  0  0  0  0  0  0  0  0  0  0
  140.1147   68.4158  222.1262 H   0  0  0  0  0  0  0  0  0  0  0  0
  141.1530   69.2462  219.4954 H   0  0  0  0  0  0  0  0  0  0  0  0
  141.4644   67.7616  220.5078 H   0  0  0  0  0  0  0  0  0  0  0  0
  140.4614   67.2134  218.3438 H   0  0  0  0  0  0  0  0  0  0  0  0
  139.4010   66.7880  219.7631 H   0  0  0  0  0  0  0  0  0  0  0  0
  139.0703   68.9162  217.6850 H   0  0  0  0  0  0  0  0  0  0  0  0
  137.9087   67.6637  218.3088 H   0  0  0  0  0  0  0  0  0  0  0  0
  138.5268   70.3781  219.3139 H   0  0  0  0  0  0  0  0  0  0  0  0
  137.0257   69.3585  219.4382 H   0  0  0  0  0  0  0  0  0  0  0  0
  141.1225   74.0720  219.2548 H   0  0  0  0  0  0  0  0  0  0  0  0
  143.5195   74.1855  218.7947 H   0  0  0  0  0  0  0  0  0  0  0  0
  1  2  1  0
  2  3  2  0
  2  4  2  0
  2  5  1  0
  5  6  2  0
  6  7  1  0
  7  8  2  0
  8  9  1  0
  9 10  2  0
 10 11  1  0
 11 12  2  0
 12 13  1  0
 13 14  2  0
 14 15  1  0
 15 16  2  0
 16 17  1  0
 16 18  1  0
 18 19  2  0
 19 20  1  0
 20 21  2  0
 20 22  1  0
 22 23  1  0
 23 24  1  0
 24 25  1  0
 25 26  1  0
 26 27  1  0
 27 28  1  0
 28 29  1  0
  8 30  1  0
 30 31  2  0
 31  5  1  0
 22 11  1  0
 29 24  1  0
 19 13  1  0
  1 32  1  0
  1 33  1  0
  6 34  1  0
  7 35  1  0
  9 36  1  0
 10 37  1  0
 14 38  1  0
 15 39  1  0
 18 40  1  0
 23 41  1  0
 23 42  1  0
 24 43  1  0
 25 44  1  0
 25 45  1  0
 26 46  1  0
 26 47  1  0
 27 48  1  0
 27 49  1  0
 28 50  1  0
 28 51  1  0
 29 52  1  0
 29 53  1  0
 30 54  1  0
 31 55  1  0
M  END
>  <smiles>  (16) 
NS(=O)(=O)c1ccc(/C=C/c2nc3ccc(Cl)cc3c(=O)n2CC2CCCCC2)cc1

>  <score_type>  (16) 
oracle

>  <origin>  (16) 
autodockgpu

>  <m_score__min__energy>  (16) 
-9.4900000000000002

>  <m_primary>  (16) 
energy

>  <rmsd>  (16) 
10.33511086655946

>  <m_score__min__rmsd>  (16) 
10.33511086655946

>  <meeko>  (16) 
{"free_energy": -7.93, "intermolecular_energy": -10.01, "internal_energy": -1.95, "cluster_size": 15, "cluster_id": 2, "rank_in_cluster": 15}

>  <energy>  (16) 
-8.78

>  <cluster_rmsd>  (16) 
1.26

>  <cluster>  (16) 
2

$$$$

     RDKit          3D

 55 58  0  0  0  0  0  0  0  0999 V2000
  133.5940   72.4550  227.2640 N   0  0  0  0  0  0  0  0  0  0  0  0
  133.0810   73.9070  226.4510 S   0  0  0  0  0  0  0  0  0  0  0  0
  131.7260   73.7310  225.8420 O   0  0  0  0  0  0  0  0  0  0  0  0
  133.0160   75.0560  227.4300 O   0  0  0  0  0  0  0  0  0  0  0  0
  134.2810   74.3260  225.2430 C   0  0  0  0  0  0  0  0  0  0  0  0
  134.6590   75.6550  225.0960 C   0  0  0  0  0  0  0  0  0  0  0  0
  135.6040   75.9980  224.1470 C   0  0  0  0  0  0  0  0  0  0  0  0
  136.2000   75.0640  223.3280 C   0  0  0  0  0  0  0  0  0  0  0  0
  137.1980   75.3960  222.3210 C   0  0  0  0  0  0  0  0  0  0  0  0
  138.2400   76.1590  222.5230 C   0  0  0  0  0  0  0  0  0  0  0  0
  139.5490   75.8650  221.8990 C   0  0  0  0  0  0  0  0  0  0  0  0
  139.9510   74.5850  221.9760 N   0  0  0  0  0  0  0  0  0  0  0  0
  141.1180   74.1870  221.4520 C   0  0  0  0  0  0  0  0  0  0  0  0
  141.5410   72.8750  221.5260 C   0  0  0  0  0  0  0  0  0  0  0  0
  142.7510   72.4750  220.9800 C   0  0  0  0  0  0  0  0  0  0  0  0
  143.5310   73.4160  220.3600 C   0  0  0  0  0  0  0  0  0  0  0  0
  145.0720   72.9070  219.6650 Cl  0  0  0  0  0  0  0  0  0  0  0  0
  143.0940   74.7190  220.2960 C   0  0  0  0  0  0  0  0  0  0  0  0
  141.8960   75.1400  220.8300 C   0  0  0  0  0  0  0  0  0  0  0  0
  141.4530   76.4460  220.7690 C   0  0  0  0  0  0  0  0  0  0  0  0
  142.2150   77.2650  220.1840 O   0  0  0  0  0  0  0  0  0  0  0  0
  140.2650   76.8370  221.3050 N   0  0  0  0  0  0  0  0  0  0  0  0
  139.8110   78.1970  221.2510 C   0  0  0  0  0  0  0  0  0  0  0  0
  140.5400   79.1460  222.1660 C   0  0  0  0  0  0  0  0  0  0  0  0
  141.5190   79.9270  221.3080 C   0  0  0  0  0  0  0  0  0  0  0  0
  142.6200   80.5440  222.1390 C   0  0  0  0  0  0  0  0  0  0  0  0
  142.2700   80.6400  223.6070 C   0  0  0  0  0  0  0  0  0  0  0  0
  141.9570   79.3120  224.2190 C   0  0  0  0  0  0  0  0  0  0  0  0
  141.2080   78.3990  223.2650 C   0  0  0  0  0  0  0  0  0  0  0  0
  135.7940   73.7480  223.5090 C   0  0  0  0  0  0  0  0  0  0  0  0
  134.8650   73.3630  224.4320 C   0  0  0  0  0  0  0  0  0  0  0  0
  133.1380   72.4320  228.1960 H   0  0  0  0  0  0  0  0  0  0  0  0
  133.3070   71.6130  226.7110 H   0  0  0  0  0  0  0  0  0  0  0  0
  134.2082   76.4310  225.7321 H   0  0  0  0  0  0  0  0  0  0  0  0
  135.8905   77.0548  224.0420 H   0  0  0  0  0  0  0  0  0  0  0  0
  137.0650   74.9728  221.3144 H   0  0  0  0  0  0  0  0  0  0  0  0
  138.1413   77.0411  223.1727 H   0  0  0  0  0  0  0  0  0  0  0  0
  140.9049   72.1315  222.0286 H   0  0  0  0  0  0  0  0  0  0  0  0
  143.0775   71.4265  221.0430 H   0  0  0  0  0  0  0  0  0  0  0  0
  143.7324   75.4608  219.7939 H   0  0  0  0  0  0  0  0  0  0  0  0
  139.9322   78.5569  220.2186 H   0  0  0  0  0  0  0  0  0  0  0  0
  138.7641   78.1863  221.5884 H   0  0  0  0  0  0  0  0  0  0  0  0
  139.8485   79.8462  222.6575 H   0  0  0  0  0  0  0  0  0  0  0  0
  141.9681   79.2463  220.5698 H   0  0  0  0  0  0  0  0  0  0  0  0
  140.9680   80.7389  220.8108 H   0  0  0  0  0  0  0  0  0  0  0  0
  143.5253   79.9280  222.0342 H   0  0  0  0  0  0  0  0  0  0  0  0
  142.7752   81.5687  221.7704 H   0  0  0  0  0  0  0  0  0  0  0  0
  143.1233   81.0811  224.1431 H   0  0  0  0  0  0  0  0  0  0  0  0
  141.3673   81.2630  223.6909 H   0  0  0  0  0  0  0  0  0  0  0  0
  142.9000   78.8247  224.5076 H   0  0  0  0  0  0  0  0  0  0  0  0
  141.3115   79.4881  225.0921 H   0  0  0  0  0  0  0  0  0  0  0  0
  141.9219   77.6875  222.8245 H   0  0  0  0  0  0  0  0  0  0  0  0
  140.4258   77.8835  223.8416 H   0  0  0  0  0  0  0  0  0  0  0  0
  136.2464   72.9728  222.8730 H   0  0  0  0  0  0  0  0  0  0  0  0
  134.5832   72.3044  224.5316 H   0  0  0  0  0  0  0  0  0  0  0  0
  1  2  1  0
  2  3  2  0
  2  4  2  0
  2  5  1  0
  5  6  2  0
  6  7  1  0
  7  8  2  0
  8  9  1  0
  9 10  2  0
 10 11  1  0
 11 12  2  0
 12 13  1  0
 13 14  2  0
 14 15  1  0
 15 16  2  0
 16 17  1  0
 16 18  1  0
 18 19  2  0
 19 20  1  0
 20 21  2  0
 20 22  1  0
 22 23  1  0
 23 24  1  0
 24 25  1  0
 25 26  1  0
 26 27  1  0
 27 28  1  0
 28 29  1  0
  8 30  1  0
 30 31  2  0
 31  5  1  0
 22 11  1  0
 29 24  1  0
 19 13  1  0
  1 32  1  0
  1 33  1  0
  6 34  1  0
  7 35  1  0
  9 36  1  0
 10 37  1  0
 14 38  1  0
 15 39  1  0
 18 40  1  0
 23 41  1  0
 23 42  1  0
 24 43  1  0
 25 44  1  0
 25 45  1  0
 26 46  1  0
 26 47  1  0
 27 48  1  0
 27 49  1  0
 28 50  1  0
 28 51  1  0
 29 52  1  0
 29 53  1  0
 30 54  1  0
 31 55  1  0
M  END
>  <smiles>  (17) 
NS(=O)(=O)c1ccc(/C=C/c2nc3ccc(Cl)cc3c(=O)n2CC2CCCCC2)cc1

>  <score_type>  (17) 
oracle

>  <origin>  (17) 
autodockgpu

>  <m_score__min__energy>  (17) 
-9.4900000000000002

>  <m_primary>  (17) 
energy

>  <rmsd>  (17) 
7.0272317330864995

>  <m_score__min__rmsd>  (17) 
7.0272317330864995

>  <meeko>  (17) 
{"free_energy": -8.67, "intermolecular_energy": -10.76, "internal_energy": -1.31, "cluster_size": 5, "cluster_id": 3, "rank_in_cluster": 3}

>  <energy>  (17) 
-8.69

>  <cluster_rmsd>  (17) 
0.5

>  <cluster>  (17) 
2

$$$$

     RDKit          3D

 55 58  0  0  0  0  0  0  0  0999 V2000
  145.9530   73.3810  218.5650 N   0  0  0  0  0  0  0  0  0  0  0  0
  145.6250   72.3780  219.9490 S   0  0  0  0  0  0  0  0  0  0  0  0
  145.9670   70.9500  219.6710 O   0  0  0  0  0  0  0  0  0  0  0  0
  146.4430   72.8400  221.1330 O   0  0  0  0  0  0  0  0  0  0  0  0
  143.9360   72.5640  220.3860 C   0  0  0  0  0  0  0  0  0  0  0  0
  143.1270   71.4360  220.4560 C   0  0  0  0  0  0  0  0  0  0  0  0
  141.7950   71.5680  220.7990 C   0  0  0  0  0  0  0  0  0  0  0  0
  141.2240   72.7910  221.0810 C   0  0  0  0  0  0  0  0  0  0  0  0
  139.8240   72.9600  221.4450 C   0  0  0  0  0  0  0  0  0  0  0  0
  139.0070   71.9870  221.7520 C   0  0  0  0  0  0  0  0  0  0  0  0
  139.2770   71.0750  222.8850 C   0  0  0  0  0  0  0  0  0  0  0  0
  139.8230   71.6490  223.9710 N   0  0  0  0  0  0  0  0  0  0  0  0
  140.1180   70.9340  225.0650 C   0  0  0  0  0  0  0  0  0  0  0  0
  140.6790   71.5130  226.1850 C   0  0  0  0  0  0  0  0  0  0  0  0
  140.9800   70.7630  227.3110 C   0  0  0  0  0  0  0  0  0  0  0  0
  140.7110   69.4190  227.2930 C   0  0  0  0  0  0  0  0  0  0  0  0
  141.0950   68.4630  228.7260 Cl  0  0  0  0  0  0  0  0  0  0  0  0
  140.1520   68.8590  226.1660 C   0  0  0  0  0  0  0  0  0  0  0  0
  139.8430   69.5840  225.0370 C   0  0  0  0  0  0  0  0  0  0  0  0
  139.2820   69.0260  223.9060 C   0  0  0  0  0  0  0  0  0  0  0  0
  139.0560   67.7850  223.9500 O   0  0  0  0  0  0  0  0  0  0  0  0
  138.9870   69.7640  222.8010 N   0  0  0  0  0  0  0  0  0  0  0  0
  138.4150   69.1820  221.6200 C   0  0  0  0  0  0  0  0  0  0  0  0
  139.4150   68.7160  220.5940 C   0  0  0  0  0  0  0  0  0  0  0  0
  138.8610   69.0920  219.2310 C   0  0  0  0  0  0  0  0  0  0  0  0
  139.4990   68.2810  218.1280 C   0  0  0  0  0  0  0  0  0  0  0  0
  140.8070   67.6430  218.5420 C   0  0  0  0  0  0  0  0  0  0  0  0
  140.6630   66.7340  219.7200 C   0  0  0  0  0  0  0  0  0  0  0  0
  139.6580   67.2550  220.7320 C   0  0  0  0  0  0  0  0  0  0  0  0
  142.0680   73.8910  221.0000 C   0  0  0  0  0  0  0  0  0  0  0  0
  143.3890   73.8070  220.6650 C   0  0  0  0  0  0  0  0  0  0  0  0
  145.1800   74.0690  218.4780 H   0  0  0  0  0  0  0  0  0  0  0  0
  146.8610   73.8880  218.6940 H   0  0  0  0  0  0  0  0  0  0  0  0
  143.5455   70.4421  220.2392 H   0  0  0  0  0  0  0  0  0  0  0  0
  141.1680   70.6656  220.8488 H   0  0  0  0  0  0  0  0  0  0  0  0
  139.4237   73.9844  221.4630 H   0  0  0  0  0  0  0  0  0  0  0  0
  138.0959   71.8427  221.1529 H   0  0  0  0  0  0  0  0  0  0  0  0
  140.8917   72.5922  226.1841 H   0  0  0  0  0  0  0  0  0  0  0  0
  141.4247   71.2357  228.1991 H   0  0  0  0  0  0  0  0  0  0  0  0
  139.9420   67.7792  226.1678 H   0  0  0  0  0  0  0  0  0  0  0  0
  137.8094   68.3158  221.9249 H   0  0  0  0  0  0  0  0  0  0  0  0
  137.8266   69.9769  221.1384 H   0  0  0  0  0  0  0  0  0  0  0  0
  140.3941   69.1973  220.7341 H   0  0  0  0  0  0  0  0  0  0  0  0
  137.7759   68.9117  219.2247 H   0  0  0  0  0  0  0  0  0  0  0  0
  139.0840   70.1539  219.0502 H   0  0  0  0  0  0  0  0  0  0  0  0
  138.8004   67.4855  217.8292 H   0  0  0  0  0  0  0  0  0  0  0  0
  139.7176   68.9696  217.2985 H   0  0  0  0  0  0  0  0  0  0  0  0
  141.1972   67.0603  217.6945 H   0  0  0  0  0  0  0  0  0  0  0  0
  141.4926   68.4530  218.8316 H   0  0  0  0  0  0  0  0  0  0  0  0
  140.3295   65.7472  219.3664 H   0  0  0  0  0  0  0  0  0  0  0  0
  141.6414   66.6730  220.2189 H   0  0  0  0  0  0  0  0  0  0  0  0
  138.7054   66.7240  220.5885 H   0  0  0  0  0  0  0  0  0  0  0  0
  140.0725   67.0787  221.7355 H   0  0  0  0  0  0  0  0  0  0  0  0
  141.6492   74.8846  221.2177 H   0  0  0  0  0  0  0  0  0  0  0  0
  144.0107   74.7132  220.6171 H   0  0  0  0  0  0  0  0  0  0  0  0
  1  2  1  0
  2  3  2  0
  2  4  2  0
  2  5  1  0
  5  6  2  0
  6  7  1  0
  7  8  2  0
  8  9  1  0
  9 10  2  0
 10 11  1  0
 11 12  2  0
 12 13  1  0
 13 14  2  0
 14 15  1  0
 15 16  2  0
 16 17  1  0
 16 18  1  0
 18 19  2  0
 19 20  1  0
 20 21  2  0
 20 22  1  0
 22 23  1  0
 23 24  1  0
 24 25  1  0
 25 26  1  0
 26 27  1  0
 27 28  1  0
 28 29  1  0
  8 30  1  0
 30 31  2  0
 31  5  1  0
 22 11  1  0
 29 24  1  0
 19 13  1  0
  1 32  1  0
  1 33  1  0
  6 34  1  0
  7 35  1  0
  9 36  1  0
 10 37  1  0
 14 38  1  0
 15 39  1  0
 18 40  1  0
 23 41  1  0
 23 42  1  0
 24 43  1  0
 25 44  1  0
 25 45  1  0
 26 46  1  0
 26 47  1  0
 27 48  1  0
 27 49  1  0
 28 50  1  0
 28 51  1  0
 29 52  1  0
 29 53  1  0
 30 54  1  0
 31 55  1  0
M  END
>  <smiles>  (18) 
NS(=O)(=O)c1ccc(/C=C/c2nc3ccc(Cl)cc3c(=O)n2CC2CCCCC2)cc1

>  <score_type>  (18) 
oracle

>  <origin>  (18) 
autodockgpu

>  <m_score__min__energy>  (18) 
-9.4900000000000002

>  <m_primary>  (18) 
energy

>  <rmsd>  (18) 
10.283003375322613

>  <m_score__min__rmsd>  (18) 
10.283003375322613

>  <meeko>  (18) 
{"free_energy": -8.51, "intermolecular_energy": -10.6, "internal_energy": -1.86, "cluster_size": 15, "cluster_id": 2, "rank_in_cluster": 7}

>  <energy>  (18) 
-8.57

>  <cluster_rmsd>  (18) 
1.52

>  <cluster>  (18) 
2

$$$$

     RDKit          3D

 55 58  0  0  0  0  0  0  0  0999 V2000
  145.9100   73.3790  218.0070 N   0  0  0  0  0  0  0  0  0  0  0  0
  145.8240   72.8060  219.6480 S   0  0  0  0  0  0  0  0  0  0  0  0
  146.3010   71.3920  219.7490 O   0  0  0  0  0  0  0  0  0  0  0  0
  146.6860   73.6630  220.5460 O   0  0  0  0  0  0  0  0  0  0  0  0
  144.1700   72.9700  220.2110 C   0  0  0  0  0  0  0  0  0  0  0  0
  143.5510   71.8850  220.8180 C   0  0  0  0  0  0  0  0  0  0  0  0
  142.2490   72.0010  221.2670 C   0  0  0  0  0  0  0  0  0  0  0  0
  141.5250   73.1670  221.1360 C   0  0  0  0  0  0  0  0  0  0  0  0
  140.1530   73.3190  221.6000 C   0  0  0  0  0  0  0  0  0  0  0  0
  139.3020   72.3390  221.7540 C   0  0  0  0  0  0  0  0  0  0  0  0
  139.4050   71.3940  222.8890 C   0  0  0  0  0  0  0  0  0  0  0  0
  140.0900   71.8430  223.9540 N   0  0  0  0  0  0  0  0  0  0  0  0
  140.2580   71.0850  225.0460 C   0  0  0  0  0  0  0  0  0  0  0  0
  140.9590   71.5370  226.1450 C   0  0  0  0  0  0  0  0  0  0  0  0
  141.1270   70.7430  227.2700 C   0  0  0  0  0  0  0  0  0  0  0  0
  140.5790   69.4880  227.2720 C   0  0  0  0  0  0  0  0  0  0  0  0
  140.7920   68.4770  228.7030 Cl  0  0  0  0  0  0  0  0  0  0  0  0
  139.8820   69.0540  226.1660 C   0  0  0  0  0  0  0  0  0  0  0  0
  139.7020   69.8240  225.0380 C   0  0  0  0  0  0  0  0  0  0  0  0
  139.0050   69.3940  223.9280 C   0  0  0  0  0  0  0  0  0  0  0  0
  138.5220   68.2290  223.9900 O   0  0  0  0  0  0  0  0  0  0  0  0
  138.8420   70.1740  222.8240 N   0  0  0  0  0  0  0  0  0  0  0  0
  138.1270   69.7210  221.6650 C   0  0  0  0  0  0  0  0  0  0  0  0
  138.9230   68.8510  220.7280 C   0  0  0  0  0  0  0  0  0  0  0  0
  138.8150   67.4270  221.2450 C   0  0  0  0  0  0  0  0  0  0  0  0
  139.9230   66.5530  220.7060 C   0  0  0  0  0  0  0  0  0  0  0  0
  140.5860   67.1290  219.4740 C   0  0  0  0  0  0  0  0  0  0  0  0
  141.1750   68.4830  219.7090 C   0  0  0  0  0  0  0  0  0  0  0  0
  140.3300   69.3270  220.6460 C   0  0  0  0  0  0  0  0  0  0  0  0
  142.1820   74.2270  220.5250 C   0  0  0  0  0  0  0  0  0  0  0  0
  143.4670   74.1570  220.0670 C   0  0  0  0  0  0  0  0  0  0  0  0
  145.1510   72.9190  217.4670 H   0  0  0  0  0  0  0  0  0  0  0  0
  145.7800   74.4180  217.9810 H   0  0  0  0  0  0  0  0  0  0  0  0
  144.0949   70.9368  220.9409 H   0  0  0  0  0  0  0  0  0  0  0  0
  141.7736   71.1323  221.7458 H   0  0  0  0  0  0  0  0  0  0  0  0
  139.8067   74.3354  221.8389 H   0  0  0  0  0  0  0  0  0  0  0  0
  138.4899   72.2133  221.0228 H   0  0  0  0  0  0  0  0  0  0  0  0
  141.3935   72.5474  226.1288 H   0  0  0  0  0  0  0  0  0  0  0  0
  141.6878   71.1131  228.1409 H   0  0  0  0  0  0  0  0  0  0  0  0
  139.4480   68.0434  226.1844 H   0  0  0  0  0  0  0  0  0  0  0  0
  137.2533   69.1460  222.0057 H   0  0  0  0  0  0  0  0  0  0  0  0
  137.8597   70.6234  221.0955 H   0  0  0  0  0  0  0  0  0  0  0  0
  138.5312   68.8962  219.7011 H   0  0  0  0  0  0  0  0  0  0  0  0
  138.8738   67.4408  222.3433 H   0  0  0  0  0  0  0  0  0  0  0  0
  137.8542   67.0109  220.9076 H   0  0  0  0  0  0  0  0  0  0  0  0
  140.6855   66.4311  221.4894 H   0  0  0  0  0  0  0  0  0  0  0  0
  139.4723   65.5920  220.4174 H   0  0  0  0  0  0  0  0  0  0  0  0
  141.3888   66.4474  219.1564 H   0  0  0  0  0  0  0  0  0  0  0  0
  139.8103   67.2362  218.7015 H   0  0  0  0  0  0  0  0  0  0  0  0
  142.1759   68.3613  220.1489 H   0  0  0  0  0  0  0  0  0  0  0  0
  141.2209   69.0016  218.7400 H   0  0  0  0  0  0  0  0  0  0  0  0
  140.7742   69.2899  221.6516 H   0  0  0  0  0  0  0  0  0  0  0  0
  140.3135   70.3527  220.2490 H   0  0  0  0  0  0  0  0  0  0  0  0
  141.6377   75.1751  220.4031 H   0  0  0  0  0  0  0  0  0  0  0  0
  143.9377   75.0297  219.5907 H   0  0  0  0  0  0  0  0  0  0  0  0
  1  2  1  0
  2  3  2  0
  2  4  2  0
  2  5  1  0
  5  6  2  0
  6  7  1  0
  7  8  2  0
  8  9  1  0
  9 10  2  0
 10 11  1  0
 11 12  2  0
 12 13  1  0
 13 14  2  0
 14 15  1  0
 15 16  2  0
 16 17  1  0
 16 18  1  0
 18 19  2  0
 19 20  1  0
 20 21  2  0
 20 22  1  0
 22 23  1  0
 23 24  1  0
 24 25  1  0
 25 26  1  0
 26 27  1  0
 27 28  1  0
 28 29  1  0
  8 30  1  0
 30 31  2  0
 31  5  1  0
 22 11  1  0
 29 24  1  0
 19 13  1  0
  1 32  1  0
  1 33  1  0
  6 34  1  0
  7 35  1  0
  9 36  1  0
 10 37  1  0
 14 38  1  0
 15 39  1  0
 18 40  1  0
 23 41  1  0
 23 42  1  0
 24 43  1  0
 25 44  1  0
 25 45  1  0
 26 46  1  0
 26 47  1  0
 27 48  1  0
 27 49  1  0
 28 50  1  0
 28 51  1  0
 29 52  1  0
 29 53  1  0
 30 54  1  0
 31 55  1  0
M  END
>  <smiles>  (19) 
NS(=O)(=O)c1ccc(/C=C/c2nc3ccc(Cl)cc3c(=O)n2CC2CCCCC2)cc1

>  <score_type>  (19) 
oracle

>  <origin>  (19) 
autodockgpu

>  <m_score__min__energy>  (19) 
-9.4900000000000002

>  <m_primary>  (19) 
energy

>  <rmsd>  (19) 
10.808488910399147

>  <m_score__min__rmsd>  (19) 
10.808488910399147

>  <meeko>  (19) 
{"free_energy": -8.8, "intermolecular_energy": -10.88, "internal_energy": -1.85, "cluster_size": 15, "cluster_id": 2, "rank_in_cluster": 3}

>  <energy>  (19) 
-8.51

>  <cluster_rmsd>  (19) 
0.7

>  <cluster>  (19) 
2

$$$$

     RDKit          3D

 55 58  0  0  0  0  0  0  0  0999 V2000
  146.2270   73.4050  219.0320 N   0  0  0  0  0  0  0  0  0  0  0  0
  145.1370   73.2550  220.3810 S   0  0  0  0  0  0  0  0  0  0  0  0
  144.6140   71.8590  220.4960 O   0  0  0  0  0  0  0  0  0  0  0  0
  145.8500   73.6030  221.6670 O   0  0  0  0  0  0  0  0  0  0  0  0
  143.8370   74.4160  220.1820 C   0  0  0  0  0  0  0  0  0  0  0  0
  142.5370   74.0360  220.4900 C   0  0  0  0  0  0  0  0  0  0  0  0
  141.5040   74.9410  220.3370 C   0  0  0  0  0  0  0  0  0  0  0  0
  141.7100   76.2270  219.8860 C   0  0  0  0  0  0  0  0  0  0  0  0
  140.6420   77.2020  219.7170 C   0  0  0  0  0  0  0  0  0  0  0  0
  139.3760   76.9090  219.5810 C   0  0  0  0  0  0  0  0  0  0  0  0
  138.4700   76.8210  220.7480 C   0  0  0  0  0  0  0  0  0  0  0  0
  137.9610   75.6020  220.9920 N   0  0  0  0  0  0  0  0  0  0  0  0
  137.1260   75.3870  222.0180 C   0  0  0  0  0  0  0  0  0  0  0  0
  136.5970   74.1390  222.2780 C   0  0  0  0  0  0  0  0  0  0  0  0
  135.7340   73.9290  223.3420 C   0  0  0  0  0  0  0  0  0  0  0  0
  135.4100   74.9930  224.1420 C   0  0  0  0  0  0  0  0  0  0  0  0
  134.3110   74.7260  225.4970 Cl  0  0  0  0  0  0  0  0  0  0  0  0
  135.9480   76.2310  223.8680 C   0  0  0  0  0  0  0  0  0  0  0  0
  136.8070   76.4640  222.8170 C   0  0  0  0  0  0  0  0  0  0  0  0
  137.3480   77.7020  222.5380 C   0  0  0  0  0  0  0  0  0  0  0  0
  137.0150   78.6420  223.3110 O   0  0  0  0  0  0  0  0  0  0  0  0
  138.1950   77.9070  221.4930 N   0  0  0  0  0  0  0  0  0  0  0  0
  138.7480   79.1980  221.1960 C   0  0  0  0  0  0  0  0  0  0  0  0
  140.1240   79.4440  221.7590 C   0  0  0  0  0  0  0  0  0  0  0  0
  140.4060   78.3260  222.7470 C   0  0  0  0  0  0  0  0  0  0  0  0
  141.5050   78.7000  223.7130 C   0  0  0  0  0  0  0  0  0  0  0  0
  142.3580   79.8500  223.2250 C   0  0  0  0  0  0  0  0  0  0  0  0
  141.5670   81.0920  222.9650 C   0  0  0  0  0  0  0  0  0  0  0  0
  140.1960   80.7930  222.3830 C   0  0  0  0  0  0  0  0  0  0  0  0
  143.0250   76.5660  219.5910 C   0  0  0  0  0  0  0  0  0  0  0  0
  144.0760   75.7040  219.7270 C   0  0  0  0  0  0  0  0  0  0  0  0
  145.6810   73.7460  218.2160 H   0  0  0  0  0  0  0  0  0  0  0  0
  146.9860   74.0900  219.2570 H   0  0  0  0  0  0  0  0  0  0  0  0
  142.3306   73.0188  220.8542 H   0  0  0  0  0  0  0  0  0  0  0  0
  140.4802   74.6236  220.5841 H   0  0  0  0  0  0  0  0  0  0  0  0
  140.9221   78.2656  219.7027 H   0  0  0  0  0  0  0  0  0  0  0  0
  138.9736   76.7231  218.5743 H   0  0  0  0  0  0  0  0  0  0  0  0
  136.8658   73.2937  221.6274 H   0  0  0  0  0  0  0  0  0  0  0  0
  135.3183   72.9300  223.5398 H   0  0  0  0  0  0  0  0  0  0  0  0
  135.6784   77.0747  224.5204 H   0  0  0  0  0  0  0  0  0  0  0  0
  138.8026   79.3029  220.1024 H   0  0  0  0  0  0  0  0  0  0  0  0
  138.0840   79.9347  221.6717 H   0  0  0  0  0  0  0  0  0  0  0  0
  140.8919   79.4361  220.9714 H   0  0  0  0  0  0  0  0  0  0  0  0
  139.4888   78.1125  223.3154 H   0  0  0  0  0  0  0  0  0  0  0  0
  140.7329   77.4415  222.1806 H   0  0  0  0  0  0  0  0  0  0  0  0
  141.0466   78.9861  224.6711 H   0  0  0  0  0  0  0  0  0  0  0  0
  142.1628   77.8245  223.8164 H   0  0  0  0  0  0  0  0  0  0  0  0
  143.1184   80.0716  223.9884 H   0  0  0  0  0  0  0  0  0  0  0  0
  142.8124   79.5425  222.2716 H   0  0  0  0  0  0  0  0  0  0  0  0
  141.4378   81.6338  223.9135 H   0  0  0  0  0  0  0  0  0  0  0  0
  142.1200   81.6945  222.2293 H   0  0  0  0  0  0  0  0  0  0  0  0
  139.4504   80.8488  223.1898 H   0  0  0  0  0  0  0  0  0  0  0  0
  139.9972   81.5361  221.5967 H   0  0  0  0  0  0  0  0  0  0  0  0
  143.2308   77.5839  219.2282 H   0  0  0  0  0  0  0  0  0  0  0  0
  145.0978   76.0271  219.4790 H   0  0  0  0  0  0  0  0  0  0  0  0
  1  2  1  0
  2  3  2  0
  2  4  2  0
  2  5  1  0
  5  6  2  0
  6  7  1  0
  7  8  2  0
  8  9  1  0
  9 10  2  0
 10 11  1  0
 11 12  2  0
 12 13  1  0
 13 14  2  0
 14 15  1  0
 15 16  2  0
 16 17  1  0
 16 18  1  0
 18 19  2  0
 19 20  1  0
 20 21  2  0
 20 22  1  0
 22 23  1  0
 23 24  1  0
 24 25  1  0
 25 26  1  0
 26 27  1  0
 27 28  1  0
 28 29  1  0
  8 30  1  0
 30 31  2  0
 31  5  1  0
 22 11  1  0
 29 24  1  0
 19 13  1  0
  1 32  1  0
  1 33  1  0
  6 34  1  0
  7 35  1  0
  9 36  1  0
 10 37  1  0
 14 38  1  0
 15 39  1  0
 18 40  1  0
 23 41  1  0
 23 42  1  0
 24 43  1  0
 25 44  1  0
 25 45  1  0
 26 46  1  0
 26 47  1  0
 27 48  1  0
 27 49  1  0
 28 50  1  0
 28 51  1  0
 29 52  1  0
 29 53  1  0
 30 54  1  0
 31 55  1  0
M  END
>  <smiles>  (20) 
NS(=O)(=O)c1ccc(/C=C/c2nc3ccc(Cl)cc3c(=O)n2CC2CCCCC2)cc1

>  <score_type>  (20) 
oracle

>  <origin>  (20) 
autodockgpu

>  <m_score__min__energy>  (20) 
-9.4900000000000002

>  <m_primary>  (20) 
energy

>  <rmsd>  (20) 
6.827122440727626

>  <m_score__min__rmsd>  (20) 
6.827122440727626

>  <meeko>  (20) 
{"free_energy": -7.9, "intermolecular_energy": -9.99, "internal_energy": -1.61, "cluster_size": 4, "cluster_id": 8, "rank_in_cluster": 3}

>  <energy>  (20) 
-8.47

>  <cluster_rmsd>  (20) 
0.77

>  <cluster>  (20) 
2

$$$$

     RDKit          3D

 55 58  0  0  0  0  0  0  0  0999 V2000
  139.2150   67.2420  226.2750 N   0  0  0  0  0  0  0  0  0  0  0  0
  140.3360   68.5280  226.6190 S   0  0  0  0  0  0  0  0  0  0  0  0
  140.0820   69.1140  227.9710 O   0  0  0  0  0  0  0  0  0  0  0  0
  141.7540   68.0070  226.5860 O   0  0  0  0  0  0  0  0  0  0  0  0
  140.2020   69.7390  225.3570 C   0  0  0  0  0  0  0  0  0  0  0  0
  139.4590   69.4510  224.2190 C   0  0  0  0  0  0  0  0  0  0  0  0
  139.3450   70.3960  223.2170 C   0  0  0  0  0  0  0  0  0  0  0  0
  139.9460   71.6340  223.2990 C   0  0  0  0  0  0  0  0  0  0  0  0
  139.8430   72.6500  222.2600 C   0  0  0  0  0  0  0  0  0  0  0  0
  140.8160   73.0090  221.4640 C   0  0  0  0  0  0  0  0  0  0  0  0
  141.1000   74.4320  221.1800 C   0  0  0  0  0  0  0  0  0  0  0  0
  140.5570   75.3120  222.0390 N   0  0  0  0  0  0  0  0  0  0  0  0
  140.7370   76.6320  221.8930 C   0  0  0  0  0  0  0  0  0  0  0  0
  140.1830   77.5440  222.7680 C   0  0  0  0  0  0  0  0  0  0  0  0
  140.3760   78.9080  222.6060 C   0  0  0  0  0  0  0  0  0  0  0  0
  141.1330   79.3400  221.5500 C   0  0  0  0  0  0  0  0  0  0  0  0
  141.3780   81.0760  221.3440 Cl  0  0  0  0  0  0  0  0  0  0  0  0
  141.6770   78.4160  220.6870 C   0  0  0  0  0  0  0  0  0  0  0  0
  141.5000   77.0570  220.8270 C   0  0  0  0  0  0  0  0  0  0  0  0
  142.0440   76.1270  219.9650 C   0  0  0  0  0  0  0  0  0  0  0  0
  142.7330   76.5870  219.0120 O   0  0  0  0  0  0  0  0  0  0  0  0
  141.8540   74.7890  220.1240 N   0  0  0  0  0  0  0  0  0  0  0  0
  142.4100   73.8230  219.2200 C   0  0  0  0  0  0  0  0  0  0  0  0
  143.8720   73.5270  219.4270 C   0  0  0  0  0  0  0  0  0  0  0  0
  144.0820   72.0620  219.0890 C   0  0  0  0  0  0  0  0  0  0  0  0
  145.3550   71.5260  219.6990 C   0  0  0  0  0  0  0  0  0  0  0  0
  146.3260   72.6160  220.0960 C   0  0  0  0  0  0  0  0  0  0  0  0
  145.7470   73.5810  221.0790 C   0  0  0  0  0  0  0  0  0  0  0  0
  144.2770   73.8590  220.8190 C   0  0  0  0  0  0  0  0  0  0  0  0
  140.6790   71.8810  224.4530 C   0  0  0  0  0  0  0  0  0  0  0  0
  140.8180   70.9770  225.4680 C   0  0  0  0  0  0  0  0  0  0  0  0
  139.3080   66.9980  225.2690 H   0  0  0  0  0  0  0  0  0  0  0  0
  139.4390   66.4030  226.8610 H   0  0  0  0  0  0  0  0  0  0  0  0
  138.9633   68.4745  224.1158 H   0  0  0  0  0  0  0  0  0  0  0  0
  138.7537   70.1517  222.3222 H   0  0  0  0  0  0  0  0  0  0  0  0
  138.8728   73.1533  222.1358 H   0  0  0  0  0  0  0  0  0  0  0  0
  141.4386   72.2334  220.9941 H   0  0  0  0  0  0  0  0  0  0  0  0
  139.5761   77.1820  223.6110 H   0  0  0  0  0  0  0  0  0  0  0  0
  139.9309   79.6265  223.3101 H   0  0  0  0  0  0  0  0  0  0  0  0
  142.2827   78.7805  219.8443 H   0  0  0  0  0  0  0  0  0  0  0  0
  141.8512   72.8830  219.3387 H   0  0  0  0  0  0  0  0  0  0  0  0
  142.3234   74.2577  218.2133 H   0  0  0  0  0  0  0  0  0  0  0  0
  144.5066   74.1447  218.7746 H   0  0  0  0  0  0  0  0  0  0  0  0
  143.2303   71.4816  219.4735 H   0  0  0  0  0  0  0  0  0  0  0  0
  144.1598   71.9697  217.9957 H   0  0  0  0  0  0  0  0  0  0  0  0
  145.0958   70.9441  220.5958 H   0  0  0  0  0  0  0  0  0  0  0  0
  145.8498   70.9071  218.9360 H   0  0  0  0  0  0  0  0  0  0  0  0
  147.2144   72.1481  220.5452 H   0  0  0  0  0  0  0  0  0  0  0  0
  146.5768   73.1818  219.1866 H   0  0  0  0  0  0  0  0  0  0  0  0
  145.8539   73.1621  222.0905 H   0  0  0  0  0  0  0  0  0  0  0  0
  146.2915   74.5313  220.9771 H   0  0  0  0  0  0  0  0  0  0  0  0
  143.6755   73.2557  221.5148 H   0  0  0  0  0  0  0  0  0  0  0  0
  144.1091   74.9358  220.9681 H   0  0  0  0  0  0  0  0  0  0  0  0
  141.1746   72.8577  224.5551 H   0  0  0  0  0  0  0  0  0  0  0  0
  141.4100   71.2273  226.3607 H   0  0  0  0  0  0  0  0  0  0  0  0
  1  2  1  0
  2  3  2  0
  2  4  2  0
  2  5  1  0
  5  6  2  0
  6  7  1  0
  7  8  2  0
  8  9  1  0
  9 10  2  0
 10 11  1  0
 11 12  2  0
 12 13  1  0
 13 14  2  0
 14 15  1  0
 15 16  2  0
 16 17  1  0
 16 18  1  0
 18 19  2  0
 19 20  1  0
 20 21  2  0
 20 22  1  0
 22 23  1  0
 23 24  1  0
 24 25  1  0
 25 26  1  0
 26 27  1  0
 27 28  1  0
 28 29  1  0
  8 30  1  0
 30 31  2  0
 31  5  1  0
 22 11  1  0
 29 24  1  0
 19 13  1  0
  1 32  1  0
  1 33  1  0
  6 34  1  0
  7 35  1  0
  9 36  1  0
 10 37  1  0
 14 38  1  0
 15 39  1  0
 18 40  1  0
 23 41  1  0
 23 42  1  0
 24 43  1  0
 25 44  1  0
 25 45  1  0
 26 46  1  0
 26 47  1  0
 27 48  1  0
 27 49  1  0
 28 50  1  0
 28 51  1  0
 29 52  1  0
 29 53  1  0
 30 54  1  0
 31 55  1  0
M  END
>  <smiles>  (21) 
NS(=O)(=O)c1ccc(/C=C/c2nc3ccc(Cl)cc3c(=O)n2CC2CCCCC2)cc1

>  <score_type>  (21) 
oracle

>  <origin>  (21) 
autodockgpu

>  <m_score__min__energy>  (21) 
-9.4900000000000002

>  <m_primary>  (21) 
energy

>  <rmsd>  (21) 
5.635408158432318

>  <m_score__min__rmsd>  (21) 
5.635408158432318

>  <meeko>  (21) 
{"free_energy": -9.34, "intermolecular_energy": -11.43, "internal_energy": -1.37, "cluster_size": 12, "cluster_id": 1, "rank_in_cluster": 4}

>  <energy>  (21) 
-8.45

>  <cluster_rmsd>  (21) 
0.68

>  <cluster>  (21) 
2

$$$$

     RDKit          3D

 55 58  0  0  0  0  0  0  0  0999 V2000
  145.8300   73.3990  217.9850 N   0  0  0  0  0  0  0  0  0  0  0  0
  145.7950   72.8500  219.6360 S   0  0  0  0  0  0  0  0  0  0  0  0
  146.3180   71.4530  219.7500 O   0  0  0  0  0  0  0  0  0  0  0  0
  146.6480   73.7480  220.5020 O   0  0  0  0  0  0  0  0  0  0  0  0
  144.1490   72.9720  220.2310 C   0  0  0  0  0  0  0  0  0  0  0  0
  143.5540   74.2240  220.3210 C   0  0  0  0  0  0  0  0  0  0  0  0
  142.2570   74.3350  220.7880 C   0  0  0  0  0  0  0  0  0  0  0  0
  141.5160   73.2390  221.1740 C   0  0  0  0  0  0  0  0  0  0  0  0
  140.1490   73.3250  221.6680 C   0  0  0  0  0  0  0  0  0  0  0  0
  139.3380   72.3100  221.8060 C   0  0  0  0  0  0  0  0  0  0  0  0
  139.4800   71.3500  222.9230 C   0  0  0  0  0  0  0  0  0  0  0  0
  140.0770   71.8320  224.0260 N   0  0  0  0  0  0  0  0  0  0  0  0
  140.2680   71.0650  225.1080 C   0  0  0  0  0  0  0  0  0  0  0  0
  140.8800   71.5490  226.2460 C   0  0  0  0  0  0  0  0  0  0  0  0
  141.0740   70.7460  227.3590 C   0  0  0  0  0  0  0  0  0  0  0  0
  140.6430   69.4460  227.3100 C   0  0  0  0  0  0  0  0  0  0  0  0
  140.8890   68.4220  228.7270 Cl  0  0  0  0  0  0  0  0  0  0  0  0
  140.0340   68.9800  226.1670 C   0  0  0  0  0  0  0  0  0  0  0  0
  139.8310   69.7590  225.0490 C   0  0  0  0  0  0  0  0  0  0  0  0
  139.2220   69.2960  223.9010 C   0  0  0  0  0  0  0  0  0  0  0  0
  138.8450   68.0910  223.9170 O   0  0  0  0  0  0  0  0  0  0  0  0
  139.0330   70.0860  222.8080 N   0  0  0  0  0  0  0  0  0  0  0  0
  138.4100   69.6000  221.6100 C   0  0  0  0  0  0  0  0  0  0  0  0
  139.1830   68.5330  220.8810 C   0  0  0  0  0  0  0  0  0  0  0  0
  140.4290   69.1920  220.3160 C   0  0  0  0  0  0  0  0  0  0  0  0
  141.0260   68.3830  219.1900 C   0  0  0  0  0  0  0  0  0  0  0  0
  140.5560   66.9450  219.1790 C   0  0  0  0  0  0  0  0  0  0  0  0
  139.0710   66.8190  219.0640 C   0  0  0  0  0  0  0  0  0  0  0  0
  138.3380   67.9060  219.8290 C   0  0  0  0  0  0  0  0  0  0  0  0
  142.1490   72.0070  221.0670 C   0  0  0  0  0  0  0  0  0  0  0  0
  143.4280   71.8510  220.6120 C   0  0  0  0  0  0  0  0  0  0  0  0
  145.0460   72.9430  217.4800 H   0  0  0  0  0  0  0  0  0  0  0  0
  145.7140   74.4390  217.9490 H   0  0  0  0  0  0  0  0  0  0  0  0
  144.1122   75.1235  220.0220 H   0  0  0  0  0  0  0  0  0  0  0  0
  141.8006   75.3337  220.8537 H   0  0  0  0  0  0  0  0  0  0  0  0
  139.7705   74.3197  221.9460 H   0  0  0  0  0  0  0  0  0  0  0  0
  138.5298   72.1656  221.0739 H   0  0  0  0  0  0  0  0  0  0  0  0
  141.2212   72.5945  226.2705 H   0  0  0  0  0  0  0  0  0  0  0  0
  141.5627   71.1431  228.2609 H   0  0  0  0  0  0  0  0  0  0  0  0
  139.6927   67.9345  226.1451 H   0  0  0  0  0  0  0  0  0  0  0  0
  137.4273   69.1859  221.8798 H   0  0  0  0  0  0  0  0  0  0  0  0
  138.3478   70.4583  220.9248 H   0  0  0  0  0  0  0  0  0  0  0  0
  139.4785   67.7157  221.5553 H   0  0  0  0  0  0  0  0  0  0  0  0
  140.1638   70.1898  219.9365 H   0  0  0  0  0  0  0  0  0  0  0  0
  141.1752   69.2623  221.1212 H   0  0  0  0  0  0  0  0  0  0  0  0
  140.7443   68.8508  218.2351 H   0  0  0  0  0  0  0  0  0  0  0  0
  142.1161   68.3709  219.3367 H   0  0  0  0  0  0  0  0  0  0  0  0
  141.0191   66.4310  218.3238 H   0  0  0  0  0  0  0  0  0  0  0  0
  140.8522   66.4937  220.1374 H   0  0  0  0  0  0  0  0  0  0  0  0
  138.7919   66.8847  218.0020 H   0  0  0  0  0  0  0  0  0  0  0  0
  138.7817   65.8501  219.4971 H   0  0  0  0  0  0  0  0  0  0  0  0
  138.0227   68.6851  219.1193 H   0  0  0  0  0  0  0  0  0  0  0  0
  137.4758   67.4394  220.3278 H   0  0  0  0  0  0  0  0  0  0  0  0
  141.5899   71.1077  221.3649 H   0  0  0  0  0  0  0  0  0  0  0  0
  143.8792   70.8498  220.5489 H   0  0  0  0  0  0  0  0  0  0  0  0
  1  2  1  0
  2  3  2  0
  2  4  2  0
  2  5  1  0
  5  6  2  0
  6  7  1  0
  7  8  2  0
  8  9  1  0
  9 10  2  0
 10 11  1  0
 11 12  2  0
 12 13  1  0
 13 14  2  0
 14 15  1  0
 15 16  2  0
 16 17  1  0
 16 18  1  0
 18 19  2  0
 19 20  1  0
 20 21  2  0
 20 22  1  0
 22 23  1  0
 23 24  1  0
 24 25  1  0
 25 26  1  0
 26 27  1  0
 27 28  1  0
 28 29  1  0
  8 30  1  0
 30 31  2  0
 31  5  1  0
 22 11  1  0
 29 24  1  0
 19 13  1  0
  1 32  1  0
  1 33  1  0
  6 34  1  0
  7 35  1  0
  9 36  1  0
 10 37  1  0
 14 38  1  0
 15 39  1  0
 18 40  1  0
 23 41  1  0
 23 42  1  0
 24 43  1  0
 25 44  1  0
 25 45  1  0
 26 46  1  0
 26 47  1  0
 27 48  1  0
 27 49  1  0
 28 50  1  0
 28 51  1  0
 29 52  1  0
 29 53  1  0
 30 54  1  0
 31 55  1  0
M  END
>  <smiles>  (22) 
NS(=O)(=O)c1ccc(/C=C/c2nc3ccc(Cl)cc3c(=O)n2CC2CCCCC2)cc1

>  <score_type>  (22) 
oracle

>  <origin>  (22) 
autodockgpu

>  <m_score__min__energy>  (22) 
-9.4900000000000002

>  <m_primary>  (22) 
energy

>  <rmsd>  (22) 
10.338279812102641

>  <m_score__min__rmsd>  (22) 
10.338279812102641

>  <meeko>  (22) 
{"free_energy": -8.69, "intermolecular_energy": -10.78, "internal_energy": -1.74, "cluster_size": 15, "cluster_id": 2, "rank_in_cluster": 5}

>  <energy>  (22) 
-8.17

>  <cluster_rmsd>  (22) 
0.63

>  <cluster>  (22) 
2

$$$$

     RDKit          3D

 55 58  0  0  0  0  0  0  0  0999 V2000
  146.3250   73.4510  219.0640 N   0  0  0  0  0  0  0  0  0  0  0  0
  145.2630   73.1820  220.4170 S   0  0  0  0  0  0  0  0  0  0  0  0
  144.7850   71.7660  220.4510 O   0  0  0  0  0  0  0  0  0  0  0  0
  145.9850   73.4720  221.7120 O   0  0  0  0  0  0  0  0  0  0  0  0
  143.9240   74.3120  220.3090 C   0  0  0  0  0  0  0  0  0  0  0  0
  142.6860   73.9440  220.8210 C   0  0  0  0  0  0  0  0  0  0  0  0
  141.6230   74.8250  220.7430 C   0  0  0  0  0  0  0  0  0  0  0  0
  141.7400   76.0730  220.1710 C   0  0  0  0  0  0  0  0  0  0  0  0
  140.6390   77.0210  220.0750 C   0  0  0  0  0  0  0  0  0  0  0  0
  139.3840   76.6970  219.9110 C   0  0  0  0  0  0  0  0  0  0  0  0
  138.4340   76.6760  221.0450 C   0  0  0  0  0  0  0  0  0  0  0  0
  137.8960   75.4770  221.3250 N   0  0  0  0  0  0  0  0  0  0  0  0
  137.0200   75.3210  222.3260 C   0  0  0  0  0  0  0  0  0  0  0  0
  136.4610   74.0940  222.6220 C   0  0  0  0  0  0  0  0  0  0  0  0
  135.5550   73.9460  223.6610 C   0  0  0  0  0  0  0  0  0  0  0  0
  135.2180   75.0510  224.3980 C   0  0  0  0  0  0  0  0  0  0  0  0
  134.0640   74.8620  225.7200 Cl  0  0  0  0  0  0  0  0  0  0  0  0
  135.7850   76.2670  224.0880 C   0  0  0  0  0  0  0  0  0  0  0  0
  136.6870   76.4380  223.0620 C   0  0  0  0  0  0  0  0  0  0  0  0
  137.2580   77.6550  222.7480 C   0  0  0  0  0  0  0  0  0  0  0  0
  136.9100   78.6350  223.4630 O   0  0  0  0  0  0  0  0  0  0  0  0
  138.1480   77.7990  221.7280 N   0  0  0  0  0  0  0  0  0  0  0  0
  138.7320   79.0670  221.3940 C   0  0  0  0  0  0  0  0  0  0  0  0
  139.8680   79.4970  222.2850 C   0  0  0  0  0  0  0  0  0  0  0  0
  140.8270   80.3010  221.4260 C   0  0  0  0  0  0  0  0  0  0  0  0
  142.2020   80.3760  222.0470 C   0  0  0  0  0  0  0  0  0  0  0  0
  142.2030   80.0550  223.5250 C   0  0  0  0  0  0  0  0  0  0  0  0
  141.6650   78.6920  223.8250 C   0  0  0  0  0  0  0  0  0  0  0  0
  140.5130   78.3120  222.9120 C   0  0  0  0  0  0  0  0  0  0  0  0
  142.9950   76.4000  219.6730 C   0  0  0  0  0  0  0  0  0  0  0  0
  144.0720   75.5620  219.7280 C   0  0  0  0  0  0  0  0  0  0  0  0
  145.7570   73.8320  218.2820 H   0  0  0  0  0  0  0  0  0  0  0  0
  147.0710   74.1390  219.3230 H   0  0  0  0  0  0  0  0  0  0  0  0
  142.5520   72.9563  221.2863 H   0  0  0  0  0  0  0  0  0  0  0  0
  140.6491   74.5185  221.1523 H   0  0  0  0  0  0  0  0  0  0  0  0
  140.8824   78.0914  220.1459 H   0  0  0  0  0  0  0  0  0  0  0  0
  139.0249   76.4334  218.9052 H   0  0  0  0  0  0  0  0  0  0  0  0
  136.7401   73.2158  222.0213 H   0  0  0  0  0  0  0  0  0  0  0  0
  135.1164   72.9633  223.8887 H   0  0  0  0  0  0  0  0  0  0  0  0
  135.5037   77.1442  224.6892 H   0  0  0  0  0  0  0  0  0  0  0  0
  139.1102   79.0079  220.3628 H   0  0  0  0  0  0  0  0  0  0  0  0
  137.9373   79.8163  221.5243 H   0  0  0  0  0  0  0  0  0  0  0  0
  139.5155   80.1224  223.1184 H   0  0  0  0  0  0  0  0  0  0  0  0
  140.9072   79.8236  220.4382 H   0  0  0  0  0  0  0  0  0  0  0  0
  140.4336   81.3244  221.3375 H   0  0  0  0  0  0  0  0  0  0  0  0
  142.8583   79.6587  221.5324 H   0  0  0  0  0  0  0  0  0  0  0  0
  142.5565   81.4113  221.9356 H   0  0  0  0  0  0  0  0  0  0  0  0
  143.2368   80.1138  223.8962 H   0  0  0  0  0  0  0  0  0  0  0  0
  141.5475   80.7853  224.0218 H   0  0  0  0  0  0  0  0  0  0  0  0
  142.4736   77.9571  223.6984 H   0  0  0  0  0  0  0  0  0  0  0  0
  141.2865   78.7001  224.8578 H   0  0  0  0  0  0  0  0  0  0  0  0
  140.8953   77.6561  222.1160 H   0  0  0  0  0  0  0  0  0  0  0  0
  139.7542   77.8039  223.5252 H   0  0  0  0  0  0  0  0  0  0  0  0
  143.1286   77.3883  219.2088 H   0  0  0  0  0  0  0  0  0  0  0  0
  145.0433   75.8745  219.3170 H   0  0  0  0  0  0  0  0  0  0  0  0
  1  2  1  0
  2  3  2  0
  2  4  2  0
  2  5  1  0
  5  6  2  0
  6  7  1  0
  7  8  2  0
  8  9  1  0
  9 10  2  0
 10 11  1  0
 11 12  2  0
 12 13  1  0
 13 14  2  0
 14 15  1  0
 15 16  2  0
 16 17  1  0
 16 18  1  0
 18 19  2  0
 19 20  1  0
 20 21  2  0
 20 22  1  0
 22 23  1  0
 23 24  1  0
 24 25  1  0
 25 26  1  0
 26 27  1  0
 27 28  1  0
 28 29  1  0
  8 30  1  0
 30 31  2  0
 31  5  1  0
 22 11  1  0
 29 24  1  0
 19 13  1  0
  1 32  1  0
  1 33  1  0
  6 34  1  0
  7 35  1  0
  9 36  1  0
 10 37  1  0
 14 38  1  0
 15 39  1  0
 18 40  1  0
 23 41  1  0
 23 42  1  0
 24 43  1  0
 25 44  1  0
 25 45  1  0
 26 46  1  0
 26 47  1  0
 27 48  1  0
 27 49  1  0
 28 50  1  0
 28 51  1  0
 29 52  1  0
 29 53  1  0
 30 54  1  0
 31 55  1  0
M  END
>  <smiles>  (23) 
NS(=O)(=O)c1ccc(/C=C/c2nc3ccc(Cl)cc3c(=O)n2CC2CCCCC2)cc1

>  <score_type>  (23) 
oracle

>  <origin>  (23) 
autodockgpu

>  <m_score__min__energy>  (23) 
-9.4900000000000002

>  <m_primary>  (23) 
energy

>  <rmsd>  (23) 
6.917901050543207

>  <m_score__min__rmsd>  (23) 
6.917901050543207

>  <meeko>  (23) 
{"free_energy": -8.14, "intermolecular_energy": -10.23, "internal_energy": -1.72, "cluster_size": 4, "cluster_id": 8, "rank_in_cluster": 1}

>  <energy>  (23) 
-8.17

>  <cluster_rmsd>  (23) 
0.79

>  <cluster>  (23) 
2

$$$$

     RDKit          3D

 55 58  0  0  0  0  0  0  0  0999 V2000
  146.3490   74.0440  220.7050 N   0  0  0  0  0  0  0  0  0  0  0  0
  145.6860   72.9120  219.5600 S   0  0  0  0  0  0  0  0  0  0  0  0
  145.9120   73.3740  218.1560 O   0  0  0  0  0  0  0  0  0  0  0  0
  146.3400   71.5600  219.7270 O   0  0  0  0  0  0  0  0  0  0  0  0
  143.9780   72.7050  219.9040 C   0  0  0  0  0  0  0  0  0  0  0  0
  143.0480   73.4380  219.1770 C   0  0  0  0  0  0  0  0  0  0  0  0
  141.6990   73.2840  219.4370 C   0  0  0  0  0  0  0  0  0  0  0  0
  141.2280   72.4200  220.4030 C   0  0  0  0  0  0  0  0  0  0  0  0
  139.8140   72.2370  220.6980 C   0  0  0  0  0  0  0  0  0  0  0  0
  139.2610   72.4350  221.8660 C   0  0  0  0  0  0  0  0  0  0  0  0
  139.4130   71.4630  222.9700 C   0  0  0  0  0  0  0  0  0  0  0  0
  140.1350   71.8890  224.0200 N   0  0  0  0  0  0  0  0  0  0  0  0
  140.3500   71.1050  225.0850 C   0  0  0  0  0  0  0  0  0  0  0  0
  141.0900   71.5330  226.1680 C   0  0  0  0  0  0  0  0  0  0  0  0
  141.3050   70.7130  227.2650 C   0  0  0  0  0  0  0  0  0  0  0  0
  140.7650   69.4540  227.2550 C   0  0  0  0  0  0  0  0  0  0  0  0
  141.0390   68.4080  228.6510 Cl  0  0  0  0  0  0  0  0  0  0  0  0
  140.0290   69.0430  226.1660 C   0  0  0  0  0  0  0  0  0  0  0  0
  139.8020   69.8410  225.0660 C   0  0  0  0  0  0  0  0  0  0  0  0
  139.0650   69.4340  223.9730 C   0  0  0  0  0  0  0  0  0  0  0  0
  138.5920   68.2650  224.0230 O   0  0  0  0  0  0  0  0  0  0  0  0
  138.8550   70.2400  222.8970 N   0  0  0  0  0  0  0  0  0  0  0  0
  138.0980   69.8130  221.7540 C   0  0  0  0  0  0  0  0  0  0  0  0
  138.8060   68.8320  220.8560 C   0  0  0  0  0  0  0  0  0  0  0  0
  138.4710   67.4410  221.3640 C   0  0  0  0  0  0  0  0  0  0  0  0
  139.4670   66.4150  220.8780 C   0  0  0  0  0  0  0  0  0  0  0  0
  140.2640   66.8840  219.6810 C   0  0  0  0  0  0  0  0  0  0  0  0
  141.0290   68.1400  219.9470 C   0  0  0  0  0  0  0  0  0  0  0  0
  140.2690   69.1020  220.8420 C   0  0  0  0  0  0  0  0  0  0  0  0
  142.1920   71.7070  221.1040 C   0  0  0  0  0  0  0  0  0  0  0  0
  143.5340   71.8270  220.8810 C   0  0  0  0  0  0  0  0  0  0  0  0
  146.6810   74.8750  220.1780 H   0  0  0  0  0  0  0  0  0  0  0  0
  145.6130   74.3350  221.3910 H   0  0  0  0  0  0  0  0  0  0  0  0
  143.3838   74.1380  218.3977 H   0  0  0  0  0  0  0  0  0  0  0  0
  140.9757   73.8715  218.8525 H   0  0  0  0  0  0  0  0  0  0  0  0
  139.1617   71.9072  219.8760 H   0  0  0  0  0  0  0  0  0  0  0  0
  138.6683   73.3467  222.0315 H   0  0  0  0  0  0  0  0  0  0  0  0
  141.5184   72.5461  226.1609 H   0  0  0  0  0  0  0  0  0  0  0  0
  141.8955   71.0652  228.1236 H   0  0  0  0  0  0  0  0  0  0  0  0
  139.6020   68.0293  226.1748 H   0  0  0  0  0  0  0  0  0  0  0  0
  137.1723   69.3404  222.1141 H   0  0  0  0  0  0  0  0  0  0  0  0
  137.9192   70.7134  221.1479 H   0  0  0  0  0  0  0  0  0  0  0  0
  138.4740   68.9268  219.8116 H   0  0  0  0  0  0  0  0  0  0  0  0
  138.4779   67.4517  222.4639 H   0  0  0  0  0  0  0  0  0  0  0  0
  137.4782   67.1648  220.9792 H   0  0  0  0  0  0  0  0  0  0  0  0
  140.1654   66.1893  221.6973 H   0  0  0  0  0  0  0  0  0  0  0  0
  138.8980   65.5267  220.5662 H   0  0  0  0  0  0  0  0  0  0  0  0
  140.9750   66.0927  219.4009 H   0  0  0  0  0  0  0  0  0  0  0  0
  139.5497   67.0978  218.8723 H   0  0  0  0  0  0  0  0  0  0  0  0
  141.9789   67.8782  220.4360 H   0  0  0  0  0  0  0  0  0  0  0  0
  141.1969   68.6411  218.9823 H   0  0  0  0  0  0  0  0  0  0  0  0
  140.6547   69.0089  221.8679 H   0  0  0  0  0  0  0  0  0  0  0  0
  140.4178   70.1168  220.4445 H   0  0  0  0  0  0  0  0  0  0  0  0
  141.8557   71.0064  221.8825 H   0  0  0  0  0  0  0  0  0  0  0  0
  144.2522   71.2357  221.4679 H   0  0  0  0  0  0  0  0  0  0  0  0
  1  2  1  0
  2  3  2  0
  2  4  2  0
  2  5  1  0
  5  6  2  0
  6  7  1  0
  7  8  2  0
  8  9  1  0
  9 10  2  0
 10 11  1  0
 11 12  2  0
 12 13  1  0
 13 14  2  0
 14 15  1  0
 15 16  2  0
 16 17  1  0
 16 18  1  0
 18 19  2  0
 19 20  1  0
 20 21  2  0
 20 22  1  0
 22 23  1  0
 23 24  1  0
 24 25  1  0
 25 26  1  0
 26 27  1  0
 27 28  1  0
 28 29  1  0
  8 30  1  0
 30 31  2  0
 31  5  1  0
 22 11  1  0
 29 24  1  0
 19 13  1  0
  1 32  1  0
  1 33  1  0
  6 34  1  0
  7 35  1  0
  9 36  1  0
 10 37  1  0
 14 38  1  0
 15 39  1  0
 18 40  1  0
 23 41  1  0
 23 42  1  0
 24 43  1  0
 25 44  1  0
 25 45  1  0
 26 46  1  0
 26 47  1  0
 27 48  1  0
 27 49  1  0
 28 50  1  0
 28 51  1  0
 29 52  1  0
 29 53  1  0
 30 54  1  0
 31 55  1  0
M  END
>  <smiles>  (24) 
NS(=O)(=O)c1ccc(/C=C/c2nc3ccc(Cl)cc3c(=O)n2CC2CCCCC2)cc1

>  <score_type>  (24) 
oracle

>  <origin>  (24) 
autodockgpu

>  <m_score__min__energy>  (24) 
-9.4900000000000002

>  <m_primary>  (24) 
energy

>  <rmsd>  (24) 
10.864795784801252

>  <m_score__min__rmsd>  (24) 
10.864795784801252

>  <meeko>  (24) 
{"free_energy": -7.99, "intermolecular_energy": -10.08, "internal_energy": -1.8, "cluster_size": 15, "cluster_id": 2, "rank_in_cluster": 14}

>  <energy>  (24) 
-8.12

>  <cluster_rmsd>  (24) 
0.74

>  <cluster>  (24) 
2

$$$$

     RDKit          3D

 55 58  0  0  0  0  0  0  0  0999 V2000
  142.2050   78.6340  221.3190 N   0  0  0  0  0  0  0  0  0  0  0  0
  141.0780   78.3550  222.6170 S   0  0  0  0  0  0  0  0  0  0  0  0
  141.7630   78.4080  223.9440 O   0  0  0  0  0  0  0  0  0  0  0  0
  139.9930   79.4070  222.6000 O   0  0  0  0  0  0  0  0  0  0  0  0
  140.2970   76.8060  222.3560 C   0  0  0  0  0  0  0  0  0  0  0  0
  138.9270   76.6950  222.5620 C   0  0  0  0  0  0  0  0  0  0  0  0
  138.2990   75.4800  222.3600 C   0  0  0  0  0  0  0  0  0  0  0  0
  138.9840   74.3540  221.9540 C   0  0  0  0  0  0  0  0  0  0  0  0
  138.3500   73.0630  221.7330 C   0  0  0  0  0  0  0  0  0  0  0  0
  138.9840   71.9240  221.6320 C   0  0  0  0  0  0  0  0  0  0  0  0
  139.1970   71.0490  222.8050 C   0  0  0  0  0  0  0  0  0  0  0  0
  139.8640   71.6070  223.8290 N   0  0  0  0  0  0  0  0  0  0  0  0
  140.1240   70.9200  224.9500 C   0  0  0  0  0  0  0  0  0  0  0  0
  140.8090   71.4840  226.0070 C   0  0  0  0  0  0  0  0  0  0  0  0
  141.0730   70.7640  227.1620 C   0  0  0  0  0  0  0  0  0  0  0  0
  140.6380   69.4660  227.2380 C   0  0  0  0  0  0  0  0  0  0  0  0
  140.9730   68.5490  228.7080 Cl  0  0  0  0  0  0  0  0  0  0  0  0
  139.9560   68.9210  226.1730 C   0  0  0  0  0  0  0  0  0  0  0  0
  139.6820   69.6170  225.0160 C   0  0  0  0  0  0  0  0  0  0  0  0
  139.0000   69.0740  223.9470 C   0  0  0  0  0  0  0  0  0  0  0  0
  138.6230   67.8760  224.0760 O   0  0  0  0  0  0  0  0  0  0  0  0
  138.7420   69.7820  222.8130 N   0  0  0  0  0  0  0  0  0  0  0  0
  138.0430   69.2130  221.6970 C   0  0  0  0  0  0  0  0  0  0  0  0
  138.8830   68.3450  220.7970 C   0  0  0  0  0  0  0  0  0  0  0  0
  138.8360   66.9380  221.3660 C   0  0  0  0  0  0  0  0  0  0  0  0
  139.9850   66.0960  220.8660 C   0  0  0  0  0  0  0  0  0  0  0  0
  140.6290   66.6550  219.6160 C   0  0  0  0  0  0  0  0  0  0  0  0
  141.1560   68.0410  219.8030 C   0  0  0  0  0  0  0  0  0  0  0  0
  140.2670   68.8810  220.7030 C   0  0  0  0  0  0  0  0  0  0  0  0
  140.3510   74.5100  221.7590 C   0  0  0  0  0  0  0  0  0  0  0  0
  141.0120   75.6900  221.9460 C   0  0  0  0  0  0  0  0  0  0  0  0
  142.8500   79.3920  221.6140 H   0  0  0  0  0  0  0  0  0  0  0  0
  142.7520   77.7620  221.1250 H   0  0  0  0  0  0  0  0  0  0  0  0
  138.3445   77.5706  222.8846 H   0  0  0  0  0  0  0  0  0  0  0  0
  137.2144   75.4089  222.5291 H   0  0  0  0  0  0  0  0  0  0  0  0
  137.2538   73.0439  221.6441 H   0  0  0  0  0  0  0  0  0  0  0  0
  139.3683   71.6089  220.6507 H   0  0  0  0  0  0  0  0  0  0  0  0
  141.1526   72.5262  225.9316 H   0  0  0  0  0  0  0  0  0  0  0  0
  141.6193   71.2239  227.9987 H   0  0  0  0  0  0  0  0  0  0  0  0
  139.6131   67.8786  226.2498 H   0  0  0  0  0  0  0  0  0  0  0  0
  137.2167   68.6010  222.0876 H   0  0  0  0  0  0  0  0  0  0  0  0
  137.7052   70.0594  221.0810 H   0  0  0  0  0  0  0  0  0  0  0  0
  138.4956   68.3336  219.7675 H   0  0  0  0  0  0  0  0  0  0  0  0
  138.8867   66.9951  222.4633 H   0  0  0  0  0  0  0  0  0  0  0  0
  137.8973   66.4667  221.0394 H   0  0  0  0  0  0  0  0  0  0  0  0
  140.7472   66.0383  221.6570 H   0  0  0  0  0  0  0  0  0  0  0  0
  139.5801   65.1052  220.6121 H   0  0  0  0  0  0  0  0  0  0  0  0
  141.4630   65.9984  219.3272 H   0  0  0  0  0  0  0  0  0  0  0  0
  139.8538   66.6991  218.8368 H   0  0  0  0  0  0  0  0  0  0  0  0
  142.1579   67.9804  220.2530 H   0  0  0  0  0  0  0  0  0  0  0  0
  141.1867   68.5246  218.8155 H   0  0  0  0  0  0  0  0  0  0  0  0
  140.7060   68.9030  221.7114 H   0  0  0  0  0  0  0  0  0  0  0  0
  140.2062   69.8888  220.2663 H   0  0  0  0  0  0  0  0  0  0  0  0
  140.9329   73.6342  221.4361 H   0  0  0  0  0  0  0  0  0  0  0  0
  142.0965   75.7549  221.7739 H   0  0  0  0  0  0  0  0  0  0  0  0
  1  2  1  0
  2  3  2  0
  2  4  2  0
  2  5  1  0
  5  6  2  0
  6  7  1  0
  7  8  2  0
  8  9  1  0
  9 10  2  0
 10 11  1  0
 11 12  2  0
 12 13  1  0
 13 14  2  0
 14 15  1  0
 15 16  2  0
 16 17  1  0
 16 18  1  0
 18 19  2  0
 19 20  1  0
 20 21  2  0
 20 22  1  0
 22 23  1  0
 23 24  1  0
 24 25  1  0
 25 26  1  0
 26 27  1  0
 27 28  1  0
 28 29  1  0
  8 30  1  0
 30 31  2  0
 31  5  1  0
 22 11  1  0
 29 24  1  0
 19 13  1  0
  1 32  1  0
  1 33  1  0
  6 34  1  0
  7 35  1  0
  9 36  1  0
 10 37  1  0
 14 38  1  0
 15 39  1  0
 18 40  1  0
 23 41  1  0
 23 42  1  0
 24 43  1  0
 25 44  1  0
 25 45  1  0
 26 46  1  0
 26 47  1  0
 27 48  1  0
 27 49  1  0
 28 50  1  0
 28 51  1  0
 29 52  1  0
 29 53  1  0
 30 54  1  0
 31 55  1  0
M  END
>  <smiles>  (25) 
NS(=O)(=O)c1ccc(/C=C/c2nc3ccc(Cl)cc3c(=O)n2CC2CCCCC2)cc1

>  <score_type>  (25) 
oracle

>  <origin>  (25) 
autodockgpu

>  <m_score__min__energy>  (25) 
-9.4900000000000002

>  <m_primary>  (25) 
energy

>  <rmsd>  (25) 
11.079633543345423

>  <m_score__min__rmsd>  (25) 
11.079633543345423

>  <meeko>  (25) 
{"free_energy": -8.34, "intermolecular_energy": -10.43, "internal_energy": -1.47, "cluster_size": 2, "cluster_id": 7, "rank_in_cluster": 1}

>  <energy>  (25) 
-8.1

>  <cluster_rmsd>  (25) 
0.7

>  <cluster>  (25) 
2

$$$$

     RDKit          3D

 55 58  0  0  0  0  0  0  0  0999 V2000
  139.2860   67.3560  226.0990 N   0  0  0  0  0  0  0  0  0  0  0  0
  139.9080   68.9380  226.4740 S   0  0  0  0  0  0  0  0  0  0  0  0
  139.3530   69.4410  227.7670 O   0  0  0  0  0  0  0  0  0  0  0  0
  141.4140   68.8920  226.5890 O   0  0  0  0  0  0  0  0  0  0  0  0
  139.5260   70.0180  225.1450 C   0  0  0  0  0  0  0  0  0  0  0  0
  140.4660   70.9600  224.7460 C   0  0  0  0  0  0  0  0  0  0  0  0
  140.1780   71.8170  223.7000 C   0  0  0  0  0  0  0  0  0  0  0  0
  138.9780   71.7760  223.0230 C   0  0  0  0  0  0  0  0  0  0  0  0
  138.6470   72.6650  221.9180 C   0  0  0  0  0  0  0  0  0  0  0  0
  137.7140   73.5790  221.9460 C   0  0  0  0  0  0  0  0  0  0  0  0
  138.0270   74.9990  222.2190 C   0  0  0  0  0  0  0  0  0  0  0  0
  139.3290   75.3250  222.1600 N   0  0  0  0  0  0  0  0  0  0  0  0
  139.7470   76.5770  222.3890 C   0  0  0  0  0  0  0  0  0  0  0  0
  141.0810   76.9220  222.3320 C   0  0  0  0  0  0  0  0  0  0  0  0
  141.5020   78.2220  222.5700 C   0  0  0  0  0  0  0  0  0  0  0  0
  140.5580   79.1700  222.8690 C   0  0  0  0  0  0  0  0  0  0  0  0
  141.0920   80.8240  223.1730 Cl  0  0  0  0  0  0  0  0  0  0  0  0
  139.2310   78.8070  222.9210 C   0  0  0  0  0  0  0  0  0  0  0  0
  138.7900   77.5230  222.6880 C   0  0  0  0  0  0  0  0  0  0  0  0
  137.4610   77.1550  222.7390 C   0  0  0  0  0  0  0  0  0  0  0  0
  136.6390   78.0720  223.0170 O   0  0  0  0  0  0  0  0  0  0  0  0
  137.0500   75.8790  222.5050 N   0  0  0  0  0  0  0  0  0  0  0  0
  135.6690   75.4940  222.5710 C   0  0  0  0  0  0  0  0  0  0  0  0
  135.0690   75.5150  223.9520 C   0  0  0  0  0  0  0  0  0  0  0  0
  135.2890   74.1370  224.5530 C   0  0  0  0  0  0  0  0  0  0  0  0
  134.3430   73.8730  225.7000 C   0  0  0  0  0  0  0  0  0  0  0  0
  133.7390   75.1360  226.2740 C   0  0  0  0  0  0  0  0  0  0  0  0
  132.9800   75.9290  225.2600 C   0  0  0  0  0  0  0  0  0  0  0  0
  133.6310   75.8910  223.8890 C   0  0  0  0  0  0  0  0  0  0  0  0
  138.0680   70.8190  223.4530 C   0  0  0  0  0  0  0  0  0  0  0  0
  138.3100   69.9530  224.4810 C   0  0  0  0  0  0  0  0  0  0  0  0
  139.6740   67.0690  225.1790 H   0  0  0  0  0  0  0  0  0  0  0  0
  139.5800   66.6700  226.8340 H   0  0  0  0  0  0  0  0  0  0  0  0
  141.4361   71.0238  225.2606 H   0  0  0  0  0  0  0  0  0  0  0  0
  140.9330   72.5576  223.3974 H   0  0  0  0  0  0  0  0  0  0  0  0
  139.2267   72.5588  220.9892 H   0  0  0  0  0  0  0  0  0  0  0  0
  136.6699   73.2856  221.7621 H   0  0  0  0  0  0  0  0  0  0  0  0
  141.8270   76.1498  222.0927 H   0  0  0  0  0  0  0  0  0  0  0  0
  142.5686   78.4862  222.5200 H   0  0  0  0  0  0  0  0  0  0  0  0
  138.4863   79.5804  223.1604 H   0  0  0  0  0  0  0  0  0  0  0  0
  135.0917   76.1834  221.9374 H   0  0  0  0  0  0  0  0  0  0  0  0
  135.6242   74.4486  222.2316 H   0  0  0  0  0  0  0  0  0  0  0  0
  135.5484   76.2716  224.5905 H   0  0  0  0  0  0  0  0  0  0  0  0
  135.1261   73.3777  223.7740 H   0  0  0  0  0  0  0  0  0  0  0  0
  136.3182   74.0902  224.9383 H   0  0  0  0  0  0  0  0  0  0  0  0
  133.5282   73.2274  225.3403 H   0  0  0  0  0  0  0  0  0  0  0  0
  134.9248   73.3941  226.5014 H   0  0  0  0  0  0  0  0  0  0  0  0
  133.0532   74.8588  227.0882 H   0  0  0  0  0  0  0  0  0  0  0  0
  134.5669   75.7648  226.6333 H   0  0  0  0  0  0  0  0  0  0  0  0
  131.9629   75.5179  225.1794 H   0  0  0  0  0  0  0  0  0  0  0  0
  132.9664   76.9765  225.5955 H   0  0  0  0  0  0  0  0  0  0  0  0
  133.1007   75.1549  223.2669 H   0  0  0  0  0  0  0  0  0  0  0  0
  133.5681   76.9023  223.4607 H   0  0  0  0  0  0  0  0  0  0  0  0
  137.0986   70.7550  222.9370 H   0  0  0  0  0  0  0  0  0  0  0  0
  137.5511   69.2143  224.7782 H   0  0  0  0  0  0  0  0  0  0  0  0
  1  2  1  0
  2  3  2  0
  2  4  2  0
  2  5  1  0
  5  6  2  0
  6  7  1  0
  7  8  2  0
  8  9  1  0
  9 10  2  0
 10 11  1  0
 11 12  2  0
 12 13  1  0
 13 14  2  0
 14 15  1  0
 15 16  2  0
 16 17  1  0
 16 18  1  0
 18 19  2  0
 19 20  1  0
 20 21  2  0
 20 22  1  0
 22 23  1  0
 23 24  1  0
 24 25  1  0
 25 26  1  0
 26 27  1  0
 27 28  1  0
 28 29  1  0
  8 30  1  0
 30 31  2  0
 31  5  1  0
 22 11  1  0
 29 24  1  0
 19 13  1  0
  1 32  1  0
  1 33  1  0
  6 34  1  0
  7 35  1  0
  9 36  1  0
 10 37  1  0
 14 38  1  0
 15 39  1  0
 18 40  1  0
 23 41  1  0
 23 42  1  0
 24 43  1  0
 25 44  1  0
 25 45  1  0
 26 46  1  0
 26 47  1  0
 27 48  1  0
 27 49  1  0
 28 50  1  0
 28 51  1  0
 29 52  1  0
 29 53  1  0
 30 54  1  0
 31 55  1  0
M  END
>  <smiles>  (26) 
NS(=O)(=O)c1ccc(/C=C/c2nc3ccc(Cl)cc3c(=O)n2CC2CCCCC2)cc1

>  <score_type>  (26) 
oracle

>  <origin>  (26) 
autodockgpu

>  <m_score__min__energy>  (26) 
-9.4900000000000002

>  <m_primary>  (26) 
energy

>  <rmsd>  (26) 
7.415022179324315

>  <m_score__min__rmsd>  (26) 
7.415022179324315

>  <meeko>  (26) 
{"free_energy": -8.27, "intermolecular_energy": -10.36, "internal_energy": -1.47, "cluster_size": 8, "cluster_id": 5, "rank_in_cluster": 7}

>  <energy>  (26) 
-7.99

>  <cluster_rmsd>  (26) 
1.11

>  <cluster>  (26) 
2

$$$$

     RDKit          3D

 55 58  0  0  0  0  0  0  0  0999 V2000
  145.9250   73.4710  218.2510 N   0  0  0  0  0  0  0  0  0  0  0  0
  145.8730   72.6900  219.8060 S   0  0  0  0  0  0  0  0  0  0  0  0
  146.4150   71.2980  219.7270 O   0  0  0  0  0  0  0  0  0  0  0  0
  146.6990   73.4650  220.8060 O   0  0  0  0  0  0  0  0  0  0  0  0
  144.2160   72.7050  220.3840 C   0  0  0  0  0  0  0  0  0  0  0  0
  143.6250   71.5100  220.7750 C   0  0  0  0  0  0  0  0  0  0  0  0
  142.3200   71.5080  221.2320 C   0  0  0  0  0  0  0  0  0  0  0  0
  141.5680   72.6590  221.3190 C   0  0  0  0  0  0  0  0  0  0  0  0
  140.1920   72.6880  221.7970 C   0  0  0  0  0  0  0  0  0  0  0  0
  139.8280   72.5210  223.0410 C   0  0  0  0  0  0  0  0  0  0  0  0
  138.7600   71.5690  223.4150 C   0  0  0  0  0  0  0  0  0  0  0  0
  137.5100   71.9490  223.1000 N   0  0  0  0  0  0  0  0  0  0  0  0
  136.4530   71.1780  223.3860 C   0  0  0  0  0  0  0  0  0  0  0  0
  135.1650   71.5600  223.0680 C   0  0  0  0  0  0  0  0  0  0  0  0
  134.0780   70.7540  223.3690 C   0  0  0  0  0  0  0  0  0  0  0  0
  134.3060   69.5570  223.9970 C   0  0  0  0  0  0  0  0  0  0  0  0
  132.9220   68.5310  224.3820 Cl  0  0  0  0  0  0  0  0  0  0  0  0
  135.5970   69.1930  224.3080 C   0  0  0  0  0  0  0  0  0  0  0  0
  136.6920   69.9770  224.0180 C   0  0  0  0  0  0  0  0  0  0  0  0
  137.9870   69.6160  224.3270 C   0  0  0  0  0  0  0  0  0  0  0  0
  138.1330   68.5030  224.9030 O   0  0  0  0  0  0  0  0  0  0  0  0
  139.0530   70.4090  224.0310 N   0  0  0  0  0  0  0  0  0  0  0  0
  140.4000   70.0380  224.3630 C   0  0  0  0  0  0  0  0  0  0  0  0
  140.8280   70.3930  225.7630 C   0  0  0  0  0  0  0  0  0  0  0  0
  139.9600   69.5870  226.7120 C   0  0  0  0  0  0  0  0  0  0  0  0
  139.9450   70.1850  228.0990 C   0  0  0  0  0  0  0  0  0  0  0  0
  141.1000   71.1300  228.3490 C   0  0  0  0  0  0  0  0  0  0  0  0
  141.1380   72.2710  227.3840 C   0  0  0  0  0  0  0  0  0  0  0  0
  140.7140   71.8600  225.9860 C   0  0  0  0  0  0  0  0  0  0  0  0
  142.1980   73.8310  220.9180 C   0  0  0  0  0  0  0  0  0  0  0  0
  143.4830   73.8790  220.4610 C   0  0  0  0  0  0  0  0  0  0  0  0
  145.1730   74.1870  218.2280 H   0  0  0  0  0  0  0  0  0  0  0  0
  146.8550   73.9320  218.1120 H   0  0  0  0  0  0  0  0  0  0  0  0
  144.1928   70.5694  220.7212 H   0  0  0  0  0  0  0  0  0  0  0  0
  141.8662   70.5535  221.5369 H   0  0  0  0  0  0  0  0  0  0  0  0
  139.3995   72.8638  221.0546 H   0  0  0  0  0  0  0  0  0  0  0  0
  140.3283   73.1028  223.8292 H   0  0  0  0  0  0  0  0  0  0  0  0
  134.9978   72.5240  222.5653 H   0  0  0  0  0  0  0  0  0  0  0  0
  133.0560   71.0677  223.1099 H   0  0  0  0  0  0  0  0  0  0  0  0
  135.7620   68.2295  224.8125 H   0  0  0  0  0  0  0  0  0  0  0  0
  140.4941   68.9487  224.2426 H   0  0  0  0  0  0  0  0  0  0  0  0
  141.0532   70.6084  223.6863 H   0  0  0  0  0  0  0  0  0  0  0  0
  141.8852   70.1447  225.9379 H   0  0  0  0  0  0  0  0  0  0  0  0
  138.9316   69.5643  226.3224 H   0  0  0  0  0  0  0  0  0  0  0  0
  140.3778   68.5718  226.7806 H   0  0  0  0  0  0  0  0  0  0  0  0
  139.0040   70.7391  228.2315 H   0  0  0  0  0  0  0  0  0  0  0  0
  140.0381   69.3555  228.8155 H   0  0  0  0  0  0  0  0  0  0  0  0
  141.0080   71.5349  229.3676 H   0  0  0  0  0  0  0  0  0  0  0  0
  142.0296   70.5565  228.2186 H   0  0  0  0  0  0  0  0  0  0  0  0
  140.4591   73.0591  227.7418 H   0  0  0  0  0  0  0  0  0  0  0  0
  142.1767   72.6289  227.3281 H   0  0  0  0  0  0  0  0  0  0  0  0
  139.6667   72.1596  225.8328 H   0  0  0  0  0  0  0  0  0  0  0  0
  141.3865   72.3593  225.2729 H   0  0  0  0  0  0  0  0  0  0  0  0
  141.6299   74.7714  220.9719 H   0  0  0  0  0  0  0  0  0  0  0  0
  143.9312   74.8367  220.1577 H   0  0  0  0  0  0  0  0  0  0  0  0
  1  2  1  0
  2  3  2  0
  2  4  2  0
  2  5  1  0
  5  6  2  0
  6  7  1  0
  7  8  2  0
  8  9  1  0
  9 10  2  0
 10 11  1  0
 11 12  2  0
 12 13  1  0
 13 14  2  0
 14 15  1  0
 15 16  2  0
 16 17  1  0
 16 18  1  0
 18 19  2  0
 19 20  1  0
 20 21  2  0
 20 22  1  0
 22 23  1  0
 23 24  1  0
 24 25  1  0
 25 26  1  0
 26 27  1  0
 27 28  1  0
 28 29  1  0
  8 30  1  0
 30 31  2  0
 31  5  1  0
 22 11  1  0
 29 24  1  0
 19 13  1  0
  1 32  1  0
  1 33  1  0
  6 34  1  0
  7 35  1  0
  9 36  1  0
 10 37  1  0
 14 38  1  0
 15 39  1  0
 18 40  1  0
 23 41  1  0
 23 42  1  0
 24 43  1  0
 25 44  1  0
 25 45  1  0
 26 46  1  0
 26 47  1  0
 27 48  1  0
 27 49  1  0
 28 50  1  0
 28 51  1  0
 29 52  1  0
 29 53  1  0
 30 54  1  0
 31 55  1  0
M  END
>  <smiles>  (27) 
NS(=O)(=O)c1ccc(/C=C/c2nc3ccc(Cl)cc3c(=O)n2CC2CCCCC2)cc1

>  <score_type>  (27) 
oracle

>  <origin>  (27) 
autodockgpu

>  <m_score__min__energy>  (27) 
-9.4900000000000002

>  <m_primary>  (27) 
energy

>  <rmsd>  (27) 
11.464221268995532

>  <m_score__min__rmsd>  (27) 
11.464221268995532

>  <meeko>  (27) 
{"free_energy": -8.55, "intermolecular_energy": -10.64, "internal_energy": -1.34, "cluster_size": 1, "cluster_id": 6, "rank_in_cluster": 1}

>  <energy>  (27) 
-7.93

>  <cluster_rmsd>  (27) 
0.73

>  <cluster>  (27) 
2

$$$$

     RDKit          3D

 55 58  0  0  0  0  0  0  0  0999 V2000
  142.2110   78.7080  221.4010 N   0  0  0  0  0  0  0  0  0  0  0  0
  141.0780   78.3430  222.6710 S   0  0  0  0  0  0  0  0  0  0  0  0
  141.7440   78.3690  224.0090 O   0  0  0  0  0  0  0  0  0  0  0  0
  139.9570   79.3570  222.6780 O   0  0  0  0  0  0  0  0  0  0  0  0
  140.3550   76.7780  222.3410 C   0  0  0  0  0  0  0  0  0  0  0  0
  138.9970   76.5980  222.5730 C   0  0  0  0  0  0  0  0  0  0  0  0
  138.4150   75.3710  222.3170 C   0  0  0  0  0  0  0  0  0  0  0  0
  139.1350   74.2990  221.8330 C   0  0  0  0  0  0  0  0  0  0  0  0
  138.5490   72.9960  221.5540 C   0  0  0  0  0  0  0  0  0  0  0  0
  139.2100   71.8690  221.5210 C   0  0  0  0  0  0  0  0  0  0  0  0
  139.3310   71.0060  222.7170 C   0  0  0  0  0  0  0  0  0  0  0  0
  140.0130   71.5370  223.7460 N   0  0  0  0  0  0  0  0  0  0  0  0
  140.1960   70.8580  224.8870 C   0  0  0  0  0  0  0  0  0  0  0  0
  140.8950   71.3940  225.9490 C   0  0  0  0  0  0  0  0  0  0  0  0
  141.0790   70.6820  227.1240 C   0  0  0  0  0  0  0  0  0  0  0  0
  140.5490   69.4220  227.2150 C   0  0  0  0  0  0  0  0  0  0  0  0
  140.7820   68.5150  228.7110 Cl  0  0  0  0  0  0  0  0  0  0  0  0
  139.8540   68.9030  226.1450 C   0  0  0  0  0  0  0  0  0  0  0  0
  139.6590   69.5920  224.9680 C   0  0  0  0  0  0  0  0  0  0  0  0
  138.9640   69.0760  223.8930 C   0  0  0  0  0  0  0  0  0  0  0  0
  138.4980   67.9120  224.0370 O   0  0  0  0  0  0  0  0  0  0  0  0
  138.7850   69.7760  222.7390 N   0  0  0  0  0  0  0  0  0  0  0  0
  138.0720   69.2350  221.6170 C   0  0  0  0  0  0  0  0  0  0  0  0
  138.8720   68.3010  220.7480 C   0  0  0  0  0  0  0  0  0  0  0  0
  138.7950   66.9250  221.3850 C   0  0  0  0  0  0  0  0  0  0  0  0
  139.9110   66.0260  220.9080 C   0  0  0  0  0  0  0  0  0  0  0  0
  140.5500   66.5060  219.6230 C   0  0  0  0  0  0  0  0  0  0  0  0
  141.1190   67.8830  219.7350 C   0  0  0  0  0  0  0  0  0  0  0  0
  140.2690   68.7910  220.6070 C   0  0  0  0  0  0  0  0  0  0  0  0
  140.4880   74.5230  221.6150 C   0  0  0  0  0  0  0  0  0  0  0  0
  141.1050   75.7190  221.8540 C   0  0  0  0  0  0  0  0  0  0  0  0
  142.8360   79.4670  221.7390 H   0  0  0  0  0  0  0  0  0  0  0  0
  142.7800   77.8600  221.1710 H   0  0  0  0  0  0  0  0  0  0  0  0
  138.3877   77.4286  222.9588 H   0  0  0  0  0  0  0  0  0  0  0  0
  137.3387   75.2449  222.5061 H   0  0  0  0  0  0  0  0  0  0  0  0
  137.4677   72.9570  221.3559 H   0  0  0  0  0  0  0  0  0  0  0  0
  139.6879   71.5544  220.5815 H   0  0  0  0  0  0  0  0  0  0  0  0
  141.3148   72.4070  225.8615 H   0  0  0  0  0  0  0  0  0  0  0  0
  141.6381   71.1189  227.9646 H   0  0  0  0  0  0  0  0  0  0  0  0
  139.4346   67.8900  226.2345 H   0  0  0  0  0  0  0  0  0  0  0  0
  137.2005   68.6835  221.9996 H   0  0  0  0  0  0  0  0  0  0  0  0
  137.8009   70.0912  220.9818 H   0  0  0  0  0  0  0  0  0  0  0  0
  138.4671   68.2518  219.7264 H   0  0  0  0  0  0  0  0  0  0  0  0
  138.8665   67.0332  222.4773 H   0  0  0  0  0  0  0  0  0  0  0  0
  137.8377   66.4663  221.0964 H   0  0  0  0  0  0  0  0  0  0  0  0
  140.6843   65.9830  221.6891 H   0  0  0  0  0  0  0  0  0  0  0  0
  139.4733   65.0369  220.7078 H   0  0  0  0  0  0  0  0  0  0  0  0
  141.3602   65.8124  219.3536 H   0  0  0  0  0  0  0  0  0  0  0  0
  139.7635   66.5356  218.8545 H   0  0  0  0  0  0  0  0  0  0  0  0
  142.1261   67.8147  220.1722 H   0  0  0  0  0  0  0  0  0  0  0  0
  141.1470   68.3178  218.7250 H   0  0  0  0  0  0  0  0  0  0  0  0
  140.7252   68.8484  221.6063 H   0  0  0  0  0  0  0  0  0  0  0  0
  140.2296   69.7780  220.1229 H   0  0  0  0  0  0  0  0  0  0  0  0
  141.0967   73.6922  221.2287 H   0  0  0  0  0  0  0  0  0  0  0  0
  142.1815   75.8394  221.6626 H   0  0  0  0  0  0  0  0  0  0  0  0
  1  2  1  0
  2  3  2  0
  2  4  2  0
  2  5  1  0
  5  6  2  0
  6  7  1  0
  7  8  2  0
  8  9  1  0
  9 10  2  0
 10 11  1  0
 11 12  2  0
 12 13  1  0
 13 14  2  0
 14 15  1  0
 15 16  2  0
 16 17  1  0
 16 18  1  0
 18 19  2  0
 19 20  1  0
 20 21  2  0
 20 22  1  0
 22 23  1  0
 23 24  1  0
 24 25  1  0
 25 26  1  0
 26 27  1  0
 27 28  1  0
 28 29  1  0
  8 30  1  0
 30 31  2  0
 31  5  1  0
 22 11  1  0
 29 24  1  0
 19 13  1  0
  1 32  1  0
  1 33  1  0
  6 34  1  0
  7 35  1  0
  9 36  1  0
 10 37  1  0
 14 38  1  0
 15 39  1  0
 18 40  1  0
 23 41  1  0
 23 42  1  0
 24 43  1  0
 25 44  1  0
 25 45  1  0
 26 46  1  0
 26 47  1  0
 27 48  1  0
 27 49  1  0
 28 50  1  0
 28 51  1  0
 29 52  1  0
 29 53  1  0
 30 54  1  0
 31 55  1  0
M  END
>  <smiles>  (28) 
NS(=O)(=O)c1ccc(/C=C/c2nc3ccc(Cl)cc3c(=O)n2CC2CCCCC2)cc1

>  <score_type>  (28) 
oracle

>  <origin>  (28) 
autodockgpu

>  <m_score__min__energy>  (28) 
-9.4900000000000002

>  <m_primary>  (28) 
energy

>  <rmsd>  (28) 
11.125847746695403

>  <m_score__min__rmsd>  (28) 
11.125847746695403

>  <meeko>  (28) 
{"free_energy": -8.34, "intermolecular_energy": -10.43, "internal_energy": -1.45, "cluster_size": 2, "cluster_id": 7, "rank_in_cluster": 2}

>  <energy>  (28) 
-8.75

>  <cluster_rmsd>  (28) 
0.0

>  <cluster>  (28) 
3

$$$$

     RDKit          3D

 55 58  0  0  0  0  0  0  0  0999 V2000
  145.9910   73.4850  218.4110 N   0  0  0  0  0  0  0  0  0  0  0  0
  145.7990   72.7990  220.0000 S   0  0  0  0  0  0  0  0  0  0  0  0
  146.4890   71.4760  220.1010 O   0  0  0  0  0  0  0  0  0  0  0  0
  146.3880   73.7220  221.0410 O   0  0  0  0  0  0  0  0  0  0  0  0
  144.0840   72.6600  220.3450 C   0  0  0  0  0  0  0  0  0  0  0  0
  143.5110   71.3970  220.4280 C   0  0  0  0  0  0  0  0  0  0  0  0
  142.1610   71.2730  220.6990 C   0  0  0  0  0  0  0  0  0  0  0  0
  141.3450   72.3670  220.8950 C   0  0  0  0  0  0  0  0  0  0  0  0
  139.9210   72.2670  221.1830 C   0  0  0  0  0  0  0  0  0  0  0  0
  139.3810   72.4460  222.3600 C   0  0  0  0  0  0  0  0  0  0  0  0
  139.5110   71.4360  223.4340 C   0  0  0  0  0  0  0  0  0  0  0  0
  140.2720   71.7990  224.4790 N   0  0  0  0  0  0  0  0  0  0  0  0
  140.4720   70.9760  225.5180 C   0  0  0  0  0  0  0  0  0  0  0  0
  141.2520   71.3390  226.5960 C   0  0  0  0  0  0  0  0  0  0  0  0
  141.4520   70.4790  227.6650 C   0  0  0  0  0  0  0  0  0  0  0  0
  140.8550   69.2460  227.6320 C   0  0  0  0  0  0  0  0  0  0  0  0
  141.1090   68.1490  228.9920 Cl  0  0  0  0  0  0  0  0  0  0  0  0
  140.0800   68.9000  226.5470 C   0  0  0  0  0  0  0  0  0  0  0  0
  139.8670   69.7390  225.4750 C   0  0  0  0  0  0  0  0  0  0  0  0
  139.0910   69.3970  224.3860 C   0  0  0  0  0  0  0  0  0  0  0  0
  138.5660   68.2490  224.4140 O   0  0  0  0  0  0  0  0  0  0  0  0
  138.8960   70.2430  223.3380 N   0  0  0  0  0  0  0  0  0  0  0  0
  138.0980   69.8820  222.2000 C   0  0  0  0  0  0  0  0  0  0  0  0
  136.6120   69.8710  222.4450 C   0  0  0  0  0  0  0  0  0  0  0  0
  136.3410   70.8430  223.5800 C   0  0  0  0  0  0  0  0  0  0  0  0
  135.0060   70.5770  224.2340 C   0  0  0  0  0  0  0  0  0  0  0  0
  134.0760   69.7540  223.3690 C   0  0  0  0  0  0  0  0  0  0  0  0
  134.6500   68.4250  222.9980 C   0  0  0  0  0  0  0  0  0  0  0  0
  136.1450   68.4910  222.7460 C   0  0  0  0  0  0  0  0  0  0  0  0
  141.9600   73.6100  220.8050 C   0  0  0  0  0  0  0  0  0  0  0  0
  143.2880   73.7780  220.5390 C   0  0  0  0  0  0  0  0  0  0  0  0
  145.2280   74.1750  218.2670 H   0  0  0  0  0  0  0  0  0  0  0  0
  146.9180   73.9660  218.3370 H   0  0  0  0  0  0  0  0  0  0  0  0
  144.1290   70.4993  220.2787 H   0  0  0  0  0  0  0  0  0  0  0  0
  141.7224   70.2661  220.7604 H   0  0  0  0  0  0  0  0  0  0  0  0
  139.2491   72.0224  220.3471 H   0  0  0  0  0  0  0  0  0  0  0  0
  138.8165   73.3694  222.5569 H   0  0  0  0  0  0  0  0  0  0  0  0
  141.7254   72.3318  226.6079 H   0  0  0  0  0  0  0  0  0  0  0  0
  142.0755   70.7795  228.5199 H   0  0  0  0  0  0  0  0  0  0  0  0
  139.6086   67.9062  226.5359 H   0  0  0  0  0  0  0  0  0  0  0  0
  138.3062   70.6017  221.3946 H   0  0  0  0  0  0  0  0  0  0  0  0
  138.3759   68.8490  221.9436 H   0  0  0  0  0  0  0  0  0  0  0  0
  136.0519   70.1887  221.5532 H   0  0  0  0  0  0  0  0  0  0  0  0
  137.1347   70.7406  224.3347 H   0  0  0  0  0  0  0  0  0  0  0  0
  136.3231   71.8611  223.1638 H   0  0  0  0  0  0  0  0  0  0  0  0
  135.1790   70.0358  225.1759 H   0  0  0  0  0  0  0  0  0  0  0  0
  134.5226   71.5507  224.4020 H   0  0  0  0  0  0  0  0  0  0  0  0
  133.1381   69.5897  223.9198 H   0  0  0  0  0  0  0  0  0  0  0  0
  133.9109   70.3139  222.4367 H   0  0  0  0  0  0  0  0  0  0  0  0
  134.4609   67.7170  223.8183 H   0  0  0  0  0  0  0  0  0  0  0  0
  134.1665   68.0992  222.0652 H   0  0  0  0  0  0  0  0  0  0  0  0
  136.6701   68.1286  223.6421 H   0  0  0  0  0  0  0  0  0  0  0  0
  136.3637   67.8654  221.8681 H   0  0  0  0  0  0  0  0  0  0  0  0
  141.3426   74.5077  220.9564 H   0  0  0  0  0  0  0  0  0  0  0  0
  143.7210   74.7874  220.4794 H   0  0  0  0  0  0  0  0  0  0  0  0
  1  2  1  0
  2  3  2  0
  2  4  2  0
  2  5  1  0
  5  6  2  0
  6  7  1  0
  7  8  2  0
  8  9  1  0
  9 10  2  0
 10 11  1  0
 11 12  2  0
 12 13  1  0
 13 14  2  0
 14 15  1  0
 15 16  2  0
 16 17  1  0
 16 18  1  0
 18 19  2  0
 19 20  1  0
 20 21  2  0
 20 22  1  0
 22 23  1  0
 23 24  1  0
 24 25  1  0
 25 26  1  0
 26 27  1  0
 27 28  1  0
 28 29  1  0
  8 30  1  0
 30 31  2  0
 31  5  1  0
 22 11  1  0
 29 24  1  0
 19 13  1  0
  1 32  1  0
  1 33  1  0
  6 34  1  0
  7 35  1  0
  9 36  1  0
 10 37  1  0
 14 38  1  0
 15 39  1  0
 18 40  1  0
 23 41  1  0
 23 42  1  0
 24 43  1  0
 25 44  1  0
 25 45  1  0
 26 46  1  0
 26 47  1  0
 27 48  1  0
 27 49  1  0
 28 50  1  0
 28 51  1  0
 29 52  1  0
 29 53  1  0
 30 54  1  0
 31 55  1  0
M  END
>  <smiles>  (29) 
NS(=O)(=O)c1ccc(/C=C/c2nc3ccc(Cl)cc3c(=O)n2CC2CCCCC2)cc1

>  <score_type>  (29) 
oracle

>  <origin>  (29) 
autodockgpu

>  <m_score__min__energy>  (29) 
-9.4900000000000002

>  <m_primary>  (29) 
energy

>  <rmsd>  (29) 
10.906509271772533

>  <m_score__min__rmsd>  (29) 
10.906509271772533

>  <meeko>  (29) 
{"free_energy": -8.57, "intermolecular_energy": -10.66, "internal_energy": -1.49, "cluster_size": 15, "cluster_id": 2, "rank_in_cluster": 6}

>  <energy>  (29) 
-8.7

>  <cluster_rmsd>  (29) 
0.98

>  <cluster>  (29) 
3

$$$$

     RDKit          3D

 55 58  0  0  0  0  0  0  0  0999 V2000
  141.4140   67.8920  226.4960 N   0  0  0  0  0  0  0  0  0  0  0  0
  139.8050   68.4990  226.2220 S   0  0  0  0  0  0  0  0  0  0  0  0
  138.8770   67.3970  225.8220 O   0  0  0  0  0  0  0  0  0  0  0  0
  139.2690   69.1390  227.4810 O   0  0  0  0  0  0  0  0  0  0  0  0
  139.8820   69.7540  224.9980 C   0  0  0  0  0  0  0  0  0  0  0  0
  140.6310   70.8970  225.2470 C   0  0  0  0  0  0  0  0  0  0  0  0
  140.7000   71.8930  224.2910 C   0  0  0  0  0  0  0  0  0  0  0  0
  140.0480   71.8000  223.0800 C   0  0  0  0  0  0  0  0  0  0  0  0
  140.1030   72.8320  222.0550 C   0  0  0  0  0  0  0  0  0  0  0  0
  141.2000   73.2970  221.5190 C   0  0  0  0  0  0  0  0  0  0  0  0
  141.3780   74.7400  221.2430 C   0  0  0  0  0  0  0  0  0  0  0  0
  140.9510   75.5700  222.2090 N   0  0  0  0  0  0  0  0  0  0  0  0
  141.0520   76.9000  222.0830 C   0  0  0  0  0  0  0  0  0  0  0  0
  140.6170   77.7610  223.0690 C   0  0  0  0  0  0  0  0  0  0  0  0
  140.7270   79.1360  222.9270 C   0  0  0  0  0  0  0  0  0  0  0  0
  141.2810   79.6320  221.7760 C   0  0  0  0  0  0  0  0  0  0  0  0
  141.4210   81.3820  221.5950 Cl  0  0  0  0  0  0  0  0  0  0  0  0
  141.7100   78.7580  220.8030 C   0  0  0  0  0  0  0  0  0  0  0  0
  141.6110   77.3890  220.9220 C   0  0  0  0  0  0  0  0  0  0  0  0
  142.0400   76.5090  219.9490 C   0  0  0  0  0  0  0  0  0  0  0  0
  142.5430   77.0260  218.9130 O   0  0  0  0  0  0  0  0  0  0  0  0
  141.9310   75.1590  220.0900 N   0  0  0  0  0  0  0  0  0  0  0  0
  142.3660   74.2450  219.0730 C   0  0  0  0  0  0  0  0  0  0  0  0
  143.7370   73.6590  219.2900 C   0  0  0  0  0  0  0  0  0  0  0  0
  143.5630   72.1550  219.4130 C   0  0  0  0  0  0  0  0  0  0  0  0
  144.7460   71.5110  220.0960 C   0  0  0  0  0  0  0  0  0  0  0  0
  145.9820   72.3840  220.0890 C   0  0  0  0  0  0  0  0  0  0  0  0
  145.7640   73.7060  220.7520 C   0  0  0  0  0  0  0  0  0  0  0  0
  144.3760   74.2630  220.4900 C   0  0  0  0  0  0  0  0  0  0  0  0
  139.3120   70.6400  222.8730 C   0  0  0  0  0  0  0  0  0  0  0  0
  139.2160   69.6310  223.7880 C   0  0  0  0  0  0  0  0  0  0  0  0
  141.6470   67.2420  225.7200 H   0  0  0  0  0  0  0  0  0  0  0  0
  142.1000   68.6840  226.5080 H   0  0  0  0  0  0  0  0  0  0  0  0
  141.1670   71.0091  226.2010 H   0  0  0  0  0  0  0  0  0  0  0  0
  141.2967   72.7922  224.5042 H   0  0  0  0  0  0  0  0  0  0  0  0
  139.1486   73.2523  221.7051 H   0  0  0  0  0  0  0  0  0  0  0  0
  142.0115   72.5986  221.2666 H   0  0  0  0  0  0  0  0  0  0  0  0
  140.1736   77.3482  223.9871 H   0  0  0  0  0  0  0  0  0  0  0  0
  140.3775   79.8132  223.7203 H   0  0  0  0  0  0  0  0  0  0  0  0
  142.1535   79.1728  219.8858 H   0  0  0  0  0  0  0  0  0  0  0  0
  141.6438   73.4165  219.0268 H   0  0  0  0  0  0  0  0  0  0  0  0
  142.4232   74.8259  218.1406 H   0  0  0  0  0  0  0  0  0  0  0  0
  144.4102   73.8798  218.4486 H   0  0  0  0  0  0  0  0  0  0  0  0
  142.6560   71.9477  219.9998 H   0  0  0  0  0  0  0  0  0  0  0  0
  143.4809   71.7348  218.3997 H   0  0  0  0  0  0  0  0  0  0  0  0
  144.4740   71.2974  221.1402 H   0  0  0  0  0  0  0  0  0  0  0  0
  144.9882   70.5944  219.5382 H   0  0  0  0  0  0  0  0  0  0  0  0
  146.7885   71.8549  220.6178 H   0  0  0  0  0  0  0  0  0  0  0  0
  146.2416   72.5804  219.0383 H   0  0  0  0  0  0  0  0  0  0  0  0
  145.8963   73.5831  221.8371 H   0  0  0  0  0  0  0  0  0  0  0  0
  146.4942   74.4150  220.3347 H   0  0  0  0  0  0  0  0  0  0  0  0
  143.7432   74.0600  221.3665 H   0  0  0  0  0  0  0  0  0  0  0  0
  144.4783   75.3427  220.3065 H   0  0  0  0  0  0  0  0  0  0  0  0
  138.7766   70.5281  221.9186 H   0  0  0  0  0  0  0  0  0  0  0  0
  138.6190   68.7336  223.5684 H   0  0  0  0  0  0  0  0  0  0  0  0
  1  2  1  0
  2  3  2  0
  2  4  2  0
  2  5  1  0
  5  6  2  0
  6  7  1  0
  7  8  2  0
  8  9  1  0
  9 10  2  0
 10 11  1  0
 11 12  2  0
 12 13  1  0
 13 14  2  0
 14 15  1  0
 15 16  2  0
 16 17  1  0
 16 18  1  0
 18 19  2  0
 19 20  1  0
 20 21  2  0
 20 22  1  0
 22 23  1  0
 23 24  1  0
 24 25  1  0
 25 26  1  0
 26 27  1  0
 27 28  1  0
 28 29  1  0
  8 30  1  0
 30 31  2  0
 31  5  1  0
 22 11  1  0
 29 24  1  0
 19 13  1  0
  1 32  1  0
  1 33  1  0
  6 34  1  0
  7 35  1  0
  9 36  1  0
 10 37  1  0
 14 38  1  0
 15 39  1  0
 18 40  1  0
 23 41  1  0
 23 42  1  0
 24 43  1  0
 25 44  1  0
 25 45  1  0
 26 46  1  0
 26 47  1  0
 27 48  1  0
 27 49  1  0
 28 50  1  0
 28 51  1  0
 29 52  1  0
 29 53  1  0
 30 54  1  0
 31 55  1  0
M  END
>  <smiles>  (30) 
NS(=O)(=O)c1ccc(/C=C/c2nc3ccc(Cl)cc3c(=O)n2CC2CCCCC2)cc1

>  <score_type>  (30) 
oracle

>  <origin>  (30) 
autodockgpu

>  <m_score__min__energy>  (30) 
-9.4900000000000002

>  <m_primary>  (30) 
energy

>  <rmsd>  (30) 
5.4504393961806805

>  <m_score__min__rmsd>  (30) 
5.4504393961806805

>  <meeko>  (30) 
{"free_energy": -8.79, "intermolecular_energy": -10.88, "internal_energy": -1.39, "cluster_size": 12, "cluster_id": 1, "rank_in_cluster": 10}

>  <energy>  (30) 
-8.67

>  <cluster_rmsd>  (30) 
0.36

>  <cluster>  (30) 
3

$$$$

     RDKit          3D

 55 58  0  0  0  0  0  0  0  0999 V2000
  139.3700   67.0060  226.8420 N   0  0  0  0  0  0  0  0  0  0  0  0
  139.9780   68.6040  227.1730 S   0  0  0  0  0  0  0  0  0  0  0  0
  139.2360   69.2360  228.3060 O   0  0  0  0  0  0  0  0  0  0  0  0
  141.4420   68.5390  227.5410 O   0  0  0  0  0  0  0  0  0  0  0  0
  139.8560   69.5620  225.7080 C   0  0  0  0  0  0  0  0  0  0  0  0
  139.1990   69.0320  224.6050 C   0  0  0  0  0  0  0  0  0  0  0  0
  139.0960   69.7760  223.4450 C   0  0  0  0  0  0  0  0  0  0  0  0
  139.6250   71.0440  223.3330 C   0  0  0  0  0  0  0  0  0  0  0  0
  139.5310   71.8510  222.1240 C   0  0  0  0  0  0  0  0  0  0  0  0
  138.5120   72.6040  221.8040 C   0  0  0  0  0  0  0  0  0  0  0  0
  138.4990   74.0550  222.0900 C   0  0  0  0  0  0  0  0  0  0  0  0
  139.7010   74.6560  222.0810 N   0  0  0  0  0  0  0  0  0  0  0  0
  139.8280   75.9670  222.3270 C   0  0  0  0  0  0  0  0  0  0  0  0
  141.0580   76.5940  222.3200 C   0  0  0  0  0  0  0  0  0  0  0  0
  141.1770   77.9520  222.5760 C   0  0  0  0  0  0  0  0  0  0  0  0
  140.0400   78.6690  222.8400 C   0  0  0  0  0  0  0  0  0  0  0  0
  140.1910   80.3980  223.1670 Cl  0  0  0  0  0  0  0  0  0  0  0  0
  138.8220   78.0270  222.8430 C   0  0  0  0  0  0  0  0  0  0  0  0
  138.6790   76.6800  222.5910 C   0  0  0  0  0  0  0  0  0  0  0  0
  137.4600   76.0330  222.5920 C   0  0  0  0  0  0  0  0  0  0  0  0
  136.4500   76.7470  222.8400 O   0  0  0  0  0  0  0  0  0  0  0  0
  137.3450   74.7000  222.3400 N   0  0  0  0  0  0  0  0  0  0  0  0
  136.0790   74.0240  222.3540 C   0  0  0  0  0  0  0  0  0  0  0  0
  135.5750   73.6460  223.7220 C   0  0  0  0  0  0  0  0  0  0  0  0
  135.0740   72.2150  223.6320 C   0  0  0  0  0  0  0  0  0  0  0  0
  134.1280   71.8840  224.7610 C   0  0  0  0  0  0  0  0  0  0  0  0
  134.2430   72.8380  225.9300 C   0  0  0  0  0  0  0  0  0  0  0  0
  133.9820   74.2590  225.5480 C   0  0  0  0  0  0  0  0  0  0  0  0
  134.5220   74.5960  224.1700 C   0  0  0  0  0  0  0  0  0  0  0  0
  140.2730   71.5360  224.4590 C   0  0  0  0  0  0  0  0  0  0  0  0
  140.3980   70.8360  225.6250 C   0  0  0  0  0  0  0  0  0  0  0  0
  140.1770   66.3510  226.8450 H   0  0  0  0  0  0  0  0  0  0  0  0
  138.6840   66.7220  227.5810 H   0  0  0  0  0  0  0  0  0  0  0  0
  138.7622   68.0236  224.6546 H   0  0  0  0  0  0  0  0  0  0  0  0
  138.5733   69.3410  222.5804 H   0  0  0  0  0  0  0  0  0  0  0  0
  140.3821   71.8246  221.4277 H   0  0  0  0  0  0  0  0  0  0  0  0
  137.6421   72.1471  221.3095 H   0  0  0  0  0  0  0  0  0  0  0  0
  141.9620   76.0046  222.1071 H   0  0  0  0  0  0  0  0  0  0  0  0
  142.1618   78.4420  222.5672 H   0  0  0  0  0  0  0  0  0  0  0  0
  137.9193   78.6181  223.0570 H   0  0  0  0  0  0  0  0  0  0  0  0
  135.3341   74.6846  221.8863 H   0  0  0  0  0  0  0  0  0  0  0  0
  136.2282   73.0800  221.8094 H   0  0  0  0  0  0  0  0  0  0  0  0
  136.3723   73.7055  224.4775 H   0  0  0  0  0  0  0  0  0  0  0  0
  134.5484   72.0806  222.6751 H   0  0  0  0  0  0  0  0  0  0  0  0
  135.9415   71.5423  223.7023 H   0  0  0  0  0  0  0  0  0  0  0  0
  133.0978   71.9227  224.3774 H   0  0  0  0  0  0  0  0  0  0  0  0
  134.3930   70.8815  225.1281 H   0  0  0  0  0  0  0  0  0  0  0  0
  133.5138   72.5414  226.6983 H   0  0  0  0  0  0  0  0  0  0  0  0
  135.2763   72.7806  226.3029 H   0  0  0  0  0  0  0  0  0  0  0  0
  132.8958   74.4327  225.5540 H   0  0  0  0  0  0  0  0  0  0  0  0
  134.4969   74.9023  226.2767 H   0  0  0  0  0  0  0  0  0  0  0  0
  133.6916   74.5675  223.4492 H   0  0  0  0  0  0  0  0  0  0  0  0
  134.9763   75.5963  224.2249 H   0  0  0  0  0  0  0  0  0  0  0  0
  140.7093   72.5445  224.4087 H   0  0  0  0  0  0  0  0  0  0  0  0
  140.9213   71.2765  226.4864 H   0  0  0  0  0  0  0  0  0  0  0  0
  1  2  1  0
  2  3  2  0
  2  4  2  0
  2  5  1  0
  5  6  2  0
  6  7  1  0
  7  8  2  0
  8  9  1  0
  9 10  2  0
 10 11  1  0
 11 12  2  0
 12 13  1  0
 13 14  2  0
 14 15  1  0
 15 16  2  0
 16 17  1  0
 16 18  1  0
 18 19  2  0
 19 20  1  0
 20 21  2  0
 20 22  1  0
 22 23  1  0
 23 24  1  0
 24 25  1  0
 25 26  1  0
 26 27  1  0
 27 28  1  0
 28 29  1  0
  8 30  1  0
 30 31  2  0
 31  5  1  0
 22 11  1  0
 29 24  1  0
 19 13  1  0
  1 32  1  0
  1 33  1  0
  6 34  1  0
  7 35  1  0
  9 36  1  0
 10 37  1  0
 14 38  1  0
 15 39  1  0
 18 40  1  0
 23 41  1  0
 23 42  1  0
 24 43  1  0
 25 44  1  0
 25 45  1  0
 26 46  1  0
 26 47  1  0
 27 48  1  0
 27 49  1  0
 28 50  1  0
 28 51  1  0
 29 52  1  0
 29 53  1  0
 30 54  1  0
 31 55  1  0
M  END
>  <smiles>  (31) 
NS(=O)(=O)c1ccc(/C=C/c2nc3ccc(Cl)cc3c(=O)n2CC2CCCCC2)cc1

>  <score_type>  (31) 
oracle

>  <origin>  (31) 
autodockgpu

>  <m_score__min__energy>  (31) 
-9.4900000000000002

>  <m_primary>  (31) 
energy

>  <rmsd>  (31) 
7.571985833447261

>  <m_score__min__rmsd>  (31) 
7.571985833447261

>  <meeko>  (31) 
{"free_energy": -8.66, "intermolecular_energy": -10.74, "internal_energy": -1.56, "cluster_size": 8, "cluster_id": 5, "rank_in_cluster": 1}

>  <energy>  (31) 
-8.54

>  <cluster_rmsd>  (31) 
0.98

>  <cluster>  (31) 
3

$$$$

     RDKit          3D

 55 58  0  0  0  0  0  0  0  0999 V2000
  145.8970   73.4730  218.6820 N   0  0  0  0  0  0  0  0  0  0  0  0
  145.1190   73.5160  220.2390 S   0  0  0  0  0  0  0  0  0  0  0  0
  144.7640   72.1390  220.7000 O   0  0  0  0  0  0  0  0  0  0  0  0
  146.0390   74.1380  221.2640 O   0  0  0  0  0  0  0  0  0  0  0  0
  143.7020   74.5440  220.1280 C   0  0  0  0  0  0  0  0  0  0  0  0
  143.8480   75.8520  219.6840 C   0  0  0  0  0  0  0  0  0  0  0  0
  142.7390   76.6730  219.5910 C   0  0  0  0  0  0  0  0  0  0  0  0
  141.4730   76.2420  219.9250 C   0  0  0  0  0  0  0  0  0  0  0  0
  140.2870   77.0830  219.8370 C   0  0  0  0  0  0  0  0  0  0  0  0
  139.9380   77.7770  218.7860 C   0  0  0  0  0  0  0  0  0  0  0  0
  140.6500   79.0150  218.4020 C   0  0  0  0  0  0  0  0  0  0  0  0
  141.0820   79.0620  217.1300 N   0  0  0  0  0  0  0  0  0  0  0  0
  141.7420   80.1270  216.6560 C   0  0  0  0  0  0  0  0  0  0  0  0
  142.1910   80.1860  215.3530 C   0  0  0  0  0  0  0  0  0  0  0  0
  142.8740   81.2930  214.8730 C   0  0  0  0  0  0  0  0  0  0  0  0
  143.1000   82.3410  215.7260 C   0  0  0  0  0  0  0  0  0  0  0  0
  143.9690   83.7520  215.1170 Cl  0  0  0  0  0  0  0  0  0  0  0  0
  142.6450   82.2660  217.0240 C   0  0  0  0  0  0  0  0  0  0  0  0
  141.9640   81.1770  217.5220 C   0  0  0  0  0  0  0  0  0  0  0  0
  141.5070   81.0960  218.8210 C   0  0  0  0  0  0  0  0  0  0  0  0
  141.7440   82.0930  219.5580 O   0  0  0  0  0  0  0  0  0  0  0  0
  140.8370   80.0080  219.2900 N   0  0  0  0  0  0  0  0  0  0  0  0
  140.3720   79.9200  220.6450 C   0  0  0  0  0  0  0  0  0  0  0  0
  141.4300   80.1400  221.6950 C   0  0  0  0  0  0  0  0  0  0  0  0
  141.5490   78.8480  222.4840 C   0  0  0  0  0  0  0  0  0  0  0  0
  142.1970   79.0750  223.8290 C   0  0  0  0  0  0  0  0  0  0  0  0
  142.9670   80.3750  223.9050 C   0  0  0  0  0  0  0  0  0  0  0  0
  142.1160   81.5720  223.6260 C   0  0  0  0  0  0  0  0  0  0  0  0
  141.0780   81.3050  222.5510 C   0  0  0  0  0  0  0  0  0  0  0  0
  141.3720   74.9280  220.3640 C   0  0  0  0  0  0  0  0  0  0  0  0
  142.4400   74.0830  220.4710 C   0  0  0  0  0  0  0  0  0  0  0  0
  145.3800   74.1150  218.0490 H   0  0  0  0  0  0  0  0  0  0  0  0
  146.8910   73.7890  218.7680 H   0  0  0  0  0  0  0  0  0  0  0  0
  144.8420   76.2334  219.4074 H   0  0  0  0  0  0  0  0  0  0  0  0
  142.8719   77.7063  219.2381 H   0  0  0  0  0  0  0  0  0  0  0  0
  139.6360   77.1382  220.7219 H   0  0  0  0  0  0  0  0  0  0  0  0
  139.0935   77.4316  218.1716 H   0  0  0  0  0  0  0  0  0  0  0  0
  142.0031   79.3363  214.6802 H   0  0  0  0  0  0  0  0  0  0  0  0
  143.2262   81.3290  213.8315 H   0  0  0  0  0  0  0  0  0  0  0  0
  142.8346   83.1166  217.6952 H   0  0  0  0  0  0  0  0  0  0  0  0
  139.5873   80.6777  220.7867 H   0  0  0  0  0  0  0  0  0  0  0  0
  140.0123   78.8894  220.7811 H   0  0  0  0  0  0  0  0  0  0  0  0
  142.4039   80.3821  221.2445 H   0  0  0  0  0  0  0  0  0  0  0  0
  140.5432   78.4302  222.6384 H   0  0  0  0  0  0  0  0  0  0  0  0
  142.1800   78.1524  221.9114 H   0  0  0  0  0  0  0  0  0  0  0  0
  141.4111   79.0881  224.5985 H   0  0  0  0  0  0  0  0  0  0  0  0
  142.9161   78.2581  223.9886 H   0  0  0  0  0  0  0  0  0  0  0  0
  143.3909   80.4734  224.9153 H   0  0  0  0  0  0  0  0  0  0  0  0
  143.7508   80.3401  223.1340 H   0  0  0  0  0  0  0  0  0  0  0  0
  141.5987   81.8616  224.5526 H   0  0  0  0  0  0  0  0  0  0  0  0
  142.7747   82.3755  223.2646 H   0  0  0  0  0  0  0  0  0  0  0  0
  140.1109   81.1067  223.0361 H   0  0  0  0  0  0  0  0  0  0  0  0
  141.0316   82.1931  221.9036 H   0  0  0  0  0  0  0  0  0  0  0  0
  140.3778   74.5471  220.6406 H   0  0  0  0  0  0  0  0  0  0  0  0
  142.3008   73.0507  220.8245 H   0  0  0  0  0  0  0  0  0  0  0  0
  1  2  1  0
  2  3  2  0
  2  4  2  0
  2  5  1  0
  5  6  2  0
  6  7  1  0
  7  8  2  0
  8  9  1  0
  9 10  2  0
 10 11  1  0
 11 12  2  0
 12 13  1  0
 13 14  2  0
 14 15  1  0
 15 16  2  0
 16 17  1  0
 16 18  1  0
 18 19  2  0
 19 20  1  0
 20 21  2  0
 20 22  1  0
 22 23  1  0
 23 24  1  0
 24 25  1  0
 25 26  1  0
 26 27  1  0
 27 28  1  0
 28 29  1  0
  8 30  1  0
 30 31  2  0
 31  5  1  0
 22 11  1  0
 29 24  1  0
 19 13  1  0
  1 32  1  0
  1 33  1  0
  6 34  1  0
  7 35  1  0
  9 36  1  0
 10 37  1  0
 14 38  1  0
 15 39  1  0
 18 40  1  0
 23 41  1  0
 23 42  1  0
 24 43  1  0
 25 44  1  0
 25 45  1  0
 26 46  1  0
 26 47  1  0
 27 48  1  0
 27 49  1  0
 28 50  1  0
 28 51  1  0
 29 52  1  0
 29 53  1  0
 30 54  1  0
 31 55  1  0
M  END
>  <smiles>  (32) 
NS(=O)(=O)c1ccc(/C=C/c2nc3ccc(Cl)cc3c(=O)n2CC2CCCCC2)cc1

>  <score_type>  (32) 
oracle

>  <origin>  (32) 
autodockgpu

>  <m_score__min__energy>  (32) 
-9.4900000000000002

>  <m_primary>  (32) 
energy

>  <rmsd>  (32) 
6.178291150185605

>  <m_score__min__rmsd>  (32) 
6.178291150185605

>  <meeko>  (32) 
{"free_energy": -7.78, "intermolecular_energy": -9.87, "internal_energy": -1.56, "cluster_size": 1, "cluster_id": 9, "rank_in_cluster": 1}

>  <energy>  (32) 
-8.49

>  <cluster_rmsd>  (32) 
1.0

>  <cluster>  (32) 
3

$$$$

     RDKit          3D

 55 58  0  0  0  0  0  0  0  0999 V2000
  141.3550   67.7750  226.9690 N   0  0  0  0  0  0  0  0  0  0  0  0
  139.7270   68.3270  226.6900 S   0  0  0  0  0  0  0  0  0  0  0  0
  138.7950   67.1740  226.4960 O   0  0  0  0  0  0  0  0  0  0  0  0
  139.2420   69.1360  227.8700 O   0  0  0  0  0  0  0  0  0  0  0  0
  139.7300   69.3950  225.2980 C   0  0  0  0  0  0  0  0  0  0  0  0
  140.3940   70.6120  225.3810 C   0  0  0  0  0  0  0  0  0  0  0  0
  140.4040   71.4630  224.2910 C   0  0  0  0  0  0  0  0  0  0  0  0
  139.7740   71.1510  223.1060 C   0  0  0  0  0  0  0  0  0  0  0  0
  139.7680   72.0260  221.9420 C   0  0  0  0  0  0  0  0  0  0  0  0
  138.7660   72.7810  221.5780 C   0  0  0  0  0  0  0  0  0  0  0  0
  138.6740   74.2000  221.9890 C   0  0  0  0  0  0  0  0  0  0  0  0
  139.8320   74.8800  221.9810 N   0  0  0  0  0  0  0  0  0  0  0  0
  139.8860   76.1720  222.3330 C   0  0  0  0  0  0  0  0  0  0  0  0
  141.0710   76.8790  222.3280 C   0  0  0  0  0  0  0  0  0  0  0  0
  141.1140   78.2160  222.6960 C   0  0  0  0  0  0  0  0  0  0  0  0
  139.9480   78.8290  223.0690 C   0  0  0  0  0  0  0  0  0  0  0  0
  140.0030   80.5310  223.5370 Cl  0  0  0  0  0  0  0  0  0  0  0  0
  138.7750   78.1080  223.0680 C   0  0  0  0  0  0  0  0  0  0  0  0
  138.7070   76.7800  222.7070 C   0  0  0  0  0  0  0  0  0  0  0  0
  137.5350   76.0530  222.7040 C   0  0  0  0  0  0  0  0  0  0  0  0
  136.4930   76.6730  223.0560 O   0  0  0  0  0  0  0  0  0  0  0  0
  137.4930   74.7410  222.3440 N   0  0  0  0  0  0  0  0  0  0  0  0
  136.2750   73.9810  222.3520 C   0  0  0  0  0  0  0  0  0  0  0  0
  135.6820   73.7500  223.7170 C   0  0  0  0  0  0  0  0  0  0  0  0
  135.4810   72.2520  223.8670 C   0  0  0  0  0  0  0  0  0  0  0  0
  134.4780   71.9300  224.9490 C   0  0  0  0  0  0  0  0  0  0  0  0
  134.2560   73.0750  225.9110 C   0  0  0  0  0  0  0  0  0  0  0  0
  133.7780   74.3200  225.2340 C   0  0  0  0  0  0  0  0  0  0  0  0
  134.4170   74.5170  223.8710 C   0  0  0  0  0  0  0  0  0  0  0  0
  139.1230   69.9240  223.0670 C   0  0  0  0  0  0  0  0  0  0  0  0
  139.0870   69.0530  224.1180 C   0  0  0  0  0  0  0  0  0  0  0  0
  141.3080   66.9430  227.5890 H   0  0  0  0  0  0  0  0  0  0  0  0
  141.8060   67.5130  226.0620 H   0  0  0  0  0  0  0  0  0  0  0  0
  140.9097   70.8977  226.3097 H   0  0  0  0  0  0  0  0  0  0  0  0
  140.9339   72.4234  224.3730 H   0  0  0  0  0  0  0  0  0  0  0  0
  140.6763   72.0533  221.3221 H   0  0  0  0  0  0  0  0  0  0  0  0
  137.9710   72.3516  220.9506 H   0  0  0  0  0  0  0  0  0  0  0  0
  141.9998   76.3726  222.0263 H   0  0  0  0  0  0  0  0  0  0  0  0
  142.0636   78.7711  222.6883 H   0  0  0  0  0  0  0  0  0  0  0  0
  137.8476   78.6166  223.3699 H   0  0  0  0  0  0  0  0  0  0  0  0
  135.5328   74.5182  221.7432 H   0  0  0  0  0  0  0  0  0  0  0  0
  136.5279   72.9877  221.9528 H   0  0  0  0  0  0  0  0  0  0  0  0
  136.3492   74.1093  224.5144 H   0  0  0  0  0  0  0  0  0  0  0  0
  135.1191   71.8432  222.9120 H   0  0  0  0  0  0  0  0  0  0  0  0
  136.4450   71.8025  224.1474 H   0  0  0  0  0  0  0  0  0  0  0  0
  133.5178   71.6809  224.4736 H   0  0  0  0  0  0  0  0  0  0  0  0
  134.8808   71.0870  225.5296 H   0  0  0  0  0  0  0  0  0  0  0  0
  133.5045   72.7687  226.6536 H   0  0  0  0  0  0  0  0  0  0  0  0
  135.2244   73.3050  226.3792 H   0  0  0  0  0  0  0  0  0  0  0  0
  132.6871   74.2571  225.1074 H   0  0  0  0  0  0  0  0  0  0  0  0
  134.0609   75.1756  225.8648 H   0  0  0  0  0  0  0  0  0  0  0  0
  133.7078   74.1860  223.0981 H   0  0  0  0  0  0  0  0  0  0  0  0
  134.6598   75.5849  223.7677 H   0  0  0  0  0  0  0  0  0  0  0  0
  138.6080   69.6385  222.1379 H   0  0  0  0  0  0  0  0  0  0  0  0
  138.5556   68.0939  224.0299 H   0  0  0  0  0  0  0  0  0  0  0  0
  1  2  1  0
  2  3  2  0
  2  4  2  0
  2  5  1  0
  5  6  2  0
  6  7  1  0
  7  8  2  0
  8  9  1  0
  9 10  2  0
 10 11  1  0
 11 12  2  0
 12 13  1  0
 13 14  2  0
 14 15  1  0
 15 16  2  0
 16 17  1  0
 16 18  1  0
 18 19  2  0
 19 20  1  0
 20 21  2  0
 20 22  1  0
 22 23  1  0
 23 24  1  0
 24 25  1  0
 25 26  1  0
 26 27  1  0
 27 28  1  0
 28 29  1  0
  8 30  1  0
 30 31  2  0
 31  5  1  0
 22 11  1  0
 29 24  1  0
 19 13  1  0
  1 32  1  0
  1 33  1  0
  6 34  1  0
  7 35  1  0
  9 36  1  0
 10 37  1  0
 14 38  1  0
 15 39  1  0
 18 40  1  0
 23 41  1  0
 23 42  1  0
 24 43  1  0
 25 44  1  0
 25 45  1  0
 26 46  1  0
 26 47  1  0
 27 48  1  0
 27 49  1  0
 28 50  1  0
 28 51  1  0
 29 52  1  0
 29 53  1  0
 30 54  1  0
 31 55  1  0
M  END
>  <smiles>  (33) 
NS(=O)(=O)c1ccc(/C=C/c2nc3ccc(Cl)cc3c(=O)n2CC2CCCCC2)cc1

>  <score_type>  (33) 
oracle

>  <origin>  (33) 
autodockgpu

>  <m_score__min__energy>  (33) 
-9.4900000000000002

>  <m_primary>  (33) 
energy

>  <rmsd>  (33) 
7.480841991145557

>  <m_score__min__rmsd>  (33) 
7.480841991145557

>  <meeko>  (33) 
{"free_energy": -8.32, "intermolecular_energy": -10.41, "internal_energy": -1.6, "cluster_size": 8, "cluster_id": 5, "rank_in_cluster": 6}

>  <energy>  (33) 
-8.67

>  <cluster_rmsd>  (33) 
0.0

>  <cluster>  (33) 
4

$$$$

     RDKit          3D

 55 58  0  0  0  0  0  0  0  0999 V2000
  145.7210   73.3730  217.9520 N   0  0  0  0  0  0  0  0  0  0  0  0
  145.7790   72.8330  219.6060 S   0  0  0  0  0  0  0  0  0  0  0  0
  146.3310   71.4460  219.6990 O   0  0  0  0  0  0  0  0  0  0  0  0
  146.6600   73.7500  220.4220 O   0  0  0  0  0  0  0  0  0  0  0  0
  144.1640   72.9310  220.2840 C   0  0  0  0  0  0  0  0  0  0  0  0
  143.5520   71.7720  220.7450 C   0  0  0  0  0  0  0  0  0  0  0  0
  142.2800   71.8350  221.2820 C   0  0  0  0  0  0  0  0  0  0  0  0
  141.5800   73.0190  221.3810 C   0  0  0  0  0  0  0  0  0  0  0  0
  140.2390   73.1160  221.9420 C   0  0  0  0  0  0  0  0  0  0  0  0
  139.4190   72.1100  222.1010 C   0  0  0  0  0  0  0  0  0  0  0  0
  139.5940   71.1330  223.1980 C   0  0  0  0  0  0  0  0  0  0  0  0
  140.1340   71.6230  224.3270 N   0  0  0  0  0  0  0  0  0  0  0  0
  140.3470   70.8420  225.3950 C   0  0  0  0  0  0  0  0  0  0  0  0
  140.9010   71.3340  226.5590 C   0  0  0  0  0  0  0  0  0  0  0  0
  141.1170   70.5160  227.6570 C   0  0  0  0  0  0  0  0  0  0  0  0
  140.7680   69.1940  227.5670 C   0  0  0  0  0  0  0  0  0  0  0  0
  141.0430   68.1530  228.9650 Cl  0  0  0  0  0  0  0  0  0  0  0  0
  140.2160   68.7210  226.3980 C   0  0  0  0  0  0  0  0  0  0  0  0
  139.9920   69.5140  225.2940 C   0  0  0  0  0  0  0  0  0  0  0  0
  139.4390   69.0440  224.1210 C   0  0  0  0  0  0  0  0  0  0  0  0
  139.1370   67.8180  224.0990 O   0  0  0  0  0  0  0  0  0  0  0  0
  139.2280   69.8480  223.0430 N   0  0  0  0  0  0  0  0  0  0  0  0
  138.6640   69.3550  221.8180 C   0  0  0  0  0  0  0  0  0  0  0  0
  137.1920   69.0420  221.8780 C   0  0  0  0  0  0  0  0  0  0  0  0
  136.6330   69.7600  223.0930 C   0  0  0  0  0  0  0  0  0  0  0  0
  135.3200   69.1620  223.5390 C   0  0  0  0  0  0  0  0  0  0  0  0
  134.6520   68.3320  222.4650 C   0  0  0  0  0  0  0  0  0  0  0  0
  135.5050   67.2010  221.9890 C   0  0  0  0  0  0  0  0  0  0  0  0
  136.9760   67.5710  221.9310 C   0  0  0  0  0  0  0  0  0  0  0  0
  142.2280   74.1520  220.9090 C   0  0  0  0  0  0  0  0  0  0  0  0
  143.4840   74.1360  220.3710 C   0  0  0  0  0  0  0  0  0  0  0  0
  144.8170   73.0610  217.5460 H   0  0  0  0  0  0  0  0  0  0  0  0
  145.7820   74.4170  217.9120 H   0  0  0  0  0  0  0  0  0  0  0  0
  144.0779   70.8078  220.6828 H   0  0  0  0  0  0  0  0  0  0  0  0
  141.8097   70.9085  221.6430 H   0  0  0  0  0  0  0  0  0  0  0  0
  139.8899   74.1109  222.2556 H   0  0  0  0  0  0  0  0  0  0  0  0
  138.5786   71.9871  221.4020 H   0  0  0  0  0  0  0  0  0  0  0  0
  141.1769   72.3973  226.6168 H   0  0  0  0  0  0  0  0  0  0  0  0
  141.5588   70.9192  228.5802 H   0  0  0  0  0  0  0  0  0  0  0  0
  139.9402   67.6576  226.3427 H   0  0  0  0  0  0  0  0  0  0  0  0
  138.8199   70.1162  221.0394 H   0  0  0  0  0  0  0  0  0  0  0  0
  139.1732   68.4035  221.6051 H   0  0  0  0  0  0  0  0  0  0  0  0
  136.6668   69.3906  220.9766 H   0  0  0  0  0  0  0  0  0  0  0  0
  137.3577   69.6839  223.9170 H   0  0  0  0  0  0  0  0  0  0  0  0
  136.4564   70.8108  222.8197 H   0  0  0  0  0  0  0  0  0  0  0  0
  135.5062   68.5201  224.4127 H   0  0  0  0  0  0  0  0  0  0  0  0
  134.6436   69.9959  223.7780 H   0  0  0  0  0  0  0  0  0  0  0  0
  133.7168   67.9194  222.8713 H   0  0  0  0  0  0  0  0  0  0  0  0
  134.4686   68.9919  221.6043 H   0  0  0  0  0  0  0  0  0  0  0  0
  135.3812   66.3513  222.6766 H   0  0  0  0  0  0  0  0  0  0  0  0
  135.1831   66.9440  220.9690 H   0  0  0  0  0  0  0  0  0  0  0  0
  137.4753   67.1732  222.8268 H   0  0  0  0  0  0  0  0  0  0  0  0
  137.3932   67.1386  221.0096 H   0  0  0  0  0  0  0  0  0  0  0  0
  141.7015   75.1158  220.9714 H   0  0  0  0  0  0  0  0  0  0  0  0
  143.9489   75.0660  220.0120 H   0  0  0  0  0  0  0  0  0  0  0  0
  1  2  1  0
  2  3  2  0
  2  4  2  0
  2  5  1  0
  5  6  2  0
  6  7  1  0
  7  8  2  0
  8  9  1  0
  9 10  2  0
 10 11  1  0
 11 12  2  0
 12 13  1  0
 13 14  2  0
 14 15  1  0
 15 16  2  0
 16 17  1  0
 16 18  1  0
 18 19  2  0
 19 20  1  0
 20 21  2  0
 20 22  1  0
 22 23  1  0
 23 24  1  0
 24 25  1  0
 25 26  1  0
 26 27  1  0
 27 28  1  0
 28 29  1  0
  8 30  1  0
 30 31  2  0
 31  5  1  0
 22 11  1  0
 29 24  1  0
 19 13  1  0
  1 32  1  0
  1 33  1  0
  6 34  1  0
  7 35  1  0
  9 36  1  0
 10 37  1  0
 14 38  1  0
 15 39  1  0
 18 40  1  0
 23 41  1  0
 23 42  1  0
 24 43  1  0
 25 44  1  0
 25 45  1  0
 26 46  1  0
 26 47  1  0
 27 48  1  0
 27 49  1  0
 28 50  1  0
 28 51  1  0
 29 52  1  0
 29 53  1  0
 30 54  1  0
 31 55  1  0
M  END
>  <smiles>  (34) 
NS(=O)(=O)c1ccc(/C=C/c2nc3ccc(Cl)cc3c(=O)n2CC2CCCCC2)cc1

>  <score_type>  (34) 
oracle

>  <origin>  (34) 
autodockgpu

>  <m_score__min__energy>  (34) 
-9.4900000000000002

>  <m_primary>  (34) 
energy

>  <rmsd>  (34) 
11.045478498303611

>  <m_score__min__rmsd>  (34) 
11.045478498303611

>  <meeko>  (34) 
{"free_energy": -8.78, "intermolecular_energy": -10.87, "internal_energy": -1.48, "cluster_size": 15, "cluster_id": 2, "rank_in_cluster": 4}

>  <energy>  (34) 
-8.21

>  <cluster_rmsd>  (34) 
0.78

>  <cluster>  (34) 
4

$$$$

     RDKit          3D

 55 58  0  0  0  0  0  0  0  0999 V2000
  139.1790   67.2780  226.4280 N   0  0  0  0  0  0  0  0  0  0  0  0
  140.3420   68.5490  226.6790 S   0  0  0  0  0  0  0  0  0  0  0  0
  140.1900   69.1570  228.0360 O   0  0  0  0  0  0  0  0  0  0  0  0
  141.7460   68.0010  226.5580 O   0  0  0  0  0  0  0  0  0  0  0  0
  140.1450   69.7450  225.4100 C   0  0  0  0  0  0  0  0  0  0  0  0
  139.2250   69.5090  224.3960 C   0  0  0  0  0  0  0  0  0  0  0  0
  139.0590   70.4440  223.3910 C   0  0  0  0  0  0  0  0  0  0  0  0
  139.7780   71.6190  223.3500 C   0  0  0  0  0  0  0  0  0  0  0  0
  139.6240   72.6210  222.3050 C   0  0  0  0  0  0  0  0  0  0  0  0
  140.5400   72.9340  221.4270 C   0  0  0  0  0  0  0  0  0  0  0  0
  140.9210   74.3410  221.1710 C   0  0  0  0  0  0  0  0  0  0  0  0
  140.3720   75.2470  221.9970 N   0  0  0  0  0  0  0  0  0  0  0  0
  140.6340   76.5550  221.8720 C   0  0  0  0  0  0  0  0  0  0  0  0
  140.0750   77.4940  222.7140 C   0  0  0  0  0  0  0  0  0  0  0  0
  140.3530   78.8460  222.5740 C   0  0  0  0  0  0  0  0  0  0  0  0
  141.2030   79.2380  221.5730 C   0  0  0  0  0  0  0  0  0  0  0  0
  141.5580   80.9580  221.3950 Cl  0  0  0  0  0  0  0  0  0  0  0  0
  141.7510   78.2870  220.7420 C   0  0  0  0  0  0  0  0  0  0  0  0
  141.4900   76.9400  220.8620 C   0  0  0  0  0  0  0  0  0  0  0  0
  142.0370   75.9830  220.0320 C   0  0  0  0  0  0  0  0  0  0  0  0
  142.8120   76.4060  219.1300 O   0  0  0  0  0  0  0  0  0  0  0  0
  141.7620   74.6570  220.1700 N   0  0  0  0  0  0  0  0  0  0  0  0
  142.3220   73.6640  219.2980 C   0  0  0  0  0  0  0  0  0  0  0  0
  143.8010   73.4330  219.4660 C   0  0  0  0  0  0  0  0  0  0  0  0
  144.0660   71.9770  219.1260 C   0  0  0  0  0  0  0  0  0  0  0  0
  145.3780   71.5000  219.7020 C   0  0  0  0  0  0  0  0  0  0  0  0
  146.3110   72.6330  220.0700 C   0  0  0  0  0  0  0  0  0  0  0  0
  145.7170   73.5760  221.0660 C   0  0  0  0  0  0  0  0  0  0  0  0
  144.2300   73.7880  220.8460 C   0  0  0  0  0  0  0  0  0  0  0  0
  140.6850   71.8140  224.3840 C   0  0  0  0  0  0  0  0  0  0  0  0
  140.8820   70.9190  225.3960 C   0  0  0  0  0  0  0  0  0  0  0  0
  139.4480   66.7630  225.5670 H   0  0  0  0  0  0  0  0  0  0  0  0
  139.1820   66.6220  227.2450 H   0  0  0  0  0  0  0  0  0  0  0  0
  138.6316   68.5828  224.3927 H   0  0  0  0  0  0  0  0  0  0  0  0
  138.3265   70.2427  222.5954 H   0  0  0  0  0  0  0  0  0  0  0  0
  138.6639   73.1550  222.2503 H   0  0  0  0  0  0  0  0  0  0  0  0
  141.0401   72.1319  220.8644 H   0  0  0  0  0  0  0  0  0  0  0  0
  139.3948   77.1639  223.5129 H   0  0  0  0  0  0  0  0  0  0  0  0
  139.9015   79.5863  223.2509 H   0  0  0  0  0  0  0  0  0  0  0  0
  142.4305   78.6191  219.9432 H   0  0  0  0  0  0  0  0  0  0  0  0
  141.8040   72.7122  219.4870 H   0  0  0  0  0  0  0  0  0  0  0  0
  142.1831   74.0398  218.2736 H   0  0  0  0  0  0  0  0  0  0  0  0
  144.3895   74.0758  218.7949 H   0  0  0  0  0  0  0  0  0  0  0  0
  143.2517   71.3612  219.5355 H   0  0  0  0  0  0  0  0  0  0  0  0
  144.1175   71.8839  218.0312 H   0  0  0  0  0  0  0  0  0  0  0  0
  145.1694   70.9102  220.6068 H   0  0  0  0  0  0  0  0  0  0  0  0
  145.8785   70.9013  218.9267 H   0  0  0  0  0  0  0  0  0  0  0  0
  147.2307   72.2058  220.4963 H   0  0  0  0  0  0  0  0  0  0  0  0
  146.5123   73.2058  219.1527 H   0  0  0  0  0  0  0  0  0  0  0  0
  145.8700   73.1664  222.0754 H   0  0  0  0  0  0  0  0  0  0  0  0
  146.2161   74.5489  220.9462 H   0  0  0  0  0  0  0  0  0  0  0  0
  143.6751   73.1616  221.5599 H   0  0  0  0  0  0  0  0  0  0  0  0
  144.0193   74.8571  220.9965 H   0  0  0  0  0  0  0  0  0  0  0  0
  141.2773   72.7409  224.3876 H   0  0  0  0  0  0  0  0  0  0  0  0
  141.6153   71.1266  226.1892 H   0  0  0  0  0  0  0  0  0  0  0  0
  1  2  1  0
  2  3  2  0
  2  4  2  0
  2  5  1  0
  5  6  2  0
  6  7  1  0
  7  8  2  0
  8  9  1  0
  9 10  2  0
 10 11  1  0
 11 12  2  0
 12 13  1  0
 13 14  2  0
 14 15  1  0
 15 16  2  0
 16 17  1  0
 16 18  1  0
 18 19  2  0
 19 20  1  0
 20 21  2  0
 20 22  1  0
 22 23  1  0
 23 24  1  0
 24 25  1  0
 25 26  1  0
 26 27  1  0
 27 28  1  0
 28 29  1  0
  8 30  1  0
 30 31  2  0
 31  5  1  0
 22 11  1  0
 29 24  1  0
 19 13  1  0
  1 32  1  0
  1 33  1  0
  6 34  1  0
  7 35  1  0
  9 36  1  0
 10 37  1  0
 14 38  1  0
 15 39  1  0
 18 40  1  0
 23 41  1  0
 23 42  1  0
 24 43  1  0
 25 44  1  0
 25 45  1  0
 26 46  1  0
 26 47  1  0
 27 48  1  0
 27 49  1  0
 28 50  1  0
 28 51  1  0
 29 52  1  0
 29 53  1  0
 30 54  1  0
 31 55  1  0
M  END
>  <smiles>  (35) 
NS(=O)(=O)c1ccc(/C=C/c2nc3ccc(Cl)cc3c(=O)n2CC2CCCCC2)cc1

>  <score_type>  (35) 
oracle

>  <origin>  (35) 
autodockgpu

>  <m_score__min__energy>  (35) 
-9.4900000000000002

>  <m_primary>  (35) 
energy

>  <rmsd>  (35) 
5.670942907011523

>  <m_score__min__rmsd>  (35) 
5.670942907011523

>  <meeko>  (35) 
{"free_energy": -9.43, "intermolecular_energy": -11.52, "internal_energy": -1.36, "cluster_size": 12, "cluster_id": 1, "rank_in_cluster": 2}

>  <energy>  (35) 
-8.66

>  <cluster_rmsd>  (35) 
0.0

>  <cluster>  (35) 
5

$$$$

     RDKit          3D

 55 58  0  0  0  0  0  0  0  0999 V2000
  139.1680   67.2050  226.4040 N   0  0  0  0  0  0  0  0  0  0  0  0
  139.9430   68.6650  226.9510 S   0  0  0  0  0  0  0  0  0  0  0  0
  139.2500   69.2240  228.1520 O   0  0  0  0  0  0  0  0  0  0  0  0
  141.3810   68.3850  227.3190 O   0  0  0  0  0  0  0  0  0  0  0  0
  139.9640   69.8160  225.6260 C   0  0  0  0  0  0  0  0  0  0  0  0
  139.1990   69.5600  224.4950 C   0  0  0  0  0  0  0  0  0  0  0  0
  139.2070   70.4580  223.4440 C   0  0  0  0  0  0  0  0  0  0  0  0
  139.9530   71.6170  223.4710 C   0  0  0  0  0  0  0  0  0  0  0  0
  139.9800   72.5810  222.3800 C   0  0  0  0  0  0  0  0  0  0  0  0
  141.0630   73.0180  221.7940 C   0  0  0  0  0  0  0  0  0  0  0  0
  141.1930   74.4250  221.3530 C   0  0  0  0  0  0  0  0  0  0  0  0
  140.6780   75.3420  222.1900 N   0  0  0  0  0  0  0  0  0  0  0  0
  140.7290   76.6510  221.9080 C   0  0  0  0  0  0  0  0  0  0  0  0
  140.2040   77.6010  222.7600 C   0  0  0  0  0  0  0  0  0  0  0  0
  140.2620   78.9530  222.4580 C   0  0  0  0  0  0  0  0  0  0  0  0
  140.8570   79.3350  221.2840 C   0  0  0  0  0  0  0  0  0  0  0  0
  140.9310   81.0560  220.8990 Cl  0  0  0  0  0  0  0  0  0  0  0  0
  141.3750   78.3740  220.4460 C   0  0  0  0  0  0  0  0  0  0  0  0
  141.3300   77.0250  220.7260 C   0  0  0  0  0  0  0  0  0  0  0  0
  141.8480   76.0580  219.8890 C   0  0  0  0  0  0  0  0  0  0  0  0
  142.3850   76.4720  218.8240 O   0  0  0  0  0  0  0  0  0  0  0  0
  141.7900   74.7310  220.1870 N   0  0  0  0  0  0  0  0  0  0  0  0
  142.3190   73.7250  219.3110 C   0  0  0  0  0  0  0  0  0  0  0  0
  143.8020   73.4910  219.4360 C   0  0  0  0  0  0  0  0  0  0  0  0
  144.0440   72.0170  219.1610 C   0  0  0  0  0  0  0  0  0  0  0  0
  145.3730   71.5580  219.7120 C   0  0  0  0  0  0  0  0  0  0  0  0
  146.3260   72.7000  219.9870 C   0  0  0  0  0  0  0  0  0  0  0  0
  145.7760   73.6970  220.9550 C   0  0  0  0  0  0  0  0  0  0  0  0
  144.2830   73.9110  220.7790 C   0  0  0  0  0  0  0  0  0  0  0  0
  140.7020   71.8340  224.6200 C   0  0  0  0  0  0  0  0  0  0  0  0
  140.7240   70.9740  225.6810 C   0  0  0  0  0  0  0  0  0  0  0  0
  139.2150   66.5110  227.1750 H   0  0  0  0  0  0  0  0  0  0  0  0
  138.1670   67.3970  226.1650 H   0  0  0  0  0  0  0  0  0  0  0  0
  138.5893   68.6463  224.4360 H   0  0  0  0  0  0  0  0  0  0  0  0
  138.5968   70.2402  222.5551 H   0  0  0  0  0  0  0  0  0  0  0  0
  139.0157   72.9708  222.0221 H   0  0  0  0  0  0  0  0  0  0  0  0
  141.8987   72.3232  221.6242 H   0  0  0  0  0  0  0  0  0  0  0  0
  139.7294   77.2789  223.6986 H   0  0  0  0  0  0  0  0  0  0  0  0
  139.8402   79.7016  223.1448 H   0  0  0  0  0  0  0  0  0  0  0  0
  141.8479   78.6981  219.5072 H   0  0  0  0  0  0  0  0  0  0  0  0
  141.8041   72.7776  219.5284 H   0  0  0  0  0  0  0  0  0  0  0  0
  142.1493   74.0878  218.2865 H   0  0  0  0  0  0  0  0  0  0  0  0
  144.3699   74.0942  218.7124 H   0  0  0  0  0  0  0  0  0  0  0  0
  143.2411   71.4300  219.6309 H   0  0  0  0  0  0  0  0  0  0  0  0
  144.0543   71.8682  218.0712 H   0  0  0  0  0  0  0  0  0  0  0  0
  145.1941   71.0167  220.6527 H   0  0  0  0  0  0  0  0  0  0  0  0
  145.8403   70.9160  218.9508 H   0  0  0  0  0  0  0  0  0  0  0  0
  147.2583   72.2873  220.4000 H   0  0  0  0  0  0  0  0  0  0  0  0
  146.4964   73.2240  219.0349 H   0  0  0  0  0  0  0  0  0  0  0  0
  145.9633   73.3373  221.9775 H   0  0  0  0  0  0  0  0  0  0  0  0
  146.2772   74.6582  220.7681 H   0  0  0  0  0  0  0  0  0  0  0  0
  143.7503   73.3262  221.5433 H   0  0  0  0  0  0  0  0  0  0  0  0
  144.0851   74.9880  220.8832 H   0  0  0  0  0  0  0  0  0  0  0  0
  141.3108   72.7483  224.6790 H   0  0  0  0  0  0  0  0  0  0  0  0
  141.3365   71.1973  226.5670 H   0  0  0  0  0  0  0  0  0  0  0  0
  1  2  1  0
  2  3  2  0
  2  4  2  0
  2  5  1  0
  5  6  2  0
  6  7  1  0
  7  8  2  0
  8  9  1  0
  9 10  2  0
 10 11  1  0
 11 12  2  0
 12 13  1  0
 13 14  2  0
 14 15  1  0
 15 16  2  0
 16 17  1  0
 16 18  1  0
 18 19  2  0
 19 20  1  0
 20 21  2  0
 20 22  1  0
 22 23  1  0
 23 24  1  0
 24 25  1  0
 25 26  1  0
 26 27  1  0
 27 28  1  0
 28 29  1  0
  8 30  1  0
 30 31  2  0
 31  5  1  0
 22 11  1  0
 29 24  1  0
 19 13  1  0
  1 32  1  0
  1 33  1  0
  6 34  1  0
  7 35  1  0
  9 36  1  0
 10 37  1  0
 14 38  1  0
 15 39  1  0
 18 40  1  0
 23 41  1  0
 23 42  1  0
 24 43  1  0
 25 44  1  0
 25 45  1  0
 26 46  1  0
 26 47  1  0
 27 48  1  0
 27 49  1  0
 28 50  1  0
 28 51  1  0
 29 52  1  0
 29 53  1  0
 30 54  1  0
 31 55  1  0
M  END
>  <smiles>  (36) 
NS(=O)(=O)c1ccc(/C=C/c2nc3ccc(Cl)cc3c(=O)n2CC2CCCCC2)cc1

>  <score_type>  (36) 
oracle

>  <origin>  (36) 
autodockgpu

>  <m_score__min__energy>  (36) 
-9.4900000000000002

>  <m_primary>  (36) 
energy

>  <rmsd>  (36) 
5.623806222423894

>  <m_score__min__rmsd>  (36) 
5.623806222423894

>  <meeko>  (36) 
{"free_energy": -8.99, "intermolecular_energy": -11.08, "internal_energy": -1.33, "cluster_size": 12, "cluster_id": 1, "rank_in_cluster": 7}

>  <energy>  (36) 
-8.57

>  <cluster_rmsd>  (36) 
0.65

>  <cluster>  (36) 
5

$$$$

     RDKit          3D

 55 58  0  0  0  0  0  0  0  0999 V2000
  139.1880   69.4720  228.0880 N   0  0  0  0  0  0  0  0  0  0  0  0
  139.8310   68.5380  226.7670 S   0  0  0  0  0  0  0  0  0  0  0  0
  141.1170   67.8800  227.1500 O   0  0  0  0  0  0  0  0  0  0  0  0
  138.8490   67.4630  226.3620 O   0  0  0  0  0  0  0  0  0  0  0  0
  140.0360   69.5960  225.3820 C   0  0  0  0  0  0  0  0  0  0  0  0
  140.8220   70.7340  225.5110 C   0  0  0  0  0  0  0  0  0  0  0  0
  140.9920   71.5760  224.4280 C   0  0  0  0  0  0  0  0  0  0  0  0
  140.4060   71.3310  223.2040 C   0  0  0  0  0  0  0  0  0  0  0  0
  140.5680   72.2000  222.0460 C   0  0  0  0  0  0  0  0  0  0  0  0
  139.8190   73.2360  221.7770 C   0  0  0  0  0  0  0  0  0  0  0  0
  140.4040   74.5690  221.5130 C   0  0  0  0  0  0  0  0  0  0  0  0
  140.0200   75.5450  222.3520 N   0  0  0  0  0  0  0  0  0  0  0  0
  140.4760   76.7980  222.2210 C   0  0  0  0  0  0  0  0  0  0  0  0
  140.0870   77.8080  223.0770 C   0  0  0  0  0  0  0  0  0  0  0  0
  140.5660   79.1020  222.9310 C   0  0  0  0  0  0  0  0  0  0  0  0
  141.4410   79.3640  221.9100 C   0  0  0  0  0  0  0  0  0  0  0  0
  142.0500   81.0100  221.7240 Cl  0  0  0  0  0  0  0  0  0  0  0  0
  141.8170   78.3440  221.0660 C   0  0  0  0  0  0  0  0  0  0  0  0
  141.3560   77.0520  221.1910 C   0  0  0  0  0  0  0  0  0  0  0  0
  141.7310   76.0260  220.3470 C   0  0  0  0  0  0  0  0  0  0  0  0
  142.5400   76.3290  219.4270 O   0  0  0  0  0  0  0  0  0  0  0  0
  141.2600   74.7570  220.4910 N   0  0  0  0  0  0  0  0  0  0  0  0
  141.6400   73.6930  219.6060 C   0  0  0  0  0  0  0  0  0  0  0  0
  143.1170   73.3970  219.5670 C   0  0  0  0  0  0  0  0  0  0  0  0
  143.2660   71.9090  219.3050 C   0  0  0  0  0  0  0  0  0  0  0  0
  144.6300   71.4050  219.7130 C   0  0  0  0  0  0  0  0  0  0  0  0
  145.6540   72.5100  219.8470 C   0  0  0  0  0  0  0  0  0  0  0  0
  145.2600   73.5510  220.8450 C   0  0  0  0  0  0  0  0  0  0  0  0
  143.7660   73.8250  220.8350 C   0  0  0  0  0  0  0  0  0  0  0  0
  139.6300   70.1830  223.1190 C   0  0  0  0  0  0  0  0  0  0  0  0
  139.4350   69.3230  224.1630 C   0  0  0  0  0  0  0  0  0  0  0  0
  139.7590   69.2670  228.9310 H   0  0  0  0  0  0  0  0  0  0  0  0
  139.2430   70.4940  227.8660 H   0  0  0  0  0  0  0  0  0  0  0  0
  141.3072   70.9642  226.4710 H   0  0  0  0  0  0  0  0  0  0  0  0
  141.6170   72.4734  224.5468 H   0  0  0  0  0  0  0  0  0  0  0  0
  141.3828   71.9661  221.3450 H   0  0  0  0  0  0  0  0  0  0  0  0
  138.7262   73.1142  221.7460 H   0  0  0  0  0  0  0  0  0  0  0  0
  139.3829   77.5827  223.8916 H   0  0  0  0  0  0  0  0  0  0  0  0
  140.2502   79.8996  223.6196 H   0  0  0  0  0  0  0  0  0  0  0  0
  142.5203   78.5717  220.2515 H   0  0  0  0  0  0  0  0  0  0  0  0
  141.1168   72.7796  219.9254 H   0  0  0  0  0  0  0  0  0  0  0  0
  141.3643   74.0211  218.5929 H   0  0  0  0  0  0  0  0  0  0  0  0
  143.6219   73.9588  218.7674 H   0  0  0  0  0  0  0  0  0  0  0  0
  142.4994   71.3673  219.8784 H   0  0  0  0  0  0  0  0  0  0  0  0
  143.1450   71.7366  218.2253 H   0  0  0  0  0  0  0  0  0  0  0  0
  144.5387   70.8927  220.6821 H   0  0  0  0  0  0  0  0  0  0  0  0
  144.9802   70.7270  218.9207 H   0  0  0  0  0  0  0  0  0  0  0  0
  146.6100   72.0662  220.1617 H   0  0  0  0  0  0  0  0  0  0  0  0
  145.7349   73.0053  218.8681 H   0  0  0  0  0  0  0  0  0  0  0  0
  145.5494   73.2060  221.8486 H   0  0  0  0  0  0  0  0  0  0  0  0
  145.7747   74.4854  220.5767 H   0  0  0  0  0  0  0  0  0  0  0  0
  143.3018   73.2802  221.6703 H   0  0  0  0  0  0  0  0  0  0  0  0
  143.6248   74.9115  220.9327 H   0  0  0  0  0  0  0  0  0  0  0  0
  139.1455   69.9530  222.1586 H   0  0  0  0  0  0  0  0  0  0  0  0
  138.8098   68.4266  224.0378 H   0  0  0  0  0  0  0  0  0  0  0  0
  1  2  1  0
  2  3  2  0
  2  4  2  0
  2  5  1  0
  5  6  2  0
  6  7  1  0
  7  8  2  0
  8  9  1  0
  9 10  2  0
 10 11  1  0
 11 12  2  0
 12 13  1  0
 13 14  2  0
 14 15  1  0
 15 16  2  0
 16 17  1  0
 16 18  1  0
 18 19  2  0
 19 20  1  0
 20 21  2  0
 20 22  1  0
 22 23  1  0
 23 24  1  0
 24 25  1  0
 25 26  1  0
 26 27  1  0
 27 28  1  0
 28 29  1  0
  8 30  1  0
 30 31  2  0
 31  5  1  0
 22 11  1  0
 29 24  1  0
 19 13  1  0
  1 32  1  0
  1 33  1  0
  6 34  1  0
  7 35  1  0
  9 36  1  0
 10 37  1  0
 14 38  1  0
 15 39  1  0
 18 40  1  0
 23 41  1  0
 23 42  1  0
 24 43  1  0
 25 44  1  0
 25 45  1  0
 26 46  1  0
 26 47  1  0
 27 48  1  0
 27 49  1  0
 28 50  1  0
 28 51  1  0
 29 52  1  0
 29 53  1  0
 30 54  1  0
 31 55  1  0
M  END
>  <smiles>  (37) 
NS(=O)(=O)c1ccc(/C=C/c2nc3ccc(Cl)cc3c(=O)n2CC2CCCCC2)cc1

>  <score_type>  (37) 
oracle

>  <origin>  (37) 
autodockgpu

>  <m_score__min__energy>  (37) 
-9.4900000000000002

>  <m_primary>  (37) 
energy

>  <rmsd>  (37) 
5.359167310478912

>  <m_score__min__rmsd>  (37) 
5.359167310478912

>  <meeko>  (37) 
{"free_energy": -8.28, "intermolecular_energy": -10.37, "internal_energy": -1.35, "cluster_size": 12, "cluster_id": 1, "rank_in_cluster": 12}

>  <energy>  (37) 
-8.54

>  <cluster_rmsd>  (37) 
0.6

>  <cluster>  (37) 
5

$$$$

     RDKit          3D

 55 58  0  0  0  0  0  0  0  0999 V2000
  139.2010   67.3410  226.4600 N   0  0  0  0  0  0  0  0  0  0  0  0
  139.9340   68.8840  226.7930 S   0  0  0  0  0  0  0  0  0  0  0  0
  139.3490   69.5020  228.0230 O   0  0  0  0  0  0  0  0  0  0  0  0
  141.4210   68.7200  227.0050 O   0  0  0  0  0  0  0  0  0  0  0  0
  139.7240   69.9180  225.3910 C   0  0  0  0  0  0  0  0  0  0  0  0
  140.5200   71.0480  225.2580 C   0  0  0  0  0  0  0  0  0  0  0  0
  140.3650   71.8710  224.1580 C   0  0  0  0  0  0  0  0  0  0  0  0
  139.4400   71.6130  223.1690 C   0  0  0  0  0  0  0  0  0  0  0  0
  139.2550   72.4610  221.9990 C   0  0  0  0  0  0  0  0  0  0  0  0
  138.2380   73.2590  221.8060 C   0  0  0  0  0  0  0  0  0  0  0  0
  138.3430   74.7170  222.0320 C   0  0  0  0  0  0  0  0  0  0  0  0
  139.5850   75.1800  222.2510 N   0  0  0  0  0  0  0  0  0  0  0  0
  139.8170   76.4810  222.4710 C   0  0  0  0  0  0  0  0  0  0  0  0
  141.0890   76.9670  222.6970 C   0  0  0  0  0  0  0  0  0  0  0  0
  141.3160   78.3160  222.9240 C   0  0  0  0  0  0  0  0  0  0  0  0
  140.2440   79.1690  222.9210 C   0  0  0  0  0  0  0  0  0  0  0  0
  140.5330   80.8860  223.2110 Cl  0  0  0  0  0  0  0  0  0  0  0  0
  138.9830   78.6660  222.6940 C   0  0  0  0  0  0  0  0  0  0  0  0
  138.7320   77.3310  222.4660 C   0  0  0  0  0  0  0  0  0  0  0  0
  137.4700   76.8230  222.2380 C   0  0  0  0  0  0  0  0  0  0  0  0
  136.5230   77.6580  222.2460 O   0  0  0  0  0  0  0  0  0  0  0  0
  137.2480   75.4990  222.0160 N   0  0  0  0  0  0  0  0  0  0  0  0
  135.9330   74.9690  221.7910 C   0  0  0  0  0  0  0  0  0  0  0  0
  135.1860   74.5720  223.0370 C   0  0  0  0  0  0  0  0  0  0  0  0
  135.3440   75.7090  224.0310 C   0  0  0  0  0  0  0  0  0  0  0  0
  135.0720   75.2550  225.4450 C   0  0  0  0  0  0  0  0  0  0  0  0
  134.2890   73.9620  225.5120 C   0  0  0  0  0  0  0  0  0  0  0  0
  134.9760   72.8300  224.8180 C   0  0  0  0  0  0  0  0  0  0  0  0
  135.6990   73.2770  223.5600 C   0  0  0  0  0  0  0  0  0  0  0  0
  138.6660   70.4720  223.3410 C   0  0  0  0  0  0  0  0  0  0  0  0
  138.7850   69.6320  224.4110 C   0  0  0  0  0  0  0  0  0  0  0  0
  139.6360   66.9610  225.5960 H   0  0  0  0  0  0  0  0  0  0  0  0
  139.3710   66.6830  227.2560 H   0  0  0  0  0  0  0  0  0  0  0  0
  141.2712   71.2874  226.0251 H   0  0  0  0  0  0  0  0  0  0  0  0
  141.0023   72.7632  224.0688 H   0  0  0  0  0  0  0  0  0  0  0  0
  140.0298   72.4271  221.2189 H   0  0  0  0  0  0  0  0  0  0  0  0
  137.2807   72.8360  221.4673 H   0  0  0  0  0  0  0  0  0  0  0  0
  141.9400   76.2700  222.6971 H   0  0  0  0  0  0  0  0  0  0  0  0
  142.3339   78.6927  223.1025 H   0  0  0  0  0  0  0  0  0  0  0  0
  138.1336   79.3649  222.6947 H   0  0  0  0  0  0  0  0  0  0  0  0
  135.3414   75.7345  221.2675 H   0  0  0  0  0  0  0  0  0  0  0  0
  136.0685   74.0471  221.2064 H   0  0  0  0  0  0  0  0  0  0  0  0
  134.1168   74.4113  222.8347 H   0  0  0  0  0  0  0  0  0  0  0  0
  136.3726   76.0942  223.9717 H   0  0  0  0  0  0  0  0  0  0  0  0
  134.6150   76.4921  223.7756 H   0  0  0  0  0  0  0  0  0  0  0  0
  136.0345   75.1086  225.9571 H   0  0  0  0  0  0  0  0  0  0  0  0
  134.4630   76.0331  225.9284 H   0  0  0  0  0  0  0  0  0  0  0  0
  134.1472   73.6917  226.5688 H   0  0  0  0  0  0  0  0  0  0  0  0
  133.3297   74.1298  225.0005 H   0  0  0  0  0  0  0  0  0  0  0  0
  135.7086   72.3851  225.5075 H   0  0  0  0  0  0  0  0  0  0  0  0
  134.2071   72.1011  224.5224 H   0  0  0  0  0  0  0  0  0  0  0  0
  136.7692   73.3882  223.7889 H   0  0  0  0  0  0  0  0  0  0  0  0
  135.5277   72.5133  222.7871 H   0  0  0  0  0  0  0  0  0  0  0  0
  137.9160   70.2321  222.5729 H   0  0  0  0  0  0  0  0  0  0  0  0
  138.1452   68.7411  224.4946 H   0  0  0  0  0  0  0  0  0  0  0  0
  1  2  1  0
  2  3  2  0
  2  4  2  0
  2  5  1  0
  5  6  2  0
  6  7  1  0
  7  8  2  0
  8  9  1  0
  9 10  2  0
 10 11  1  0
 11 12  2  0
 12 13  1  0
 13 14  2  0
 14 15  1  0
 15 16  2  0
 16 17  1  0
 16 18  1  0
 18 19  2  0
 19 20  1  0
 20 21  2  0
 20 22  1  0
 22 23  1  0
 23 24  1  0
 24 25  1  0
 25 26  1  0
 26 27  1  0
 27 28  1  0
 28 29  1  0
  8 30  1  0
 30 31  2  0
 31  5  1  0
 22 11  1  0
 29 24  1  0
 19 13  1  0
  1 32  1  0
  1 33  1  0
  6 34  1  0
  7 35  1  0
  9 36  1  0
 10 37  1  0
 14 38  1  0
 15 39  1  0
 18 40  1  0
 23 41  1  0
 23 42  1  0
 24 43  1  0
 25 44  1  0
 25 45  1  0
 26 46  1  0
 26 47  1  0
 27 48  1  0
 27 49  1  0
 28 50  1  0
 28 51  1  0
 29 52  1  0
 29 53  1  0
 30 54  1  0
 31 55  1  0
M  END
>  <smiles>  (38) 
NS(=O)(=O)c1ccc(/C=C/c2nc3ccc(Cl)cc3c(=O)n2CC2CCCCC2)cc1

>  <score_type>  (38) 
oracle

>  <origin>  (38) 
autodockgpu

>  <m_score__min__energy>  (38) 
-9.4900000000000002

>  <m_primary>  (38) 
energy

>  <rmsd>  (38) 
7.010638291556476

>  <m_score__min__rmsd>  (38) 
7.010638291556476

>  <meeko>  (38) 
{"free_energy": -8.46, "intermolecular_energy": -10.54, "internal_energy": -1.56, "cluster_size": 8, "cluster_id": 5, "rank_in_cluster": 4}

>  <energy>  (38) 
-8.46

>  <cluster_rmsd>  (38) 
0.81

>  <cluster>  (38) 
5

$$$$

     RDKit          3D

 55 58  0  0  0  0  0  0  0  0999 V2000
  139.1590   67.3060  226.4800 N   0  0  0  0  0  0  0  0  0  0  0  0
  139.7770   68.8280  227.0560 S   0  0  0  0  0  0  0  0  0  0  0  0
  138.8470   69.4430  228.0530 O   0  0  0  0  0  0  0  0  0  0  0  0
  141.1200   68.6270  227.7200 O   0  0  0  0  0  0  0  0  0  0  0  0
  140.0360   69.8840  225.6790 C   0  0  0  0  0  0  0  0  0  0  0  0
  139.5900   69.4830  224.4260 C   0  0  0  0  0  0  0  0  0  0  0  0
  139.7870   70.3050  223.3320 C   0  0  0  0  0  0  0  0  0  0  0  0
  140.4170   71.5270  223.4330 C   0  0  0  0  0  0  0  0  0  0  0  0
  140.6380   72.4140  222.2990 C   0  0  0  0  0  0  0  0  0  0  0  0
  139.8430   73.3900  221.9460 C   0  0  0  0  0  0  0  0  0  0  0  0
  140.3670   74.7280  221.5940 C   0  0  0  0  0  0  0  0  0  0  0  0
  139.9980   75.7270  222.4130 N   0  0  0  0  0  0  0  0  0  0  0  0
  140.4030   76.9870  222.2050 C   0  0  0  0  0  0  0  0  0  0  0  0
  140.0300   78.0200  223.0400 C   0  0  0  0  0  0  0  0  0  0  0  0
  140.4550   79.3200  222.8140 C   0  0  0  0  0  0  0  0  0  0  0  0
  141.2610   79.5660  221.7330 C   0  0  0  0  0  0  0  0  0  0  0  0
  141.8020   81.2210  221.4440 Cl  0  0  0  0  0  0  0  0  0  0  0  0
  141.6230   78.5230  220.9100 C   0  0  0  0  0  0  0  0  0  0  0  0
  141.2140   77.2240  221.1150 C   0  0  0  0  0  0  0  0  0  0  0  0
  141.5740   76.1750  220.2940 C   0  0  0  0  0  0  0  0  0  0  0  0
  142.3190   76.4640  219.3170 O   0  0  0  0  0  0  0  0  0  0  0  0
  141.1560   74.8990  220.5170 N   0  0  0  0  0  0  0  0  0  0  0  0
  141.5210   73.8110  219.6550 C   0  0  0  0  0  0  0  0  0  0  0  0
  142.9910   73.4860  219.6330 C   0  0  0  0  0  0  0  0  0  0  0  0
  143.1110   71.9730  219.5880 C   0  0  0  0  0  0  0  0  0  0  0  0
  144.4760   71.5080  220.0390 C   0  0  0  0  0  0  0  0  0  0  0  0
  145.5200   72.6020  219.9920 C   0  0  0  0  0  0  0  0  0  0  0  0
  145.1630   73.7840  220.8350 C   0  0  0  0  0  0  0  0  0  0  0  0
  143.6740   74.0810  220.8130 C   0  0  0  0  0  0  0  0  0  0  0  0
  140.8450   71.8890  224.7030 C   0  0  0  0  0  0  0  0  0  0  0  0
  140.6720   71.1090  225.8110 C   0  0  0  0  0  0  0  0  0  0  0  0
  139.4740   66.5640  227.1350 H   0  0  0  0  0  0  0  0  0  0  0  0
  138.1120   67.3300  226.4520 H   0  0  0  0  0  0  0  0  0  0  0  0
  139.0819   68.5149  224.3047 H   0  0  0  0  0  0  0  0  0  0  0  0
  139.4286   69.9724  222.3467 H   0  0  0  0  0  0  0  0  0  0  0  0
  141.5420   72.2503  221.6940 H   0  0  0  0  0  0  0  0  0  0  0  0
  138.7581   73.2120  221.9098 H   0  0  0  0  0  0  0  0  0  0  0  0
  139.3819   77.8076  223.9030 H   0  0  0  0  0  0  0  0  0  0  0  0
  140.1522   80.1357  223.4870 H   0  0  0  0  0  0  0  0  0  0  0  0
  142.2703   78.7378  220.0469 H   0  0  0  0  0  0  0  0  0  0  0  0
  140.9776   72.9143  219.9876 H   0  0  0  0  0  0  0  0  0  0  0  0
  141.2589   74.1248  218.6338 H   0  0  0  0  0  0  0  0  0  0  0  0
  143.4875   73.9173  218.7512 H   0  0  0  0  0  0  0  0  0  0  0  0
  142.3486   71.5349  220.2489 H   0  0  0  0  0  0  0  0  0  0  0  0
  142.9639   71.6477  218.5475 H   0  0  0  0  0  0  0  0  0  0  0  0
  144.3975   71.1430  221.0737 H   0  0  0  0  0  0  0  0  0  0  0  0
  144.7985   70.7162  219.3468 H   0  0  0  0  0  0  0  0  0  0  0  0
  146.4753   72.1910  220.3505 H   0  0  0  0  0  0  0  0  0  0  0  0
  145.5883   72.9483  218.9502 H   0  0  0  0  0  0  0  0  0  0  0  0
  145.4680   73.5831  221.8726 H   0  0  0  0  0  0  0  0  0  0  0  0
  145.6862   74.6599  220.4239 H   0  0  0  0  0  0  0  0  0  0  0  0
  143.2192   73.6717  221.7271 H   0  0  0  0  0  0  0  0  0  0  0  0
  143.5521   75.1726  220.7540 H   0  0  0  0  0  0  0  0  0  0  0  0
  141.3516   72.8579  224.8238 H   0  0  0  0  0  0  0  0  0  0  0  0
  141.0320   71.4478  226.7937 H   0  0  0  0  0  0  0  0  0  0  0  0
  1  2  1  0
  2  3  2  0
  2  4  2  0
  2  5  1  0
  5  6  2  0
  6  7  1  0
  7  8  2  0
  8  9  1  0
  9 10  2  0
 10 11  1  0
 11 12  2  0
 12 13  1  0
 13 14  2  0
 14 15  1  0
 15 16  2  0
 16 17  1  0
 16 18  1  0
 18 19  2  0
 19 20  1  0
 20 21  2  0
 20 22  1  0
 22 23  1  0
 23 24  1  0
 24 25  1  0
 25 26  1  0
 26 27  1  0
 27 28  1  0
 28 29  1  0
  8 30  1  0
 30 31  2  0
 31  5  1  0
 22 11  1  0
 29 24  1  0
 19 13  1  0
  1 32  1  0
  1 33  1  0
  6 34  1  0
  7 35  1  0
  9 36  1  0
 10 37  1  0
 14 38  1  0
 15 39  1  0
 18 40  1  0
 23 41  1  0
 23 42  1  0
 24 43  1  0
 25 44  1  0
 25 45  1  0
 26 46  1  0
 26 47  1  0
 27 48  1  0
 27 49  1  0
 28 50  1  0
 28 51  1  0
 29 52  1  0
 29 53  1  0
 30 54  1  0
 31 55  1  0
M  END
>  <smiles>  (39) 
NS(=O)(=O)c1ccc(/C=C/c2nc3ccc(Cl)cc3c(=O)n2CC2CCCCC2)cc1

>  <score_type>  (39) 
oracle

>  <origin>  (39) 
autodockgpu

>  <m_score__min__energy>  (39) 
-9.4900000000000002

>  <m_primary>  (39) 
energy

>  <rmsd>  (39) 
5.235442927183711

>  <m_score__min__rmsd>  (39) 
5.235442927183711

>  <meeko>  (39) 
{"free_energy": -8.78, "intermolecular_energy": -10.86, "internal_energy": -1.38, "cluster_size": 12, "cluster_id": 1, "rank_in_cluster": 11}

>  <energy>  (39) 
-8.37

>  <cluster_rmsd>  (39) 
0.65

>  <cluster>  (39) 
5

$$$$

     RDKit          3D

 55 58  0  0  0  0  0  0  0  0999 V2000
  139.2180   67.0650  226.4600 N   0  0  0  0  0  0  0  0  0  0  0  0
  139.9550   68.5670  226.9410 S   0  0  0  0  0  0  0  0  0  0  0  0
  139.2920   69.1250  228.1600 O   0  0  0  0  0  0  0  0  0  0  0  0
  141.4180   68.3530  227.2520 O   0  0  0  0  0  0  0  0  0  0  0  0
  139.8730   69.6870  225.5930 C   0  0  0  0  0  0  0  0  0  0  0  0
  138.8150   69.5910  224.6980 C   0  0  0  0  0  0  0  0  0  0  0  0
  138.7380   70.4670  223.6310 C   0  0  0  0  0  0  0  0  0  0  0  0
  139.6810   71.4490  223.4140 C   0  0  0  0  0  0  0  0  0  0  0  0
  139.6250   72.3860  222.3000 C   0  0  0  0  0  0  0  0  0  0  0  0
  138.5840   73.1090  221.9810 C   0  0  0  0  0  0  0  0  0  0  0  0
  138.5570   74.5710  222.2030 C   0  0  0  0  0  0  0  0  0  0  0  0
  139.7580   75.1720  222.2390 N   0  0  0  0  0  0  0  0  0  0  0  0
  139.8720   76.4930  222.4340 C   0  0  0  0  0  0  0  0  0  0  0  0
  141.1010   77.1200  222.4730 C   0  0  0  0  0  0  0  0  0  0  0  0
  141.2070   78.4880  222.6770 C   0  0  0  0  0  0  0  0  0  0  0  0
  140.0570   79.2150  222.8430 C   0  0  0  0  0  0  0  0  0  0  0  0
  140.1910   80.9560  223.1030 Cl  0  0  0  0  0  0  0  0  0  0  0  0
  138.8410   78.5720  222.8020 C   0  0  0  0  0  0  0  0  0  0  0  0
  138.7110   77.2160  222.6000 C   0  0  0  0  0  0  0  0  0  0  0  0
  137.4930   76.5670  222.5580 C   0  0  0  0  0  0  0  0  0  0  0  0
  136.4710   77.2900  222.7150 O   0  0  0  0  0  0  0  0  0  0  0  0
  137.3910   75.2250  222.3580 N   0  0  0  0  0  0  0  0  0  0  0  0
  136.1250   74.5490  222.3260 C   0  0  0  0  0  0  0  0  0  0  0  0
  135.6300   74.0650  223.6640 C   0  0  0  0  0  0  0  0  0  0  0  0
  134.7770   72.8360  223.4050 C   0  0  0  0  0  0  0  0  0  0  0  0
  133.8510   72.5460  224.5620 C   0  0  0  0  0  0  0  0  0  0  0  0
  134.2780   73.2220  225.8460 C   0  0  0  0  0  0  0  0  0  0  0  0
  134.3640   74.7090  225.7210 C   0  0  0  0  0  0  0  0  0  0  0  0
  134.8830   75.1460  224.3630 C   0  0  0  0  0  0  0  0  0  0  0  0
  140.7200   71.5100  224.3330 C   0  0  0  0  0  0  0  0  0  0  0  0
  140.8360   70.6660  225.4010 C   0  0  0  0  0  0  0  0  0  0  0  0
  139.6470   66.7720  225.5610 H   0  0  0  0  0  0  0  0  0  0  0  0
  139.3900   66.3310  227.1870 H   0  0  0  0  0  0  0  0  0  0  0  0
  138.0417   68.8213  224.8375 H   0  0  0  0  0  0  0  0  0  0  0  0
  137.8946   70.3772  222.9306 H   0  0  0  0  0  0  0  0  0  0  0  0
  140.5274   72.4932  221.6802 H   0  0  0  0  0  0  0  0  0  0  0  0
  137.7059   72.6179  221.5363 H   0  0  0  0  0  0  0  0  0  0  0  0
  142.0150   76.5227  222.3396 H   0  0  0  0  0  0  0  0  0  0  0  0
  142.1914   78.9781  222.7049 H   0  0  0  0  0  0  0  0  0  0  0  0
  137.9281   79.1705  222.9372 H   0  0  0  0  0  0  0  0  0  0  0  0
  135.3771   75.2436  221.9159 H   0  0  0  0  0  0  0  0  0  0  0  0
  136.2706   73.6509  221.7078 H   0  0  0  0  0  0  0  0  0  0  0  0
  136.4622   73.7954  224.3309 H   0  0  0  0  0  0  0  0  0  0  0  0
  134.1750   73.0040  222.4998 H   0  0  0  0  0  0  0  0  0  0  0  0
  135.4475   71.9734  223.2774 H   0  0  0  0  0  0  0  0  0  0  0  0
  132.8421   72.8974  224.2998 H   0  0  0  0  0  0  0  0  0  0  0  0
  133.8755   71.4605  224.7383 H   0  0  0  0  0  0  0  0  0  0  0  0
  133.5471   72.9777  226.6309 H   0  0  0  0  0  0  0  0  0  0  0  0
  135.2843   72.8533  226.0937 H   0  0  0  0  0  0  0  0  0  0  0  0
  133.3606   75.1347  225.8695 H   0  0  0  0  0  0  0  0  0  0  0  0
  135.0713   75.0695  226.4825 H   0  0  0  0  0  0  0  0  0  0  0  0
  134.0285   75.4453  223.7383 H   0  0  0  0  0  0  0  0  0  0  0  0
  135.5785   75.9828  224.5243 H   0  0  0  0  0  0  0  0  0  0  0  0
  141.4925   72.2805  224.1934 H   0  0  0  0  0  0  0  0  0  0  0  0
  141.6811   70.7617  226.0985 H   0  0  0  0  0  0  0  0  0  0  0  0
  1  2  1  0
  2  3  2  0
  2  4  2  0
  2  5  1  0
  5  6  2  0
  6  7  1  0
  7  8  2  0
  8  9  1  0
  9 10  2  0
 10 11  1  0
 11 12  2  0
 12 13  1  0
 13 14  2  0
 14 15  1  0
 15 16  2  0
 16 17  1  0
 16 18  1  0
 18 19  2  0
 19 20  1  0
 20 21  2  0
 20 22  1  0
 22 23  1  0
 23 24  1  0
 24 25  1  0
 25 26  1  0
 26 27  1  0
 27 28  1  0
 28 29  1  0
  8 30  1  0
 30 31  2  0
 31  5  1  0
 22 11  1  0
 29 24  1  0
 19 13  1  0
  1 32  1  0
  1 33  1  0
  6 34  1  0
  7 35  1  0
  9 36  1  0
 10 37  1  0
 14 38  1  0
 15 39  1  0
 18 40  1  0
 23 41  1  0
 23 42  1  0
 24 43  1  0
 25 44  1  0
 25 45  1  0
 26 46  1  0
 26 47  1  0
 27 48  1  0
 27 49  1  0
 28 50  1  0
 28 51  1  0
 29 52  1  0
 29 53  1  0
 30 54  1  0
 31 55  1  0
M  END
>  <smiles>  (40) 
NS(=O)(=O)c1ccc(/C=C/c2nc3ccc(Cl)cc3c(=O)n2CC2CCCCC2)cc1

>  <score_type>  (40) 
oracle

>  <origin>  (40) 
autodockgpu

>  <m_score__min__energy>  (40) 
-9.4900000000000002

>  <m_primary>  (40) 
energy

>  <rmsd>  (40) 
7.297349580347445

>  <m_score__min__rmsd>  (40) 
7.297349580347445

>  <meeko>  (40) 
{"free_energy": -8.54, "intermolecular_energy": -10.62, "internal_energy": -1.49, "cluster_size": 8, "cluster_id": 5, "rank_in_cluster": 3}

>  <energy>  (40) 
-8.32

>  <cluster_rmsd>  (40) 
0.82

>  <cluster>  (40) 
5

$$$$

     RDKit          3D

 55 58  0  0  0  0  0  0  0  0999 V2000
  145.9900   73.3850  218.5520 N   0  0  0  0  0  0  0  0  0  0  0  0
  145.7050   72.3740  219.9410 S   0  0  0  0  0  0  0  0  0  0  0  0
  146.2410   70.9960  219.7200 O   0  0  0  0  0  0  0  0  0  0  0  0
  146.3840   72.9580  221.1580 O   0  0  0  0  0  0  0  0  0  0  0  0
  143.9830   72.3510  220.2720 C   0  0  0  0  0  0  0  0  0  0  0  0
  143.3150   73.5540  220.4670 C   0  0  0  0  0  0  0  0  0  0  0  0
  141.9580   73.5510  220.7290 C   0  0  0  0  0  0  0  0  0  0  0  0
  141.2240   72.3860  220.8040 C   0  0  0  0  0  0  0  0  0  0  0  0
  139.7940   72.3510  221.0770 C   0  0  0  0  0  0  0  0  0  0  0  0
  139.2500   72.5570  222.2470 C   0  0  0  0  0  0  0  0  0  0  0  0
  139.3350   71.5520  223.3290 C   0  0  0  0  0  0  0  0  0  0  0  0
  140.1680   71.8590  224.3380 N   0  0  0  0  0  0  0  0  0  0  0  0
  140.3370   71.0330  225.3800 C   0  0  0  0  0  0  0  0  0  0  0  0
  141.1900   71.3380  226.4210 C   0  0  0  0  0  0  0  0  0  0  0  0
  141.3570   70.4750  227.4930 C   0  0  0  0  0  0  0  0  0  0  0  0
  140.6540   69.2990  227.5020 C   0  0  0  0  0  0  0  0  0  0  0  0
  140.8670   68.2000  228.8670 Cl  0  0  0  0  0  0  0  0  0  0  0  0
  139.8080   69.0120  226.4550 C   0  0  0  0  0  0  0  0  0  0  0  0
  139.6250   69.8530  225.3800 C   0  0  0  0  0  0  0  0  0  0  0  0
  138.7780   69.5690  224.3280 C   0  0  0  0  0  0  0  0  0  0  0  0
  138.1560   68.4720  224.3940 O   0  0  0  0  0  0  0  0  0  0  0  0
  138.6150   70.4170  223.2760 N   0  0  0  0  0  0  0  0  0  0  0  0
  137.7430   70.1150  222.1760 C   0  0  0  0  0  0  0  0  0  0  0  0
  138.2350   69.0300  221.2550 C   0  0  0  0  0  0  0  0  0  0  0  0
  137.5590   67.7400  221.6850 C   0  0  0  0  0  0  0  0  0  0  0  0
  138.3030   66.5260  221.1830 C   0  0  0  0  0  0  0  0  0  0  0  0
  139.2380   66.8370  220.0350 C   0  0  0  0  0  0  0  0  0  0  0  0
  140.2680   67.8630  220.3850 C   0  0  0  0  0  0  0  0  0  0  0  0
  139.7200   68.9430  221.3010 C   0  0  0  0  0  0  0  0  0  0  0  0
  141.9310   71.2070  220.6010 C   0  0  0  0  0  0  0  0  0  0  0  0
  143.2710   71.1630  220.3410 C   0  0  0  0  0  0  0  0  0  0  0  0
  145.2500   73.1820  217.8520 H   0  0  0  0  0  0  0  0  0  0  0  0
  145.9470   74.3940  218.8270 H   0  0  0  0  0  0  0  0  0  0  0  0
  143.8645   74.5054  220.4130 H   0  0  0  0  0  0  0  0  0  0  0  0
  141.4453   74.5119  220.8832 H   0  0  0  0  0  0  0  0  0  0  0  0
  139.1208   72.1347  220.2344 H   0  0  0  0  0  0  0  0  0  0  0  0
  138.7159   73.5007  222.4318 H   0  0  0  0  0  0  0  0  0  0  0  0
  141.7488   72.2852  226.3998 H   0  0  0  0  0  0  0  0  0  0  0  0
  142.0388   70.7287  228.3181 H   0  0  0  0  0  0  0  0  0  0  0  0
  139.2505   68.0640  226.4780 H   0  0  0  0  0  0  0  0  0  0  0  0
  136.7721   69.8004  222.5863 H   0  0  0  0  0  0  0  0  0  0  0  0
  137.6839   71.0307  221.5693 H   0  0  0  0  0  0  0  0  0  0  0  0
  137.9791   69.2423  220.2065 H   0  0  0  0  0  0  0  0  0  0  0  0
  137.5216   67.7061  222.7838 H   0  0  0  0  0  0  0  0  0  0  0  0
  136.5464   67.7236  221.2557 H   0  0  0  0  0  0  0  0  0  0  0  0
  138.8932   66.1091  222.0124 H   0  0  0  0  0  0  0  0  0  0  0  0
  137.5534   65.8116  220.8118 H   0  0  0  0  0  0  0  0  0  0  0  0
  139.7519   65.9102  219.7399 H   0  0  0  0  0  0  0  0  0  0  0  0
  138.6294   67.2465  219.2153 H   0  0  0  0  0  0  0  0  0  0  0  0
  141.1073   67.3631  220.8906 H   0  0  0  0  0  0  0  0  0  0  0  0
  140.5910   68.3467  219.4513 H   0  0  0  0  0  0  0  0  0  0  0  0
  140.0285   68.7201  222.3331 H   0  0  0  0  0  0  0  0  0  0  0  0
  140.1220   69.9077  220.9580 H   0  0  0  0  0  0  0  0  0  0  0  0
  141.3806   70.2560  220.6526 H   0  0  0  0  0  0  0  0  0  0  0  0
  143.7783   70.1989  220.1885 H   0  0  0  0  0  0  0  0  0  0  0  0
  1  2  1  0
  2  3  2  0
  2  4  2  0
  2  5  1  0
  5  6  2  0
  6  7  1  0
  7  8  2  0
  8  9  1  0
  9 10  2  0
 10 11  1  0
 11 12  2  0
 12 13  1  0
 13 14  2  0
 14 15  1  0
 15 16  2  0
 16 17  1  0
 16 18  1  0
 18 19  2  0
 19 20  1  0
 20 21  2  0
 20 22  1  0
 22 23  1  0
 23 24  1  0
 24 25  1  0
 25 26  1  0
 26 27  1  0
 27 28  1  0
 28 29  1  0
  8 30  1  0
 30 31  2  0
 31  5  1  0
 22 11  1  0
 29 24  1  0
 19 13  1  0
  1 32  1  0
  1 33  1  0
  6 34  1  0
  7 35  1  0
  9 36  1  0
 10 37  1  0
 14 38  1  0
 15 39  1  0
 18 40  1  0
 23 41  1  0
 23 42  1  0
 24 43  1  0
 25 44  1  0
 25 45  1  0
 26 46  1  0
 26 47  1  0
 27 48  1  0
 27 49  1  0
 28 50  1  0
 28 51  1  0
 29 52  1  0
 29 53  1  0
 30 54  1  0
 31 55  1  0
M  END
>  <smiles>  (41) 
NS(=O)(=O)c1ccc(/C=C/c2nc3ccc(Cl)cc3c(=O)n2CC2CCCCC2)cc1

>  <score_type>  (41) 
oracle

>  <origin>  (41) 
autodockgpu

>  <m_score__min__energy>  (41) 
-9.4900000000000002

>  <m_primary>  (41) 
energy

>  <rmsd>  (41) 
10.983898547343081

>  <m_score__min__rmsd>  (41) 
10.983898547343081

>  <meeko>  (41) 
{"free_energy": -8.12, "intermolecular_energy": -10.21, "internal_energy": -1.84, "cluster_size": 15, "cluster_id": 2, "rank_in_cluster": 12}

>  <energy>  (41) 
-8.27

>  <cluster_rmsd>  (41) 
1.06

>  <cluster>  (41) 
5

$$$$

     RDKit          3D

 55 58  0  0  0  0  0  0  0  0999 V2000
  133.3030   72.9170  227.1930 N   0  0  0  0  0  0  0  0  0  0  0  0
  133.0440   74.4840  226.4800 S   0  0  0  0  0  0  0  0  0  0  0  0
  131.6620   74.5980  225.9210 O   0  0  0  0  0  0  0  0  0  0  0  0
  133.2270   75.5660  227.5190 O   0  0  0  0  0  0  0  0  0  0  0  0
  134.2630   74.7450  225.2450 C   0  0  0  0  0  0  0  0  0  0  0  0
  134.6250   76.0450  224.9160 C   0  0  0  0  0  0  0  0  0  0  0  0
  135.5840   76.2640  223.9450 C   0  0  0  0  0  0  0  0  0  0  0  0
  136.2080   75.2310  223.2780 C   0  0  0  0  0  0  0  0  0  0  0  0
  137.2220   75.4320  222.2520 C   0  0  0  0  0  0  0  0  0  0  0  0
  138.2820   76.1840  222.3840 C   0  0  0  0  0  0  0  0  0  0  0  0
  139.5830   75.8030  221.7910 C   0  0  0  0  0  0  0  0  0  0  0  0
  139.9270   74.5120  221.9350 N   0  0  0  0  0  0  0  0  0  0  0  0
  141.0800   74.0380  221.4440 C   0  0  0  0  0  0  0  0  0  0  0  0
  141.4430   72.7140  221.5870 C   0  0  0  0  0  0  0  0  0  0  0  0
  142.6400   72.2350  221.0760 C   0  0  0  0  0  0  0  0  0  0  0  0
  143.4670   73.1080  220.4200 C   0  0  0  0  0  0  0  0  0  0  0  0
  144.9900   72.4990  219.7690 Cl  0  0  0  0  0  0  0  0  0  0  0  0
  143.0880   74.4250  220.2870 C   0  0  0  0  0  0  0  0  0  0  0  0
  141.9050   74.9240  220.7860 C   0  0  0  0  0  0  0  0  0  0  0  0
  141.5210   76.2430  220.6550 C   0  0  0  0  0  0  0  0  0  0  0  0
  142.3240   76.9980  220.0390 O   0  0  0  0  0  0  0  0  0  0  0  0
  140.3470   76.7120  221.1580 N   0  0  0  0  0  0  0  0  0  0  0  0
  139.9540   78.0870  221.0320 C   0  0  0  0  0  0  0  0  0  0  0  0
  140.5750   79.0190  222.0390 C   0  0  0  0  0  0  0  0  0  0  0  0
  141.5660   79.8890  221.2880 C   0  0  0  0  0  0  0  0  0  0  0  0
  142.5790   80.5110  222.2190 C   0  0  0  0  0  0  0  0  0  0  0  0
  142.1330   80.5130  223.6650 C   0  0  0  0  0  0  0  0  0  0  0  0
  141.8480   79.1410  224.1870 C   0  0  0  0  0  0  0  0  0  0  0  0
  141.2090   78.2460  223.1410 C   0  0  0  0  0  0  0  0  0  0  0  0
  135.8160   73.9480  223.6390 C   0  0  0  0  0  0  0  0  0  0  0  0
  134.8740   73.6860  224.5920 C   0  0  0  0  0  0  0  0  0  0  0  0
  132.8820   72.9240  228.1430 H   0  0  0  0  0  0  0  0  0  0  0  0
  132.8450   72.1770  226.6110 H   0  0  0  0  0  0  0  0  0  0  0  0
  134.1506   76.8964  225.4259 H   0  0  0  0  0  0  0  0  0  0  0  0
  135.8593   77.2993  223.6954 H   0  0  0  0  0  0  0  0  0  0  0  0
  137.0848   74.9109  221.2930 H   0  0  0  0  0  0  0  0  0  0  0  0
  138.2055   77.1240  222.9502 H   0  0  0  0  0  0  0  0  0  0  0  0
  140.7692   72.0248  222.1170 H   0  0  0  0  0  0  0  0  0  0  0  0
  142.9191   71.1776  221.1948 H   0  0  0  0  0  0  0  0  0  0  0  0
  143.7631   75.1124  219.7562 H   0  0  0  0  0  0  0  0  0  0  0  0
  140.2370   78.4325  220.0267 H   0  0  0  0  0  0  0  0  0  0  0  0
  138.8694   78.1156  221.2131 H   0  0  0  0  0  0  0  0  0  0  0  0
  139.8196   79.6592  222.5181 H   0  0  0  0  0  0  0  0  0  0  0  0
  142.0945   79.2702  220.5478 H   0  0  0  0  0  0  0  0  0  0  0  0
  141.0079   80.6997  220.7968 H   0  0  0  0  0  0  0  0  0  0  0  0
  143.5187   79.9442  222.1432 H   0  0  0  0  0  0  0  0  0  0  0  0
  142.7052   81.5600  221.9130 H   0  0  0  0  0  0  0  0  0  0  0  0
  142.9282   80.9634  224.2771 H   0  0  0  0  0  0  0  0  0  0  0  0
  141.1976   81.0890  223.7215 H   0  0  0  0  0  0  0  0  0  0  0  0
  142.7936   78.6836  224.5134 H   0  0  0  0  0  0  0  0  0  0  0  0
  141.1392   79.2401  225.0223 H   0  0  0  0  0  0  0  0  0  0  0  0
  141.9848   77.5939  222.7134 H   0  0  0  0  0  0  0  0  0  0  0  0
  140.4191   77.6634  223.6376 H   0  0  0  0  0  0  0  0  0  0  0  0
  136.2905   73.0966  223.1292 H   0  0  0  0  0  0  0  0  0  0  0  0
  134.6036   72.6486  224.8382 H   0  0  0  0  0  0  0  0  0  0  0  0
  1  2  1  0
  2  3  2  0
  2  4  2  0
  2  5  1  0
  5  6  2  0
  6  7  1  0
  7  8  2  0
  8  9  1  0
  9 10  2  0
 10 11  1  0
 11 12  2  0
 12 13  1  0
 13 14  2  0
 14 15  1  0
 15 16  2  0
 16 17  1  0
 16 18  1  0
 18 19  2  0
 19 20  1  0
 20 21  2  0
 20 22  1  0
 22 23  1  0
 23 24  1  0
 24 25  1  0
 25 26  1  0
 26 27  1  0
 27 28  1  0
 28 29  1  0
  8 30  1  0
 30 31  2  0
 31  5  1  0
 22 11  1  0
 29 24  1  0
 19 13  1  0
  1 32  1  0
  1 33  1  0
  6 34  1  0
  7 35  1  0
  9 36  1  0
 10 37  1  0
 14 38  1  0
 15 39  1  0
 18 40  1  0
 23 41  1  0
 23 42  1  0
 24 43  1  0
 25 44  1  0
 25 45  1  0
 26 46  1  0
 26 47  1  0
 27 48  1  0
 27 49  1  0
 28 50  1  0
 28 51  1  0
 29 52  1  0
 29 53  1  0
 30 54  1  0
 31 55  1  0
M  END
>  <smiles>  (42) 
NS(=O)(=O)c1ccc(/C=C/c2nc3ccc(Cl)cc3c(=O)n2CC2CCCCC2)cc1

>  <score_type>  (42) 
oracle

>  <origin>  (42) 
autodockgpu

>  <m_score__min__energy>  (42) 
-9.4900000000000002

>  <m_primary>  (42) 
energy

>  <rmsd>  (42) 
7.093432190520996

>  <m_score__min__rmsd>  (42) 
7.093432190520996

>  <meeko>  (42) 
{"free_energy": -8.75, "intermolecular_energy": -10.84, "internal_energy": -1.33, "cluster_size": 5, "cluster_id": 3, "rank_in_cluster": 1}

>  <energy>  (42) 
-8.09

>  <cluster_rmsd>  (42) 
1.06

>  <cluster>  (42) 
5

$$$$

     RDKit          3D

 55 58  0  0  0  0  0  0  0  0999 V2000
  144.2610   71.4310  220.6110 N   0  0  0  0  0  0  0  0  0  0  0  0
  145.0780   72.9660  220.5220 S   0  0  0  0  0  0  0  0  0  0  0  0
  145.9520   73.1790  221.7160 O   0  0  0  0  0  0  0  0  0  0  0  0
  145.9430   73.0240  219.2840 O   0  0  0  0  0  0  0  0  0  0  0  0
  143.8740   74.2320  220.3700 C   0  0  0  0  0  0  0  0  0  0  0  0
  142.5890   74.0050  220.8460 C   0  0  0  0  0  0  0  0  0  0  0  0
  141.6300   74.9940  220.7330 C   0  0  0  0  0  0  0  0  0  0  0  0
  141.8980   76.2190  220.1590 C   0  0  0  0  0  0  0  0  0  0  0  0
  140.9100   77.2800  220.0270 C   0  0  0  0  0  0  0  0  0  0  0  0
  139.6360   77.0920  219.8010 C   0  0  0  0  0  0  0  0  0  0  0  0
  138.6660   76.9420  220.9080 C   0  0  0  0  0  0  0  0  0  0  0  0
  138.1720   75.7040  221.0790 N   0  0  0  0  0  0  0  0  0  0  0  0
  137.2830   75.4340  222.0450 C   0  0  0  0  0  0  0  0  0  0  0  0
  136.7690   74.1670  222.2290 C   0  0  0  0  0  0  0  0  0  0  0  0
  135.8500   73.9000  223.2320 C   0  0  0  0  0  0  0  0  0  0  0  0
  135.4550   74.9280  224.0470 C   0  0  0  0  0  0  0  0  0  0  0  0
  134.2840   74.5880  225.3240 Cl  0  0  0  0  0  0  0  0  0  0  0  0
  135.9780   76.1860  223.8490 C   0  0  0  0  0  0  0  0  0  0  0  0
  136.8920   76.4750  222.8600 C   0  0  0  0  0  0  0  0  0  0  0  0
  137.4200   77.7340  222.6580 C   0  0  0  0  0  0  0  0  0  0  0  0
  137.0190   78.6380  223.4420 O   0  0  0  0  0  0  0  0  0  0  0  0
  138.3220   77.9950  221.6730 N   0  0  0  0  0  0  0  0  0  0  0  0
  138.8610   79.3070  221.4550 C   0  0  0  0  0  0  0  0  0  0  0  0
  140.0170   79.6740  222.3480 C   0  0  0  0  0  0  0  0  0  0  0  0
  140.9960   80.4710  221.5030 C   0  0  0  0  0  0  0  0  0  0  0  0
  142.3770   80.4840  222.1140 C   0  0  0  0  0  0  0  0  0  0  0  0
  142.3790   80.1210  223.5830 C   0  0  0  0  0  0  0  0  0  0  0  0
  141.7990   78.7690  223.8490 C   0  0  0  0  0  0  0  0  0  0  0  0
  140.6280   78.4520  222.9360 C   0  0  0  0  0  0  0  0  0  0  0  0
  143.1950   76.4040  219.6970 C   0  0  0  0  0  0  0  0  0  0  0  0
  144.1730   75.4550  219.7880 C   0  0  0  0  0  0  0  0  0  0  0  0
  144.8520   70.7260  220.1290 H   0  0  0  0  0  0  0  0  0  0  0  0
  144.1270   71.1520  221.6110 H   0  0  0  0  0  0  0  0  0  0  0  0
  142.3353   73.0411  221.3114 H   0  0  0  0  0  0  0  0  0  0  0  0
  140.6172   74.7970  221.1144 H   0  0  0  0  0  0  0  0  0  0  0  0
  141.2617   78.3177  220.1247 H   0  0  0  0  0  0  0  0  0  0  0  0
  139.2766   77.0442  218.7625 H   0  0  0  0  0  0  0  0  0  0  0  0
  137.0951   73.3519  221.5662 H   0  0  0  0  0  0  0  0  0  0  0  0
  135.4471   72.8858  223.3703 H   0  0  0  0  0  0  0  0  0  0  0  0
  135.6501   76.9996  224.5127 H   0  0  0  0  0  0  0  0  0  0  0  0
  139.2031   79.3668  220.4113 H   0  0  0  0  0  0  0  0  0  0  0  0
  138.0529   80.0154  221.6896 H   0  0  0  0  0  0  0  0  0  0  0  0
  139.6911   80.2863  223.2018 H   0  0  0  0  0  0  0  0  0  0  0  0
  141.0531   80.0192  220.5017 H   0  0  0  0  0  0  0  0  0  0  0  0
  140.6355   81.5087  221.4464 H   0  0  0  0  0  0  0  0  0  0  0  0
  143.0058   79.7610  221.5738 H   0  0  0  0  0  0  0  0  0  0  0  0
  142.7639   81.5102  222.0289 H   0  0  0  0  0  0  0  0  0  0  0  0
  143.4170   80.1353  223.9467 H   0  0  0  0  0  0  0  0  0  0  0  0
  141.7518   80.8580  224.1060 H   0  0  0  0  0  0  0  0  0  0  0  0
  142.5821   78.0120  223.6949 H   0  0  0  0  0  0  0  0  0  0  0  0
  141.4287   78.7606  224.8848 H   0  0  0  0  0  0  0  0  0  0  0  0
  140.9825   77.8067  222.1188 H   0  0  0  0  0  0  0  0  0  0  0  0
  139.8580   77.9516  223.5416 H   0  0  0  0  0  0  0  0  0  0  0  0
  143.4484   77.3682  219.2322 H   0  0  0  0  0  0  0  0  0  0  0  0
  145.1840   75.6578  219.4049 H   0  0  0  0  0  0  0  0  0  0  0  0
  1  2  1  0
  2  3  2  0
  2  4  2  0
  2  5  1  0
  5  6  2  0
  6  7  1  0
  7  8  2  0
  8  9  1  0
  9 10  2  0
 10 11  1  0
 11 12  2  0
 12 13  1  0
 13 14  2  0
 14 15  1  0
 15 16  2  0
 16 17  1  0
 16 18  1  0
 18 19  2  0
 19 20  1  0
 20 21  2  0
 20 22  1  0
 22 23  1  0
 23 24  1  0
 24 25  1  0
 25 26  1  0
 26 27  1  0
 27 28  1  0
 28 29  1  0
  8 30  1  0
 30 31  2  0
 31  5  1  0
 22 11  1  0
 29 24  1  0
 19 13  1  0
  1 32  1  0
  1 33  1  0
  6 34  1  0
  7 35  1  0
  9 36  1  0
 10 37  1  0
 14 38  1  0
 15 39  1  0
 18 40  1  0
 23 41  1  0
 23 42  1  0
 24 43  1  0
 25 44  1  0
 25 45  1  0
 26 46  1  0
 26 47  1  0
 27 48  1  0
 27 49  1  0
 28 50  1  0
 28 51  1  0
 29 52  1  0
 29 53  1  0
 30 54  1  0
 31 55  1  0
M  END
>  <smiles>  (43) 
NS(=O)(=O)c1ccc(/C=C/c2nc3ccc(Cl)cc3c(=O)n2CC2CCCCC2)cc1

>  <score_type>  (43) 
oracle

>  <origin>  (43) 
autodockgpu

>  <m_score__min__energy>  (43) 
-9.4900000000000002

>  <m_primary>  (43) 
energy

>  <rmsd>  (43) 
6.897353366035571

>  <m_score__min__rmsd>  (43) 
6.897353366035571

>  <meeko>  (43) 
{"free_energy": -7.78, "intermolecular_energy": -9.87, "internal_energy": -1.8, "cluster_size": 4, "cluster_id": 8, "rank_in_cluster": 4}

>  <energy>  (43) 
-8.55

>  <cluster_rmsd>  (43) 
0.0

>  <cluster>  (43) 
6

$$$$

     RDKit          3D

 55 58  0  0  0  0  0  0  0  0999 V2000
  145.9260   73.5100  218.1580 N   0  0  0  0  0  0  0  0  0  0  0  0
  145.8370   72.8540  219.7680 S   0  0  0  0  0  0  0  0  0  0  0  0
  146.3170   71.4380  219.7980 O   0  0  0  0  0  0  0  0  0  0  0  0
  146.6950   73.6670  220.7100 O   0  0  0  0  0  0  0  0  0  0  0  0
  144.1820   72.9860  220.3350 C   0  0  0  0  0  0  0  0  0  0  0  0
  143.5710   74.2340  220.3550 C   0  0  0  0  0  0  0  0  0  0  0  0
  142.2670   74.3520  220.7990 C   0  0  0  0  0  0  0  0  0  0  0  0
  141.5340   73.2680  221.2300 C   0  0  0  0  0  0  0  0  0  0  0  0
  140.1600   73.3620  221.7020 C   0  0  0  0  0  0  0  0  0  0  0  0
  139.3320   72.3550  221.8020 C   0  0  0  0  0  0  0  0  0  0  0  0
  139.4090   71.3970  222.9260 C   0  0  0  0  0  0  0  0  0  0  0  0
  140.1020   71.8180  223.9980 N   0  0  0  0  0  0  0  0  0  0  0  0
  140.2490   71.0450  225.0830 C   0  0  0  0  0  0  0  0  0  0  0  0
  140.9580   71.4670  226.1880 C   0  0  0  0  0  0  0  0  0  0  0  0
  141.1040   70.6580  227.3050 C   0  0  0  0  0  0  0  0  0  0  0  0
  140.5260   69.4160  227.2920 C   0  0  0  0  0  0  0  0  0  0  0  0
  140.7110   68.3850  228.7130 Cl  0  0  0  0  0  0  0  0  0  0  0  0
  139.8220   69.0110  226.1800 C   0  0  0  0  0  0  0  0  0  0  0  0
  139.6630   69.7970  225.0600 C   0  0  0  0  0  0  0  0  0  0  0  0
  138.9590   69.3960  223.9440 C   0  0  0  0  0  0  0  0  0  0  0  0
  138.4480   68.2430  223.9920 O   0  0  0  0  0  0  0  0  0  0  0  0
  138.8170   70.1910  222.8480 N   0  0  0  0  0  0  0  0  0  0  0  0
  138.0940   69.7680  221.6820 C   0  0  0  0  0  0  0  0  0  0  0  0
  138.8710   68.8900  220.7380 C   0  0  0  0  0  0  0  0  0  0  0  0
  138.7350   67.4640  221.2420 C   0  0  0  0  0  0  0  0  0  0  0  0
  139.8240   66.5730  220.6940 C   0  0  0  0  0  0  0  0  0  0  0  0
  140.4980   67.1450  219.4670 C   0  0  0  0  0  0  0  0  0  0  0  0
  141.1150   68.4840  219.7140 C   0  0  0  0  0  0  0  0  0  0  0  0
  140.2880   69.3370  220.6580 C   0  0  0  0  0  0  0  0  0  0  0  0
  142.1830   72.0400  221.1930 C   0  0  0  0  0  0  0  0  0  0  0  0
  143.4690   71.8770  220.7620 C   0  0  0  0  0  0  0  0  0  0  0  0
  145.1370   74.1750  218.0400 H   0  0  0  0  0  0  0  0  0  0  0  0
  146.8340   74.0150  218.0250 H   0  0  0  0  0  0  0  0  0  0  0  0
  144.1226   75.1244  220.0189 H   0  0  0  0  0  0  0  0  0  0  0  0
  141.7980   75.3469  220.8085 H   0  0  0  0  0  0  0  0  0  0  0  0
  139.7905   74.3553  221.9968 H   0  0  0  0  0  0  0  0  0  0  0  0
  138.5593   72.2170  221.0313 H   0  0  0  0  0  0  0  0  0  0  0  0
  141.4174   72.4664  226.1834 H   0  0  0  0  0  0  0  0  0  0  0  0
  141.6709   71.0056  228.1812 H   0  0  0  0  0  0  0  0  0  0  0  0
  139.3642   68.0108  226.1864 H   0  0  0  0  0  0  0  0  0  0  0  0
  137.2059   69.2105  222.0143 H   0  0  0  0  0  0  0  0  0  0  0  0
  137.8498   70.6827  221.1219 H   0  0  0  0  0  0  0  0  0  0  0  0
  138.4784   68.9527  219.7124 H   0  0  0  0  0  0  0  0  0  0  0  0
  138.7952   67.4666  222.3404 H   0  0  0  0  0  0  0  0  0  0  0  0
  137.7657   67.0705  220.9019 H   0  0  0  0  0  0  0  0  0  0  0  0
  140.5844   66.4285  221.4756 H   0  0  0  0  0  0  0  0  0  0  0  0
  139.3528   65.6245  220.3969 H   0  0  0  0  0  0  0  0  0  0  0  0
  141.2863   66.4495  219.1430 H   0  0  0  0  0  0  0  0  0  0  0  0
  139.7247   67.2748  218.6955 H   0  0  0  0  0  0  0  0  0  0  0  0
  142.1130   68.3375  220.1529 H   0  0  0  0  0  0  0  0  0  0  0  0
  141.1719   69.0100  218.7496 H   0  0  0  0  0  0  0  0  0  0  0  0
  140.7321   69.2827  221.6629 H   0  0  0  0  0  0  0  0  0  0  0  0
  140.2920   70.3657  220.2686 H   0  0  0  0  0  0  0  0  0  0  0  0
  141.6309   71.1500  221.5293 H   0  0  0  0  0  0  0  0  0  0  0  0
  143.9322   70.8793  220.7540 H   0  0  0  0  0  0  0  0  0  0  0  0
  1  2  1  0
  2  3  2  0
  2  4  2  0
  2  5  1  0
  5  6  2  0
  6  7  1  0
  7  8  2  0
  8  9  1  0
  9 10  2  0
 10 11  1  0
 11 12  2  0
 12 13  1  0
 13 14  2  0
 14 15  1  0
 15 16  2  0
 16 17  1  0
 16 18  1  0
 18 19  2  0
 19 20  1  0
 20 21  2  0
 20 22  1  0
 22 23  1  0
 23 24  1  0
 24 25  1  0
 25 26  1  0
 26 27  1  0
 27 28  1  0
 28 29  1  0
  8 30  1  0
 30 31  2  0
 31  5  1  0
 22 11  1  0
 29 24  1  0
 19 13  1  0
  1 32  1  0
  1 33  1  0
  6 34  1  0
  7 35  1  0
  9 36  1  0
 10 37  1  0
 14 38  1  0
 15 39  1  0
 18 40  1  0
 23 41  1  0
 23 42  1  0
 24 43  1  0
 25 44  1  0
 25 45  1  0
 26 46  1  0
 26 47  1  0
 27 48  1  0
 27 49  1  0
 28 50  1  0
 28 51  1  0
 29 52  1  0
 29 53  1  0
 30 54  1  0
 31 55  1  0
M  END
>  <smiles>  (44) 
NS(=O)(=O)c1ccc(/C=C/c2nc3ccc(Cl)cc3c(=O)n2CC2CCCCC2)cc1

>  <score_type>  (44) 
oracle

>  <origin>  (44) 
autodockgpu

>  <m_score__min__energy>  (44) 
-9.4900000000000002

>  <m_primary>  (44) 
energy

>  <rmsd>  (44) 
10.826181409324631

>  <m_score__min__rmsd>  (44) 
10.826181409324631

>  <meeko>  (44) 
{"free_energy": -9.05, "intermolecular_energy": -11.14, "internal_energy": -1.82, "cluster_size": 15, "cluster_id": 2, "rank_in_cluster": 1}

>  <energy>  (44) 
-8.34

>  <cluster_rmsd>  (44) 
0.0

>  <cluster>  (44) 
7

$$$$

     RDKit          3D

 55 58  0  0  0  0  0  0  0  0999 V2000
  132.8270   74.4130  227.3660 N   0  0  0  0  0  0  0  0  0  0  0  0
  133.3720   73.1230  226.3320 S   0  0  0  0  0  0  0  0  0  0  0  0
  134.0300   72.0400  227.1260 O   0  0  0  0  0  0  0  0  0  0  0  0
  132.2030   72.5220  225.5870 O   0  0  0  0  0  0  0  0  0  0  0  0
  134.4600   73.7920  225.1290 C   0  0  0  0  0  0  0  0  0  0  0  0
  134.7620   75.1480  225.1700 C   0  0  0  0  0  0  0  0  0  0  0  0
  135.6180   75.6880  224.2280 C   0  0  0  0  0  0  0  0  0  0  0  0
  136.1960   74.9270  223.2340 C   0  0  0  0  0  0  0  0  0  0  0  0
  137.1010   75.4680  222.2300 C   0  0  0  0  0  0  0  0  0  0  0  0
  138.1920   76.1400  222.4900 C   0  0  0  0  0  0  0  0  0  0  0  0
  139.4890   75.7810  221.8730 C   0  0  0  0  0  0  0  0  0  0  0  0
  139.8470   74.4920  221.9910 N   0  0  0  0  0  0  0  0  0  0  0  0
  140.9990   74.0380  221.4770 C   0  0  0  0  0  0  0  0  0  0  0  0
  141.3770   72.7160  221.5930 C   0  0  0  0  0  0  0  0  0  0  0  0
  142.5720   72.2580  221.0580 C   0  0  0  0  0  0  0  0  0  0  0  0
  143.3810   73.1500  220.4050 C   0  0  0  0  0  0  0  0  0  0  0  0
  144.9010   72.5680  219.7240 Cl  0  0  0  0  0  0  0  0  0  0  0  0
  142.9870   74.4650  220.3000 C   0  0  0  0  0  0  0  0  0  0  0  0
  141.8060   74.9430  220.8230 C   0  0  0  0  0  0  0  0  0  0  0  0
  141.4070   76.2600  220.7190 C   0  0  0  0  0  0  0  0  0  0  0  0
  142.1940   77.0340  220.1060 O   0  0  0  0  0  0  0  0  0  0  0  0
  140.2350   76.7090  221.2450 N   0  0  0  0  0  0  0  0  0  0  0  0
  139.8260   78.0810  221.1480 C   0  0  0  0  0  0  0  0  0  0  0  0
  140.4990   79.0140  222.1210 C   0  0  0  0  0  0  0  0  0  0  0  0
  141.4850   79.8510  221.3260 C   0  0  0  0  0  0  0  0  0  0  0  0
  142.5400   80.4640  222.2160 C   0  0  0  0  0  0  0  0  0  0  0  0
  142.1400   80.4970  223.6740 C   0  0  0  0  0  0  0  0  0  0  0  0
  141.8420   79.1400  224.2260 C   0  0  0  0  0  0  0  0  0  0  0  0
  141.1500   78.2430  223.2140 C   0  0  0  0  0  0  0  0  0  0  0  0
  135.8680   73.5770  223.2310 C   0  0  0  0  0  0  0  0  0  0  0  0
  135.0270   73.0020  224.1410 C   0  0  0  0  0  0  0  0  0  0  0  0
  131.9140   74.7510  227.0010 H   0  0  0  0  0  0  0  0  0  0  0  0
  132.7060   74.0630  228.3450 H   0  0  0  0  0  0  0  0  0  0  0  0
  134.3220   75.7887  225.9484 H   0  0  0  0  0  0  0  0  0  0  0  0
  135.8461   76.7632  224.2732 H   0  0  0  0  0  0  0  0  0  0  0  0
  136.8478   75.2986  221.1730 H   0  0  0  0  0  0  0  0  0  0  0  0
  138.1451   76.9924  223.1837 H   0  0  0  0  0  0  0  0  0  0  0  0
  140.7174   72.0112  222.1204 H   0  0  0  0  0  0  0  0  0  0  0  0
  142.8636   71.2019  221.1559 H   0  0  0  0  0  0  0  0  0  0  0  0
  143.6480   75.1684  219.7725 H   0  0  0  0  0  0  0  0  0  0  0  0
  140.0470   78.4322  220.1293 H   0  0  0  0  0  0  0  0  0  0  0  0
  138.7537   78.1013  221.3926 H   0  0  0  0  0  0  0  0  0  0  0  0
  139.7734   79.6781  222.6135 H   0  0  0  0  0  0  0  0  0  0  0  0
  141.9766   79.2099  220.5795 H   0  0  0  0  0  0  0  0  0  0  0  0
  140.9296   80.6665  220.8397 H   0  0  0  0  0  0  0  0  0  0  0  0
  143.4643   79.8754  222.1198 H   0  0  0  0  0  0  0  0  0  0  0  0
  142.6791   81.5054  221.8904 H   0  0  0  0  0  0  0  0  0  0  0  0
  142.9636   80.9388  224.2541 H   0  0  0  0  0  0  0  0  0  0  0  0
  141.2193   81.0941  223.7504 H   0  0  0  0  0  0  0  0  0  0  0  0
  142.7874   78.6666  224.5296 H   0  0  0  0  0  0  0  0  0  0  0  0
  141.1624   79.2675  225.0815 H   0  0  0  0  0  0  0  0  0  0  0  0
  141.8972   77.5672  222.7724 H   0  0  0  0  0  0  0  0  0  0  0  0
  140.3637   77.6854  223.7440 H   0  0  0  0  0  0  0  0  0  0  0  0
  136.3095   72.9363  222.4535 H   0  0  0  0  0  0  0  0  0  0  0  0
  134.8026   71.9263  224.0905 H   0  0  0  0  0  0  0  0  0  0  0  0
  1  2  1  0
  2  3  2  0
  2  4  2  0
  2  5  1  0
  5  6  2  0
  6  7  1  0
  7  8  2  0
  8  9  1  0
  9 10  2  0
 10 11  1  0
 11 12  2  0
 12 13  1  0
 13 14  2  0
 14 15  1  0
 15 16  2  0
 16 17  1  0
 16 18  1  0
 18 19  2  0
 19 20  1  0
 20 21  2  0
 20 22  1  0
 22 23  1  0
 23 24  1  0
 24 25  1  0
 25 26  1  0
 26 27  1  0
 27 28  1  0
 28 29  1  0
  8 30  1  0
 30 31  2  0
 31  5  1  0
 22 11  1  0
 29 24  1  0
 19 13  1  0
  1 32  1  0
  1 33  1  0
  6 34  1  0
  7 35  1  0
  9 36  1  0
 10 37  1  0
 14 38  1  0
 15 39  1  0
 18 40  1  0
 23 41  1  0
 23 42  1  0
 24 43  1  0
 25 44  1  0
 25 45  1  0
 26 46  1  0
 26 47  1  0
 27 48  1  0
 27 49  1  0
 28 50  1  0
 28 51  1  0
 29 52  1  0
 29 53  1  0
 30 54  1  0
 31 55  1  0
M  END
>  <smiles>  (45) 
NS(=O)(=O)c1ccc(/C=C/c2nc3ccc(Cl)cc3c(=O)n2CC2CCCCC2)cc1

>  <score_type>  (45) 
oracle

>  <origin>  (45) 
autodockgpu

>  <m_score__min__energy>  (45) 
-9.4900000000000002

>  <m_primary>  (45) 
energy

>  <rmsd>  (45) 
7.070237557312983

>  <m_score__min__rmsd>  (45) 
7.070237557312983

>  <meeko>  (45) 
{"free_energy": -8.7, "intermolecular_energy": -10.79, "internal_energy": -1.35, "cluster_size": 5, "cluster_id": 3, "rank_in_cluster": 2}

>  <energy>  (45) 
-8.34

>  <cluster_rmsd>  (45) 
0.14

>  <cluster>  (45) 
7

$$$$

     RDKit          3D

 55 58  0  0  0  0  0  0  0  0999 V2000
  141.0940   68.1160  227.8270 N   0  0  0  0  0  0  0  0  0  0  0  0
  140.3980   69.7120  227.8650 S   0  0  0  0  0  0  0  0  0  0  0  0
  139.2050   69.7550  228.7660 O   0  0  0  0  0  0  0  0  0  0  0  0
  141.4120   70.7110  228.3710 O   0  0  0  0  0  0  0  0  0  0  0  0
  139.9860   70.1810  226.2260 C   0  0  0  0  0  0  0  0  0  0  0  0
  138.9300   69.5450  225.5850 C   0  0  0  0  0  0  0  0  0  0  0  0
  138.5940   69.9050  224.2930 C   0  0  0  0  0  0  0  0  0  0  0  0
  139.2730   70.8860  223.6020 C   0  0  0  0  0  0  0  0  0  0  0  0
  138.9410   71.2870  222.2410 C   0  0  0  0  0  0  0  0  0  0  0  0
  139.4960   72.2800  221.5970 C   0  0  0  0  0  0  0  0  0  0  0  0
  139.1460   73.6870  221.8910 C   0  0  0  0  0  0  0  0  0  0  0  0
  140.1860   74.5280  222.0100 N   0  0  0  0  0  0  0  0  0  0  0  0
  140.0060   75.8290  222.2770 C   0  0  0  0  0  0  0  0  0  0  0  0
  141.0670   76.7010  222.4010 C   0  0  0  0  0  0  0  0  0  0  0  0
  140.8680   78.0460  222.6780 C   0  0  0  0  0  0  0  0  0  0  0  0
  139.5840   78.4990  222.8290 C   0  0  0  0  0  0  0  0  0  0  0  0
  139.3290   80.2090  223.1810 Cl  0  0  0  0  0  0  0  0  0  0  0  0
  138.5370   77.6140  222.7010 C   0  0  0  0  0  0  0  0  0  0  0  0
  138.7100   76.2750  222.4260 C   0  0  0  0  0  0  0  0  0  0  0  0
  137.6640   75.3840  222.2970 C   0  0  0  0  0  0  0  0  0  0  0  0
  136.5050   75.8610  222.4450 O   0  0  0  0  0  0  0  0  0  0  0  0
  137.8610   74.0650  222.0260 N   0  0  0  0  0  0  0  0  0  0  0  0
  136.7730   73.1370  221.9040 C   0  0  0  0  0  0  0  0  0  0  0  0
  136.1800   72.6790  223.2110 C   0  0  0  0  0  0  0  0  0  0  0  0
  135.6690   71.2650  222.9970 C   0  0  0  0  0  0  0  0  0  0  0  0
  134.6490   70.8770  224.0410 C   0  0  0  0  0  0  0  0  0  0  0  0
  134.7010   71.7520  225.2740 C   0  0  0  0  0  0  0  0  0  0  0  0
  134.4820   73.1990  224.9700 C   0  0  0  0  0  0  0  0  0  0  0  0
  135.1120   73.6150  223.6530 C   0  0  0  0  0  0  0  0  0  0  0  0
  140.3200   71.4970  224.2800 C   0  0  0  0  0  0  0  0  0  0  0  0
  140.6860   71.1720  225.5550 C   0  0  0  0  0  0  0  0  0  0  0  0
  140.3190   67.4280  227.8890 H   0  0  0  0  0  0  0  0  0  0  0  0
  141.6190   67.9740  226.9320 H   0  0  0  0  0  0  0  0  0  0  0  0
  138.3632   68.7578  226.1036 H   0  0  0  0  0  0  0  0  0  0  0  0
  137.7560   69.3910  223.7994 H   0  0  0  0  0  0  0  0  0  0  0  0
  138.1649   70.7107  221.7160 H   0  0  0  0  0  0  0  0  0  0  0  0
  140.2415   72.0641  220.8175 H   0  0  0  0  0  0  0  0  0  0  0  0
  142.0924   76.3225  222.2778 H   0  0  0  0  0  0  0  0  0  0  0  0
  141.7218   78.7329  222.7741 H   0  0  0  0  0  0  0  0  0  0  0  0
  137.5123   77.9946  222.8243 H   0  0  0  0  0  0  0  0  0  0  0  0
  135.9768   73.6192  221.3179 H   0  0  0  0  0  0  0  0  0  0  0  0
  137.1862   72.2391  221.4214 H   0  0  0  0  0  0  0  0  0  0  0  0
  136.9288   72.6765  224.0168 H   0  0  0  0  0  0  0  0  0  0  0  0
  135.2036   71.2006  222.0024 H   0  0  0  0  0  0  0  0  0  0  0  0
  136.5223   70.5756  223.0776 H   0  0  0  0  0  0  0  0  0  0  0  0
  133.6457   70.9566  223.5971 H   0  0  0  0  0  0  0  0  0  0  0  0
  134.8782   69.8489  224.3580 H   0  0  0  0  0  0  0  0  0  0  0  0
  133.9210   71.4185  225.9742 H   0  0  0  0  0  0  0  0  0  0  0  0
  135.7079   71.6542  225.7060 H   0  0  0  0  0  0  0  0  0  0  0  0
  133.3998   73.3896  224.9198 H   0  0  0  0  0  0  0  0  0  0  0  0
  134.9577   73.7857  225.7697 H   0  0  0  0  0  0  0  0  0  0  0  0
  134.3285   73.6457  222.8815 H   0  0  0  0  0  0  0  0  0  0  0  0
  135.5735   74.6025  223.8008 H   0  0  0  0  0  0  0  0  0  0  0  0
  140.8852   72.2856  223.7618 H   0  0  0  0  0  0  0  0  0  0  0  0
  141.5250   71.6896  226.0431 H   0  0  0  0  0  0  0  0  0  0  0  0
  1  2  1  0
  2  3  2  0
  2  4  2  0
  2  5  1  0
  5  6  2  0
  6  7  1  0
  7  8  2  0
  8  9  1  0
  9 10  2  0
 10 11  1  0
 11 12  2  0
 12 13  1  0
 13 14  2  0
 14 15  1  0
 15 16  2  0
 16 17  1  0
 16 18  1  0
 18 19  2  0
 19 20  1  0
 20 21  2  0
 20 22  1  0
 22 23  1  0
 23 24  1  0
 24 25  1  0
 25 26  1  0
 26 27  1  0
 27 28  1  0
 28 29  1  0
  8 30  1  0
 30 31  2  0
 31  5  1  0
 22 11  1  0
 29 24  1  0
 19 13  1  0
  1 32  1  0
  1 33  1  0
  6 34  1  0
  7 35  1  0
  9 36  1  0
 10 37  1  0
 14 38  1  0
 15 39  1  0
 18 40  1  0
 23 41  1  0
 23 42  1  0
 24 43  1  0
 25 44  1  0
 25 45  1  0
 26 46  1  0
 26 47  1  0
 27 48  1  0
 27 49  1  0
 28 50  1  0
 28 51  1  0
 29 52  1  0
 29 53  1  0
 30 54  1  0
 31 55  1  0
M  END
>  <smiles>  (46) 
NS(=O)(=O)c1ccc(/C=C/c2nc3ccc(Cl)cc3c(=O)n2CC2CCCCC2)cc1

>  <score_type>  (46) 
oracle

>  <origin>  (46) 
autodockgpu

>  <m_score__min__energy>  (46) 
-9.4900000000000002

>  <m_primary>  (46) 
energy

>  <rmsd>  (46) 
7.450314768113828

>  <m_score__min__rmsd>  (46) 
7.450314768113828

>  <meeko>  (46) 
{"free_energy": -8.09, "intermolecular_energy": -10.18, "internal_energy": -1.64, "cluster_size": 8, "cluster_id": 5, "rank_in_cluster": 8}

>  <energy>  (46) 
-8.14

>  <cluster_rmsd>  (46) 
0.0

>  <cluster>  (46) 
8

$$$$

     RDKit          3D

 55 58  0  0  0  0  0  0  0  0999 V2000
  145.9530   73.4590  218.3990 N   0  0  0  0  0  0  0  0  0  0  0  0
  145.7490   72.5440  219.8650 S   0  0  0  0  0  0  0  0  0  0  0  0
  146.3300   71.1730  219.7270 O   0  0  0  0  0  0  0  0  0  0  0  0
  146.4420   73.2390  221.0140 O   0  0  0  0  0  0  0  0  0  0  0  0
  144.0400   72.4840  220.2540 C   0  0  0  0  0  0  0  0  0  0  0  0
  143.4010   71.2510  220.3090 C   0  0  0  0  0  0  0  0  0  0  0  0
  142.0540   71.1900  220.6150 C   0  0  0  0  0  0  0  0  0  0  0  0
  141.3040   72.3170  220.8730 C   0  0  0  0  0  0  0  0  0  0  0  0
  139.8850   72.2830  221.1980 C   0  0  0  0  0  0  0  0  0  0  0  0
  139.3870   72.4420  222.3960 C   0  0  0  0  0  0  0  0  0  0  0  0
  139.5520   71.4130  223.4460 C   0  0  0  0  0  0  0  0  0  0  0  0
  140.1780   71.8220  224.5630 N   0  0  0  0  0  0  0  0  0  0  0  0
  140.3920   70.9870  225.5890 C   0  0  0  0  0  0  0  0  0  0  0  0
  141.0330   71.3970  226.7400 C   0  0  0  0  0  0  0  0  0  0  0  0
  141.2500   70.5240  227.7950 C   0  0  0  0  0  0  0  0  0  0  0  0
  140.8110   69.2310  227.6750 C   0  0  0  0  0  0  0  0  0  0  0  0
  141.0860   68.1200  229.0180 Cl  0  0  0  0  0  0  0  0  0  0  0  0
  140.1730   68.8400  226.5190 C   0  0  0  0  0  0  0  0  0  0  0  0
  139.9460   69.6890  225.4580 C   0  0  0  0  0  0  0  0  0  0  0  0
  139.3070   69.3020  224.2990 C   0  0  0  0  0  0  0  0  0  0  0  0
  138.9250   68.1000  224.2480 O   0  0  0  0  0  0  0  0  0  0  0  0
  139.0960   70.1600  223.2630 N   0  0  0  0  0  0  0  0  0  0  0  0
  138.4420   69.7530  222.0520 C   0  0  0  0  0  0  0  0  0  0  0  0
  136.9590   69.5180  222.1790 C   0  0  0  0  0  0  0  0  0  0  0  0
  136.4980   70.2510  223.4270 C   0  0  0  0  0  0  0  0  0  0  0  0
  135.1780   69.7180  223.9300 C   0  0  0  0  0  0  0  0  0  0  0  0
  134.4150   68.9380  222.8820 C   0  0  0  0  0  0  0  0  0  0  0  0
  135.1820   67.7690  222.3540 C   0  0  0  0  0  0  0  0  0  0  0  0
  136.6670   68.0600  222.2290 C   0  0  0  0  0  0  0  0  0  0  0  0
  141.9820   73.5280  220.8080 C   0  0  0  0  0  0  0  0  0  0  0  0
  143.3110   73.6350  220.5100 C   0  0  0  0  0  0  0  0  0  0  0  0
  145.1710   74.1410  218.3370 H   0  0  0  0  0  0  0  0  0  0  0  0
  146.8650   73.9720  218.4180 H   0  0  0  0  0  0  0  0  0  0  0  0
  143.9645   70.3275  220.1099 H   0  0  0  0  0  0  0  0  0  0  0  0
  141.5633   70.2063  220.6539 H   0  0  0  0  0  0  0  0  0  0  0  0
  139.1785   72.1104  220.3727 H   0  0  0  0  0  0  0  0  0  0  0  0
  138.8321   73.3627  222.6290 H   0  0  0  0  0  0  0  0  0  0  0  0
  141.3790   72.4379  226.8223 H   0  0  0  0  0  0  0  0  0  0  0  0
  141.7629   70.8614  228.7078 H   0  0  0  0  0  0  0  0  0  0  0  0
  139.8277   67.7987  226.4388 H   0  0  0  0  0  0  0  0  0  0  0  0
  138.6001   70.5382  221.2980 H   0  0  0  0  0  0  0  0  0  0  0  0
  138.8845   68.7854  221.7730 H   0  0  0  0  0  0  0  0  0  0  0  0
  136.4110   69.9043  221.3069 H   0  0  0  0  0  0  0  0  0  0  0  0
  137.2562   70.1269  224.2142 H   0  0  0  0  0  0  0  0  0  0  0  0
  136.3654   71.3129  223.1726 H   0  0  0  0  0  0  0  0  0  0  0  0
  135.3714   69.0563  224.7872 H   0  0  0  0  0  0  0  0  0  0  0  0
  134.5596   70.5838  224.2094 H   0  0  0  0  0  0  0  0  0  0  0  0
  133.4796   68.5709  223.3296 H   0  0  0  0  0  0  0  0  0  0  0  0
  134.2258   69.6172  222.0377 H   0  0  0  0  0  0  0  0  0  0  0  0
  135.0450   66.9185  223.0380 H   0  0  0  0  0  0  0  0  0  0  0  0
  134.7986   67.5429  221.3481 H   0  0  0  0  0  0  0  0  0  0  0  0
  137.1859   67.6257  223.0963 H   0  0  0  0  0  0  0  0  0  0  0  0
  137.0165   67.6163  221.2851 H   0  0  0  0  0  0  0  0  0  0  0  0
  141.4179   74.4511  221.0074 H   0  0  0  0  0  0  0  0  0  0  0  0
  143.7962   74.6215  220.4737 H   0  0  0  0  0  0  0  0  0  0  0  0
  1  2  1  0
  2  3  2  0
  2  4  2  0
  2  5  1  0
  5  6  2  0
  6  7  1  0
  7  8  2  0
  8  9  1  0
  9 10  2  0
 10 11  1  0
 11 12  2  0
 12 13  1  0
 13 14  2  0
 14 15  1  0
 15 16  2  0
 16 17  1  0
 16 18  1  0
 18 19  2  0
 19 20  1  0
 20 21  2  0
 20 22  1  0
 22 23  1  0
 23 24  1  0
 24 25  1  0
 25 26  1  0
 26 27  1  0
 27 28  1  0
 28 29  1  0
  8 30  1  0
 30 31  2  0
 31  5  1  0
 22 11  1  0
 29 24  1  0
 19 13  1  0
  1 32  1  0
  1 33  1  0
  6 34  1  0
  7 35  1  0
  9 36  1  0
 10 37  1  0
 14 38  1  0
 15 39  1  0
 18 40  1  0
 23 41  1  0
 23 42  1  0
 24 43  1  0
 25 44  1  0
 25 45  1  0
 26 46  1  0
 26 47  1  0
 27 48  1  0
 27 49  1  0
 28 50  1  0
 28 51  1  0
 29 52  1  0
 29 53  1  0
 30 54  1  0
 31 55  1  0
M  END
>  <smiles>  (47) 
NS(=O)(=O)c1ccc(/C=C/c2nc3ccc(Cl)cc3c(=O)n2CC2CCCCC2)cc1

>  <score_type>  (47) 
oracle

>  <origin>  (47) 
autodockgpu

>  <m_score__min__energy>  (47) 
-9.4900000000000002

>  <m_primary>  (47) 
energy

>  <rmsd>  (47) 
10.969101587308792

>  <m_score__min__rmsd>  (47) 
10.969101587308792

>  <meeko>  (47) 
{"free_energy": -8.86, "intermolecular_energy": -10.95, "internal_energy": -1.44, "cluster_size": 15, "cluster_id": 2, "rank_in_cluster": 2}

>  <energy>  (47) 
-8.1

>  <cluster_rmsd>  (47) 
0.25

>  <cluster>  (47) 
8

$$$$

     RDKit          3D

 55 58  0  0  0  0  0  0  0  0999 V2000
  146.0420   73.3960  218.7320 N   0  0  0  0  0  0  0  0  0  0  0  0
  145.1920   73.2480  220.2440 S   0  0  0  0  0  0  0  0  0  0  0  0
  144.6970   71.8520  220.4470 O   0  0  0  0  0  0  0  0  0  0  0  0
  146.1080   73.6000  221.3930 O   0  0  0  0  0  0  0  0  0  0  0  0
  143.8760   74.4080  220.2600 C   0  0  0  0  0  0  0  0  0  0  0  0
  144.0750   75.6660  219.7040 C   0  0  0  0  0  0  0  0  0  0  0  0
  143.0460   76.5890  219.7100 C   0  0  0  0  0  0  0  0  0  0  0  0
  141.8100   76.3120  220.2520 C   0  0  0  0  0  0  0  0  0  0  0  0
  140.7080   77.2640  220.2720 C   0  0  0  0  0  0  0  0  0  0  0  0
  139.4570   76.9660  220.0350 C   0  0  0  0  0  0  0  0  0  0  0  0
  138.4590   76.8870  221.1250 C   0  0  0  0  0  0  0  0  0  0  0  0
  137.9870   75.6570  221.3870 N   0  0  0  0  0  0  0  0  0  0  0  0
  137.0780   75.4490  222.3490 C   0  0  0  0  0  0  0  0  0  0  0  0
  136.5860   74.1900  222.6270 C   0  0  0  0  0  0  0  0  0  0  0  0
  135.6450   73.9860  223.6240 C   0  0  0  0  0  0  0  0  0  0  0  0
  135.2040   75.0700  224.3380 C   0  0  0  0  0  0  0  0  0  0  0  0
  134.0050   74.8120  225.6080 Cl  0  0  0  0  0  0  0  0  0  0  0  0
  135.7060   76.3190  224.0470 C   0  0  0  0  0  0  0  0  0  0  0  0
  136.6410   76.5450  223.0620 C   0  0  0  0  0  0  0  0  0  0  0  0
  137.1470   77.7940  222.7670 C   0  0  0  0  0  0  0  0  0  0  0  0
  136.7040   78.7520  223.4590 O   0  0  0  0  0  0  0  0  0  0  0  0
  138.0710   77.9930  221.7870 N   0  0  0  0  0  0  0  0  0  0  0  0
  138.5870   79.2940  221.4720 C   0  0  0  0  0  0  0  0  0  0  0  0
  139.7620   79.7300  222.3080 C   0  0  0  0  0  0  0  0  0  0  0  0
  140.7790   80.3430  221.3620 C   0  0  0  0  0  0  0  0  0  0  0  0
  142.1600   80.3760  221.9720 C   0  0  0  0  0  0  0  0  0  0  0  0
  142.1450   80.2340  223.4780 C   0  0  0  0  0  0  0  0  0  0  0  0
  141.4980   78.9670  223.9370 C   0  0  0  0  0  0  0  0  0  0  0  0
  140.3110   78.5790  223.0740 C   0  0  0  0  0  0  0  0  0  0  0  0
  141.6530   75.0430  220.7960 C   0  0  0  0  0  0  0  0  0  0  0  0
  142.6420   74.1000  220.8120 C   0  0  0  0  0  0  0  0  0  0  0  0
  145.4950   74.0310  218.1180 H   0  0  0  0  0  0  0  0  0  0  0  0
  146.9950   73.7980  218.8930 H   0  0  0  0  0  0  0  0  0  0  0  0
  145.0476   75.9262  219.2608 H   0  0  0  0  0  0  0  0  0  0  0  0
  143.2203   77.5803  219.2661 H   0  0  0  0  0  0  0  0  0  0  0  0
  140.9459   78.3126  220.5039 H   0  0  0  0  0  0  0  0  0  0  0  0
  139.1388   76.7693  219.0006 H   0  0  0  0  0  0  0  0  0  0  0  0
  136.9484   73.3299  222.0449 H   0  0  0  0  0  0  0  0  0  0  0  0
  135.2609   72.9776  223.8374 H   0  0  0  0  0  0  0  0  0  0  0  0
  135.3422   77.1779  224.6300 H   0  0  0  0  0  0  0  0  0  0  0  0
  138.9002   79.2912  220.4175 H   0  0  0  0  0  0  0  0  0  0  0  0
  137.7764   80.0068  221.6837 H   0  0  0  0  0  0  0  0  0  0  0  0
  139.4684   80.4775  223.0597 H   0  0  0  0  0  0  0  0  0  0  0  0
  140.8114   79.7466  220.4383 H   0  0  0  0  0  0  0  0  0  0  0  0
  140.4719   81.3782  221.1522 H   0  0  0  0  0  0  0  0  0  0  0  0
  142.7502   79.5502  221.5480 H   0  0  0  0  0  0  0  0  0  0  0  0
  142.5992   81.3571  221.7386 H   0  0  0  0  0  0  0  0  0  0  0  0
  143.1828   80.2500  223.8423 H   0  0  0  0  0  0  0  0  0  0  0  0
  141.5560   81.0704  223.8823 H   0  0  0  0  0  0  0  0  0  0  0  0
  142.2414   78.1571  223.9003 H   0  0  0  0  0  0  0  0  0  0  0  0
  141.1300   79.1296  224.9608 H   0  0  0  0  0  0  0  0  0  0  0  0
  140.6306   77.8027  222.3632 H   0  0  0  0  0  0  0  0  0  0  0  0
  139.5174   78.2139  223.7425 H   0  0  0  0  0  0  0  0  0  0  0  0
  140.6797   74.7834  221.2378 H   0  0  0  0  0  0  0  0  0  0  0  0
  142.4615   73.1102  221.2567 H   0  0  0  0  0  0  0  0  0  0  0  0
  1  2  1  0
  2  3  2  0
  2  4  2  0
  2  5  1  0
  5  6  2  0
  6  7  1  0
  7  8  2  0
  8  9  1  0
  9 10  2  0
 10 11  1  0
 11 12  2  0
 12 13  1  0
 13 14  2  0
 14 15  1  0
 15 16  2  0
 16 17  1  0
 16 18  1  0
 18 19  2  0
 19 20  1  0
 20 21  2  0
 20 22  1  0
 22 23  1  0
 23 24  1  0
 24 25  1  0
 25 26  1  0
 26 27  1  0
 27 28  1  0
 28 29  1  0
  8 30  1  0
 30 31  2  0
 31  5  1  0
 22 11  1  0
 29 24  1  0
 19 13  1  0
  1 32  1  0
  1 33  1  0
  6 34  1  0
  7 35  1  0
  9 36  1  0
 10 37  1  0
 14 38  1  0
 15 39  1  0
 18 40  1  0
 23 41  1  0
 23 42  1  0
 24 43  1  0
 25 44  1  0
 25 45  1  0
 26 46  1  0
 26 47  1  0
 27 48  1  0
 27 49  1  0
 28 50  1  0
 28 51  1  0
 29 52  1  0
 29 53  1  0
 30 54  1  0
 31 55  1  0
M  END
>  <smiles>  (48) 
NS(=O)(=O)c1ccc(/C=C/c2nc3ccc(Cl)cc3c(=O)n2CC2CCCCC2)cc1

>  <score_type>  (48) 
oracle

>  <origin>  (48) 
autodockgpu

>  <m_score__min__energy>  (48) 
-9.4900000000000002

>  <m_primary>  (48) 
energy

>  <rmsd>  (48) 
6.914461250587902

>  <m_score__min__rmsd>  (48) 
6.914461250587902

>  <meeko>  (48) 
{"free_energy": -8.1, "intermolecular_energy": -10.19, "internal_energy": -1.7, "cluster_size": 4, "cluster_id": 8, "rank_in_cluster": 2}

>  <energy>  (48) 
-7.9

>  <cluster_rmsd>  (48) 
0.43

>  <cluster>  (48) 
8

$$$$

     RDKit          3D

 55 58  0  0  0  0  0  0  0  0999 V2000
  139.1750   67.1860  226.4320 N   0  0  0  0  0  0  0  0  0  0  0  0
  140.3610   68.4430  226.6470 S   0  0  0  0  0  0  0  0  0  0  0  0
  140.2640   69.0450  228.0120 O   0  0  0  0  0  0  0  0  0  0  0  0
  141.7530   67.8820  226.4730 O   0  0  0  0  0  0  0  0  0  0  0  0
  140.1300   69.6490  225.3930 C   0  0  0  0  0  0  0  0  0  0  0  0
  140.7870   70.8680  225.4980 C   0  0  0  0  0  0  0  0  0  0  0  0
  140.6150   71.8270  224.5170 C   0  0  0  0  0  0  0  0  0  0  0  0
  139.8050   71.6220  223.4200 C   0  0  0  0  0  0  0  0  0  0  0  0
  139.6050   72.6120  222.3710 C   0  0  0  0  0  0  0  0  0  0  0  0
  140.4910   72.9340  221.4660 C   0  0  0  0  0  0  0  0  0  0  0  0
  140.8700   74.3420  221.2180 C   0  0  0  0  0  0  0  0  0  0  0  0
  140.3080   75.2450  222.0390 N   0  0  0  0  0  0  0  0  0  0  0  0
  140.5660   76.5540  221.9200 C   0  0  0  0  0  0  0  0  0  0  0  0
  139.9940   77.4890  222.7580 C   0  0  0  0  0  0  0  0  0  0  0  0
  140.2680   78.8420  222.6240 C   0  0  0  0  0  0  0  0  0  0  0  0
  141.1270   79.2400  221.6340 C   0  0  0  0  0  0  0  0  0  0  0  0
  141.4770   80.9620  221.4630 Cl  0  0  0  0  0  0  0  0  0  0  0  0
  141.6890   78.2930  220.8070 C   0  0  0  0  0  0  0  0  0  0  0  0
  141.4310   76.9440  220.9210 C   0  0  0  0  0  0  0  0  0  0  0  0
  141.9920   75.9920  220.0950 C   0  0  0  0  0  0  0  0  0  0  0  0
  142.7760   76.4200  219.2030 O   0  0  0  0  0  0  0  0  0  0  0  0
  141.7210   74.6640  220.2270 N   0  0  0  0  0  0  0  0  0  0  0  0
  142.2950   73.6750  219.3590 C   0  0  0  0  0  0  0  0  0  0  0  0
  143.5760   73.0600  219.8580 C   0  0  0  0  0  0  0  0  0  0  0  0
  144.4150   74.1860  220.4370 C   0  0  0  0  0  0  0  0  0  0  0  0
  145.8730   73.8050  220.5260 C   0  0  0  0  0  0  0  0  0  0  0  0
  146.1010   72.3110  220.4630 C   0  0  0  0  0  0  0  0  0  0  0  0
  145.5670   71.6930  219.2110 C   0  0  0  0  0  0  0  0  0  0  0  0
  144.2680   72.3360  218.7580 C   0  0  0  0  0  0  0  0  0  0  0  0
  139.1680   70.3890  223.3540 C   0  0  0  0  0  0  0  0  0  0  0  0
  139.3100   69.4140  224.3000 C   0  0  0  0  0  0  0  0  0  0  0  0
  139.2330   66.5500  227.2510 H   0  0  0  0  0  0  0  0  0  0  0  0
  138.2160   67.6020  226.3770 H   0  0  0  0  0  0  0  0  0  0  0  0
  141.4418   71.0698  226.3585 H   0  0  0  0  0  0  0  0  0  0  0  0
  141.1428   72.7871  224.6150 H   0  0  0  0  0  0  0  0  0  0  0  0
  138.6342   73.1281  222.3379 H   0  0  0  0  0  0  0  0  0  0  0  0
  140.9667   72.1382  220.8740 H   0  0  0  0  0  0  0  0  0  0  0  0
  139.3064   77.1544  223.5488 H   0  0  0  0  0  0  0  0  0  0  0  0
  139.8060   79.5788  223.2975 H   0  0  0  0  0  0  0  0  0  0  0  0
  142.3770   78.6295  220.0174 H   0  0  0  0  0  0  0  0  0  0  0  0
  141.5585   72.8690  219.2251 H   0  0  0  0  0  0  0  0  0  0  0  0
  142.5466   74.1949  218.4228 H   0  0  0  0  0  0  0  0  0  0  0  0
  143.3869   72.3090  220.6391 H   0  0  0  0  0  0  0  0  0  0  0  0
  144.3165   75.0720  219.7926 H   0  0  0  0  0  0  0  0  0  0  0  0
  144.0523   74.3968  221.4539 H   0  0  0  0  0  0  0  0  0  0  0  0
  146.4097   74.2766  219.6896 H   0  0  0  0  0  0  0  0  0  0  0  0
  146.2437   74.1524  221.5016 H   0  0  0  0  0  0  0  0  0  0  0  0
  147.1828   72.1186  220.5156 H   0  0  0  0  0  0  0  0  0  0  0  0
  145.5630   71.8592  221.3094 H   0  0  0  0  0  0  0  0  0  0  0  0
  146.3154   71.8079  218.4130 H   0  0  0  0  0  0  0  0  0  0  0  0
  145.3618   70.6328  219.4207 H   0  0  0  0  0  0  0  0  0  0  0  0
  144.4905   73.0499  217.9512 H   0  0  0  0  0  0  0  0  0  0  0  0
  143.5997   71.5326  218.4147 H   0  0  0  0  0  0  0  0  0  0  0  0
  138.5137   70.1870  222.4931 H   0  0  0  0  0  0  0  0  0  0  0  0
  138.7809   68.4552  224.1961 H   0  0  0  0  0  0  0  0  0  0  0  0
  1  2  1  0
  2  3  2  0
  2  4  2  0
  2  5  1  0
  5  6  2  0
  6  7  1  0
  7  8  2  0
  8  9  1  0
  9 10  2  0
 10 11  1  0
 11 12  2  0
 12 13  1  0
 13 14  2  0
 14 15  1  0
 15 16  2  0
 16 17  1  0
 16 18  1  0
 18 19  2  0
 19 20  1  0
 20 21  2  0
 20 22  1  0
 22 23  1  0
 23 24  1  0
 24 25  1  0
 25 26  1  0
 26 27  1  0
 27 28  1  0
 28 29  1  0
  8 30  1  0
 30 31  2  0
 31  5  1  0
 22 11  1  0
 29 24  1  0
 19 13  1  0
  1 32  1  0
  1 33  1  0
  6 34  1  0
  7 35  1  0
  9 36  1  0
 10 37  1  0
 14 38  1  0
 15 39  1  0
 18 40  1  0
 23 41  1  0
 23 42  1  0
 24 43  1  0
 25 44  1  0
 25 45  1  0
 26 46  1  0
 26 47  1  0
 27 48  1  0
 27 49  1  0
 28 50  1  0
 28 51  1  0
 29 52  1  0
 29 53  1  0
 30 54  1  0
 31 55  1  0
M  END
>  <smiles>  (49) 
NS(=O)(=O)c1ccc(/C=C/c2nc3ccc(Cl)cc3c(=O)n2CC2CCCCC2)cc1

>  <score_type>  (49) 
oracle

>  <origin>  (49) 
autodockgpu

>  <m_score__min__energy>  (49) 
-9.4900000000000002

>  <m_primary>  (49) 
energy

>  <rmsd>  (49) 
5.398418788453359

>  <m_score__min__rmsd>  (49) 
5.398418788453359

>  <meeko>  (49) 
{"free_energy": -9.37, "intermolecular_energy": -11.46, "internal_energy": -1.23, "cluster_size": 12, "cluster_id": 1, "rank_in_cluster": 3}

>  <energy>  (49) 
-7.78

>  <cluster_rmsd>  (49) 
1.26

>  <cluster>  (49) 
8

$$$$

     RDKit          3D

 55 58  0  0  0  0  0  0  0  0999 V2000
  145.9420   73.3870  218.3210 N   0  0  0  0  0  0  0  0  0  0  0  0
  145.6710   72.4910  219.7890 S   0  0  0  0  0  0  0  0  0  0  0  0
  146.3200   71.1460  219.7240 O   0  0  0  0  0  0  0  0  0  0  0  0
  146.2460   73.2400  220.9690 O   0  0  0  0  0  0  0  0  0  0  0  0
  143.9420   72.3610  220.0540 C   0  0  0  0  0  0  0  0  0  0  0  0
  143.2440   71.3150  219.4620 C   0  0  0  0  0  0  0  0  0  0  0  0
  141.8810   71.2010  219.6630 C   0  0  0  0  0  0  0  0  0  0  0  0
  141.1720   72.0940  220.4380 C   0  0  0  0  0  0  0  0  0  0  0  0
  139.7370   71.9980  220.6680 C   0  0  0  0  0  0  0  0  0  0  0  0
  139.1450   72.2210  221.8110 C   0  0  0  0  0  0  0  0  0  0  0  0
  139.2870   71.2900  222.9530 C   0  0  0  0  0  0  0  0  0  0  0  0
  140.0390   71.7370  223.9720 N   0  0  0  0  0  0  0  0  0  0  0  0
  140.2480   70.9900  225.0650 C   0  0  0  0  0  0  0  0  0  0  0  0
  141.0200   71.4390  226.1180 C   0  0  0  0  0  0  0  0  0  0  0  0
  141.2290   70.6570  227.2440 C   0  0  0  0  0  0  0  0  0  0  0  0
  140.6500   69.4160  227.2950 C   0  0  0  0  0  0  0  0  0  0  0  0
  140.9160   68.4210  228.7280 Cl  0  0  0  0  0  0  0  0  0  0  0  0
  139.8840   68.9850  226.2350 C   0  0  0  0  0  0  0  0  0  0  0  0
  139.6620   69.7440  225.1070 C   0  0  0  0  0  0  0  0  0  0  0  0
  138.8940   69.3160  224.0430 C   0  0  0  0  0  0  0  0  0  0  0  0
  138.3870   68.1650  224.1500 O   0  0  0  0  0  0  0  0  0  0  0  0
  138.6900   70.0840  222.9380 N   0  0  0  0  0  0  0  0  0  0  0  0
  137.9020   69.6340  221.8270 C   0  0  0  0  0  0  0  0  0  0  0  0
  138.5660   68.6020  220.9540 C   0  0  0  0  0  0  0  0  0  0  0  0
  138.1430   67.2400  221.4740 C   0  0  0  0  0  0  0  0  0  0  0  0
  139.0860   66.1510  221.0190 C   0  0  0  0  0  0  0  0  0  0  0  0
  139.9290   66.5570  219.8300 C   0  0  0  0  0  0  0  0  0  0  0  0
  140.7610   67.7700  220.0940 C   0  0  0  0  0  0  0  0  0  0  0  0
  140.0430   68.7860  220.9630 C   0  0  0  0  0  0  0  0  0  0  0  0
  141.9090   73.1220  221.0110 C   0  0  0  0  0  0  0  0  0  0  0  0
  143.2560   73.2740  220.8400 C   0  0  0  0  0  0  0  0  0  0  0  0
  145.1890   74.0980  218.2370 H   0  0  0  0  0  0  0  0  0  0  0  0
  146.8730   73.8640  218.3570 H   0  0  0  0  0  0  0  0  0  0  0  0
  143.7736   70.5813  218.8365 H   0  0  0  0  0  0  0  0  0  0  0  0
  141.3428   70.3678  219.1875 H   0  0  0  0  0  0  0  0  0  0  0  0
  139.1034   71.7162  219.8141 H   0  0  0  0  0  0  0  0  0  0  0  0
  138.5259   73.1227  221.9276 H   0  0  0  0  0  0  0  0  0  0  0  0
  141.4786   72.4373  226.0626 H   0  0  0  0  0  0  0  0  0  0  0  0
  141.8457   71.0246  228.0775 H   0  0  0  0  0  0  0  0  0  0  0  0
  139.4271   67.9860  226.2917 H   0  0  0  0  0  0  0  0  0  0  0  0
  136.9716   69.1998  222.2218 H   0  0  0  0  0  0  0  0  0  0  0  0
  137.7359   70.5154  221.1901 H   0  0  0  0  0  0  0  0  0  0  0  0
  138.2572   68.7020  219.9030 H   0  0  0  0  0  0  0  0  0  0  0  0
  138.1322   67.2658  222.5736 H   0  0  0  0  0  0  0  0  0  0  0  0
  137.1426   67.0161  221.0753 H   0  0  0  0  0  0  0  0  0  0  0  0
  139.7563   65.8967  221.8533 H   0  0  0  0  0  0  0  0  0  0  0  0
  138.4719   65.2926  220.7089 H   0  0  0  0  0  0  0  0  0  0  0  0
  140.5974   65.7222  219.5722 H   0  0  0  0  0  0  0  0  0  0  0  0
  139.2421   66.8008  219.0062 H   0  0  0  0  0  0  0  0  0  0  0  0
  141.6856   67.4602  220.6031 H   0  0  0  0  0  0  0  0  0  0  0  0
  140.9744   68.2475  219.1263 H   0  0  0  0  0  0  0  0  0  0  0  0
  140.4048   68.6842  221.9968 H   0  0  0  0  0  0  0  0  0  0  0  0
  140.2576   69.7850  220.5556 H   0  0  0  0  0  0  0  0  0  0  0  0
  141.3789   73.8546  221.6373 H   0  0  0  0  0  0  0  0  0  0  0  0
  143.7885   74.1088  221.3191 H   0  0  0  0  0  0  0  0  0  0  0  0
  1  2  1  0
  2  3  2  0
  2  4  2  0
  2  5  1  0
  5  6  2  0
  6  7  1  0
  7  8  2  0
  8  9  1  0
  9 10  2  0
 10 11  1  0
 11 12  2  0
 12 13  1  0
 13 14  2  0
 14 15  1  0
 15 16  2  0
 16 17  1  0
 16 18  1  0
 18 19  2  0
 19 20  1  0
 20 21  2  0
 20 22  1  0
 22 23  1  0
 23 24  1  0
 24 25  1  0
 25 26  1  0
 26 27  1  0
 27 28  1  0
 28 29  1  0
  8 30  1  0
 30 31  2  0
 31  5  1  0
 22 11  1  0
 29 24  1  0
 19 13  1  0
  1 32  1  0
  1 33  1  0
  6 34  1  0
  7 35  1  0
  9 36  1  0
 10 37  1  0
 14 38  1  0
 15 39  1  0
 18 40  1  0
 23 41  1  0
 23 42  1  0
 24 43  1  0
 25 44  1  0
 25 45  1  0
 26 46  1  0
 26 47  1  0
 27 48  1  0
 27 49  1  0
 28 50  1  0
 28 51  1  0
 29 52  1  0
 29 53  1  0
 30 54  1  0
 31 55  1  0
M  END
>  <smiles>  (50) 
NS(=O)(=O)c1ccc(/C=C/c2nc3ccc(Cl)cc3c(=O)n2CC2CCCCC2)cc1

>  <score_type>  (50) 
oracle

>  <origin>  (50) 
autodockgpu

>  <m_score__min__energy>  (50) 
-9.4900000000000002

>  <m_primary>  (50) 
energy

>  <rmsd>  (50) 
11.045450100852166

>  <m_score__min__rmsd>  (50) 
11.045450100852166

>  <meeko>  (50) 
{"free_energy": -8.45, "intermolecular_energy": -10.54, "internal_energy": -1.87, "cluster_size": 15, "cluster_id": 2, "rank_in_cluster": 9}

>  <energy>  (50) 
-7.78

>  <cluster_rmsd>  (50) 
0.0

>  <cluster>  (50) 
9

$$$$
