
     RDKit          3D

 55 58  0  0  0  0  0  0  0  0999 V2000
  143.1040   79.9860  217.8410 N   0  0  0  0  0  0  0  0  0  0  0  0
  141.8520   80.7180  218.0090 C   0  0  0  0  0  0  0  0  0  0  0  0
  141.7010   81.2450  219.3980 C   0  0  0  0  0  0  0  0  0  0  0  0
  141.0710   82.4460  219.6340 C   0  0  0  0  0  0  0  0  0  0  0  0
  140.9700   82.8650  220.9380 C   0  0  0  0  0  0  0  0  0  0  0  0
  141.4840   82.1040  221.9820 C   0  0  0  0  0  0  0  0  0  0  0  0
  142.1180   80.9000  221.7660 C   0  0  0  0  0  0  0  0  0  0  0  0
  142.6710   80.0720  222.8210 C   0  0  0  0  0  0  0  0  0  0  0  0
  142.0070   79.1060  223.4330 C   0  0  0  0  0  0  0  0  0  0  0  0
  140.5360   79.0220  223.3100 C   0  0  0  0  0  0  0  0  0  0  0  0
  139.8530   80.0320  223.8790 N   0  0  0  0  0  0  0  0  0  0  0  0
  138.5090   80.1160  223.8310 C   0  0  0  0  0  0  0  0  0  0  0  0
  137.7960   81.1470  224.4100 C   0  0  0  0  0  0  0  0  0  0  0  0
  136.4270   81.1860  224.3310 C   0  0  0  0  0  0  0  0  0  0  0  0
  135.7500   80.1840  223.6640 C   0  0  0  0  0  0  0  0  0  0  0  0
  134.3980   80.2160  223.5820 F   0  0  0  0  0  0  0  0  0  0  0  0
  136.4790   79.1440  223.0800 C   0  0  0  0  0  0  0  0  0  0  0  0
  137.8590   79.1040  223.1590 C   0  0  0  0  0  0  0  0  0  0  0  0
  138.5900   78.0660  222.5770 C   0  0  0  0  0  0  0  0  0  0  0  0
  137.9010   77.1970  221.9880 O   0  0  0  0  0  0  0  0  0  0  0  0
  139.9380   78.0090  222.6440 N   0  0  0  0  0  0  0  0  0  0  0  0
  140.6950   76.9430  222.0410 C   0  0  0  0  0  0  0  0  0  0  0  0
  140.9110   77.0800  220.5500 C   0  0  0  0  0  0  0  0  0  0  0  0
  142.3120   76.9370  220.0930 C   0  0  0  0  0  0  0  0  0  0  0  0
  142.3990   76.8840  218.6050 C   0  0  0  0  0  0  0  0  0  0  0  0
  141.2180   77.4840  217.8810 C   0  0  0  0  0  0  0  0  0  0  0  0
  139.9170   76.8700  218.3030 C   0  0  0  0  0  0  0  0  0  0  0  0
  139.9810   76.2860  219.7020 C   0  0  0  0  0  0  0  0  0  0  0  0
  142.2100   80.4940  220.4370 C   0  0  0  0  0  0  0  0  0  0  0  0
  143.9400   80.6170  217.8190 H   0  0  0  0  0  0  0  0  0  0  0  0
  143.0500   79.5180  216.8900 H   0  0  0  0  0  0  0  0  0  0  0  0
  141.8355   81.5622  217.3039 H   0  0  0  0  0  0  0  0  0  0  0  0
  141.0210   80.0242  217.8138 H   0  0  0  0  0  0  0  0  0  0  0  0
  140.6634   83.0480  218.8085 H   0  0  0  0  0  0  0  0  0  0  0  0
  140.4731   83.8207  221.1607 H   0  0  0  0  0  0  0  0  0  0  0  0
  141.3812   82.4748  223.0125 H   0  0  0  0  0  0  0  0  0  0  0  0
  143.7093   80.2598  223.1318 H   0  0  0  0  0  0  0  0  0  0  0  0
  142.5505   78.3630  224.0352 H   0  0  0  0  0  0  0  0  0  0  0  0
  138.3324   81.9470  224.9412 H   0  0  0  0  0  0  0  0  0  0  0  0
  135.8705   82.0124  224.7972 H   0  0  0  0  0  0  0  0  0  0  0  0
  135.9452   78.3428  222.5479 H   0  0  0  0  0  0  0  0  0  0  0  0
  141.6810   76.9065  222.5272 H   0  0  0  0  0  0  0  0  0  0  0  0
  140.1048   76.0259  222.1844 H   0  0  0  0  0  0  0  0  0  0  0  0
  140.6492   78.1368  220.3930 H   0  0  0  0  0  0  0  0  0  0  0  0
  142.8954   77.7965  220.4548 H   0  0  0  0  0  0  0  0  0  0  0  0
  142.7119   75.9947  220.4958 H   0  0  0  0  0  0  0  0  0  0  0  0
  143.3032   77.4286  218.2953 H   0  0  0  0  0  0  0  0  0  0  0  0
  142.4204   75.8183  218.3334 H   0  0  0  0  0  0  0  0  0  0  0  0
  141.1847   78.5629  218.0929 H   0  0  0  0  0  0  0  0  0  0  0  0
  141.3484   77.2882  216.8065 H   0  0  0  0  0  0  0  0  0  0  0  0
  139.1363   77.6445  218.2787 H   0  0  0  0  0  0  0  0  0  0  0  0
  139.6915   76.0491  217.6064 H   0  0  0  0  0  0  0  0  0  0  0  0
  138.9763   76.3045  220.1494 H   0  0  0  0  0  0  0  0  0  0  0  0
  140.3471   75.2505  219.6415 H   0  0  0  0  0  0  0  0  0  0  0  0
  142.7067   79.5397  220.2075 H   0  0  0  0  0  0  0  0  0  0  0  0
  1  2  1  0
  2  3  1  0
  3  4  2  0
  4  5  1  0
  5  6  2  0
  6  7  1  0
  7  8  1  0
  8  9  2  0
  9 10  1  0
 10 11  2  0
 11 12  1  0
 12 13  2  0
 13 14  1  0
 14 15  2  0
 15 16  1  0
 15 17  1  0
 17 18  2  0
 18 19  1  0
 19 20  2  0
 19 21  1  0
 21 22  1  0
 22 23  1  0
 23 24  1  0
 24 25  1  0
 25 26  1  0
 26 27  1  0
 27 28  1  0
  7 29  2  0
 29  3  1  0
 21 10  1  0
 28 23  1  0
 18 12  1  0
  1 30  1  0
  1 31  1  0
  2 32  1  0
  2 33  1  0
  4 34  1  0
  5 35  1  0
  6 36  1  0
  8 37  1  0
  9 38  1  0
 13 39  1  0
 14 40  1  0
 17 41  1  0
 22 42  1  0
 22 43  1  0
 23 44  1  0
 24 45  1  0
 24 46  1  0
 25 47  1  0
 25 48  1  0
 26 49  1  0
 26 50  1  0
 27 51  1  0
 27 52  1  0
 28 53  1  0
 28 54  1  0
 29 55  1  0
M  END
>  <smiles>  (1) 
NCc1cccc(/C=C/c2nc3ccc(F)cc3c(=O)n2CC2CCCCC2)c1

>  <score_type>  (1) 
oracle

>  <origin>  (1) 
autodockgpu

>  <m_score__min__energy>  (1) 
-8.4499999999999993

>  <m_primary>  (1) 
energy

>  <rmsd>  (1) 
3.72277345996613

>  <m_score__min__rmsd>  (1) 
3.72277345996613

>  <meeko>  (1) 
{"free_energy": -6.41, "intermolecular_energy": -8.5, "internal_energy": -2.44, "cluster_size": 8, "cluster_id": 10, "rank_in_cluster": 7}

>  <energy>  (1) 
-8.45

>  <cluster_rmsd>  (1) 
0.0

>  <cluster>  (1) 
1

$$$$

     RDKit          3D

 55 58  0  0  0  0  0  0  0  0999 V2000
  143.2710   80.2080  222.3410 N   0  0  0  0  0  0  0  0  0  0  0  0
  142.6030   79.8070  223.5750 C   0  0  0  0  0  0  0  0  0  0  0  0
  141.2100   79.3330  223.3200 C   0  0  0  0  0  0  0  0  0  0  0  0
  140.1260   80.0160  223.8240 C   0  0  0  0  0  0  0  0  0  0  0  0
  138.8770   79.5190  223.5470 C   0  0  0  0  0  0  0  0  0  0  0  0
  138.7110   78.3680  222.7860 C   0  0  0  0  0  0  0  0  0  0  0  0
  139.7830   77.6690  222.2740 C   0  0  0  0  0  0  0  0  0  0  0  0
  139.6600   76.4640  221.4760 C   0  0  0  0  0  0  0  0  0  0  0  0
  139.6630   75.2400  221.9740 C   0  0  0  0  0  0  0  0  0  0  0  0
  140.7020   74.2720  221.5640 C   0  0  0  0  0  0  0  0  0  0  0  0
  141.8800   74.8120  221.2010 N   0  0  0  0  0  0  0  0  0  0  0  0
  142.9360   74.0640  220.8290 C   0  0  0  0  0  0  0  0  0  0  0  0
  144.1500   74.6060  220.4560 C   0  0  0  0  0  0  0  0  0  0  0  0
  145.1960   73.7980  220.0860 C   0  0  0  0  0  0  0  0  0  0  0  0
  145.0360   72.4270  220.0850 C   0  0  0  0  0  0  0  0  0  0  0  0
  146.0640   71.6230  219.7210 F   0  0  0  0  0  0  0  0  0  0  0  0
  143.8040   71.8860  220.4650 C   0  0  0  0  0  0  0  0  0  0  0  0
  142.7500   72.6990  220.8380 C   0  0  0  0  0  0  0  0  0  0  0  0
  141.5170   72.1620  221.2170 C   0  0  0  0  0  0  0  0  0  0  0  0
  141.4550   70.9070  221.1920 O   0  0  0  0  0  0  0  0  0  0  0  0
  140.4760   72.9390  221.5840 N   0  0  0  0  0  0  0  0  0  0  0  0
  139.2060   72.3880  221.9810 C   0  0  0  0  0  0  0  0  0  0  0  0
  139.2510   71.4990  223.2040 C   0  0  0  0  0  0  0  0  0  0  0  0
  138.9310   70.0730  222.9670 C   0  0  0  0  0  0  0  0  0  0  0  0
  139.1980   69.2440  224.1780 C   0  0  0  0  0  0  0  0  0  0  0  0
  139.2150   70.0130  225.4780 C   0  0  0  0  0  0  0  0  0  0  0  0
  140.1930   71.1500  225.4550 C   0  0  0  0  0  0  0  0  0  0  0  0
  140.4660   71.6490  224.0490 C   0  0  0  0  0  0  0  0  0  0  0  0
  141.0400   78.1900  222.5660 C   0  0  0  0  0  0  0  0  0  0  0  0
  142.9460   79.6600  221.5090 H   0  0  0  0  0  0  0  0  0  0  0  0
  144.3000   79.9810  222.4720 H   0  0  0  0  0  0  0  0  0  0  0  0
  143.1765   78.9931  224.0426 H   0  0  0  0  0  0  0  0  0  0  0  0
  142.5511   80.6837  224.2374 H   0  0  0  0  0  0  0  0  0  0  0  0
  140.2562   80.9269  224.4268 H   0  0  0  0  0  0  0  0  0  0  0  0
  137.9903   80.0418  223.9348 H   0  0  0  0  0  0  0  0  0  0  0  0
  137.6926   78.0035  222.5861 H   0  0  0  0  0  0  0  0  0  0  0  0
  139.5577   76.5763  220.3865 H   0  0  0  0  0  0  0  0  0  0  0  0
  138.8894   74.9404  222.6963 H   0  0  0  0  0  0  0  0  0  0  0  0
  144.2803   75.6983  220.4554 H   0  0  0  0  0  0  0  0  0  0  0  0
  146.1585   74.2415  219.7913 H   0  0  0  0  0  0  0  0  0  0  0  0
  143.6711   70.7941  220.4672 H   0  0  0  0  0  0  0  0  0  0  0  0
  138.5219   73.2234  222.1910 H   0  0  0  0  0  0  0  0  0  0  0  0
  138.8729   71.7505  221.1487 H   0  0  0  0  0  0  0  0  0  0  0  0
  138.4131   71.9020  223.7918 H   0  0  0  0  0  0  0  0  0  0  0  0
  137.8673   69.9849  222.7010 H   0  0  0  0  0  0  0  0  0  0  0  0
  139.5707   69.7069  222.1504 H   0  0  0  0  0  0  0  0  0  0  0  0
  138.4153   68.4740  224.2455 H   0  0  0  0  0  0  0  0  0  0  0  0
  140.2072   68.8252  224.0515 H   0  0  0  0  0  0  0  0  0  0  0  0
  138.2085   70.4161  225.6636 H   0  0  0  0  0  0  0  0  0  0  0  0
  139.5238   69.3200  226.2745 H   0  0  0  0  0  0  0  0  0  0  0  0
  139.7847   71.9794  226.0512 H   0  0  0  0  0  0  0  0  0  0  0  0
  141.1430   70.7839  225.8715 H   0  0  0  0  0  0  0  0  0  0  0  0
  140.7513   72.7106  224.0895 H   0  0  0  0  0  0  0  0  0  0  0  0
  141.2825   71.0564  223.6108 H   0  0  0  0  0  0  0  0  0  0  0  0
  141.9307   77.6716  222.1816 H   0  0  0  0  0  0  0  0  0  0  0  0
  1  2  1  0
  2  3  1  0
  3  4  2  0
  4  5  1  0
  5  6  2  0
  6  7  1  0
  7  8  1  0
  8  9  2  0
  9 10  1  0
 10 11  2  0
 11 12  1  0
 12 13  2  0
 13 14  1  0
 14 15  2  0
 15 16  1  0
 15 17  1  0
 17 18  2  0
 18 19  1  0
 19 20  2  0
 19 21  1  0
 21 22  1  0
 22 23  1  0
 23 24  1  0
 24 25  1  0
 25 26  1  0
 26 27  1  0
 27 28  1  0
  7 29  2  0
 29  3  1  0
 21 10  1  0
 28 23  1  0
 18 12  1  0
  1 30  1  0
  1 31  1  0
  2 32  1  0
  2 33  1  0
  4 34  1  0
  5 35  1  0
  6 36  1  0
  8 37  1  0
  9 38  1  0
 13 39  1  0
 14 40  1  0
 17 41  1  0
 22 42  1  0
 22 43  1  0
 23 44  1  0
 24 45  1  0
 24 46  1  0
 25 47  1  0
 25 48  1  0
 26 49  1  0
 26 50  1  0
 27 51  1  0
 27 52  1  0
 28 53  1  0
 28 54  1  0
 29 55  1  0
M  END
>  <smiles>  (2) 
NCc1cccc(/C=C/c2nc3ccc(F)cc3c(=O)n2CC2CCCCC2)c1

>  <score_type>  (2) 
oracle

>  <origin>  (2) 
autodockgpu

>  <m_score__min__energy>  (2) 
-8.4499999999999993

>  <m_primary>  (2) 
energy

>  <rmsd>  (2) 
8.841270028809415

>  <m_score__min__rmsd>  (2) 
8.841270028809415

>  <meeko>  (2) 
{"free_energy": -7.92, "intermolecular_energy": -10.01, "internal_energy": -1.2, "cluster_size": 5, "cluster_id": 4, "rank_in_cluster": 1}

>  <energy>  (2) 
-7.58

>  <cluster_rmsd>  (2) 
1.22

>  <cluster>  (2) 
1

$$$$

     RDKit          3D

 55 58  0  0  0  0  0  0  0  0999 V2000
  145.9620   72.2230  219.6910 N   0  0  0  0  0  0  0  0  0  0  0  0
  145.7180   73.4580  220.4320 C   0  0  0  0  0  0  0  0  0  0  0  0
  144.2680   73.8150  220.4500 C   0  0  0  0  0  0  0  0  0  0  0  0
  143.8380   75.0480  220.0150 C   0  0  0  0  0  0  0  0  0  0  0  0
  142.4900   75.3040  220.0610 C   0  0  0  0  0  0  0  0  0  0  0  0
  141.5910   74.3520  220.5290 C   0  0  0  0  0  0  0  0  0  0  0  0
  142.0020   73.1120  220.9700 C   0  0  0  0  0  0  0  0  0  0  0  0
  141.1030   72.0880  221.4680 C   0  0  0  0  0  0  0  0  0  0  0  0
  140.2400   72.2720  222.4520 C   0  0  0  0  0  0  0  0  0  0  0  0
  140.1170   71.2700  223.5310 C   0  0  0  0  0  0  0  0  0  0  0  0
  140.6510   71.6270  224.7120 N   0  0  0  0  0  0  0  0  0  0  0  0
  140.5970   70.8370  225.8020 C   0  0  0  0  0  0  0  0  0  0  0  0
  141.1410   71.1920  227.0200 C   0  0  0  0  0  0  0  0  0  0  0  0
  141.0570   70.3500  228.1000 C   0  0  0  0  0  0  0  0  0  0  0  0
  140.4210   69.1300  227.9700 C   0  0  0  0  0  0  0  0  0  0  0  0
  140.3350   68.2930  229.0320 F   0  0  0  0  0  0  0  0  0  0  0  0
  139.8730   68.7780  226.7340 C   0  0  0  0  0  0  0  0  0  0  0  0
  139.9560   69.6270  225.6450 C   0  0  0  0  0  0  0  0  0  0  0  0
  139.4100   69.2770  224.4070 C   0  0  0  0  0  0  0  0  0  0  0  0
  138.8480   68.1540  224.3740 O   0  0  0  0  0  0  0  0  0  0  0  0
  139.4830   70.0920  223.3330 N   0  0  0  0  0  0  0  0  0  0  0  0
  138.9150   69.7370  222.0580 C   0  0  0  0  0  0  0  0  0  0  0  0
  139.8080   68.8920  221.1760 C   0  0  0  0  0  0  0  0  0  0  0  0
  139.4780   67.4490  221.1320 C   0  0  0  0  0  0  0  0  0  0  0  0
  140.2740   66.7380  220.0900 C   0  0  0  0  0  0  0  0  0  0  0  0
  141.5500   67.4360  219.6850 C   0  0  0  0  0  0  0  0  0  0  0  0
  141.3090   68.8420  219.2210 C   0  0  0  0  0  0  0  0  0  0  0  0
  140.0440   69.4350  219.8120 C   0  0  0  0  0  0  0  0  0  0  0  0
  143.3730   72.8740  220.9150 C   0  0  0  0  0  0  0  0  0  0  0  0
  145.0930   71.8420  219.2470 H   0  0  0  0  0  0  0  0  0  0  0  0
  146.2790   71.5060  220.4060 H   0  0  0  0  0  0  0  0  0  0  0  0
  146.0656   73.3269  221.4674 H   0  0  0  0  0  0  0  0  0  0  0  0
  146.2648   74.2711  219.9322 H   0  0  0  0  0  0  0  0  0  0  0  0
  144.5487   75.8011  219.6439 H   0  0  0  0  0  0  0  0  0  0  0  0
  142.1141   76.2804  219.7213 H   0  0  0  0  0  0  0  0  0  0  0  0
  140.5185   74.5958  220.5480 H   0  0  0  0  0  0  0  0  0  0  0  0
  141.1421   71.0949  220.9965 H   0  0  0  0  0  0  0  0  0  0  0  0
  139.6111   73.1743  222.4678 H   0  0  0  0  0  0  0  0  0  0  0  0
  141.6483   72.1623  227.1261 H   0  0  0  0  0  0  0  0  0  0  0  0
  141.4941   70.6448  229.0654 H   0  0  0  0  0  0  0  0  0  0  0  0
  139.3662   67.8078  226.6248 H   0  0  0  0  0  0  0  0  0  0  0  0
  137.9867   69.1762  222.2417 H   0  0  0  0  0  0  0  0  0  0  0  0
  138.7533   70.6818  221.5184 H   0  0  0  0  0  0  0  0  0  0  0  0
  140.7670   68.9664  221.7096 H   0  0  0  0  0  0  0  0  0  0  0  0
  139.6946   67.0027  222.1138 H   0  0  0  0  0  0  0  0  0  0  0  0
  138.4118   67.3461  220.8819 H   0  0  0  0  0  0  0  0  0  0  0  0
  140.5364   65.7430  220.4789 H   0  0  0  0  0  0  0  0  0  0  0  0
  139.6426   66.6984  219.1901 H   0  0  0  0  0  0  0  0  0  0  0  0
  142.2292   67.4608  220.5499 H   0  0  0  0  0  0  0  0  0  0  0  0
  141.9875   66.8756  218.8456 H   0  0  0  0  0  0  0  0  0  0  0  0
  142.1649   69.4648  219.5203 H   0  0  0  0  0  0  0  0  0  0  0  0
  141.1910   68.8197  218.1276 H   0  0  0  0  0  0  0  0  0  0  0  0
  140.1484   70.5285  219.8698 H   0  0  0  0  0  0  0  0  0  0  0  0
  139.1911   69.1714  219.1694 H   0  0  0  0  0  0  0  0  0  0  0  0
  143.7561   71.9004  221.2546 H   0  0  0  0  0  0  0  0  0  0  0  0
  1  2  1  0
  2  3  1  0
  3  4  2  0
  4  5  1  0
  5  6  2  0
  6  7  1  0
  7  8  1  0
  8  9  2  0
  9 10  1  0
 10 11  2  0
 11 12  1  0
 12 13  2  0
 13 14  1  0
 14 15  2  0
 15 16  1  0
 15 17  1  0
 17 18  2  0
 18 19  1  0
 19 20  2  0
 19 21  1  0
 21 22  1  0
 22 23  1  0
 23 24  1  0
 24 25  1  0
 25 26  1  0
 26 27  1  0
 27 28  1  0
  7 29  2  0
 29  3  1  0
 21 10  1  0
 28 23  1  0
 18 12  1  0
  1 30  1  0
  1 31  1  0
  2 32  1  0
  2 33  1  0
  4 34  1  0
  5 35  1  0
  6 36  1  0
  8 37  1  0
  9 38  1  0
 13 39  1  0
 14 40  1  0
 17 41  1  0
 22 42  1  0
 22 43  1  0
 23 44  1  0
 24 45  1  0
 24 46  1  0
 25 47  1  0
 25 48  1  0
 26 49  1  0
 26 50  1  0
 27 51  1  0
 27 52  1  0
 28 53  1  0
 28 54  1  0
 29 55  1  0
M  END
>  <smiles>  (3) 
NCc1cccc(/C=C/c2nc3ccc(F)cc3c(=O)n2CC2CCCCC2)c1

>  <score_type>  (3) 
oracle

>  <origin>  (3) 
autodockgpu

>  <m_score__min__energy>  (3) 
-8.4499999999999993

>  <m_primary>  (3) 
energy

>  <rmsd>  (3) 
11.049399616207756

>  <m_score__min__rmsd>  (3) 
11.049399616207756

>  <meeko>  (3) 
{"free_energy": -7.76, "intermolecular_energy": -9.85, "internal_energy": -1.36, "cluster_size": 14, "cluster_id": 2, "rank_in_cluster": 8}

>  <energy>  (3) 
-8.38

>  <cluster_rmsd>  (3) 
0.0

>  <cluster>  (3) 
2

$$$$

     RDKit          3D

 55 58  0  0  0  0  0  0  0  0999 V2000
  142.5680   77.4520  219.8140 N   0  0  0  0  0  0  0  0  0  0  0  0
  142.1470   78.4740  218.8610 C   0  0  0  0  0  0  0  0  0  0  0  0
  141.9000   79.7870  219.5300 C   0  0  0  0  0  0  0  0  0  0  0  0
  141.5780   80.9060  218.7960 C   0  0  0  0  0  0  0  0  0  0  0  0
  141.3640   82.0760  219.4820 C   0  0  0  0  0  0  0  0  0  0  0  0
  141.4690   82.1290  220.8670 C   0  0  0  0  0  0  0  0  0  0  0  0
  141.7920   81.0200  221.6200 C   0  0  0  0  0  0  0  0  0  0  0  0
  141.9140   81.0270  223.0650 C   0  0  0  0  0  0  0  0  0  0  0  0
  141.5730   80.0150  223.8440 C   0  0  0  0  0  0  0  0  0  0  0  0
  140.6480   78.9740  223.3490 C   0  0  0  0  0  0  0  0  0  0  0  0
  141.2360   77.8700  222.8530 N   0  0  0  0  0  0  0  0  0  0  0  0
  140.5320   76.8200  222.3890 C   0  0  0  0  0  0  0  0  0  0  0  0
  141.1230   75.6810  221.8790 C   0  0  0  0  0  0  0  0  0  0  0  0
  140.3590   74.6380  221.4190 C   0  0  0  0  0  0  0  0  0  0  0  0
  138.9810   74.7250  221.4660 C   0  0  0  0  0  0  0  0  0  0  0  0
  138.2200   73.7000  221.0130 F   0  0  0  0  0  0  0  0  0  0  0  0
  138.3900   75.8810  221.9840 C   0  0  0  0  0  0  0  0  0  0  0  0
  139.1600   76.9320  222.4480 C   0  0  0  0  0  0  0  0  0  0  0  0
  138.5720   78.0890  222.9650 C   0  0  0  0  0  0  0  0  0  0  0  0
  137.3160   78.0880  222.9750 O   0  0  0  0  0  0  0  0  0  0  0  0
  139.3060   79.1260  223.4220 N   0  0  0  0  0  0  0  0  0  0  0  0
  138.7040   80.3180  223.9620 C   0  0  0  0  0  0  0  0  0  0  0  0
  138.3990   81.3950  222.9440 C   0  0  0  0  0  0  0  0  0  0  0  0
  138.3920   80.9530  221.5310 C   0  0  0  0  0  0  0  0  0  0  0  0
  137.8860   82.0250  220.6260 C   0  0  0  0  0  0  0  0  0  0  0  0
  137.9860   83.4240  221.1870 C   0  0  0  0  0  0  0  0  0  0  0  0
  137.2990   83.5590  222.5120 C   0  0  0  0  0  0  0  0  0  0  0  0
  137.2130   82.2380  223.2550 C   0  0  0  0  0  0  0  0  0  0  0  0
  142.0040   79.8450  220.9040 C   0  0  0  0  0  0  0  0  0  0  0  0
  142.2010   77.6260  220.7800 H   0  0  0  0  0  0  0  0  0  0  0  0
  143.6260   77.5180  219.8730 H   0  0  0  0  0  0  0  0  0  0  0  0
  142.9354   78.6023  218.1047 H   0  0  0  0  0  0  0  0  0  0  0  0
  141.2057   78.1433  218.3979 H   0  0  0  0  0  0  0  0  0  0  0  0
  141.4952   80.8645  217.6999 H   0  0  0  0  0  0  0  0  0  0  0  0
  141.1046   82.9885  218.9251 H   0  0  0  0  0  0  0  0  0  0  0  0
  141.2887   83.0860  221.3785 H   0  0  0  0  0  0  0  0  0  0  0  0
  142.3160   81.9323  223.5434 H   0  0  0  0  0  0  0  0  0  0  0  0
  141.9790   79.9474  224.8641 H   0  0  0  0  0  0  0  0  0  0  0  0
  142.2200   75.6088  221.8410 H   0  0  0  0  0  0  0  0  0  0  0  0
  140.8419   73.7362  221.0145 H   0  0  0  0  0  0  0  0  0  0  0  0
  137.2933   75.9561  222.0233 H   0  0  0  0  0  0  0  0  0  0  0  0
  137.7608   80.0330  224.4510 H   0  0  0  0  0  0  0  0  0  0  0  0
  139.4411   80.7489  224.6555 H   0  0  0  0  0  0  0  0  0  0  0  0
  139.2793   82.0459  223.0504 H   0  0  0  0  0  0  0  0  0  0  0  0
  139.4177   80.6889  221.2339 H   0  0  0  0  0  0  0  0  0  0  0  0
  137.7234   80.0838  221.4444 H   0  0  0  0  0  0  0  0  0  0  0  0
  138.4668   81.9878  219.6926 H   0  0  0  0  0  0  0  0  0  0  0  0
  136.8145   81.8258  220.4772 H   0  0  0  0  0  0  0  0  0  0  0  0
  139.0486   83.6791  221.3125 H   0  0  0  0  0  0  0  0  0  0  0  0
  137.4886   84.1048  220.4806 H   0  0  0  0  0  0  0  0  0  0  0  0
  137.8598   84.2761  223.1295 H   0  0  0  0  0  0  0  0  0  0  0  0
  136.2723   83.9063  222.3243 H   0  0  0  0  0  0  0  0  0  0  0  0
  137.1786   82.4315  224.3373 H   0  0  0  0  0  0  0  0  0  0  0  0
  136.3028   81.7073  222.9391 H   0  0  0  0  0  0  0  0  0  0  0  0
  142.2641   78.9289  221.4546 H   0  0  0  0  0  0  0  0  0  0  0  0
  1  2  1  0
  2  3  1  0
  3  4  2  0
  4  5  1  0
  5  6  2  0
  6  7  1  0
  7  8  1  0
  8  9  2  0
  9 10  1  0
 10 11  2  0
 11 12  1  0
 12 13  2  0
 13 14  1  0
 14 15  2  0
 15 16  1  0
 15 17  1  0
 17 18  2  0
 18 19  1  0
 19 20  2  0
 19 21  1  0
 21 22  1  0
 22 23  1  0
 23 24  1  0
 24 25  1  0
 25 26  1  0
 26 27  1  0
 27 28  1  0
  7 29  2  0
 29  3  1  0
 21 10  1  0
 28 23  1  0
 18 12  1  0
  1 30  1  0
  1 31  1  0
  2 32  1  0
  2 33  1  0
  4 34  1  0
  5 35  1  0
  6 36  1  0
  8 37  1  0
  9 38  1  0
 13 39  1  0
 14 40  1  0
 17 41  1  0
 22 42  1  0
 22 43  1  0
 23 44  1  0
 24 45  1  0
 24 46  1  0
 25 47  1  0
 25 48  1  0
 26 49  1  0
 26 50  1  0
 27 51  1  0
 27 52  1  0
 28 53  1  0
 28 54  1  0
 29 55  1  0
M  END
>  <smiles>  (4) 
NCc1cccc(/C=C/c2nc3ccc(F)cc3c(=O)n2CC2CCCCC2)c1

>  <score_type>  (4) 
oracle

>  <origin>  (4) 
autodockgpu

>  <m_score__min__energy>  (4) 
-8.4499999999999993

>  <m_primary>  (4) 
energy

>  <rmsd>  (4) 
6.716773465562834

>  <m_score__min__rmsd>  (4) 
6.716773465562834

>  <meeko>  (4) 
{"free_energy": -6.1, "intermolecular_energy": -8.19, "internal_energy": -2.85, "cluster_size": 6, "cluster_id": 12, "rank_in_cluster": 2}

>  <energy>  (4) 
-8.37

>  <cluster_rmsd>  (4) 
1.39

>  <cluster>  (4) 
2

$$$$

     RDKit          3D

 55 58  0  0  0  0  0  0  0  0999 V2000
  143.6580   76.4100  219.3500 N   0  0  0  0  0  0  0  0  0  0  0  0
  143.5450   75.1560  220.0880 C   0  0  0  0  0  0  0  0  0  0  0  0
  142.2130   75.0200  220.7500 C   0  0  0  0  0  0  0  0  0  0  0  0
  141.4530   76.1300  221.0440 C   0  0  0  0  0  0  0  0  0  0  0  0
  140.2390   75.9250  221.6510 C   0  0  0  0  0  0  0  0  0  0  0  0
  139.7920   74.6450  221.9570 C   0  0  0  0  0  0  0  0  0  0  0  0
  140.5380   73.5220  221.6720 C   0  0  0  0  0  0  0  0  0  0  0  0
  140.1150   72.1670  221.9730 C   0  0  0  0  0  0  0  0  0  0  0  0
  139.2020   71.8580  222.8770 C   0  0  0  0  0  0  0  0  0  0  0  0
  139.5100   70.8820  223.9430 C   0  0  0  0  0  0  0  0  0  0  0  0
  140.0940   71.3940  225.0410 N   0  0  0  0  0  0  0  0  0  0  0  0
  140.4130   70.6410  226.1120 C   0  0  0  0  0  0  0  0  0  0  0  0
  141.0110   71.1550  227.2450 C   0  0  0  0  0  0  0  0  0  0  0  0
  141.3140   70.3440  228.3090 C   0  0  0  0  0  0  0  0  0  0  0  0
  141.0180   68.9960  228.2500 C   0  0  0  0  0  0  0  0  0  0  0  0
  141.3150   68.1890  229.2960 F   0  0  0  0  0  0  0  0  0  0  0  0
  140.4120   68.4840  227.0990 C   0  0  0  0  0  0  0  0  0  0  0  0
  140.1060   69.3010  226.0260 C   0  0  0  0  0  0  0  0  0  0  0  0
  139.5010   68.7910  224.8740 C   0  0  0  0  0  0  0  0  0  0  0  0
  139.2640   67.5580  224.9010 O   0  0  0  0  0  0  0  0  0  0  0  0
  139.1960   69.5730  223.8170 N   0  0  0  0  0  0  0  0  0  0  0  0
  138.5670   69.0520  222.6310 C   0  0  0  0  0  0  0  0  0  0  0  0
  137.0960   68.7310  222.7770 C   0  0  0  0  0  0  0  0  0  0  0  0
  136.3330   69.6310  223.6710 C   0  0  0  0  0  0  0  0  0  0  0  0
  134.8670   69.3650  223.5940 C   0  0  0  0  0  0  0  0  0  0  0  0
  134.5020   67.9890  223.0900 C   0  0  0  0  0  0  0  0  0  0  0  0
  135.1100   67.6910  221.7520 C   0  0  0  0  0  0  0  0  0  0  0  0
  136.3720   68.4940  221.5000 C   0  0  0  0  0  0  0  0  0  0  0  0
  141.7660   73.7520  221.0560 C   0  0  0  0  0  0  0  0  0  0  0  0
  144.4510   76.4050  218.6650 H   0  0  0  0  0  0  0  0  0  0  0  0
  143.8800   77.1580  220.0690 H   0  0  0  0  0  0  0  0  0  0  0  0
  143.6824   74.3179  219.3890 H   0  0  0  0  0  0  0  0  0  0  0  0
  144.3180   75.1490  220.8706 H   0  0  0  0  0  0  0  0  0  0  0  0
  141.8056   77.1433  220.8015 H   0  0  0  0  0  0  0  0  0  0  0  0
  139.6076   76.7906  221.9001 H   0  0  0  0  0  0  0  0  0  0  0  0
  138.8120   74.5247  222.4419 H   0  0  0  0  0  0  0  0  0  0  0  0
  140.5842   71.3447  221.4130 H   0  0  0  0  0  0  0  0  0  0  0  0
  138.2088   72.3291  222.8358 H   0  0  0  0  0  0  0  0  0  0  0  0
  141.2475   72.2281  227.2952 H   0  0  0  0  0  0  0  0  0  0  0  0
  141.7910   70.7656  229.2061 H   0  0  0  0  0  0  0  0  0  0  0  0
  140.1741   67.4113  227.0458 H   0  0  0  0  0  0  0  0  0  0  0  0
  138.6757   69.7989  221.8308 H   0  0  0  0  0  0  0  0  0  0  0  0
  139.0695   68.0989  222.4094 H   0  0  0  0  0  0  0  0  0  0  0  0
  137.1399   67.7606  223.2930 H   0  0  0  0  0  0  0  0  0  0  0  0
  136.6703   69.4761  224.7065 H   0  0  0  0  0  0  0  0  0  0  0  0
  136.5126   70.6681  223.3513 H   0  0  0  0  0  0  0  0  0  0  0  0
  134.4435   69.4843  224.6022 H   0  0  0  0  0  0  0  0  0  0  0  0
  134.4586   70.0814  222.8660 H   0  0  0  0  0  0  0  0  0  0  0  0
  134.8579   67.2415  223.8142 H   0  0  0  0  0  0  0  0  0  0  0  0
  133.4084   67.9520  222.9775 H   0  0  0  0  0  0  0  0  0  0  0  0
  135.3574   66.6201  221.7068 H   0  0  0  0  0  0  0  0  0  0  0  0
  134.3763   67.9674  220.9805 H   0  0  0  0  0  0  0  0  0  0  0  0
  137.0244   67.9380  220.8107 H   0  0  0  0  0  0  0  0  0  0  0  0
  136.0973   69.4635  221.0589 H   0  0  0  0  0  0  0  0  0  0  0  0
  142.4023   72.8907  220.8045 H   0  0  0  0  0  0  0  0  0  0  0  0
  1  2  1  0
  2  3  1  0
  3  4  2  0
  4  5  1  0
  5  6  2  0
  6  7  1  0
  7  8  1  0
  8  9  2  0
  9 10  1  0
 10 11  2  0
 11 12  1  0
 12 13  2  0
 13 14  1  0
 14 15  2  0
 15 16  1  0
 15 17  1  0
 17 18  2  0
 18 19  1  0
 19 20  2  0
 19 21  1  0
 21 22  1  0
 22 23  1  0
 23 24  1  0
 24 25  1  0
 25 26  1  0
 26 27  1  0
 27 28  1  0
  7 29  2  0
 29  3  1  0
 21 10  1  0
 28 23  1  0
 18 12  1  0
  1 30  1  0
  1 31  1  0
  2 32  1  0
  2 33  1  0
  4 34  1  0
  5 35  1  0
  6 36  1  0
  8 37  1  0
  9 38  1  0
 13 39  1  0
 14 40  1  0
 17 41  1  0
 22 42  1  0
 22 43  1  0
 23 44  1  0
 24 45  1  0
 24 46  1  0
 25 47  1  0
 25 48  1  0
 26 49  1  0
 26 50  1  0
 27 51  1  0
 27 52  1  0
 28 53  1  0
 28 54  1  0
 29 55  1  0
M  END
>  <smiles>  (5) 
NCc1cccc(/C=C/c2nc3ccc(F)cc3c(=O)n2CC2CCCCC2)c1

>  <score_type>  (5) 
oracle

>  <origin>  (5) 
autodockgpu

>  <m_score__min__energy>  (5) 
-8.4499999999999993

>  <m_primary>  (5) 
energy

>  <rmsd>  (5) 
11.57780727771531

>  <m_score__min__rmsd>  (5) 
11.57780727771531

>  <meeko>  (5) 
{"free_energy": -7.79, "intermolecular_energy": -9.87, "internal_energy": -1.22, "cluster_size": 14, "cluster_id": 2, "rank_in_cluster": 7}

>  <energy>  (5) 
-8.23

>  <cluster_rmsd>  (5) 
1.32

>  <cluster>  (5) 
2

$$$$

     RDKit          3D

 55 58  0  0  0  0  0  0  0  0999 V2000
  146.3450   73.4000  219.0130 N   0  0  0  0  0  0  0  0  0  0  0  0
  145.3860   72.5890  219.7580 C   0  0  0  0  0  0  0  0  0  0  0  0
  144.1610   73.3670  220.1110 C   0  0  0  0  0  0  0  0  0  0  0  0
  144.0170   74.6780  219.7180 C   0  0  0  0  0  0  0  0  0  0  0  0
  142.8620   75.3270  220.0790 C   0  0  0  0  0  0  0  0  0  0  0  0
  141.8740   74.6830  220.8160 C   0  0  0  0  0  0  0  0  0  0  0  0
  141.9990   73.3720  221.2190 C   0  0  0  0  0  0  0  0  0  0  0  0
  140.9970   72.6590  221.9890 C   0  0  0  0  0  0  0  0  0  0  0  0
  139.8770   72.1740  221.4810 C   0  0  0  0  0  0  0  0  0  0  0  0
  138.6410   72.1520  222.2900 C   0  0  0  0  0  0  0  0  0  0  0  0
  137.8080   73.1900  222.0960 N   0  0  0  0  0  0  0  0  0  0  0  0
  136.6280   73.3030  222.7360 C   0  0  0  0  0  0  0  0  0  0  0  0
  135.7640   74.3630  222.5450 C   0  0  0  0  0  0  0  0  0  0  0  0
  134.5720   74.4290  223.2220 C   0  0  0  0  0  0  0  0  0  0  0  0
  134.2300   73.4250  224.1070 C   0  0  0  0  0  0  0  0  0  0  0  0
  133.0560   73.4840  224.7800 F   0  0  0  0  0  0  0  0  0  0  0  0
  135.1100   72.3560  224.2950 C   0  0  0  0  0  0  0  0  0  0  0  0
  136.3110   72.2880  223.6120 C   0  0  0  0  0  0  0  0  0  0  0  0
  137.1930   71.2200  223.7980 C   0  0  0  0  0  0  0  0  0  0  0  0
  136.8060   70.3490  224.6160 O   0  0  0  0  0  0  0  0  0  0  0  0
  138.3700   71.1370  223.1420 N   0  0  0  0  0  0  0  0  0  0  0  0
  139.2780   70.0360  223.3270 C   0  0  0  0  0  0  0  0  0  0  0  0
  139.8910   69.9390  224.7060 C   0  0  0  0  0  0  0  0  0  0  0  0
  140.2500   71.2300  225.3360 C   0  0  0  0  0  0  0  0  0  0  0  0
  140.6530   71.0500  226.7610 C   0  0  0  0  0  0  0  0  0  0  0  0
  141.1150   69.6560  227.1150 C   0  0  0  0  0  0  0  0  0  0  0  0
  140.0930   68.6130  226.7750 C   0  0  0  0  0  0  0  0  0  0  0  0
  139.1660   69.0550  225.6580 C   0  0  0  0  0  0  0  0  0  0  0  0
  143.1780   72.7330  220.8420 C   0  0  0  0  0  0  0  0  0  0  0  0
  146.7840   74.1470  219.6010 H   0  0  0  0  0  0  0  0  0  0  0  0
  145.7900   73.8950  218.2560 H   0  0  0  0  0  0  0  0  0  0  0  0
  145.0947   71.7256  219.1418 H   0  0  0  0  0  0  0  0  0  0  0  0
  145.8659   72.2625  220.6924 H   0  0  0  0  0  0  0  0  0  0  0  0
  144.7989   75.1876  219.1358 H   0  0  0  0  0  0  0  0  0  0  0  0
  142.7156   76.3754  219.7798 H   0  0  0  0  0  0  0  0  0  0  0  0
  140.9636   75.2384  221.0857 H   0  0  0  0  0  0  0  0  0  0  0  0
  141.1809   72.5127  223.0636 H   0  0  0  0  0  0  0  0  0  0  0  0
  139.8653   71.7853  220.4520 H   0  0  0  0  0  0  0  0  0  0  0  0
  136.0344   75.1643  221.8416 H   0  0  0  0  0  0  0  0  0  0  0  0
  133.8916   75.2781  223.0605 H   0  0  0  0  0  0  0  0  0  0  0  0
  134.8429   71.5540  224.9989 H   0  0  0  0  0  0  0  0  0  0  0  0
  138.7282   69.1035  223.1314 H   0  0  0  0  0  0  0  0  0  0  0  0
  140.1124   70.2048  222.6304 H   0  0  0  0  0  0  0  0  0  0  0  0
  140.8441   69.4379  224.4810 H   0  0  0  0  0  0  0  0  0  0  0  0
  141.0880   71.6775  224.7814 H   0  0  0  0  0  0  0  0  0  0  0  0
  139.3669   71.8852  225.3074 H   0  0  0  0  0  0  0  0  0  0  0  0
  141.4754   71.7483  226.9753 H   0  0  0  0  0  0  0  0  0  0  0  0
  139.7538   71.2420  227.3648 H   0  0  0  0  0  0  0  0  0  0  0  0
  142.0399   69.4386  226.5606 H   0  0  0  0  0  0  0  0  0  0  0  0
  141.2802   69.6227  228.2020 H   0  0  0  0  0  0  0  0  0  0  0  0
  140.6142   67.6970  226.4600 H   0  0  0  0  0  0  0  0  0  0  0  0
  139.4796   68.4393  227.6714 H   0  0  0  0  0  0  0  0  0  0  0  0
  138.7963   68.1690  225.1211 H   0  0  0  0  0  0  0  0  0  0  0  0
  138.3221   69.6115  226.0919 H   0  0  0  0  0  0  0  0  0  0  0  0
  143.3306   71.6846  221.1380 H   0  0  0  0  0  0  0  0  0  0  0  0
  1  2  1  0
  2  3  1  0
  3  4  2  0
  4  5  1  0
  5  6  2  0
  6  7  1  0
  7  8  1  0
  8  9  2  0
  9 10  1  0
 10 11  2  0
 11 12  1  0
 12 13  2  0
 13 14  1  0
 14 15  2  0
 15 16  1  0
 15 17  1  0
 17 18  2  0
 18 19  1  0
 19 20  2  0
 19 21  1  0
 21 22  1  0
 22 23  1  0
 23 24  1  0
 24 25  1  0
 25 26  1  0
 26 27  1  0
 27 28  1  0
  7 29  2  0
 29  3  1  0
 21 10  1  0
 28 23  1  0
 18 12  1  0
  1 30  1  0
  1 31  1  0
  2 32  1  0
  2 33  1  0
  4 34  1  0
  5 35  1  0
  6 36  1  0
  8 37  1  0
  9 38  1  0
 13 39  1  0
 14 40  1  0
 17 41  1  0
 22 42  1  0
 22 43  1  0
 23 44  1  0
 24 45  1  0
 24 46  1  0
 25 47  1  0
 25 48  1  0
 26 49  1  0
 26 50  1  0
 27 51  1  0
 27 52  1  0
 28 53  1  0
 28 54  1  0
 29 55  1  0
M  END
>  <smiles>  (6) 
NCc1cccc(/C=C/c2nc3ccc(F)cc3c(=O)n2CC2CCCCC2)c1

>  <score_type>  (6) 
oracle

>  <origin>  (6) 
autodockgpu

>  <m_score__min__energy>  (6) 
-8.4499999999999993

>  <m_primary>  (6) 
energy

>  <rmsd>  (6) 
9.668810769156298

>  <m_score__min__rmsd>  (6) 
9.668810769156298

>  <meeko>  (6) 
{"free_energy": -7.38, "intermolecular_energy": -9.47, "internal_energy": -1.29, "cluster_size": 6, "cluster_id": 3, "rank_in_cluster": 6}

>  <energy>  (6) 
-8.17

>  <cluster_rmsd>  (6) 
1.38

>  <cluster>  (6) 
2

$$$$

     RDKit          3D

 55 58  0  0  0  0  0  0  0  0999 V2000
  146.1040   73.0500  218.9280 N   0  0  0  0  0  0  0  0  0  0  0  0
  145.6640   73.0450  220.3200 C   0  0  0  0  0  0  0  0  0  0  0  0
  144.2530   73.5170  220.4570 C   0  0  0  0  0  0  0  0  0  0  0  0
  143.9170   74.8270  220.2010 C   0  0  0  0  0  0  0  0  0  0  0  0
  142.6000   75.1850  220.3470 C   0  0  0  0  0  0  0  0  0  0  0  0
  141.6400   74.2590  220.7390 C   0  0  0  0  0  0  0  0  0  0  0  0
  141.9560   72.9430  221.0000 C   0  0  0  0  0  0  0  0  0  0  0  0
  140.9910   71.9420  221.4110 C   0  0  0  0  0  0  0  0  0  0  0  0
  140.0800   72.1300  222.3510 C   0  0  0  0  0  0  0  0  0  0  0  0
  139.9830   71.1930  223.4900 C   0  0  0  0  0  0  0  0  0  0  0  0
  140.5490   71.6180  224.6340 N   0  0  0  0  0  0  0  0  0  0  0  0
  140.5200   70.8930  225.7700 C   0  0  0  0  0  0  0  0  0  0  0  0
  141.0970   71.3180  226.9500 C   0  0  0  0  0  0  0  0  0  0  0  0
  141.0390   70.5420  228.0800 C   0  0  0  0  0  0  0  0  0  0  0  0
  140.3970   69.3190  228.0390 C   0  0  0  0  0  0  0  0  0  0  0  0
  140.3360   68.5470  229.1500 F   0  0  0  0  0  0  0  0  0  0  0  0
  139.8160   68.8970  226.8400 C   0  0  0  0  0  0  0  0  0  0  0  0
  139.8730   69.6790  225.7020 C   0  0  0  0  0  0  0  0  0  0  0  0
  139.2940   69.2590  224.5010 C   0  0  0  0  0  0  0  0  0  0  0  0
  138.7290   68.1380  224.5490 O   0  0  0  0  0  0  0  0  0  0  0  0
  139.3410   70.0080  223.3790 N   0  0  0  0  0  0  0  0  0  0  0  0
  138.7400   69.5810  222.1420 C   0  0  0  0  0  0  0  0  0  0  0  0
  139.6450   68.7720  221.2400 C   0  0  0  0  0  0  0  0  0  0  0  0
  139.3840   67.3160  221.2130 C   0  0  0  0  0  0  0  0  0  0  0  0
  140.1820   66.6360  220.1530 C   0  0  0  0  0  0  0  0  0  0  0  0
  141.4110   67.3910  219.7060 C   0  0  0  0  0  0  0  0  0  0  0  0
  141.0900   68.7800  219.2410 C   0  0  0  0  0  0  0  0  0  0  0  0
  139.8160   69.3170  219.8660 C   0  0  0  0  0  0  0  0  0  0  0  0
  143.2970   72.6020  220.8450 C   0  0  0  0  0  0  0  0  0  0  0  0
  146.3270   74.0120  218.5800 H   0  0  0  0  0  0  0  0  0  0  0  0
  145.2810   72.7020  218.3560 H   0  0  0  0  0  0  0  0  0  0  0  0
  145.7364   72.0201  220.7128 H   0  0  0  0  0  0  0  0  0  0  0  0
  146.3109   73.7315  220.8858 H   0  0  0  0  0  0  0  0  0  0  0  0
  144.6761   75.5602  219.8908 H   0  0  0  0  0  0  0  0  0  0  0  0
  142.2984   76.2244  220.1501 H   0  0  0  0  0  0  0  0  0  0  0  0
  140.5953   74.5869  220.8442 H   0  0  0  0  0  0  0  0  0  0  0  0
  141.0184   70.9637  220.9088 H   0  0  0  0  0  0  0  0  0  0  0  0
  139.3925   72.9861  222.2850 H   0  0  0  0  0  0  0  0  0  0  0  0
  141.6095   72.2907  226.9847 H   0  0  0  0  0  0  0  0  0  0  0  0
  141.5016   70.8919  229.0147 H   0  0  0  0  0  0  0  0  0  0  0  0
  139.3038   67.9243  226.8014 H   0  0  0  0  0  0  0  0  0  0  0  0
  137.8605   68.9662  222.3838 H   0  0  0  0  0  0  0  0  0  0  0  0
  138.4914   70.4978  221.5873 H   0  0  0  0  0  0  0  0  0  0  0  0
  140.6137   68.8938  221.7467 H   0  0  0  0  0  0  0  0  0  0  0  0
  139.6498   66.8873  222.1905 H   0  0  0  0  0  0  0  0  0  0  0  0
  138.3172   67.1612  220.9938 H   0  0  0  0  0  0  0  0  0  0  0  0
  140.5029   65.6577  220.5403 H   0  0  0  0  0  0  0  0  0  0  0  0
  139.5272   66.5594  219.2724 H   0  0  0  0  0  0  0  0  0  0  0  0
  142.1133   67.4544  220.5502 H   0  0  0  0  0  0  0  0  0  0  0  0
  141.8497   66.8458  218.8573 H   0  0  0  0  0  0  0  0  0  0  0  0
  141.9238   69.4448  219.5109 H   0  0  0  0  0  0  0  0  0  0  0  0
  140.9409   68.7439  218.1517 H   0  0  0  0  0  0  0  0  0  0  0  0
  139.8707   70.4145  219.9152 H   0  0  0  0  0  0  0  0  0  0  0  0
  138.9581   69.0095  219.2499 H   0  0  0  0  0  0  0  0  0  0  0  0
  143.6053   71.5641  221.0393 H   0  0  0  0  0  0  0  0  0  0  0  0
  1  2  1  0
  2  3  1  0
  3  4  2  0
  4  5  1  0
  5  6  2  0
  6  7  1  0
  7  8  1  0
  8  9  2  0
  9 10  1  0
 10 11  2  0
 11 12  1  0
 12 13  2  0
 13 14  1  0
 14 15  2  0
 15 16  1  0
 15 17  1  0
 17 18  2  0
 18 19  1  0
 19 20  2  0
 19 21  1  0
 21 22  1  0
 22 23  1  0
 23 24  1  0
 24 25  1  0
 25 26  1  0
 26 27  1  0
 27 28  1  0
  7 29  2  0
 29  3  1  0
 21 10  1  0
 28 23  1  0
 18 12  1  0
  1 30  1  0
  1 31  1  0
  2 32  1  0
  2 33  1  0
  4 34  1  0
  5 35  1  0
  6 36  1  0
  8 37  1  0
  9 38  1  0
 13 39  1  0
 14 40  1  0
 17 41  1  0
 22 42  1  0
 22 43  1  0
 23 44  1  0
 24 45  1  0
 24 46  1  0
 25 47  1  0
 25 48  1  0
 26 49  1  0
 26 50  1  0
 27 51  1  0
 27 52  1  0
 28 53  1  0
 28 54  1  0
 29 55  1  0
M  END
>  <smiles>  (7) 
NCc1cccc(/C=C/c2nc3ccc(F)cc3c(=O)n2CC2CCCCC2)c1

>  <score_type>  (7) 
oracle

>  <origin>  (7) 
autodockgpu

>  <m_score__min__energy>  (7) 
-8.4499999999999993

>  <m_primary>  (7) 
energy

>  <rmsd>  (7) 
11.058585705466058

>  <m_score__min__rmsd>  (7) 
11.058585705466058

>  <meeko>  (7) 
{"free_energy": -8.17, "intermolecular_energy": -10.25, "internal_energy": -1.39, "cluster_size": 14, "cluster_id": 2, "rank_in_cluster": 4}

>  <energy>  (7) 
-7.99

>  <cluster_rmsd>  (7) 
1.62

>  <cluster>  (7) 
2

$$$$

     RDKit          3D

 55 58  0  0  0  0  0  0  0  0999 V2000
  139.7930   67.0710  226.1850 N   0  0  0  0  0  0  0  0  0  0  0  0
  138.8880   68.1630  225.8390 C   0  0  0  0  0  0  0  0  0  0  0  0
  139.6130   69.4620  225.7030 C   0  0  0  0  0  0  0  0  0  0  0  0
  140.4430   69.9160  226.7030 C   0  0  0  0  0  0  0  0  0  0  0  0
  141.0770   71.1180  226.5050 C   0  0  0  0  0  0  0  0  0  0  0  0
  140.8870   71.8500  225.3380 C   0  0  0  0  0  0  0  0  0  0  0  0
  140.0600   71.4120  224.3270 C   0  0  0  0  0  0  0  0  0  0  0  0
  139.8300   72.1400  223.0930 C   0  0  0  0  0  0  0  0  0  0  0  0
  140.7460   72.3250  222.1580 C   0  0  0  0  0  0  0  0  0  0  0  0
  140.9280   73.6590  221.5490 C   0  0  0  0  0  0  0  0  0  0  0  0
  140.5810   74.6990  222.3280 N   0  0  0  0  0  0  0  0  0  0  0  0
  140.7140   75.9790  221.9290 C   0  0  0  0  0  0  0  0  0  0  0  0
  140.3630   77.0560  222.7190 C   0  0  0  0  0  0  0  0  0  0  0  0
  140.5190   78.3410  222.2660 C   0  0  0  0  0  0  0  0  0  0  0  0
  141.0350   78.5650  221.0040 C   0  0  0  0  0  0  0  0  0  0  0  0
  141.1920   79.8310  220.5490 F   0  0  0  0  0  0  0  0  0  0  0  0
  141.3890   77.4700  220.2100 C   0  0  0  0  0  0  0  0  0  0  0  0
  141.2320   76.1740  220.6670 C   0  0  0  0  0  0  0  0  0  0  0  0
  141.5830   75.0770  219.8760 C   0  0  0  0  0  0  0  0  0  0  0  0
  142.0460   75.3660  218.7450 O   0  0  0  0  0  0  0  0  0  0  0  0
  141.4370   73.8050  220.3040 N   0  0  0  0  0  0  0  0  0  0  0  0
  141.8040   72.6730  219.4940 C   0  0  0  0  0  0  0  0  0  0  0  0
  143.2720   72.3130  219.5290 C   0  0  0  0  0  0  0  0  0  0  0  0
  144.1330   73.2230  220.3180 C   0  0  0  0  0  0  0  0  0  0  0  0
  145.5150   72.6810  220.4620 C   0  0  0  0  0  0  0  0  0  0  0  0
  145.9090   71.6700  219.4120 C   0  0  0  0  0  0  0  0  0  0  0  0
  144.9520   70.5180  219.3410 C   0  0  0  0  0  0  0  0  0  0  0  0
  143.5660   70.8880  219.8360 C   0  0  0  0  0  0  0  0  0  0  0  0
  139.4280   70.1910  224.5480 C   0  0  0  0  0  0  0  0  0  0  0  0
  139.9290   66.9730  227.2190 H   0  0  0  0  0  0  0  0  0  0  0  0
  140.7380   67.3280  225.7760 H   0  0  0  0  0  0  0  0  0  0  0  0
  138.3956   67.9283  224.8838 H   0  0  0  0  0  0  0  0  0  0  0  0
  138.1508   68.2659  226.6489 H   0  0  0  0  0  0  0  0  0  0  0  0
  140.5928   69.3374  227.6265 H   0  0  0  0  0  0  0  0  0  0  0  0
  141.7477   71.5091  227.2842 H   0  0  0  0  0  0  0  0  0  0  0  0
  141.4133   72.8085  225.2184 H   0  0  0  0  0  0  0  0  0  0  0  0
  138.8295   72.5651  222.9248 H   0  0  0  0  0  0  0  0  0  0  0  0
  141.3747   71.4832  221.8323 H   0  0  0  0  0  0  0  0  0  0  0  0
  139.9530   76.8809  223.7246 H   0  0  0  0  0  0  0  0  0  0  0  0
  140.2344   79.1900  222.9049 H   0  0  0  0  0  0  0  0  0  0  0  0
  141.7996   77.6422  219.2042 H   0  0  0  0  0  0  0  0  0  0  0  0
  141.2304   71.8022  219.8442 H   0  0  0  0  0  0  0  0  0  0  0  0
  141.5802   72.9529  218.4540 H   0  0  0  0  0  0  0  0  0  0  0  0
  143.5536   72.4680  218.4770 H   0  0  0  0  0  0  0  0  0  0  0  0
  144.1825   74.1976  219.8103 H   0  0  0  0  0  0  0  0  0  0  0  0
  143.6966   73.3260  221.3225 H   0  0  0  0  0  0  0  0  0  0  0  0
  146.2206   73.5232  220.4085 H   0  0  0  0  0  0  0  0  0  0  0  0
  145.5428   72.1536  221.4269 H   0  0  0  0  0  0  0  0  0  0  0  0
  145.9340   72.1695  218.4323 H   0  0  0  0  0  0  0  0  0  0  0  0
  146.8964   71.2697  219.6853 H   0  0  0  0  0  0  0  0  0  0  0  0
  144.8767   70.1848  218.2954 H   0  0  0  0  0  0  0  0  0  0  0  0
  145.3388   69.7192  219.9909 H   0  0  0  0  0  0  0  0  0  0  0  0
  142.8208   70.2487  219.3400 H   0  0  0  0  0  0  0  0  0  0  0  0
  143.5237   70.7404  220.9252 H   0  0  0  0  0  0  0  0  0  0  0  0
  138.7566   69.7938  223.7725 H   0  0  0  0  0  0  0  0  0  0  0  0
  1  2  1  0
  2  3  1  0
  3  4  2  0
  4  5  1  0
  5  6  2  0
  6  7  1  0
  7  8  1  0
  8  9  2  0
  9 10  1  0
 10 11  2  0
 11 12  1  0
 12 13  2  0
 13 14  1  0
 14 15  2  0
 15 16  1  0
 15 17  1  0
 17 18  2  0
 18 19  1  0
 19 20  2  0
 19 21  1  0
 21 22  1  0
 22 23  1  0
 23 24  1  0
 24 25  1  0
 25 26  1  0
 26 27  1  0
 27 28  1  0
  7 29  2  0
 29  3  1  0
 21 10  1  0
 28 23  1  0
 18 12  1  0
  1 30  1  0
  1 31  1  0
  2 32  1  0
  2 33  1  0
  4 34  1  0
  5 35  1  0
  6 36  1  0
  8 37  1  0
  9 38  1  0
 13 39  1  0
 14 40  1  0
 17 41  1  0
 22 42  1  0
 22 43  1  0
 23 44  1  0
 24 45  1  0
 24 46  1  0
 25 47  1  0
 25 48  1  0
 26 49  1  0
 26 50  1  0
 27 51  1  0
 27 52  1  0
 28 53  1  0
 28 54  1  0
 29 55  1  0
M  END
>  <smiles>  (8) 
NCc1cccc(/C=C/c2nc3ccc(F)cc3c(=O)n2CC2CCCCC2)c1

>  <score_type>  (8) 
oracle

>  <origin>  (8) 
autodockgpu

>  <m_score__min__energy>  (8) 
-8.4499999999999993

>  <m_primary>  (8) 
energy

>  <rmsd>  (8) 
5.75898921947308

>  <m_score__min__rmsd>  (8) 
5.75898921947308

>  <meeko>  (8) 
{"free_energy": -7.58, "intermolecular_energy": -9.66, "internal_energy": -1.25, "cluster_size": 2, "cluster_id": 1, "rank_in_cluster": 2}

>  <energy>  (8) 
-7.83

>  <cluster_rmsd>  (8) 
1.59

>  <cluster>  (8) 
2

$$$$

     RDKit          3D

 55 58  0  0  0  0  0  0  0  0999 V2000
  143.1510   80.4790  217.8490 N   0  0  0  0  0  0  0  0  0  0  0  0
  141.8990   81.1810  218.1170 C   0  0  0  0  0  0  0  0  0  0  0  0
  141.7050   81.4300  219.5760 C   0  0  0  0  0  0  0  0  0  0  0  0
  141.0600   82.5620  220.0210 C   0  0  0  0  0  0  0  0  0  0  0  0
  140.9190   82.7210  221.3780 C   0  0  0  0  0  0  0  0  0  0  0  0
  141.4100   81.7740  222.2700 C   0  0  0  0  0  0  0  0  0  0  0  0
  142.0600   80.6360  221.8440 C   0  0  0  0  0  0  0  0  0  0  0  0
  142.5890   79.6220  222.7360 C   0  0  0  0  0  0  0  0  0  0  0  0
  141.8450   78.8600  223.5190 C   0  0  0  0  0  0  0  0  0  0  0  0
  140.3720   78.9050  223.4190 C   0  0  0  0  0  0  0  0  0  0  0  0
  139.7880   79.9710  223.9970 N   0  0  0  0  0  0  0  0  0  0  0  0
  138.4570   80.1730  223.9680 C   0  0  0  0  0  0  0  0  0  0  0  0
  137.8460   81.2630  224.5560 C   0  0  0  0  0  0  0  0  0  0  0  0
  136.4850   81.4230  224.4970 C   0  0  0  0  0  0  0  0  0  0  0  0
  135.7120   80.4830  223.8430 C   0  0  0  0  0  0  0  0  0  0  0  0
  134.3670   80.6340  223.7810 F   0  0  0  0  0  0  0  0  0  0  0  0
  136.3380   79.3830  223.2500 C   0  0  0  0  0  0  0  0  0  0  0  0
  137.7100   79.2220  223.3080 C   0  0  0  0  0  0  0  0  0  0  0  0
  138.3380   78.1230  222.7170 C   0  0  0  0  0  0  0  0  0  0  0  0
  137.5660   77.3170  222.1400 O   0  0  0  0  0  0  0  0  0  0  0  0
  139.6760   77.9480  222.7650 N   0  0  0  0  0  0  0  0  0  0  0  0
  140.3280   76.8190  222.1520 C   0  0  0  0  0  0  0  0  0  0  0  0
  140.7040   77.0120  220.6990 C   0  0  0  0  0  0  0  0  0  0  0  0
  139.8640   77.9680  219.9440 C   0  0  0  0  0  0  0  0  0  0  0  0
  140.4300   78.2450  218.5920 C   0  0  0  0  0  0  0  0  0  0  0  0
  141.3660   77.1810  218.0700 C   0  0  0  0  0  0  0  0  0  0  0  0
  142.4990   76.9060  219.0120 C   0  0  0  0  0  0  0  0  0  0  0  0
  142.1520   77.2480  220.4490 C   0  0  0  0  0  0  0  0  0  0  0  0
  142.1910   80.4940  220.4650 C   0  0  0  0  0  0  0  0  0  0  0  0
  143.8820   81.1030  217.4340 H   0  0  0  0  0  0  0  0  0  0  0  0
  142.9280   79.7420  217.1190 H   0  0  0  0  0  0  0  0  0  0  0  0
  141.9119   82.1462  217.5896 H   0  0  0  0  0  0  0  0  0  0  0  0
  141.0703   80.5493  217.7646 H   0  0  0  0  0  0  0  0  0  0  0  0
  140.6718   83.3116  219.3157 H   0  0  0  0  0  0  0  0  0  0  0  0
  140.4080   83.6143  221.7665 H   0  0  0  0  0  0  0  0  0  0  0  0
  141.2754   81.9384  223.3493 H   0  0  0  0  0  0  0  0  0  0  0  0
  143.6792   79.4779  222.7626 H   0  0  0  0  0  0  0  0  0  0  0  0
  142.3246   78.1899  224.2477 H   0  0  0  0  0  0  0  0  0  0  0  0
  138.4586   82.0125  225.0784 H   0  0  0  0  0  0  0  0  0  0  0  0
  136.0108   82.2964  224.9686 H   0  0  0  0  0  0  0  0  0  0  0  0
  135.7279   78.6315  222.7275 H   0  0  0  0  0  0  0  0  0  0  0  0
  141.2473   76.6068  222.7175 H   0  0  0  0  0  0  0  0  0  0  0  0
  139.6018   75.9931  222.1756 H   0  0  0  0  0  0  0  0  0  0  0  0
  140.4740   76.0190  220.2855 H   0  0  0  0  0  0  0  0  0  0  0  0
  138.8555   77.5441  219.8291 H   0  0  0  0  0  0  0  0  0  0  0  0
  139.8301   78.9142  220.5040 H   0  0  0  0  0  0  0  0  0  0  0  0
  139.5939   78.3432  217.8840 H   0  0  0  0  0  0  0  0  0  0  0  0
  141.0265   79.1643  218.6871 H   0  0  0  0  0  0  0  0  0  0  0  0
  140.7967   76.2516  217.9210 H   0  0  0  0  0  0  0  0  0  0  0  0
  141.7956   77.5457  217.1253 H   0  0  0  0  0  0  0  0  0  0  0  0
  142.7546   75.8376  218.9549 H   0  0  0  0  0  0  0  0  0  0  0  0
  143.3465   77.5396  218.7115 H   0  0  0  0  0  0  0  0  0  0  0  0
  142.7452   76.6160  221.1262 H   0  0  0  0  0  0  0  0  0  0  0  0
  142.3789   78.3090  220.6299 H   0  0  0  0  0  0  0  0  0  0  0  0
  142.7007   79.6028  220.0701 H   0  0  0  0  0  0  0  0  0  0  0  0
  1  2  1  0
  2  3  1  0
  3  4  2  0
  4  5  1  0
  5  6  2  0
  6  7  1  0
  7  8  1  0
  8  9  2  0
  9 10  1  0
 10 11  2  0
 11 12  1  0
 12 13  2  0
 13 14  1  0
 14 15  2  0
 15 16  1  0
 15 17  1  0
 17 18  2  0
 18 19  1  0
 19 20  2  0
 19 21  1  0
 21 22  1  0
 22 23  1  0
 23 24  1  0
 24 25  1  0
 25 26  1  0
 26 27  1  0
 27 28  1  0
  7 29  2  0
 29  3  1  0
 21 10  1  0
 28 23  1  0
 18 12  1  0
  1 30  1  0
  1 31  1  0
  2 32  1  0
  2 33  1  0
  4 34  1  0
  5 35  1  0
  6 36  1  0
  8 37  1  0
  9 38  1  0
 13 39  1  0
 14 40  1  0
 17 41  1  0
 22 42  1  0
 22 43  1  0
 23 44  1  0
 24 45  1  0
 24 46  1  0
 25 47  1  0
 25 48  1  0
 26 49  1  0
 26 50  1  0
 27 51  1  0
 27 52  1  0
 28 53  1  0
 28 54  1  0
 29 55  1  0
M  END
>  <smiles>  (9) 
NCc1cccc(/C=C/c2nc3ccc(F)cc3c(=O)n2CC2CCCCC2)c1

>  <score_type>  (9) 
oracle

>  <origin>  (9) 
autodockgpu

>  <m_score__min__energy>  (9) 
-8.4499999999999993

>  <m_primary>  (9) 
energy

>  <rmsd>  (9) 
3.543657160860524

>  <m_score__min__rmsd>  (9) 
3.543657160860524

>  <meeko>  (9) 
{"free_energy": -6.34, "intermolecular_energy": -8.43, "internal_energy": -2.58, "cluster_size": 8, "cluster_id": 10, "rank_in_cluster": 8}

>  <energy>  (9) 
-7.79

>  <cluster_rmsd>  (9) 
1.58

>  <cluster>  (9) 
2

$$$$

     RDKit          3D

 55 58  0  0  0  0  0  0  0  0999 V2000
  140.2160   71.9030  228.3680 N   0  0  0  0  0  0  0  0  0  0  0  0
  140.3400   70.5250  227.9040 C   0  0  0  0  0  0  0  0  0  0  0  0
  139.8850   70.3750  226.4890 C   0  0  0  0  0  0  0  0  0  0  0  0
  138.9390   69.4360  226.1460 C   0  0  0  0  0  0  0  0  0  0  0  0
  138.5700   69.3580  224.8260 C   0  0  0  0  0  0  0  0  0  0  0  0
  139.1320   70.1970  223.8700 C   0  0  0  0  0  0  0  0  0  0  0  0
  140.0810   71.1420  224.1930 C   0  0  0  0  0  0  0  0  0  0  0  0
  140.6950   72.0380  223.2310 C   0  0  0  0  0  0  0  0  0  0  0  0
  140.0760   72.5270  222.1710 C   0  0  0  0  0  0  0  0  0  0  0  0
  140.4410   73.8590  221.6440 C   0  0  0  0  0  0  0  0  0  0  0  0
  139.9580   74.9040  222.3400 N   0  0  0  0  0  0  0  0  0  0  0  0
  140.2240   76.1820  222.0070 C   0  0  0  0  0  0  0  0  0  0  0  0
  139.7360   77.2630  222.7130 C   0  0  0  0  0  0  0  0  0  0  0  0
  140.0380   78.5460  222.3310 C   0  0  0  0  0  0  0  0  0  0  0  0
  140.8390   78.7630  221.2280 C   0  0  0  0  0  0  0  0  0  0  0  0
  141.1410   80.0260  220.8440 F   0  0  0  0  0  0  0  0  0  0  0  0
  141.3300   77.6630  220.5180 C   0  0  0  0  0  0  0  0  0  0  0  0
  141.0270   76.3690  220.9030 C   0  0  0  0  0  0  0  0  0  0  0  0
  141.5150   75.2680  220.1950 C   0  0  0  0  0  0  0  0  0  0  0  0
  142.2370   75.5500  219.2080 O   0  0  0  0  0  0  0  0  0  0  0  0
  141.2290   73.9980  220.5550 N   0  0  0  0  0  0  0  0  0  0  0  0
  141.7350   72.8600  219.8310 C   0  0  0  0  0  0  0  0  0  0  0  0
  143.2400   72.7070  219.8550 C   0  0  0  0  0  0  0  0  0  0  0  0
  143.9500   73.5500  220.8430 C   0  0  0  0  0  0  0  0  0  0  0  0
  145.3940   73.1860  220.9350 C   0  0  0  0  0  0  0  0  0  0  0  0
  145.9420   72.4700  219.7240 C   0  0  0  0  0  0  0  0  0  0  0  0
  145.1610   71.2350  219.3880 C   0  0  0  0  0  0  0  0  0  0  0  0
  143.7310   71.3030  219.8880 C   0  0  0  0  0  0  0  0  0  0  0  0
  140.4390   71.2040  225.5370 C   0  0  0  0  0  0  0  0  0  0  0  0
  139.2620   72.1170  228.7450 H   0  0  0  0  0  0  0  0  0  0  0  0
  140.3510   72.5180  227.5140 H   0  0  0  0  0  0  0  0  0  0  0  0
  141.3943   70.2189  227.9737 H   0  0  0  0  0  0  0  0  0  0  0  0
  139.7026   69.8912  228.5380 H   0  0  0  0  0  0  0  0  0  0  0  0
  138.4947   68.7721  226.9022 H   0  0  0  0  0  0  0  0  0  0  0  0
  137.8160   68.6183  224.5189 H   0  0  0  0  0  0  0  0  0  0  0  0
  138.8086   70.1032  222.8228 H   0  0  0  0  0  0  0  0  0  0  0  0
  141.7432   72.3289  223.3947 H   0  0  0  0  0  0  0  0  0  0  0  0
  139.2861   71.9407  221.6788 H   0  0  0  0  0  0  0  0  0  0  0  0
  139.0973   77.0940  223.5925 H   0  0  0  0  0  0  0  0  0  0  0  0
  139.6429   79.3990  222.9021 H   0  0  0  0  0  0  0  0  0  0  0  0
  141.9684   77.8293  219.6378 H   0  0  0  0  0  0  0  0  0  0  0  0
  141.2924   71.9527  220.2680 H   0  0  0  0  0  0  0  0  0  0  0  0
  141.4577   73.0163  218.7780 H   0  0  0  0  0  0  0  0  0  0  0  0
  143.5113   73.1074  218.8670 H   0  0  0  0  0  0  0  0  0  0  0  0
  143.8657   74.6040  220.5398 H   0  0  0  0  0  0  0  0  0  0  0  0
  143.4898   73.3882  221.8289 H   0  0  0  0  0  0  0  0  0  0  0  0
  145.9722   74.1109  221.0771 H   0  0  0  0  0  0  0  0  0  0  0  0
  145.4849   72.4853  221.7780 H   0  0  0  0  0  0  0  0  0  0  0  0
  145.9080   73.1544  218.8635 H   0  0  0  0  0  0  0  0  0  0  0  0
  146.9728   72.1626  219.9541 H   0  0  0  0  0  0  0  0  0  0  0  0
  145.1478   71.1115  218.2950 H   0  0  0  0  0  0  0  0  0  0  0  0
  145.6499   70.3832  219.8833 H   0  0  0  0  0  0  0  0  0  0  0  0
  143.0917   70.6796  219.2456 H   0  0  0  0  0  0  0  0  0  0  0  0
  143.6958   70.9353  220.9241 H   0  0  0  0  0  0  0  0  0  0  0  0
  141.1919   71.9419  225.8509 H   0  0  0  0  0  0  0  0  0  0  0  0
  1  2  1  0
  2  3  1  0
  3  4  2  0
  4  5  1  0
  5  6  2  0
  6  7  1  0
  7  8  1  0
  8  9  2  0
  9 10  1  0
 10 11  2  0
 11 12  1  0
 12 13  2  0
 13 14  1  0
 14 15  2  0
 15 16  1  0
 15 17  1  0
 17 18  2  0
 18 19  1  0
 19 20  2  0
 19 21  1  0
 21 22  1  0
 22 23  1  0
 23 24  1  0
 24 25  1  0
 25 26  1  0
 26 27  1  0
 27 28  1  0
  7 29  2  0
 29  3  1  0
 21 10  1  0
 28 23  1  0
 18 12  1  0
  1 30  1  0
  1 31  1  0
  2 32  1  0
  2 33  1  0
  4 34  1  0
  5 35  1  0
  6 36  1  0
  8 37  1  0
  9 38  1  0
 13 39  1  0
 14 40  1  0
 17 41  1  0
 22 42  1  0
 22 43  1  0
 23 44  1  0
 24 45  1  0
 24 46  1  0
 25 47  1  0
 25 48  1  0
 26 49  1  0
 26 50  1  0
 27 51  1  0
 27 52  1  0
 28 53  1  0
 28 54  1  0
 29 55  1  0
M  END
>  <smiles>  (10) 
NCc1cccc(/C=C/c2nc3ccc(F)cc3c(=O)n2CC2CCCCC2)c1

>  <score_type>  (10) 
oracle

>  <origin>  (10) 
autodockgpu

>  <m_score__min__energy>  (10) 
-8.4499999999999993

>  <m_primary>  (10) 
energy

>  <rmsd>  (10) 
5.530059919388678

>  <m_score__min__rmsd>  (10) 
5.530059919388678

>  <meeko>  (10) 
{"free_energy": -7.33, "intermolecular_energy": -9.42, "internal_energy": -1.17, "cluster_size": 2, "cluster_id": 5, "rank_in_cluster": 2}

>  <energy>  (10) 
-7.76

>  <cluster_rmsd>  (10) 
1.57

>  <cluster>  (10) 
2

$$$$

     RDKit          3D

 55 58  0  0  0  0  0  0  0  0999 V2000
  135.8230   74.6750  224.4460 N   0  0  0  0  0  0  0  0  0  0  0  0
  134.6900   74.7050  225.3670 C   0  0  0  0  0  0  0  0  0  0  0  0
  134.2530   73.3300  225.7510 C   0  0  0  0  0  0  0  0  0  0  0  0
  133.2440   73.1400  226.6680 C   0  0  0  0  0  0  0  0  0  0  0  0
  132.8960   71.8460  226.9710 C   0  0  0  0  0  0  0  0  0  0  0  0
  133.5390   70.7680  226.3730 C   0  0  0  0  0  0  0  0  0  0  0  0
  134.5510   70.9380  225.4540 C   0  0  0  0  0  0  0  0  0  0  0  0
  135.2510   69.8460  224.8050 C   0  0  0  0  0  0  0  0  0  0  0  0
  136.5670   69.7490  224.7260 C   0  0  0  0  0  0  0  0  0  0  0  0
  137.3340   70.6980  223.8920 C   0  0  0  0  0  0  0  0  0  0  0  0
  136.5930   71.5550  223.1660 N   0  0  0  0  0  0  0  0  0  0  0  0
  137.1410   72.4990  222.3760 C   0  0  0  0  0  0  0  0  0  0  0  0
  136.3910   73.3840  221.6280 C   0  0  0  0  0  0  0  0  0  0  0  0
  136.9990   74.3290  220.8400 C   0  0  0  0  0  0  0  0  0  0  0  0
  138.3780   74.3980  220.7930 C   0  0  0  0  0  0  0  0  0  0  0  0
  138.9860   75.3270  220.0170 F   0  0  0  0  0  0  0  0  0  0  0  0
  139.1300   73.4980  221.5540 C   0  0  0  0  0  0  0  0  0  0  0  0
  138.5180   72.5460  222.3490 C   0  0  0  0  0  0  0  0  0  0  0  0
  139.2660   71.6450  223.1100 C   0  0  0  0  0  0  0  0  0  0  0  0
  140.5110   71.7750  223.0140 O   0  0  0  0  0  0  0  0  0  0  0  0
  138.6860   70.7080  223.8910 N   0  0  0  0  0  0  0  0  0  0  0  0
  139.4540   69.7820  224.6820 C   0  0  0  0  0  0  0  0  0  0  0  0
  139.9820   70.3400  225.9840 C   0  0  0  0  0  0  0  0  0  0  0  0
  140.1250   69.3620  227.0860 C   0  0  0  0  0  0  0  0  0  0  0  0
  140.8370   69.9540  228.2550 C   0  0  0  0  0  0  0  0  0  0  0  0
  140.7980   71.4620  228.3200 C   0  0  0  0  0  0  0  0  0  0  0  0
  141.3240   72.1020  227.0700 C   0  0  0  0  0  0  0  0  0  0  0  0
  141.1930   71.1960  225.8600 C   0  0  0  0  0  0  0  0  0  0  0  0
  134.8880   72.2570  225.1610 C   0  0  0  0  0  0  0  0  0  0  0  0
  136.2130   73.7110  224.3190 H   0  0  0  0  0  0  0  0  0  0  0  0
  136.5880   75.2560  224.8960 H   0  0  0  0  0  0  0  0  0  0  0  0
  134.9833   75.2523  226.2750 H   0  0  0  0  0  0  0  0  0  0  0  0
  133.8498   75.2025  224.8605 H   0  0  0  0  0  0  0  0  0  0  0  0
  132.7351   73.9929  227.1408 H   0  0  0  0  0  0  0  0  0  0  0  0
  132.0938   71.6593  227.7002 H   0  0  0  0  0  0  0  0  0  0  0  0
  133.2299   69.7472  226.6422 H   0  0  0  0  0  0  0  0  0  0  0  0
  134.6479   69.0470  224.3491 H   0  0  0  0  0  0  0  0  0  0  0  0
  137.0929   68.9594  225.2828 H   0  0  0  0  0  0  0  0  0  0  0  0
  135.2929   73.3313  221.6639 H   0  0  0  0  0  0  0  0  0  0  0  0
  136.3907   75.0287  220.2481 H   0  0  0  0  0  0  0  0  0  0  0  0
  140.2283   73.5480  221.5198 H   0  0  0  0  0  0  0  0  0  0  0  0
  138.8131   68.9190  224.9154 H   0  0  0  0  0  0  0  0  0  0  0  0
  140.3360   69.5200  224.0792 H   0  0  0  0  0  0  0  0  0  0  0  0
  139.1583   71.0073  226.2778 H   0  0  0  0  0  0  0  0  0  0  0  0
  139.1245   69.0349  227.4054 H   0  0  0  0  0  0  0  0  0  0  0  0
  140.7166   68.5112  226.7170 H   0  0  0  0  0  0  0  0  0  0  0  0
  140.3762   69.5595  229.1726 H   0  0  0  0  0  0  0  0  0  0  0  0
  141.8956   69.6749  228.1479 H   0  0  0  0  0  0  0  0  0  0  0  0
  139.7563   71.7823  228.4694 H   0  0  0  0  0  0  0  0  0  0  0  0
  141.4407   71.7784  229.1547 H   0  0  0  0  0  0  0  0  0  0  0  0
  140.7596   73.0272  226.8819 H   0  0  0  0  0  0  0  0  0  0  0  0
  142.3938   72.3078  227.2219 H   0  0  0  0  0  0  0  0  0  0  0  0
  141.1103   71.8123  224.9526 H   0  0  0  0  0  0  0  0  0  0  0  0
  142.0820   70.5511  225.7981 H   0  0  0  0  0  0  0  0  0  0  0  0
  135.6895   72.4502  224.4328 H   0  0  0  0  0  0  0  0  0  0  0  0
  1  2  1  0
  2  3  1  0
  3  4  2  0
  4  5  1  0
  5  6  2  0
  6  7  1  0
  7  8  1  0
  8  9  2  0
  9 10  1  0
 10 11  2  0
 11 12  1  0
 12 13  2  0
 13 14  1  0
 14 15  2  0
 15 16  1  0
 15 17  1  0
 17 18  2  0
 18 19  1  0
 19 20  2  0
 19 21  1  0
 21 22  1  0
 22 23  1  0
 23 24  1  0
 24 25  1  0
 25 26  1  0
 26 27  1  0
 27 28  1  0
  7 29  2  0
 29  3  1  0
 21 10  1  0
 28 23  1  0
 18 12  1  0
  1 30  1  0
  1 31  1  0
  2 32  1  0
  2 33  1  0
  4 34  1  0
  5 35  1  0
  6 36  1  0
  8 37  1  0
  9 38  1  0
 13 39  1  0
 14 40  1  0
 17 41  1  0
 22 42  1  0
 22 43  1  0
 23 44  1  0
 24 45  1  0
 24 46  1  0
 25 47  1  0
 25 48  1  0
 26 49  1  0
 26 50  1  0
 27 51  1  0
 27 52  1  0
 28 53  1  0
 28 54  1  0
 29 55  1  0
M  END
>  <smiles>  (11) 
NCc1cccc(/C=C/c2nc3ccc(F)cc3c(=O)n2CC2CCCCC2)c1

>  <score_type>  (11) 
oracle

>  <origin>  (11) 
autodockgpu

>  <m_score__min__energy>  (11) 
-8.4499999999999993

>  <m_primary>  (11) 
energy

>  <rmsd>  (11) 
9.992964514729298

>  <m_score__min__rmsd>  (11) 
9.992964514729298

>  <meeko>  (11) 
{"free_energy": -7.1, "intermolecular_energy": -9.19, "internal_energy": -1.75, "cluster_size": 2, "cluster_id": 8, "rank_in_cluster": 2}

>  <energy>  (11) 
-7.68

>  <cluster_rmsd>  (11) 
1.5

>  <cluster>  (11) 
2

$$$$

     RDKit          3D

 55 58  0  0  0  0  0  0  0  0999 V2000
  146.0550   72.1780  219.7300 N   0  0  0  0  0  0  0  0  0  0  0  0
  145.8110   73.4430  220.4180 C   0  0  0  0  0  0  0  0  0  0  0  0
  144.3560   73.7780  220.4590 C   0  0  0  0  0  0  0  0  0  0  0  0
  143.9060   75.0220  220.0790 C   0  0  0  0  0  0  0  0  0  0  0  0
  142.5540   75.2560  220.1440 C   0  0  0  0  0  0  0  0  0  0  0  0
  141.6720   74.2730  220.5770 C   0  0  0  0  0  0  0  0  0  0  0  0
  142.1030   73.0220  220.9620 C   0  0  0  0  0  0  0  0  0  0  0  0
  141.2220   71.9650  221.4210 C   0  0  0  0  0  0  0  0  0  0  0  0
  140.2660   72.1320  222.3180 C   0  0  0  0  0  0  0  0  0  0  0  0
  140.1310   71.1860  223.4460 C   0  0  0  0  0  0  0  0  0  0  0  0
  140.6750   71.5940  224.6070 N   0  0  0  0  0  0  0  0  0  0  0  0
  140.6120   70.8600  225.7350 C   0  0  0  0  0  0  0  0  0  0  0  0
  141.1650   71.2680  226.9330 C   0  0  0  0  0  0  0  0  0  0  0  0
  141.0720   70.4820  228.0540 C   0  0  0  0  0  0  0  0  0  0  0  0
  140.4180   69.2680  227.9870 C   0  0  0  0  0  0  0  0  0  0  0  0
  140.3220   68.4860  229.0890 F   0  0  0  0  0  0  0  0  0  0  0  0
  139.8600   68.8620  226.7710 C   0  0  0  0  0  0  0  0  0  0  0  0
  139.9530   69.6540  225.6410 C   0  0  0  0  0  0  0  0  0  0  0  0
  139.3980   69.2510  224.4240 C   0  0  0  0  0  0  0  0  0  0  0  0
  138.8190   68.1370  224.4480 O   0  0  0  0  0  0  0  0  0  0  0  0
  139.4790   70.0100  223.3100 N   0  0  0  0  0  0  0  0  0  0  0  0
  138.9030   69.6000  222.0550 C   0  0  0  0  0  0  0  0  0  0  0  0
  139.8240   68.8000  221.1610 C   0  0  0  0  0  0  0  0  0  0  0  0
  139.5570   67.3450  221.1100 C   0  0  0  0  0  0  0  0  0  0  0  0
  140.3750   66.6760  220.0570 C   0  0  0  0  0  0  0  0  0  0  0  0
  141.6160   67.4310  219.6470 C   0  0  0  0  0  0  0  0  0  0  0  0
  141.3120   68.8280  219.1950 C   0  0  0  0  0  0  0  0  0  0  0  0
  140.0270   69.3630  219.7990 C   0  0  0  0  0  0  0  0  0  0  0  0
  143.4770   72.8060  220.8890 C   0  0  0  0  0  0  0  0  0  0  0  0
  145.1950   71.8000  219.2660 H   0  0  0  0  0  0  0  0  0  0  0  0
  146.3290   71.4800  220.4800 H   0  0  0  0  0  0  0  0  0  0  0  0
  146.1885   73.3669  221.4484 H   0  0  0  0  0  0  0  0  0  0  0  0
  146.3308   74.2396  219.8655 H   0  0  0  0  0  0  0  0  0  0  0  0
  144.6035   75.8003  219.7358 H   0  0  0  0  0  0  0  0  0  0  0  0
  142.1619   76.2401  219.8477 H   0  0  0  0  0  0  0  0  0  0  0  0
  140.5964   74.5007  220.6135 H   0  0  0  0  0  0  0  0  0  0  0  0
  141.3584   70.9600  220.9951 H   0  0  0  0  0  0  0  0  0  0  0  0
  139.5686   72.9775  222.2250 H   0  0  0  0  0  0  0  0  0  0  0  0
  141.6864   72.2349  226.9893 H   0  0  0  0  0  0  0  0  0  0  0  0
  141.5168   70.8179  229.0023 H   0  0  0  0  0  0  0  0  0  0  0  0
  139.3378   67.8956  226.7120 H   0  0  0  0  0  0  0  0  0  0  0  0
  138.0172   68.9845  222.2708 H   0  0  0  0  0  0  0  0  0  0  0  0
  138.6688   70.5246  221.5071 H   0  0  0  0  0  0  0  0  0  0  0  0
  140.7831   68.9111  221.6881 H   0  0  0  0  0  0  0  0  0  0  0  0
  139.8007   66.9023  222.0871 H   0  0  0  0  0  0  0  0  0  0  0  0
  138.4943   67.1972  220.8675 H   0  0  0  0  0  0  0  0  0  0  0  0
  140.6833   65.6909  220.4371 H   0  0  0  0  0  0  0  0  0  0  0  0
  139.7388   66.6150  219.1617 H   0  0  0  0  0  0  0  0  0  0  0  0
  142.3005   67.4790  220.5067 H   0  0  0  0  0  0  0  0  0  0  0  0
  142.0697   66.8957  218.7999 H   0  0  0  0  0  0  0  0  0  0  0  0
  142.1428   69.4846  219.4928 H   0  0  0  0  0  0  0  0  0  0  0  0
  141.1869   68.8079  218.1023 H   0  0  0  0  0  0  0  0  0  0  0  0
  140.0856   70.4595  219.8645 H   0  0  0  0  0  0  0  0  0  0  0  0
  139.1813   69.0687  219.1601 H   0  0  0  0  0  0  0  0  0  0  0  0
  143.8756   71.8245  221.1851 H   0  0  0  0  0  0  0  0  0  0  0  0
  1  2  1  0
  2  3  1  0
  3  4  2  0
  4  5  1  0
  5  6  2  0
  6  7  1  0
  7  8  1  0
  8  9  2  0
  9 10  1  0
 10 11  2  0
 11 12  1  0
 12 13  2  0
 13 14  1  0
 14 15  2  0
 15 16  1  0
 15 17  1  0
 17 18  2  0
 18 19  1  0
 19 20  2  0
 19 21  1  0
 21 22  1  0
 22 23  1  0
 23 24  1  0
 24 25  1  0
 25 26  1  0
 26 27  1  0
 27 28  1  0
  7 29  2  0
 29  3  1  0
 21 10  1  0
 28 23  1  0
 18 12  1  0
  1 30  1  0
  1 31  1  0
  2 32  1  0
  2 33  1  0
  4 34  1  0
  5 35  1  0
  6 36  1  0
  8 37  1  0
  9 38  1  0
 13 39  1  0
 14 40  1  0
 17 41  1  0
 22 42  1  0
 22 43  1  0
 23 44  1  0
 24 45  1  0
 24 46  1  0
 25 47  1  0
 25 48  1  0
 26 49  1  0
 26 50  1  0
 27 51  1  0
 27 52  1  0
 28 53  1  0
 28 54  1  0
 29 55  1  0
M  END
>  <smiles>  (12) 
NCc1cccc(/C=C/c2nc3ccc(F)cc3c(=O)n2CC2CCCCC2)c1

>  <score_type>  (12) 
oracle

>  <origin>  (12) 
autodockgpu

>  <m_score__min__energy>  (12) 
-8.4499999999999993

>  <m_primary>  (12) 
energy

>  <rmsd>  (12) 
11.045743100716187

>  <m_score__min__rmsd>  (12) 
11.045743100716187

>  <meeko>  (12) 
{"free_energy": -7.83, "intermolecular_energy": -9.92, "internal_energy": -1.37, "cluster_size": 14, "cluster_id": 2, "rank_in_cluster": 6}

>  <energy>  (12) 
-7.64

>  <cluster_rmsd>  (12) 
0.54

>  <cluster>  (12) 
2

$$$$

     RDKit          3D

 55 58  0  0  0  0  0  0  0  0999 V2000
  145.9090   73.0720  218.9600 N   0  0  0  0  0  0  0  0  0  0  0  0
  145.5330   73.2370  220.3610 C   0  0  0  0  0  0  0  0  0  0  0  0
  144.0860   73.5720  220.5110 C   0  0  0  0  0  0  0  0  0  0  0  0
  143.6370   74.8630  220.3440 C   0  0  0  0  0  0  0  0  0  0  0  0
  142.2920   75.0930  220.4960 C   0  0  0  0  0  0  0  0  0  0  0  0
  141.4150   74.0600  220.8080 C   0  0  0  0  0  0  0  0  0  0  0  0
  141.8440   72.7620  220.9790 C   0  0  0  0  0  0  0  0  0  0  0  0
  140.9680   71.6530  221.3050 C   0  0  0  0  0  0  0  0  0  0  0  0
  139.9460   71.7340  222.1400 C   0  0  0  0  0  0  0  0  0  0  0  0
  139.8910   70.8670  223.3350 C   0  0  0  0  0  0  0  0  0  0  0  0
  140.4620   71.3760  224.4420 N   0  0  0  0  0  0  0  0  0  0  0  0
  140.4710   70.7220  225.6200 C   0  0  0  0  0  0  0  0  0  0  0  0
  141.0520   71.2330  226.7620 C   0  0  0  0  0  0  0  0  0  0  0  0
  141.0330   70.5260  227.9380 C   0  0  0  0  0  0  0  0  0  0  0  0
  140.4250   69.2870  227.9830 C   0  0  0  0  0  0  0  0  0  0  0  0
  140.4020   68.5820  229.1390 F   0  0  0  0  0  0  0  0  0  0  0  0
  139.8380   68.7760  226.8210 C   0  0  0  0  0  0  0  0  0  0  0  0
  139.8570   69.4880  225.6360 C   0  0  0  0  0  0  0  0  0  0  0  0
  139.2720   68.9800  224.4730 C   0  0  0  0  0  0  0  0  0  0  0  0
  138.7380   67.8500  224.5980 O   0  0  0  0  0  0  0  0  0  0  0  0
  139.2810   69.6600  223.3070 N   0  0  0  0  0  0  0  0  0  0  0  0
  138.6740   69.1420  222.1090 C   0  0  0  0  0  0  0  0  0  0  0  0
  139.6180   68.4070  221.1830 C   0  0  0  0  0  0  0  0  0  0  0  0
  139.4690   66.9350  221.1580 C   0  0  0  0  0  0  0  0  0  0  0  0
  140.2920   66.3200  220.0770 C   0  0  0  0  0  0  0  0  0  0  0  0
  141.4480   67.1680  219.6030 C   0  0  0  0  0  0  0  0  0  0  0  0
  141.0100   68.5280  219.1510 C   0  0  0  0  0  0  0  0  0  0  0  0
  139.7130   68.9650  219.8070 C   0  0  0  0  0  0  0  0  0  0  0  0
  143.2110   72.5510  220.8200 C   0  0  0  0  0  0  0  0  0  0  0  0
  146.2910   72.1190  218.7550 H   0  0  0  0  0  0  0  0  0  0  0  0
  146.6950   73.7620  218.7800 H   0  0  0  0  0  0  0  0  0  0  0  0
  145.7388   72.2991  220.8977 H   0  0  0  0  0  0  0  0  0  0  0  0
  146.1213   74.0681  220.7772 H   0  0  0  0  0  0  0  0  0  0  0  0
  144.3307   75.6804  220.0977 H   0  0  0  0  0  0  0  0  0  0  0  0
  141.9010   76.1132  220.3686 H   0  0  0  0  0  0  0  0  0  0  0  0
  140.3446   74.2864  220.9219 H   0  0  0  0  0  0  0  0  0  0  0  0
  141.1666   70.6824  220.8270 H   0  0  0  0  0  0  0  0  0  0  0  0
  139.1338   72.4495  221.9442 H   0  0  0  0  0  0  0  0  0  0  0  0
  141.5368   72.2199  226.7296 H   0  0  0  0  0  0  0  0  0  0  0  0
  141.5004   70.9447  228.8415 H   0  0  0  0  0  0  0  0  0  0  0  0
  139.3523   67.7895  226.8504 H   0  0  0  0  0  0  0  0  0  0  0  0
  137.8745   68.4465  222.4042 H   0  0  0  0  0  0  0  0  0  0  0  0
  138.3074   70.0138  221.5472 H   0  0  0  0  0  0  0  0  0  0  0  0
  140.5865   68.6033  221.6661 H   0  0  0  0  0  0  0  0  0  0  0  0
  139.7901   66.5268  222.1277 H   0  0  0  0  0  0  0  0  0  0  0  0
  138.4124   66.6986  220.9638 H   0  0  0  0  0  0  0  0  0  0  0  0
  140.6967   65.3690  220.4537 H   0  0  0  0  0  0  0  0  0  0  0  0
  139.6242   66.1943  219.2120 H   0  0  0  0  0  0  0  0  0  0  0  0
  142.1638   67.2840  220.4302 H   0  0  0  0  0  0  0  0  0  0  0  0
  141.9066   66.6596  218.7421 H   0  0  0  0  0  0  0  0  0  0  0  0
  141.7962   69.2546  219.4038 H   0  0  0  0  0  0  0  0  0  0  0  0
  140.8383   68.4818  218.0655 H   0  0  0  0  0  0  0  0  0  0  0  0
  139.6839   70.0634  219.8578 H   0  0  0  0  0  0  0  0  0  0  0  0
  138.8668   68.5934  219.2105 H   0  0  0  0  0  0  0  0  0  0  0  0
  143.6080   71.5328  220.9454 H   0  0  0  0  0  0  0  0  0  0  0  0
  1  2  1  0
  2  3  1  0
  3  4  2  0
  4  5  1  0
  5  6  2  0
  6  7  1  0
  7  8  1  0
  8  9  2  0
  9 10  1  0
 10 11  2  0
 11 12  1  0
 12 13  2  0
 13 14  1  0
 14 15  2  0
 15 16  1  0
 15 17  1  0
 17 18  2  0
 18 19  1  0
 19 20  2  0
 19 21  1  0
 21 22  1  0
 22 23  1  0
 23 24  1  0
 24 25  1  0
 25 26  1  0
 26 27  1  0
 27 28  1  0
  7 29  2  0
 29  3  1  0
 21 10  1  0
 28 23  1  0
 18 12  1  0
  1 30  1  0
  1 31  1  0
  2 32  1  0
  2 33  1  0
  4 34  1  0
  5 35  1  0
  6 36  1  0
  8 37  1  0
  9 38  1  0
 13 39  1  0
 14 40  1  0
 17 41  1  0
 22 42  1  0
 22 43  1  0
 23 44  1  0
 24 45  1  0
 24 46  1  0
 25 47  1  0
 25 48  1  0
 26 49  1  0
 26 50  1  0
 27 51  1  0
 27 52  1  0
 28 53  1  0
 28 54  1  0
 29 55  1  0
M  END
>  <smiles>  (13) 
NCc1cccc(/C=C/c2nc3ccc(F)cc3c(=O)n2CC2CCCCC2)c1

>  <score_type>  (13) 
oracle

>  <origin>  (13) 
autodockgpu

>  <m_score__min__energy>  (13) 
-8.4499999999999993

>  <m_primary>  (13) 
energy

>  <rmsd>  (13) 
11.232738233051379

>  <m_score__min__rmsd>  (13) 
11.232738233051379

>  <meeko>  (13) 
{"free_energy": -7.68, "intermolecular_energy": -9.77, "internal_energy": -1.39, "cluster_size": 14, "cluster_id": 2, "rank_in_cluster": 9}

>  <energy>  (13) 
-7.3

>  <cluster_rmsd>  (13) 
1.45

>  <cluster>  (13) 
2

$$$$

     RDKit          3D

 55 58  0  0  0  0  0  0  0  0999 V2000
  146.3770   73.3970  219.2160 N   0  0  0  0  0  0  0  0  0  0  0  0
  145.6660   73.1810  220.4720 C   0  0  0  0  0  0  0  0  0  0  0  0
  144.2760   73.7240  220.4220 C   0  0  0  0  0  0  0  0  0  0  0  0
  144.0420   75.0400  220.0930 C   0  0  0  0  0  0  0  0  0  0  0  0
  142.7370   75.4660  220.0670 C   0  0  0  0  0  0  0  0  0  0  0  0
  141.6900   74.6010  220.3610 C   0  0  0  0  0  0  0  0  0  0  0  0
  141.9030   73.2800  220.6940 C   0  0  0  0  0  0  0  0  0  0  0  0
  140.8440   72.3410  221.0100 C   0  0  0  0  0  0  0  0  0  0  0  0
  140.6560   71.8080  222.2050 C   0  0  0  0  0  0  0  0  0  0  0  0
  139.2940   71.7120  222.7700 C   0  0  0  0  0  0  0  0  0  0  0  0
  138.4050   72.5970  222.2830 N   0  0  0  0  0  0  0  0  0  0  0  0
  137.1160   72.6210  222.6750 C   0  0  0  0  0  0  0  0  0  0  0  0
  136.1950   73.5230  222.1820 C   0  0  0  0  0  0  0  0  0  0  0  0
  134.8920   73.5040  222.6140 C   0  0  0  0  0  0  0  0  0  0  0  0
  134.4950   72.5720  223.5530 C   0  0  0  0  0  0  0  0  0  0  0  0
  133.2110   72.5470  223.9850 F   0  0  0  0  0  0  0  0  0  0  0  0
  135.4340   71.6610  224.0460 C   0  0  0  0  0  0  0  0  0  0  0  0
  136.7470   71.6800  223.6110 C   0  0  0  0  0  0  0  0  0  0  0  0
  137.6880   70.7720  224.1030 C   0  0  0  0  0  0  0  0  0  0  0  0
  137.2460   69.9570  224.9500 O   0  0  0  0  0  0  0  0  0  0  0  0
  138.9740   70.7750  223.6910 N   0  0  0  0  0  0  0  0  0  0  0  0
  139.9450   69.8370  224.1910 C   0  0  0  0  0  0  0  0  0  0  0  0
  140.3110   70.0140  225.6480 C   0  0  0  0  0  0  0  0  0  0  0  0
  140.4690   71.4150  226.1000 C   0  0  0  0  0  0  0  0  0  0  0  0
  140.6270   71.4980  227.5800 C   0  0  0  0  0  0  0  0  0  0  0  0
  141.1090   70.2260  228.2360 C   0  0  0  0  0  0  0  0  0  0  0  0
  140.2330   69.0510  227.9170 C   0  0  0  0  0  0  0  0  0  0  0  0
  139.4900   69.2250  226.6060 C   0  0  0  0  0  0  0  0  0  0  0  0
  143.2340   72.8690  220.7140 C   0  0  0  0  0  0  0  0  0  0  0  0
  147.1730   74.0710  219.3140 H   0  0  0  0  0  0  0  0  0  0  0  0
  145.6800   73.8440  218.5530 H   0  0  0  0  0  0  0  0  0  0  0  0
  145.6193   72.1006  220.6736 H   0  0  0  0  0  0  0  0  0  0  0  0
  146.2110   73.7084  221.2688 H   0  0  0  0  0  0  0  0  0  0  0  0
  144.8702   75.7252  219.8595 H   0  0  0  0  0  0  0  0  0  0  0  0
  142.5161   76.5121  219.8085 H   0  0  0  0  0  0  0  0  0  0  0  0
  140.6587   74.9821  220.3270 H   0  0  0  0  0  0  0  0  0  0  0  0
  140.1530   72.0539  220.2037 H   0  0  0  0  0  0  0  0  0  0  0  0
  141.5160   71.4348  222.7805 H   0  0  0  0  0  0  0  0  0  0  0  0
  136.5087   74.2660  221.4340 H   0  0  0  0  0  0  0  0  0  0  0  0
  134.1670   74.2281  222.2139 H   0  0  0  0  0  0  0  0  0  0  0  0
  135.1232   70.9159  224.7931 H   0  0  0  0  0  0  0  0  0  0  0  0
  139.5386   68.8231  224.0616 H   0  0  0  0  0  0  0  0  0  0  0  0
  140.8673   70.0132  223.6179 H   0  0  0  0  0  0  0  0  0  0  0  0
  141.3194   69.5751  225.6687 H   0  0  0  0  0  0  0  0  0  0  0  0
  141.3601   71.8467  225.6208 H   0  0  0  0  0  0  0  0  0  0  0  0
  139.5635   71.9723  225.8182 H   0  0  0  0  0  0  0  0  0  0  0  0
  141.3522   72.2945  227.8029 H   0  0  0  0  0  0  0  0  0  0  0  0
  139.6253   71.6977  227.9884 H   0  0  0  0  0  0  0  0  0  0  0  0
  142.1291   70.0119  227.8846 H   0  0  0  0  0  0  0  0  0  0  0  0
  141.0817   70.3790  229.3250 H   0  0  0  0  0  0  0  0  0  0  0  0
  140.8603   68.1498  227.8510 H   0  0  0  0  0  0  0  0  0  0  0  0
  139.4847   68.9622  228.7183 H   0  0  0  0  0  0  0  0  0  0  0  0
  139.2793   68.2355  226.1742 H   0  0  0  0  0  0  0  0  0  0  0  0
  138.5486   69.7611  226.7966 H   0  0  0  0  0  0  0  0  0  0  0  0
  143.4622   71.8243  220.9721 H   0  0  0  0  0  0  0  0  0  0  0  0
  1  2  1  0
  2  3  1  0
  3  4  2  0
  4  5  1  0
  5  6  2  0
  6  7  1  0
  7  8  1  0
  8  9  2  0
  9 10  1  0
 10 11  2  0
 11 12  1  0
 12 13  2  0
 13 14  1  0
 14 15  2  0
 15 16  1  0
 15 17  1  0
 17 18  2  0
 18 19  1  0
 19 20  2  0
 19 21  1  0
 21 22  1  0
 22 23  1  0
 23 24  1  0
 24 25  1  0
 25 26  1  0
 26 27  1  0
 27 28  1  0
  7 29  2  0
 29  3  1  0
 21 10  1  0
 28 23  1  0
 18 12  1  0
  1 30  1  0
  1 31  1  0
  2 32  1  0
  2 33  1  0
  4 34  1  0
  5 35  1  0
  6 36  1  0
  8 37  1  0
  9 38  1  0
 13 39  1  0
 14 40  1  0
 17 41  1  0
 22 42  1  0
 22 43  1  0
 23 44  1  0
 24 45  1  0
 24 46  1  0
 25 47  1  0
 25 48  1  0
 26 49  1  0
 26 50  1  0
 27 51  1  0
 27 52  1  0
 28 53  1  0
 28 54  1  0
 29 55  1  0
M  END
>  <smiles>  (14) 
NCc1cccc(/C=C/c2nc3ccc(F)cc3c(=O)n2CC2CCCCC2)c1

>  <score_type>  (14) 
oracle

>  <origin>  (14) 
autodockgpu

>  <m_score__min__energy>  (14) 
-8.4499999999999993

>  <m_primary>  (14) 
energy

>  <rmsd>  (14) 
10.160596015894216

>  <m_score__min__rmsd>  (14) 
10.160596015894216

>  <meeko>  (14) 
{"free_energy": -7.94, "intermolecular_energy": -10.03, "internal_energy": -1.22, "cluster_size": 6, "cluster_id": 3, "rank_in_cluster": 1}

>  <energy>  (14) 
-7.28

>  <cluster_rmsd>  (14) 
1.77

>  <cluster>  (14) 
2

$$$$

     RDKit          3D

 55 58  0  0  0  0  0  0  0  0999 V2000
  145.8270   73.0330  218.8610 N   0  0  0  0  0  0  0  0  0  0  0  0
  145.5110   73.2400  220.2710 C   0  0  0  0  0  0  0  0  0  0  0  0
  144.0820   73.6300  220.4670 C   0  0  0  0  0  0  0  0  0  0  0  0
  143.6480   74.9000  220.1650 C   0  0  0  0  0  0  0  0  0  0  0  0
  142.3200   75.1830  220.3710 C   0  0  0  0  0  0  0  0  0  0  0  0
  141.4460   74.2220  220.8660 C   0  0  0  0  0  0  0  0  0  0  0  0
  141.8620   72.9450  221.1750 C   0  0  0  0  0  0  0  0  0  0  0  0
  140.9890   71.9100  221.6940 C   0  0  0  0  0  0  0  0  0  0  0  0
  140.1450   72.0830  222.6970 C   0  0  0  0  0  0  0  0  0  0  0  0
  140.0710   71.0880  223.7870 C   0  0  0  0  0  0  0  0  0  0  0  0
  140.5800   71.4870  224.9660 N   0  0  0  0  0  0  0  0  0  0  0  0
  140.5630   70.7080  226.0650 C   0  0  0  0  0  0  0  0  0  0  0  0
  141.0810   71.1060  227.2810 C   0  0  0  0  0  0  0  0  0  0  0  0
  141.0370   70.2730  228.3700 C   0  0  0  0  0  0  0  0  0  0  0  0
  140.4690   69.0200  228.2530 C   0  0  0  0  0  0  0  0  0  0  0  0
  140.4230   68.1910  229.3230 F   0  0  0  0  0  0  0  0  0  0  0  0
  139.9470   68.6240  227.0180 C   0  0  0  0  0  0  0  0  0  0  0  0
  139.9900   69.4630  225.9200 C   0  0  0  0  0  0  0  0  0  0  0  0
  139.4700   69.0700  224.6840 C   0  0  0  0  0  0  0  0  0  0  0  0
  138.9690   67.9180  224.6620 O   0  0  0  0  0  0  0  0  0  0  0  0
  139.5030   69.8750  223.6010 N   0  0  0  0  0  0  0  0  0  0  0  0
  138.9620   69.4750  222.3270 C   0  0  0  0  0  0  0  0  0  0  0  0
  137.4700   69.6720  222.1780 C   0  0  0  0  0  0  0  0  0  0  0  0
  136.6940   68.4500  221.8680 C   0  0  0  0  0  0  0  0  0  0  0  0
  135.2260   68.7020  221.9410 C   0  0  0  0  0  0  0  0  0  0  0  0
  134.8250   70.1500  221.7870 C   0  0  0  0  0  0  0  0  0  0  0  0
  135.5090   71.0410  222.7800 C   0  0  0  0  0  0  0  0  0  0  0  0
  136.8270   70.4620  223.2620 C   0  0  0  0  0  0  0  0  0  0  0  0
  143.2120   72.6790  220.9580 C   0  0  0  0  0  0  0  0  0  0  0  0
  146.2750   72.1040  218.6810 H   0  0  0  0  0  0  0  0  0  0  0  0
  146.5440   73.7730  218.6060 H   0  0  0  0  0  0  0  0  0  0  0  0
  145.7040   72.3066  220.8201 H   0  0  0  0  0  0  0  0  0  0  0  0
  146.1436   74.0575  220.6471 H   0  0  0  0  0  0  0  0  0  0  0  0
  144.3391   75.6607  219.7730 H   0  0  0  0  0  0  0  0  0  0  0  0
  141.9407   76.1893  220.1399 H   0  0  0  0  0  0  0  0  0  0  0  0
  140.3895   74.4891  221.0157 H   0  0  0  0  0  0  0  0  0  0  0  0
  141.0317   70.9169  221.2229 H   0  0  0  0  0  0  0  0  0  0  0  0
  139.4957   72.9706  222.7201 H   0  0  0  0  0  0  0  0  0  0  0  0
  141.5346   72.1034  227.3780 H   0  0  0  0  0  0  0  0  0  0  0  0
  141.4530   70.6023  229.3336 H   0  0  0  0  0  0  0  0  0  0  0  0
  139.4938   67.6267  226.9181 H   0  0  0  0  0  0  0  0  0  0  0  0
  139.4639   70.0615  221.5434 H   0  0  0  0  0  0  0  0  0  0  0  0
  139.1400   68.3928  222.2426 H   0  0  0  0  0  0  0  0  0  0  0  0
  137.4259   70.2945  221.2722 H   0  0  0  0  0  0  0  0  0  0  0  0
  136.9488   68.1128  220.8524 H   0  0  0  0  0  0  0  0  0  0  0  0
  136.9497   67.6807  222.6116 H   0  0  0  0  0  0  0  0  0  0  0  0
  134.7392   68.1249  221.1410 H   0  0  0  0  0  0  0  0  0  0  0  0
  134.9087   68.3977  222.9493 H   0  0  0  0  0  0  0  0  0  0  0  0
  135.0887   70.4837  220.7725 H   0  0  0  0  0  0  0  0  0  0  0  0
  133.7417   70.2188  221.9650 H   0  0  0  0  0  0  0  0  0  0  0  0
  135.7025   72.0150  222.3068 H   0  0  0  0  0  0  0  0  0  0  0  0
  134.8471   71.1426  223.6526 H   0  0  0  0  0  0  0  0  0  0  0  0
  137.4967   71.2823  223.5596 H   0  0  0  0  0  0  0  0  0  0  0  0
  136.6355   69.8020  224.1209 H   0  0  0  0  0  0  0  0  0  0  0  0
  143.5980   71.6746  221.1864 H   0  0  0  0  0  0  0  0  0  0  0  0
  1  2  1  0
  2  3  1  0
  3  4  2  0
  4  5  1  0
  5  6  2  0
  6  7  1  0
  7  8  1  0
  8  9  2  0
  9 10  1  0
 10 11  2  0
 11 12  1  0
 12 13  2  0
 13 14  1  0
 14 15  2  0
 15 16  1  0
 15 17  1  0
 17 18  2  0
 18 19  1  0
 19 20  2  0
 19 21  1  0
 21 22  1  0
 22 23  1  0
 23 24  1  0
 24 25  1  0
 25 26  1  0
 26 27  1  0
 27 28  1  0
  7 29  2  0
 29  3  1  0
 21 10  1  0
 28 23  1  0
 18 12  1  0
  1 30  1  0
  1 31  1  0
  2 32  1  0
  2 33  1  0
  4 34  1  0
  5 35  1  0
  6 36  1  0
  8 37  1  0
  9 38  1  0
 13 39  1  0
 14 40  1  0
 17 41  1  0
 22 42  1  0
 22 43  1  0
 23 44  1  0
 24 45  1  0
 24 46  1  0
 25 47  1  0
 25 48  1  0
 26 49  1  0
 26 50  1  0
 27 51  1  0
 27 52  1  0
 28 53  1  0
 28 54  1  0
 29 55  1  0
M  END
>  <smiles>  (15) 
NCc1cccc(/C=C/c2nc3ccc(F)cc3c(=O)n2CC2CCCCC2)c1

>  <score_type>  (15) 
oracle

>  <origin>  (15) 
autodockgpu

>  <m_score__min__energy>  (15) 
-8.4499999999999993

>  <m_primary>  (15) 
energy

>  <rmsd>  (15) 
11.06220170594432

>  <m_score__min__rmsd>  (15) 
11.06220170594432

>  <meeko>  (15) 
{"free_energy": -7.64, "intermolecular_energy": -9.73, "internal_energy": -1.22, "cluster_size": 14, "cluster_id": 2, "rank_in_cluster": 10}

>  <energy>  (15) 
-7.26

>  <cluster_rmsd>  (15) 
1.45

>  <cluster>  (15) 
2

$$$$

     RDKit          3D

 55 58  0  0  0  0  0  0  0  0999 V2000
  146.3160   73.2440  219.1650 N   0  0  0  0  0  0  0  0  0  0  0  0
  145.5950   73.4230  220.4220 C   0  0  0  0  0  0  0  0  0  0  0  0
  144.3170   72.6510  220.4410 C   0  0  0  0  0  0  0  0  0  0  0  0
  144.2790   71.3340  220.0430 C   0  0  0  0  0  0  0  0  0  0  0  0
  143.0680   70.6900  220.0890 C   0  0  0  0  0  0  0  0  0  0  0  0
  141.9200   71.3430  220.5240 C   0  0  0  0  0  0  0  0  0  0  0  0
  141.9370   72.6610  220.9260 C   0  0  0  0  0  0  0  0  0  0  0  0
  140.7660   73.3850  221.3850 C   0  0  0  0  0  0  0  0  0  0  0  0
  139.6250   72.8120  221.7260 C   0  0  0  0  0  0  0  0  0  0  0  0
  139.5740   71.8790  222.8710 C   0  0  0  0  0  0  0  0  0  0  0  0
  140.3040   72.2410  223.9410 N   0  0  0  0  0  0  0  0  0  0  0  0
  140.3400   71.5130  225.0740 C   0  0  0  0  0  0  0  0  0  0  0  0
  141.0840   71.8740  226.1790 C   0  0  0  0  0  0  0  0  0  0  0  0
  141.0860   71.0970  227.3100 C   0  0  0  0  0  0  0  0  0  0  0  0
  140.3350   69.9380  227.3470 C   0  0  0  0  0  0  0  0  0  0  0  0
  140.3320   69.1650  228.4590 F   0  0  0  0  0  0  0  0  0  0  0  0
  139.5840   69.5800  226.2240 C   0  0  0  0  0  0  0  0  0  0  0  0
  139.5810   70.3620  225.0840 C   0  0  0  0  0  0  0  0  0  0  0  0
  138.8330   70.0060  223.9590 C   0  0  0  0  0  0  0  0  0  0  0  0
  138.1770   68.9420  224.0740 O   0  0  0  0  0  0  0  0  0  0  0  0
  138.8180   70.7570  222.8380 N   0  0  0  0  0  0  0  0  0  0  0  0
  138.0430   70.3960  221.6790 C   0  0  0  0  0  0  0  0  0  0  0  0
  138.7690   69.5350  220.6690 C   0  0  0  0  0  0  0  0  0  0  0  0
  139.0850   70.1930  219.3810 C   0  0  0  0  0  0  0  0  0  0  0  0
  139.9710   69.3420  218.5350 C   0  0  0  0  0  0  0  0  0  0  0  0
  139.9410   67.8700  218.8710 C   0  0  0  0  0  0  0  0  0  0  0  0
  140.2630   67.6070  220.3120 C   0  0  0  0  0  0  0  0  0  0  0  0
  139.9440   68.7940  221.2010 C   0  0  0  0  0  0  0  0  0  0  0  0
  143.1750   73.2950  220.8710 C   0  0  0  0  0  0  0  0  0  0  0  0
  146.7330   74.1370  218.8100 H   0  0  0  0  0  0  0  0  0  0  0  0
  145.5940   72.9400  218.4490 H   0  0  0  0  0  0  0  0  0  0  0  0
  146.2317   73.0786  221.2502 H   0  0  0  0  0  0  0  0  0  0  0  0
  145.3521   74.4905  220.5287 H   0  0  0  0  0  0  0  0  0  0  0  0
  145.1869   70.8161  219.7003 H   0  0  0  0  0  0  0  0  0  0  0  0
  143.0043   69.6374  219.7759 H   0  0  0  0  0  0  0  0  0  0  0  0
  140.9691   70.7905  220.5480 H   0  0  0  0  0  0  0  0  0  0  0  0
  140.8324   74.4809  221.4535 H   0  0  0  0  0  0  0  0  0  0  0  0
  138.7101   73.0302  221.1556 H   0  0  0  0  0  0  0  0  0  0  0  0
  141.6829   72.7963  226.1527 H   0  0  0  0  0  0  0  0  0  0  0  0
  141.6834   71.3958  228.1840 H   0  0  0  0  0  0  0  0  0  0  0  0
  138.9839   68.6584  226.2477 H   0  0  0  0  0  0  0  0  0  0  0  0
  137.1539   69.8457  222.0206 H   0  0  0  0  0  0  0  0  0  0  0  0
  137.8018   71.3377  221.1642 H   0  0  0  0  0  0  0  0  0  0  0  0
  138.0022   68.7799  220.4415 H   0  0  0  0  0  0  0  0  0  0  0  0
  138.1478   70.3837  218.8377 H   0  0  0  0  0  0  0  0  0  0  0  0
  139.6124   71.1344  219.5947 H   0  0  0  0  0  0  0  0  0  0  0  0
  139.6603   69.4604  217.4865 H   0  0  0  0  0  0  0  0  0  0  0  0
  141.0000   69.6824  218.7228 H   0  0  0  0  0  0  0  0  0  0  0  0
  138.9355   67.4789  218.6564 H   0  0  0  0  0  0  0  0  0  0  0  0
  140.7063   67.3701  218.2591 H   0  0  0  0  0  0  0  0  0  0  0  0
  139.6755   66.7419  220.6532 H   0  0  0  0  0  0  0  0  0  0  0  0
  141.3435   67.4139  220.3847 H   0  0  0  0  0  0  0  0  0  0  0  0
  139.7185   68.4367  222.2166 H   0  0  0  0  0  0  0  0  0  0  0  0
  140.8127   69.4684  221.2236 H   0  0  0  0  0  0  0  0  0  0  0  0
  143.2455   74.3479  221.1817 H   0  0  0  0  0  0  0  0  0  0  0  0
  1  2  1  0
  2  3  1  0
  3  4  2  0
  4  5  1  0
  5  6  2  0
  6  7  1  0
  7  8  1  0
  8  9  2  0
  9 10  1  0
 10 11  2  0
 11 12  1  0
 12 13  2  0
 13 14  1  0
 14 15  2  0
 15 16  1  0
 15 17  1  0
 17 18  2  0
 18 19  1  0
 19 20  2  0
 19 21  1  0
 21 22  1  0
 22 23  1  0
 23 24  1  0
 24 25  1  0
 25 26  1  0
 26 27  1  0
 27 28  1  0
  7 29  2  0
 29  3  1  0
 21 10  1  0
 28 23  1  0
 18 12  1  0
  1 30  1  0
  1 31  1  0
  2 32  1  0
  2 33  1  0
  4 34  1  0
  5 35  1  0
  6 36  1  0
  8 37  1  0
  9 38  1  0
 13 39  1  0
 14 40  1  0
 17 41  1  0
 22 42  1  0
 22 43  1  0
 23 44  1  0
 24 45  1  0
 24 46  1  0
 25 47  1  0
 25 48  1  0
 26 49  1  0
 26 50  1  0
 27 51  1  0
 27 52  1  0
 28 53  1  0
 28 54  1  0
 29 55  1  0
M  END
>  <smiles>  (16) 
NCc1cccc(/C=C/c2nc3ccc(F)cc3c(=O)n2CC2CCCCC2)c1

>  <score_type>  (16) 
oracle

>  <origin>  (16) 
autodockgpu

>  <m_score__min__energy>  (16) 
-8.4499999999999993

>  <m_primary>  (16) 
energy

>  <rmsd>  (16) 
9.735541865502913

>  <m_score__min__rmsd>  (16) 
9.735541865502913

>  <meeko>  (16) 
{"free_energy": -6.59, "intermolecular_energy": -8.68, "internal_energy": -2.05, "cluster_size": 14, "cluster_id": 2, "rank_in_cluster": 14}

>  <energy>  (16) 
-6.59

>  <cluster_rmsd>  (16) 
1.66

>  <cluster>  (16) 
2

$$$$

     RDKit          3D

 55 58  0  0  0  0  0  0  0  0999 V2000
  144.4490   82.4200  215.9150 N   0  0  0  0  0  0  0  0  0  0  0  0
  143.6730   83.4130  216.6520 C   0  0  0  0  0  0  0  0  0  0  0  0
  142.7460   82.7740  217.6330 C   0  0  0  0  0  0  0  0  0  0  0  0
  141.8020   83.5190  218.3040 C   0  0  0  0  0  0  0  0  0  0  0  0
  140.9850   82.8610  219.1890 C   0  0  0  0  0  0  0  0  0  0  0  0
  141.1050   81.4930  219.4010 C   0  0  0  0  0  0  0  0  0  0  0  0
  142.0430   80.7290  218.7400 C   0  0  0  0  0  0  0  0  0  0  0  0
  142.2060   79.3010  218.9280 C   0  0  0  0  0  0  0  0  0  0  0  0
  141.2450   78.4910  219.3370 C   0  0  0  0  0  0  0  0  0  0  0  0
  141.5680   77.1200  219.7870 C   0  0  0  0  0  0  0  0  0  0  0  0
  142.5640   76.5140  219.1150 N   0  0  0  0  0  0  0  0  0  0  0  0
  142.9960   75.2760  219.4220 C   0  0  0  0  0  0  0  0  0  0  0  0
  144.0170   74.6430  218.7410 C   0  0  0  0  0  0  0  0  0  0  0  0
  144.4210   73.3800  219.0950 C   0  0  0  0  0  0  0  0  0  0  0  0
  143.8000   72.7310  220.1440 C   0  0  0  0  0  0  0  0  0  0  0  0
  144.1930   71.4840  220.4980 F   0  0  0  0  0  0  0  0  0  0  0  0
  142.7670   73.3780  220.8280 C   0  0  0  0  0  0  0  0  0  0  0  0
  142.3600   74.6510  220.4730 C   0  0  0  0  0  0  0  0  0  0  0  0
  141.3280   75.3010  221.1540 C   0  0  0  0  0  0  0  0  0  0  0  0
  140.8180   74.6440  222.0950 O   0  0  0  0  0  0  0  0  0  0  0  0
  140.9160   76.5420  220.8210 N   0  0  0  0  0  0  0  0  0  0  0  0
  139.8570   77.2170  221.5250 C   0  0  0  0  0  0  0  0  0  0  0  0
  140.2760   78.4720  222.2580 C   0  0  0  0  0  0  0  0  0  0  0  0
  139.1930   79.1830  222.9740 C   0  0  0  0  0  0  0  0  0  0  0  0
  139.7310   80.2820  223.8270 C   0  0  0  0  0  0  0  0  0  0  0  0
  141.0950   80.7870  223.4200 C   0  0  0  0  0  0  0  0  0  0  0  0
  142.1150   79.6890  223.3600 C   0  0  0  0  0  0  0  0  0  0  0  0
  141.4870   78.3310  223.1090 C   0  0  0  0  0  0  0  0  0  0  0  0
  142.8610   81.4160  217.8470 C   0  0  0  0  0  0  0  0  0  0  0  0
  143.8770   81.5880  215.6350 H   0  0  0  0  0  0  0  0  0  0  0  0
  145.1920   82.0670  216.5860 H   0  0  0  0  0  0  0  0  0  0  0  0
  144.3645   84.0748  217.1941 H   0  0  0  0  0  0  0  0  0  0  0  0
  143.0685   83.9806  215.9292 H   0  0  0  0  0  0  0  0  0  0  0  0
  141.7062   84.6020  218.1368 H   0  0  0  0  0  0  0  0  0  0  0  0
  140.2206   83.4274  219.7410 H   0  0  0  0  0  0  0  0  0  0  0  0
  140.4301   81.0041  220.1190 H   0  0  0  0  0  0  0  0  0  0  0  0
  143.1928   78.8634  218.7167 H   0  0  0  0  0  0  0  0  0  0  0  0
  140.2012   78.8380  219.3427 H   0  0  0  0  0  0  0  0  0  0  0  0
  144.5126   75.1574  217.9045 H   0  0  0  0  0  0  0  0  0  0  0  0
  145.2362   72.8866  218.5454 H   0  0  0  0  0  0  0  0  0  0  0  0
  142.2687   72.8652  221.6639 H   0  0  0  0  0  0  0  0  0  0  0  0
  139.0819   77.4912  220.7942 H   0  0  0  0  0  0  0  0  0  0  0  0
  139.5027   76.5151  222.2943 H   0  0  0  0  0  0  0  0  0  0  0  0
  140.5610   79.1240  221.4192 H   0  0  0  0  0  0  0  0  0  0  0  0
  138.4977   79.6106  222.2366 H   0  0  0  0  0  0  0  0  0  0  0  0
  138.6781   78.4613  223.6252 H   0  0  0  0  0  0  0  0  0  0  0  0
  139.0264   81.1256  223.7836 H   0  0  0  0  0  0  0  0  0  0  0  0
  139.8437   79.8636  224.8381 H   0  0  0  0  0  0  0  0  0  0  0  0
  141.0177   81.2524  222.4263 H   0  0  0  0  0  0  0  0  0  0  0  0
  141.4254   81.5115  224.1789 H   0  0  0  0  0  0  0  0  0  0  0  0
  142.8220   79.9074  222.5461 H   0  0  0  0  0  0  0  0  0  0  0  0
  142.6233   79.6491  224.3347 H   0  0  0  0  0  0  0  0  0  0  0  0
  142.2153   77.6830  222.5993 H   0  0  0  0  0  0  0  0  0  0  0  0
  141.1974   77.8870  224.0728 H   0  0  0  0  0  0  0  0  0  0  0  0
  143.6272   80.8553  217.2916 H   0  0  0  0  0  0  0  0  0  0  0  0
  1  2  1  0
  2  3  1  0
  3  4  2  0
  4  5  1  0
  5  6  2  0
  6  7  1  0
  7  8  1  0
  8  9  2  0
  9 10  1  0
 10 11  2  0
 11 12  1  0
 12 13  2  0
 13 14  1  0
 14 15  2  0
 15 16  1  0
 15 17  1  0
 17 18  2  0
 18 19  1  0
 19 20  2  0
 19 21  1  0
 21 22  1  0
 22 23  1  0
 23 24  1  0
 24 25  1  0
 25 26  1  0
 26 27  1  0
 27 28  1  0
  7 29  2  0
 29  3  1  0
 21 10  1  0
 28 23  1  0
 18 12  1  0
  1 30  1  0
  1 31  1  0
  2 32  1  0
  2 33  1  0
  4 34  1  0
  5 35  1  0
  6 36  1  0
  8 37  1  0
  9 38  1  0
 13 39  1  0
 14 40  1  0
 17 41  1  0
 22 42  1  0
 22 43  1  0
 23 44  1  0
 24 45  1  0
 24 46  1  0
 25 47  1  0
 25 48  1  0
 26 49  1  0
 26 50  1  0
 27 51  1  0
 27 52  1  0
 28 53  1  0
 28 54  1  0
 29 55  1  0
M  END
>  <smiles>  (17) 
NCc1cccc(/C=C/c2nc3ccc(F)cc3c(=O)n2CC2CCCCC2)c1

>  <score_type>  (17) 
oracle

>  <origin>  (17) 
autodockgpu

>  <m_score__min__energy>  (17) 
-8.4499999999999993

>  <m_primary>  (17) 
energy

>  <rmsd>  (17) 
7.42396121608267

>  <m_score__min__rmsd>  (17) 
7.42396121608267

>  <meeko>  (17) 
{"free_energy": -7.45, "intermolecular_energy": -9.54, "internal_energy": -1.54, "cluster_size": 1, "cluster_id": 6, "rank_in_cluster": 1}

>  <energy>  (17) 
-7.94

>  <cluster_rmsd>  (17) 
0.0

>  <cluster>  (17) 
3

$$$$

     RDKit          3D

 55 58  0  0  0  0  0  0  0  0999 V2000
  142.9720   78.5780  218.2260 N   0  0  0  0  0  0  0  0  0  0  0  0
  141.9170   79.4020  218.8090 C   0  0  0  0  0  0  0  0  0  0  0  0
  141.7600   79.1460  220.2720 C   0  0  0  0  0  0  0  0  0  0  0  0
  142.2180   80.0530  221.2020 C   0  0  0  0  0  0  0  0  0  0  0  0
  142.0370   79.7490  222.5280 C   0  0  0  0  0  0  0  0  0  0  0  0
  141.4140   78.5690  222.9190 C   0  0  0  0  0  0  0  0  0  0  0  0
  140.9500   77.6490  222.0040 C   0  0  0  0  0  0  0  0  0  0  0  0
  140.2950   76.4050  222.3630 C   0  0  0  0  0  0  0  0  0  0  0  0
  140.0250   75.4340  221.5080 C   0  0  0  0  0  0  0  0  0  0  0  0
  141.0510   74.4200  221.1850 C   0  0  0  0  0  0  0  0  0  0  0  0
  142.2760   74.9070  220.9170 N   0  0  0  0  0  0  0  0  0  0  0  0
  143.3260   74.1130  220.6330 C   0  0  0  0  0  0  0  0  0  0  0  0
  144.5880   74.6000  220.3560 C   0  0  0  0  0  0  0  0  0  0  0  0
  145.6250   73.7470  220.0740 C   0  0  0  0  0  0  0  0  0  0  0  0
  145.4070   72.3830  220.0650 C   0  0  0  0  0  0  0  0  0  0  0  0
  146.4250   71.5340  219.7860 F   0  0  0  0  0  0  0  0  0  0  0  0
  144.1270   71.8970  220.3460 C   0  0  0  0  0  0  0  0  0  0  0  0
  143.0820   72.7570  220.6310 C   0  0  0  0  0  0  0  0  0  0  0  0
  141.8000   72.2750  220.9120 C   0  0  0  0  0  0  0  0  0  0  0  0
  141.6870   71.0250  220.8860 O   0  0  0  0  0  0  0  0  0  0  0  0
  140.7680   73.0980  221.1920 N   0  0  0  0  0  0  0  0  0  0  0  0
  139.4480   72.6050  221.4870 C   0  0  0  0  0  0  0  0  0  0  0  0
  139.3710   71.6510  222.6580 C   0  0  0  0  0  0  0  0  0  0  0  0
  140.3670   71.8750  223.7290 C   0  0  0  0  0  0  0  0  0  0  0  0
  140.0870   71.0260  224.9240 C   0  0  0  0  0  0  0  0  0  0  0  0
  139.2470   69.8030  224.6450 C   0  0  0  0  0  0  0  0  0  0  0  0
  137.9430   70.1430  223.9880 C   0  0  0  0  0  0  0  0  0  0  0  0
  138.0080   71.4500  223.2200 C   0  0  0  0  0  0  0  0  0  0  0  0
  141.1430   77.9770  220.6650 C   0  0  0  0  0  0  0  0  0  0  0  0
  143.6800   78.2700  218.9340 H   0  0  0  0  0  0  0  0  0  0  0  0
  143.4830   79.1970  217.5320 H   0  0  0  0  0  0  0  0  0  0  0  0
  142.1683   80.4622  218.6577 H   0  0  0  0  0  0  0  0  0  0  0  0
  140.9691   79.1464  218.3128 H   0  0  0  0  0  0  0  0  0  0  0  0
  142.7108   80.9867  220.8932 H   0  0  0  0  0  0  0  0  0  0  0  0
  142.3915   80.4522  223.2960 H   0  0  0  0  0  0  0  0  0  0  0  0
  141.2876   78.3635  223.9922 H   0  0  0  0  0  0  0  0  0  0  0  0
  140.0046   76.2608  223.4141 H   0  0  0  0  0  0  0  0  0  0  0  0
  139.0333   75.3802  221.0351 H   0  0  0  0  0  0  0  0  0  0  0  0
  144.7642   75.6858  220.3615 H   0  0  0  0  0  0  0  0  0  0  0  0
  146.6259   74.1477  219.8560 H   0  0  0  0  0  0  0  0  0  0  0  0
  143.9476   70.8117  220.3404 H   0  0  0  0  0  0  0  0  0  0  0  0
  138.8022   73.4680  221.7064 H   0  0  0  0  0  0  0  0  0  0  0  0
  139.1273   72.0344  220.6029 H   0  0  0  0  0  0  0  0  0  0  0  0
  139.6525   70.7021  222.1781 H   0  0  0  0  0  0  0  0  0  0  0  0
  141.3676   71.6300  223.3433 H   0  0  0  0  0  0  0  0  0  0  0  0
  140.3123   72.9301  224.0353 H   0  0  0  0  0  0  0  0  0  0  0  0
  141.0489   70.6933  225.3411 H   0  0  0  0  0  0  0  0  0  0  0  0
  139.5067   71.6499  225.6197 H   0  0  0  0  0  0  0  0  0  0  0  0
  139.8115   69.1303  223.9826 H   0  0  0  0  0  0  0  0  0  0  0  0
  139.0218   69.3237  225.6092 H   0  0  0  0  0  0  0  0  0  0  0  0
  137.6776   69.3354  223.2899 H   0  0  0  0  0  0  0  0  0  0  0  0
  137.1870   70.2551  224.7792 H   0  0  0  0  0  0  0  0  0  0  0  0
  137.2768   71.4251  222.3986 H   0  0  0  0  0  0  0  0  0  0  0  0
  137.7772   72.2794  223.9047 H   0  0  0  0  0  0  0  0  0  0  0  0
  140.7905   77.2782  219.8921 H   0  0  0  0  0  0  0  0  0  0  0  0
  1  2  1  0
  2  3  1  0
  3  4  2  0
  4  5  1  0
  5  6  2  0
  6  7  1  0
  7  8  1  0
  8  9  2  0
  9 10  1  0
 10 11  2  0
 11 12  1  0
 12 13  2  0
 13 14  1  0
 14 15  2  0
 15 16  1  0
 15 17  1  0
 17 18  2  0
 18 19  1  0
 19 20  2  0
 19 21  1  0
 21 22  1  0
 22 23  1  0
 23 24  1  0
 24 25  1  0
 25 26  1  0
 26 27  1  0
 27 28  1  0
  7 29  2  0
 29  3  1  0
 21 10  1  0
 28 23  1  0
 18 12  1  0
  1 30  1  0
  1 31  1  0
  2 32  1  0
  2 33  1  0
  4 34  1  0
  5 35  1  0
  6 36  1  0
  8 37  1  0
  9 38  1  0
 13 39  1  0
 14 40  1  0
 17 41  1  0
 22 42  1  0
 22 43  1  0
 23 44  1  0
 24 45  1  0
 24 46  1  0
 25 47  1  0
 25 48  1  0
 26 49  1  0
 26 50  1  0
 27 51  1  0
 27 52  1  0
 28 53  1  0
 28 54  1  0
 29 55  1  0
M  END
>  <smiles>  (18) 
NCc1cccc(/C=C/c2nc3ccc(F)cc3c(=O)n2CC2CCCCC2)c1

>  <score_type>  (18) 
oracle

>  <origin>  (18) 
autodockgpu

>  <m_score__min__energy>  (18) 
-8.4499999999999993

>  <m_primary>  (18) 
energy

>  <rmsd>  (18) 
8.566190592413959

>  <m_score__min__rmsd>  (18) 
8.566190592413959

>  <meeko>  (18) 
{"free_energy": -7.62, "intermolecular_energy": -9.71, "internal_energy": -1.43, "cluster_size": 5, "cluster_id": 4, "rank_in_cluster": 5}

>  <energy>  (18) 
-7.91

>  <cluster_rmsd>  (18) 
0.69

>  <cluster>  (18) 
3

$$$$

     RDKit          3D

 55 58  0  0  0  0  0  0  0  0999 V2000
  142.7880   76.9900  219.9580 N   0  0  0  0  0  0  0  0  0  0  0  0
  142.3700   77.8690  218.8700 C   0  0  0  0  0  0  0  0  0  0  0  0
  142.0510   79.2440  219.3600 C   0  0  0  0  0  0  0  0  0  0  0  0
  141.9610   80.3030  218.4860 C   0  0  0  0  0  0  0  0  0  0  0  0
  141.6640   81.5370  219.0100 C   0  0  0  0  0  0  0  0  0  0  0  0
  141.4610   81.7090  220.3750 C   0  0  0  0  0  0  0  0  0  0  0  0
  141.5470   80.6620  221.2660 C   0  0  0  0  0  0  0  0  0  0  0  0
  141.3440   80.7940  222.6960 C   0  0  0  0  0  0  0  0  0  0  0  0
  141.1660   79.7740  223.5180 C   0  0  0  0  0  0  0  0  0  0  0  0
  140.3570   78.6110  223.0960 C   0  0  0  0  0  0  0  0  0  0  0  0
  141.0590   77.5330  222.7040 N   0  0  0  0  0  0  0  0  0  0  0  0
  140.4700   76.3850  222.3170 C   0  0  0  0  0  0  0  0  0  0  0  0
  141.1800   75.2710  221.9130 C   0  0  0  0  0  0  0  0  0  0  0  0
  140.5310   74.1250  221.5300 C   0  0  0  0  0  0  0  0  0  0  0  0
  139.1500   74.0810  221.5470 C   0  0  0  0  0  0  0  0  0  0  0  0
  138.5020   72.9530  221.1690 F   0  0  0  0  0  0  0  0  0  0  0  0
  138.4390   75.2120  221.9570 C   0  0  0  0  0  0  0  0  0  0  0  0
  139.0930   76.3670  222.3440 C   0  0  0  0  0  0  0  0  0  0  0  0
  138.3850   77.5000  222.7540 C   0  0  0  0  0  0  0  0  0  0  0  0
  137.1350   77.3770  222.7430 O   0  0  0  0  0  0  0  0  0  0  0  0
  139.0060   78.6370  223.1350 N   0  0  0  0  0  0  0  0  0  0  0  0
  138.2790   79.8040  223.5630 C   0  0  0  0  0  0  0  0  0  0  0  0
  137.8620   80.7400  222.4510 C   0  0  0  0  0  0  0  0  0  0  0  0
  138.1720   82.1710  222.6710 C   0  0  0  0  0  0  0  0  0  0  0  0
  137.9130   82.9820  221.4470 C   0  0  0  0  0  0  0  0  0  0  0  0
  136.9480   82.3560  220.4680 C   0  0  0  0  0  0  0  0  0  0  0  0
  137.3730   80.9820  220.0460 C   0  0  0  0  0  0  0  0  0  0  0  0
  138.2520   80.3060  221.0820 C   0  0  0  0  0  0  0  0  0  0  0  0
  141.8490   79.4200  220.7130 C   0  0  0  0  0  0  0  0  0  0  0  0
  142.3370   77.2370  220.8710 H   0  0  0  0  0  0  0  0  0  0  0  0
  143.8310   77.1460  220.0810 H   0  0  0  0  0  0  0  0  0  0  0  0
  143.1830   77.9336  218.1319 H   0  0  0  0  0  0  0  0  0  0  0  0
  141.4599   77.4466  218.4191 H   0  0  0  0  0  0  0  0  0  0  0  0
  142.1212   80.1660  217.4064 H   0  0  0  0  0  0  0  0  0  0  0  0
  141.5853   82.4046  218.3384 H   0  0  0  0  0  0  0  0  0  0  0  0
  141.2241   82.7136  220.7554 H   0  0  0  0  0  0  0  0  0  0  0  0
  141.3377   81.8074  223.1239 H   0  0  0  0  0  0  0  0  0  0  0  0
  141.6214   79.7908  224.5192 H   0  0  0  0  0  0  0  0  0  0  0  0
  142.2794   75.3034  221.8983 H   0  0  0  0  0  0  0  0  0  0  0  0
  141.1076   73.2444  221.2106 H   0  0  0  0  0  0  0  0  0  0  0  0
  137.3395   75.1828  221.9721 H   0  0  0  0  0  0  0  0  0  0  0  0
  137.3709   79.4680  224.0849 H   0  0  0  0  0  0  0  0  0  0  0  0
  138.9653   80.3756  224.2051 H   0  0  0  0  0  0  0  0  0  0  0  0
  136.7663   80.6581  222.5037 H   0  0  0  0  0  0  0  0  0  0  0  0
  137.5441   82.5506  223.4905 H   0  0  0  0  0  0  0  0  0  0  0  0
  139.2394   82.2576  222.9222 H   0  0  0  0  0  0  0  0  0  0  0  0
  137.5019   83.9531  221.7600 H   0  0  0  0  0  0  0  0  0  0  0  0
  138.8758   83.0687  220.9221 H   0  0  0  0  0  0  0  0  0  0  0  0
  135.9575   82.2894  220.9418 H   0  0  0  0  0  0  0  0  0  0  0  0
  136.9232   82.9901  219.5695 H   0  0  0  0  0  0  0  0  0  0  0  0
  136.4748   80.3668  219.8889 H   0  0  0  0  0  0  0  0  0  0  0  0
  137.9597   81.0812  219.1208 H   0  0  0  0  0  0  0  0  0  0  0  0
  138.1363   79.2152  221.0002 H   0  0  0  0  0  0  0  0  0  0  0  0
  139.2999   80.5879  220.9017 H   0  0  0  0  0  0  0  0  0  0  0  0
  141.9293   78.5483  221.3790 H   0  0  0  0  0  0  0  0  0  0  0  0
  1  2  1  0
  2  3  1  0
  3  4  2  0
  4  5  1  0
  5  6  2  0
  6  7  1  0
  7  8  1  0
  8  9  2  0
  9 10  1  0
 10 11  2  0
 11 12  1  0
 12 13  2  0
 13 14  1  0
 14 15  2  0
 15 16  1  0
 15 17  1  0
 17 18  2  0
 18 19  1  0
 19 20  2  0
 19 21  1  0
 21 22  1  0
 22 23  1  0
 23 24  1  0
 24 25  1  0
 25 26  1  0
 26 27  1  0
 27 28  1  0
  7 29  2  0
 29  3  1  0
 21 10  1  0
 28 23  1  0
 18 12  1  0
  1 30  1  0
  1 31  1  0
  2 32  1  0
  2 33  1  0
  4 34  1  0
  5 35  1  0
  6 36  1  0
  8 37  1  0
  9 38  1  0
 13 39  1  0
 14 40  1  0
 17 41  1  0
 22 42  1  0
 22 43  1  0
 23 44  1  0
 24 45  1  0
 24 46  1  0
 25 47  1  0
 25 48  1  0
 26 49  1  0
 26 50  1  0
 27 51  1  0
 27 52  1  0
 28 53  1  0
 28 54  1  0
 29 55  1  0
M  END
>  <smiles>  (19) 
NCc1cccc(/C=C/c2nc3ccc(F)cc3c(=O)n2CC2CCCCC2)c1

>  <score_type>  (19) 
oracle

>  <origin>  (19) 
autodockgpu

>  <m_score__min__energy>  (19) 
-8.4499999999999993

>  <m_primary>  (19) 
energy

>  <rmsd>  (19) 
7.1977955061100864

>  <m_score__min__rmsd>  (19) 
7.1977955061100864

>  <meeko>  (19) 
{"free_energy": -5.74, "intermolecular_energy": -7.83, "internal_energy": -2.86, "cluster_size": 6, "cluster_id": 12, "rank_in_cluster": 6}

>  <energy>  (19) 
-7.87

>  <cluster_rmsd>  (19) 
1.1

>  <cluster>  (19) 
3

$$$$

     RDKit          3D

 55 58  0  0  0  0  0  0  0  0999 V2000
  142.5970   77.5210  219.7420 N   0  0  0  0  0  0  0  0  0  0  0  0
  142.1940   78.5820  218.8240 C   0  0  0  0  0  0  0  0  0  0  0  0
  141.9470   79.8690  219.5400 C   0  0  0  0  0  0  0  0  0  0  0  0
  141.6310   81.0150  218.8460 C   0  0  0  0  0  0  0  0  0  0  0  0
  141.4170   82.1600  219.5740 C   0  0  0  0  0  0  0  0  0  0  0  0
  141.5150   82.1610  220.9610 C   0  0  0  0  0  0  0  0  0  0  0  0
  141.8310   81.0240  221.6730 C   0  0  0  0  0  0  0  0  0  0  0  0
  141.9450   80.9770  223.1190 C   0  0  0  0  0  0  0  0  0  0  0  0
  141.6820   79.9080  223.8500 C   0  0  0  0  0  0  0  0  0  0  0  0
  140.7640   78.8660  223.3420 C   0  0  0  0  0  0  0  0  0  0  0  0
  141.3600   77.7890  222.7980 N   0  0  0  0  0  0  0  0  0  0  0  0
  140.6640   76.7420  222.3160 C   0  0  0  0  0  0  0  0  0  0  0  0
  141.2640   75.6310  221.7570 C   0  0  0  0  0  0  0  0  0  0  0  0
  140.5080   74.5890  221.2810 C   0  0  0  0  0  0  0  0  0  0  0  0
  139.1310   74.6490  221.3600 C   0  0  0  0  0  0  0  0  0  0  0  0
  138.3780   73.6250  220.8910 F   0  0  0  0  0  0  0  0  0  0  0  0
  138.5310   75.7770  221.9270 C   0  0  0  0  0  0  0  0  0  0  0  0
  139.2920   76.8270  222.4080 C   0  0  0  0  0  0  0  0  0  0  0  0
  138.6960   77.9570  222.9750 C   0  0  0  0  0  0  0  0  0  0  0  0
  137.4410   77.9320  223.0110 O   0  0  0  0  0  0  0  0  0  0  0  0
  139.4220   78.9920  223.4490 N   0  0  0  0  0  0  0  0  0  0  0  0
  138.8110   80.1540  224.0390 C   0  0  0  0  0  0  0  0  0  0  0  0
  138.4770   81.2630  223.0650 C   0  0  0  0  0  0  0  0  0  0  0  0
  138.4820   80.8780  221.6360 C   0  0  0  0  0  0  0  0  0  0  0  0
  137.9470   81.9710  220.7730 C   0  0  0  0  0  0  0  0  0  0  0  0
  138.0080   83.3490  221.3890 C   0  0  0  0  0  0  0  0  0  0  0  0
  137.3170   83.4110  222.7180 C   0  0  0  0  0  0  0  0  0  0  0  0
  137.2680   82.0600  223.4070 C   0  0  0  0  0  0  0  0  0  0  0  0
  142.0430   79.8750  220.9160 C   0  0  0  0  0  0  0  0  0  0  0  0
  142.2750   77.6930  220.7230 H   0  0  0  0  0  0  0  0  0  0  0  0
  143.6580   77.5340  219.7620 H   0  0  0  0  0  0  0  0  0  0  0  0
  142.9924   78.7342  218.0828 H   0  0  0  0  0  0  0  0  0  0  0  0
  141.2565   78.2757  218.3370 H   0  0  0  0  0  0  0  0  0  0  0  0
  141.5527   81.0139  217.7488 H   0  0  0  0  0  0  0  0  0  0  0  0
  141.1634   83.0934  219.0501 H   0  0  0  0  0  0  0  0  0  0  0  0
  141.3347   83.0987  221.5071 H   0  0  0  0  0  0  0  0  0  0  0  0
  142.2711   81.8894  223.6397 H   0  0  0  0  0  0  0  0  0  0  0  0
  142.1476   79.7929  224.8399 H   0  0  0  0  0  0  0  0  0  0  0  0
  142.3609   75.5805  221.6924 H   0  0  0  0  0  0  0  0  0  0  0  0
  140.9976   73.7091  220.8381 H   0  0  0  0  0  0  0  0  0  0  0  0
  137.4342   75.8305  221.9918 H   0  0  0  0  0  0  0  0  0  0  0  0
  137.8785   79.8378  224.5294 H   0  0  0  0  0  0  0  0  0  0  0  0
  139.5515   80.5703  224.7379 H   0  0  0  0  0  0  0  0  0  0  0  0
  139.3390   81.9329  223.1999 H   0  0  0  0  0  0  0  0  0  0  0  0
  139.5145   80.6539  221.3299 H   0  0  0  0  0  0  0  0  0  0  0  0
  137.8369   79.9953  221.5143 H   0  0  0  0  0  0  0  0  0  0  0  0
  138.5292   81.9868  219.8398 H   0  0  0  0  0  0  0  0  0  0  0  0
  136.8815   81.7484  220.6147 H   0  0  0  0  0  0  0  0  0  0  0  0
  139.0630   83.6286  221.5258 H   0  0  0  0  0  0  0  0  0  0  0  0
  137.4923   84.0436  220.7097 H   0  0  0  0  0  0  0  0  0  0  0  0
  137.8573   84.1181  223.3646 H   0  0  0  0  0  0  0  0  0  0  0  0
  136.2809   83.7364  222.5429 H   0  0  0  0  0  0  0  0  0  0  0  0
  137.2275   82.2091  224.4961 H   0  0  0  0  0  0  0  0  0  0  0  0
  136.3733   81.5172  223.0680 H   0  0  0  0  0  0  0  0  0  0  0  0
  142.2962   78.9381  221.4339 H   0  0  0  0  0  0  0  0  0  0  0  0
  1  2  1  0
  2  3  1  0
  3  4  2  0
  4  5  1  0
  5  6  2  0
  6  7  1  0
  7  8  1  0
  8  9  2  0
  9 10  1  0
 10 11  2  0
 11 12  1  0
 12 13  2  0
 13 14  1  0
 14 15  2  0
 15 16  1  0
 15 17  1  0
 17 18  2  0
 18 19  1  0
 19 20  2  0
 19 21  1  0
 21 22  1  0
 22 23  1  0
 23 24  1  0
 24 25  1  0
 25 26  1  0
 26 27  1  0
 27 28  1  0
  7 29  2  0
 29  3  1  0
 21 10  1  0
 28 23  1  0
 18 12  1  0
  1 30  1  0
  1 31  1  0
  2 32  1  0
  2 33  1  0
  4 34  1  0
  5 35  1  0
  6 36  1  0
  8 37  1  0
  9 38  1  0
 13 39  1  0
 14 40  1  0
 17 41  1  0
 22 42  1  0
 22 43  1  0
 23 44  1  0
 24 45  1  0
 24 46  1  0
 25 47  1  0
 25 48  1  0
 26 49  1  0
 26 50  1  0
 27 51  1  0
 27 52  1  0
 28 53  1  0
 28 54  1  0
 29 55  1  0
M  END
>  <smiles>  (20) 
NCc1cccc(/C=C/c2nc3ccc(F)cc3c(=O)n2CC2CCCCC2)c1

>  <score_type>  (20) 
oracle

>  <origin>  (20) 
autodockgpu

>  <m_score__min__energy>  (20) 
-8.4499999999999993

>  <m_primary>  (20) 
energy

>  <rmsd>  (20) 
6.7273506704383506

>  <m_score__min__rmsd>  (20) 
6.7273506704383506

>  <meeko>  (20) 
{"free_energy": -6.12, "intermolecular_energy": -8.21, "internal_energy": -2.86, "cluster_size": 6, "cluster_id": 12, "rank_in_cluster": 1}

>  <energy>  (20) 
-7.77

>  <cluster_rmsd>  (20) 
0.77

>  <cluster>  (20) 
3

$$$$

     RDKit          3D

 55 58  0  0  0  0  0  0  0  0999 V2000
  143.3540   79.6080  222.6700 N   0  0  0  0  0  0  0  0  0  0  0  0
  142.4080   79.8180  223.7620 C   0  0  0  0  0  0  0  0  0  0  0  0
  141.0160   79.4450  223.3670 C   0  0  0  0  0  0  0  0  0  0  0  0
  139.9510   80.2600  223.6770 C   0  0  0  0  0  0  0  0  0  0  0  0
  138.7020   79.8510  223.2800 C   0  0  0  0  0  0  0  0  0  0  0  0
  138.5190   78.6580  222.5900 C   0  0  0  0  0  0  0  0  0  0  0  0
  139.5720   77.8290  222.2710 C   0  0  0  0  0  0  0  0  0  0  0  0
  139.4310   76.5760  221.5540 C   0  0  0  0  0  0  0  0  0  0  0  0
  139.5400   75.3830  222.1140 C   0  0  0  0  0  0  0  0  0  0  0  0
  140.5800   74.4390  221.6560 C   0  0  0  0  0  0  0  0  0  0  0  0
  141.7080   75.0070  221.1900 N   0  0  0  0  0  0  0  0  0  0  0  0
  142.7610   74.2840  220.7620 C   0  0  0  0  0  0  0  0  0  0  0  0
  143.9230   74.8540  220.2830 C   0  0  0  0  0  0  0  0  0  0  0  0
  144.9670   74.0710  219.8600 C   0  0  0  0  0  0  0  0  0  0  0  0
  144.8580   72.6960  219.9130 C   0  0  0  0  0  0  0  0  0  0  0  0
  145.8850   71.9160  219.4960 F   0  0  0  0  0  0  0  0  0  0  0  0
  143.6780   72.1260  220.4000 C   0  0  0  0  0  0  0  0  0  0  0  0
  142.6260   72.9140  220.8270 C   0  0  0  0  0  0  0  0  0  0  0  0
  141.4440   72.3470  221.3130 C   0  0  0  0  0  0  0  0  0  0  0  0
  141.4270   71.0920  221.3310 O   0  0  0  0  0  0  0  0  0  0  0  0
  140.4060   73.1000  221.7340 N   0  0  0  0  0  0  0  0  0  0  0  0
  139.1900   72.5200  222.2410 C   0  0  0  0  0  0  0  0  0  0  0  0
  139.3820   71.4730  223.3160 C   0  0  0  0  0  0  0  0  0  0  0  0
  140.3520   71.8220  224.3780 C   0  0  0  0  0  0  0  0  0  0  0  0
  140.3250   70.8290  225.4910 C   0  0  0  0  0  0  0  0  0  0  0  0
  139.7680   69.4760  225.1160 C   0  0  0  0  0  0  0  0  0  0  0  0
  138.3920   69.5690  224.5280 C   0  0  0  0  0  0  0  0  0  0  0  0
  138.1270   70.9190  223.8890 C   0  0  0  0  0  0  0  0  0  0  0  0
  140.8300   78.2620  222.6830 C   0  0  0  0  0  0  0  0  0  0  0  0
  142.9250   79.7710  221.7280 H   0  0  0  0  0  0  0  0  0  0  0  0
  143.6280   78.5840  222.7070 H   0  0  0  0  0  0  0  0  0  0  0  0
  142.7122   79.2014  224.6206 H   0  0  0  0  0  0  0  0  0  0  0  0
  142.4159   80.8869  224.0216 H   0  0  0  0  0  0  0  0  0  0  0  0
  140.0953   81.2042  224.2227 H   0  0  0  0  0  0  0  0  0  0  0  0
  137.8294   80.4792  223.5123 H   0  0  0  0  0  0  0  0  0  0  0  0
  137.5017   78.3669  222.2894 H   0  0  0  0  0  0  0  0  0  0  0  0
  139.2199   76.6210  220.4754 H   0  0  0  0  0  0  0  0  0  0  0  0
  138.8541   75.0926  222.9234 H   0  0  0  0  0  0  0  0  0  0  0  0
  144.0132   75.9494  220.2399 H   0  0  0  0  0  0  0  0  0  0  0  0
  145.8879   74.5373  219.4799 H   0  0  0  0  0  0  0  0  0  0  0  0
  143.5852   71.0308  220.4441 H   0  0  0  0  0  0  0  0  0  0  0  0
  138.5739   73.3297  222.6591 H   0  0  0  0  0  0  0  0  0  0  0  0
  138.7166   72.0059  221.3916 H   0  0  0  0  0  0  0  0  0  0  0  0
  139.8452   70.6582  222.7402 H   0  0  0  0  0  0  0  0  0  0  0  0
  141.3629   71.8461  223.9449 H   0  0  0  0  0  0  0  0  0  0  0  0
  140.0774   72.8058  224.7865 H   0  0  0  0  0  0  0  0  0  0  0  0
  141.3553   70.6880  225.8496 H   0  0  0  0  0  0  0  0  0  0  0  0
  139.6524   71.2402  226.2581 H   0  0  0  0  0  0  0  0  0  0  0  0
  140.4373   69.0105  224.3775 H   0  0  0  0  0  0  0  0  0  0  0  0
  139.7011   68.8739  226.0342 H   0  0  0  0  0  0  0  0  0  0  0  0
  138.2816   68.7876  223.7617 H   0  0  0  0  0  0  0  0  0  0  0  0
  137.6680   69.4366  225.3455 H   0  0  0  0  0  0  0  0  0  0  0  0
  137.3829   70.8014  223.0875 H   0  0  0  0  0  0  0  0  0  0  0  0
  137.7479   71.6102  224.6562 H   0  0  0  0  0  0  0  0  0  0  0  0
  141.7066   77.6380  222.4546 H   0  0  0  0  0  0  0  0  0  0  0  0
  1  2  1  0
  2  3  1  0
  3  4  2  0
  4  5  1  0
  5  6  2  0
  6  7  1  0
  7  8  1  0
  8  9  2  0
  9 10  1  0
 10 11  2  0
 11 12  1  0
 12 13  2  0
 13 14  1  0
 14 15  2  0
 15 16  1  0
 15 17  1  0
 17 18  2  0
 18 19  1  0
 19 20  2  0
 19 21  1  0
 21 22  1  0
 22 23  1  0
 23 24  1  0
 24 25  1  0
 25 26  1  0
 26 27  1  0
 27 28  1  0
  7 29  2  0
 29  3  1  0
 21 10  1  0
 28 23  1  0
 18 12  1  0
  1 30  1  0
  1 31  1  0
  2 32  1  0
  2 33  1  0
  4 34  1  0
  5 35  1  0
  6 36  1  0
  8 37  1  0
  9 38  1  0
 13 39  1  0
 14 40  1  0
 17 41  1  0
 22 42  1  0
 22 43  1  0
 23 44  1  0
 24 45  1  0
 24 46  1  0
 25 47  1  0
 25 48  1  0
 26 49  1  0
 26 50  1  0
 27 51  1  0
 27 52  1  0
 28 53  1  0
 28 54  1  0
 29 55  1  0
M  END
>  <smiles>  (21) 
NCc1cccc(/C=C/c2nc3ccc(F)cc3c(=O)n2CC2CCCCC2)c1

>  <score_type>  (21) 
oracle

>  <origin>  (21) 
autodockgpu

>  <m_score__min__energy>  (21) 
-8.4499999999999993

>  <m_primary>  (21) 
energy

>  <rmsd>  (21) 
8.585468261231185

>  <m_score__min__rmsd>  (21) 
8.585468261231185

>  <meeko>  (21) 
{"free_energy": -7.73, "intermolecular_energy": -9.82, "internal_energy": -1.2, "cluster_size": 5, "cluster_id": 4, "rank_in_cluster": 3}

>  <energy>  (21) 
-7.67

>  <cluster_rmsd>  (21) 
1.04

>  <cluster>  (21) 
3

$$$$

     RDKit          3D

 55 58  0  0  0  0  0  0  0  0999 V2000
  145.9660   73.3950  218.8000 N   0  0  0  0  0  0  0  0  0  0  0  0
  145.1460   72.8450  219.8750 C   0  0  0  0  0  0  0  0  0  0  0  0
  143.9640   73.7090  220.1670 C   0  0  0  0  0  0  0  0  0  0  0  0
  143.9310   75.0240  219.7600 C   0  0  0  0  0  0  0  0  0  0  0  0
  142.8100   75.7550  220.0650 C   0  0  0  0  0  0  0  0  0  0  0  0
  141.7460   75.1890  220.7590 C   0  0  0  0  0  0  0  0  0  0  0  0
  141.7600   73.8760  221.1750 C   0  0  0  0  0  0  0  0  0  0  0  0
  140.6760   73.2420  221.9010 C   0  0  0  0  0  0  0  0  0  0  0  0
  140.3650   71.9610  221.8020 C   0  0  0  0  0  0  0  0  0  0  0  0
  140.1840   71.1440  223.0200 C   0  0  0  0  0  0  0  0  0  0  0  0
  140.6770   71.6800  224.1520 N   0  0  0  0  0  0  0  0  0  0  0  0
  140.5670   71.0740  225.3500 C   0  0  0  0  0  0  0  0  0  0  0  0
  141.0670   71.6140  226.5170 C   0  0  0  0  0  0  0  0  0  0  0  0
  140.9270   70.9550  227.7130 C   0  0  0  0  0  0  0  0  0  0  0  0
  140.2790   69.7370  227.7520 C   0  0  0  0  0  0  0  0  0  0  0  0
  140.1380   69.0800  228.9290 F   0  0  0  0  0  0  0  0  0  0  0  0
  139.7750   69.1960  226.5660 C   0  0  0  0  0  0  0  0  0  0  0  0
  139.9150   69.8600  225.3610 C   0  0  0  0  0  0  0  0  0  0  0  0
  139.4130   69.3220  224.1720 C   0  0  0  0  0  0  0  0  0  0  0  0
  138.8360   68.2140  224.2940 O   0  0  0  0  0  0  0  0  0  0  0  0
  139.5410   69.9550  222.9870 N   0  0  0  0  0  0  0  0  0  0  0  0
  139.0190   69.4060  221.7610 C   0  0  0  0  0  0  0  0  0  0  0  0
  140.0580   68.8130  220.8350 C   0  0  0  0  0  0  0  0  0  0  0  0
  139.8730   67.3830  220.5020 C   0  0  0  0  0  0  0  0  0  0  0  0
  140.8160   66.9440  219.4340 C   0  0  0  0  0  0  0  0  0  0  0  0
  142.0490   67.8040  219.2880 C   0  0  0  0  0  0  0  0  0  0  0  0
  141.7140   69.2470  219.0610 C   0  0  0  0  0  0  0  0  0  0  0  0
  140.3540   69.6190  219.6200 C   0  0  0  0  0  0  0  0  0  0  0  0
  142.9060   73.1520  220.8550 C   0  0  0  0  0  0  0  0  0  0  0  0
  146.7630   73.9740  219.1570 H   0  0  0  0  0  0  0  0  0  0  0  0
  145.3370   74.0500  218.2510 H   0  0  0  0  0  0  0  0  0  0  0  0
  144.7927   71.8464  219.5783 H   0  0  0  0  0  0  0  0  0  0  0  0
  145.7637   72.7915  220.7836 H   0  0  0  0  0  0  0  0  0  0  0  0
  144.7720   75.4722  219.2106 H   0  0  0  0  0  0  0  0  0  0  0  0
  142.7521   76.8087  219.7546 H   0  0  0  0  0  0  0  0  0  0  0  0
  140.8656   75.8094  220.9827 H   0  0  0  0  0  0  0  0  0  0  0  0
  140.0743   73.8671  222.5771 H   0  0  0  0  0  0  0  0  0  0  0  0
  140.2406   71.5019  220.8102 H   0  0  0  0  0  0  0  0  0  0  0  0
  141.5841   72.5844  226.4887 H   0  0  0  0  0  0  0  0  0  0  0  0
  141.3297   71.3960  228.6368 H   0  0  0  0  0  0  0  0  0  0  0  0
  139.2581   68.2254  226.5914 H   0  0  0  0  0  0  0  0  0  0  0  0
  138.3005   68.6144  222.0199 H   0  0  0  0  0  0  0  0  0  0  0  0
  138.5639   70.2462  221.2161 H   0  0  0  0  0  0  0  0  0  0  0  0
  140.9579   68.8608  221.4658 H   0  0  0  0  0  0  0  0  0  0  0  0
  140.0498   66.7800  221.4049 H   0  0  0  0  0  0  0  0  0  0  0  0
  138.8458   67.2447  220.1335 H   0  0  0  0  0  0  0  0  0  0  0  0
  141.1392   65.9178  219.6630 H   0  0  0  0  0  0  0  0  0  0  0  0
  140.2677   67.0233  218.4837 H   0  0  0  0  0  0  0  0  0  0  0  0
  142.6489   67.7206  220.2062 H   0  0  0  0  0  0  0  0  0  0  0  0
  142.6060   67.4462  218.4095 H   0  0  0  0  0  0  0  0  0  0  0  0
  142.4789   69.8684  219.5496 H   0  0  0  0  0  0  0  0  0  0  0  0
  141.6890   69.4190  217.9748 H   0  0  0  0  0  0  0  0  0  0  0  0
  140.3494   70.6871  219.8829 H   0  0  0  0  0  0  0  0  0  0  0  0
  139.5861   69.4153  218.8592 H   0  0  0  0  0  0  0  0  0  0  0  0
  142.9698   72.0977  221.1621 H   0  0  0  0  0  0  0  0  0  0  0  0
  1  2  1  0
  2  3  1  0
  3  4  2  0
  4  5  1  0
  5  6  2  0
  6  7  1  0
  7  8  1  0
  8  9  2  0
  9 10  1  0
 10 11  2  0
 11 12  1  0
 12 13  2  0
 13 14  1  0
 14 15  2  0
 15 16  1  0
 15 17  1  0
 17 18  2  0
 18 19  1  0
 19 20  2  0
 19 21  1  0
 21 22  1  0
 22 23  1  0
 23 24  1  0
 24 25  1  0
 25 26  1  0
 26 27  1  0
 27 28  1  0
  7 29  2  0
 29  3  1  0
 21 10  1  0
 28 23  1  0
 18 12  1  0
  1 30  1  0
  1 31  1  0
  2 32  1  0
  2 33  1  0
  4 34  1  0
  5 35  1  0
  6 36  1  0
  8 37  1  0
  9 38  1  0
 13 39  1  0
 14 40  1  0
 17 41  1  0
 22 42  1  0
 22 43  1  0
 23 44  1  0
 24 45  1  0
 24 46  1  0
 25 47  1  0
 25 48  1  0
 26 49  1  0
 26 50  1  0
 27 51  1  0
 27 52  1  0
 28 53  1  0
 28 54  1  0
 29 55  1  0
M  END
>  <smiles>  (22) 
NCc1cccc(/C=C/c2nc3ccc(F)cc3c(=O)n2CC2CCCCC2)c1

>  <score_type>  (22) 
oracle

>  <origin>  (22) 
autodockgpu

>  <m_score__min__energy>  (22) 
-8.4499999999999993

>  <m_primary>  (22) 
energy

>  <rmsd>  (22) 
10.754282763039113

>  <m_score__min__rmsd>  (22) 
10.754282763039113

>  <meeko>  (22) 
{"free_energy": -7.99, "intermolecular_energy": -10.08, "internal_energy": -1.34, "cluster_size": 14, "cluster_id": 2, "rank_in_cluster": 5}

>  <energy>  (22) 
-7.38

>  <cluster_rmsd>  (22) 
0.82

>  <cluster>  (22) 
3

$$$$

     RDKit          3D

 55 58  0  0  0  0  0  0  0  0999 V2000
  144.4700   75.3440  216.9610 N   0  0  0  0  0  0  0  0  0  0  0  0
  144.2190   76.0130  215.6870 C   0  0  0  0  0  0  0  0  0  0  0  0
  143.2670   77.1530  215.8390 C   0  0  0  0  0  0  0  0  0  0  0  0
  142.8310   77.8620  214.7420 C   0  0  0  0  0  0  0  0  0  0  0  0
  141.9550   78.8970  214.9610 C   0  0  0  0  0  0  0  0  0  0  0  0
  141.5250   79.2180  216.2440 C   0  0  0  0  0  0  0  0  0  0  0  0
  141.9500   78.5210  217.3540 C   0  0  0  0  0  0  0  0  0  0  0  0
  141.5300   78.8190  218.7100 C   0  0  0  0  0  0  0  0  0  0  0  0
  142.1750   78.4190  219.7920 C   0  0  0  0  0  0  0  0  0  0  0  0
  142.1630   76.9940  220.1810 C   0  0  0  0  0  0  0  0  0  0  0  0
  143.2040   76.2670  219.7350 N   0  0  0  0  0  0  0  0  0  0  0  0
  143.3530   74.9600  220.0270 C   0  0  0  0  0  0  0  0  0  0  0  0
  144.4170   74.2040  219.5760 C   0  0  0  0  0  0  0  0  0  0  0  0
  144.5230   72.8750  219.9030 C   0  0  0  0  0  0  0  0  0  0  0  0
  143.5560   72.2840  220.6920 C   0  0  0  0  0  0  0  0  0  0  0  0
  143.6530   70.9730  221.0190 F   0  0  0  0  0  0  0  0  0  0  0  0
  142.4820   73.0570  221.1450 C   0  0  0  0  0  0  0  0  0  0  0  0
  142.3750   74.3960  220.8160 C   0  0  0  0  0  0  0  0  0  0  0  0
  141.3030   75.1710  221.2660 C   0  0  0  0  0  0  0  0  0  0  0  0
  140.4700   74.5600  221.9800 O   0  0  0  0  0  0  0  0  0  0  0  0
  141.1810   76.4790  220.9550 N   0  0  0  0  0  0  0  0  0  0  0  0
  140.0800   77.2820  221.4220 C   0  0  0  0  0  0  0  0  0  0  0  0
  140.4770   78.5120  222.2070 C   0  0  0  0  0  0  0  0  0  0  0  0
  139.3560   79.3610  222.6710 C   0  0  0  0  0  0  0  0  0  0  0  0
  139.8270   80.4280  223.6000 C   0  0  0  0  0  0  0  0  0  0  0  0
  141.2930   80.7690  223.4800 C   0  0  0  0  0  0  0  0  0  0  0  0
  142.1740   79.5680  223.6500 C   0  0  0  0  0  0  0  0  0  0  0  0
  141.4640   78.2760  223.2950 C   0  0  0  0  0  0  0  0  0  0  0  0
  142.8370   77.4760  217.1090 C   0  0  0  0  0  0  0  0  0  0  0  0
  144.2590   75.9560  217.7850 H   0  0  0  0  0  0  0  0  0  0  0  0
  145.5120   75.1420  216.9900 H   0  0  0  0  0  0  0  0  0  0  0  0
  145.1717   76.3947  215.2912 H   0  0  0  0  0  0  0  0  0  0  0  0
  143.7704   75.2816  214.9986 H   0  0  0  0  0  0  0  0  0  0  0  0
  143.1718   77.6087  213.7273 H   0  0  0  0  0  0  0  0  0  0  0  0
  141.5868   79.4828  214.1058 H   0  0  0  0  0  0  0  0  0  0  0  0
  140.8234   80.0548  216.3769 H   0  0  0  0  0  0  0  0  0  0  0  0
  140.6163   79.4161  218.8465 H   0  0  0  0  0  0  0  0  0  0  0  0
  142.7227   79.1498  220.4051 H   0  0  0  0  0  0  0  0  0  0  0  0
  145.1887   74.6723  218.9473 H   0  0  0  0  0  0  0  0  0  0  0  0
  145.3751   72.2830  219.5378 H   0  0  0  0  0  0  0  0  0  0  0  0
  141.7088   72.5917  221.7740 H   0  0  0  0  0  0  0  0  0  0  0  0
  139.4994   77.6081  220.5465 H   0  0  0  0  0  0  0  0  0  0  0  0
  139.5063   76.6469  222.1130 H   0  0  0  0  0  0  0  0  0  0  0  0
  140.9996   79.0970  221.4359 H   0  0  0  0  0  0  0  0  0  0  0  0
  138.8791   79.8316  221.7986 H   0  0  0  0  0  0  0  0  0  0  0  0
  138.6410   78.7235  223.2117 H   0  0  0  0  0  0  0  0  0  0  0  0
  139.2457   81.3396  223.3972 H   0  0  0  0  0  0  0  0  0  0  0  0
  139.6816   80.0387  224.6185 H   0  0  0  0  0  0  0  0  0  0  0  0
  141.4747   81.2027  222.4856 H   0  0  0  0  0  0  0  0  0  0  0  0
  141.5386   81.4817  224.2811 H   0  0  0  0  0  0  0  0  0  0  0  0
  143.0526   79.6791  222.9976 H   0  0  0  0  0  0  0  0  0  0  0  0
  142.4637   79.5116  224.7097 H   0  0  0  0  0  0  0  0  0  0  0  0
  142.2046   77.5354  222.9589 H   0  0  0  0  0  0  0  0  0  0  0  0
  140.9346   77.9024  224.1839 H   0  0  0  0  0  0  0  0  0  0  0  0
  143.2086   76.8862  217.9599 H   0  0  0  0  0  0  0  0  0  0  0  0
  1  2  1  0
  2  3  1  0
  3  4  2  0
  4  5  1  0
  5  6  2  0
  6  7  1  0
  7  8  1  0
  8  9  2  0
  9 10  1  0
 10 11  2  0
 11 12  1  0
 12 13  2  0
 13 14  1  0
 14 15  2  0
 15 16  1  0
 15 17  1  0
 17 18  2  0
 18 19  1  0
 19 20  2  0
 19 21  1  0
 21 22  1  0
 22 23  1  0
 23 24  1  0
 24 25  1  0
 25 26  1  0
 26 27  1  0
 27 28  1  0
  7 29  2  0
 29  3  1  0
 21 10  1  0
 28 23  1  0
 18 12  1  0
  1 30  1  0
  1 31  1  0
  2 32  1  0
  2 33  1  0
  4 34  1  0
  5 35  1  0
  6 36  1  0
  8 37  1  0
  9 38  1  0
 13 39  1  0
 14 40  1  0
 17 41  1  0
 22 42  1  0
 22 43  1  0
 23 44  1  0
 24 45  1  0
 24 46  1  0
 25 47  1  0
 25 48  1  0
 26 49  1  0
 26 50  1  0
 27 51  1  0
 27 52  1  0
 28 53  1  0
 28 54  1  0
 29 55  1  0
M  END
>  <smiles>  (23) 
NCc1cccc(/C=C/c2nc3ccc(F)cc3c(=O)n2CC2CCCCC2)c1

>  <score_type>  (23) 
oracle

>  <origin>  (23) 
autodockgpu

>  <m_score__min__energy>  (23) 
-8.4499999999999993

>  <m_primary>  (23) 
energy

>  <rmsd>  (23) 
7.541568490898384

>  <m_score__min__rmsd>  (23) 
7.541568490898384

>  <meeko>  (23) 
{"free_energy": -6.77, "intermolecular_energy": -8.86, "internal_energy": -1.93, "cluster_size": 1, "cluster_id": 9, "rank_in_cluster": 1}

>  <energy>  (23) 
-7.92

>  <cluster_rmsd>  (23) 
0.0

>  <cluster>  (23) 
4

$$$$

     RDKit          3D

 55 58  0  0  0  0  0  0  0  0999 V2000
  146.2930   73.3910  218.9510 N   0  0  0  0  0  0  0  0  0  0  0  0
  145.7540   73.1980  220.2940 C   0  0  0  0  0  0  0  0  0  0  0  0
  144.3230   73.6140  220.3820 C   0  0  0  0  0  0  0  0  0  0  0  0
  143.9340   74.8880  220.0320 C   0  0  0  0  0  0  0  0  0  0  0  0
  142.6000   75.1960  220.1380 C   0  0  0  0  0  0  0  0  0  0  0  0
  141.6760   74.2580  220.5820 C   0  0  0  0  0  0  0  0  0  0  0  0
  142.0450   72.9780  220.9370 C   0  0  0  0  0  0  0  0  0  0  0  0
  141.1180   71.9660  221.4060 C   0  0  0  0  0  0  0  0  0  0  0  0
  140.2220   72.1630  222.3570 C   0  0  0  0  0  0  0  0  0  0  0  0
  140.0970   71.2000  223.4720 C   0  0  0  0  0  0  0  0  0  0  0  0
  140.6500   71.5910  224.6350 N   0  0  0  0  0  0  0  0  0  0  0  0
  140.5970   70.8400  225.7520 C   0  0  0  0  0  0  0  0  0  0  0  0
  141.1600   71.2300  226.9500 C   0  0  0  0  0  0  0  0  0  0  0  0
  141.0760   70.4270  228.0600 C   0  0  0  0  0  0  0  0  0  0  0  0
  140.4210   69.2140  227.9810 C   0  0  0  0  0  0  0  0  0  0  0  0
  140.3350   68.4160  229.0720 F   0  0  0  0  0  0  0  0  0  0  0  0
  139.8540   68.8260  226.7630 C   0  0  0  0  0  0  0  0  0  0  0  0
  139.9370   69.6350  225.6450 C   0  0  0  0  0  0  0  0  0  0  0  0
  139.3720   69.2500  224.4260 C   0  0  0  0  0  0  0  0  0  0  0  0
  138.7930   68.1360  224.4390 O   0  0  0  0  0  0  0  0  0  0  0  0
  139.4440   70.0260  223.3240 N   0  0  0  0  0  0  0  0  0  0  0  0
  138.8570   69.6350  222.0680 C   0  0  0  0  0  0  0  0  0  0  0  0
  139.7580   68.8160  221.1710 C   0  0  0  0  0  0  0  0  0  0  0  0
  139.4680   67.3650  221.1300 C   0  0  0  0  0  0  0  0  0  0  0  0
  140.2670   66.6770  220.0740 C   0  0  0  0  0  0  0  0  0  0  0  0
  141.5160   67.4110  219.6480 C   0  0  0  0  0  0  0  0  0  0  0  0
  141.2270   68.8100  219.1910 C   0  0  0  0  0  0  0  0  0  0  0  0
  139.9560   69.3670  219.8030 C   0  0  0  0  0  0  0  0  0  0  0  0
  143.4020   72.6870  220.8220 C   0  0  0  0  0  0  0  0  0  0  0  0
  147.1480   73.9960  218.9440 H   0  0  0  0  0  0  0  0  0  0  0  0
  145.5470   73.9120  218.4040 H   0  0  0  0  0  0  0  0  0  0  0  0
  145.8323   72.1334  220.5595 H   0  0  0  0  0  0  0  0  0  0  0  0
  146.3350   73.8224  220.9887 H   0  0  0  0  0  0  0  0  0  0  0  0
  144.6648   75.6312  219.6806 H   0  0  0  0  0  0  0  0  0  0  0  0
  142.2562   76.2049  219.8661 H   0  0  0  0  0  0  0  0  0  0  0  0
  140.6167   74.5458  220.6525 H   0  0  0  0  0  0  0  0  0  0  0  0
  141.1637   70.9706  220.9402 H   0  0  0  0  0  0  0  0  0  0  0  0
  139.5672   73.0460  222.3190 H   0  0  0  0  0  0  0  0  0  0  0  0
  141.6823   72.1958  227.0162 H   0  0  0  0  0  0  0  0  0  0  0  0
  141.5290   70.7487  229.0094 H   0  0  0  0  0  0  0  0  0  0  0  0
  139.3327   67.8599  226.6932 H   0  0  0  0  0  0  0  0  0  0  0  0
  137.9565   69.0406  222.2821 H   0  0  0  0  0  0  0  0  0  0  0  0
  138.6447   70.5669  221.5236 H   0  0  0  0  0  0  0  0  0  0  0  0
  140.7229   68.9162  221.6895 H   0  0  0  0  0  0  0  0  0  0  0  0
  139.7126   66.9239  222.1075 H   0  0  0  0  0  0  0  0  0  0  0  0
  138.4012   67.2328  220.8965 H   0  0  0  0  0  0  0  0  0  0  0  0
  140.5640   65.6899  220.4579 H   0  0  0  0  0  0  0  0  0  0  0  0
  139.6221   66.6199  219.1847 H   0  0  0  0  0  0  0  0  0  0  0  0
  142.2093   67.4537  220.5009 H   0  0  0  0  0  0  0  0  0  0  0  0
  141.9547   66.8642  218.8003 H   0  0  0  0  0  0  0  0  0  0  0  0
  142.0697   69.4564  219.4773 H   0  0  0  0  0  0  0  0  0  0  0  0
  141.0909   68.7851  218.0997 H   0  0  0  0  0  0  0  0  0  0  0  0
  140.0307   70.4630  219.8603 H   0  0  0  0  0  0  0  0  0  0  0  0
  139.1002   69.0804  219.1741 H   0  0  0  0  0  0  0  0  0  0  0  0
  143.7522   71.6799  221.0923 H   0  0  0  0  0  0  0  0  0  0  0  0
  1  2  1  0
  2  3  1  0
  3  4  2  0
  4  5  1  0
  5  6  2  0
  6  7  1  0
  7  8  1  0
  8  9  2  0
  9 10  1  0
 10 11  2  0
 11 12  1  0
 12 13  2  0
 13 14  1  0
 14 15  2  0
 15 16  1  0
 15 17  1  0
 17 18  2  0
 18 19  1  0
 19 20  2  0
 19 21  1  0
 21 22  1  0
 22 23  1  0
 23 24  1  0
 24 25  1  0
 25 26  1  0
 26 27  1  0
 27 28  1  0
  7 29  2  0
 29  3  1  0
 21 10  1  0
 28 23  1  0
 18 12  1  0
  1 30  1  0
  1 31  1  0
  2 32  1  0
  2 33  1  0
  4 34  1  0
  5 35  1  0
  6 36  1  0
  8 37  1  0
  9 38  1  0
 13 39  1  0
 14 40  1  0
 17 41  1  0
 22 42  1  0
 22 43  1  0
 23 44  1  0
 24 45  1  0
 24 46  1  0
 25 47  1  0
 25 48  1  0
 26 49  1  0
 26 50  1  0
 27 51  1  0
 27 52  1  0
 28 53  1  0
 28 54  1  0
 29 55  1  0
M  END
>  <smiles>  (24) 
NCc1cccc(/C=C/c2nc3ccc(F)cc3c(=O)n2CC2CCCCC2)c1

>  <score_type>  (24) 
oracle

>  <origin>  (24) 
autodockgpu

>  <m_score__min__energy>  (24) 
-8.4499999999999993

>  <m_primary>  (24) 
energy

>  <rmsd>  (24) 
11.058693953272334

>  <m_score__min__rmsd>  (24) 
11.058693953272334

>  <meeko>  (24) 
{"free_energy": -8.37, "intermolecular_energy": -10.46, "internal_energy": -1.38, "cluster_size": 14, "cluster_id": 2, "rank_in_cluster": 2}

>  <energy>  (24) 
-7.89

>  <cluster_rmsd>  (24) 
0.52

>  <cluster>  (24) 
4

$$$$

     RDKit          3D

 55 58  0  0  0  0  0  0  0  0999 V2000
  142.9690   80.3030  217.7700 N   0  0  0  0  0  0  0  0  0  0  0  0
  141.8110   81.1340  218.0850 C   0  0  0  0  0  0  0  0  0  0  0  0
  141.7080   81.4080  219.5500 C   0  0  0  0  0  0  0  0  0  0  0  0
  141.1420   82.5730  220.0130 C   0  0  0  0  0  0  0  0  0  0  0  0
  141.0820   82.7530  221.3730 C   0  0  0  0  0  0  0  0  0  0  0  0
  141.5750   81.7940  222.2500 C   0  0  0  0  0  0  0  0  0  0  0  0
  142.1460   80.6210  221.8060 C   0  0  0  0  0  0  0  0  0  0  0  0
  142.6730   79.5910  222.6810 C   0  0  0  0  0  0  0  0  0  0  0  0
  141.9320   78.8430  223.4790 C   0  0  0  0  0  0  0  0  0  0  0  0
  140.4610   78.8280  223.3300 C   0  0  0  0  0  0  0  0  0  0  0  0
  139.8240   79.9170  223.7960 N   0  0  0  0  0  0  0  0  0  0  0  0
  138.4880   80.0690  223.7090 C   0  0  0  0  0  0  0  0  0  0  0  0
  137.8230   81.1820  224.1830 C   0  0  0  0  0  0  0  0  0  0  0  0
  136.4600   81.2880  224.0680 C   0  0  0  0  0  0  0  0  0  0  0  0
  135.7410   80.2700  223.4730 C   0  0  0  0  0  0  0  0  0  0  0  0
  134.3950   80.3660  223.3570 F   0  0  0  0  0  0  0  0  0  0  0  0
  136.4220   79.1460  222.9960 C   0  0  0  0  0  0  0  0  0  0  0  0
  137.7960   79.0390  223.1100 C   0  0  0  0  0  0  0  0  0  0  0  0
  138.4800   77.9170  222.6350 C   0  0  0  0  0  0  0  0  0  0  0  0
  137.7540   77.0390  222.1060 O   0  0  0  0  0  0  0  0  0  0  0  0
  139.8200   77.7950  222.7390 N   0  0  0  0  0  0  0  0  0  0  0  0
  140.5280   76.6420  222.2450 C   0  0  0  0  0  0  0  0  0  0  0  0
  141.2190   76.8400  220.9140 C   0  0  0  0  0  0  0  0  0  0  0  0
  142.1440   75.7580  220.5080 C   0  0  0  0  0  0  0  0  0  0  0  0
  142.6160   75.9390  219.1050 C   0  0  0  0  0  0  0  0  0  0  0  0
  142.5180   77.3530  218.5840 C   0  0  0  0  0  0  0  0  0  0  0  0
  141.1290   77.9070  218.6930 C   0  0  0  0  0  0  0  0  0  0  0  0
  140.3260   77.2390  219.7930 C   0  0  0  0  0  0  0  0  0  0  0  0
  142.1960   80.4580  220.4240 C   0  0  0  0  0  0  0  0  0  0  0  0
  143.8770   80.7740  217.9990 H   0  0  0  0  0  0  0  0  0  0  0  0
  142.9560   80.1610  216.7180 H   0  0  0  0  0  0  0  0  0  0  0  0
  141.9025   82.0904  217.5493 H   0  0  0  0  0  0  0  0  0  0  0  0
  140.9058   80.5920  217.7736 H   0  0  0  0  0  0  0  0  0  0  0  0
  140.7518   83.3324  219.3194 H   0  0  0  0  0  0  0  0  0  0  0  0
  140.6352   83.6738  221.7761 H   0  0  0  0  0  0  0  0  0  0  0  0
  141.5073   81.9771  223.3325 H   0  0  0  0  0  0  0  0  0  0  0  0
  143.7599   79.4218  222.6800 H   0  0  0  0  0  0  0  0  0  0  0  0
  142.4108   78.2296  224.2565 H   0  0  0  0  0  0  0  0  0  0  0  0
  138.3929   81.9938  224.6587 H   0  0  0  0  0  0  0  0  0  0  0  0
  135.9417   82.1806  224.4483 H   0  0  0  0  0  0  0  0  0  0  0  0
  135.8545   78.3319  222.5214 H   0  0  0  0  0  0  0  0  0  0  0  0
  141.2906   76.3653  222.9879 H   0  0  0  0  0  0  0  0  0  0  0  0
  139.7707   75.8602  222.0858 H   0  0  0  0  0  0  0  0  0  0  0  0
  141.8536   77.7118  221.1312 H   0  0  0  0  0  0  0  0  0  0  0  0
  143.0142   75.7607  221.1808 H   0  0  0  0  0  0  0  0  0  0  0  0
  141.6039   74.8017  220.5693 H   0  0  0  0  0  0  0  0  0  0  0  0
  143.6698   75.6277  219.0551 H   0  0  0  0  0  0  0  0  0  0  0  0
  141.9541   75.3284  218.4732 H   0  0  0  0  0  0  0  0  0  0  0  0
  143.1997   77.9916  219.1649 H   0  0  0  0  0  0  0  0  0  0  0  0
  142.7904   77.3376  217.5184 H   0  0  0  0  0  0  0  0  0  0  0  0
  141.1938   78.9841  218.9069 H   0  0  0  0  0  0  0  0  0  0  0  0
  140.6155   77.7163  217.7391 H   0  0  0  0  0  0  0  0  0  0  0  0
  139.5669   77.9421  220.1663 H   0  0  0  0  0  0  0  0  0  0  0  0
  139.8393   76.3405  219.3858 H   0  0  0  0  0  0  0  0  0  0  0  0
  142.6404   79.5390  220.0142 H   0  0  0  0  0  0  0  0  0  0  0  0
  1  2  1  0
  2  3  1  0
  3  4  2  0
  4  5  1  0
  5  6  2  0
  6  7  1  0
  7  8  1  0
  8  9  2  0
  9 10  1  0
 10 11  2  0
 11 12  1  0
 12 13  2  0
 13 14  1  0
 14 15  2  0
 15 16  1  0
 15 17  1  0
 17 18  2  0
 18 19  1  0
 19 20  2  0
 19 21  1  0
 21 22  1  0
 22 23  1  0
 23 24  1  0
 24 25  1  0
 25 26  1  0
 26 27  1  0
 27 28  1  0
  7 29  2  0
 29  3  1  0
 21 10  1  0
 28 23  1  0
 18 12  1  0
  1 30  1  0
  1 31  1  0
  2 32  1  0
  2 33  1  0
  4 34  1  0
  5 35  1  0
  6 36  1  0
  8 37  1  0
  9 38  1  0
 13 39  1  0
 14 40  1  0
 17 41  1  0
 22 42  1  0
 22 43  1  0
 23 44  1  0
 24 45  1  0
 24 46  1  0
 25 47  1  0
 25 48  1  0
 26 49  1  0
 26 50  1  0
 27 51  1  0
 27 52  1  0
 28 53  1  0
 28 54  1  0
 29 55  1  0
M  END
>  <smiles>  (25) 
NCc1cccc(/C=C/c2nc3ccc(F)cc3c(=O)n2CC2CCCCC2)c1

>  <score_type>  (25) 
oracle

>  <origin>  (25) 
autodockgpu

>  <m_score__min__energy>  (25) 
-8.4499999999999993

>  <m_primary>  (25) 
energy

>  <rmsd>  (25) 
3.9510168758948376

>  <m_score__min__rmsd>  (25) 
3.9510168758948376

>  <meeko>  (25) 
{"free_energy": -6.56, "intermolecular_energy": -8.65, "internal_energy": -2.4, "cluster_size": 8, "cluster_id": 10, "rank_in_cluster": 6}

>  <energy>  (25) 
-7.73

>  <cluster_rmsd>  (25) 
0.54

>  <cluster>  (25) 
4

$$$$

     RDKit          3D

 55 58  0  0  0  0  0  0  0  0999 V2000
  146.3040   73.4020  219.2240 N   0  0  0  0  0  0  0  0  0  0  0  0
  145.5350   72.8840  220.3510 C   0  0  0  0  0  0  0  0  0  0  0  0
  144.1800   73.5080  220.4300 C   0  0  0  0  0  0  0  0  0  0  0  0
  144.0180   74.8680  220.2970 C   0  0  0  0  0  0  0  0  0  0  0  0
  142.7420   75.3670  220.3800 C   0  0  0  0  0  0  0  0  0  0  0  0
  141.6520   74.5300  220.5890 C   0  0  0  0  0  0  0  0  0  0  0  0
  141.7930   73.1660  220.7240 C   0  0  0  0  0  0  0  0  0  0  0  0
  140.6880   72.2520  220.9440 C   0  0  0  0  0  0  0  0  0  0  0  0
  139.7180   72.4580  221.8180 C   0  0  0  0  0  0  0  0  0  0  0  0
  139.5960   71.5930  223.0100 C   0  0  0  0  0  0  0  0  0  0  0  0
  140.3620   71.9470  224.0590 N   0  0  0  0  0  0  0  0  0  0  0  0
  140.3450   71.2790  225.2280 C   0  0  0  0  0  0  0  0  0  0  0  0
  141.1240   71.6330  226.3110 C   0  0  0  0  0  0  0  0  0  0  0  0
  141.0680   70.9190  227.4810 C   0  0  0  0  0  0  0  0  0  0  0  0
  140.2230   69.8310  227.5800 C   0  0  0  0  0  0  0  0  0  0  0  0
  140.1620   69.1200  228.7320 F   0  0  0  0  0  0  0  0  0  0  0  0
  139.4360   69.4790  226.4800 C   0  0  0  0  0  0  0  0  0  0  0  0
  139.4920   70.1990  225.3000 C   0  0  0  0  0  0  0  0  0  0  0  0
  138.7070   69.8500  224.1980 C   0  0  0  0  0  0  0  0  0  0  0  0
  137.9650   68.8520  224.3710 O   0  0  0  0  0  0  0  0  0  0  0  0
  138.7490   70.5400  223.0380 N   0  0  0  0  0  0  0  0  0  0  0  0
  137.9370   70.1860  221.9020 C   0  0  0  0  0  0  0  0  0  0  0  0
  138.6510   69.3870  220.8340 C   0  0  0  0  0  0  0  0  0  0  0  0
  138.7520   70.0420  219.5100 C   0  0  0  0  0  0  0  0  0  0  0  0
  139.6390   69.2770  218.5880 C   0  0  0  0  0  0  0  0  0  0  0  0
  139.8170   67.8210  218.9460 C   0  0  0  0  0  0  0  0  0  0  0  0
  140.3150   67.6340  220.3470 C   0  0  0  0  0  0  0  0  0  0  0  0
  139.9530   68.8000  221.2480 C   0  0  0  0  0  0  0  0  0  0  0  0
  143.0960   72.6810  220.6370 C   0  0  0  0  0  0  0  0  0  0  0  0
  146.9980   74.1320  219.5110 H   0  0  0  0  0  0  0  0  0  0  0  0
  145.6060   73.8790  218.5820 H   0  0  0  0  0  0  0  0  0  0  0  0
  145.4201   71.7963  220.2340 H   0  0  0  0  0  0  0  0  0  0  0  0
  146.0781   73.1263  221.2764 H   0  0  0  0  0  0  0  0  0  0  0  0
  144.8797   75.5311  220.1302 H   0  0  0  0  0  0  0  0  0  0  0  0
  142.5788   76.4501  220.2792 H   0  0  0  0  0  0  0  0  0  0  0  0
  140.6457   74.9702  220.6485 H   0  0  0  0  0  0  0  0  0  0  0  0
  140.6554   71.3295  220.3458 H   0  0  0  0  0  0  0  0  0  0  0  0
  138.9997   73.2755  221.6576 H   0  0  0  0  0  0  0  0  0  0  0  0
  141.7983   72.4987  226.2350 H   0  0  0  0  0  0  0  0  0  0  0  0
  141.6937   71.2119  228.3370 H   0  0  0  0  0  0  0  0  0  0  0  0
  138.7602   68.6142  226.5538 H   0  0  0  0  0  0  0  0  0  0  0  0
  137.0855   69.5903  222.2627 H   0  0  0  0  0  0  0  0  0  0  0  0
  137.6363   71.1330  221.4301 H   0  0  0  0  0  0  0  0  0  0  0  0
  137.9588   68.5424  220.7018 H   0  0  0  0  0  0  0  0  0  0  0  0
  137.7475   70.1083  219.0665 H   0  0  0  0  0  0  0  0  0  0  0  0
  139.1841   71.0435  219.6526 H   0  0  0  0  0  0  0  0  0  0  0  0
  139.2099   69.3310  217.5766 H   0  0  0  0  0  0  0  0  0  0  0  0
  140.6348   69.7386  218.6613 H   0  0  0  0  0  0  0  0  0  0  0  0
  138.8475   67.3112  218.8447 H   0  0  0  0  0  0  0  0  0  0  0  0
  140.5684   67.3972  218.2635 H   0  0  0  0  0  0  0  0  0  0  0  0
  139.8711   66.7164  220.7606 H   0  0  0  0  0  0  0  0  0  0  0  0
  141.4123   67.5675  220.3077 H   0  0  0  0  0  0  0  0  0  0  0  0
  139.8776   68.4462  222.2868 H   0  0  0  0  0  0  0  0  0  0  0  0
  140.7344   69.5701  221.1681 H   0  0  0  0  0  0  0  0  0  0  0  0
  143.2665   71.5989  220.7371 H   0  0  0  0  0  0  0  0  0  0  0  0
  1  2  1  0
  2  3  1  0
  3  4  2  0
  4  5  1  0
  5  6  2  0
  6  7  1  0
  7  8  1  0
  8  9  2  0
  9 10  1  0
 10 11  2  0
 11 12  1  0
 12 13  2  0
 13 14  1  0
 14 15  2  0
 15 16  1  0
 15 17  1  0
 17 18  2  0
 18 19  1  0
 19 20  2  0
 19 21  1  0
 21 22  1  0
 22 23  1  0
 23 24  1  0
 24 25  1  0
 25 26  1  0
 26 27  1  0
 27 28  1  0
  7 29  2  0
 29  3  1  0
 21 10  1  0
 28 23  1  0
 18 12  1  0
  1 30  1  0
  1 31  1  0
  2 32  1  0
  2 33  1  0
  4 34  1  0
  5 35  1  0
  6 36  1  0
  8 37  1  0
  9 38  1  0
 13 39  1  0
 14 40  1  0
 17 41  1  0
 22 42  1  0
 22 43  1  0
 23 44  1  0
 24 45  1  0
 24 46  1  0
 25 47  1  0
 25 48  1  0
 26 49  1  0
 26 50  1  0
 27 51  1  0
 27 52  1  0
 28 53  1  0
 28 54  1  0
 29 55  1  0
M  END
>  <smiles>  (26) 
NCc1cccc(/C=C/c2nc3ccc(F)cc3c(=O)n2CC2CCCCC2)c1

>  <score_type>  (26) 
oracle

>  <origin>  (26) 
autodockgpu

>  <m_score__min__energy>  (26) 
-8.4499999999999993

>  <m_primary>  (26) 
energy

>  <rmsd>  (26) 
9.946624216975453

>  <m_score__min__rmsd>  (26) 
9.946624216975453

>  <meeko>  (26) 
{"free_energy": -7.26, "intermolecular_energy": -9.35, "internal_energy": -1.54, "cluster_size": 14, "cluster_id": 2, "rank_in_cluster": 13}

>  <energy>  (26) 
-7.73

>  <cluster_rmsd>  (26) 
0.68

>  <cluster>  (26) 
4

$$$$

     RDKit          3D

 55 58  0  0  0  0  0  0  0  0999 V2000
  143.2720   81.1450  217.5200 N   0  0  0  0  0  0  0  0  0  0  0  0
  141.8790   81.1110  217.9570 C   0  0  0  0  0  0  0  0  0  0  0  0
  141.7470   81.4180  219.4120 C   0  0  0  0  0  0  0  0  0  0  0  0
  141.1720   82.5930  219.8380 C   0  0  0  0  0  0  0  0  0  0  0  0
  141.0850   82.8040  221.1920 C   0  0  0  0  0  0  0  0  0  0  0  0
  141.5610   81.8650  222.1000 C   0  0  0  0  0  0  0  0  0  0  0  0
  142.1410   80.6830  221.6940 C   0  0  0  0  0  0  0  0  0  0  0  0
  142.6520   79.6740  222.6020 C   0  0  0  0  0  0  0  0  0  0  0  0
  141.9170   79.0470  223.5050 C   0  0  0  0  0  0  0  0  0  0  0  0
  140.4490   78.9760  223.3500 C   0  0  0  0  0  0  0  0  0  0  0  0
  139.7670   80.0300  223.8340 N   0  0  0  0  0  0  0  0  0  0  0  0
  138.4270   80.1300  223.7450 C   0  0  0  0  0  0  0  0  0  0  0  0
  137.7160   81.2060  224.2380 C   0  0  0  0  0  0  0  0  0  0  0  0
  136.3510   81.2600  224.1200 C   0  0  0  0  0  0  0  0  0  0  0  0
  135.6750   80.2260  223.5020 C   0  0  0  0  0  0  0  0  0  0  0  0
  134.3260   80.2710  223.3830 F   0  0  0  0  0  0  0  0  0  0  0  0
  136.4010   79.1400  223.0060 C   0  0  0  0  0  0  0  0  0  0  0  0
  137.7780   79.0860  223.1240 C   0  0  0  0  0  0  0  0  0  0  0  0
  138.5070   78.0010  222.6300 C   0  0  0  0  0  0  0  0  0  0  0  0
  137.8190   77.1050  222.0810 O   0  0  0  0  0  0  0  0  0  0  0  0
  139.8510   77.9300  222.7360 N   0  0  0  0  0  0  0  0  0  0  0  0
  140.6060   76.8160  222.2230 C   0  0  0  0  0  0  0  0  0  0  0  0
  141.2130   77.0340  220.8540 C   0  0  0  0  0  0  0  0  0  0  0  0
  142.2020   76.0180  220.4260 C   0  0  0  0  0  0  0  0  0  0  0  0
  142.5890   76.2000  218.9980 C   0  0  0  0  0  0  0  0  0  0  0  0
  142.3520   77.5880  218.4510 C   0  0  0  0  0  0  0  0  0  0  0  0
  140.9290   78.0310  218.6170 C   0  0  0  0  0  0  0  0  0  0  0  0
  140.2370   77.3300  219.7710 C   0  0  0  0  0  0  0  0  0  0  0  0
  142.2180   80.4890  220.3170 C   0  0  0  0  0  0  0  0  0  0  0  0
  143.3660   81.2650  216.4840 H   0  0  0  0  0  0  0  0  0  0  0  0
  143.6800   80.1940  217.7550 H   0  0  0  0  0  0  0  0  0  0  0  0
  141.3074   81.8550  217.3828 H   0  0  0  0  0  0  0  0  0  0  0  0
  141.4913   80.0961  217.7851 H   0  0  0  0  0  0  0  0  0  0  0  0
  140.7956   83.3365  219.1200 H   0  0  0  0  0  0  0  0  0  0  0  0
  140.6302   83.7334  221.5653 H   0  0  0  0  0  0  0  0  0  0  0  0
  141.4718   82.0723  223.1766 H   0  0  0  0  0  0  0  0  0  0  0  0
  143.7187   79.4138  222.5353 H   0  0  0  0  0  0  0  0  0  0  0  0
  142.3999   78.5768  224.3743 H   0  0  0  0  0  0  0  0  0  0  0  0
  138.2514   82.0304  224.7317 H   0  0  0  0  0  0  0  0  0  0  0  0
  135.7964   82.1235  224.5160 H   0  0  0  0  0  0  0  0  0  0  0  0
  135.8681   78.3136  222.5131 H   0  0  0  0  0  0  0  0  0  0  0  0
  141.4224   76.6026  222.9287 H   0  0  0  0  0  0  0  0  0  0  0  0
  139.8943   75.9841  222.1160 H   0  0  0  0  0  0  0  0  0  0  0  0
  141.7841   77.9596  221.0188 H   0  0  0  0  0  0  0  0  0  0  0  0
  143.1007   76.1071  221.0540 H   0  0  0  0  0  0  0  0  0  0  0  0
  141.7447   75.0236  220.5356 H   0  0  0  0  0  0  0  0  0  0  0  0
  143.6609   75.9724  218.9020 H   0  0  0  0  0  0  0  0  0  0  0  0
  141.9484   75.5227  218.4141 H   0  0  0  0  0  0  0  0  0  0  0  0
  143.0065   78.2942  218.9830 H   0  0  0  0  0  0  0  0  0  0  0  0
  142.5740   77.5671  217.3738 H   0  0  0  0  0  0  0  0  0  0  0  0
  140.9157   79.1151  218.8029 H   0  0  0  0  0  0  0  0  0  0  0  0
  140.3875   77.7741  217.6946 H   0  0  0  0  0  0  0  0  0  0  0  0
  139.4421   77.9795  220.1662 H   0  0  0  0  0  0  0  0  0  0  0  0
  139.8057   76.3849  219.4093 H   0  0  0  0  0  0  0  0  0  0  0  0
  142.6708   79.5613  219.9370 H   0  0  0  0  0  0  0  0  0  0  0  0
  1  2  1  0
  2  3  1  0
  3  4  2  0
  4  5  1  0
  5  6  2  0
  6  7  1  0
  7  8  1  0
  8  9  2  0
  9 10  1  0
 10 11  2  0
 11 12  1  0
 12 13  2  0
 13 14  1  0
 14 15  2  0
 15 16  1  0
 15 17  1  0
 17 18  2  0
 18 19  1  0
 19 20  2  0
 19 21  1  0
 21 22  1  0
 22 23  1  0
 23 24  1  0
 24 25  1  0
 25 26  1  0
 26 27  1  0
 27 28  1  0
  7 29  2  0
 29  3  1  0
 21 10  1  0
 28 23  1  0
 18 12  1  0
  1 30  1  0
  1 31  1  0
  2 32  1  0
  2 33  1  0
  4 34  1  0
  5 35  1  0
  6 36  1  0
  8 37  1  0
  9 38  1  0
 13 39  1  0
 14 40  1  0
 17 41  1  0
 22 42  1  0
 22 43  1  0
 23 44  1  0
 24 45  1  0
 24 46  1  0
 25 47  1  0
 25 48  1  0
 26 49  1  0
 26 50  1  0
 27 51  1  0
 27 52  1  0
 28 53  1  0
 28 54  1  0
 29 55  1  0
M  END
>  <smiles>  (27) 
NCc1cccc(/C=C/c2nc3ccc(F)cc3c(=O)n2CC2CCCCC2)c1

>  <score_type>  (27) 
oracle

>  <origin>  (27) 
autodockgpu

>  <m_score__min__energy>  (27) 
-8.4499999999999993

>  <m_primary>  (27) 
energy

>  <rmsd>  (27) 
3.939912791524576

>  <m_score__min__rmsd>  (27) 
3.939912791524576

>  <meeko>  (27) 
{"free_energy": -6.61, "intermolecular_energy": -8.7, "internal_energy": -2.42, "cluster_size": 8, "cluster_id": 10, "rank_in_cluster": 4}

>  <energy>  (27) 
-7.62

>  <cluster_rmsd>  (27) 
1.74

>  <cluster>  (27) 
4

$$$$

     RDKit          3D

 55 58  0  0  0  0  0  0  0  0999 V2000
  139.6110   73.4660  222.3470 N   0  0  0  0  0  0  0  0  0  0  0  0
  140.8910   72.9280  221.8960 C   0  0  0  0  0  0  0  0  0  0  0  0
  141.7110   73.9620  221.1970 C   0  0  0  0  0  0  0  0  0  0  0  0
  142.9670   73.6650  220.7200 C   0  0  0  0  0  0  0  0  0  0  0  0
  143.6600   74.6670  220.0880 C   0  0  0  0  0  0  0  0  0  0  0  0
  143.1140   75.9360  219.9350 C   0  0  0  0  0  0  0  0  0  0  0  0
  141.8580   76.2540  220.4070 C   0  0  0  0  0  0  0  0  0  0  0  0
  141.2470   77.5620  220.2720 C   0  0  0  0  0  0  0  0  0  0  0  0
  139.9810   77.7610  219.9470 C   0  0  0  0  0  0  0  0  0  0  0  0
  138.9120   77.5130  220.9370 C   0  0  0  0  0  0  0  0  0  0  0  0
  138.4390   76.2540  220.9690 N   0  0  0  0  0  0  0  0  0  0  0  0
  137.4840   75.8600  221.8340 C   0  0  0  0  0  0  0  0  0  0  0  0
  136.9900   74.5710  221.8780 C   0  0  0  0  0  0  0  0  0  0  0  0
  136.0170   74.2220  222.7800 C   0  0  0  0  0  0  0  0  0  0  0  0
  135.5220   75.1680  223.6560 C   0  0  0  0  0  0  0  0  0  0  0  0
  134.5610   74.8300  224.5490 F   0  0  0  0  0  0  0  0  0  0  0  0
  136.0270   76.4700  223.6050 C   0  0  0  0  0  0  0  0  0  0  0  0
  137.0080   76.8230  222.6970 C   0  0  0  0  0  0  0  0  0  0  0  0
  137.5150   78.1250  222.6430 C   0  0  0  0  0  0  0  0  0  0  0  0
  137.0140   78.9230  223.4740 O   0  0  0  0  0  0  0  0  0  0  0  0
  138.4720   78.4880  221.7630 N   0  0  0  0  0  0  0  0  0  0  0  0
  138.9990   79.8270  221.7090 C   0  0  0  0  0  0  0  0  0  0  0  0
  140.3700   79.9970  222.3270 C   0  0  0  0  0  0  0  0  0  0  0  0
  140.7280   81.3810  222.7100 C   0  0  0  0  0  0  0  0  0  0  0  0
  142.0000   81.4210  223.4890 C   0  0  0  0  0  0  0  0  0  0  0  0
  142.8990   80.2250  223.2900 C   0  0  0  0  0  0  0  0  0  0  0  0
  142.2020   78.9310  223.5860 C   0  0  0  0  0  0  0  0  0  0  0  0
  140.6980   79.0320  223.4100 C   0  0  0  0  0  0  0  0  0  0  0  0
  141.1730   75.2230  221.0440 C   0  0  0  0  0  0  0  0  0  0  0  0
  139.4000   74.4050  221.9330 H   0  0  0  0  0  0  0  0  0  0  0  0
  139.7010   73.6090  223.3950 H   0  0  0  0  0  0  0  0  0  0  0  0
  141.4502   72.5602  222.7689 H   0  0  0  0  0  0  0  0  0  0  0  0
  140.6885   72.1136  221.1848 H   0  0  0  0  0  0  0  0  0  0  0  0
  143.3999   72.6610  220.8408 H   0  0  0  0  0  0  0  0  0  0  0  0
  144.6667   74.4619  219.6951 H   0  0  0  0  0  0  0  0  0  0  0  0
  143.7022   76.7108  219.4214 H   0  0  0  0  0  0  0  0  0  0  0  0
  141.8773   78.4455  220.4515 H   0  0  0  0  0  0  0  0  0  0  0  0
  139.7226   78.1121  218.9371 H   0  0  0  0  0  0  0  0  0  0  0  0
  137.3815   73.8150  221.1814 H   0  0  0  0  0  0  0  0  0  0  0  0
  135.6323   73.1918  222.8054 H   0  0  0  0  0  0  0  0  0  0  0  0
  135.6368   77.2280  224.3001 H   0  0  0  0  0  0  0  0  0  0  0  0
  139.0605   80.1278  220.6527 H   0  0  0  0  0  0  0  0  0  0  0  0
  138.3141   80.4525  222.3003 H   0  0  0  0  0  0  0  0  0  0  0  0
  141.0208   79.7417  221.4777 H   0  0  0  0  0  0  0  0  0  0  0  0
  140.8481   81.9845  221.7982 H   0  0  0  0  0  0  0  0  0  0  0  0
  139.9230   81.7833  223.3426 H   0  0  0  0  0  0  0  0  0  0  0  0
  142.5566   82.3216  223.1903 H   0  0  0  0  0  0  0  0  0  0  0  0
  141.7141   81.4216  224.5512 H   0  0  0  0  0  0  0  0  0  0  0  0
  143.2418   80.2107  222.2449 H   0  0  0  0  0  0  0  0  0  0  0  0
  143.7427   80.3193  223.9895 H   0  0  0  0  0  0  0  0  0  0  0  0
  142.5866   78.1583  222.9041 H   0  0  0  0  0  0  0  0  0  0  0  0
  142.4008   78.6752  224.6372 H   0  0  0  0  0  0  0  0  0  0  0  0
  140.2957   78.0422  223.1485 H   0  0  0  0  0  0  0  0  0  0  0  0
  140.2499   79.3835  224.3511 H   0  0  0  0  0  0  0  0  0  0  0  0
  140.1660   75.4211  221.4398 H   0  0  0  0  0  0  0  0  0  0  0  0
  1  2  1  0
  2  3  1  0
  3  4  2  0
  4  5  1  0
  5  6  2  0
  6  7  1  0
  7  8  1  0
  8  9  2  0
  9 10  1  0
 10 11  2  0
 11 12  1  0
 12 13  2  0
 13 14  1  0
 14 15  2  0
 15 16  1  0
 15 17  1  0
 17 18  2  0
 18 19  1  0
 19 20  2  0
 19 21  1  0
 21 22  1  0
 22 23  1  0
 23 24  1  0
 24 25  1  0
 25 26  1  0
 26 27  1  0
 27 28  1  0
  7 29  2  0
 29  3  1  0
 21 10  1  0
 28 23  1  0
 18 12  1  0
  1 30  1  0
  1 31  1  0
  2 32  1  0
  2 33  1  0
  4 34  1  0
  5 35  1  0
  6 36  1  0
  8 37  1  0
  9 38  1  0
 13 39  1  0
 14 40  1  0
 17 41  1  0
 22 42  1  0
 22 43  1  0
 23 44  1  0
 24 45  1  0
 24 46  1  0
 25 47  1  0
 25 48  1  0
 26 49  1  0
 26 50  1  0
 27 51  1  0
 27 52  1  0
 28 53  1  0
 28 54  1  0
 29 55  1  0
M  END
>  <smiles>  (28) 
NCc1cccc(/C=C/c2nc3ccc(F)cc3c(=O)n2CC2CCCCC2)c1

>  <score_type>  (28) 
oracle

>  <origin>  (28) 
autodockgpu

>  <m_score__min__energy>  (28) 
-8.4499999999999993

>  <m_primary>  (28) 
energy

>  <rmsd>  (28) 
7.06994423143908

>  <m_score__min__rmsd>  (28) 
7.06994423143908

>  <meeko>  (28) 
{"free_energy": -6.33, "intermolecular_energy": -8.42, "internal_energy": -2.34, "cluster_size": 1, "cluster_id": 11, "rank_in_cluster": 1}

>  <energy>  (28) 
-7.77

>  <cluster_rmsd>  (28) 
0.0

>  <cluster>  (28) 
5

$$$$

     RDKit          3D

 55 58  0  0  0  0  0  0  0  0999 V2000
  140.9750   72.3600  227.7170 N   0  0  0  0  0  0  0  0  0  0  0  0
  140.7920   70.9370  227.4430 C   0  0  0  0  0  0  0  0  0  0  0  0
  140.2360   70.7050  226.0760 C   0  0  0  0  0  0  0  0  0  0  0  0
  139.3090   69.7130  225.8490 C   0  0  0  0  0  0  0  0  0  0  0  0
  138.8430   69.5600  224.5660 C   0  0  0  0  0  0  0  0  0  0  0  0
  139.2910   70.3770  223.5350 C   0  0  0  0  0  0  0  0  0  0  0  0
  140.2190   71.3750  223.7410 C   0  0  0  0  0  0  0  0  0  0  0  0
  140.7150   72.2510  222.6980 C   0  0  0  0  0  0  0  0  0  0  0  0
  139.9580   73.0830  222.0040 C   0  0  0  0  0  0  0  0  0  0  0  0
  140.4950   74.3910  221.5700 C   0  0  0  0  0  0  0  0  0  0  0  0
  140.0920   75.4480  222.2990 N   0  0  0  0  0  0  0  0  0  0  0  0
  140.5130   76.7030  222.0500 C   0  0  0  0  0  0  0  0  0  0  0  0
  140.1080   77.7950  222.7900 C   0  0  0  0  0  0  0  0  0  0  0  0
  140.5680   79.0540  222.4960 C   0  0  0  0  0  0  0  0  0  0  0  0
  141.4470   79.2340  221.4460 C   0  0  0  0  0  0  0  0  0  0  0  0
  141.9060   80.4730  221.1480 F   0  0  0  0  0  0  0  0  0  0  0  0
  141.8530   78.1220  220.7010 C   0  0  0  0  0  0  0  0  0  0  0  0
  141.3900   76.8540  220.9980 C   0  0  0  0  0  0  0  0  0  0  0  0
  141.7930   75.7410  220.2550 C   0  0  0  0  0  0  0  0  0  0  0  0
  142.5950   75.9890  219.3210 O   0  0  0  0  0  0  0  0  0  0  0  0
  141.3510   74.4950  220.5300 N   0  0  0  0  0  0  0  0  0  0  0  0
  141.7690   73.3450  219.7700 C   0  0  0  0  0  0  0  0  0  0  0  0
  143.2500   73.0430  219.8340 C   0  0  0  0  0  0  0  0  0  0  0  0
  144.0120   73.8000  220.8510 C   0  0  0  0  0  0  0  0  0  0  0  0
  145.4090   73.2930  220.9780 C   0  0  0  0  0  0  0  0  0  0  0  0
  145.9180   72.5380  219.7740 C   0  0  0  0  0  0  0  0  0  0  0  0
  145.0280   71.3900  219.4010 C   0  0  0  0  0  0  0  0  0  0  0  0
  143.5970   71.5960  219.8620 C   0  0  0  0  0  0  0  0  0  0  0  0
  140.6770   71.5120  225.0490 C   0  0  0  0  0  0  0  0  0  0  0  0
  140.4180   72.6850  228.5430 H   0  0  0  0  0  0  0  0  0  0  0  0
  140.5960   72.8760  226.8710 H   0  0  0  0  0  0  0  0  0  0  0  0
  141.7652   70.4305  227.5228 H   0  0  0  0  0  0  0  0  0  0  0  0
  140.0775   70.5354  228.1767 H   0  0  0  0  0  0  0  0  0  0  0  0
  138.9544   69.0665  226.6652 H   0  0  0  0  0  0  0  0  0  0  0  0
  138.1016   68.7764  224.3507 H   0  0  0  0  0  0  0  0  0  0  0  0
  138.8921   70.2222  222.5217 H   0  0  0  0  0  0  0  0  0  0  0  0
  141.7906   72.2214  222.4694 H   0  0  0  0  0  0  0  0  0  0  0  0
  138.9257   72.8019  221.7485 H   0  0  0  0  0  0  0  0  0  0  0  0
  139.4074   77.6545  223.6263 H   0  0  0  0  0  0  0  0  0  0  0  0
  140.2380   79.9162  223.0941 H   0  0  0  0  0  0  0  0  0  0  0  0
  142.5532   78.2591  219.8638 H   0  0  0  0  0  0  0  0  0  0  0  0
  141.2247   72.4680  220.1502 H   0  0  0  0  0  0  0  0  0  0  0  0
  141.5460   73.5733  218.7173 H   0  0  0  0  0  0  0  0  0  0  0  0
  143.5884   73.4257  218.8598 H   0  0  0  0  0  0  0  0  0  0  0  0
  144.0418   74.8602  220.5592 H   0  0  0  0  0  0  0  0  0  0  0  0
  143.5101   73.6746  221.8218 H   0  0  0  0  0  0  0  0  0  0  0  0
  146.0719   74.1542  221.1478 H   0  0  0  0  0  0  0  0  0  0  0  0
  145.4053   72.5782  221.8141 H   0  0  0  0  0  0  0  0  0  0  0  0
  145.9770   73.2308  218.9216 H   0  0  0  0  0  0  0  0  0  0  0  0
  146.9062   72.1274  220.0287 H   0  0  0  0  0  0  0  0  0  0  0  0
  145.0344   71.2788  218.3067 H   0  0  0  0  0  0  0  0  0  0  0  0
  145.4152   70.4889  219.8992 H   0  0  0  0  0  0  0  0  0  0  0  0
  142.9176   71.0466  219.1937 H   0  0  0  0  0  0  0  0  0  0  0  0
  143.4949   71.2228  220.8917 H   0  0  0  0  0  0  0  0  0  0  0  0
  141.4186   72.2935  225.2710 H   0  0  0  0  0  0  0  0  0  0  0  0
  1  2  1  0
  2  3  1  0
  3  4  2  0
  4  5  1  0
  5  6  2  0
  6  7  1  0
  7  8  1  0
  8  9  2  0
  9 10  1  0
 10 11  2  0
 11 12  1  0
 12 13  2  0
 13 14  1  0
 14 15  2  0
 15 16  1  0
 15 17  1  0
 17 18  2  0
 18 19  1  0
 19 20  2  0
 19 21  1  0
 21 22  1  0
 22 23  1  0
 23 24  1  0
 24 25  1  0
 25 26  1  0
 26 27  1  0
 27 28  1  0
  7 29  2  0
 29  3  1  0
 21 10  1  0
 28 23  1  0
 18 12  1  0
  1 30  1  0
  1 31  1  0
  2 32  1  0
  2 33  1  0
  4 34  1  0
  5 35  1  0
  6 36  1  0
  8 37  1  0
  9 38  1  0
 13 39  1  0
 14 40  1  0
 17 41  1  0
 22 42  1  0
 22 43  1  0
 23 44  1  0
 24 45  1  0
 24 46  1  0
 25 47  1  0
 25 48  1  0
 26 49  1  0
 26 50  1  0
 27 51  1  0
 27 52  1  0
 28 53  1  0
 28 54  1  0
 29 55  1  0
M  END
>  <smiles>  (29) 
NCc1cccc(/C=C/c2nc3ccc(F)cc3c(=O)n2CC2CCCCC2)c1

>  <score_type>  (29) 
oracle

>  <origin>  (29) 
autodockgpu

>  <m_score__min__energy>  (29) 
-8.4499999999999993

>  <m_primary>  (29) 
energy

>  <rmsd>  (29) 
5.344980390728744

>  <m_score__min__rmsd>  (29) 
5.344980390728744

>  <meeko>  (29) 
{"free_energy": -7.77, "intermolecular_energy": -9.86, "internal_energy": -1.17, "cluster_size": 2, "cluster_id": 5, "rank_in_cluster": 1}

>  <energy>  (29) 
-7.33

>  <cluster_rmsd>  (29) 
0.63

>  <cluster>  (29) 
5

$$$$

     RDKit          3D

 55 58  0  0  0  0  0  0  0  0999 V2000
  143.3690   79.6010  222.7230 N   0  0  0  0  0  0  0  0  0  0  0  0
  142.4080   79.9070  223.7790 C   0  0  0  0  0  0  0  0  0  0  0  0
  141.0290   79.4610  223.4190 C   0  0  0  0  0  0  0  0  0  0  0  0
  139.9270   80.1860  223.8110 C   0  0  0  0  0  0  0  0  0  0  0  0
  138.6910   79.7140  223.4400 C   0  0  0  0  0  0  0  0  0  0  0  0
  138.5590   78.5470  222.6960 C   0  0  0  0  0  0  0  0  0  0  0  0
  139.6500   77.8080  222.2950 C   0  0  0  0  0  0  0  0  0  0  0  0
  139.5610   76.5850  221.5200 C   0  0  0  0  0  0  0  0  0  0  0  0
  139.6200   75.3700  222.0380 C   0  0  0  0  0  0  0  0  0  0  0  0
  140.6680   74.4250  221.6020 C   0  0  0  0  0  0  0  0  0  0  0  0
  141.8240   74.9890  221.2060 N   0  0  0  0  0  0  0  0  0  0  0  0
  142.8860   74.2640  220.8070 C   0  0  0  0  0  0  0  0  0  0  0  0
  144.0770   74.8310  220.3990 C   0  0  0  0  0  0  0  0  0  0  0  0
  145.1300   74.0460  220.0030 C   0  0  0  0  0  0  0  0  0  0  0  0
  145.0010   72.6710  220.0100 C   0  0  0  0  0  0  0  0  0  0  0  0
  146.0350   71.8890  219.6190 F   0  0  0  0  0  0  0  0  0  0  0  0
  143.7920   72.1040  220.4240 C   0  0  0  0  0  0  0  0  0  0  0  0
  142.7300   72.8950  220.8250 C   0  0  0  0  0  0  0  0  0  0  0  0
  141.5200   72.3320  221.2390 C   0  0  0  0  0  0  0  0  0  0  0  0
  141.4850   71.0770  221.2190 O   0  0  0  0  0  0  0  0  0  0  0  0
  140.4730   73.0870  221.6320 N   0  0  0  0  0  0  0  0  0  0  0  0
  139.2270   72.5100  222.0650 C   0  0  0  0  0  0  0  0  0  0  0  0
  139.3480   71.4890  223.1750 C   0  0  0  0  0  0  0  0  0  0  0  0
  140.3550   71.7960  224.2160 C   0  0  0  0  0  0  0  0  0  0  0  0
  140.2610   70.8480  225.3630 C   0  0  0  0  0  0  0  0  0  0  0  0
  139.5940   69.5320  225.0420 C   0  0  0  0  0  0  0  0  0  0  0  0
  138.2230   69.7130  224.4630 C   0  0  0  0  0  0  0  0  0  0  0  0
  138.0590   71.0570  223.7780 C   0  0  0  0  0  0  0  0  0  0  0  0
  140.8920   78.3040  222.6810 C   0  0  0  0  0  0  0  0  0  0  0  0
  142.9710   79.7390  221.7640 H   0  0  0  0  0  0  0  0  0  0  0  0
  143.5920   78.5680  222.8150 H   0  0  0  0  0  0  0  0  0  0  0  0
  142.7182   79.3955  224.7021 H   0  0  0  0  0  0  0  0  0  0  0  0
  142.3893   80.9979  223.9192 H   0  0  0  0  0  0  0  0  0  0  0  0
  140.0317   81.1093  224.3996 H   0  0  0  0  0  0  0  0  0  0  0  0
  137.7894   80.2697  223.7371 H   0  0  0  0  0  0  0  0  0  0  0  0
  137.5516   78.2030  222.4189 H   0  0  0  0  0  0  0  0  0  0  0  0
  139.4364   76.6743  220.4307 H   0  0  0  0  0  0  0  0  0  0  0  0
  138.8856   75.0617  222.7967 H   0  0  0  0  0  0  0  0  0  0  0  0
  144.1828   75.9259  220.3914 H   0  0  0  0  0  0  0  0  0  0  0  0
  146.0739   74.5101  219.6810 H   0  0  0  0  0  0  0  0  0  0  0  0
  143.6831   71.0094  220.4311 H   0  0  0  0  0  0  0  0  0  0  0  0
  138.5784   73.3246  222.4196 H   0  0  0  0  0  0  0  0  0  0  0  0
  138.8178   71.9734  221.1963 H   0  0  0  0  0  0  0  0  0  0  0  0
  139.7392   70.6206  222.6247 H   0  0  0  0  0  0  0  0  0  0  0  0
  141.3597   71.7238  223.7739 H   0  0  0  0  0  0  0  0  0  0  0  0
  140.1647   72.8123  224.5915 H   0  0  0  0  0  0  0  0  0  0  0  0
  141.2807   70.6375  225.7178 H   0  0  0  0  0  0  0  0  0  0  0  0
  139.6314   71.3384  226.1201 H   0  0  0  0  0  0  0  0  0  0  0  0
  140.2157   68.9888  224.3151 H   0  0  0  0  0  0  0  0  0  0  0  0
  139.4898   68.9704  225.9821 H   0  0  0  0  0  0  0  0  0  0  0  0
  138.0423   68.9163  223.7263 H   0  0  0  0  0  0  0  0  0  0  0  0
  137.4999   69.6671  225.2906 H   0  0  0  0  0  0  0  0  0  0  0  0
  137.2991   70.9711  222.9873 H   0  0  0  0  0  0  0  0  0  0  0  0
  137.7445   71.8026  224.5231 H   0  0  0  0  0  0  0  0  0  0  0  0
  141.7974   77.7530  222.3866 H   0  0  0  0  0  0  0  0  0  0  0  0
  1  2  1  0
  2  3  1  0
  3  4  2  0
  4  5  1  0
  5  6  2  0
  6  7  1  0
  7  8  1  0
  8  9  2  0
  9 10  1  0
 10 11  2  0
 11 12  1  0
 12 13  2  0
 13 14  1  0
 14 15  2  0
 15 16  1  0
 15 17  1  0
 17 18  2  0
 18 19  1  0
 19 20  2  0
 19 21  1  0
 21 22  1  0
 22 23  1  0
 23 24  1  0
 24 25  1  0
 25 26  1  0
 26 27  1  0
 27 28  1  0
  7 29  2  0
 29  3  1  0
 21 10  1  0
 28 23  1  0
 18 12  1  0
  1 30  1  0
  1 31  1  0
  2 32  1  0
  2 33  1  0
  4 34  1  0
  5 35  1  0
  6 36  1  0
  8 37  1  0
  9 38  1  0
 13 39  1  0
 14 40  1  0
 17 41  1  0
 22 42  1  0
 22 43  1  0
 23 44  1  0
 24 45  1  0
 24 46  1  0
 25 47  1  0
 25 48  1  0
 26 49  1  0
 26 50  1  0
 27 51  1  0
 27 52  1  0
 28 53  1  0
 28 54  1  0
 29 55  1  0
M  END
>  <smiles>  (30) 
NCc1cccc(/C=C/c2nc3ccc(F)cc3c(=O)n2CC2CCCCC2)c1

>  <score_type>  (30) 
oracle

>  <origin>  (30) 
autodockgpu

>  <m_score__min__energy>  (30) 
-8.4499999999999993

>  <m_primary>  (30) 
energy

>  <rmsd>  (30) 
8.575162209415645

>  <m_score__min__rmsd>  (30) 
8.575162209415645

>  <meeko>  (30) 
{"free_energy": -7.89, "intermolecular_energy": -9.97, "internal_energy": -1.2, "cluster_size": 5, "cluster_id": 4, "rank_in_cluster": 2}

>  <energy>  (30) 
-7.45

>  <cluster_rmsd>  (30) 
0.0

>  <cluster>  (30) 
6

$$$$

     RDKit          3D

 55 58  0  0  0  0  0  0  0  0999 V2000
  142.3720   77.6570  219.6470 N   0  0  0  0  0  0  0  0  0  0  0  0
  142.1590   78.7960  218.7590 C   0  0  0  0  0  0  0  0  0  0  0  0
  141.9010   80.0530  219.5230 C   0  0  0  0  0  0  0  0  0  0  0  0
  141.5660   81.2200  218.8730 C   0  0  0  0  0  0  0  0  0  0  0  0
  141.3440   82.3340  219.6430 C   0  0  0  0  0  0  0  0  0  0  0  0
  141.4520   82.2870  221.0280 C   0  0  0  0  0  0  0  0  0  0  0  0
  141.7860   81.1300  221.6970 C   0  0  0  0  0  0  0  0  0  0  0  0
  141.9110   81.0320  223.1390 C   0  0  0  0  0  0  0  0  0  0  0  0
  141.7170   79.9200  223.8280 C   0  0  0  0  0  0  0  0  0  0  0  0
  140.8040   78.8780  223.3140 C   0  0  0  0  0  0  0  0  0  0  0  0
  141.4040   77.8030  222.7710 N   0  0  0  0  0  0  0  0  0  0  0  0
  140.7130   76.7550  222.2840 C   0  0  0  0  0  0  0  0  0  0  0  0
  141.3170   75.6470  221.7250 C   0  0  0  0  0  0  0  0  0  0  0  0
  140.5650   74.6040  221.2440 C   0  0  0  0  0  0  0  0  0  0  0  0
  139.1870   74.6600  221.3190 C   0  0  0  0  0  0  0  0  0  0  0  0
  138.4390   73.6350  220.8470 F   0  0  0  0  0  0  0  0  0  0  0  0
  138.5830   75.7850  221.8880 C   0  0  0  0  0  0  0  0  0  0  0  0
  139.3400   76.8360  222.3730 C   0  0  0  0  0  0  0  0  0  0  0  0
  138.7390   77.9630  222.9400 C   0  0  0  0  0  0  0  0  0  0  0  0
  137.4840   77.9350  222.9730 O   0  0  0  0  0  0  0  0  0  0  0  0
  139.4610   78.9990  223.4180 N   0  0  0  0  0  0  0  0  0  0  0  0
  138.8450   80.1590  224.0090 C   0  0  0  0  0  0  0  0  0  0  0  0
  138.4770   81.2530  223.0320 C   0  0  0  0  0  0  0  0  0  0  0  0
  138.4530   80.8530  221.6070 C   0  0  0  0  0  0  0  0  0  0  0  0
  137.8870   81.9320  220.7460 C   0  0  0  0  0  0  0  0  0  0  0  0
  137.9500   83.3170  221.3450 C   0  0  0  0  0  0  0  0  0  0  0  0
  137.2890   83.3870  222.6900 C   0  0  0  0  0  0  0  0  0  0  0  0
  137.2700   82.0430  223.3940 C   0  0  0  0  0  0  0  0  0  0  0  0
  142.0080   80.0120  220.8970 C   0  0  0  0  0  0  0  0  0  0  0  0
  142.0220   77.8340  220.6190 H   0  0  0  0  0  0  0  0  0  0  0  0
  143.4230   77.5290  219.7200 H   0  0  0  0  0  0  0  0  0  0  0  0
  143.0553   78.9350  218.1366 H   0  0  0  0  0  0  0  0  0  0  0  0
  141.2758   78.5855  218.1380 H   0  0  0  0  0  0  0  0  0  0  0  0
  141.4796   81.2578  217.7771 H   0  0  0  0  0  0  0  0  0  0  0  0
  141.0754   83.2824  219.1548 H   0  0  0  0  0  0  0  0  0  0  0  0
  141.2649   83.2026  221.6082 H   0  0  0  0  0  0  0  0  0  0  0  0
  142.1847   81.9409  223.6949 H   0  0  0  0  0  0  0  0  0  0  0  0
  142.2365   79.7704  224.7860 H   0  0  0  0  0  0  0  0  0  0  0  0
  142.4143   75.5991  221.6642 H   0  0  0  0  0  0  0  0  0  0  0  0
  141.0583   73.7266  220.8003 H   0  0  0  0  0  0  0  0  0  0  0  0
  137.4860   75.8353  221.9511 H   0  0  0  0  0  0  0  0  0  0  0  0
  137.9267   79.8348  224.5205 H   0  0  0  0  0  0  0  0  0  0  0  0
  139.5931   80.5922  224.6892 H   0  0  0  0  0  0  0  0  0  0  0  0
  139.3354   81.9323  223.1395 H   0  0  0  0  0  0  0  0  0  0  0  0
  139.4804   80.6361  221.2792 H   0  0  0  0  0  0  0  0  0  0  0  0
  137.8146   79.9626  221.5090 H   0  0  0  0  0  0  0  0  0  0  0  0
  138.4460   81.9428  219.7987 H   0  0  0  0  0  0  0  0  0  0  0  0
  136.8199   81.6981  220.6168 H   0  0  0  0  0  0  0  0  0  0  0  0
  139.0053   83.6074  221.4541 H   0  0  0  0  0  0  0  0  0  0  0  0
  137.4127   83.9998  220.6704 H   0  0  0  0  0  0  0  0  0  0  0  0
  137.8370   84.1064  223.3162 H   0  0  0  0  0  0  0  0  0  0  0  0
  136.2459   83.7005  222.5360 H   0  0  0  0  0  0  0  0  0  0  0  0
  137.2544   82.2036  224.4821 H   0  0  0  0  0  0  0  0  0  0  0  0
  136.3728   81.4884  223.0818 H   0  0  0  0  0  0  0  0  0  0  0  0
  142.2787   79.0610  221.3791 H   0  0  0  0  0  0  0  0  0  0  0  0
  1  2  1  0
  2  3  1  0
  3  4  2  0
  4  5  1  0
  5  6  2  0
  6  7  1  0
  7  8  1  0
  8  9  2  0
  9 10  1  0
 10 11  2  0
 11 12  1  0
 12 13  2  0
 13 14  1  0
 14 15  2  0
 15 16  1  0
 15 17  1  0
 17 18  2  0
 18 19  1  0
 19 20  2  0
 19 21  1  0
 21 22  1  0
 22 23  1  0
 23 24  1  0
 24 25  1  0
 25 26  1  0
 26 27  1  0
 27 28  1  0
  7 29  2  0
 29  3  1  0
 21 10  1  0
 28 23  1  0
 18 12  1  0
  1 30  1  0
  1 31  1  0
  2 32  1  0
  2 33  1  0
  4 34  1  0
  5 35  1  0
  6 36  1  0
  8 37  1  0
  9 38  1  0
 13 39  1  0
 14 40  1  0
 17 41  1  0
 22 42  1  0
 22 43  1  0
 23 44  1  0
 24 45  1  0
 24 46  1  0
 25 47  1  0
 25 48  1  0
 26 49  1  0
 26 50  1  0
 27 51  1  0
 27 52  1  0
 28 53  1  0
 28 54  1  0
 29 55  1  0
M  END
>  <smiles>  (31) 
NCc1cccc(/C=C/c2nc3ccc(F)cc3c(=O)n2CC2CCCCC2)c1

>  <score_type>  (31) 
oracle

>  <origin>  (31) 
autodockgpu

>  <m_score__min__energy>  (31) 
-8.4499999999999993

>  <m_primary>  (31) 
energy

>  <rmsd>  (31) 
6.703689020448535

>  <m_score__min__rmsd>  (31) 
6.703689020448535

>  <meeko>  (31) 
{"free_energy": -6.05, "intermolecular_energy": -8.13, "internal_energy": -2.94, "cluster_size": 6, "cluster_id": 12, "rank_in_cluster": 4}

>  <energy>  (31) 
-7.39

>  <cluster_rmsd>  (31) 
0.0

>  <cluster>  (31) 
7

$$$$

     RDKit          3D

 55 58  0  0  0  0  0  0  0  0999 V2000
  143.3640   80.6240  217.8800 N   0  0  0  0  0  0  0  0  0  0  0  0
  141.9610   80.8220  218.2310 C   0  0  0  0  0  0  0  0  0  0  0  0
  141.8020   81.2770  219.6440 C   0  0  0  0  0  0  0  0  0  0  0  0
  141.3440   82.5420  219.9330 C   0  0  0  0  0  0  0  0  0  0  0  0
  141.2240   82.8880  221.2570 C   0  0  0  0  0  0  0  0  0  0  0  0
  141.5530   81.9930  222.2680 C   0  0  0  0  0  0  0  0  0  0  0  0
  142.0140   80.7230  222.0000 C   0  0  0  0  0  0  0  0  0  0  0  0
  142.3700   79.7560  223.0200 C   0  0  0  0  0  0  0  0  0  0  0  0
  141.6690   78.6680  223.2900 C   0  0  0  0  0  0  0  0  0  0  0  0
  140.1930   78.6970  223.2170 C   0  0  0  0  0  0  0  0  0  0  0  0
  139.6180   79.8360  223.6450 N   0  0  0  0  0  0  0  0  0  0  0  0
  138.2850   80.0310  223.6160 C   0  0  0  0  0  0  0  0  0  0  0  0
  137.6840   81.1940  224.0520 C   0  0  0  0  0  0  0  0  0  0  0  0
  136.3210   81.3430  224.0000 C   0  0  0  0  0  0  0  0  0  0  0  0
  135.5380   80.3170  223.5070 C   0  0  0  0  0  0  0  0  0  0  0  0
  134.1910   80.4560  223.4530 F   0  0  0  0  0  0  0  0  0  0  0  0
  136.1550   79.1430  223.0680 C   0  0  0  0  0  0  0  0  0  0  0  0
  137.5280   78.9930  223.1190 C   0  0  0  0  0  0  0  0  0  0  0  0
  138.1480   77.8190  222.6810 C   0  0  0  0  0  0  0  0  0  0  0  0
  137.3670   76.9380  222.2450 O   0  0  0  0  0  0  0  0  0  0  0  0
  139.4870   77.6540  222.7240 N   0  0  0  0  0  0  0  0  0  0  0  0
  140.1300   76.4490  222.2680 C   0  0  0  0  0  0  0  0  0  0  0  0
  141.0420   76.6240  221.0750 C   0  0  0  0  0  0  0  0  0  0  0  0
  141.9870   75.5130  220.8260 C   0  0  0  0  0  0  0  0  0  0  0  0
  142.6970   75.6790  219.5250 C   0  0  0  0  0  0  0  0  0  0  0  0
  142.7350   77.0950  219.0030 C   0  0  0  0  0  0  0  0  0  0  0  0
  141.3650   77.6940  218.8770 C   0  0  0  0  0  0  0  0  0  0  0  0
  140.3660   77.0520  219.8210 C   0  0  0  0  0  0  0  0  0  0  0  0
  142.1280   80.3930  220.6520 C   0  0  0  0  0  0  0  0  0  0  0  0
  143.6800   81.2570  217.1080 H   0  0  0  0  0  0  0  0  0  0  0  0
  143.4400   79.6320  217.5110 H   0  0  0  0  0  0  0  0  0  0  0  0
  141.5303   81.5814  217.5618 H   0  0  0  0  0  0  0  0  0  0  0  0
  141.4418   79.8584  218.1216 H   0  0  0  0  0  0  0  0  0  0  0  0
  141.0834   83.2505  219.1329 H   0  0  0  0  0  0  0  0  0  0  0  0
  140.8608   83.8920  221.5219 H   0  0  0  0  0  0  0  0  0  0  0  0
  141.4417   82.3089  223.3158 H   0  0  0  0  0  0  0  0  0  0  0  0
  143.2820   79.9394  223.6070 H   0  0  0  0  0  0  0  0  0  0  0  0
  142.1859   77.7382  223.5698 H   0  0  0  0  0  0  0  0  0  0  0  0
  138.3052   82.0118  224.4461 H   0  0  0  0  0  0  0  0  0  0  0  0
  135.8536   82.2755  224.3494 H   0  0  0  0  0  0  0  0  0  0  0  0
  135.5366   78.3228  222.6744 H   0  0  0  0  0  0  0  0  0  0  0  0
  140.7281   76.0460  223.0986 H   0  0  0  0  0  0  0  0  0  0  0  0
  139.3242   75.7745  221.9428 H   0  0  0  0  0  0  0  0  0  0  0  0
  141.6579   77.4749  221.4016 H   0  0  0  0  0  0  0  0  0  0  0  0
  142.7294   75.4869  221.6373 H   0  0  0  0  0  0  0  0  0  0  0  0
  141.4138   74.5749  220.7885 H   0  0  0  0  0  0  0  0  0  0  0  0
  143.7333   75.3334  219.6537 H   0  0  0  0  0  0  0  0  0  0  0  0
  142.1331   75.0907  218.7862 H   0  0  0  0  0  0  0  0  0  0  0  0
  143.3278   77.7111  219.6951 H   0  0  0  0  0  0  0  0  0  0  0  0
  143.1847   77.0710  217.9994 H   0  0  0  0  0  0  0  0  0  0  0  0
  141.4266   78.7684  219.1046 H   0  0  0  0  0  0  0  0  0  0  0  0
  141.0154   77.5202  217.8486 H   0  0  0  0  0  0  0  0  0  0  0  0
  139.5772   77.7792  220.0640 H   0  0  0  0  0  0  0  0  0  0  0  0
  139.9274   76.1697  219.3319 H   0  0  0  0  0  0  0  0  0  0  0  0
  142.4913   79.3908  220.3808 H   0  0  0  0  0  0  0  0  0  0  0  0
  1  2  1  0
  2  3  1  0
  3  4  2  0
  4  5  1  0
  5  6  2  0
  6  7  1  0
  7  8  1  0
  8  9  2  0
  9 10  1  0
 10 11  2  0
 11 12  1  0
 12 13  2  0
 13 14  1  0
 14 15  2  0
 15 16  1  0
 15 17  1  0
 17 18  2  0
 18 19  1  0
 19 20  2  0
 19 21  1  0
 21 22  1  0
 22 23  1  0
 23 24  1  0
 24 25  1  0
 25 26  1  0
 26 27  1  0
 27 28  1  0
  7 29  2  0
 29  3  1  0
 21 10  1  0
 28 23  1  0
 18 12  1  0
  1 30  1  0
  1 31  1  0
  2 32  1  0
  2 33  1  0
  4 34  1  0
  5 35  1  0
  6 36  1  0
  8 37  1  0
  9 38  1  0
 13 39  1  0
 14 40  1  0
 17 41  1  0
 22 42  1  0
 22 43  1  0
 23 44  1  0
 24 45  1  0
 24 46  1  0
 25 47  1  0
 25 48  1  0
 26 49  1  0
 26 50  1  0
 27 51  1  0
 27 52  1  0
 28 53  1  0
 28 54  1  0
 29 55  1  0
M  END
>  <smiles>  (32) 
NCc1cccc(/C=C/c2nc3ccc(F)cc3c(=O)n2CC2CCCCC2)c1

>  <score_type>  (32) 
oracle

>  <origin>  (32) 
autodockgpu

>  <m_score__min__energy>  (32) 
-8.4499999999999993

>  <m_primary>  (32) 
energy

>  <rmsd>  (32) 
4.118157366496903

>  <m_score__min__rmsd>  (32) 
4.118157366496903

>  <meeko>  (32) 
{"free_energy": -6.59, "intermolecular_energy": -8.67, "internal_energy": -2.22, "cluster_size": 8, "cluster_id": 10, "rank_in_cluster": 5}

>  <energy>  (32) 
-7.29

>  <cluster_rmsd>  (32) 
1.64

>  <cluster>  (32) 
7

$$$$

     RDKit          3D

 55 58  0  0  0  0  0  0  0  0999 V2000
  143.7050   80.1500  222.7470 N   0  0  0  0  0  0  0  0  0  0  0  0
  142.5970   80.4220  223.6570 C   0  0  0  0  0  0  0  0  0  0  0  0
  141.3900   79.6110  223.3160 C   0  0  0  0  0  0  0  0  0  0  0  0
  140.1440   79.9650  223.7840 C   0  0  0  0  0  0  0  0  0  0  0  0
  139.0820   79.1710  223.4280 C   0  0  0  0  0  0  0  0  0  0  0  0
  139.2570   78.0520  222.6230 C   0  0  0  0  0  0  0  0  0  0  0  0
  140.4960   77.6800  222.1450 C   0  0  0  0  0  0  0  0  0  0  0  0
  140.7280   76.5220  221.3040 C   0  0  0  0  0  0  0  0  0  0  0  0
  140.4840   75.2760  221.6720 C   0  0  0  0  0  0  0  0  0  0  0  0
  141.3690   74.1800  221.2230 C   0  0  0  0  0  0  0  0  0  0  0  0
  142.6180   74.5510  220.8880 N   0  0  0  0  0  0  0  0  0  0  0  0
  143.5530   73.6680  220.4860 C   0  0  0  0  0  0  0  0  0  0  0  0
  144.8380   74.0350  220.1400 C   0  0  0  0  0  0  0  0  0  0  0  0
  145.7530   73.0960  219.7370 C   0  0  0  0  0  0  0  0  0  0  0  0
  145.3880   71.7650  219.6770 C   0  0  0  0  0  0  0  0  0  0  0  0
  146.2860   70.8310  219.2800 F   0  0  0  0  0  0  0  0  0  0  0  0
  144.0850   71.4010  220.0290 C   0  0  0  0  0  0  0  0  0  0  0  0
  143.1620   72.3480  220.4350 C   0  0  0  0  0  0  0  0  0  0  0  0
  141.8590   71.9880  220.7870 C   0  0  0  0  0  0  0  0  0  0  0  0
  141.6080   70.7600  220.7070 O   0  0  0  0  0  0  0  0  0  0  0  0
  140.9440   72.8970  221.1850 N   0  0  0  0  0  0  0  0  0  0  0  0
  139.6020   72.5290  221.5540 C   0  0  0  0  0  0  0  0  0  0  0  0
  139.4960   71.6550  222.7840 C   0  0  0  0  0  0  0  0  0  0  0  0
  139.0770   70.2560  222.5380 C   0  0  0  0  0  0  0  0  0  0  0  0
  139.1970   69.4250  223.7700 C   0  0  0  0  0  0  0  0  0  0  0  0
  139.1940   70.2070  225.0620 C   0  0  0  0  0  0  0  0  0  0  0  0
  140.2600   71.2600  225.0940 C   0  0  0  0  0  0  0  0  0  0  0  0
  140.6620   71.7170  223.7050 C   0  0  0  0  0  0  0  0  0  0  0  0
  141.5580   78.4990  222.5180 C   0  0  0  0  0  0  0  0  0  0  0  0
  143.4520   80.3120  221.7440 H   0  0  0  0  0  0  0  0  0  0  0  0
  143.9230   79.1160  222.8450 H   0  0  0  0  0  0  0  0  0  0  0  0
  142.9108   80.1799  224.6831 H   0  0  0  0  0  0  0  0  0  0  0  0
  142.3321   81.4858  223.5663 H   0  0  0  0  0  0  0  0  0  0  0  0
  140.0048   80.8517  224.4199 H   0  0  0  0  0  0  0  0  0  0  0  0
  138.0738   79.4254  223.7867 H   0  0  0  0  0  0  0  0  0  0  0  0
  138.3795   77.4436  222.3586 H   0  0  0  0  0  0  0  0  0  0  0  0
  141.1329   76.6911  220.2953 H   0  0  0  0  0  0  0  0  0  0  0  0
  139.6193   75.0538  222.3146 H   0  0  0  0  0  0  0  0  0  0  0  0
  145.1319   75.0939  220.1881 H   0  0  0  0  0  0  0  0  0  0  0  0
  146.7735   73.4016  219.4627 H   0  0  0  0  0  0  0  0  0  0  0  0
  143.7884   70.3428  219.9823 H   0  0  0  0  0  0  0  0  0  0  0  0
  139.0338   73.4522  221.7409 H   0  0  0  0  0  0  0  0  0  0  0  0
  139.2046   71.9344  220.7182 H   0  0  0  0  0  0  0  0  0  0  0  0
  138.6575   72.1323  223.3124 H   0  0  0  0  0  0  0  0  0  0  0  0
  138.0290   70.2503  222.2037 H   0  0  0  0  0  0  0  0  0  0  0  0
  139.7361   69.8287  221.7679 H   0  0  0  0  0  0  0  0  0  0  0  0
  138.3510   68.7223  223.7930 H   0  0  0  0  0  0  0  0  0  0  0  0
  140.1746   68.9241  223.7126 H   0  0  0  0  0  0  0  0  0  0  0  0
  138.2139   70.6926  225.1789 H   0  0  0  0  0  0  0  0  0  0  0  0
  139.3942   69.5016  225.8819 H   0  0  0  0  0  0  0  0  0  0  0  0
  139.8833   72.1272  225.6561 H   0  0  0  0  0  0  0  0  0  0  0  0
  141.1484   70.8239  225.5741 H   0  0  0  0  0  0  0  0  0  0  0  0
  141.0297   72.7525  223.7559 H   0  0  0  0  0  0  0  0  0  0  0  0
  141.4537   71.0544  223.3253 H   0  0  0  0  0  0  0  0  0  0  0  0
  142.5689   78.2499  222.1630 H   0  0  0  0  0  0  0  0  0  0  0  0
  1  2  1  0
  2  3  1  0
  3  4  2  0
  4  5  1  0
  5  6  2  0
  6  7  1  0
  7  8  1  0
  8  9  2  0
  9 10  1  0
 10 11  2  0
 11 12  1  0
 12 13  2  0
 13 14  1  0
 14 15  2  0
 15 16  1  0
 15 17  1  0
 17 18  2  0
 18 19  1  0
 19 20  2  0
 19 21  1  0
 21 22  1  0
 22 23  1  0
 23 24  1  0
 24 25  1  0
 25 26  1  0
 26 27  1  0
 27 28  1  0
  7 29  2  0
 29  3  1  0
 21 10  1  0
 28 23  1  0
 18 12  1  0
  1 30  1  0
  1 31  1  0
  2 32  1  0
  2 33  1  0
  4 34  1  0
  5 35  1  0
  6 36  1  0
  8 37  1  0
  9 38  1  0
 13 39  1  0
 14 40  1  0
 17 41  1  0
 22 42  1  0
 22 43  1  0
 23 44  1  0
 24 45  1  0
 24 46  1  0
 25 47  1  0
 25 48  1  0
 26 49  1  0
 26 50  1  0
 27 51  1  0
 27 52  1  0
 28 53  1  0
 28 54  1  0
 29 55  1  0
M  END
>  <smiles>  (33) 
NCc1cccc(/C=C/c2nc3ccc(F)cc3c(=O)n2CC2CCCCC2)c1

>  <score_type>  (33) 
oracle

>  <origin>  (33) 
autodockgpu

>  <m_score__min__energy>  (33) 
-8.4499999999999993

>  <m_primary>  (33) 
energy

>  <rmsd>  (33) 
8.962557222927389

>  <m_score__min__rmsd>  (33) 
8.962557222927389

>  <meeko>  (33) 
{"free_energy": -7.73, "intermolecular_energy": -9.82, "internal_energy": -1.19, "cluster_size": 5, "cluster_id": 4, "rank_in_cluster": 4}

>  <energy>  (33) 
-7.27

>  <cluster_rmsd>  (33) 
0.0

>  <cluster>  (33) 
8

$$$$

     RDKit          3D

 55 58  0  0  0  0  0  0  0  0999 V2000
  146.1410   73.3930  218.9540 N   0  0  0  0  0  0  0  0  0  0  0  0
  145.5830   72.6700  220.0930 C   0  0  0  0  0  0  0  0  0  0  0  0
  144.1340   72.3640  219.8980 C   0  0  0  0  0  0  0  0  0  0  0  0
  143.6910   71.7340  218.7560 C   0  0  0  0  0  0  0  0  0  0  0  0
  142.3450   71.4860  218.6490 C   0  0  0  0  0  0  0  0  0  0  0  0
  141.4610   71.8560  219.6570 C   0  0  0  0  0  0  0  0  0  0  0  0
  141.8850   72.4870  220.8060 C   0  0  0  0  0  0  0  0  0  0  0  0
  141.0010   72.8920  221.8830 C   0  0  0  0  0  0  0  0  0  0  0  0
  139.8570   72.2950  222.1690 C   0  0  0  0  0  0  0  0  0  0  0  0
  139.7580   71.4000  223.3410 C   0  0  0  0  0  0  0  0  0  0  0  0
  140.4360   71.8030  224.4310 N   0  0  0  0  0  0  0  0  0  0  0  0
  140.4240   71.1140  225.5890 C   0  0  0  0  0  0  0  0  0  0  0  0
  141.1150   71.5160  226.7140 C   0  0  0  0  0  0  0  0  0  0  0  0
  141.0680   70.7780  227.8690 C   0  0  0  0  0  0  0  0  0  0  0  0
  140.3230   69.6160  227.9100 C   0  0  0  0  0  0  0  0  0  0  0  0
  140.2720   68.8800  229.0470 F   0  0  0  0  0  0  0  0  0  0  0  0
  139.6260   69.2150  226.7670 C   0  0  0  0  0  0  0  0  0  0  0  0
  139.6720   69.9590  225.6020 C   0  0  0  0  0  0  0  0  0  0  0  0
  138.9780   69.5610  224.4570 C   0  0  0  0  0  0  0  0  0  0  0  0
  138.3230   68.4960  224.5780 O   0  0  0  0  0  0  0  0  0  0  0  0
  139.0110   70.2740  223.3110 N   0  0  0  0  0  0  0  0  0  0  0  0
  138.2920   69.8690  222.1310 C   0  0  0  0  0  0  0  0  0  0  0  0
  138.9680   68.7930  221.3100 C   0  0  0  0  0  0  0  0  0  0  0  0
  140.2840   69.1580  220.7400 C   0  0  0  0  0  0  0  0  0  0  0  0
  140.9600   67.9790  220.1250 C   0  0  0  0  0  0  0  0  0  0  0  0
  140.0330   66.8520  219.7360 C   0  0  0  0  0  0  0  0  0  0  0  0
  139.2000   66.3750  220.8880 C   0  0  0  0  0  0  0  0  0  0  0  0
  139.0060   67.4470  221.9430 C   0  0  0  0  0  0  0  0  0  0  0  0
  143.2530   72.7290  220.8940 C   0  0  0  0  0  0  0  0  0  0  0  0
  146.9290   74.0270  219.2260 H   0  0  0  0  0  0  0  0  0  0  0  0
  145.3630   74.0140  218.5860 H   0  0  0  0  0  0  0  0  0  0  0  0
  146.1327   71.7257  220.2196 H   0  0  0  0  0  0  0  0  0  0  0  0
  145.6817   73.3067  220.9846 H   0  0  0  0  0  0  0  0  0  0  0  0
  144.3900   71.4404  217.9590 H   0  0  0  0  0  0  0  0  0  0  0  0
  141.9584   70.9852  217.7491 H   0  0  0  0  0  0  0  0  0  0  0  0
  140.3900   71.6380  219.5330 H   0  0  0  0  0  0  0  0  0  0  0  0
  141.3022   73.7507  222.5009 H   0  0  0  0  0  0  0  0  0  0  0  0
  138.9759   72.4648  221.5328 H   0  0  0  0  0  0  0  0  0  0  0  0
  141.7110   72.4400  226.6839 H   0  0  0  0  0  0  0  0  0  0  0  0
  141.6217   71.1105  228.7595 H   0  0  0  0  0  0  0  0  0  0  0  0
  139.0300   68.2909  226.7944 H   0  0  0  0  0  0  0  0  0  0  0  0
  137.3072   69.4918  222.4438 H   0  0  0  0  0  0  0  0  0  0  0  0
  138.2335   70.7579  221.4856 H   0  0  0  0  0  0  0  0  0  0  0  0
  138.2811   68.7148  220.4544 H   0  0  0  0  0  0  0  0  0  0  0  0
  140.1380   69.9287  219.9688 H   0  0  0  0  0  0  0  0  0  0  0  0
  140.9203   69.5343  221.5546 H   0  0  0  0  0  0  0  0  0  0  0  0
  141.4851   68.3186  219.2200 H   0  0  0  0  0  0  0  0  0  0  0  0
  141.6368   67.5740  220.8918 H   0  0  0  0  0  0  0  0  0  0  0  0
  139.3634   67.2047  218.9377 H   0  0  0  0  0  0  0  0  0  0  0  0
  140.6530   66.0086  219.3979 H   0  0  0  0  0  0  0  0  0  0  0  0
  138.2136   66.0700  220.5085 H   0  0  0  0  0  0  0  0  0  0  0  0
  139.7285   65.5327  221.3584 H   0  0  0  0  0  0  0  0  0  0  0  0
  138.0585   67.2680  222.4724 H   0  0  0  0  0  0  0  0  0  0  0  0
  139.8465   67.4082  222.6516 H   0  0  0  0  0  0  0  0  0  0  0  0
  143.6457   73.2299  221.7912 H   0  0  0  0  0  0  0  0  0  0  0  0
  1  2  1  0
  2  3  1  0
  3  4  2  0
  4  5  1  0
  5  6  2  0
  6  7  1  0
  7  8  1  0
  8  9  2  0
  9 10  1  0
 10 11  2  0
 11 12  1  0
 12 13  2  0
 13 14  1  0
 14 15  2  0
 15 16  1  0
 15 17  1  0
 17 18  2  0
 18 19  1  0
 19 20  2  0
 19 21  1  0
 21 22  1  0
 22 23  1  0
 23 24  1  0
 24 25  1  0
 25 26  1  0
 26 27  1  0
 27 28  1  0
  7 29  2  0
 29  3  1  0
 21 10  1  0
 28 23  1  0
 18 12  1  0
  1 30  1  0
  1 31  1  0
  2 32  1  0
  2 33  1  0
  4 34  1  0
  5 35  1  0
  6 36  1  0
  8 37  1  0
  9 38  1  0
 13 39  1  0
 14 40  1  0
 17 41  1  0
 22 42  1  0
 22 43  1  0
 23 44  1  0
 24 45  1  0
 24 46  1  0
 25 47  1  0
 25 48  1  0
 26 49  1  0
 26 50  1  0
 27 51  1  0
 27 52  1  0
 28 53  1  0
 28 54  1  0
 29 55  1  0
M  END
>  <smiles>  (34) 
NCc1cccc(/C=C/c2nc3ccc(F)cc3c(=O)n2CC2CCCCC2)c1

>  <score_type>  (34) 
oracle

>  <origin>  (34) 
autodockgpu

>  <m_score__min__energy>  (34) 
-8.4499999999999993

>  <m_primary>  (34) 
energy

>  <rmsd>  (34) 
10.42907572163961

>  <m_score__min__rmsd>  (34) 
10.42907572163961

>  <meeko>  (34) 
{"free_energy": -7.3, "intermolecular_energy": -9.39, "internal_energy": -1.66, "cluster_size": 14, "cluster_id": 2, "rank_in_cluster": 11}

>  <energy>  (34) 
-7.1

>  <cluster_rmsd>  (34) 
0.4

>  <cluster>  (34) 
8

$$$$

     RDKit          3D

 55 58  0  0  0  0  0  0  0  0999 V2000
  146.3050   73.3680  219.1100 N   0  0  0  0  0  0  0  0  0  0  0  0
  145.5020   72.5800  220.0400 C   0  0  0  0  0  0  0  0  0  0  0  0
  144.1770   73.2180  220.3040 C   0  0  0  0  0  0  0  0  0  0  0  0
  143.9670   74.5510  220.0330 C   0  0  0  0  0  0  0  0  0  0  0  0
  142.7220   75.0650  220.3010 C   0  0  0  0  0  0  0  0  0  0  0  0
  141.7110   74.2690  220.8280 C   0  0  0  0  0  0  0  0  0  0  0  0
  141.9020   72.9330  221.1060 C   0  0  0  0  0  0  0  0  0  0  0  0
  140.8790   72.0640  221.6560 C   0  0  0  0  0  0  0  0  0  0  0  0
  140.3220   72.2300  222.8430 C   0  0  0  0  0  0  0  0  0  0  0  0
  139.0730   71.5190  223.1850 C   0  0  0  0  0  0  0  0  0  0  0  0
  137.9500   72.0430  222.6610 N   0  0  0  0  0  0  0  0  0  0  0  0
  136.7350   71.4960  222.8550 C   0  0  0  0  0  0  0  0  0  0  0  0
  135.5760   72.0240  222.3210 C   0  0  0  0  0  0  0  0  0  0  0  0
  134.3620   71.4260  222.5490 C   0  0  0  0  0  0  0  0  0  0  0  0
  134.2940   70.2820  223.3200 C   0  0  0  0  0  0  0  0  0  0  0  0
  133.1000   69.6870  223.5500 F   0  0  0  0  0  0  0  0  0  0  0  0
  135.4720   69.7540  223.8560 C   0  0  0  0  0  0  0  0  0  0  0  0
  136.6960   70.3550  223.6270 C   0  0  0  0  0  0  0  0  0  0  0  0
  137.8760   69.8310  224.1620 C   0  0  0  0  0  0  0  0  0  0  0  0
  137.7290   68.7890  224.8490 O   0  0  0  0  0  0  0  0  0  0  0  0
  139.0790   70.4040  223.9500 N   0  0  0  0  0  0  0  0  0  0  0  0
  140.2970   69.8620  224.4950 C   0  0  0  0  0  0  0  0  0  0  0  0
  140.6470   70.3510  225.8830 C   0  0  0  0  0  0  0  0  0  0  0  0
  140.9720   71.7920  225.9880 C   0  0  0  0  0  0  0  0  0  0  0  0
  141.1030   72.2200  227.4110 C   0  0  0  0  0  0  0  0  0  0  0  0
  141.4030   71.1030  228.3820 C   0  0  0  0  0  0  0  0  0  0  0  0
  140.3920   69.9980  228.3100 C   0  0  0  0  0  0  0  0  0  0  0  0
  139.7090   69.9280  226.9570 C   0  0  0  0  0  0  0  0  0  0  0  0
  143.1710   72.4320  220.8270 C   0  0  0  0  0  0  0  0  0  0  0  0
  146.8190   74.1490  219.5830 H   0  0  0  0  0  0  0  0  0  0  0  0
  145.6220   73.8180  218.4340 H   0  0  0  0  0  0  0  0  0  0  0  0
  145.3373   71.5808  219.6106 H   0  0  0  0  0  0  0  0  0  0  0  0
  146.0470   72.5145  220.9932 H   0  0  0  0  0  0  0  0  0  0  0  0
  144.7668   75.1813  219.6171 H   0  0  0  0  0  0  0  0  0  0  0  0
  142.5207   76.1266  220.0948 H   0  0  0  0  0  0  0  0  0  0  0  0
  140.7281   74.7199  221.0293 H   0  0  0  0  0  0  0  0  0  0  0  0
  140.5453   71.2118  221.0457 H   0  0  0  0  0  0  0  0  0  0  0  0
  140.7902   72.9001  223.5791 H   0  0  0  0  0  0  0  0  0  0  0  0
  135.6265   72.9345  221.7058 H   0  0  0  0  0  0  0  0  0  0  0  0
  133.4457   71.8565  222.1189 H   0  0  0  0  0  0  0  0  0  0  0  0
  135.4244   68.8435  224.4714 H   0  0  0  0  0  0  0  0  0  0  0  0
  140.1965   68.7673  224.5337 H   0  0  0  0  0  0  0  0  0  0  0  0
  141.1084   70.2019  223.8346 H   0  0  0  0  0  0  0  0  0  0  0  0
  141.5899   69.8148  226.0658 H   0  0  0  0  0  0  0  0  0  0  0  0
  141.9225   71.9830  225.4683 H   0  0  0  0  0  0  0  0  0  0  0  0
  140.1530   72.3651  225.5290 H   0  0  0  0  0  0  0  0  0  0  0  0
  141.9179   72.9562  227.4735 H   0  0  0  0  0  0  0  0  0  0  0  0
  140.1250   72.6303  227.7028 H   0  0  0  0  0  0  0  0  0  0  0  0
  142.3956   70.6897  228.1497 H   0  0  0  0  0  0  0  0  0  0  0  0
  141.3698   71.5231  229.3981 H   0  0  0  0  0  0  0  0  0  0  0  0
  140.9002   69.0410  228.4994 H   0  0  0  0  0  0  0  0  0  0  0  0
  139.6192   70.1998  229.0664 H   0  0  0  0  0  0  0  0  0  0  0  0
  139.3832   68.8945  226.7680 H   0  0  0  0  0  0  0  0  0  0  0  0
  138.8401   70.6025  226.9594 H   0  0  0  0  0  0  0  0  0  0  0  0
  143.3788   71.3712  221.0310 H   0  0  0  0  0  0  0  0  0  0  0  0
  1  2  1  0
  2  3  1  0
  3  4  2  0
  4  5  1  0
  5  6  2  0
  6  7  1  0
  7  8  1  0
  8  9  2  0
  9 10  1  0
 10 11  2  0
 11 12  1  0
 12 13  2  0
 13 14  1  0
 14 15  2  0
 15 16  1  0
 15 17  1  0
 17 18  2  0
 18 19  1  0
 19 20  2  0
 19 21  1  0
 21 22  1  0
 22 23  1  0
 23 24  1  0
 24 25  1  0
 25 26  1  0
 26 27  1  0
 27 28  1  0
  7 29  2  0
 29  3  1  0
 21 10  1  0
 28 23  1  0
 18 12  1  0
  1 30  1  0
  1 31  1  0
  2 32  1  0
  2 33  1  0
  4 34  1  0
  5 35  1  0
  6 36  1  0
  8 37  1  0
  9 38  1  0
 13 39  1  0
 14 40  1  0
 17 41  1  0
 22 42  1  0
 22 43  1  0
 23 44  1  0
 24 45  1  0
 24 46  1  0
 25 47  1  0
 25 48  1  0
 26 49  1  0
 26 50  1  0
 27 51  1  0
 27 52  1  0
 28 53  1  0
 28 54  1  0
 29 55  1  0
M  END
>  <smiles>  (35) 
NCc1cccc(/C=C/c2nc3ccc(F)cc3c(=O)n2CC2CCCCC2)c1

>  <score_type>  (35) 
oracle

>  <origin>  (35) 
autodockgpu

>  <m_score__min__energy>  (35) 
-8.4499999999999993

>  <m_primary>  (35) 
energy

>  <rmsd>  (35) 
10.753419263843558

>  <m_score__min__rmsd>  (35) 
10.753419263843558

>  <meeko>  (35) 
{"free_energy": -7.67, "intermolecular_energy": -9.76, "internal_energy": -1.22, "cluster_size": 6, "cluster_id": 3, "rank_in_cluster": 5}

>  <energy>  (35) 
-6.77

>  <cluster_rmsd>  (35) 
0.0

>  <cluster>  (35) 
9

$$$$

     RDKit          3D

 55 58  0  0  0  0  0  0  0  0999 V2000
  143.7060   76.6870  219.7970 N   0  0  0  0  0  0  0  0  0  0  0  0
  142.3180   76.3580  220.1050 C   0  0  0  0  0  0  0  0  0  0  0  0
  142.1740   74.9460  220.5690 C   0  0  0  0  0  0  0  0  0  0  0  0
  143.1830   74.0300  220.3720 C   0  0  0  0  0  0  0  0  0  0  0  0
  142.9780   72.7510  220.8270 C   0  0  0  0  0  0  0  0  0  0  0  0
  141.7940   72.3930  221.4620 C   0  0  0  0  0  0  0  0  0  0  0  0
  140.7720   73.2940  221.6680 C   0  0  0  0  0  0  0  0  0  0  0  0
  139.5210   72.9680  222.3240 C   0  0  0  0  0  0  0  0  0  0  0  0
  139.0160   71.7480  222.3960 C   0  0  0  0  0  0  0  0  0  0  0  0
  139.3440   70.8740  223.5410 C   0  0  0  0  0  0  0  0  0  0  0  0
  139.8670   71.4990  224.6120 N   0  0  0  0  0  0  0  0  0  0  0  0
  140.1920   70.8470  225.7450 C   0  0  0  0  0  0  0  0  0  0  0  0
  140.7290   71.4770  226.8500 C   0  0  0  0  0  0  0  0  0  0  0  0
  141.0420   70.7670  227.9810 C   0  0  0  0  0  0  0  0  0  0  0  0
  140.8200   69.4040  228.0180 C   0  0  0  0  0  0  0  0  0  0  0  0
  141.1270   68.6950  229.1310 F   0  0  0  0  0  0  0  0  0  0  0  0
  140.2760   68.7740  226.8950 C   0  0  0  0  0  0  0  0  0  0  0  0
  139.9590   69.4890  225.7550 C   0  0  0  0  0  0  0  0  0  0  0  0
  139.4170   68.8620  224.6310 C   0  0  0  0  0  0  0  0  0  0  0  0
  139.2440   67.6230  224.7460 O   0  0  0  0  0  0  0  0  0  0  0  0
  139.1020   69.5430  223.5090 N   0  0  0  0  0  0  0  0  0  0  0  0
  138.5370   68.9010  222.3500 C   0  0  0  0  0  0  0  0  0  0  0  0
  139.4970   68.7070  221.1970 C   0  0  0  0  0  0  0  0  0  0  0  0
  139.8550   67.3030  220.8950 C   0  0  0  0  0  0  0  0  0  0  0  0
  140.6350   67.1980  219.6280 C   0  0  0  0  0  0  0  0  0  0  0  0
  141.3330   68.4710  219.2090 C   0  0  0  0  0  0  0  0  0  0  0  0
  140.3870   69.6280  219.0900 C   0  0  0  0  0  0  0  0  0  0  0  0
  139.1550   69.4580  219.9590 C   0  0  0  0  0  0  0  0  0  0  0  0
  141.0010   74.5860  221.1990 C   0  0  0  0  0  0  0  0  0  0  0  0
  144.2930   76.8070  220.6570 H   0  0  0  0  0  0  0  0  0  0  0  0
  143.6870   77.6290  219.3080 H   0  0  0  0  0  0  0  0  0  0  0  0
  141.9595   77.0317  220.8972 H   0  0  0  0  0  0  0  0  0  0  0  0
  141.7254   76.4787  219.1862 H   0  0  0  0  0  0  0  0  0  0  0  0
  144.1192   74.3127  219.8684 H   0  0  0  0  0  0  0  0  0  0  0  0
  143.7650   71.9955  220.6866 H   0  0  0  0  0  0  0  0  0  0  0  0
  141.6692   71.3574  221.8111 H   0  0  0  0  0  0  0  0  0  0  0  0
  138.9559   73.7877  222.7917 H   0  0  0  0  0  0  0  0  0  0  0  0
  138.3496   71.3827  221.6007 H   0  0  0  0  0  0  0  0  0  0  0  0
  140.9081   72.5620  226.8230 H   0  0  0  0  0  0  0  0  0  0  0  0
  141.4682   71.2809  228.8552 H   0  0  0  0  0  0  0  0  0  0  0  0
  140.0968   67.6890  226.9188 H   0  0  0  0  0  0  0  0  0  0  0  0
  138.1650   67.9117  222.6549 H   0  0  0  0  0  0  0  0  0  0  0  0
  137.7451   69.5701  221.9824 H   0  0  0  0  0  0  0  0  0  0  0  0
  140.4103   69.1700  221.5989 H   0  0  0  0  0  0  0  0  0  0  0  0
  140.4604   66.9028  221.7216 H   0  0  0  0  0  0  0  0  0  0  0  0
  138.9250   66.7276  220.7764 H   0  0  0  0  0  0  0  0  0  0  0  0
  141.3976   66.4162  219.7589 H   0  0  0  0  0  0  0  0  0  0  0  0
  139.9092   66.9660  218.8346 H   0  0  0  0  0  0  0  0  0  0  0  0
  142.0995   68.7169  219.9586 H   0  0  0  0  0  0  0  0  0  0  0  0
  141.7791   68.2988  218.2184 H   0  0  0  0  0  0  0  0  0  0  0  0
  140.9109   70.5458  219.3952 H   0  0  0  0  0  0  0  0  0  0  0  0
  140.0544   69.6836  218.0430 H   0  0  0  0  0  0  0  0  0  0  0  0
  138.7638   70.4492  220.2320 H   0  0  0  0  0  0  0  0  0  0  0  0
  138.3952   68.8951  219.3970 H   0  0  0  0  0  0  0  0  0  0  0  0
  140.2180   75.3463  221.3362 H   0  0  0  0  0  0  0  0  0  0  0  0
  1  2  1  0
  2  3  1  0
  3  4  2  0
  4  5  1  0
  5  6  2  0
  6  7  1  0
  7  8  1  0
  8  9  2  0
  9 10  1  0
 10 11  2  0
 11 12  1  0
 12 13  2  0
 13 14  1  0
 14 15  2  0
 15 16  1  0
 15 17  1  0
 17 18  2  0
 18 19  1  0
 19 20  2  0
 19 21  1  0
 21 22  1  0
 22 23  1  0
 23 24  1  0
 24 25  1  0
 25 26  1  0
 26 27  1  0
 27 28  1  0
  7 29  2  0
 29  3  1  0
 21 10  1  0
 28 23  1  0
 18 12  1  0
  1 30  1  0
  1 31  1  0
  2 32  1  0
  2 33  1  0
  4 34  1  0
  5 35  1  0
  6 36  1  0
  8 37  1  0
  9 38  1  0
 13 39  1  0
 14 40  1  0
 17 41  1  0
 22 42  1  0
 22 43  1  0
 23 44  1  0
 24 45  1  0
 24 46  1  0
 25 47  1  0
 25 48  1  0
 26 49  1  0
 26 50  1  0
 27 51  1  0
 27 52  1  0
 28 53  1  0
 28 54  1  0
 29 55  1  0
M  END
>  <smiles>  (36) 
NCc1cccc(/C=C/c2nc3ccc(F)cc3c(=O)n2CC2CCCCC2)c1

>  <score_type>  (36) 
oracle

>  <origin>  (36) 
autodockgpu

>  <m_score__min__energy>  (36) 
-8.4499999999999993

>  <m_primary>  (36) 
energy

>  <rmsd>  (36) 
10.893012085724745

>  <m_score__min__rmsd>  (36) 
10.893012085724745

>  <meeko>  (36) 
{"free_energy": -7.39, "intermolecular_energy": -9.48, "internal_energy": -1.66, "cluster_size": 2, "cluster_id": 7, "rank_in_cluster": 1}

>  <energy>  (36) 
-6.76

>  <cluster_rmsd>  (36) 
0.0

>  <cluster>  (36) 
10

$$$$

     RDKit          3D

 55 58  0  0  0  0  0  0  0  0999 V2000
  139.2070   67.1640  226.3740 N   0  0  0  0  0  0  0  0  0  0  0  0
  140.5780   67.6640  226.3990 C   0  0  0  0  0  0  0  0  0  0  0  0
  140.6280   69.1510  226.2660 C   0  0  0  0  0  0  0  0  0  0  0  0
  141.0150   69.9430  227.3220 C   0  0  0  0  0  0  0  0  0  0  0  0
  141.0370   71.3020  227.1240 C   0  0  0  0  0  0  0  0  0  0  0  0
  140.6800   71.8570  225.9000 C   0  0  0  0  0  0  0  0  0  0  0  0
  140.2890   71.0810  224.8310 C   0  0  0  0  0  0  0  0  0  0  0  0
  139.9070   71.6140  223.5370 C   0  0  0  0  0  0  0  0  0  0  0  0
  140.7630   71.9080  222.5730 C   0  0  0  0  0  0  0  0  0  0  0  0
  140.6230   73.1690  221.8130 C   0  0  0  0  0  0  0  0  0  0  0  0
  139.8170   74.0900  222.3710 N   0  0  0  0  0  0  0  0  0  0  0  0
  139.6080   75.3010  221.8180 C   0  0  0  0  0  0  0  0  0  0  0  0
  138.7840   76.2550  222.3810 C   0  0  0  0  0  0  0  0  0  0  0  0
  138.6060   77.4740  221.7760 C   0  0  0  0  0  0  0  0  0  0  0  0
  139.2560   77.7530  220.5900 C   0  0  0  0  0  0  0  0  0  0  0  0
  139.0850   78.9540  219.9870 F   0  0  0  0  0  0  0  0  0  0  0  0
  140.0890   76.7810  220.0270 C   0  0  0  0  0  0  0  0  0  0  0  0
  140.2700   75.5530  220.6360 C   0  0  0  0  0  0  0  0  0  0  0  0
  141.1000   74.5790  220.0750 C   0  0  0  0  0  0  0  0  0  0  0  0
  141.6560   74.9120  218.9990 O   0  0  0  0  0  0  0  0  0  0  0  0
  141.2880   73.3740  220.6540 N   0  0  0  0  0  0  0  0  0  0  0  0
  142.1480   72.3710  220.0820 C   0  0  0  0  0  0  0  0  0  0  0  0
  143.6260   72.5890  220.3160 C   0  0  0  0  0  0  0  0  0  0  0  0
  144.5250   71.5930  219.6900 C   0  0  0  0  0  0  0  0  0  0  0  0
  145.9550   72.0000  219.8020 C   0  0  0  0  0  0  0  0  0  0  0  0
  146.2470   72.9810  220.9120 C   0  0  0  0  0  0  0  0  0  0  0  0
  145.4080   74.2190  220.8150 C   0  0  0  0  0  0  0  0  0  0  0  0
  144.1050   73.9770  220.0750 C   0  0  0  0  0  0  0  0  0  0  0  0
  140.2740   69.7070  225.0540 C   0  0  0  0  0  0  0  0  0  0  0  0
  138.4980   67.9270  226.4850 H   0  0  0  0  0  0  0  0  0  0  0  0
  139.1070   66.5290  227.2190 H   0  0  0  0  0  0  0  0  0  0  0  0
  141.0449   67.3758  227.3524 H   0  0  0  0  0  0  0  0  0  0  0  0
  141.1176   67.2259  225.5465 H   0  0  0  0  0  0  0  0  0  0  0  0
  141.2967   69.5037  228.2903 H   0  0  0  0  0  0  0  0  0  0  0  0
  141.3425   71.9631  227.9484 H   0  0  0  0  0  0  0  0  0  0  0  0
  140.7108   72.9502  225.7816 H   0  0  0  0  0  0  0  0  0  0  0  0
  138.8373   71.7844  223.3456 H   0  0  0  0  0  0  0  0  0  0  0  0
  141.5816   71.2126  222.3356 H   0  0  0  0  0  0  0  0  0  0  0  0
  138.2642   76.0356  223.3253 H   0  0  0  0  0  0  0  0  0  0  0  0
  137.9476   78.2265  222.2345 H   0  0  0  0  0  0  0  0  0  0  0  0
  140.6097   76.9973  219.0825 H   0  0  0  0  0  0  0  0  0  0  0  0
  141.8735   71.3981  220.5158 H   0  0  0  0  0  0  0  0  0  0  0  0
  141.9979   72.4212  218.9934 H   0  0  0  0  0  0  0  0  0  0  0  0
  143.6968   72.4190  221.4005 H   0  0  0  0  0  0  0  0  0  0  0  0
  144.3890   70.6237  220.1919 H   0  0  0  0  0  0  0  0  0  0  0  0
  144.2696   71.5209  218.6225 H   0  0  0  0  0  0  0  0  0  0  0  0
  146.5559   71.0955  219.9773 H   0  0  0  0  0  0  0  0  0  0  0  0
  146.2069   72.5115  218.8613 H   0  0  0  0  0  0  0  0  0  0  0  0
  146.0461   72.4927  221.8770 H   0  0  0  0  0  0  0  0  0  0  0  0
  147.3013   73.2824  220.8248 H   0  0  0  0  0  0  0  0  0  0  0  0
  145.1772   74.5702  221.8316 H   0  0  0  0  0  0  0  0  0  0  0  0
  145.9806   74.9695  220.2503 H   0  0  0  0  0  0  0  0  0  0  0  0
  143.3470   74.6898  220.4317 H   0  0  0  0  0  0  0  0  0  0  0  0
  144.2739   74.1158  218.9969 H   0  0  0  0  0  0  0  0  0  0  0  0
  139.9688   69.0403  224.2340 H   0  0  0  0  0  0  0  0  0  0  0  0
  1  2  1  0
  2  3  1  0
  3  4  2  0
  4  5  1  0
  5  6  2  0
  6  7  1  0
  7  8  1  0
  8  9  2  0
  9 10  1  0
 10 11  2  0
 11 12  1  0
 12 13  2  0
 13 14  1  0
 14 15  2  0
 15 16  1  0
 15 17  1  0
 17 18  2  0
 18 19  1  0
 19 20  2  0
 19 21  1  0
 21 22  1  0
 22 23  1  0
 23 24  1  0
 24 25  1  0
 25 26  1  0
 26 27  1  0
 27 28  1  0
  7 29  2  0
 29  3  1  0
 21 10  1  0
 28 23  1  0
 18 12  1  0
  1 30  1  0
  1 31  1  0
  2 32  1  0
  2 33  1  0
  4 34  1  0
  5 35  1  0
  6 36  1  0
  8 37  1  0
  9 38  1  0
 13 39  1  0
 14 40  1  0
 17 41  1  0
 22 42  1  0
 22 43  1  0
 23 44  1  0
 24 45  1  0
 24 46  1  0
 25 47  1  0
 25 48  1  0
 26 49  1  0
 26 50  1  0
 27 51  1  0
 27 52  1  0
 28 53  1  0
 28 54  1  0
 29 55  1  0
M  END
>  <smiles>  (37) 
NCc1cccc(/C=C/c2nc3ccc(F)cc3c(=O)n2CC2CCCCC2)c1

>  <score_type>  (37) 
oracle

>  <origin>  (37) 
autodockgpu

>  <m_score__min__energy>  (37) 
-8.4499999999999993

>  <m_primary>  (37) 
energy

>  <rmsd>  (37) 
6.391590582857705

>  <m_score__min__rmsd>  (37) 
6.391590582857705

>  <meeko>  (37) 
{"free_energy": -8.45, "intermolecular_energy": -10.54, "internal_energy": -1.07, "cluster_size": 2, "cluster_id": 1, "rank_in_cluster": 1}

>  <energy>  (37) 
-6.74

>  <cluster_rmsd>  (37) 
0.21

>  <cluster>  (37) 
10

$$$$

     RDKit          3D

 55 58  0  0  0  0  0  0  0  0999 V2000
  143.2900   80.9510  217.7600 N   0  0  0  0  0  0  0  0  0  0  0  0
  141.9170   80.8220  218.2380 C   0  0  0  0  0  0  0  0  0  0  0  0
  141.7970   81.1820  219.6830 C   0  0  0  0  0  0  0  0  0  0  0  0
  141.2960   82.4050  220.0670 C   0  0  0  0  0  0  0  0  0  0  0  0
  141.2150   82.6640  221.4130 C   0  0  0  0  0  0  0  0  0  0  0  0
  141.6240   81.7250  222.3540 C   0  0  0  0  0  0  0  0  0  0  0  0
  142.1290   80.4960  221.9890 C   0  0  0  0  0  0  0  0  0  0  0  0
  142.5690   79.4860  222.9320 C   0  0  0  0  0  0  0  0  0  0  0  0
  141.7760   78.5720  223.4650 C   0  0  0  0  0  0  0  0  0  0  0  0
  140.3090   78.6910  223.3320 C   0  0  0  0  0  0  0  0  0  0  0  0
  139.7800   79.8380  223.7950 N   0  0  0  0  0  0  0  0  0  0  0  0
  138.4630   80.1120  223.7200 C   0  0  0  0  0  0  0  0  0  0  0  0
  137.9080   81.2850  224.1910 C   0  0  0  0  0  0  0  0  0  0  0  0
  136.5600   81.5150  224.0900 C   0  0  0  0  0  0  0  0  0  0  0  0
  135.7430   80.5630  223.5110 C   0  0  0  0  0  0  0  0  0  0  0  0
  134.4100   80.7820  223.4080 F   0  0  0  0  0  0  0  0  0  0  0  0
  136.3120   79.3780  223.0370 C   0  0  0  0  0  0  0  0  0  0  0  0
  137.6720   79.1450  223.1380 C   0  0  0  0  0  0  0  0  0  0  0  0
  138.2440   77.9610  222.6660 C   0  0  0  0  0  0  0  0  0  0  0  0
  137.4350   77.1500  222.1520 O   0  0  0  0  0  0  0  0  0  0  0  0
  139.5690   77.7170  222.7560 N   0  0  0  0  0  0  0  0  0  0  0  0
  140.1620   76.5000  222.2660 C   0  0  0  0  0  0  0  0  0  0  0  0
  141.0400   76.6660  221.0450 C   0  0  0  0  0  0  0  0  0  0  0  0
  141.9680   75.5460  220.7700 C   0  0  0  0  0  0  0  0  0  0  0  0
  142.6390   75.7040  219.4480 C   0  0  0  0  0  0  0  0  0  0  0  0
  142.6720   77.1190  218.9220 C   0  0  0  0  0  0  0  0  0  0  0  0
  141.3050   77.7280  218.8350 C   0  0  0  0  0  0  0  0  0  0  0  0
  140.3290   77.0960  219.8110 C   0  0  0  0  0  0  0  0  0  0  0  0
  142.2020   80.2540  220.6190 C   0  0  0  0  0  0  0  0  0  0  0  0
  143.3410   81.2260  216.7510 H   0  0  0  0  0  0  0  0  0  0  0  0
  143.7230   79.9850  217.8360 H   0  0  0  0  0  0  0  0  0  0  0  0
  141.2708   81.4901  217.6497 H   0  0  0  0  0  0  0  0  0  0  0  0
  141.6110   79.7720  218.1205 H   0  0  0  0  0  0  0  0  0  0  0  0
  140.9724   83.1477  219.3229 H   0  0  0  0  0  0  0  0  0  0  0  0
  140.8192   83.6322  221.7534 H   0  0  0  0  0  0  0  0  0  0  0  0
  141.5417   81.9711  223.4230 H   0  0  0  0  0  0  0  0  0  0  0  0
  143.6300   79.4799  223.2224 H   0  0  0  0  0  0  0  0  0  0  0  0
  142.2097   77.7201  224.0093 H   0  0  0  0  0  0  0  0  0  0  0  0
  138.5554   82.0448  224.6532 H   0  0  0  0  0  0  0  0  0  0  0  0
  136.1305   82.4542  224.4686 H   0  0  0  0  0  0  0  0  0  0  0  0
  135.6667   78.6163  222.5750 H   0  0  0  0  0  0  0  0  0  0  0  0
  140.7750   76.0700  223.0718 H   0  0  0  0  0  0  0  0  0  0  0  0
  139.3277   75.8515  221.9603 H   0  0  0  0  0  0  0  0  0  0  0  0
  141.6725   77.5126  221.3504 H   0  0  0  0  0  0  0  0  0  0  0  0
  142.7345   75.5152  221.5584 H   0  0  0  0  0  0  0  0  0  0  0  0
  141.3864   74.6125  220.7523 H   0  0  0  0  0  0  0  0  0  0  0  0
  143.6761   75.3506  219.5458 H   0  0  0  0  0  0  0  0  0  0  0  0
  142.0483   75.1187  218.7280 H   0  0  0  0  0  0  0  0  0  0  0  0
  143.2896   77.7318  219.5950 H   0  0  0  0  0  0  0  0  0  0  0  0
  143.0914   77.0894  217.9055 H   0  0  0  0  0  0  0  0  0  0  0  0
  141.3817   78.8025  219.0575 H   0  0  0  0  0  0  0  0  0  0  0  0
  140.9235   77.5543  217.8180 H   0  0  0  0  0  0  0  0  0  0  0  0
  139.5537   77.8301  220.0758 H   0  0  0  0  0  0  0  0  0  0  0  0
  139.8683   76.2162  219.3379 H   0  0  0  0  0  0  0  0  0  0  0  0
  142.5969   79.2879  220.2715 H   0  0  0  0  0  0  0  0  0  0  0  0
  1  2  1  0
  2  3  1  0
  3  4  2  0
  4  5  1  0
  5  6  2  0
  6  7  1  0
  7  8  1  0
  8  9  2  0
  9 10  1  0
 10 11  2  0
 11 12  1  0
 12 13  2  0
 13 14  1  0
 14 15  2  0
 15 16  1  0
 15 17  1  0
 17 18  2  0
 18 19  1  0
 19 20  2  0
 19 21  1  0
 21 22  1  0
 22 23  1  0
 23 24  1  0
 24 25  1  0
 25 26  1  0
 26 27  1  0
 27 28  1  0
  7 29  2  0
 29  3  1  0
 21 10  1  0
 28 23  1  0
 18 12  1  0
  1 30  1  0
  1 31  1  0
  2 32  1  0
  2 33  1  0
  4 34  1  0
  5 35  1  0
  6 36  1  0
  8 37  1  0
  9 38  1  0
 13 39  1  0
 14 40  1  0
 17 41  1  0
 22 42  1  0
 22 43  1  0
 23 44  1  0
 24 45  1  0
 24 46  1  0
 25 47  1  0
 25 48  1  0
 26 49  1  0
 26 50  1  0
 27 51  1  0
 27 52  1  0
 28 53  1  0
 28 54  1  0
 29 55  1  0
M  END
>  <smiles>  (38) 
NCc1cccc(/C=C/c2nc3ccc(F)cc3c(=O)n2CC2CCCCC2)c1

>  <score_type>  (38) 
oracle

>  <origin>  (38) 
autodockgpu

>  <m_score__min__energy>  (38) 
-8.4499999999999993

>  <m_primary>  (38) 
energy

>  <rmsd>  (38) 
4.025253232907629

>  <m_score__min__rmsd>  (38) 
4.025253232907629

>  <meeko>  (38) 
{"free_energy": -6.74, "intermolecular_energy": -8.83, "internal_energy": -2.32, "cluster_size": 8, "cluster_id": 10, "rank_in_cluster": 2}

>  <energy>  (38) 
-6.68

>  <cluster_rmsd>  (38) 
0.48

>  <cluster>  (38) 
10

$$$$

     RDKit          3D

 55 58  0  0  0  0  0  0  0  0999 V2000
  142.1320   77.8860  220.9570 N   0  0  0  0  0  0  0  0  0  0  0  0
  141.1010   78.1040  221.9670 C   0  0  0  0  0  0  0  0  0  0  0  0
  140.1050   76.9910  221.9900 C   0  0  0  0  0  0  0  0  0  0  0  0
  138.7540   77.2500  222.0380 C   0  0  0  0  0  0  0  0  0  0  0  0
  137.9000   76.1750  222.0560 C   0  0  0  0  0  0  0  0  0  0  0  0
  138.3820   74.8710  222.0260 C   0  0  0  0  0  0  0  0  0  0  0  0
  139.7310   74.5910  221.9790 C   0  0  0  0  0  0  0  0  0  0  0  0
  140.2800   73.2490  221.9480 C   0  0  0  0  0  0  0  0  0  0  0  0
  139.5520   72.1470  222.0030 C   0  0  0  0  0  0  0  0  0  0  0  0
  139.5340   71.3280  223.2330 C   0  0  0  0  0  0  0  0  0  0  0  0
  140.2440   71.8210  224.2640 N   0  0  0  0  0  0  0  0  0  0  0  0
  140.3040   71.2090  225.4620 C   0  0  0  0  0  0  0  0  0  0  0  0
  141.0280   71.7050  226.5270 C   0  0  0  0  0  0  0  0  0  0  0  0
  141.0560   71.0420  227.7280 C   0  0  0  0  0  0  0  0  0  0  0  0
  140.3520   69.8630  227.8770 C   0  0  0  0  0  0  0  0  0  0  0  0
  140.3760   69.2020  229.0590 F   0  0  0  0  0  0  0  0  0  0  0  0
  139.6220   69.3670  226.7930 C   0  0  0  0  0  0  0  0  0  0  0  0
  139.5930   70.0350  225.5830 C   0  0  0  0  0  0  0  0  0  0  0  0
  138.8640   69.5410  224.4980 C   0  0  0  0  0  0  0  0  0  0  0  0
  138.2510   68.4670  224.7150 O   0  0  0  0  0  0  0  0  0  0  0  0
  138.8240   70.1790  223.3080 N   0  0  0  0  0  0  0  0  0  0  0  0
  138.0700   69.6760  222.1900 C   0  0  0  0  0  0  0  0  0  0  0  0
  138.7330   68.5500  221.4270 C   0  0  0  0  0  0  0  0  0  0  0  0
  140.0050   68.8990  220.7550 C   0  0  0  0  0  0  0  0  0  0  0  0
  140.6830   67.6890  220.2060 C   0  0  0  0  0  0  0  0  0  0  0  0
  139.7710   66.5090  219.9670 C   0  0  0  0  0  0  0  0  0  0  0  0
  139.0160   66.1120  221.2000 C   0  0  0  0  0  0  0  0  0  0  0  0
  138.8460   67.2660  222.1700 C   0  0  0  0  0  0  0  0  0  0  0  0
  140.5780   75.6950  221.9620 C   0  0  0  0  0  0  0  0  0  0  0  0
  142.5940   76.9500  221.0480 H   0  0  0  0  0  0  0  0  0  0  0  0
  142.8820   78.6150  221.1360 H   0  0  0  0  0  0  0  0  0  0  0  0
  141.5793   78.1746  222.9550 H   0  0  0  0  0  0  0  0  0  0  0  0
  140.5694   79.0344  221.7186 H   0  0  0  0  0  0  0  0  0  0  0  0
  138.3722   78.2813  222.0611 H   0  0  0  0  0  0  0  0  0  0  0  0
  136.8145   76.3485  222.0949 H   0  0  0  0  0  0  0  0  0  0  0  0
  137.6647   74.0371  222.0402 H   0  0  0  0  0  0  0  0  0  0  0  0
  141.3722   73.1412  221.8740 H   0  0  0  0  0  0  0  0  0  0  0  0
  138.9576   71.8386  221.1303 H   0  0  0  0  0  0  0  0  0  0  0  0
  141.5897   72.6437  226.4116 H   0  0  0  0  0  0  0  0  0  0  0  0
  141.6370   71.4480  228.5692 H   0  0  0  0  0  0  0  0  0  0  0  0
  139.0603   68.4279  226.9048 H   0  0  0  0  0  0  0  0  0  0  0  0
  137.1035   69.3102  222.5670 H   0  0  0  0  0  0  0  0  0  0  0  0
  137.9740   70.5126  221.4822 H   0  0  0  0  0  0  0  0  0  0  0  0
  138.0042   68.3787  220.6211 H   0  0  0  0  0  0  0  0  0  0  0  0
  139.7942   69.5957  219.9303 H   0  0  0  0  0  0  0  0  0  0  0  0
  140.6721   69.3615  221.4974 H   0  0  0  0  0  0  0  0  0  0  0  0
  141.1484   67.9622  219.2475 H   0  0  0  0  0  0  0  0  0  0  0  0
  141.4121   67.3697  220.9653 H   0  0  0  0  0  0  0  0  0  0  0  0
  139.0490   66.7740  219.1805 H   0  0  0  0  0  0  0  0  0  0  0  0
  140.3975   65.6558  219.6677 H   0  0  0  0  0  0  0  0  0  0  0  0
  138.0205   65.7500  220.9035 H   0  0  0  0  0  0  0  0  0  0  0  0
  139.5945   65.3275  221.7098 H   0  0  0  0  0  0  0  0  0  0  0  0
  137.9342   67.1091  222.7649 H   0  0  0  0  0  0  0  0  0  0  0  0
  139.7235   67.3106  222.8318 H   0  0  0  0  0  0  0  0  0  0  0  0
  141.6647   75.5284  221.9249 H   0  0  0  0  0  0  0  0  0  0  0  0
  1  2  1  0
  2  3  1  0
  3  4  2  0
  4  5  1  0
  5  6  2  0
  6  7  1  0
  7  8  1  0
  8  9  2  0
  9 10  1  0
 10 11  2  0
 11 12  1  0
 12 13  2  0
 13 14  1  0
 14 15  2  0
 15 16  1  0
 15 17  1  0
 17 18  2  0
 18 19  1  0
 19 20  2  0
 19 21  1  0
 21 22  1  0
 22 23  1  0
 23 24  1  0
 24 25  1  0
 25 26  1  0
 26 27  1  0
 27 28  1  0
  7 29  2  0
 29  3  1  0
 21 10  1  0
 28 23  1  0
 18 12  1  0
  1 30  1  0
  1 31  1  0
  2 32  1  0
  2 33  1  0
  4 34  1  0
  5 35  1  0
  6 36  1  0
  8 37  1  0
  9 38  1  0
 13 39  1  0
 14 40  1  0
 17 41  1  0
 22 42  1  0
 22 43  1  0
 23 44  1  0
 24 45  1  0
 24 46  1  0
 25 47  1  0
 25 48  1  0
 26 49  1  0
 26 50  1  0
 27 51  1  0
 27 52  1  0
 28 53  1  0
 28 54  1  0
 29 55  1  0
M  END
>  <smiles>  (39) 
NCc1cccc(/C=C/c2nc3ccc(F)cc3c(=O)n2CC2CCCCC2)c1

>  <score_type>  (39) 
oracle

>  <origin>  (39) 
autodockgpu

>  <m_score__min__energy>  (39) 
-8.4499999999999993

>  <m_primary>  (39) 
energy

>  <rmsd>  (39) 
10.479139501531932

>  <m_score__min__rmsd>  (39) 
10.479139501531932

>  <meeko>  (39) 
{"free_energy": -7.29, "intermolecular_energy": -9.38, "internal_energy": -1.26, "cluster_size": 2, "cluster_id": 7, "rank_in_cluster": 2}

>  <energy>  (39) 
-6.61

>  <cluster_rmsd>  (39) 
0.38

>  <cluster>  (39) 
10

$$$$

     RDKit          3D

 55 58  0  0  0  0  0  0  0  0999 V2000
  146.1730   72.6940  221.4220 N   0  0  0  0  0  0  0  0  0  0  0  0
  145.1070   73.4220  220.7400 C   0  0  0  0  0  0  0  0  0  0  0  0
  143.8860   72.5800  220.5670 C   0  0  0  0  0  0  0  0  0  0  0  0
  143.9210   71.4270  219.8160 C   0  0  0  0  0  0  0  0  0  0  0  0
  142.7580   70.7060  219.7040 C   0  0  0  0  0  0  0  0  0  0  0  0
  141.5880   71.1240  220.3260 C   0  0  0  0  0  0  0  0  0  0  0  0
  141.5310   72.2750  221.0820 C   0  0  0  0  0  0  0  0  0  0  0  0
  140.3350   72.7510  221.7490 C   0  0  0  0  0  0  0  0  0  0  0  0
  139.3460   71.9690  222.1490 C   0  0  0  0  0  0  0  0  0  0  0  0
  139.5150   71.1070  223.3370 C   0  0  0  0  0  0  0  0  0  0  0  0
  140.1850   71.6640  224.3620 N   0  0  0  0  0  0  0  0  0  0  0  0
  140.3980   71.0200  225.5260 C   0  0  0  0  0  0  0  0  0  0  0  0
  141.0830   71.5810  226.5850 C   0  0  0  0  0  0  0  0  0  0  0  0
  141.2720   70.8810  227.7500 C   0  0  0  0  0  0  0  0  0  0  0  0
  140.7710   69.5990  227.8680 C   0  0  0  0  0  0  0  0  0  0  0  0
  140.9530   68.9020  229.0150 F   0  0  0  0  0  0  0  0  0  0  0  0
  140.0780   69.0380  226.7920 C   0  0  0  0  0  0  0  0  0  0  0  0
  139.8870   69.7430  225.6170 C   0  0  0  0  0  0  0  0  0  0  0  0
  139.1960   69.1850  224.5390 C   0  0  0  0  0  0  0  0  0  0  0  0
  138.7710   68.0190  224.7280 O   0  0  0  0  0  0  0  0  0  0  0  0
  139.0000   69.8580  223.3850 N   0  0  0  0  0  0  0  0  0  0  0  0
  138.2830   69.2880  222.2740 C   0  0  0  0  0  0  0  0  0  0  0  0
  138.9870   68.1420  221.5810 C   0  0  0  0  0  0  0  0  0  0  0  0
  138.1530   66.9460  221.3210 C   0  0  0  0  0  0  0  0  0  0  0  0
  138.8680   65.9580  220.4610 C   0  0  0  0  0  0  0  0  0  0  0  0
  140.3720   66.0870  220.4680 C   0  0  0  0  0  0  0  0  0  0  0  0
  140.8280   67.4640  220.0880 C   0  0  0  0  0  0  0  0  0  0  0  0
  139.7800   68.5210  220.3810 C   0  0  0  0  0  0  0  0  0  0  0  0
  142.7210   72.9910  221.1820 C   0  0  0  0  0  0  0  0  0  0  0  0
  146.5460   71.8980  220.8520 H   0  0  0  0  0  0  0  0  0  0  0  0
  145.7350   72.2690  222.2890 H   0  0  0  0  0  0  0  0  0  0  0  0
  144.8460   74.3106  221.3335 H   0  0  0  0  0  0  0  0  0  0  0  0
  145.4709   73.7073  219.7419 H   0  0  0  0  0  0  0  0  0  0  0  0
  144.8470   71.0953  219.3235 H   0  0  0  0  0  0  0  0  0  0  0  0
  142.7524   69.7798  219.1106 H   0  0  0  0  0  0  0  0  0  0  0  0
  140.6780   70.5168  220.2114 H   0  0  0  0  0  0  0  0  0  0  0  0
  140.2442   73.8315  221.9342 H   0  0  0  0  0  0  0  0  0  0  0  0
  138.3953   71.9604  221.5958 H   0  0  0  0  0  0  0  0  0  0  0  0
  141.4823   72.6019  226.4939 H   0  0  0  0  0  0  0  0  0  0  0  0
  141.8202   71.3388  228.5866 H   0  0  0  0  0  0  0  0  0  0  0  0
  139.6771   68.0175  226.8808 H   0  0  0  0  0  0  0  0  0  0  0  0
  137.3150   68.9200  222.6449 H   0  0  0  0  0  0  0  0  0  0  0  0
  138.1873   70.0885  221.5257 H   0  0  0  0  0  0  0  0  0  0  0  0
  139.7137   67.8416  222.3502 H   0  0  0  0  0  0  0  0  0  0  0  0
  137.9022   66.4696  222.2802 H   0  0  0  0  0  0  0  0  0  0  0  0
  137.2426   67.2676  220.7940 H   0  0  0  0  0  0  0  0  0  0  0  0
  138.6092   64.9480  220.8117 H   0  0  0  0  0  0  0  0  0  0  0  0
  138.5444   66.1539  219.4281 H   0  0  0  0  0  0  0  0  0  0  0  0
  140.7417   65.8585  221.4785 H   0  0  0  0  0  0  0  0  0  0  0  0
  140.7731   65.3830  219.7240 H   0  0  0  0  0  0  0  0  0  0  0  0
  141.7396   67.7034  220.6552 H   0  0  0  0  0  0  0  0  0  0  0  0
  141.0153   67.4684  219.0041 H   0  0  0  0  0  0  0  0  0  0  0  0
  140.2777   69.4847  220.5643 H   0  0  0  0  0  0  0  0  0  0  0  0
  139.1043   68.6046  219.5170 H   0  0  0  0  0  0  0  0  0  0  0  0
  142.7329   73.9186  221.7731 H   0  0  0  0  0  0  0  0  0  0  0  0
  1  2  1  0
  2  3  1  0
  3  4  2  0
  4  5  1  0
  5  6  2  0
  6  7  1  0
  7  8  1  0
  8  9  2  0
  9 10  1  0
 10 11  2  0
 11 12  1  0
 12 13  2  0
 13 14  1  0
 14 15  2  0
 15 16  1  0
 15 17  1  0
 17 18  2  0
 18 19  1  0
 19 20  2  0
 19 21  1  0
 21 22  1  0
 22 23  1  0
 23 24  1  0
 24 25  1  0
 25 26  1  0
 26 27  1  0
 27 28  1  0
  7 29  2  0
 29  3  1  0
 21 10  1  0
 28 23  1  0
 18 12  1  0
  1 30  1  0
  1 31  1  0
  2 32  1  0
  2 33  1  0
  4 34  1  0
  5 35  1  0
  6 36  1  0
  8 37  1  0
  9 38  1  0
 13 39  1  0
 14 40  1  0
 17 41  1  0
 22 42  1  0
 22 43  1  0
 23 44  1  0
 24 45  1  0
 24 46  1  0
 25 47  1  0
 25 48  1  0
 26 49  1  0
 26 50  1  0
 27 51  1  0
 27 52  1  0
 28 53  1  0
 28 54  1  0
 29 55  1  0
M  END
>  <smiles>  (40) 
NCc1cccc(/C=C/c2nc3ccc(F)cc3c(=O)n2CC2CCCCC2)c1

>  <score_type>  (40) 
oracle

>  <origin>  (40) 
autodockgpu

>  <m_score__min__energy>  (40) 
-8.4499999999999993

>  <m_primary>  (40) 
energy

>  <rmsd>  (40) 
11.320755800293542

>  <m_score__min__rmsd>  (40) 
11.320755800293542

>  <meeko>  (40) 
{"free_energy": -7.28, "intermolecular_energy": -9.37, "internal_energy": -1.68, "cluster_size": 14, "cluster_id": 2, "rank_in_cluster": 12}

>  <energy>  (40) 
-6.59

>  <cluster_rmsd>  (40) 
0.22

>  <cluster>  (40) 
10

$$$$

     RDKit          3D

 55 58  0  0  0  0  0  0  0  0999 V2000
  146.5380   73.3910  219.3290 N   0  0  0  0  0  0  0  0  0  0  0  0
  145.6040   72.8210  220.2960 C   0  0  0  0  0  0  0  0  0  0  0  0
  144.3140   73.5730  220.3290 C   0  0  0  0  0  0  0  0  0  0  0  0
  144.2610   74.9020  219.9760 C   0  0  0  0  0  0  0  0  0  0  0  0
  143.0380   75.5260  220.0310 C   0  0  0  0  0  0  0  0  0  0  0  0
  141.8960   74.8400  220.4280 C   0  0  0  0  0  0  0  0  0  0  0  0
  141.9290   73.5090  220.7860 C   0  0  0  0  0  0  0  0  0  0  0  0
  140.7660   72.7520  221.2070 C   0  0  0  0  0  0  0  0  0  0  0  0
  140.1560   72.9120  222.3690 C   0  0  0  0  0  0  0  0  0  0  0  0
  138.9950   72.0690  222.7220 C   0  0  0  0  0  0  0  0  0  0  0  0
  137.8390   72.4000  222.1190 N   0  0  0  0  0  0  0  0  0  0  0  0
  136.6970   71.7130  222.3140 C   0  0  0  0  0  0  0  0  0  0  0  0
  135.5040   72.0420  221.7010 C   0  0  0  0  0  0  0  0  0  0  0  0
  134.3690   71.3080  221.9320 C   0  0  0  0  0  0  0  0  0  0  0  0
  134.4150   70.2250  222.7880 C   0  0  0  0  0  0  0  0  0  0  0  0
  133.2980   69.4960  223.0220 F   0  0  0  0  0  0  0  0  0  0  0  0
  135.6260   69.8980  223.4050 C   0  0  0  0  0  0  0  0  0  0  0  0
  136.7710   70.6370  223.1720 C   0  0  0  0  0  0  0  0  0  0  0  0
  137.9830   70.3140  223.7870 C   0  0  0  0  0  0  0  0  0  0  0  0
  137.9410   69.3150  224.5480 O   0  0  0  0  0  0  0  0  0  0  0  0
  139.1110   71.0240  223.5720 N   0  0  0  0  0  0  0  0  0  0  0  0
  140.3630   70.6900  224.2000 C   0  0  0  0  0  0  0  0  0  0  0  0
  140.2880   70.4690  225.6950 C   0  0  0  0  0  0  0  0  0  0  0  0
  140.5380   69.0820  226.1480 C   0  0  0  0  0  0  0  0  0  0  0  0
  140.6440   69.0030  227.6330 C   0  0  0  0  0  0  0  0  0  0  0  0
  139.9880   70.1430  228.3750 C   0  0  0  0  0  0  0  0  0  0  0  0
  140.5010   71.4810  227.9330 C   0  0  0  0  0  0  0  0  0  0  0  0
  141.0440   71.4520  226.5170 C   0  0  0  0  0  0  0  0  0  0  0  0
  143.1780   72.8970  220.7230 C   0  0  0  0  0  0  0  0  0  0  0  0
  147.0700   74.2060  219.7150 H   0  0  0  0  0  0  0  0  0  0  0  0
  145.9470   73.7630  218.5300 H   0  0  0  0  0  0  0  0  0  0  0  0
  145.4001   71.7757  220.0209 H   0  0  0  0  0  0  0  0  0  0  0  0
  146.0629   72.8843  221.2937 H   0  0  0  0  0  0  0  0  0  0  0  0
  145.1645   75.4449  219.6614 H   0  0  0  0  0  0  0  0  0  0  0  0
  142.9612   76.5882  219.7558 H   0  0  0  0  0  0  0  0  0  0  0  0
  140.9358   75.3759  220.4574 H   0  0  0  0  0  0  0  0  0  0  0  0
  140.3657   71.9962  220.5152 H   0  0  0  0  0  0  0  0  0  0  0  0
  140.5141   73.6754  223.0755 H   0  0  0  0  0  0  0  0  0  0  0  0
  135.4637   72.9039  221.0187 H   0  0  0  0  0  0  0  0  0  0  0  0
  133.4251   71.5808  221.4373 H   0  0  0  0  0  0  0  0  0  0  0  0
  135.6687   69.0371  224.0883 H   0  0  0  0  0  0  0  0  0  0  0  0
  140.7418   69.7669  223.7369 H   0  0  0  0  0  0  0  0  0  0  0  0
  141.0239   71.5563  224.0494 H   0  0  0  0  0  0  0  0  0  0  0  0
  139.2215   70.6601  225.8851 H   0  0  0  0  0  0  0  0  0  0  0  0
  139.7080   68.4419  225.8143 H   0  0  0  0  0  0  0  0  0  0  0  0
  141.4913   68.7442  225.7155 H   0  0  0  0  0  0  0  0  0  0  0  0
  140.1723   68.0648  227.9605 H   0  0  0  0  0  0  0  0  0  0  0  0
  141.7168   69.0547  227.8706 H   0  0  0  0  0  0  0  0  0  0  0  0
  138.9033   70.1036  228.1963 H   0  0  0  0  0  0  0  0  0  0  0  0
  140.2240   70.0287  229.4433 H   0  0  0  0  0  0  0  0  0  0  0  0
  139.6775   72.2087  227.9809 H   0  0  0  0  0  0  0  0  0  0  0  0
  141.3264   71.7624  228.6035 H   0  0  0  0  0  0  0  0  0  0  0  0
  140.9447   72.4520  226.0696 H   0  0  0  0  0  0  0  0  0  0  0  0
  142.1030   71.1558  226.5455 H   0  0  0  0  0  0  0  0  0  0  0  0
  143.2620   71.8351  220.9976 H   0  0  0  0  0  0  0  0  0  0  0  0
  1  2  1  0
  2  3  1  0
  3  4  2  0
  4  5  1  0
  5  6  2  0
  6  7  1  0
  7  8  1  0
  8  9  2  0
  9 10  1  0
 10 11  2  0
 11 12  1  0
 12 13  2  0
 13 14  1  0
 14 15  2  0
 15 16  1  0
 15 17  1  0
 17 18  2  0
 18 19  1  0
 19 20  2  0
 19 21  1  0
 21 22  1  0
 22 23  1  0
 23 24  1  0
 24 25  1  0
 25 26  1  0
 26 27  1  0
 27 28  1  0
  7 29  2  0
 29  3  1  0
 21 10  1  0
 28 23  1  0
 18 12  1  0
  1 30  1  0
  1 31  1  0
  2 32  1  0
  2 33  1  0
  4 34  1  0
  5 35  1  0
  6 36  1  0
  8 37  1  0
  9 38  1  0
 13 39  1  0
 14 40  1  0
 17 41  1  0
 22 42  1  0
 22 43  1  0
 23 44  1  0
 24 45  1  0
 24 46  1  0
 25 47  1  0
 25 48  1  0
 26 49  1  0
 26 50  1  0
 27 51  1  0
 27 52  1  0
 28 53  1  0
 28 54  1  0
 29 55  1  0
M  END
>  <smiles>  (41) 
NCc1cccc(/C=C/c2nc3ccc(F)cc3c(=O)n2CC2CCCCC2)c1

>  <score_type>  (41) 
oracle

>  <origin>  (41) 
autodockgpu

>  <m_score__min__energy>  (41) 
-8.4499999999999993

>  <m_primary>  (41) 
energy

>  <rmsd>  (41) 
11.137365600646339

>  <m_score__min__rmsd>  (41) 
11.137365600646339

>  <meeko>  (41) 
{"free_energy": -7.87, "intermolecular_energy": -9.95, "internal_energy": -1.08, "cluster_size": 6, "cluster_id": 3, "rank_in_cluster": 3}

>  <energy>  (41) 
-6.56

>  <cluster_rmsd>  (41) 
0.37

>  <cluster>  (41) 
10

$$$$

     RDKit          3D

 55 58  0  0  0  0  0  0  0  0999 V2000
  146.2120   73.3910  218.8950 N   0  0  0  0  0  0  0  0  0  0  0  0
  145.6970   72.9750  220.1960 C   0  0  0  0  0  0  0  0  0  0  0  0
  144.2860   73.4200  220.4010 C   0  0  0  0  0  0  0  0  0  0  0  0
  143.9050   74.7140  220.1290 C   0  0  0  0  0  0  0  0  0  0  0  0
  142.5900   75.0480  220.3410 C   0  0  0  0  0  0  0  0  0  0  0  0
  141.6760   74.1130  220.8130 C   0  0  0  0  0  0  0  0  0  0  0  0
  142.0380   72.8120  221.0920 C   0  0  0  0  0  0  0  0  0  0  0  0
  141.1210   71.8030  221.5870 C   0  0  0  0  0  0  0  0  0  0  0  0
  140.2510   72.0040  222.5610 C   0  0  0  0  0  0  0  0  0  0  0  0
  140.1440   71.0370  223.6740 C   0  0  0  0  0  0  0  0  0  0  0  0
  140.6160   71.4670  224.8580 N   0  0  0  0  0  0  0  0  0  0  0  0
  140.5660   70.7160  225.9750 C   0  0  0  0  0  0  0  0  0  0  0  0
  141.0470   71.1470  227.1960 C   0  0  0  0  0  0  0  0  0  0  0  0
  140.9700   70.3420  228.3050 C   0  0  0  0  0  0  0  0  0  0  0  0
  140.4060   69.0860  228.2020 C   0  0  0  0  0  0  0  0  0  0  0  0
  140.3280   68.2850  229.2920 F   0  0  0  0  0  0  0  0  0  0  0  0
  139.9220   68.6570  226.9630 C   0  0  0  0  0  0  0  0  0  0  0  0
  139.9980   69.4680  225.8450 C   0  0  0  0  0  0  0  0  0  0  0  0
  139.5160   69.0420  224.6050 C   0  0  0  0  0  0  0  0  0  0  0  0
  139.0170   67.8900  224.5970 O   0  0  0  0  0  0  0  0  0  0  0  0
  139.5820   69.8190  223.5020 N   0  0  0  0  0  0  0  0  0  0  0  0
  139.0800   69.3860  222.2240 C   0  0  0  0  0  0  0  0  0  0  0  0
  137.5800   69.2090  222.1540 C   0  0  0  0  0  0  0  0  0  0  0  0
  137.1050   67.8090  222.0830 C   0  0  0  0  0  0  0  0  0  0  0  0
  135.6230   67.7260  222.2220 C   0  0  0  0  0  0  0  0  0  0  0  0
  134.8850   69.0000  221.8870 C   0  0  0  0  0  0  0  0  0  0  0  0
  135.3720   70.1700  222.6870 C   0  0  0  0  0  0  0  0  0  0  0  0
  136.8050   69.9930  223.1540 C   0  0  0  0  0  0  0  0  0  0  0  0
  143.3750   72.4960  220.8700 C   0  0  0  0  0  0  0  0  0  0  0  0
  147.0610   73.9990  218.9740 H   0  0  0  0  0  0  0  0  0  0  0  0
  145.4520   73.9850  218.4510 H   0  0  0  0  0  0  0  0  0  0  0  0
  145.7375   71.8777  220.2608 H   0  0  0  0  0  0  0  0  0  0  0  0
  146.3192   73.4398  220.9750 H   0  0  0  0  0  0  0  0  0  0  0  0
  144.6278   75.4542  219.7552 H   0  0  0  0  0  0  0  0  0  0  0  0
  142.2536   76.0745  220.1335 H   0  0  0  0  0  0  0  0  0  0  0  0
  140.6314   74.4205  220.9688 H   0  0  0  0  0  0  0  0  0  0  0  0
  141.1518   70.8067  221.1218 H   0  0  0  0  0  0  0  0  0  0  0  0
  139.6043   72.8937  222.5436 H   0  0  0  0  0  0  0  0  0  0  0  0
  141.4970   72.1472  227.2805 H   0  0  0  0  0  0  0  0  0  0  0  0
  141.3562   70.6962  229.2722 H   0  0  0  0  0  0  0  0  0  0  0  0
  139.4727   67.6568  226.8754 H   0  0  0  0  0  0  0  0  0  0  0  0
  139.3709   70.1340  221.4717 H   0  0  0  0  0  0  0  0  0  0  0  0
  139.5159   68.3924  222.0428 H   0  0  0  0  0  0  0  0  0  0  0  0
  137.3595   69.6518  221.1715 H   0  0  0  0  0  0  0  0  0  0  0  0
  137.3973   67.3814  221.1126 H   0  0  0  0  0  0  0  0  0  0  0  0
  137.5609   67.2479  222.9121 H   0  0  0  0  0  0  0  0  0  0  0  0
  135.2599   66.9333  221.5513 H   0  0  0  0  0  0  0  0  0  0  0  0
  135.4218   67.5207  223.2838 H   0  0  0  0  0  0  0  0  0  0  0  0
  135.0263   69.2194  220.8184 H   0  0  0  0  0  0  0  0  0  0  0  0
  133.8233   68.8462  222.1302 H   0  0  0  0  0  0  0  0  0  0  0  0
  135.3125   71.0741  222.0633 H   0  0  0  0  0  0  0  0  0  0  0  0
  134.7354   70.2549  223.5801 H   0  0  0  0  0  0  0  0  0  0  0  0
  137.2705   70.9816  223.2801 H   0  0  0  0  0  0  0  0  0  0  0  0
  136.8054   69.4520  224.1117 H   0  0  0  0  0  0  0  0  0  0  0  0
  143.7183   71.4715  221.0761 H   0  0  0  0  0  0  0  0  0  0  0  0
  1  2  1  0
  2  3  1  0
  3  4  2  0
  4  5  1  0
  5  6  2  0
  6  7  1  0
  7  8  1  0
  8  9  2  0
  9 10  1  0
 10 11  2  0
 11 12  1  0
 12 13  2  0
 13 14  1  0
 14 15  2  0
 15 16  1  0
 15 17  1  0
 17 18  2  0
 18 19  1  0
 19 20  2  0
 19 21  1  0
 21 22  1  0
 22 23  1  0
 23 24  1  0
 24 25  1  0
 25 26  1  0
 26 27  1  0
 27 28  1  0
  7 29  2  0
 29  3  1  0
 21 10  1  0
 28 23  1  0
 18 12  1  0
  1 30  1  0
  1 31  1  0
  2 32  1  0
  2 33  1  0
  4 34  1  0
  5 35  1  0
  6 36  1  0
  8 37  1  0
  9 38  1  0
 13 39  1  0
 14 40  1  0
 17 41  1  0
 22 42  1  0
 22 43  1  0
 23 44  1  0
 24 45  1  0
 24 46  1  0
 25 47  1  0
 25 48  1  0
 26 49  1  0
 26 50  1  0
 27 51  1  0
 27 52  1  0
 28 53  1  0
 28 54  1  0
 29 55  1  0
M  END
>  <smiles>  (42) 
NCc1cccc(/C=C/c2nc3ccc(F)cc3c(=O)n2CC2CCCCC2)c1

>  <score_type>  (42) 
oracle

>  <origin>  (42) 
autodockgpu

>  <m_score__min__energy>  (42) 
-8.4499999999999993

>  <m_primary>  (42) 
energy

>  <rmsd>  (42) 
11.281337827593962

>  <m_score__min__rmsd>  (42) 
11.281337827593962

>  <meeko>  (42) 
{"free_energy": -8.38, "intermolecular_energy": -10.47, "internal_energy": -1.19, "cluster_size": 14, "cluster_id": 2, "rank_in_cluster": 1}

>  <energy>  (42) 
-6.41

>  <cluster_rmsd>  (42) 
0.65

>  <cluster>  (42) 
10

$$$$

     RDKit          3D

 55 58  0  0  0  0  0  0  0  0999 V2000
  143.3000   80.8750  217.7810 N   0  0  0  0  0  0  0  0  0  0  0  0
  141.9270   80.7420  218.2570 C   0  0  0  0  0  0  0  0  0  0  0  0
  141.7900   81.1790  219.6790 C   0  0  0  0  0  0  0  0  0  0  0  0
  141.2700   82.4150  219.9920 C   0  0  0  0  0  0  0  0  0  0  0  0
  141.1740   82.7450  221.3220 C   0  0  0  0  0  0  0  0  0  0  0  0
  141.5860   81.8640  222.3150 C   0  0  0  0  0  0  0  0  0  0  0  0
  142.1090   80.6240  222.0220 C   0  0  0  0  0  0  0  0  0  0  0  0
  142.5530   79.6720  223.0220 C   0  0  0  0  0  0  0  0  0  0  0  0
  141.8410   78.6350  223.4280 C   0  0  0  0  0  0  0  0  0  0  0  0
  140.3690   78.6440  223.2920 C   0  0  0  0  0  0  0  0  0  0  0  0
  139.7590   79.7640  223.7190 N   0  0  0  0  0  0  0  0  0  0  0  0
  138.4250   79.9400  223.6360 C   0  0  0  0  0  0  0  0  0  0  0  0
  137.7870   81.0850  224.0700 C   0  0  0  0  0  0  0  0  0  0  0  0
  136.4260   81.2140  223.9620 C   0  0  0  0  0  0  0  0  0  0  0  0
  135.6810   80.1880  223.4140 C   0  0  0  0  0  0  0  0  0  0  0  0
  134.3360   80.3080  223.3050 F   0  0  0  0  0  0  0  0  0  0  0  0
  136.3340   79.0330  222.9770 C   0  0  0  0  0  0  0  0  0  0  0  0
  137.7070   78.9020  223.0850 C   0  0  0  0  0  0  0  0  0  0  0  0
  138.3630   77.7480  222.6500 C   0  0  0  0  0  0  0  0  0  0  0  0
  137.6150   76.8640  222.1620 O   0  0  0  0  0  0  0  0  0  0  0  0
  139.7020   77.6010  222.7480 N   0  0  0  0  0  0  0  0  0  0  0  0
  140.3820   76.4160  222.2950 C   0  0  0  0  0  0  0  0  0  0  0  0
  141.1870   76.5870  221.0260 C   0  0  0  0  0  0  0  0  0  0  0  0
  142.0520   75.4430  220.6600 C   0  0  0  0  0  0  0  0  0  0  0  0
  142.6450   75.6180  219.3030 C   0  0  0  0  0  0  0  0  0  0  0  0
  142.7000   77.0470  218.8170 C   0  0  0  0  0  0  0  0  0  0  0  0
  141.3550   77.7090  218.8370 C   0  0  0  0  0  0  0  0  0  0  0  0
  140.4180   77.0830  219.8530 C   0  0  0  0  0  0  0  0  0  0  0  0
  142.1980   80.3090  220.6680 C   0  0  0  0  0  0  0  0  0  0  0  0
  143.3520   81.1650  216.7750 H   0  0  0  0  0  0  0  0  0  0  0  0
  143.7310   79.9070  217.8420 H   0  0  0  0  0  0  0  0  0  0  0  0
  141.2704   81.3618  217.6288 H   0  0  0  0  0  0  0  0  0  0  0  0
  141.6443   79.6807  218.1959 H   0  0  0  0  0  0  0  0  0  0  0  0
  140.9436   83.1122  219.2063 H   0  0  0  0  0  0  0  0  0  0  0  0
  140.7633   83.7250  221.6065 H   0  0  0  0  0  0  0  0  0  0  0  0
  141.4914   82.1667  223.3683 H   0  0  0  0  0  0  0  0  0  0  0  0
  143.5457   79.8226  223.4713 H   0  0  0  0  0  0  0  0  0  0  0  0
  142.3455   77.7624  223.8685 H   0  0  0  0  0  0  0  0  0  0  0  0
  138.3774   81.9035  224.5076 H   0  0  0  0  0  0  0  0  0  0  0  0
  135.9292   82.1314  224.3106 H   0  0  0  0  0  0  0  0  0  0  0  0
  135.7460   78.2129  222.5392 H   0  0  0  0  0  0  0  0  0  0  0  0
  141.0664   76.0895  223.0919 H   0  0  0  0  0  0  0  0  0  0  0  0
  139.5974   75.6802  222.0647 H   0  0  0  0  0  0  0  0  0  0  0  0
  141.8701   77.3992  221.3152 H   0  0  0  0  0  0  0  0  0  0  0  0
  142.8644   75.3591  221.3969 H   0  0  0  0  0  0  0  0  0  0  0  0
  141.4348   74.5325  220.6520 H   0  0  0  0  0  0  0  0  0  0  0  0
  143.6717   75.2238  219.3244 H   0  0  0  0  0  0  0  0  0  0  0  0
  141.9881   75.0779  218.6052 H   0  0  0  0  0  0  0  0  0  0  0  0
  143.3830   77.6149  219.4658 H   0  0  0  0  0  0  0  0  0  0  0  0
  143.0522   77.0338  217.7750 H   0  0  0  0  0  0  0  0  0  0  0  0
  141.4880   78.7720  219.0869 H   0  0  0  0  0  0  0  0  0  0  0  0
  140.9038   77.5826  217.8418 H   0  0  0  0  0  0  0  0  0  0  0  0
  139.6902   77.8366  220.1883 H   0  0  0  0  0  0  0  0  0  0  0  0
  139.8945   76.2368  219.3839 H   0  0  0  0  0  0  0  0  0  0  0  0
  142.6086   79.3308  220.3772 H   0  0  0  0  0  0  0  0  0  0  0  0
  1  2  1  0
  2  3  1  0
  3  4  2  0
  4  5  1  0
  5  6  2  0
  6  7  1  0
  7  8  1  0
  8  9  2  0
  9 10  1  0
 10 11  2  0
 11 12  1  0
 12 13  2  0
 13 14  1  0
 14 15  2  0
 15 16  1  0
 15 17  1  0
 17 18  2  0
 18 19  1  0
 19 20  2  0
 19 21  1  0
 21 22  1  0
 22 23  1  0
 23 24  1  0
 24 25  1  0
 25 26  1  0
 26 27  1  0
 27 28  1  0
  7 29  2  0
 29  3  1  0
 21 10  1  0
 28 23  1  0
 18 12  1  0
  1 30  1  0
  1 31  1  0
  2 32  1  0
  2 33  1  0
  4 34  1  0
  5 35  1  0
  6 36  1  0
  8 37  1  0
  9 38  1  0
 13 39  1  0
 14 40  1  0
 17 41  1  0
 22 42  1  0
 22 43  1  0
 23 44  1  0
 24 45  1  0
 24 46  1  0
 25 47  1  0
 25 48  1  0
 26 49  1  0
 26 50  1  0
 27 51  1  0
 27 52  1  0
 28 53  1  0
 28 54  1  0
 29 55  1  0
M  END
>  <smiles>  (43) 
NCc1cccc(/C=C/c2nc3ccc(F)cc3c(=O)n2CC2CCCCC2)c1

>  <score_type>  (43) 
oracle

>  <origin>  (43) 
autodockgpu

>  <m_score__min__energy>  (43) 
-8.4499999999999993

>  <m_primary>  (43) 
energy

>  <rmsd>  (43) 
4.0307937712636335

>  <m_score__min__rmsd>  (43) 
4.0307937712636335

>  <meeko>  (43) 
{"free_energy": -6.76, "intermolecular_energy": -8.85, "internal_energy": -2.28, "cluster_size": 8, "cluster_id": 10, "rank_in_cluster": 1}

>  <energy>  (43) 
-6.34

>  <cluster_rmsd>  (43) 
0.59

>  <cluster>  (43) 
10

$$$$

     RDKit          3D

 55 58  0  0  0  0  0  0  0  0999 V2000
  146.3220   73.4130  219.2240 N   0  0  0  0  0  0  0  0  0  0  0  0
  145.3420   72.4460  219.7100 C   0  0  0  0  0  0  0  0  0  0  0  0
  144.0680   73.1090  220.1200 C   0  0  0  0  0  0  0  0  0  0  0  0
  143.9090   74.4710  220.0020 C   0  0  0  0  0  0  0  0  0  0  0  0
  142.7090   75.0080  220.3990 C   0  0  0  0  0  0  0  0  0  0  0  0
  141.6910   74.2050  220.9010 C   0  0  0  0  0  0  0  0  0  0  0  0
  141.8310   72.8390  221.0270 C   0  0  0  0  0  0  0  0  0  0  0  0
  140.7990   71.9620  221.5460 C   0  0  0  0  0  0  0  0  0  0  0  0
  140.0850   72.2140  222.6290 C   0  0  0  0  0  0  0  0  0  0  0  0
  139.9790   71.2030  223.7020 C   0  0  0  0  0  0  0  0  0  0  0  0
  140.5680   71.5350  224.8650 N   0  0  0  0  0  0  0  0  0  0  0  0
  140.5370   70.7350  225.9480 C   0  0  0  0  0  0  0  0  0  0  0  0
  141.1370   71.0640  227.1470 C   0  0  0  0  0  0  0  0  0  0  0  0
  141.0750   70.2130  228.2220 C   0  0  0  0  0  0  0  0  0  0  0  0
  140.4040   69.0110  228.1060 C   0  0  0  0  0  0  0  0  0  0  0  0
  140.3390   68.1660  229.1620 F   0  0  0  0  0  0  0  0  0  0  0  0
  139.7990   68.6850  226.8890 C   0  0  0  0  0  0  0  0  0  0  0  0
  139.8610   69.5430  225.8060 C   0  0  0  0  0  0  0  0  0  0  0  0
  139.2580   69.2200  224.5880 C   0  0  0  0  0  0  0  0  0  0  0  0
  138.6670   68.1120  224.5660 O   0  0  0  0  0  0  0  0  0  0  0  0
  139.3090   70.0430  223.5190 N   0  0  0  0  0  0  0  0  0  0  0  0
  138.6830   69.7160  222.2640 C   0  0  0  0  0  0  0  0  0  0  0  0
  139.4950   68.8110  221.3640 C   0  0  0  0  0  0  0  0  0  0  0  0
  139.1710   67.3690  221.4500 C   0  0  0  0  0  0  0  0  0  0  0  0
  139.8710   66.5870  220.3900 C   0  0  0  0  0  0  0  0  0  0  0  0
  141.1000   67.2540  219.8220 C   0  0  0  0  0  0  0  0  0  0  0  0
  140.8100   68.6250  219.2870 C   0  0  0  0  0  0  0  0  0  0  0  0
  139.6020   69.2590  219.9490 C   0  0  0  0  0  0  0  0  0  0  0  0
  143.0560   72.3170  220.6190 C   0  0  0  0  0  0  0  0  0  0  0  0
  146.4010   74.2540  219.8430 H   0  0  0  0  0  0  0  0  0  0  0  0
  145.9610   73.7570  218.2870 H   0  0  0  0  0  0  0  0  0  0  0  0
  145.1262   71.7238  218.9088 H   0  0  0  0  0  0  0  0  0  0  0  0
  145.7654   71.9422  220.5914 H   0  0  0  0  0  0  0  0  0  0  0  0
  144.7139   75.1064  219.6041 H   0  0  0  0  0  0  0  0  0  0  0  0
  142.5503   76.0935  220.3183 H   0  0  0  0  0  0  0  0  0  0  0  0
  140.7443   74.6741  221.2072 H   0  0  0  0  0  0  0  0  0  0  0  0
  140.5977   71.0267  221.0031 H   0  0  0  0  0  0  0  0  0  0  0  0
  139.5679   73.1793  222.7323 H   0  0  0  0  0  0  0  0  0  0  0  0
  141.6717   72.0206  227.2420 H   0  0  0  0  0  0  0  0  0  0  0  0
  141.5575   70.4868  229.1718 H   0  0  0  0  0  0  0  0  0  0  0  0
  139.2639   67.7289  226.7908 H   0  0  0  0  0  0  0  0  0  0  0  0
  137.7272   69.2158  222.4790 H   0  0  0  0  0  0  0  0  0  0  0  0
  138.5651   70.6656  221.7214 H   0  0  0  0  0  0  0  0  0  0  0  0
  140.4984   68.9206  221.8011 H   0  0  0  0  0  0  0  0  0  0  0  0
  139.4803   66.9914  222.4358 H   0  0  0  0  0  0  0  0  0  0  0  0
  138.0868   67.2499  221.3074 H   0  0  0  0  0  0  0  0  0  0  0  0
  140.1734   65.6209  220.8203 H   0  0  0  0  0  0  0  0  0  0  0  0
  139.1594   66.4861  219.5573 H   0  0  0  0  0  0  0  0  0  0  0  0
  141.8560   67.3374  220.6167 H   0  0  0  0  0  0  0  0  0  0  0  0
  141.4609   66.6368  218.9860 H   0  0  0  0  0  0  0  0  0  0  0  0
  141.6865   69.2658  219.4631 H   0  0  0  0  0  0  0  0  0  0  0  0
  140.5920   68.5274  218.2133 H   0  0  0  0  0  0  0  0  0  0  0  0
  139.7059   70.3537  219.9217 H   0  0  0  0  0  0  0  0  0  0  0  0
  138.6949   68.9533  219.4070 H   0  0  0  0  0  0  0  0  0  0  0  0
  143.2222   71.2325  220.6979 H   0  0  0  0  0  0  0  0  0  0  0  0
  1  2  1  0
  2  3  1  0
  3  4  2  0
  4  5  1  0
  5  6  2  0
  6  7  1  0
  7  8  1  0
  8  9  2  0
  9 10  1  0
 10 11  2  0
 11 12  1  0
 12 13  2  0
 13 14  1  0
 14 15  2  0
 15 16  1  0
 15 17  1  0
 17 18  2  0
 18 19  1  0
 19 20  2  0
 19 21  1  0
 21 22  1  0
 22 23  1  0
 23 24  1  0
 24 25  1  0
 25 26  1  0
 26 27  1  0
 27 28  1  0
  7 29  2  0
 29  3  1  0
 21 10  1  0
 28 23  1  0
 18 12  1  0
  1 30  1  0
  1 31  1  0
  2 32  1  0
  2 33  1  0
  4 34  1  0
  5 35  1  0
  6 36  1  0
  8 37  1  0
  9 38  1  0
 13 39  1  0
 14 40  1  0
 17 41  1  0
 22 42  1  0
 22 43  1  0
 23 44  1  0
 24 45  1  0
 24 46  1  0
 25 47  1  0
 25 48  1  0
 26 49  1  0
 26 50  1  0
 27 51  1  0
 27 52  1  0
 28 53  1  0
 28 54  1  0
 29 55  1  0
M  END
>  <smiles>  (44) 
NCc1cccc(/C=C/c2nc3ccc(F)cc3c(=O)n2CC2CCCCC2)c1

>  <score_type>  (44) 
oracle

>  <origin>  (44) 
autodockgpu

>  <m_score__min__energy>  (44) 
-8.4499999999999993

>  <m_primary>  (44) 
energy

>  <rmsd>  (44) 
11.2002895899938

>  <m_score__min__rmsd>  (44) 
11.2002895899938

>  <meeko>  (44) 
{"free_energy": -8.23, "intermolecular_energy": -10.32, "internal_energy": -1.38, "cluster_size": 14, "cluster_id": 2, "rank_in_cluster": 3}

>  <energy>  (44) 
-6.33

>  <cluster_rmsd>  (44) 
0.0

>  <cluster>  (44) 
11

$$$$

     RDKit          3D

 55 58  0  0  0  0  0  0  0  0999 V2000
  135.7810   74.6180  224.5900 N   0  0  0  0  0  0  0  0  0  0  0  0
  134.4920   74.3880  225.2370 C   0  0  0  0  0  0  0  0  0  0  0  0
  134.3440   72.9710  225.6860 C   0  0  0  0  0  0  0  0  0  0  0  0
  133.5650   72.6520  226.7750 C   0  0  0  0  0  0  0  0  0  0  0  0
  133.4760   71.3280  227.1270 C   0  0  0  0  0  0  0  0  0  0  0  0
  134.1480   70.3450  226.4100 C   0  0  0  0  0  0  0  0  0  0  0  0
  134.9330   70.6440  225.3170 C   0  0  0  0  0  0  0  0  0  0  0  0
  135.6530   69.6540  224.5390 C   0  0  0  0  0  0  0  0  0  0  0  0
  136.9670   69.6290  224.4020 C   0  0  0  0  0  0  0  0  0  0  0  0
  137.6580   70.7060  223.6610 C   0  0  0  0  0  0  0  0  0  0  0  0
  136.8570   71.5210  222.9510 N   0  0  0  0  0  0  0  0  0  0  0  0
  137.3290   72.5660  222.2450 C   0  0  0  0  0  0  0  0  0  0  0  0
  136.5190   73.4110  221.5130 C   0  0  0  0  0  0  0  0  0  0  0  0
  137.0500   74.4630  220.8120 C   0  0  0  0  0  0  0  0  0  0  0  0
  138.4140   74.6840  220.8360 C   0  0  0  0  0  0  0  0  0  0  0  0
  138.9460   75.7200  220.1450 F   0  0  0  0  0  0  0  0  0  0  0  0
  139.2280   73.8250  221.5790 C   0  0  0  0  0  0  0  0  0  0  0  0
  138.6930   72.7640  222.2870 C   0  0  0  0  0  0  0  0  0  0  0  0
  139.5040   71.9030  223.0300 C   0  0  0  0  0  0  0  0  0  0  0  0
  140.7300   72.1730  223.0020 O   0  0  0  0  0  0  0  0  0  0  0  0
  139.0000   70.8620  223.7270 N   0  0  0  0  0  0  0  0  0  0  0  0
  139.8320   69.9770  224.4990 C   0  0  0  0  0  0  0  0  0  0  0  0
  140.1940   70.4820  225.8780 C   0  0  0  0  0  0  0  0  0  0  0  0
  140.2210   69.4570  226.9460 C   0  0  0  0  0  0  0  0  0  0  0  0
  140.7800   70.0050  228.2150 C   0  0  0  0  0  0  0  0  0  0  0  0
  140.7110   71.5080  228.3390 C   0  0  0  0  0  0  0  0  0  0  0  0
  141.3710   72.2070  227.1890 C   0  0  0  0  0  0  0  0  0  0  0  0
  141.3980   71.3550  225.9340 C   0  0  0  0  0  0  0  0  0  0  0  0
  135.0090   71.9920  224.9780 C   0  0  0  0  0  0  0  0  0  0  0  0
  136.2000   73.7390  224.2040 H   0  0  0  0  0  0  0  0  0  0  0  0
  136.4370   74.9610  225.3500 H   0  0  0  0  0  0  0  0  0  0  0  0
  134.4092   75.0496  226.1119 H   0  0  0  0  0  0  0  0  0  0  0  0
  133.6985   74.6005  224.5055 H   0  0  0  0  0  0  0  0  0  0  0  0
  133.0331   73.4297  227.3427 H   0  0  0  0  0  0  0  0  0  0  0  0
  132.8614   71.0397  227.9926 H   0  0  0  0  0  0  0  0  0  0  0  0
  134.0503   69.2955  226.7246 H   0  0  0  0  0  0  0  0  0  0  0  0
  135.0676   68.8739  224.0304 H   0  0  0  0  0  0  0  0  0  0  0  0
  137.5485   68.8046  224.8404 H   0  0  0  0  0  0  0  0  0  0  0  0
  135.4329   73.2380  221.4919 H   0  0  0  0  0  0  0  0  0  0  0  0
  136.3929   75.1284  220.2328 H   0  0  0  0  0  0  0  0  0  0  0  0
  140.3144   73.9957  221.6013 H   0  0  0  0  0  0  0  0  0  0  0  0
  139.2993   69.0215  224.6143 H   0  0  0  0  0  0  0  0  0  0  0  0
  140.7788   69.8847  223.9467 H   0  0  0  0  0  0  0  0  0  0  0  0
  139.3315   71.1269  226.1021 H   0  0  0  0  0  0  0  0  0  0  0  0
  139.1951   69.1052  227.1298 H   0  0  0  0  0  0  0  0  0  0  0  0
  140.8651   68.6294  226.6140 H   0  0  0  0  0  0  0  0  0  0  0  0
  140.2196   69.5662  229.0537 H   0  0  0  0  0  0  0  0  0  0  0  0
  141.8480   69.7419  228.2225 H   0  0  0  0  0  0  0  0  0  0  0  0
  139.6543   71.8112  228.3773 H   0  0  0  0  0  0  0  0  0  0  0  0
  141.2458   71.7938  229.2568 H   0  0  0  0  0  0  0  0  0  0  0  0
  140.8189   73.1341  226.9750 H   0  0  0  0  0  0  0  0  0  0  0  0
  142.4123   72.4156  227.4757 H   0  0  0  0  0  0  0  0  0  0  0  0
  141.4129   72.0102  225.0506 H   0  0  0  0  0  0  0  0  0  0  0  0
  142.2984   70.7233  225.9490 H   0  0  0  0  0  0  0  0  0  0  0  0
  135.6220   72.2872  224.1136 H   0  0  0  0  0  0  0  0  0  0  0  0
  1  2  1  0
  2  3  1  0
  3  4  2  0
  4  5  1  0
  5  6  2  0
  6  7  1  0
  7  8  1  0
  8  9  2  0
  9 10  1  0
 10 11  2  0
 11 12  1  0
 12 13  2  0
 13 14  1  0
 14 15  2  0
 15 16  1  0
 15 17  1  0
 17 18  2  0
 18 19  1  0
 19 20  2  0
 19 21  1  0
 21 22  1  0
 22 23  1  0
 23 24  1  0
 24 25  1  0
 25 26  1  0
 26 27  1  0
 27 28  1  0
  7 29  2  0
 29  3  1  0
 21 10  1  0
 28 23  1  0
 18 12  1  0
  1 30  1  0
  1 31  1  0
  2 32  1  0
  2 33  1  0
  4 34  1  0
  5 35  1  0
  6 36  1  0
  8 37  1  0
  9 38  1  0
 13 39  1  0
 14 40  1  0
 17 41  1  0
 22 42  1  0
 22 43  1  0
 23 44  1  0
 24 45  1  0
 24 46  1  0
 25 47  1  0
 25 48  1  0
 26 49  1  0
 26 50  1  0
 27 51  1  0
 27 52  1  0
 28 53  1  0
 28 54  1  0
 29 55  1  0
M  END
>  <smiles>  (45) 
NCc1cccc(/C=C/c2nc3ccc(F)cc3c(=O)n2CC2CCCCC2)c1

>  <score_type>  (45) 
oracle

>  <origin>  (45) 
autodockgpu

>  <m_score__min__energy>  (45) 
-8.4499999999999993

>  <m_primary>  (45) 
energy

>  <rmsd>  (45) 
9.832388956798694

>  <m_score__min__rmsd>  (45) 
9.832388956798694

>  <meeko>  (45) 
{"free_energy": -7.27, "intermolecular_energy": -9.36, "internal_energy": -1.81, "cluster_size": 2, "cluster_id": 8, "rank_in_cluster": 1}

>  <energy>  (45) 
-6.12

>  <cluster_rmsd>  (45) 
0.0

>  <cluster>  (45) 
12

$$$$

     RDKit          3D

 55 58  0  0  0  0  0  0  0  0999 V2000
  146.3240   73.2070  218.8680 N   0  0  0  0  0  0  0  0  0  0  0  0
  145.9220   73.3150  220.2670 C   0  0  0  0  0  0  0  0  0  0  0  0
  144.4840   73.6970  220.4010 C   0  0  0  0  0  0  0  0  0  0  0  0
  144.0570   74.9680  220.0920 C   0  0  0  0  0  0  0  0  0  0  0  0
  142.7200   75.2430  220.2400 C   0  0  0  0  0  0  0  0  0  0  0  0
  141.8290   74.2730  220.6860 C   0  0  0  0  0  0  0  0  0  0  0  0
  142.2370   72.9950  221.0020 C   0  0  0  0  0  0  0  0  0  0  0  0
  141.3460   71.9510  221.4710 C   0  0  0  0  0  0  0  0  0  0  0  0
  140.8570   71.8870  222.6970 C   0  0  0  0  0  0  0  0  0  0  0  0
  139.3960   71.9150  222.9180 C   0  0  0  0  0  0  0  0  0  0  0  0
  138.7260   72.8460  222.2150 N   0  0  0  0  0  0  0  0  0  0  0  0
  137.3870   72.9810  222.2820 C   0  0  0  0  0  0  0  0  0  0  0  0
  136.6880   73.9320  221.5660 C   0  0  0  0  0  0  0  0  0  0  0  0
  135.3230   74.0270  221.6700 C   0  0  0  0  0  0  0  0  0  0  0  0
  134.6370   73.1630  222.5010 C   0  0  0  0  0  0  0  0  0  0  0  0
  133.2900   73.2510  222.6100 F   0  0  0  0  0  0  0  0  0  0  0  0
  135.3530   72.2040  223.2230 C   0  0  0  0  0  0  0  0  0  0  0  0
  136.7280   72.1070  223.1180 C   0  0  0  0  0  0  0  0  0  0  0  0
  137.4460   71.1490  223.8390 C   0  0  0  0  0  0  0  0  0  0  0  0
  136.7490   70.4020  224.5690 O   0  0  0  0  0  0  0  0  0  0  0  0
  138.7890   71.0400  223.7500 N   0  0  0  0  0  0  0  0  0  0  0  0
  139.5310   70.0510  224.4880 C   0  0  0  0  0  0  0  0  0  0  0  0
  139.9780   70.4850  225.8660 C   0  0  0  0  0  0  0  0  0  0  0  0
  140.1920   69.3920  226.8410 C   0  0  0  0  0  0  0  0  0  0  0  0
  140.8210   69.8940  228.0960 C   0  0  0  0  0  0  0  0  0  0  0  0
  140.6360   71.3710  228.3480 C   0  0  0  0  0  0  0  0  0  0  0  0
  141.1230   72.2100  227.2050 C   0  0  0  0  0  0  0  0  0  0  0  0
  141.1030   71.4580  225.8880 C   0  0  0  0  0  0  0  0  0  0  0  0
  143.5970   72.7380  220.8440 C   0  0  0  0  0  0  0  0  0  0  0  0
  146.6620   74.1170  218.4740 H   0  0  0  0  0  0  0  0  0  0  0  0
  145.4490   72.9460  218.3270 H   0  0  0  0  0  0  0  0  0  0  0  0
  146.0803   72.3441  220.7593 H   0  0  0  0  0  0  0  0  0  0  0  0
  146.5307   74.1003  220.7389 H   0  0  0  0  0  0  0  0  0  0  0  0
  144.7612   75.7359  219.7392 H   0  0  0  0  0  0  0  0  0  0  0  0
  142.3466   76.2497  220.0012 H   0  0  0  0  0  0  0  0  0  0  0  0
  140.7654   74.5338  220.7898 H   0  0  0  0  0  0  0  0  0  0  0  0
  141.0589   71.1618  220.7605 H   0  0  0  0  0  0  0  0  0  0  0  0
  141.5399   71.8126  223.5562 H   0  0  0  0  0  0  0  0  0  0  0  0
  137.2318   74.6220  220.9041 H   0  0  0  0  0  0  0  0  0  0  0  0
  134.7771   74.7885  221.0936 H   0  0  0  0  0  0  0  0  0  0  0  0
  134.8123   71.5136  223.8871 H   0  0  0  0  0  0  0  0  0  0  0  0
  138.8950   69.1605  224.6001 H   0  0  0  0  0  0  0  0  0  0  0  0
  140.4489   69.8620  223.9121 H   0  0  0  0  0  0  0  0  0  0  0  0
  139.0889   71.0304  226.2152 H   0  0  0  0  0  0  0  0  0  0  0  0
  139.2213   68.9360  227.0854 H   0  0  0  0  0  0  0  0  0  0  0  0
  140.8690   68.6530  226.3876 H   0  0  0  0  0  0  0  0  0  0  0  0
  140.3828   69.3446  228.9423 H   0  0  0  0  0  0  0  0  0  0  0  0
  141.9034   69.7308  227.9875 H   0  0  0  0  0  0  0  0  0  0  0  0
  139.5656   71.5718  228.5030 H   0  0  0  0  0  0  0  0  0  0  0  0
  141.2281   71.6370  229.2361 H   0  0  0  0  0  0  0  0  0  0  0  0
  140.4768   73.0958  227.1162 H   0  0  0  0  0  0  0  0  0  0  0  0
  142.1653   72.4918  227.4152 H   0  0  0  0  0  0  0  0  0  0  0  0
  140.9791   72.1747  225.0628 H   0  0  0  0  0  0  0  0  0  0  0  0
  142.0508   70.9117  225.7735 H   0  0  0  0  0  0  0  0  0  0  0  0
  143.9775   71.7335  221.0812 H   0  0  0  0  0  0  0  0  0  0  0  0
  1  2  1  0
  2  3  1  0
  3  4  2  0
  4  5  1  0
  5  6  2  0
  6  7  1  0
  7  8  1  0
  8  9  2  0
  9 10  1  0
 10 11  2  0
 11 12  1  0
 12 13  2  0
 13 14  1  0
 14 15  2  0
 15 16  1  0
 15 17  1  0
 17 18  2  0
 18 19  1  0
 19 20  2  0
 19 21  1  0
 21 22  1  0
 22 23  1  0
 23 24  1  0
 24 25  1  0
 25 26  1  0
 26 27  1  0
 27 28  1  0
  7 29  2  0
 29  3  1  0
 21 10  1  0
 28 23  1  0
 18 12  1  0
  1 30  1  0
  1 31  1  0
  2 32  1  0
  2 33  1  0
  4 34  1  0
  5 35  1  0
  6 36  1  0
  8 37  1  0
  9 38  1  0
 13 39  1  0
 14 40  1  0
 17 41  1  0
 22 42  1  0
 22 43  1  0
 23 44  1  0
 24 45  1  0
 24 46  1  0
 25 47  1  0
 25 48  1  0
 26 49  1  0
 26 50  1  0
 27 51  1  0
 27 52  1  0
 28 53  1  0
 28 54  1  0
 29 55  1  0
M  END
>  <smiles>  (46) 
NCc1cccc(/C=C/c2nc3ccc(F)cc3c(=O)n2CC2CCCCC2)c1

>  <score_type>  (46) 
oracle

>  <origin>  (46) 
autodockgpu

>  <m_score__min__energy>  (46) 
-8.4499999999999993

>  <m_primary>  (46) 
energy

>  <rmsd>  (46) 
10.40288472059753

>  <m_score__min__rmsd>  (46) 
10.40288472059753

>  <meeko>  (46) 
{"free_energy": -7.91, "intermolecular_energy": -10.0, "internal_energy": -1.23, "cluster_size": 6, "cluster_id": 3, "rank_in_cluster": 2}

>  <energy>  (46) 
-6.1

>  <cluster_rmsd>  (46) 
0.17

>  <cluster>  (46) 
12

$$$$

     RDKit          3D

 55 58  0  0  0  0  0  0  0  0999 V2000
  143.2370   81.0960  217.6150 N   0  0  0  0  0  0  0  0  0  0  0  0
  141.8490   80.9700  218.0480 C   0  0  0  0  0  0  0  0  0  0  0  0
  141.6800   81.3490  219.4830 C   0  0  0  0  0  0  0  0  0  0  0  0
  140.9780   82.4790  219.8380 C   0  0  0  0  0  0  0  0  0  0  0  0
  140.8640   82.7620  221.1770 C   0  0  0  0  0  0  0  0  0  0  0  0
  141.4370   81.9370  222.1390 C   0  0  0  0  0  0  0  0  0  0  0  0
  142.1440   80.8030  221.8030 C   0  0  0  0  0  0  0  0  0  0  0  0
  142.7590   79.9140  222.7700 C   0  0  0  0  0  0  0  0  0  0  0  0
  142.1330   78.9100  223.3600 C   0  0  0  0  0  0  0  0  0  0  0  0
  140.6660   78.7740  223.2380 C   0  0  0  0  0  0  0  0  0  0  0  0
  139.9480   79.7650  223.7960 N   0  0  0  0  0  0  0  0  0  0  0  0
  138.6020   79.8030  223.7470 C   0  0  0  0  0  0  0  0  0  0  0  0
  137.8540   80.8140  224.3150 C   0  0  0  0  0  0  0  0  0  0  0  0
  136.4850   80.8060  224.2350 C   0  0  0  0  0  0  0  0  0  0  0  0
  135.8430   79.7740  223.5790 C   0  0  0  0  0  0  0  0  0  0  0  0
  134.4910   79.7570  223.4960 F   0  0  0  0  0  0  0  0  0  0  0  0
  136.6070   78.7530  223.0060 C   0  0  0  0  0  0  0  0  0  0  0  0
  137.9880   78.7610  223.0850 C   0  0  0  0  0  0  0  0  0  0  0  0
  138.7550   77.7430  222.5150 C   0  0  0  0  0  0  0  0  0  0  0  0
  138.0960   76.8440  221.9350 O   0  0  0  0  0  0  0  0  0  0  0  0
  140.1030   77.7330  222.5830 N   0  0  0  0  0  0  0  0  0  0  0  0
  140.8970   76.6880  221.9910 C   0  0  0  0  0  0  0  0  0  0  0  0
  141.4270   76.9950  220.6080 C   0  0  0  0  0  0  0  0  0  0  0  0
  142.5050   76.1030  220.1260 C   0  0  0  0  0  0  0  0  0  0  0  0
  142.8200   76.3520  218.6890 C   0  0  0  0  0  0  0  0  0  0  0  0
  142.4120   77.7140  218.1800 C   0  0  0  0  0  0  0  0  0  0  0  0
  140.9550   77.9940  218.4040 C   0  0  0  0  0  0  0  0  0  0  0  0
  140.3870   77.2000  219.5650 C   0  0  0  0  0  0  0  0  0  0  0  0
  142.2460   80.5350  220.4410 C   0  0  0  0  0  0  0  0  0  0  0  0
  143.3250   81.2410  216.5810 H   0  0  0  0  0  0  0  0  0  0  0  0
  143.7020   80.1670  217.8340 H   0  0  0  0  0  0  0  0  0  0  0  0
  141.2217   81.6286  217.4293 H   0  0  0  0  0  0  0  0  0  0  0  0
  141.5491   79.9178  217.9342 H   0  0  0  0  0  0  0  0  0  0  0  0
  140.5250   83.1313  219.0769 H   0  0  0  0  0  0  0  0  0  0  0  0
  140.3095   83.6574  221.4944 H   0  0  0  0  0  0  0  0  0  0  0  0
  141.3222   82.1980  223.2014 H   0  0  0  0  0  0  0  0  0  0  0  0
  143.8141   80.0862  223.0292 H   0  0  0  0  0  0  0  0  0  0  0  0
  142.7054   78.1737  223.9433 H   0  0  0  0  0  0  0  0  0  0  0  0
  138.3624   81.6369  224.8387 H   0  0  0  0  0  0  0  0  0  0  0  0
  135.9005   81.6184  224.6915 H   0  0  0  0  0  0  0  0  0  0  0  0
  136.1008   77.9283  222.4828 H   0  0  0  0  0  0  0  0  0  0  0  0
  141.7559   76.4962  222.6510 H   0  0  0  0  0  0  0  0  0  0  0  0
  140.2302   75.8202  221.8796 H   0  0  0  0  0  0  0  0  0  0  0  0
  141.8985   77.9750  220.7734 H   0  0  0  0  0  0  0  0  0  0  0  0
  143.4099   76.2796  220.7260 H   0  0  0  0  0  0  0  0  0  0  0  0
  142.1634   75.0624  220.2289 H   0  0  0  0  0  0  0  0  0  0  0  0
  143.9065   76.2469  218.5533 H   0  0  0  0  0  0  0  0  0  0  0  0
  142.2386   75.6179  218.1119 H   0  0  0  0  0  0  0  0  0  0  0  0
  143.0037   78.4790  218.7040 H   0  0  0  0  0  0  0  0  0  0  0  0
  142.5956   77.7363  217.0956 H   0  0  0  0  0  0  0  0  0  0  0  0
  140.8293   79.0664  218.6140 H   0  0  0  0  0  0  0  0  0  0  0  0
  140.4118   77.6957  217.4952 H   0  0  0  0  0  0  0  0  0  0  0  0
  139.5397   77.7498  220.0006 H   0  0  0  0  0  0  0  0  0  0  0  0
  140.0508   76.2193  219.1973 H   0  0  0  0  0  0  0  0  0  0  0  0
  142.7986   79.6408  220.1170 H   0  0  0  0  0  0  0  0  0  0  0  0
  1  2  1  0
  2  3  1  0
  3  4  2  0
  4  5  1  0
  5  6  2  0
  6  7  1  0
  7  8  1  0
  8  9  2  0
  9 10  1  0
 10 11  2  0
 11 12  1  0
 12 13  2  0
 13 14  1  0
 14 15  2  0
 15 16  1  0
 15 17  1  0
 17 18  2  0
 18 19  1  0
 19 20  2  0
 19 21  1  0
 21 22  1  0
 22 23  1  0
 23 24  1  0
 24 25  1  0
 25 26  1  0
 26 27  1  0
 27 28  1  0
  7 29  2  0
 29  3  1  0
 21 10  1  0
 28 23  1  0
 18 12  1  0
  1 30  1  0
  1 31  1  0
  2 32  1  0
  2 33  1  0
  4 34  1  0
  5 35  1  0
  6 36  1  0
  8 37  1  0
  9 38  1  0
 13 39  1  0
 14 40  1  0
 17 41  1  0
 22 42  1  0
 22 43  1  0
 23 44  1  0
 24 45  1  0
 24 46  1  0
 25 47  1  0
 25 48  1  0
 26 49  1  0
 26 50  1  0
 27 51  1  0
 27 52  1  0
 28 53  1  0
 28 54  1  0
 29 55  1  0
M  END
>  <smiles>  (47) 
NCc1cccc(/C=C/c2nc3ccc(F)cc3c(=O)n2CC2CCCCC2)c1

>  <score_type>  (47) 
oracle

>  <origin>  (47) 
autodockgpu

>  <m_score__min__energy>  (47) 
-8.4499999999999993

>  <m_primary>  (47) 
energy

>  <rmsd>  (47) 
3.978856210371691

>  <m_score__min__rmsd>  (47) 
3.978856210371691

>  <meeko>  (47) 
{"free_energy": -6.68, "intermolecular_energy": -8.77, "internal_energy": -2.41, "cluster_size": 8, "cluster_id": 10, "rank_in_cluster": 3}

>  <energy>  (47) 
-6.09

>  <cluster_rmsd>  (47) 
0.08

>  <cluster>  (47) 
12

$$$$

     RDKit          3D

 55 58  0  0  0  0  0  0  0  0999 V2000
  142.3850   77.6730  219.7260 N   0  0  0  0  0  0  0  0  0  0  0  0
  142.1810   78.7970  218.8170 C   0  0  0  0  0  0  0  0  0  0  0  0
  141.9120   80.0660  219.5570 C   0  0  0  0  0  0  0  0  0  0  0  0
  141.6260   81.2310  218.8830 C   0  0  0  0  0  0  0  0  0  0  0  0
  141.3890   82.3570  219.6330 C   0  0  0  0  0  0  0  0  0  0  0  0
  141.4360   82.3210  221.0220 C   0  0  0  0  0  0  0  0  0  0  0  0
  141.7220   81.1650  221.7150 C   0  0  0  0  0  0  0  0  0  0  0  0
  141.7830   81.0790  223.1620 C   0  0  0  0  0  0  0  0  0  0  0  0
  141.6310   79.9590  223.8460 C   0  0  0  0  0  0  0  0  0  0  0  0
  140.7250   78.9010  223.3510 C   0  0  0  0  0  0  0  0  0  0  0  0
  141.3330   77.8270  222.8160 N   0  0  0  0  0  0  0  0  0  0  0  0
  140.6490   76.7660  222.3460 C   0  0  0  0  0  0  0  0  0  0  0  0
  141.2610   75.6570  221.7960 C   0  0  0  0  0  0  0  0  0  0  0  0
  140.5170   74.6020  221.3320 C   0  0  0  0  0  0  0  0  0  0  0  0
  139.1390   74.6450  221.4140 C   0  0  0  0  0  0  0  0  0  0  0  0
  138.3980   73.6080  220.9570 F   0  0  0  0  0  0  0  0  0  0  0  0
  138.5270   75.7710  221.9720 C   0  0  0  0  0  0  0  0  0  0  0  0
  139.2760   76.8350  222.4400 C   0  0  0  0  0  0  0  0  0  0  0  0
  138.6670   77.9630  222.9980 C   0  0  0  0  0  0  0  0  0  0  0  0
  137.4130   77.9230  223.0380 O   0  0  0  0  0  0  0  0  0  0  0  0
  139.3820   79.0110  223.4600 N   0  0  0  0  0  0  0  0  0  0  0  0
  138.7580   80.1720  224.0410 C   0  0  0  0  0  0  0  0  0  0  0  0
  138.4300   81.2770  223.0610 C   0  0  0  0  0  0  0  0  0  0  0  0
  138.4160   80.8810  221.6350 C   0  0  0  0  0  0  0  0  0  0  0  0
  137.8890   81.9750  220.7690 C   0  0  0  0  0  0  0  0  0  0  0  0
  137.9760   83.3560  221.3730 C   0  0  0  0  0  0  0  0  0  0  0  0
  137.2990   83.4390  222.7080 C   0  0  0  0  0  0  0  0  0  0  0  0
  137.2370   82.0950  223.4080 C   0  0  0  0  0  0  0  0  0  0  0  0
  141.9590   80.0360  220.9360 C   0  0  0  0  0  0  0  0  0  0  0  0
  142.0070   77.8570  220.6850 H   0  0  0  0  0  0  0  0  0  0  0  0
  143.4360   77.5610  219.8290 H   0  0  0  0  0  0  0  0  0  0  0  0
  143.0845   78.9272  218.2032 H   0  0  0  0  0  0  0  0  0  0  0  0
  141.3056   78.5748  218.1891 H   0  0  0  0  0  0  0  0  0  0  0  0
  141.5886   81.2595  217.7840 H   0  0  0  0  0  0  0  0  0  0  0  0
  141.1577   83.3050  219.1252 H   0  0  0  0  0  0  0  0  0  0  0  0
  141.2386   83.2448  221.5856 H   0  0  0  0  0  0  0  0  0  0  0  0
  141.9676   82.0055  223.7255 H   0  0  0  0  0  0  0  0  0  0  0  0
  142.1808   79.8132  224.7875 H   0  0  0  0  0  0  0  0  0  0  0  0
  142.3583   75.6191  221.7292 H   0  0  0  0  0  0  0  0  0  0  0  0
  141.0165   73.7243  220.8959 H   0  0  0  0  0  0  0  0  0  0  0  0
  137.4298   75.8115  222.0401 H   0  0  0  0  0  0  0  0  0  0  0  0
  137.8215   79.8522  224.5212 H   0  0  0  0  0  0  0  0  0  0  0  0
  139.4882   80.5933  224.7476 H   0  0  0  0  0  0  0  0  0  0  0  0
  139.3032   81.9349  223.1821 H   0  0  0  0  0  0  0  0  0  0  0  0
  139.4422   80.6395  221.3210 H   0  0  0  0  0  0  0  0  0  0  0  0
  137.7572   80.0069  221.5260 H   0  0  0  0  0  0  0  0  0  0  0  0
  138.4623   81.9750  219.8302 H   0  0  0  0  0  0  0  0  0  0  0  0
  136.8188   81.7670  220.6229 H   0  0  0  0  0  0  0  0  0  0  0  0
  139.0363   83.6211  221.4974 H   0  0  0  0  0  0  0  0  0  0  0  0
  137.4637   84.0526  220.6930 H   0  0  0  0  0  0  0  0  0  0  0  0
  137.8559   84.1432  223.3436 H   0  0  0  0  0  0  0  0  0  0  0  0
  136.2662   83.7784  222.5404 H   0  0  0  0  0  0  0  0  0  0  0  0
  137.2096   82.2535  224.4962 H   0  0  0  0  0  0  0  0  0  0  0  0
  136.3311   81.5630  223.0819 H   0  0  0  0  0  0  0  0  0  0  0  0
  142.1922   79.0853  221.4378 H   0  0  0  0  0  0  0  0  0  0  0  0
  1  2  1  0
  2  3  1  0
  3  4  2  0
  4  5  1  0
  5  6  2  0
  6  7  1  0
  7  8  1  0
  8  9  2  0
  9 10  1  0
 10 11  2  0
 11 12  1  0
 12 13  2  0
 13 14  1  0
 14 15  2  0
 15 16  1  0
 15 17  1  0
 17 18  2  0
 18 19  1  0
 19 20  2  0
 19 21  1  0
 21 22  1  0
 22 23  1  0
 23 24  1  0
 24 25  1  0
 25 26  1  0
 26 27  1  0
 27 28  1  0
  7 29  2  0
 29  3  1  0
 21 10  1  0
 28 23  1  0
 18 12  1  0
  1 30  1  0
  1 31  1  0
  2 32  1  0
  2 33  1  0
  4 34  1  0
  5 35  1  0
  6 36  1  0
  8 37  1  0
  9 38  1  0
 13 39  1  0
 14 40  1  0
 17 41  1  0
 22 42  1  0
 22 43  1  0
 23 44  1  0
 24 45  1  0
 24 46  1  0
 25 47  1  0
 25 48  1  0
 26 49  1  0
 26 50  1  0
 27 51  1  0
 27 52  1  0
 28 53  1  0
 28 54  1  0
 29 55  1  0
M  END
>  <smiles>  (48) 
NCc1cccc(/C=C/c2nc3ccc(F)cc3c(=O)n2CC2CCCCC2)c1

>  <score_type>  (48) 
oracle

>  <origin>  (48) 
autodockgpu

>  <m_score__min__energy>  (48) 
-8.4499999999999993

>  <m_primary>  (48) 
energy

>  <rmsd>  (48) 
6.7339132163022395

>  <m_score__min__rmsd>  (48) 
6.7339132163022395

>  <meeko>  (48) 
{"free_energy": -6.03, "intermolecular_energy": -8.12, "internal_energy": -2.92, "cluster_size": 6, "cluster_id": 12, "rank_in_cluster": 5}

>  <energy>  (48) 
-6.05

>  <cluster_rmsd>  (48) 
0.13

>  <cluster>  (48) 
12

$$$$

     RDKit          3D

 55 58  0  0  0  0  0  0  0  0999 V2000
  142.5650   77.5330  219.6650 N   0  0  0  0  0  0  0  0  0  0  0  0
  142.1960   78.6260  218.7710 C   0  0  0  0  0  0  0  0  0  0  0  0
  141.9190   79.8860  219.5230 C   0  0  0  0  0  0  0  0  0  0  0  0
  141.5110   81.0260  218.8670 C   0  0  0  0  0  0  0  0  0  0  0  0
  141.2750   82.1450  219.6260 C   0  0  0  0  0  0  0  0  0  0  0  0
  141.4420   82.1290  221.0060 C   0  0  0  0  0  0  0  0  0  0  0  0
  141.8510   80.9990  221.6800 C   0  0  0  0  0  0  0  0  0  0  0  0
  142.0400   80.9350  223.1170 C   0  0  0  0  0  0  0  0  0  0  0  0
  141.7130   79.8930  223.8630 C   0  0  0  0  0  0  0  0  0  0  0  0
  140.8040   78.8550  223.3340 C   0  0  0  0  0  0  0  0  0  0  0  0
  141.4090   77.7820  222.7930 N   0  0  0  0  0  0  0  0  0  0  0  0
  140.7210   76.7370  222.2930 C   0  0  0  0  0  0  0  0  0  0  0  0
  141.3290   75.6300  221.7360 C   0  0  0  0  0  0  0  0  0  0  0  0
  140.5820   74.5920  221.2410 C   0  0  0  0  0  0  0  0  0  0  0  0
  139.2030   74.6510  221.2990 C   0  0  0  0  0  0  0  0  0  0  0  0
  138.4580   73.6300  220.8120 F   0  0  0  0  0  0  0  0  0  0  0  0
  138.5940   75.7750  221.8650 C   0  0  0  0  0  0  0  0  0  0  0  0
  139.3470   76.8220  222.3640 C   0  0  0  0  0  0  0  0  0  0  0  0
  138.7420   77.9470  222.9300 C   0  0  0  0  0  0  0  0  0  0  0  0
  137.4870   77.9220  222.9470 O   0  0  0  0  0  0  0  0  0  0  0  0
  139.4600   78.9790  223.4210 N   0  0  0  0  0  0  0  0  0  0  0  0
  138.8400   80.1380  224.0100 C   0  0  0  0  0  0  0  0  0  0  0  0
  138.4640   81.2270  223.0300 C   0  0  0  0  0  0  0  0  0  0  0  0
  138.4390   80.8220  221.6060 C   0  0  0  0  0  0  0  0  0  0  0  0
  137.8650   81.8950  220.7430 C   0  0  0  0  0  0  0  0  0  0  0  0
  137.9210   83.2820  221.3380 C   0  0  0  0  0  0  0  0  0  0  0  0
  137.2620   83.3520  222.6830 C   0  0  0  0  0  0  0  0  0  0  0  0
  137.2520   82.0100  223.3920 C   0  0  0  0  0  0  0  0  0  0  0  0
  142.0840   79.8760  220.8920 C   0  0  0  0  0  0  0  0  0  0  0  0
  142.2540   77.6970  220.6520 H   0  0  0  0  0  0  0  0  0  0  0  0
  143.6260   77.5060  219.6800 H   0  0  0  0  0  0  0  0  0  0  0  0
  143.0223   78.8053  218.0674 H   0  0  0  0  0  0  0  0  0  0  0  0
  141.2787   78.3370  218.2370 H   0  0  0  0  0  0  0  0  0  0  0  0
  141.3791   81.0393  217.7750 H   0  0  0  0  0  0  0  0  0  0  0  0
  140.9475   83.0721  219.1329 H   0  0  0  0  0  0  0  0  0  0  0  0
  141.2414   83.0471  221.5777 H   0  0  0  0  0  0  0  0  0  0  0  0
  142.4833   81.8083  223.6178 H   0  0  0  0  0  0  0  0  0  0  0  0
  142.1192   79.7987  224.8809 H   0  0  0  0  0  0  0  0  0  0  0  0
  142.4268   75.5798  221.6886 H   0  0  0  0  0  0  0  0  0  0  0  0
  141.0790   73.7156  220.7994 H   0  0  0  0  0  0  0  0  0  0  0  0
  137.4963   75.8274  221.9143 H   0  0  0  0  0  0  0  0  0  0  0  0
  137.9247   79.8111  224.5251 H   0  0  0  0  0  0  0  0  0  0  0  0
  139.5877   80.5771  224.6868 H   0  0  0  0  0  0  0  0  0  0  0  0
  139.3186   81.9118  223.1333 H   0  0  0  0  0  0  0  0  0  0  0  0
  139.4668   80.6097  221.2765 H   0  0  0  0  0  0  0  0  0  0  0  0
  137.8055   79.9276  221.5124 H   0  0  0  0  0  0  0  0  0  0  0  0
  138.4222   81.9064  219.7946 H   0  0  0  0  0  0  0  0  0  0  0  0
  136.7991   81.6544  220.6164 H   0  0  0  0  0  0  0  0  0  0  0  0
  138.9748   83.5787  221.4447 H   0  0  0  0  0  0  0  0  0  0  0  0
  137.3789   83.9598  220.6623 H   0  0  0  0  0  0  0  0  0  0  0  0
  137.8065   84.0768  223.3060 H   0  0  0  0  0  0  0  0  0  0  0  0
  136.2168   83.6583  222.5292 H   0  0  0  0  0  0  0  0  0  0  0  0
  137.2372   82.1741  224.4796 H   0  0  0  0  0  0  0  0  0  0  0  0
  136.3576   81.4487  223.0839 H   0  0  0  0  0  0  0  0  0  0  0  0
  142.4119   78.9459  221.3792 H   0  0  0  0  0  0  0  0  0  0  0  0
  1  2  1  0
  2  3  1  0
  3  4  2  0
  4  5  1  0
  5  6  2  0
  6  7  1  0
  7  8  1  0
  8  9  2  0
  9 10  1  0
 10 11  2  0
 11 12  1  0
 12 13  2  0
 13 14  1  0
 14 15  2  0
 15 16  1  0
 15 17  1  0
 17 18  2  0
 18 19  1  0
 19 20  2  0
 19 21  1  0
 21 22  1  0
 22 23  1  0
 23 24  1  0
 24 25  1  0
 25 26  1  0
 26 27  1  0
 27 28  1  0
  7 29  2  0
 29  3  1  0
 21 10  1  0
 28 23  1  0
 18 12  1  0
  1 30  1  0
  1 31  1  0
  2 32  1  0
  2 33  1  0
  4 34  1  0
  5 35  1  0
  6 36  1  0
  8 37  1  0
  9 38  1  0
 13 39  1  0
 14 40  1  0
 17 41  1  0
 22 42  1  0
 22 43  1  0
 23 44  1  0
 24 45  1  0
 24 46  1  0
 25 47  1  0
 25 48  1  0
 26 49  1  0
 26 50  1  0
 27 51  1  0
 27 52  1  0
 28 53  1  0
 28 54  1  0
 29 55  1  0
M  END
>  <smiles>  (49) 
NCc1cccc(/C=C/c2nc3ccc(F)cc3c(=O)n2CC2CCCCC2)c1

>  <score_type>  (49) 
oracle

>  <origin>  (49) 
autodockgpu

>  <m_score__min__energy>  (49) 
-8.4499999999999993

>  <m_primary>  (49) 
energy

>  <rmsd>  (49) 
6.69544139117485

>  <m_score__min__rmsd>  (49) 
6.69544139117485

>  <meeko>  (49) 
{"free_energy": -6.09, "intermolecular_energy": -8.18, "internal_energy": -2.88, "cluster_size": 6, "cluster_id": 12, "rank_in_cluster": 3}

>  <energy>  (49) 
-6.03

>  <cluster_rmsd>  (49) 
0.14

>  <cluster>  (49) 
12

$$$$

     RDKit          3D

 55 58  0  0  0  0  0  0  0  0999 V2000
  146.3300   73.3480  219.2200 N   0  0  0  0  0  0  0  0  0  0  0  0
  145.1490   72.7820  219.8650 C   0  0  0  0  0  0  0  0  0  0  0  0
  144.0210   73.7600  219.9090 C   0  0  0  0  0  0  0  0  0  0  0  0
  144.0700   74.9310  219.1870 C   0  0  0  0  0  0  0  0  0  0  0  0
  142.9950   75.7790  219.2780 C   0  0  0  0  0  0  0  0  0  0  0  0
  141.8960   75.4680  220.0700 C   0  0  0  0  0  0  0  0  0  0  0  0
  141.8280   74.3020  220.8010 C   0  0  0  0  0  0  0  0  0  0  0  0
  140.7040   73.9350  221.6410 C   0  0  0  0  0  0  0  0  0  0  0  0
  140.6140   72.7950  222.3050 C   0  0  0  0  0  0  0  0  0  0  0  0
  139.2950   72.2880  222.7380 C   0  0  0  0  0  0  0  0  0  0  0  0
  138.2330   72.9170  222.2020 N   0  0  0  0  0  0  0  0  0  0  0  0
  136.9640   72.5560  222.4720 C   0  0  0  0  0  0  0  0  0  0  0  0
  135.8660   73.1920  221.9280 C   0  0  0  0  0  0  0  0  0  0  0  0
  134.5930   72.7830  222.2360 C   0  0  0  0  0  0  0  0  0  0  0  0
  134.4030   71.7240  223.1010 C   0  0  0  0  0  0  0  0  0  0  0  0
  133.1490   71.3150  223.4110 F   0  0  0  0  0  0  0  0  0  0  0  0
  135.5200   71.0850  223.6480 C   0  0  0  0  0  0  0  0  0  0  0  0
  136.8030   71.4950  223.3380 C   0  0  0  0  0  0  0  0  0  0  0  0
  137.9220   70.8590  223.8830 C   0  0  0  0  0  0  0  0  0  0  0  0
  137.6640   69.9050  224.6570 O   0  0  0  0  0  0  0  0  0  0  0  0
  139.1820   71.2460  223.5920 N   0  0  0  0  0  0  0  0  0  0  0  0
  140.3370   70.5890  224.1480 C   0  0  0  0  0  0  0  0  0  0  0  0
  140.3270   70.4500  225.6540 C   0  0  0  0  0  0  0  0  0  0  0  0
  140.5360   69.0770  226.1680 C   0  0  0  0  0  0  0  0  0  0  0  0
  140.7140   69.0690  227.6490 C   0  0  0  0  0  0  0  0  0  0  0  0
  140.1500   70.2760  228.3590 C   0  0  0  0  0  0  0  0  0  0  0  0
  140.7000   71.5630  227.8220 C   0  0  0  0  0  0  0  0  0  0  0  0
  141.1690   71.4360  226.3850 C   0  0  0  0  0  0  0  0  0  0  0  0
  142.9290   73.4560  220.6940 C   0  0  0  0  0  0  0  0  0  0  0  0
  146.7390   74.1480  219.7590 H   0  0  0  0  0  0  0  0  0  0  0  0
  146.0020   73.7420  218.2910 H   0  0  0  0  0  0  0  0  0  0  0  0
  144.8278   71.8925  219.3031 H   0  0  0  0  0  0  0  0  0  0  0  0
  145.4159   72.5199  220.8994 H   0  0  0  0  0  0  0  0  0  0  0  0
  144.9393   75.1780  218.5599 H   0  0  0  0  0  0  0  0  0  0  0  0
  143.0032   76.7230  218.7133 H   0  0  0  0  0  0  0  0  0  0  0  0
  141.0543   76.1748  220.1146 H   0  0  0  0  0  0  0  0  0  0  0  0
  139.8735   74.6506  221.7315 H   0  0  0  0  0  0  0  0  0  0  0  0
  141.5241   72.2220  222.5359 H   0  0  0  0  0  0  0  0  0  0  0  0
  136.0135   74.0369  221.2393 H   0  0  0  0  0  0  0  0  0  0  0  0
  133.7264   73.2974  221.7950 H   0  0  0  0  0  0  0  0  0  0  0  0
  135.3750   70.2405  224.3377 H   0  0  0  0  0  0  0  0  0  0  0  0
  140.3995   69.5809  223.7122 H   0  0  0  0  0  0  0  0  0  0  0  0
  141.2011   71.2238  223.9025 H   0  0  0  0  0  0  0  0  0  0  0  0
  139.2817   70.7032  225.8848 H   0  0  0  0  0  0  0  0  0  0  0  0
  139.6615   68.4617  225.9097 H   0  0  0  0  0  0  0  0  0  0  0  0
  141.4495   68.6717  225.7084 H   0  0  0  0  0  0  0  0  0  0  0  0
  140.2169   68.1730  228.0490 H   0  0  0  0  0  0  0  0  0  0  0  0
  141.7987   69.0801  227.8315 H   0  0  0  0  0  0  0  0  0  0  0  0
  139.0570   70.2799  228.2353 H   0  0  0  0  0  0  0  0  0  0  0  0
  140.4352   70.2055  229.4190 H   0  0  0  0  0  0  0  0  0  0  0  0
  139.9138   72.3308  227.8705 H   0  0  0  0  0  0  0  0  0  0  0  0
  141.5702   71.8382  228.4360 H   0  0  0  0  0  0  0  0  0  0  0  0
  141.0934   72.4156  225.8903 H   0  0  0  0  0  0  0  0  0  0  0  0
  142.2134   71.0908  226.3778 H   0  0  0  0  0  0  0  0  0  0  0  0
  142.9274   72.5106  221.2563 H   0  0  0  0  0  0  0  0  0  0  0  0
  1  2  1  0
  2  3  1  0
  3  4  2  0
  4  5  1  0
  5  6  2  0
  6  7  1  0
  7  8  1  0
  8  9  2  0
  9 10  1  0
 10 11  2  0
 11 12  1  0
 12 13  2  0
 13 14  1  0
 14 15  2  0
 15 16  1  0
 15 17  1  0
 17 18  2  0
 18 19  1  0
 19 20  2  0
 19 21  1  0
 21 22  1  0
 22 23  1  0
 23 24  1  0
 24 25  1  0
 25 26  1  0
 26 27  1  0
 27 28  1  0
  7 29  2  0
 29  3  1  0
 21 10  1  0
 28 23  1  0
 18 12  1  0
  1 30  1  0
  1 31  1  0
  2 32  1  0
  2 33  1  0
  4 34  1  0
  5 35  1  0
  6 36  1  0
  8 37  1  0
  9 38  1  0
 13 39  1  0
 14 40  1  0
 17 41  1  0
 22 42  1  0
 22 43  1  0
 23 44  1  0
 24 45  1  0
 24 46  1  0
 25 47  1  0
 25 48  1  0
 26 49  1  0
 26 50  1  0
 27 51  1  0
 27 52  1  0
 28 53  1  0
 28 54  1  0
 29 55  1  0
M  END
>  <smiles>  (50) 
NCc1cccc(/C=C/c2nc3ccc(F)cc3c(=O)n2CC2CCCCC2)c1

>  <score_type>  (50) 
oracle

>  <origin>  (50) 
autodockgpu

>  <m_score__min__energy>  (50) 
-8.4499999999999993

>  <m_primary>  (50) 
energy

>  <rmsd>  (50) 
10.695132935821487

>  <m_score__min__rmsd>  (50) 
10.695132935821487

>  <meeko>  (50) 
{"free_energy": -7.77, "intermolecular_energy": -9.85, "internal_energy": -1.1, "cluster_size": 6, "cluster_id": 3, "rank_in_cluster": 4}

>  <energy>  (50) 
-5.74

>  <cluster_rmsd>  (50) 
0.71

>  <cluster>  (50) 
12

$$$$
