
     RDKit          3D

 55 58  0  0  0  0  0  0  0  0999 V2000
  139.0660   70.9980  220.9950 O   0  0  0  0  0  0  0  0  0  0  0  0
  139.2700   71.5660  222.0850 C   0  0  0  0  0  0  0  0  0  0  0  0
  139.3130   72.9850  222.1630 N   0  0  0  0  0  0  0  0  0  0  0  0
  139.1280   73.8100  221.0120 C   0  0  0  0  0  0  0  0  0  0  0  0
  140.3220   73.8690  220.1340 C   0  0  0  0  0  0  0  0  0  0  0  0
  140.4000   73.1740  219.0870 O   0  0  0  0  0  0  0  0  0  0  0  0
  141.3820   74.7390  220.5130 N   0  0  0  0  0  0  0  0  0  0  0  0
  142.7560   74.2700  220.6820 C   0  0  0  0  0  0  0  0  0  0  0  0
  143.6880   75.0320  219.7440 C   0  0  0  0  0  0  0  0  0  0  0  0
  142.8800   76.1080  219.0480 C   0  0  0  0  0  0  0  0  0  0  0  0
  142.1990   76.9630  220.0870 C   0  0  0  0  0  0  0  0  0  0  0  0
  141.1240   76.1400  220.7460 C   0  0  2  0  0  0  0  0  0  0  0  0
  141.0030   76.4440  222.1970 C   0  0  0  0  0  0  0  0  0  0  0  0
  140.4630   77.5490  222.6440 C   0  0  0  0  0  0  0  0  0  0  0  0
  141.1740   78.8090  222.8100 C   0  0  0  0  0  0  0  0  0  0  0  0
  141.1820   79.7940  221.8470 C   0  0  0  0  0  0  0  0  0  0  0  0
  141.8600   80.9940  222.0090 C   0  0  0  0  0  0  0  0  0  0  0  0
  142.5660   81.2330  223.1750 C   0  0  0  0  0  0  0  0  0  0  0  0
  142.5720   80.2560  224.1580 C   0  0  0  0  0  0  0  0  0  0  0  0
  141.8810   79.0630  223.9650 C   0  0  0  0  0  0  0  0  0  0  0  0
  139.4730   70.7910  223.3220 C   0  0  0  0  0  0  0  0  0  0  0  0
  139.0810   69.4700  223.3860 C   0  0  0  0  0  0  0  0  0  0  0  0
  139.2760   68.7530  224.5500 C   0  0  0  0  0  0  0  0  0  0  0  0
  139.8590   69.3730  225.6340 C   0  0  0  0  0  0  0  0  0  0  0  0
  140.0680   68.6730  226.8280 C   0  0  0  0  0  0  0  0  0  0  0  0
  140.6530   69.2830  227.9240 C   0  0  0  0  0  0  0  0  0  0  0  0
  140.8670   68.6240  229.0920 F   0  0  0  0  0  0  0  0  0  0  0  0
  141.0260   70.6030  227.8070 C   0  0  0  0  0  0  0  0  0  0  0  0
  140.8380   71.3320  226.6470 C   0  0  0  0  0  0  0  0  0  0  0  0
  140.2510   70.6960  225.5710 C   0  0  0  0  0  0  0  0  0  0  0  0
  140.0320   71.3370  224.4050 N   0  0  0  0  0  0  0  0  0  0  0  0
  139.4910   73.4210  223.1170 H   0  0  0  0  0  0  0  0  0  0  0  0
  138.2850   73.4113  220.4285 H   0  0  0  0  0  0  0  0  0  0  0  0
  138.9371   74.8320  221.3712 H   0  0  0  0  0  0  0  0  0  0  0  0
  143.0718   74.4356  221.7226 H   0  0  0  0  0  0  0  0  0  0  0  0
  142.8027   73.1972  220.4435 H   0  0  0  0  0  0  0  0  0  0  0  0
  144.5029   75.4928  220.3216 H   0  0  0  0  0  0  0  0  0  0  0  0
  144.1268   74.3467  219.0038 H   0  0  0  0  0  0  0  0  0  0  0  0
  143.5478   76.7329  218.4368 H   0  0  0  0  0  0  0  0  0  0  0  0
  142.1246   75.6423  218.3980 H   0  0  0  0  0  0  0  0  0  0  0  0
  142.9322   77.2884  220.8397 H   0  0  0  0  0  0  0  0  0  0  0  0
  141.7586   77.8538  219.6153 H   0  0  0  0  0  0  0  0  0  0  0  0
  140.1549   76.4023  220.2964 H   0  0  0  0  0  0  0  0  0  0  0  0
  141.3827   75.7105  222.9235 H   0  0  0  0  0  0  0  0  0  0  0  0
  139.3968   77.5244  222.9133 H   0  0  0  0  0  0  0  0  0  0  0  0
  140.6287   79.6225  220.9119 H   0  0  0  0  0  0  0  0  0  0  0  0
  141.8363   81.7529  221.2130 H   0  0  0  0  0  0  0  0  0  0  0  0
  143.1106   82.1779  223.3185 H   0  0  0  0  0  0  0  0  0  0  0  0
  143.1248   80.4238  225.0941 H   0  0  0  0  0  0  0  0  0  0  0  0
  141.9000   78.3008  224.7579 H   0  0  0  0  0  0  0  0  0  0  0  0
  138.6148   68.9895  222.5132 H   0  0  0  0  0  0  0  0  0  0  0  0
  138.9693   67.6984  224.6113 H   0  0  0  0  0  0  0  0  0  0  0  0
  139.7617   67.6187  226.8965 H   0  0  0  0  0  0  0  0  0  0  0  0
  141.4926   71.0980  228.6714 H   0  0  0  0  0  0  0  0  0  0  0  0
  141.1465   72.3859  226.5834 H   0  0  0  0  0  0  0  0  0  0  0  0
  1  2  2  0
  2  3  1  0
  3  4  1  0
  4  5  1  0
  5  6  2  0
  5  7  1  0
  7  8  1  0
  8  9  1  0
  9 10  1  0
 10 11  1  0
 11 12  1  0
 12 13  1  0
 13 14  2  0
 14 15  1  0
 15 16  2  0
 16 17  1  0
 17 18  2  0
 18 19  1  0
 19 20  2  0
  2 21  1  0
 21 22  2  0
 22 23  1  0
 23 24  2  0
 24 25  1  0
 25 26  2  0
 26 27  1  0
 26 28  1  0
 28 29  2  0
 29 30  1  0
 30 31  2  0
 12  7  1  0
 20 15  1  0
 31 21  1  0
 30 24  1  0
  3 32  1  0
  4 33  1  0
  4 34  1  0
  8 35  1  0
  8 36  1  0
  9 37  1  0
  9 38  1  0
 10 39  1  0
 10 40  1  0
 11 41  1  0
 11 42  1  0
 12 43  1  6
 13 44  1  0
 14 45  1  0
 16 46  1  0
 17 47  1  0
 18 48  1  0
 19 49  1  0
 20 50  1  0
 22 51  1  0
 23 52  1  0
 25 53  1  0
 28 54  1  0
 29 55  1  0
M  END
>  <smiles>  (1) 
O=C(NCC(=O)N1CCCCC1/C=C/c1ccccc1)c1ccc2cc(F)ccc2n1

>  <score_type>  (1) 
oracle

>  <origin>  (1) 
autodockgpu

>  <m_score__min__energy>  (1) 
-9.1600000000000001

>  <m_primary>  (1) 
energy

>  <rmsd>  (1) 
2.179764246371242

>  <m_score__min__rmsd>  (1) 
2.179764246371242

>  <meeko>  (1) 
{"free_energy": -8.83, "intermolecular_energy": -10.92, "internal_energy": -1.83, "cluster_size": 23, "cluster_id": 1, "rank_in_cluster": 11}

>  <energy>  (1) 
-9.16

>  <cluster_rmsd>  (1) 
0.0

>  <cluster>  (1) 
1

$$$$

     RDKit          3D

 55 58  0  0  0  0  0  0  0  0999 V2000
  141.0520   71.9710  221.1790 O   0  0  0  0  0  0  0  0  0  0  0  0
  140.4880   72.4160  222.1970 C   0  0  0  0  0  0  0  0  0  0  0  0
  140.0510   73.7690  222.2470 N   0  0  0  0  0  0  0  0  0  0  0  0
  140.2350   74.6630  221.1500 C   0  0  0  0  0  0  0  0  0  0  0  0
  140.3760   76.0800  221.5650 C   0  0  0  0  0  0  0  0  0  0  0  0
  139.6790   76.5620  222.4980 O   0  0  0  0  0  0  0  0  0  0  0  0
  141.3260   76.8830  220.8740 N   0  0  0  0  0  0  0  0  0  0  0  0
  142.4190   76.3060  220.0940 C   0  0  0  0  0  0  0  0  0  0  0  0
  142.3320   76.7740  218.6450 C   0  0  0  0  0  0  0  0  0  0  0  0
  141.2090   77.7850  218.5430 C   0  0  0  0  0  0  0  0  0  0  0  0
  141.4430   78.8860  219.5450 C   0  0  0  0  0  0  0  0  0  0  0  0
  141.2330   78.3230  220.9250 C   0  0  2  0  0  0  0  0  0  0  0  0
  142.1840   78.9020  221.9120 C   0  0  0  0  0  0  0  0  0  0  0  0
  141.7880   79.5500  222.9770 C   0  0  0  0  0  0  0  0  0  0  0  0
  140.4850   80.1830  223.1240 C   0  0  0  0  0  0  0  0  0  0  0  0
  139.5360   79.7420  224.0200 C   0  0  0  0  0  0  0  0  0  0  0  0
  138.2950   80.3480  224.1570 C   0  0  0  0  0  0  0  0  0  0  0  0
  137.9740   81.4410  223.3700 C   0  0  0  0  0  0  0  0  0  0  0  0
  138.9130   81.9030  222.4610 C   0  0  0  0  0  0  0  0  0  0  0  0
  140.1490   81.2730  222.3490 C   0  0  0  0  0  0  0  0  0  0  0  0
  140.2590   71.5630  223.3760 C   0  0  0  0  0  0  0  0  0  0  0  0
  139.5830   70.3660  223.2460 C   0  0  0  0  0  0  0  0  0  0  0  0
  139.3730   69.5740  224.3570 C   0  0  0  0  0  0  0  0  0  0  0  0
  139.8430   69.9940  225.5830 C   0  0  0  0  0  0  0  0  0  0  0  0
  139.6450   69.2130  226.7280 C   0  0  0  0  0  0  0  0  0  0  0  0
  140.1110   69.6230  227.9650 C   0  0  0  0  0  0  0  0  0  0  0  0
  139.9310   68.8810  229.0890 F   0  0  0  0  0  0  0  0  0  0  0  0
  140.7790   70.8240  228.0400 C   0  0  0  0  0  0  0  0  0  0  0  0
  140.9970   71.6270  226.9340 C   0  0  0  0  0  0  0  0  0  0  0  0
  140.5180   71.1910  225.7140 C   0  0  0  0  0  0  0  0  0  0  0  0
  140.6900   71.9160  224.5900 N   0  0  0  0  0  0  0  0  0  0  0  0
  139.5760   74.1000  223.1400 H   0  0  0  0  0  0  0  0  0  0  0  0
  141.1442   74.3663  220.6065 H   0  0  0  0  0  0  0  0  0  0  0  0
  139.3353   74.5959  220.5207 H   0  0  0  0  0  0  0  0  0  0  0  0
  143.3803   76.6257  220.5226 H   0  0  0  0  0  0  0  0  0  0  0  0
  142.3427   75.2090  220.1235 H   0  0  0  0  0  0  0  0  0  0  0  0
  143.2822   77.2410  218.3465 H   0  0  0  0  0  0  0  0  0  0  0  0
  142.1369   75.9198  217.9800 H   0  0  0  0  0  0  0  0  0  0  0  0
  141.1866   78.2092  217.5283 H   0  0  0  0  0  0  0  0  0  0  0  0
  140.2476   77.2928  218.7516 H   0  0  0  0  0  0  0  0  0  0  0  0
  142.4721   79.2628  219.4498 H   0  0  0  0  0  0  0  0  0  0  0  0
  140.7447   79.7166  219.3647 H   0  0  0  0  0  0  0  0  0  0  0  0
  140.2265   78.6025  221.2698 H   0  0  0  0  0  0  0  0  0  0  0  0
  143.2635   78.7802  221.7391 H   0  0  0  0  0  0  0  0  0  0  0  0
  142.4891   79.6218  223.8215 H   0  0  0  0  0  0  0  0  0  0  0  0
  139.7716   78.8737  224.6530 H   0  0  0  0  0  0  0  0  0  0  0  0
  137.5694   79.9615  224.8878 H   0  0  0  0  0  0  0  0  0  0  0  0
  136.9944   81.9324  223.4641 H   0  0  0  0  0  0  0  0  0  0  0  0
  138.6805   82.7706  221.8260 H   0  0  0  0  0  0  0  0  0  0  0  0
  140.8793   81.6558  221.6209 H   0  0  0  0  0  0  0  0  0  0  0  0
  139.2133   70.0448  222.2610 H   0  0  0  0  0  0  0  0  0  0  0  0
  138.8365   68.6181  224.2650 H   0  0  0  0  0  0  0  0  0  0  0  0
  139.1093   68.2560  226.6429 H   0  0  0  0  0  0  0  0  0  0  0  0
  141.1547   71.1591  229.0181 H   0  0  0  0  0  0  0  0  0  0  0  0
  141.5348   72.5824  227.0237 H   0  0  0  0  0  0  0  0  0  0  0  0
  1  2  2  0
  2  3  1  0
  3  4  1  0
  4  5  1  0
  5  6  2  0
  5  7  1  0
  7  8  1  0
  8  9  1  0
  9 10  1  0
 10 11  1  0
 11 12  1  0
 12 13  1  0
 13 14  2  0
 14 15  1  0
 15 16  2  0
 16 17  1  0
 17 18  2  0
 18 19  1  0
 19 20  2  0
  2 21  1  0
 21 22  2  0
 22 23  1  0
 23 24  2  0
 24 25  1  0
 25 26  2  0
 26 27  1  0
 26 28  1  0
 28 29  2  0
 29 30  1  0
 30 31  2  0
 12  7  1  0
 20 15  1  0
 31 21  1  0
 30 24  1  0
  3 32  1  0
  4 33  1  0
  4 34  1  0
  8 35  1  0
  8 36  1  0
  9 37  1  0
  9 38  1  0
 10 39  1  0
 10 40  1  0
 11 41  1  0
 11 42  1  0
 12 43  1  1
 13 44  1  0
 14 45  1  0
 16 46  1  0
 17 47  1  0
 18 48  1  0
 19 49  1  0
 20 50  1  0
 22 51  1  0
 23 52  1  0
 25 53  1  0
 28 54  1  0
 29 55  1  0
M  END
>  <smiles>  (2) 
O=C(NCC(=O)N1CCCCC1/C=C/c1ccccc1)c1ccc2cc(F)ccc2n1

>  <score_type>  (2) 
oracle

>  <origin>  (2) 
autodockgpu

>  <m_score__min__energy>  (2) 
-9.1600000000000001

>  <m_primary>  (2) 
energy

>  <rmsd>  (2) 
2.2505730507707256

>  <m_score__min__rmsd>  (2) 
2.2505730507707256

>  <meeko>  (2) 
{"free_energy": -8.55, "intermolecular_energy": -10.64, "internal_energy": -1.86, "cluster_size": 7, "cluster_id": 2, "rank_in_cluster": 5}

>  <energy>  (2) 
-9.11

>  <cluster_rmsd>  (2) 
1.17

>  <cluster>  (2) 
1

$$$$

     RDKit          3D

 55 58  0  0  0  0  0  0  0  0999 V2000
  140.0960   71.7400  221.0030 O   0  0  0  0  0  0  0  0  0  0  0  0
  139.9150   72.2230  222.1380 C   0  0  0  0  0  0  0  0  0  0  0  0
  139.6920   73.6180  222.3020 N   0  0  0  0  0  0  0  0  0  0  0  0
  139.6660   74.5140  221.1910 C   0  0  0  0  0  0  0  0  0  0  0  0
  140.1680   75.8700  221.5190 C   0  0  0  0  0  0  0  0  0  0  0  0
  140.3800   76.2200  222.7100 O   0  0  0  0  0  0  0  0  0  0  0  0
  140.4050   76.7690  220.4420 N   0  0  0  0  0  0  0  0  0  0  0  0
  139.3970   77.0500  219.4210 C   0  0  0  0  0  0  0  0  0  0  0  0
  139.0810   78.5420  219.3940 C   0  0  0  0  0  0  0  0  0  0  0  0
  140.0200   79.2400  220.3550 C   0  0  0  0  0  0  0  0  0  0  0  0
  141.4420   78.8950  219.9940 C   0  0  0  0  0  0  0  0  0  0  0  0
  141.6750   77.4450  220.3250 C   0  0  2  0  0  0  0  0  0  0  0  0
  142.5630   76.7830  219.3310 C   0  0  0  0  0  0  0  0  0  0  0  0
  143.7130   76.2510  219.6550 C   0  0  0  0  0  0  0  0  0  0  0  0
  143.8980   74.8670  220.0660 C   0  0  0  0  0  0  0  0  0  0  0  0
  145.1130   74.3670  220.4810 C   0  0  0  0  0  0  0  0  0  0  0  0
  145.2850   73.0460  220.8720 C   0  0  0  0  0  0  0  0  0  0  0  0
  144.2080   72.1760  220.8500 C   0  0  0  0  0  0  0  0  0  0  0  0
  142.9760   72.6580  220.4350 C   0  0  0  0  0  0  0  0  0  0  0  0
  142.8360   73.9880  220.0500 C   0  0  0  0  0  0  0  0  0  0  0  0
  139.9270   71.3710  223.3400 C   0  0  0  0  0  0  0  0  0  0  0  0
  139.4530   70.0760  223.2780 C   0  0  0  0  0  0  0  0  0  0  0  0
  139.4690   69.2860  224.4100 C   0  0  0  0  0  0  0  0  0  0  0  0
  139.9590   69.8060  225.5880 C   0  0  0  0  0  0  0  0  0  0  0  0
  139.9870   69.0290  226.7530 C   0  0  0  0  0  0  0  0  0  0  0  0
  140.4770   69.5390  227.9430 C   0  0  0  0  0  0  0  0  0  0  0  0
  140.5150   68.8040  229.0850 F   0  0  0  0  0  0  0  0  0  0  0  0
  140.9390   70.8360  227.9500 C   0  0  0  0  0  0  0  0  0  0  0  0
  140.9290   71.6380  226.8230 C   0  0  0  0  0  0  0  0  0  0  0  0
  140.4330   71.1010  225.6510 C   0  0  0  0  0  0  0  0  0  0  0  0
  140.3900   71.8180  224.5100 N   0  0  0  0  0  0  0  0  0  0  0  0
  139.5430   73.9800  223.2910 H   0  0  0  0  0  0  0  0  0  0  0  0
  140.2918   74.0945  220.3895 H   0  0  0  0  0  0  0  0  0  0  0  0
  138.6153   74.6212  220.8836 H   0  0  0  0  0  0  0  0  0  0  0  0
  139.7797   76.7412  218.4370 H   0  0  0  0  0  0  0  0  0  0  0  0
  138.4793   76.4915  219.6574 H   0  0  0  0  0  0  0  0  0  0  0  0
  139.2278   78.9357  218.3774 H   0  0  0  0  0  0  0  0  0  0  0  0
  138.0357   78.7152  219.6897 H   0  0  0  0  0  0  0  0  0  0  0  0
  139.8761   80.3283  220.2853 H   0  0  0  0  0  0  0  0  0  0  0  0
  139.8089   78.9115  221.3834 H   0  0  0  0  0  0  0  0  0  0  0  0
  141.6038   79.0618  218.9188 H   0  0  0  0  0  0  0  0  0  0  0  0
  142.1410   79.5297  220.5583 H   0  0  0  0  0  0  0  0  0  0  0  0
  142.1990   77.3851  221.2903 H   0  0  0  0  0  0  0  0  0  0  0  0
  142.2388   76.7393  218.2807 H   0  0  0  0  0  0  0  0  0  0  0  0
  144.6037   76.8952  219.6140 H   0  0  0  0  0  0  0  0  0  0  0  0
  145.9816   75.0416  220.5034 H   0  0  0  0  0  0  0  0  0  0  0  0
  146.2739   72.6916  221.1983 H   0  0  0  0  0  0  0  0  0  0  0  0
  144.3272   71.1259  221.1550 H   0  0  0  0  0  0  0  0  0  0  0  0
  142.1054   71.9862  220.4099 H   0  0  0  0  0  0  0  0  0  0  0  0
  141.8494   74.3484  219.7235 H   0  0  0  0  0  0  0  0  0  0  0  0
  139.0641   69.6751  222.3303 H   0  0  0  0  0  0  0  0  0  0  0  0
  139.0945   68.2524  224.3719 H   0  0  0  0  0  0  0  0  0  0  0  0
  139.6129   67.9950  226.7218 H   0  0  0  0  0  0  0  0  0  0  0  0
  141.3319   71.2512  228.8898 H   0  0  0  0  0  0  0  0  0  0  0  0
  141.3044   72.6713  226.8590 H   0  0  0  0  0  0  0  0  0  0  0  0
  1  2  2  0
  2  3  1  0
  3  4  1  0
  4  5  1  0
  5  6  2  0
  5  7  1  0
  7  8  1  0
  8  9  1  0
  9 10  1  0
 10 11  1  0
 11 12  1  0
 12 13  1  0
 13 14  2  0
 14 15  1  0
 15 16  2  0
 16 17  1  0
 17 18  2  0
 18 19  1  0
 19 20  2  0
  2 21  1  0
 21 22  2  0
 22 23  1  0
 23 24  2  0
 24 25  1  0
 25 26  2  0
 26 27  1  0
 26 28  1  0
 28 29  2  0
 29 30  1  0
 30 31  2  0
 12  7  1  0
 20 15  1  0
 31 21  1  0
 30 24  1  0
  3 32  1  0
  4 33  1  0
  4 34  1  0
  8 35  1  0
  8 36  1  0
  9 37  1  0
  9 38  1  0
 10 39  1  0
 10 40  1  0
 11 41  1  0
 11 42  1  0
 12 43  1  1
 13 44  1  0
 14 45  1  0
 16 46  1  0
 17 47  1  0
 18 48  1  0
 19 49  1  0
 20 50  1  0
 22 51  1  0
 23 52  1  0
 25 53  1  0
 28 54  1  0
 29 55  1  0
M  END
>  <smiles>  (3) 
O=C(NCC(=O)N1CCCCC1/C=C/c1ccccc1)c1ccc2cc(F)ccc2n1

>  <score_type>  (3) 
oracle

>  <origin>  (3) 
autodockgpu

>  <m_score__min__energy>  (3) 
-9.1600000000000001

>  <m_primary>  (3) 
energy

>  <rmsd>  (3) 
1.8831196421467145

>  <m_score__min__rmsd>  (3) 
1.8831196421467145

>  <meeko>  (3) 
{"free_energy": -8.2, "intermolecular_energy": -10.29, "internal_energy": -2.42, "cluster_size": 9, "cluster_id": 3, "rank_in_cluster": 8}

>  <energy>  (3) 
-9.06

>  <cluster_rmsd>  (3) 
1.59

>  <cluster>  (3) 
1

$$$$

     RDKit          3D

 55 58  0  0  0  0  0  0  0  0999 V2000
  140.9740   71.6760  221.2420 O   0  0  0  0  0  0  0  0  0  0  0  0
  140.4170   72.1230  222.2630 C   0  0  0  0  0  0  0  0  0  0  0  0
  139.9660   73.4710  222.3090 N   0  0  0  0  0  0  0  0  0  0  0  0
  140.1280   74.3590  221.2020 C   0  0  0  0  0  0  0  0  0  0  0  0
  139.9090   75.7830  221.5560 C   0  0  0  0  0  0  0  0  0  0  0  0
  140.8730   76.5440  221.8350 O   0  0  0  0  0  0  0  0  0  0  0  0
  138.5710   76.2650  221.5720 N   0  0  0  0  0  0  0  0  0  0  0  0
  137.6200   75.9690  220.5020 C   0  0  0  0  0  0  0  0  0  0  0  0
  136.4000   75.2500  221.0700 C   0  0  0  0  0  0  0  0  0  0  0  0
  136.5390   75.2040  222.5770 C   0  0  0  0  0  0  0  0  0  0  0  0
  136.7390   76.6050  223.0970 C   0  0  0  0  0  0  0  0  0  0  0  0
  138.1040   77.0770  222.6710 C   0  0  2  0  0  0  0  0  0  0  0  0
  138.1090   78.5250  222.3270 C   0  0  0  0  0  0  0  0  0  0  0  0
  139.0990   79.0960  221.6910 C   0  0  0  0  0  0  0  0  0  0  0  0
  140.3710   79.4610  222.2980 C   0  0  0  0  0  0  0  0  0  0  0  0
  141.3260   80.2060  221.6410 C   0  0  0  0  0  0  0  0  0  0  0  0
  142.5370   80.5520  222.2230 C   0  0  0  0  0  0  0  0  0  0  0  0
  142.8210   80.1440  223.5150 C   0  0  0  0  0  0  0  0  0  0  0  0
  141.8750   79.3940  224.1960 C   0  0  0  0  0  0  0  0  0  0  0  0
  140.6690   79.0630  223.5840 C   0  0  0  0  0  0  0  0  0  0  0  0
  140.2110   71.2770  223.4510 C   0  0  0  0  0  0  0  0  0  0  0  0
  139.5610   70.0640  223.3360 C   0  0  0  0  0  0  0  0  0  0  0  0
  139.3730   69.2790  224.4550 C   0  0  0  0  0  0  0  0  0  0  0  0
  139.8370   69.7210  225.6750 C   0  0  0  0  0  0  0  0  0  0  0  0
  139.6610   68.9460  226.8270 C   0  0  0  0  0  0  0  0  0  0  0  0
  140.1220   69.3780  228.0590 C   0  0  0  0  0  0  0  0  0  0  0  0
  139.9630   68.6440  229.1910 F   0  0  0  0  0  0  0  0  0  0  0  0
  140.7640   70.5950  228.1200 C   0  0  0  0  0  0  0  0  0  0  0  0
  140.9600   71.3910  227.0060 C   0  0  0  0  0  0  0  0  0  0  0  0
  140.4870   70.9340  225.7910 C   0  0  0  0  0  0  0  0  0  0  0  0
  140.6380   71.6510  224.6600 N   0  0  0  0  0  0  0  0  0  0  0  0
  139.4980   73.8040  223.2040 H   0  0  0  0  0  0  0  0  0  0  0  0
  141.1510   74.2492  220.8129 H   0  0  0  0  0  0  0  0  0  0  0  0
  139.3689   74.0886  220.4532 H   0  0  0  0  0  0  0  0  0  0  0  0
  137.3007   76.9091  220.0285 H   0  0  0  0  0  0  0  0  0  0  0  0
  138.1056   75.3213  219.7572 H   0  0  0  0  0  0  0  0  0  0  0  0
  135.4850   75.7959  220.7967 H   0  0  0  0  0  0  0  0  0  0  0  0
  136.3352   74.2303  220.6625 H   0  0  0  0  0  0  0  0  0  0  0  0
  135.6276   74.7740  223.0180 H   0  0  0  0  0  0  0  0  0  0  0  0
  137.4028   74.5803  222.8506 H   0  0  0  0  0  0  0  0  0  0  0  0
  135.9685   77.2701  222.6799 H   0  0  0  0  0  0  0  0  0  0  0  0
  136.6590   76.6171  224.1940 H   0  0  0  0  0  0  0  0  0  0  0  0
  138.7963   76.9610  223.5180 H   0  0  0  0  0  0  0  0  0  0  0  0
  137.2451   79.1399  222.6195 H   0  0  0  0  0  0  0  0  0  0  0  0
  138.9608   79.3160  220.6221 H   0  0  0  0  0  0  0  0  0  0  0  0
  141.1199   80.5400  220.6134 H   0  0  0  0  0  0  0  0  0  0  0  0
  143.2693   81.1488  221.6595 H   0  0  0  0  0  0  0  0  0  0  0  0
  143.7766   80.4092  223.9908 H   0  0  0  0  0  0  0  0  0  0  0  0
  142.0778   79.0590  225.2239 H   0  0  0  0  0  0  0  0  0  0  0  0
  139.9326   78.4667  224.1427 H   0  0  0  0  0  0  0  0  0  0  0  0
  139.1945   69.7249  222.3559 H   0  0  0  0  0  0  0  0  0  0  0  0
  138.8581   68.3103  224.3741 H   0  0  0  0  0  0  0  0  0  0  0  0
  139.1472   67.9762  226.7523 H   0  0  0  0  0  0  0  0  0  0  0  0
  141.1356   70.9479  229.0933 H   0  0  0  0  0  0  0  0  0  0  0  0
  141.4769   72.3588  227.0850 H   0  0  0  0  0  0  0  0  0  0  0  0
  1  2  2  0
  2  3  1  0
  3  4  1  0
  4  5  1  0
  5  6  2  0
  5  7  1  0
  7  8  1  0
  8  9  1  0
  9 10  1  0
 10 11  1  0
 11 12  1  0
 12 13  1  0
 13 14  2  0
 14 15  1  0
 15 16  2  0
 16 17  1  0
 17 18  2  0
 18 19  1  0
 19 20  2  0
  2 21  1  0
 21 22  2  0
 22 23  1  0
 23 24  2  0
 24 25  1  0
 25 26  2  0
 26 27  1  0
 26 28  1  0
 28 29  2  0
 29 30  1  0
 30 31  2  0
 12  7  1  0
 20 15  1  0
 31 21  1  0
 30 24  1  0
  3 32  1  0
  4 33  1  0
  4 34  1  0
  8 35  1  0
  8 36  1  0
  9 37  1  0
  9 38  1  0
 10 39  1  0
 10 40  1  0
 11 41  1  0
 11 42  1  0
 12 43  1  1
 13 44  1  0
 14 45  1  0
 16 46  1  0
 17 47  1  0
 18 48  1  0
 19 49  1  0
 20 50  1  0
 22 51  1  0
 23 52  1  0
 25 53  1  0
 28 54  1  0
 29 55  1  0
M  END
>  <smiles>  (4) 
O=C(NCC(=O)N1CCCCC1/C=C/c1ccccc1)c1ccc2cc(F)ccc2n1

>  <score_type>  (4) 
oracle

>  <origin>  (4) 
autodockgpu

>  <m_score__min__energy>  (4) 
-9.1600000000000001

>  <m_primary>  (4) 
energy

>  <rmsd>  (4) 
3.1443477630534136

>  <m_score__min__rmsd>  (4) 
3.1443477630534136

>  <meeko>  (4) 
{"free_energy": -8.45, "intermolecular_energy": -10.54, "internal_energy": -1.76, "cluster_size": 7, "cluster_id": 2, "rank_in_cluster": 6}

>  <energy>  (4) 
-8.98

>  <cluster_rmsd>  (4) 
1.53

>  <cluster>  (4) 
1

$$$$

     RDKit          3D

 55 58  0  0  0  0  0  0  0  0999 V2000
  141.6940   72.0750  221.0050 O   0  0  0  0  0  0  0  0  0  0  0  0
  140.9730   72.8720  221.6350 C   0  0  0  0  0  0  0  0  0  0  0  0
  139.9940   72.3940  222.5480 N   0  0  0  0  0  0  0  0  0  0  0  0
  139.7960   70.9990  222.7810 C   0  0  0  0  0  0  0  0  0  0  0  0
  138.6080   70.7070  223.6200 C   0  0  0  0  0  0  0  0  0  0  0  0
  137.9860   71.6240  224.2170 O   0  0  0  0  0  0  0  0  0  0  0  0
  138.1920   69.3510  223.7310 N   0  0  0  0  0  0  0  0  0  0  0  0
  136.7930   68.9480  223.5960 C   0  0  0  0  0  0  0  0  0  0  0  0
  136.6440   67.9460  222.4560 C   0  0  0  0  0  0  0  0  0  0  0  0
  138.0270   67.6140  221.9360 C   0  0  0  0  0  0  0  0  0  0  0  0
  138.8840   67.1390  223.0810 C   0  0  0  0  0  0  0  0  0  0  0  0
  139.1610   68.3110  223.9840 C   0  0  2  0  0  0  0  0  0  0  0  0
  139.1840   67.9160  225.4180 C   0  0  0  0  0  0  0  0  0  0  0  0
  140.1610   68.2400  226.2250 C   0  0  0  0  0  0  0  0  0  0  0  0
  140.4680   69.5980  226.6490 C   0  0  0  0  0  0  0  0  0  0  0  0
  141.1780   70.4830  225.8680 C   0  0  0  0  0  0  0  0  0  0  0  0
  141.4680   71.7780  226.2760 C   0  0  0  0  0  0  0  0  0  0  0  0
  141.0380   72.2200  227.5160 C   0  0  0  0  0  0  0  0  0  0  0  0
  140.3220   71.3470  228.3190 C   0  0  0  0  0  0  0  0  0  0  0  0
  140.0470   70.0550  227.8800 C   0  0  0  0  0  0  0  0  0  0  0  0
  141.1080   74.3290  221.4550 C   0  0  0  0  0  0  0  0  0  0  0  0
  142.0580   74.8370  220.5930 C   0  0  0  0  0  0  0  0  0  0  0  0
  142.1770   76.2020  220.4320 C   0  0  0  0  0  0  0  0  0  0  0  0
  141.3430   77.0400  221.1390 C   0  0  0  0  0  0  0  0  0  0  0  0
  141.4400   78.4290  220.9980 C   0  0  0  0  0  0  0  0  0  0  0  0
  140.6070   79.2820  221.7020 C   0  0  0  0  0  0  0  0  0  0  0  0
  140.6830   80.6330  221.5800 F   0  0  0  0  0  0  0  0  0  0  0  0
  139.6760   78.7240  222.5490 C   0  0  0  0  0  0  0  0  0  0  0  0
  139.5460   77.3570  222.7190 C   0  0  0  0  0  0  0  0  0  0  0  0
  140.3920   76.5330  222.0030 C   0  0  0  0  0  0  0  0  0  0  0  0
  140.3280   75.1900  222.1130 N   0  0  0  0  0  0  0  0  0  0  0  0
  139.4030   73.1150  223.0610 H   0  0  0  0  0  0  0  0  0  0  0  0
  139.6697   70.4974  221.8102 H   0  0  0  0  0  0  0  0  0  0  0  0
  140.6780   70.6313  223.3259 H   0  0  0  0  0  0  0  0  0  0  0  0
  136.4558   68.4840  224.5346 H   0  0  0  0  0  0  0  0  0  0  0  0
  136.1820   69.8361  223.3769 H   0  0  0  0  0  0  0  0  0  0  0  0
  136.1552   67.0321  222.8246 H   0  0  0  0  0  0  0  0  0  0  0  0
  136.0275   68.3736  221.6516 H   0  0  0  0  0  0  0  0  0  0  0  0
  137.9545   66.8213  221.1768 H   0  0  0  0  0  0  0  0  0  0  0  0
  138.4772   68.5096  221.4831 H   0  0  0  0  0  0  0  0  0  0  0  0
  138.3540   66.3550  223.6416 H   0  0  0  0  0  0  0  0  0  0  0  0
  139.8285   66.7237  222.6997 H   0  0  0  0  0  0  0  0  0  0  0  0
  140.1654   68.6984  223.7581 H   0  0  0  0  0  0  0  0  0  0  0  0
  138.3446   67.3270  225.8162 H   0  0  0  0  0  0  0  0  0  0  0  0
  140.7957   67.4285  226.6106 H   0  0  0  0  0  0  0  0  0  0  0  0
  141.5297   70.1500  224.8804 H   0  0  0  0  0  0  0  0  0  0  0  0
  142.0370   72.4502  225.6170 H   0  0  0  0  0  0  0  0  0  0  0  0
  141.2601   73.2422  227.8561 H   0  0  0  0  0  0  0  0  0  0  0  0
  139.9694   71.6762  229.3076 H   0  0  0  0  0  0  0  0  0  0  0  0
  139.4772   69.3788  228.5342 H   0  0  0  0  0  0  0  0  0  0  0  0
  142.7183   74.1560  220.0360 H   0  0  0  0  0  0  0  0  0  0  0  0
  142.9302   76.6170  219.7461 H   0  0  0  0  0  0  0  0  0  0  0  0
  142.1921   78.8510  220.3151 H   0  0  0  0  0  0  0  0  0  0  0  0
  139.0086   79.3919  223.1133 H   0  0  0  0  0  0  0  0  0  0  0  0
  138.7924   76.9396  223.4030 H   0  0  0  0  0  0  0  0  0  0  0  0
  1  2  2  0
  2  3  1  0
  3  4  1  0
  4  5  1  0
  5  6  2  0
  5  7  1  0
  7  8  1  0
  8  9  1  0
  9 10  1  0
 10 11  1  0
 11 12  1  0
 12 13  1  0
 13 14  2  0
 14 15  1  0
 15 16  2  0
 16 17  1  0
 17 18  2  0
 18 19  1  0
 19 20  2  0
  2 21  1  0
 21 22  2  0
 22 23  1  0
 23 24  2  0
 24 25  1  0
 25 26  2  0
 26 27  1  0
 26 28  1  0
 28 29  2  0
 29 30  1  0
 30 31  2  0
 12  7  1  0
 20 15  1  0
 31 21  1  0
 30 24  1  0
  3 32  1  0
  4 33  1  0
  4 34  1  0
  8 35  1  0
  8 36  1  0
  9 37  1  0
  9 38  1  0
 10 39  1  0
 10 40  1  0
 11 41  1  0
 11 42  1  0
 12 43  1  6
 13 44  1  0
 14 45  1  0
 16 46  1  0
 17 47  1  0
 18 48  1  0
 19 49  1  0
 20 50  1  0
 22 51  1  0
 23 52  1  0
 25 53  1  0
 28 54  1  0
 29 55  1  0
M  END
>  <smiles>  (5) 
O=C(NCC(=O)N1CCCCC1/C=C/c1ccccc1)c1ccc2cc(F)ccc2n1

>  <score_type>  (5) 
oracle

>  <origin>  (5) 
autodockgpu

>  <m_score__min__energy>  (5) 
-9.1600000000000001

>  <m_primary>  (5) 
energy

>  <rmsd>  (5) 
8.60539670459741

>  <m_score__min__rmsd>  (5) 
8.60539670459741

>  <meeko>  (5) 
{"free_energy": -8.33, "intermolecular_energy": -10.42, "internal_energy": -2.57, "cluster_size": 5, "cluster_id": 4, "rank_in_cluster": 4}

>  <energy>  (5) 
-8.95

>  <cluster_rmsd>  (5) 
1.52

>  <cluster>  (5) 
1

$$$$

     RDKit          3D

 55 58  0  0  0  0  0  0  0  0999 V2000
  133.9360   68.9700  226.4700 O   0  0  0  0  0  0  0  0  0  0  0  0
  133.8850   69.9150  225.6600 C   0  0  0  0  0  0  0  0  0  0  0  0
  134.1980   69.7090  224.2880 N   0  0  0  0  0  0  0  0  0  0  0  0
  134.5800   68.4290  223.7850 C   0  0  0  0  0  0  0  0  0  0  0  0
  135.5720   68.5030  222.6850 C   0  0  0  0  0  0  0  0  0  0  0  0
  135.4270   67.8380  221.6260 O   0  0  0  0  0  0  0  0  0  0  0  0
  136.6990   69.3520  222.8650 N   0  0  0  0  0  0  0  0  0  0  0  0
  137.4870   69.8560  221.7410 C   0  0  0  0  0  0  0  0  0  0  0  0
  137.4860   71.3810  221.7430 C   0  0  0  0  0  0  0  0  0  0  0  0
  136.7700   71.8510  222.9920 C   0  0  0  0  0  0  0  0  0  0  0  0
  137.4190   71.2230  224.1990 C   0  0  0  0  0  0  0  0  0  0  0  0
  137.1050   69.7500  224.1920 C   0  0  2  0  0  0  0  0  0  0  0  0
  138.2490   68.9360  224.6860 C   0  0  0  0  0  0  0  0  0  0  0  0
  139.4690   69.4010  224.7560 C   0  0  0  0  0  0  0  0  0  0  0  0
  140.0130   70.1280  225.8940 C   0  0  0  0  0  0  0  0  0  0  0  0
  140.7350   71.2940  225.7600 C   0  0  0  0  0  0  0  0  0  0  0  0
  141.2520   71.9840  226.8480 C   0  0  0  0  0  0  0  0  0  0  0  0
  141.0480   71.5000  228.1290 C   0  0  0  0  0  0  0  0  0  0  0  0
  140.3250   70.3280  228.2870 C   0  0  0  0  0  0  0  0  0  0  0  0
  139.8190   69.6600  227.1760 C   0  0  0  0  0  0  0  0  0  0  0  0
  133.5020   71.2700  226.0930 C   0  0  0  0  0  0  0  0  0  0  0  0
  132.3960   71.4550  226.8990 C   0  0  0  0  0  0  0  0  0  0  0  0
  132.0460   72.7290  227.3000 C   0  0  0  0  0  0  0  0  0  0  0  0
  132.8080   73.8000  226.8850 C   0  0  0  0  0  0  0  0  0  0  0  0
  132.4780   75.1030  227.2750 C   0  0  0  0  0  0  0  0  0  0  0  0
  133.2350   76.1870  226.8670 C   0  0  0  0  0  0  0  0  0  0  0  0
  132.9340   77.4610  227.2320 F   0  0  0  0  0  0  0  0  0  0  0  0
  134.3280   75.9480  226.0640 C   0  0  0  0  0  0  0  0  0  0  0  0
  134.6900   74.6770  225.6560 C   0  0  0  0  0  0  0  0  0  0  0  0
  133.9140   73.6160  226.0790 C   0  0  0  0  0  0  0  0  0  0  0  0
  134.2010   72.3470  225.7250 N   0  0  0  0  0  0  0  0  0  0  0  0
  134.1400   70.5490  223.6380 H   0  0  0  0  0  0  0  0  0  0  0  0
  135.0159   67.8458  224.6095 H   0  0  0  0  0  0  0  0  0  0  0  0
  133.6748   67.9563  223.3761 H   0  0  0  0  0  0  0  0  0  0  0  0
  138.5214   69.4927  221.8298 H   0  0  0  0  0  0  0  0  0  0  0  0
  137.0438   69.4967  220.8005 H   0  0  0  0  0  0  0  0  0  0  0  0
  138.5207   71.7542  221.7440 H   0  0  0  0  0  0  0  0  0  0  0  0
  136.9761   71.7622  220.8460 H   0  0  0  0  0  0  0  0  0  0  0  0
  136.8381   72.9464  223.0654 H   0  0  0  0  0  0  0  0  0  0  0  0
  135.7113   71.5561  222.9452 H   0  0  0  0  0  0  0  0  0  0  0  0
  138.5081   71.3714  224.1552 H   0  0  0  0  0  0  0  0  0  0  0  0
  137.0366   71.6877  225.1198 H   0  0  0  0  0  0  0  0  0  0  0  0
  136.2737   69.5643  224.8880 H   0  0  0  0  0  0  0  0  0  0  0  0
  138.0603   67.9004  225.0054 H   0  0  0  0  0  0  0  0  0  0  0  0
  140.1311   69.2309  223.8942 H   0  0  0  0  0  0  0  0  0  0  0  0
  140.9087   71.6942  224.7502 H   0  0  0  0  0  0  0  0  0  0  0  0
  141.8218   72.9121  226.6929 H   0  0  0  0  0  0  0  0  0  0  0  0
  141.4509   72.0339  229.0023 H   0  0  0  0  0  0  0  0  0  0  0  0
  140.1504   69.9241  229.2952 H   0  0  0  0  0  0  0  0  0  0  0  0
  139.2478   68.7318  227.3251 H   0  0  0  0  0  0  0  0  0  0  0  0
  131.7962   70.5907  227.2203 H   0  0  0  0  0  0  0  0  0  0  0  0
  131.1683   72.8876  227.9439 H   0  0  0  0  0  0  0  0  0  0  0  0
  131.6007   75.2684  227.9177 H   0  0  0  0  0  0  0  0  0  0  0  0
  134.9375   76.8021  225.7339 H   0  0  0  0  0  0  0  0  0  0  0  0
  135.5689   74.5163  225.0144 H   0  0  0  0  0  0  0  0  0  0  0  0
  1  2  2  0
  2  3  1  0
  3  4  1  0
  4  5  1  0
  5  6  2  0
  5  7  1  0
  7  8  1  0
  8  9  1  0
  9 10  1  0
 10 11  1  0
 11 12  1  0
 12 13  1  0
 13 14  2  0
 14 15  1  0
 15 16  2  0
 16 17  1  0
 17 18  2  0
 18 19  1  0
 19 20  2  0
  2 21  1  0
 21 22  2  0
 22 23  1  0
 23 24  2  0
 24 25  1  0
 25 26  2  0
 26 27  1  0
 26 28  1  0
 28 29  2  0
 29 30  1  0
 30 31  2  0
 12  7  1  0
 20 15  1  0
 31 21  1  0
 30 24  1  0
  3 32  1  0
  4 33  1  0
  4 34  1  0
  8 35  1  0
  8 36  1  0
  9 37  1  0
  9 38  1  0
 10 39  1  0
 10 40  1  0
 11 41  1  0
 11 42  1  0
 12 43  1  1
 13 44  1  0
 14 45  1  0
 16 46  1  0
 17 47  1  0
 18 48  1  0
 19 49  1  0
 20 50  1  0
 22 51  1  0
 23 52  1  0
 25 53  1  0
 28 54  1  0
 29 55  1  0
M  END
>  <smiles>  (6) 
O=C(NCC(=O)N1CCCCC1/C=C/c1ccccc1)c1ccc2cc(F)ccc2n1

>  <score_type>  (6) 
oracle

>  <origin>  (6) 
autodockgpu

>  <m_score__min__energy>  (6) 
-9.1600000000000001

>  <m_primary>  (6) 
energy

>  <rmsd>  (6) 
8.18138646693756

>  <m_score__min__rmsd>  (6) 
8.18138646693756

>  <meeko>  (6) 
{"free_energy": -7.71, "intermolecular_energy": -9.8, "internal_energy": -2.17, "cluster_size": 4, "cluster_id": 6, "rank_in_cluster": 4}

>  <energy>  (6) 
-8.93

>  <cluster_rmsd>  (6) 
1.52

>  <cluster>  (6) 
1

$$$$

     RDKit          3D

 55 58  0  0  0  0  0  0  0  0999 V2000
  139.6770   73.5830  222.3790 O   0  0  0  0  0  0  0  0  0  0  0  0
  140.2280   72.4660  222.3520 C   0  0  0  0  0  0  0  0  0  0  0  0
  140.9650   72.0510  221.2090 N   0  0  0  0  0  0  0  0  0  0  0  0
  141.1030   72.8830  220.0570 C   0  0  0  0  0  0  0  0  0  0  0  0
  142.3960   73.6070  220.0090 C   0  0  0  0  0  0  0  0  0  0  0  0
  143.4890   72.9910  219.9030 O   0  0  0  0  0  0  0  0  0  0  0  0
  142.3640   75.0280  220.0860 N   0  0  0  0  0  0  0  0  0  0  0  0
  143.5480   75.8520  219.8510 C   0  0  0  0  0  0  0  0  0  0  0  0
  143.2910   76.8210  218.7010 C   0  0  0  0  0  0  0  0  0  0  0  0
  141.8430   76.6810  218.2810 C   0  0  0  0  0  0  0  0  0  0  0  0
  140.9580   76.8870  219.4840 C   0  0  0  0  0  0  0  0  0  0  0  0
  141.1320   75.7100  220.4060 C   0  0  2  0  0  0  0  0  0  0  0  0
  141.0820   76.1130  221.8380 C   0  0  0  0  0  0  0  0  0  0  0  0
  140.5200   77.2240  222.2390 C   0  0  0  0  0  0  0  0  0  0  0  0
  141.2340   78.4680  222.4900 C   0  0  0  0  0  0  0  0  0  0  0  0
  141.4260   79.4290  221.5210 C   0  0  0  0  0  0  0  0  0  0  0  0
  142.1070   80.6130  221.7650 C   0  0  0  0  0  0  0  0  0  0  0  0
  142.6250   80.8620  223.0250 C   0  0  0  0  0  0  0  0  0  0  0  0
  142.4440   79.9100  224.0150 C   0  0  0  0  0  0  0  0  0  0  0  0
  141.7560   78.7320  223.7390 C   0  0  0  0  0  0  0  0  0  0  0  0
  140.1360   71.5430  223.4980 C   0  0  0  0  0  0  0  0  0  0  0  0
  139.5430   70.3060  223.3470 C   0  0  0  0  0  0  0  0  0  0  0  0
  139.4620   69.4500  224.4260 C   0  0  0  0  0  0  0  0  0  0  0  0
  139.9750   69.8460  225.6420 C   0  0  0  0  0  0  0  0  0  0  0  0
  139.9060   68.9990  226.7540 C   0  0  0  0  0  0  0  0  0  0  0  0
  140.4190   69.3840  227.9820 C   0  0  0  0  0  0  0  0  0  0  0  0
  140.3640   68.5800  229.0750 F   0  0  0  0  0  0  0  0  0  0  0  0
  141.0000   70.6290  228.0780 C   0  0  0  0  0  0  0  0  0  0  0  0
  141.0890   71.4960  227.0050 C   0  0  0  0  0  0  0  0  0  0  0  0
  140.5680   71.0840  225.7940 C   0  0  0  0  0  0  0  0  0  0  0  0
  140.6150   71.8710  224.7010 N   0  0  0  0  0  0  0  0  0  0  0  0
  141.4160   71.0880  221.2370 H   0  0  0  0  0  0  0  0  0  0  0  0
  141.0221   72.2527  219.1592 H   0  0  0  0  0  0  0  0  0  0  0  0
  140.3066   73.6404  220.1043 H   0  0  0  0  0  0  0  0  0  0  0  0
  143.7814   76.4222  220.7623 H   0  0  0  0  0  0  0  0  0  0  0  0
  144.3950   75.2002  219.5908 H   0  0  0  0  0  0  0  0  0  0  0  0
  143.4850   77.8519  219.0320 H   0  0  0  0  0  0  0  0  0  0  0  0
  143.9563   76.5929  217.8552 H   0  0  0  0  0  0  0  0  0  0  0  0
  141.6067   77.4357  217.5164 H   0  0  0  0  0  0  0  0  0  0  0  0
  141.6736   75.6773  217.8640 H   0  0  0  0  0  0  0  0  0  0  0  0
  141.2465   77.8125  220.0038 H   0  0  0  0  0  0  0  0  0  0  0  0
  139.9068   76.9711  219.1711 H   0  0  0  0  0  0  0  0  0  0  0  0
  140.2915   75.0170  220.2533 H   0  0  0  0  0  0  0  0  0  0  0  0
  141.5359   75.4499  222.5892 H   0  0  0  0  0  0  0  0  0  0  0  0
  139.4315   77.2181  222.3978 H   0  0  0  0  0  0  0  0  0  0  0  0
  141.0230   79.2501  220.5132 H   0  0  0  0  0  0  0  0  0  0  0  0
  142.2351   81.3517  220.9600 H   0  0  0  0  0  0  0  0  0  0  0  0
  143.1682   81.7952  223.2351 H   0  0  0  0  0  0  0  0  0  0  0  0
  142.8458   80.0859  225.0238 H   0  0  0  0  0  0  0  0  0  0  0  0
  141.6248   77.9900  224.5403 H   0  0  0  0  0  0  0  0  0  0  0  0
  139.1366   70.0038  222.3705 H   0  0  0  0  0  0  0  0  0  0  0  0
  138.9926   68.4612  224.3166 H   0  0  0  0  0  0  0  0  0  0  0  0
  139.4360   68.0098  226.6511 H   0  0  0  0  0  0  0  0  0  0  0  0
  141.4100   70.9464  229.0481 H   0  0  0  0  0  0  0  0  0  0  0  0
  141.5605   72.4840  227.1124 H   0  0  0  0  0  0  0  0  0  0  0  0
  1  2  2  0
  2  3  1  0
  3  4  1  0
  4  5  1  0
  5  6  2  0
  5  7  1  0
  7  8  1  0
  8  9  1  0
  9 10  1  0
 10 11  1  0
 11 12  1  0
 12 13  1  0
 13 14  2  0
 14 15  1  0
 15 16  2  0
 16 17  1  0
 17 18  2  0
 18 19  1  0
 19 20  2  0
  2 21  1  0
 21 22  2  0
 22 23  1  0
 23 24  2  0
 24 25  1  0
 25 26  2  0
 26 27  1  0
 26 28  1  0
 28 29  2  0
 29 30  1  0
 30 31  2  0
 12  7  1  0
 20 15  1  0
 31 21  1  0
 30 24  1  0
  3 32  1  0
  4 33  1  0
  4 34  1  0
  8 35  1  0
  8 36  1  0
  9 37  1  0
  9 38  1  0
 10 39  1  0
 10 40  1  0
 11 41  1  0
 11 42  1  0
 12 43  1  1
 13 44  1  0
 14 45  1  0
 16 46  1  0
 17 47  1  0
 18 48  1  0
 19 49  1  0
 20 50  1  0
 22 51  1  0
 23 52  1  0
 25 53  1  0
 28 54  1  0
 29 55  1  0
M  END
>  <smiles>  (7) 
O=C(NCC(=O)N1CCCCC1/C=C/c1ccccc1)c1ccc2cc(F)ccc2n1

>  <score_type>  (7) 
oracle

>  <origin>  (7) 
autodockgpu

>  <m_score__min__energy>  (7) 
-9.1600000000000001

>  <m_primary>  (7) 
energy

>  <rmsd>  (7) 
2.5786990715095497

>  <m_score__min__rmsd>  (7) 
2.5786990715095497

>  <meeko>  (7) 
{"free_energy": -9.11, "intermolecular_energy": -11.2, "internal_energy": -1.8, "cluster_size": 23, "cluster_id": 1, "rank_in_cluster": 2}

>  <energy>  (7) 
-8.91

>  <cluster_rmsd>  (7) 
1.22

>  <cluster>  (7) 
1

$$$$

     RDKit          3D

 55 58  0  0  0  0  0  0  0  0999 V2000
  139.9140   70.8610  221.3730 O   0  0  0  0  0  0  0  0  0  0  0  0
  139.7660   71.6010  222.3650 C   0  0  0  0  0  0  0  0  0  0  0  0
  139.3090   72.9380  222.2060 N   0  0  0  0  0  0  0  0  0  0  0  0
  139.0040   73.4850  220.9230 C   0  0  0  0  0  0  0  0  0  0  0  0
  140.2070   73.7470  220.0970 C   0  0  0  0  0  0  0  0  0  0  0  0
  140.4640   73.0570  219.0750 O   0  0  0  0  0  0  0  0  0  0  0  0
  141.0670   74.8090  220.4950 N   0  0  0  0  0  0  0  0  0  0  0  0
  142.4580   74.5840  220.8850 C   0  0  0  0  0  0  0  0  0  0  0  0
  143.3900   75.3880  219.9830 C   0  0  0  0  0  0  0  0  0  0  0  0
  142.5400   76.2460  219.0700 C   0  0  0  0  0  0  0  0  0  0  0  0
  141.6040   77.0800  219.9070 C   0  0  0  0  0  0  0  0  0  0  0  0
  140.5790   76.1670  220.5240 C   0  0  2  0  0  0  0  0  0  0  0  0
  140.2140   76.5920  221.9030 C   0  0  0  0  0  0  0  0  0  0  0  0
  141.0820   77.1040  222.7370 C   0  0  0  0  0  0  0  0  0  0  0  0
  141.2580   78.5290  222.9770 C   0  0  0  0  0  0  0  0  0  0  0  0
  140.2090   79.3730  223.2700 C   0  0  0  0  0  0  0  0  0  0  0  0
  140.3810   80.7310  223.4980 C   0  0  0  0  0  0  0  0  0  0  0  0
  141.6480   81.2840  223.4310 C   0  0  0  0  0  0  0  0  0  0  0  0
  142.7190   80.4540  223.1380 C   0  0  0  0  0  0  0  0  0  0  0  0
  142.5130   79.0960  222.9150 C   0  0  0  0  0  0  0  0  0  0  0  0
  140.0580   71.1190  223.7260 C   0  0  0  0  0  0  0  0  0  0  0  0
  140.7140   71.9340  224.6260 C   0  0  0  0  0  0  0  0  0  0  0  0
  140.9830   71.4730  225.8990 C   0  0  0  0  0  0  0  0  0  0  0  0
  140.5920   70.1990  226.2510 C   0  0  0  0  0  0  0  0  0  0  0  0
  140.8510   69.7030  227.5340 C   0  0  0  0  0  0  0  0  0  0  0  0
  140.4640   68.4260  227.9010 C   0  0  0  0  0  0  0  0  0  0  0  0
  140.7050   67.9230  229.1400 F   0  0  0  0  0  0  0  0  0  0  0  0
  139.8130   67.6530  226.9660 C   0  0  0  0  0  0  0  0  0  0  0  0
  139.5360   68.1040  225.6870 C   0  0  0  0  0  0  0  0  0  0  0  0
  139.9360   69.3820  225.3510 C   0  0  0  0  0  0  0  0  0  0  0  0
  139.7040   69.8940  224.1260 N   0  0  0  0  0  0  0  0  0  0  0  0
  139.2000   73.5290  223.0840 H   0  0  0  0  0  0  0  0  0  0  0  0
  138.3587   72.7749  220.3850 H   0  0  0  0  0  0  0  0  0  0  0  0
  138.5065   74.4517  221.0905 H   0  0  0  0  0  0  0  0  0  0  0  0
  142.5992   74.9003  221.9290 H   0  0  0  0  0  0  0  0  0  0  0  0
  142.6925   73.5140  220.7841 H   0  0  0  0  0  0  0  0  0  0  0  0
  144.0410   76.0283  220.5963 H   0  0  0  0  0  0  0  0  0  0  0  0
  144.0217   74.7110  219.3891 H   0  0  0  0  0  0  0  0  0  0  0  0
  143.1888   76.9056  218.4750 H   0  0  0  0  0  0  0  0  0  0  0  0
  141.9584   75.6031  218.3929 H   0  0  0  0  0  0  0  0  0  0  0  0
  142.1701   77.5924  220.6989 H   0  0  0  0  0  0  0  0  0  0  0  0
  141.1087   77.8366  219.2807 H   0  0  0  0  0  0  0  0  0  0  0  0
  139.6544   76.2252  219.9310 H   0  0  0  0  0  0  0  0  0  0  0  0
  139.1721   76.4706  222.2342 H   0  0  0  0  0  0  0  0  0  0  0  0
  141.7245   76.4084  223.2967 H   0  0  0  0  0  0  0  0  0  0  0  0
  139.1938   78.9532  223.3254 H   0  0  0  0  0  0  0  0  0  0  0  0
  139.5134   81.3657  223.7312 H   0  0  0  0  0  0  0  0  0  0  0  0
  141.8018   82.3590  223.6065 H   0  0  0  0  0  0  0  0  0  0  0  0
  143.7355   80.8705  223.0816 H   0  0  0  0  0  0  0  0  0  0  0  0
  143.3770   78.4561  222.6824 H   0  0  0  0  0  0  0  0  0  0  0  0
  141.0215   72.9478  224.3299 H   0  0  0  0  0  0  0  0  0  0  0  0
  141.5037   72.1153  226.6245 H   0  0  0  0  0  0  0  0  0  0  0  0
  141.3718   70.3400  228.2641 H   0  0  0  0  0  0  0  0  0  0  0  0
  139.5005   66.6363  227.2466 H   0  0  0  0  0  0  0  0  0  0  0  0
  139.0134   67.4640  224.9608 H   0  0  0  0  0  0  0  0  0  0  0  0
  1  2  2  0
  2  3  1  0
  3  4  1  0
  4  5  1  0
  5  6  2  0
  5  7  1  0
  7  8  1  0
  8  9  1  0
  9 10  1  0
 10 11  1  0
 11 12  1  0
 12 13  1  0
 13 14  2  0
 14 15  1  0
 15 16  2  0
 16 17  1  0
 17 18  2  0
 18 19  1  0
 19 20  2  0
  2 21  1  0
 21 22  2  0
 22 23  1  0
 23 24  2  0
 24 25  1  0
 25 26  2  0
 26 27  1  0
 26 28  1  0
 28 29  2  0
 29 30  1  0
 30 31  2  0
 12  7  1  0
 20 15  1  0
 31 21  1  0
 30 24  1  0
  3 32  1  0
  4 33  1  0
  4 34  1  0
  8 35  1  0
  8 36  1  0
  9 37  1  0
  9 38  1  0
 10 39  1  0
 10 40  1  0
 11 41  1  0
 11 42  1  0
 12 43  1  6
 13 44  1  0
 14 45  1  0
 16 46  1  0
 17 47  1  0
 18 48  1  0
 19 49  1  0
 20 50  1  0
 22 51  1  0
 23 52  1  0
 25 53  1  0
 28 54  1  0
 29 55  1  0
M  END
>  <smiles>  (8) 
O=C(NCC(=O)N1CCCCC1/C=C/c1ccccc1)c1ccc2cc(F)ccc2n1

>  <score_type>  (8) 
oracle

>  <origin>  (8) 
autodockgpu

>  <m_score__min__energy>  (8) 
-9.1600000000000001

>  <m_primary>  (8) 
energy

>  <rmsd>  (8) 
3.0335674788129903

>  <m_score__min__rmsd>  (8) 
3.0335674788129903

>  <meeko>  (8) 
{"free_energy": -8.89, "intermolecular_energy": -10.98, "internal_energy": -1.67, "cluster_size": 23, "cluster_id": 1, "rank_in_cluster": 8}

>  <energy>  (8) 
-8.89

>  <cluster_rmsd>  (8) 
1.6

>  <cluster>  (8) 
1

$$$$

     RDKit          3D

 55 58  0  0  0  0  0  0  0  0999 V2000
  141.3110   72.6880  221.8970 O   0  0  0  0  0  0  0  0  0  0  0  0
  140.2750   72.5950  222.5830 C   0  0  0  0  0  0  0  0  0  0  0  0
  139.1610   73.4410  222.3270 N   0  0  0  0  0  0  0  0  0  0  0  0
  139.1800   74.4210  221.2890 C   0  0  0  0  0  0  0  0  0  0  0  0
  139.0060   75.8060  221.7870 C   0  0  0  0  0  0  0  0  0  0  0  0
  138.2470   76.0630  222.7590 O   0  0  0  0  0  0  0  0  0  0  0  0
  139.7260   76.8430  221.1300 N   0  0  0  0  0  0  0  0  0  0  0  0
  141.1640   77.0320  221.3090 C   0  0  0  0  0  0  0  0  0  0  0  0
  141.8760   76.9340  219.9640 C   0  0  0  0  0  0  0  0  0  0  0  0
  140.8250   76.8010  218.8820 C   0  0  0  0  0  0  0  0  0  0  0  0
  139.8530   77.9470  218.9950 C   0  0  0  0  0  0  0  0  0  0  0  0
  139.0400   77.7570  220.2470 C   0  0  2  0  0  0  0  0  0  0  0  0
  138.7410   79.0510  220.9180 C   0  0  0  0  0  0  0  0  0  0  0  0
  139.0190   79.2750  222.1760 C   0  0  0  0  0  0  0  0  0  0  0  0
  140.3120   79.7300  222.6700 C   0  0  0  0  0  0  0  0  0  0  0  0
  140.9560   79.1380  223.7340 C   0  0  0  0  0  0  0  0  0  0  0  0
  142.1880   79.5750  224.2010 C   0  0  0  0  0  0  0  0  0  0  0  0
  142.8140   80.6480  223.5890 C   0  0  0  0  0  0  0  0  0  0  0  0
  142.1840   81.2590  222.5170 C   0  0  0  0  0  0  0  0  0  0  0  0
  140.9490   80.7970  222.0720 C   0  0  0  0  0  0  0  0  0  0  0  0
  140.1700   71.6120  223.6750 C   0  0  0  0  0  0  0  0  0  0  0  0
  139.5860   70.3820  223.4500 C   0  0  0  0  0  0  0  0  0  0  0  0
  139.4930   69.4680  224.4800 C   0  0  0  0  0  0  0  0  0  0  0  0
  139.9860   69.8010  225.7230 C   0  0  0  0  0  0  0  0  0  0  0  0
  139.9050   68.8950  226.7870 C   0  0  0  0  0  0  0  0  0  0  0  0
  140.3970   69.2170  228.0410 C   0  0  0  0  0  0  0  0  0  0  0  0
  140.3300   68.3540  229.0890 F   0  0  0  0  0  0  0  0  0  0  0  0
  140.9700   70.4560  228.2130 C   0  0  0  0  0  0  0  0  0  0  0  0
  141.0710   71.3810  227.1890 C   0  0  0  0  0  0  0  0  0  0  0  0
  140.5700   71.0310  225.9500 C   0  0  0  0  0  0  0  0  0  0  0  0
  140.6300   71.8770  224.9010 N   0  0  0  0  0  0  0  0  0  0  0  0
  138.3010   73.3210  222.9410 H   0  0  0  0  0  0  0  0  0  0  0  0
  140.1455   74.3568  220.7659 H   0  0  0  0  0  0  0  0  0  0  0  0
  138.3321   74.2057  220.6221 H   0  0  0  0  0  0  0  0  0  0  0  0
  141.3490   78.0238  221.7473 H   0  0  0  0  0  0  0  0  0  0  0  0
  141.5497   76.2493  221.9788 H   0  0  0  0  0  0  0  0  0  0  0  0
  142.4746   77.8407  219.7924 H   0  0  0  0  0  0  0  0  0  0  0  0
  142.5472   76.0626  219.9515 H   0  0  0  0  0  0  0  0  0  0  0  0
  141.3084   76.8241  217.8942 H   0  0  0  0  0  0  0  0  0  0  0  0
  140.2893   75.8477  219.0010 H   0  0  0  0  0  0  0  0  0  0  0  0
  140.4038   78.8976  219.0501 H   0  0  0  0  0  0  0  0  0  0  0  0
  139.1930   77.9716  218.1153 H   0  0  0  0  0  0  0  0  0  0  0  0
  138.0673   77.3234  219.9718 H   0  0  0  0  0  0  0  0  0  0  0  0
  138.2667   79.8519  220.3319 H   0  0  0  0  0  0  0  0  0  0  0  0
  138.2201   79.1081  222.9135 H   0  0  0  0  0  0  0  0  0  0  0  0
  140.4746   78.2845  224.2338 H   0  0  0  0  0  0  0  0  0  0  0  0
  142.6654   79.0708  225.0542 H   0  0  0  0  0  0  0  0  0  0  0  0
  143.7903   81.0074  223.9463 H   0  0  0  0  0  0  0  0  0  0  0  0
  142.6622   82.1132  222.0153 H   0  0  0  0  0  0  0  0  0  0  0  0
  140.4672   81.2972  221.2190 H   0  0  0  0  0  0  0  0  0  0  0  0
  139.1958   70.1308  222.4527 H   0  0  0  0  0  0  0  0  0  0  0  0
  139.0304   68.4845  224.3105 H   0  0  0  0  0  0  0  0  0  0  0  0
  139.4426   67.9103  226.6243 H   0  0  0  0  0  0  0  0  0  0  0  0
  141.3639   70.7220  229.2050 H   0  0  0  0  0  0  0  0  0  0  0  0
  141.5355   72.3640  227.3561 H   0  0  0  0  0  0  0  0  0  0  0  0
  1  2  2  0
  2  3  1  0
  3  4  1  0
  4  5  1  0
  5  6  2  0
  5  7  1  0
  7  8  1  0
  8  9  1  0
  9 10  1  0
 10 11  1  0
 11 12  1  0
 12 13  1  0
 13 14  2  0
 14 15  1  0
 15 16  2  0
 16 17  1  0
 17 18  2  0
 18 19  1  0
 19 20  2  0
  2 21  1  0
 21 22  2  0
 22 23  1  0
 23 24  2  0
 24 25  1  0
 25 26  2  0
 26 27  1  0
 26 28  1  0
 28 29  2  0
 29 30  1  0
 30 31  2  0
 12  7  1  0
 20 15  1  0
 31 21  1  0
 30 24  1  0
  3 32  1  0
  4 33  1  0
  4 34  1  0
  8 35  1  0
  8 36  1  0
  9 37  1  0
  9 38  1  0
 10 39  1  0
 10 40  1  0
 11 41  1  0
 11 42  1  0
 12 43  1  6
 13 44  1  0
 14 45  1  0
 16 46  1  0
 17 47  1  0
 18 48  1  0
 19 49  1  0
 20 50  1  0
 22 51  1  0
 23 52  1  0
 25 53  1  0
 28 54  1  0
 29 55  1  0
M  END
>  <smiles>  (9) 
O=C(NCC(=O)N1CCCCC1/C=C/c1ccccc1)c1ccc2cc(F)ccc2n1

>  <score_type>  (9) 
oracle

>  <origin>  (9) 
autodockgpu

>  <m_score__min__energy>  (9) 
-9.1600000000000001

>  <m_primary>  (9) 
energy

>  <rmsd>  (9) 
2.229704089004403

>  <m_score__min__rmsd>  (9) 
2.229704089004403

>  <meeko>  (9) 
{"free_energy": -8.56, "intermolecular_energy": -10.65, "internal_energy": -1.79, "cluster_size": 23, "cluster_id": 1, "rank_in_cluster": 19}

>  <energy>  (9) 
-8.88

>  <cluster_rmsd>  (9) 
1.55

>  <cluster>  (9) 
1

$$$$

     RDKit          3D

 55 58  0  0  0  0  0  0  0  0999 V2000
  138.3670   75.3650  221.6220 O   0  0  0  0  0  0  0  0  0  0  0  0
  139.5470   75.7610  221.6910 C   0  0  0  0  0  0  0  0  0  0  0  0
  140.6120   74.9440  221.2230 N   0  0  0  0  0  0  0  0  0  0  0  0
  140.3820   73.6520  220.6610 C   0  0  0  0  0  0  0  0  0  0  0  0
  140.6890   72.5420  221.5950 C   0  0  0  0  0  0  0  0  0  0  0  0
  141.8490   72.0600  221.6810 O   0  0  0  0  0  0  0  0  0  0  0  0
  139.6270   72.0360  222.3960 N   0  0  0  0  0  0  0  0  0  0  0  0
  138.2550   72.5240  222.2760 C   0  0  0  0  0  0  0  0  0  0  0  0
  137.3190   71.3720  221.9240 C   0  0  0  0  0  0  0  0  0  0  0  0
  138.1220   70.0880  221.9470 C   0  0  0  0  0  0  0  0  0  0  0  0
  138.8040   69.9560  223.2850 C   0  0  0  0  0  0  0  0  0  0  0  0
  139.8820   71.0020  223.3710 C   0  0  2  0  0  0  0  0  0  0  0  0
  140.0080   71.5600  224.7450 C   0  0  0  0  0  0  0  0  0  0  0  0
  141.0070   71.2690  225.5370 C   0  0  0  0  0  0  0  0  0  0  0  0
  141.0380   70.1310  226.4460 C   0  0  0  0  0  0  0  0  0  0  0  0
  141.0620   70.2700  227.8160 C   0  0  0  0  0  0  0  0  0  0  0  0
  141.0910   69.1830  228.6790 C   0  0  0  0  0  0  0  0  0  0  0  0
  141.0990   67.8980  228.1650 C   0  0  0  0  0  0  0  0  0  0  0  0
  141.0760   67.7340  226.7890 C   0  0  0  0  0  0  0  0  0  0  0  0
  141.0460   68.8440  225.9510 C   0  0  0  0  0  0  0  0  0  0  0  0
  139.8750   77.0810  222.2580 C   0  0  0  0  0  0  0  0  0  0  0  0
  138.8760   77.8890  222.7610 C   0  0  0  0  0  0  0  0  0  0  0  0
  139.1940   79.1240  223.2900 C   0  0  0  0  0  0  0  0  0  0  0  0
  140.5110   79.5310  223.3060 C   0  0  0  0  0  0  0  0  0  0  0  0
  140.8640   80.7780  223.8350 C   0  0  0  0  0  0  0  0  0  0  0  0
  142.1830   81.1990  223.8590 C   0  0  0  0  0  0  0  0  0  0  0  0
  142.5500   82.4040  224.3670 F   0  0  0  0  0  0  0  0  0  0  0  0
  143.1410   80.3540  223.3450 C   0  0  0  0  0  0  0  0  0  0  0  0
  142.8360   79.1150  222.8130 C   0  0  0  0  0  0  0  0  0  0  0  0
  141.5110   78.7230  222.8030 C   0  0  0  0  0  0  0  0  0  0  0  0
  141.1320   77.5300  222.3020 N   0  0  0  0  0  0  0  0  0  0  0  0
  141.6010   75.3280  221.3050 H   0  0  0  0  0  0  0  0  0  0  0  0
  139.3234   73.5811  220.3707 H   0  0  0  0  0  0  0  0  0  0  0  0
  141.0567   73.5475  219.7985 H   0  0  0  0  0  0  0  0  0  0  0  0
  137.9418   72.9684  223.2322 H   0  0  0  0  0  0  0  0  0  0  0  0
  138.2101   73.2813  221.4795 H   0  0  0  0  0  0  0  0  0  0  0  0
  136.5043   71.3153  222.6609 H   0  0  0  0  0  0  0  0  0  0  0  0
  136.8804   71.5288  220.9275 H   0  0  0  0  0  0  0  0  0  0  0  0
  137.4506   69.2309  221.7897 H   0  0  0  0  0  0  0  0  0  0  0  0
  138.8767   70.1088  221.1470 H   0  0  0  0  0  0  0  0  0  0  0  0
  138.0724   70.1087  224.0921 H   0  0  0  0  0  0  0  0  0  0  0  0
  139.2409   68.9520  223.3903 H   0  0  0  0  0  0  0  0  0  0  0  0
  140.8485   70.5288  223.1430 H   0  0  0  0  0  0  0  0  0  0  0  0
  139.2286   72.2455  225.1093 H   0  0  0  0  0  0  0  0  0  0  0  0
  141.8859   71.9301  225.5153 H   0  0  0  0  0  0  0  0  0  0  0  0
  141.0580   71.2834  228.2437 H   0  0  0  0  0  0  0  0  0  0  0  0
  141.1076   69.3424  229.7673 H   0  0  0  0  0  0  0  0  0  0  0  0
  141.1231   67.0254  228.8343 H   0  0  0  0  0  0  0  0  0  0  0  0
  141.0815   66.7221  226.3578 H   0  0  0  0  0  0  0  0  0  0  0  0
  141.0282   68.6906  224.8619 H   0  0  0  0  0  0  0  0  0  0  0  0
  137.8297   77.5503  222.7406 H   0  0  0  0  0  0  0  0  0  0  0  0
  138.4054   79.7758  223.6941 H   0  0  0  0  0  0  0  0  0  0  0  0
  140.0797   81.4352  224.2388 H   0  0  0  0  0  0  0  0  0  0  0  0
  144.1921   80.6781  223.3582 H   0  0  0  0  0  0  0  0  0  0  0  0
  143.6237   78.4614  222.4101 H   0  0  0  0  0  0  0  0  0  0  0  0
  1  2  2  0
  2  3  1  0
  3  4  1  0
  4  5  1  0
  5  6  2  0
  5  7  1  0
  7  8  1  0
  8  9  1  0
  9 10  1  0
 10 11  1  0
 11 12  1  0
 12 13  1  0
 13 14  2  0
 14 15  1  0
 15 16  2  0
 16 17  1  0
 17 18  2  0
 18 19  1  0
 19 20  2  0
  2 21  1  0
 21 22  2  0
 22 23  1  0
 23 24  2  0
 24 25  1  0
 25 26  2  0
 26 27  1  0
 26 28  1  0
 28 29  2  0
 29 30  1  0
 30 31  2  0
 12  7  1  0
 20 15  1  0
 31 21  1  0
 30 24  1  0
  3 32  1  0
  4 33  1  0
  4 34  1  0
  8 35  1  0
  8 36  1  0
  9 37  1  0
  9 38  1  0
 10 39  1  0
 10 40  1  0
 11 41  1  0
 11 42  1  0
 12 43  1  6
 13 44  1  0
 14 45  1  0
 16 46  1  0
 17 47  1  0
 18 48  1  0
 19 49  1  0
 20 50  1  0
 22 51  1  0
 23 52  1  0
 25 53  1  0
 28 54  1  0
 29 55  1  0
M  END
>  <smiles>  (10) 
O=C(NCC(=O)N1CCCCC1/C=C/c1ccccc1)c1ccc2cc(F)ccc2n1

>  <score_type>  (10) 
oracle

>  <origin>  (10) 
autodockgpu

>  <m_score__min__energy>  (10) 
-9.1600000000000001

>  <m_primary>  (10) 
energy

>  <rmsd>  (10) 
8.288624497722894

>  <m_score__min__rmsd>  (10) 
8.288624497722894

>  <meeko>  (10) 
{"free_energy": -8.39, "intermolecular_energy": -10.48, "internal_energy": -1.87, "cluster_size": 2, "cluster_id": 5, "rank_in_cluster": 1}

>  <energy>  (10) 
-8.87

>  <cluster_rmsd>  (10) 
1.66

>  <cluster>  (10) 
1

$$$$

     RDKit          3D

 55 58  0  0  0  0  0  0  0  0999 V2000
  140.7200   71.6900  221.0230 O   0  0  0  0  0  0  0  0  0  0  0  0
  140.2780   72.1820  222.0790 C   0  0  0  0  0  0  0  0  0  0  0  0
  139.9320   73.5600  222.1440 N   0  0  0  0  0  0  0  0  0  0  0  0
  140.0750   74.4280  221.0190 C   0  0  0  0  0  0  0  0  0  0  0  0
  141.0670   75.5100  221.2350 C   0  0  0  0  0  0  0  0  0  0  0  0
  141.1180   76.1450  222.3210 O   0  0  0  0  0  0  0  0  0  0  0  0
  141.9640   75.8100  220.1720 N   0  0  0  0  0  0  0  0  0  0  0  0
  143.3160   75.2600  220.1090 C   0  0  0  0  0  0  0  0  0  0  0  0
  143.4990   74.4640  218.8210 C   0  0  0  0  0  0  0  0  0  0  0  0
  142.2470   74.6270  217.9840 C   0  0  0  0  0  0  0  0  0  0  0  0
  141.9770   76.0960  217.7810 C   0  0  0  0  0  0  0  0  0  0  0  0
  141.5520   76.6860  219.1000 C   0  0  2  0  0  0  0  0  0  0  0  0
  142.0740   78.0670  219.2850 C   0  0  0  0  0  0  0  0  0  0  0  0
  141.4110   78.9920  219.9300 C   0  0  0  0  0  0  0  0  0  0  0  0
  141.4100   79.1520  221.3770 C   0  0  0  0  0  0  0  0  0  0  0  0
  142.5270   79.5330  222.0870 C   0  0  0  0  0  0  0  0  0  0  0  0
  142.5220   79.6850  223.4670 C   0  0  0  0  0  0  0  0  0  0  0  0
  141.3590   79.4490  224.1800 C   0  0  0  0  0  0  0  0  0  0  0  0
  140.2220   79.0660  223.4860 C   0  0  0  0  0  0  0  0  0  0  0  0
  140.2600   78.9220  222.1030 C   0  0  0  0  0  0  0  0  0  0  0  0
  140.0990   71.3590  223.2880 C   0  0  0  0  0  0  0  0  0  0  0  0
  139.4920   70.1230  223.2030 C   0  0  0  0  0  0  0  0  0  0  0  0
  139.3300   69.3600  224.3420 C   0  0  0  0  0  0  0  0  0  0  0  0
  139.7780   69.8480  225.5500 C   0  0  0  0  0  0  0  0  0  0  0  0
  139.6270   69.0980  226.7220 C   0  0  0  0  0  0  0  0  0  0  0  0
  140.0730   69.5760  227.9420 C   0  0  0  0  0  0  0  0  0  0  0  0
  139.9370   68.8660  229.0920 F   0  0  0  0  0  0  0  0  0  0  0  0
  140.6720   70.8150  227.9720 C   0  0  0  0  0  0  0  0  0  0  0  0
  140.8410   71.5900  226.8380 C   0  0  0  0  0  0  0  0  0  0  0  0
  140.3850   71.0850  225.6360 C   0  0  0  0  0  0  0  0  0  0  0  0
  140.5130   71.7790  224.4870 N   0  0  0  0  0  0  0  0  0  0  0  0
  139.5600   73.9320  223.0680 H   0  0  0  0  0  0  0  0  0  0  0  0
  140.3949   73.8286  220.1539 H   0  0  0  0  0  0  0  0  0  0  0  0
  139.0997   74.9086  220.8523 H   0  0  0  0  0  0  0  0  0  0  0  0
  144.0451   76.0832  220.1345 H   0  0  0  0  0  0  0  0  0  0  0  0
  143.4737   74.5932  220.9696 H   0  0  0  0  0  0  0  0  0  0  0  0
  144.3696   74.8457  218.2675 H   0  0  0  0  0  0  0  0  0  0  0  0
  143.6677   73.4016  219.0508 H   0  0  0  0  0  0  0  0  0  0  0  0
  142.3906   74.1406  217.0079 H   0  0  0  0  0  0  0  0  0  0  0  0
  141.3938   74.1612  218.4989 H   0  0  0  0  0  0  0  0  0  0  0  0
  142.8903   76.5965  217.4268 H   0  0  0  0  0  0  0  0  0  0  0  0
  141.1846   76.2353  217.0309 H   0  0  0  0  0  0  0  0  0  0  0  0
  140.4552   76.7697  219.1110 H   0  0  0  0  0  0  0  0  0  0  0  0
  143.0574   78.3204  218.8622 H   0  0  0  0  0  0  0  0  0  0  0  0
  140.8119   79.6988  219.3372 H   0  0  0  0  0  0  0  0  0  0  0  0
  143.4610   79.7246  221.5384 H   0  0  0  0  0  0  0  0  0  0  0  0
  143.4387   79.9918  223.9919 H   0  0  0  0  0  0  0  0  0  0  0  0
  141.3377   79.5630  225.2739 H   0  0  0  0  0  0  0  0  0  0  0  0
  139.2858   78.8752  224.0311 H   0  0  0  0  0  0  0  0  0  0  0  0
  139.3462   78.6157  221.5728 H   0  0  0  0  0  0  0  0  0  0  0  0
  139.1385   69.7470  222.2316 H   0  0  0  0  0  0  0  0  0  0  0  0
  138.8483   68.3727  224.2857 H   0  0  0  0  0  0  0  0  0  0  0  0
  139.1450   68.1105  226.6726 H   0  0  0  0  0  0  0  0  0  0  0  0
  141.0307   71.2047  228.9361 H   0  0  0  0  0  0  0  0  0  0  0  0
  141.3233   72.5771  226.8922 H   0  0  0  0  0  0  0  0  0  0  0  0
  1  2  2  0
  2  3  1  0
  3  4  1  0
  4  5  1  0
  5  6  2  0
  5  7  1  0
  7  8  1  0
  8  9  1  0
  9 10  1  0
 10 11  1  0
 11 12  1  0
 12 13  1  0
 13 14  2  0
 14 15  1  0
 15 16  2  0
 16 17  1  0
 17 18  2  0
 18 19  1  0
 19 20  2  0
  2 21  1  0
 21 22  2  0
 22 23  1  0
 23 24  2  0
 24 25  1  0
 25 26  2  0
 26 27  1  0
 26 28  1  0
 28 29  2  0
 29 30  1  0
 30 31  2  0
 12  7  1  0
 20 15  1  0
 31 21  1  0
 30 24  1  0
  3 32  1  0
  4 33  1  0
  4 34  1  0
  8 35  1  0
  8 36  1  0
  9 37  1  0
  9 38  1  0
 10 39  1  0
 10 40  1  0
 11 41  1  0
 11 42  1  0
 12 43  1  6
 13 44  1  0
 14 45  1  0
 16 46  1  0
 17 47  1  0
 18 48  1  0
 19 49  1  0
 20 50  1  0
 22 51  1  0
 23 52  1  0
 25 53  1  0
 28 54  1  0
 29 55  1  0
M  END
>  <smiles>  (11) 
O=C(NCC(=O)N1CCCCC1/C=C/c1ccccc1)c1ccc2cc(F)ccc2n1

>  <score_type>  (11) 
oracle

>  <origin>  (11) 
autodockgpu

>  <m_score__min__energy>  (11) 
-9.1600000000000001

>  <m_primary>  (11) 
energy

>  <rmsd>  (11) 
2.215884747200252

>  <m_score__min__rmsd>  (11) 
2.215884747200252

>  <meeko>  (11) 
{"free_energy": -8.52, "intermolecular_energy": -10.61, "internal_energy": -1.98, "cluster_size": 23, "cluster_id": 1, "rank_in_cluster": 20}

>  <energy>  (11) 
-8.83

>  <cluster_rmsd>  (11) 
1.43

>  <cluster>  (11) 
1

$$$$

     RDKit          3D

 55 58  0  0  0  0  0  0  0  0999 V2000
  141.4890   72.2980  221.5640 O   0  0  0  0  0  0  0  0  0  0  0  0
  140.5260   72.4960  222.3300 C   0  0  0  0  0  0  0  0  0  0  0  0
  139.6450   73.5900  222.1150 N   0  0  0  0  0  0  0  0  0  0  0  0
  139.8210   74.5000  221.0280 C   0  0  0  0  0  0  0  0  0  0  0  0
  140.8040   75.5720  221.3140 C   0  0  0  0  0  0  0  0  0  0  0  0
  141.0180   75.9690  222.4900 O   0  0  0  0  0  0  0  0  0  0  0  0
  141.5030   76.1420  220.2140 N   0  0  0  0  0  0  0  0  0  0  0  0
  142.9560   76.0510  220.0770 C   0  0  0  0  0  0  0  0  0  0  0  0
  143.3160   75.3550  218.7680 C   0  0  0  0  0  0  0  0  0  0  0  0
  142.0360   75.1110  217.9970 C   0  0  0  0  0  0  0  0  0  0  0  0
  141.3030   76.4170  217.8310 C   0  0  0  0  0  0  0  0  0  0  0  0
  140.7810   76.8410  219.1770 C   0  0  2  0  0  0  0  0  0  0  0  0
  140.8450   78.3160  219.3600 C   0  0  0  0  0  0  0  0  0  0  0  0
  140.3380   78.9220  220.4020 C   0  0  0  0  0  0  0  0  0  0  0  0
  141.0920   79.2950  221.5900 C   0  0  0  0  0  0  0  0  0  0  0  0
  140.7600   78.8600  222.8540 C   0  0  0  0  0  0  0  0  0  0  0  0
  141.4820   79.2180  223.9840 C   0  0  0  0  0  0  0  0  0  0  0  0
  142.5840   80.0480  223.8620 C   0  0  0  0  0  0  0  0  0  0  0  0
  142.9360   80.4980  222.6000 C   0  0  0  0  0  0  0  0  0  0  0  0
  142.1920   80.1200  221.4860 C   0  0  0  0  0  0  0  0  0  0  0  0
  140.2700   71.6070  223.4770 C   0  0  0  0  0  0  0  0  0  0  0  0
  139.5460   70.4450  223.3080 C   0  0  0  0  0  0  0  0  0  0  0  0
  139.3130   69.6190  224.3900 C   0  0  0  0  0  0  0  0  0  0  0  0
  139.8070   69.9720  225.6270 C   0  0  0  0  0  0  0  0  0  0  0  0
  139.5860   69.1560  226.7420 C   0  0  0  0  0  0  0  0  0  0  0  0
  140.0770   69.4990  227.9900 C   0  0  0  0  0  0  0  0  0  0  0  0
  139.8750   68.7220  229.0860 F   0  0  0  0  0  0  0  0  0  0  0  0
  140.7940   70.6690  228.1050 C   0  0  0  0  0  0  0  0  0  0  0  0
  141.0360   71.5040  227.0290 C   0  0  0  0  0  0  0  0  0  0  0  0
  140.5320   71.1360  225.7970 C   0  0  0  0  0  0  0  0  0  0  0  0
  140.7240   71.8960  224.7000 N   0  0  0  0  0  0  0  0  0  0  0  0
  138.8380   73.7150  222.7980 H   0  0  0  0  0  0  0  0  0  0  0  0
  140.1674   73.9335  220.1510 H   0  0  0  0  0  0  0  0  0  0  0  0
  138.8507   74.9867  220.8502 H   0  0  0  0  0  0  0  0  0  0  0  0
  143.3860   77.0634  220.0811 H   0  0  0  0  0  0  0  0  0  0  0  0
  143.3614   75.4691  220.9178 H   0  0  0  0  0  0  0  0  0  0  0  0
  143.9899   75.9944  218.1789 H   0  0  0  0  0  0  0  0  0  0  0  0
  143.8259   74.4017  218.9712 H   0  0  0  0  0  0  0  0  0  0  0  0
  142.2759   74.6950  217.0073 H   0  0  0  0  0  0  0  0  0  0  0  0
  141.4031   74.3983  218.5461 H   0  0  0  0  0  0  0  0  0  0  0  0
  141.9903   77.1821  217.4408 H   0  0  0  0  0  0  0  0  0  0  0  0
  140.4701   76.2964  217.1226 H   0  0  0  0  0  0  0  0  0  0  0  0
  139.7165   76.5711  219.2409 H   0  0  0  0  0  0  0  0  0  0  0  0
  141.3394   78.9221  218.5866 H   0  0  0  0  0  0  0  0  0  0  0  0
  139.2659   79.1672  220.3792 H   0  0  0  0  0  0  0  0  0  0  0  0
  139.8867   78.2018  222.9728 H   0  0  0  0  0  0  0  0  0  0  0  0
  141.1799   78.8437  224.9733 H   0  0  0  0  0  0  0  0  0  0  0  0
  143.1665   80.3432  224.7472 H   0  0  0  0  0  0  0  0  0  0  0  0
  143.8079   81.1574  222.4777 H   0  0  0  0  0  0  0  0  0  0  0  0
  142.4902   80.4901  220.4940 H   0  0  0  0  0  0  0  0  0  0  0  0
  139.1557   70.1773  222.3150 H   0  0  0  0  0  0  0  0  0  0  0  0
  138.7390   68.6889  224.2656 H   0  0  0  0  0  0  0  0  0  0  0  0
  139.0117   68.2252  226.6247 H   0  0  0  0  0  0  0  0  0  0  0  0
  141.1901   70.9508  229.0917 H   0  0  0  0  0  0  0  0  0  0  0  0
  141.6124   72.4329  227.1510 H   0  0  0  0  0  0  0  0  0  0  0  0
  1  2  2  0
  2  3  1  0
  3  4  1  0
  4  5  1  0
  5  6  2  0
  5  7  1  0
  7  8  1  0
  8  9  1  0
  9 10  1  0
 10 11  1  0
 11 12  1  0
 12 13  1  0
 13 14  2  0
 14 15  1  0
 15 16  2  0
 16 17  1  0
 17 18  2  0
 18 19  1  0
 19 20  2  0
  2 21  1  0
 21 22  2  0
 22 23  1  0
 23 24  2  0
 24 25  1  0
 25 26  2  0
 26 27  1  0
 26 28  1  0
 28 29  2  0
 29 30  1  0
 30 31  2  0
 12  7  1  0
 20 15  1  0
 31 21  1  0
 30 24  1  0
  3 32  1  0
  4 33  1  0
  4 34  1  0
  8 35  1  0
  8 36  1  0
  9 37  1  0
  9 38  1  0
 10 39  1  0
 10 40  1  0
 11 41  1  0
 11 42  1  0
 12 43  1  6
 13 44  1  0
 14 45  1  0
 16 46  1  0
 17 47  1  0
 18 48  1  0
 19 49  1  0
 20 50  1  0
 22 51  1  0
 23 52  1  0
 25 53  1  0
 28 54  1  0
 29 55  1  0
M  END
>  <smiles>  (12) 
O=C(NCC(=O)N1CCCCC1/C=C/c1ccccc1)c1ccc2cc(F)ccc2n1

>  <score_type>  (12) 
oracle

>  <origin>  (12) 
autodockgpu

>  <m_score__min__energy>  (12) 
-9.1600000000000001

>  <m_primary>  (12) 
energy

>  <rmsd>  (12) 
2.135662904583368

>  <m_score__min__rmsd>  (12) 
2.135662904583368

>  <meeko>  (12) 
{"free_energy": -8.69, "intermolecular_energy": -10.77, "internal_energy": -1.83, "cluster_size": 23, "cluster_id": 1, "rank_in_cluster": 15}

>  <energy>  (12) 
-8.82

>  <cluster_rmsd>  (12) 
1.11

>  <cluster>  (12) 
1

$$$$

     RDKit          3D

 55 58  0  0  0  0  0  0  0  0999 V2000
  140.3910   71.7450  220.9720 O   0  0  0  0  0  0  0  0  0  0  0  0
  140.0900   72.2190  222.0840 C   0  0  0  0  0  0  0  0  0  0  0  0
  139.8110   73.6070  222.2270 N   0  0  0  0  0  0  0  0  0  0  0  0
  139.8630   74.5050  221.1180 C   0  0  0  0  0  0  0  0  0  0  0  0
  140.0330   75.9220  221.5190 C   0  0  0  0  0  0  0  0  0  0  0  0
  139.9010   76.2850  222.7180 O   0  0  0  0  0  0  0  0  0  0  0  0
  140.3500   76.8660  220.5020 N   0  0  0  0  0  0  0  0  0  0  0  0
  139.3700   77.3100  219.5130 C   0  0  0  0  0  0  0  0  0  0  0  0
  139.1970   78.8240  219.5910 C   0  0  0  0  0  0  0  0  0  0  0  0
  140.2020   79.3630  220.5860 C   0  0  0  0  0  0  0  0  0  0  0  0
  141.5840   78.9090  220.1880 C   0  0  0  0  0  0  0  0  0  0  0  0
  141.6790   77.4250  220.4190 C   0  0  2  0  0  0  0  0  0  0  0  0
  142.4950   76.7510  219.3730 C   0  0  0  0  0  0  0  0  0  0  0  0
  143.6790   76.2510  219.6150 C   0  0  0  0  0  0  0  0  0  0  0  0
  143.9290   74.8780  220.0290 C   0  0  0  0  0  0  0  0  0  0  0  0
  142.9650   73.8950  219.9800 C   0  0  0  0  0  0  0  0  0  0  0  0
  143.2070   72.5870  220.3750 C   0  0  0  0  0  0  0  0  0  0  0  0
  144.4600   72.2310  220.8430 C   0  0  0  0  0  0  0  0  0  0  0  0
  145.4460   73.2040  220.9020 C   0  0  0  0  0  0  0  0  0  0  0  0
  145.1710   74.5060  220.4970 C   0  0  0  0  0  0  0  0  0  0  0  0
  140.0140   71.3650  223.2820 C   0  0  0  0  0  0  0  0  0  0  0  0
  139.4810   70.0950  223.1970 C   0  0  0  0  0  0  0  0  0  0  0  0
  139.4150   69.3020  224.3250 C   0  0  0  0  0  0  0  0  0  0  0  0
  139.8830   69.7950  225.5240 C   0  0  0  0  0  0  0  0  0  0  0  0
  139.8280   69.0150  226.6850 C   0  0  0  0  0  0  0  0  0  0  0  0
  140.2950   69.4980  227.8950 C   0  0  0  0  0  0  0  0  0  0  0  0
  140.2530   68.7590  229.0350 F   0  0  0  0  0  0  0  0  0  0  0  0
  140.8180   70.7710  227.9260 C   0  0  0  0  0  0  0  0  0  0  0  0
  140.8910   71.5750  226.8030 C   0  0  0  0  0  0  0  0  0  0  0  0
  140.4160   71.0660  225.6100 C   0  0  0  0  0  0  0  0  0  0  0  0
  140.4520   71.7870  224.4720 N   0  0  0  0  0  0  0  0  0  0  0  0
  139.5590   73.9620  223.1970 H   0  0  0  0  0  0  0  0  0  0  0  0
  140.7100   74.2195  220.4768 H   0  0  0  0  0  0  0  0  0  0  0  0
  138.9004   74.4285  220.5911 H   0  0  0  0  0  0  0  0  0  0  0  0
  139.7182   77.0348  218.5065 H   0  0  0  0  0  0  0  0  0  0  0  0
  138.4043   76.8257  219.7198 H   0  0  0  0  0  0  0  0  0  0  0  0
  139.3756   79.2709  218.6018 H   0  0  0  0  0  0  0  0  0  0  0  0
  138.1744   79.0741  219.9098 H   0  0  0  0  0  0  0  0  0  0  0  0
  140.1626   80.4623  220.5903 H   0  0  0  0  0  0  0  0  0  0  0  0
  139.9645   78.9876  221.5923 H   0  0  0  0  0  0  0  0  0  0  0  0
  141.7568   79.1317  219.1247 H   0  0  0  0  0  0  0  0  0  0  0  0
  142.3425   79.4349  220.7864 H   0  0  0  0  0  0  0  0  0  0  0  0
  142.1983   77.2506  221.3729 H   0  0  0  0  0  0  0  0  0  0  0  0
  142.0858   76.6700  218.3551 H   0  0  0  0  0  0  0  0  0  0  0  0
  144.5478   76.9153  219.4973 H   0  0  0  0  0  0  0  0  0  0  0  0
  141.9621   74.1579  219.6126 H   0  0  0  0  0  0  0  0  0  0  0  0
  142.4058   71.8356  220.3164 H   0  0  0  0  0  0  0  0  0  0  0  0
  144.6689   71.1989  221.1611 H   0  0  0  0  0  0  0  0  0  0  0  0
  146.4496   72.9453  221.2705 H   0  0  0  0  0  0  0  0  0  0  0  0
  145.9687   75.2615  220.5518 H   0  0  0  0  0  0  0  0  0  0  0  0
  139.1099   69.7157  222.2335 H   0  0  0  0  0  0  0  0  0  0  0  0
  138.9934   68.2876  224.2676 H   0  0  0  0  0  0  0  0  0  0  0  0
  139.4062   68.0003  226.6348 H   0  0  0  0  0  0  0  0  0  0  0  0
  141.1929   71.1646  228.8823 H   0  0  0  0  0  0  0  0  0  0  0  0
  141.3144   72.5888  226.8582 H   0  0  0  0  0  0  0  0  0  0  0  0
  1  2  2  0
  2  3  1  0
  3  4  1  0
  4  5  1  0
  5  6  2  0
  5  7  1  0
  7  8  1  0
  8  9  1  0
  9 10  1  0
 10 11  1  0
 11 12  1  0
 12 13  1  0
 13 14  2  0
 14 15  1  0
 15 16  2  0
 16 17  1  0
 17 18  2  0
 18 19  1  0
 19 20  2  0
  2 21  1  0
 21 22  2  0
 22 23  1  0
 23 24  2  0
 24 25  1  0
 25 26  2  0
 26 27  1  0
 26 28  1  0
 28 29  2  0
 29 30  1  0
 30 31  2  0
 12  7  1  0
 20 15  1  0
 31 21  1  0
 30 24  1  0
  3 32  1  0
  4 33  1  0
  4 34  1  0
  8 35  1  0
  8 36  1  0
  9 37  1  0
  9 38  1  0
 10 39  1  0
 10 40  1  0
 11 41  1  0
 11 42  1  0
 12 43  1  1
 13 44  1  0
 14 45  1  0
 16 46  1  0
 17 47  1  0
 18 48  1  0
 19 49  1  0
 20 50  1  0
 22 51  1  0
 23 52  1  0
 25 53  1  0
 28 54  1  0
 29 55  1  0
M  END
>  <smiles>  (13) 
O=C(NCC(=O)N1CCCCC1/C=C/c1ccccc1)c1ccc2cc(F)ccc2n1

>  <score_type>  (13) 
oracle

>  <origin>  (13) 
autodockgpu

>  <m_score__min__energy>  (13) 
-9.1600000000000001

>  <m_primary>  (13) 
energy

>  <rmsd>  (13) 
2.012469269304276

>  <m_score__min__rmsd>  (13) 
2.012469269304276

>  <meeko>  (13) 
{"free_energy": -8.29, "intermolecular_energy": -10.38, "internal_energy": -2.37, "cluster_size": 9, "cluster_id": 3, "rank_in_cluster": 4}

>  <energy>  (13) 
-8.75

>  <cluster_rmsd>  (13) 
1.39

>  <cluster>  (13) 
1

$$$$

     RDKit          3D

 55 58  0  0  0  0  0  0  0  0999 V2000
  139.7020   73.7440  222.3680 O   0  0  0  0  0  0  0  0  0  0  0  0
  139.6430   72.5190  222.1480 C   0  0  0  0  0  0  0  0  0  0  0  0
  139.4360   72.0320  220.8280 N   0  0  0  0  0  0  0  0  0  0  0  0
  139.2900   72.9110  219.7120 C   0  0  0  0  0  0  0  0  0  0  0  0
  140.5840   73.3370  219.1270 C   0  0  0  0  0  0  0  0  0  0  0  0
  140.9350   72.9700  217.9750 O   0  0  0  0  0  0  0  0  0  0  0  0
  141.4230   74.1770  219.9120 N   0  0  0  0  0  0  0  0  0  0  0  0
  142.4270   73.6430  220.8300 C   0  0  0  0  0  0  0  0  0  0  0  0
  143.8120   74.1580  220.4490 C   0  0  0  0  0  0  0  0  0  0  0  0
  143.6500   75.1540  219.3210 C   0  0  0  0  0  0  0  0  0  0  0  0
  142.6770   76.2250  219.7430 C   0  0  0  0  0  0  0  0  0  0  0  0
  141.3040   75.6130  219.8200 C   0  0  2  0  0  0  0  0  0  0  0  0
  140.5070   76.1730  220.9460 C   0  0  0  0  0  0  0  0  0  0  0  0
  141.0560   76.6080  222.0510 C   0  0  0  0  0  0  0  0  0  0  0  0
  141.4300   77.9930  222.2980 C   0  0  0  0  0  0  0  0  0  0  0  0
  141.7650   78.4650  223.5480 C   0  0  0  0  0  0  0  0  0  0  0  0
  142.1220   79.7860  223.7800 C   0  0  0  0  0  0  0  0  0  0  0  0
  142.1490   80.6860  222.7280 C   0  0  0  0  0  0  0  0  0  0  0  0
  141.8150   80.2330  221.4610 C   0  0  0  0  0  0  0  0  0  0  0  0
  141.4620   78.9020  221.2620 C   0  0  0  0  0  0  0  0  0  0  0  0
  139.7820   71.5410  223.2400 C   0  0  0  0  0  0  0  0  0  0  0  0
  139.4030   70.2280  223.0500 C   0  0  0  0  0  0  0  0  0  0  0  0
  139.5380   69.3190  224.0800 C   0  0  0  0  0  0  0  0  0  0  0  0
  140.0500   69.7400  225.2880 C   0  0  0  0  0  0  0  0  0  0  0  0
  140.1980   68.8420  226.3510 C   0  0  0  0  0  0  0  0  0  0  0  0
  140.7120   69.2520  227.5700 C   0  0  0  0  0  0  0  0  0  0  0  0
  140.8650   68.3980  228.6160 F   0  0  0  0  0  0  0  0  0  0  0  0
  141.0760   70.5730  227.7080 C   0  0  0  0  0  0  0  0  0  0  0  0
  140.9460   71.4930  226.6830 C   0  0  0  0  0  0  0  0  0  0  0  0
  140.4300   71.0540  225.4800 C   0  0  0  0  0  0  0  0  0  0  0  0
  140.2720   71.8890  224.4330 N   0  0  0  0  0  0  0  0  0  0  0  0
  139.3930   70.9780  220.6930 H   0  0  0  0  0  0  0  0  0  0  0  0
  138.7087   72.3941  218.9343 H   0  0  0  0  0  0  0  0  0  0  0  0
  138.7830   73.8171  220.0754 H   0  0  0  0  0  0  0  0  0  0  0  0
  142.1892   73.9627  221.8553 H   0  0  0  0  0  0  0  0  0  0  0  0
  142.4220   72.5446  220.7700 H   0  0  0  0  0  0  0  0  0  0  0  0
  144.2785   74.6491  221.3157 H   0  0  0  0  0  0  0  0  0  0  0  0
  144.4544   73.3236  220.1310 H   0  0  0  0  0  0  0  0  0  0  0  0
  144.6237   75.6112  219.0909 H   0  0  0  0  0  0  0  0  0  0  0  0
  143.2697   74.6405  218.4257 H   0  0  0  0  0  0  0  0  0  0  0  0
  142.9637   76.6205  220.7286 H   0  0  0  0  0  0  0  0  0  0  0  0
  142.6836   77.0505  219.0160 H   0  0  0  0  0  0  0  0  0  0  0  0
  140.7550   75.8662  218.9010 H   0  0  0  0  0  0  0  0  0  0  0  0
  139.4128   76.2230  220.8448 H   0  0  0  0  0  0  0  0  0  0  0  0
  141.2484   75.8760  222.8492 H   0  0  0  0  0  0  0  0  0  0  0  0
  141.7489   77.7661  224.3973 H   0  0  0  0  0  0  0  0  0  0  0  0
  142.3826   80.1169  224.7962 H   0  0  0  0  0  0  0  0  0  0  0  0
  142.4292   81.7367  222.8938 H   0  0  0  0  0  0  0  0  0  0  0  0
  141.8291   80.9290  220.6093 H   0  0  0  0  0  0  0  0  0  0  0  0
  141.2007   78.5650  220.2480 H   0  0  0  0  0  0  0  0  0  0  0  0
  138.9945   69.9065  222.0806 H   0  0  0  0  0  0  0  0  0  0  0  0
  139.2400   68.2697  223.9380 H   0  0  0  0  0  0  0  0  0  0  0  0
  139.9007   67.7916  226.2160 H   0  0  0  0  0  0  0  0  0  0  0  0
  141.4864   70.9100  228.6713 H   0  0  0  0  0  0  0  0  0  0  0  0
  141.2447   72.5425  226.8223 H   0  0  0  0  0  0  0  0  0  0  0  0
  1  2  2  0
  2  3  1  0
  3  4  1  0
  4  5  1  0
  5  6  2  0
  5  7  1  0
  7  8  1  0
  8  9  1  0
  9 10  1  0
 10 11  1  0
 11 12  1  0
 12 13  1  0
 13 14  2  0
 14 15  1  0
 15 16  2  0
 16 17  1  0
 17 18  2  0
 18 19  1  0
 19 20  2  0
  2 21  1  0
 21 22  2  0
 22 23  1  0
 23 24  2  0
 24 25  1  0
 25 26  2  0
 26 27  1  0
 26 28  1  0
 28 29  2  0
 29 30  1  0
 30 31  2  0
 12  7  1  0
 20 15  1  0
 31 21  1  0
 30 24  1  0
  3 32  1  0
  4 33  1  0
  4 34  1  0
  8 35  1  0
  8 36  1  0
  9 37  1  0
  9 38  1  0
 10 39  1  0
 10 40  1  0
 11 41  1  0
 11 42  1  0
 12 43  1  6
 13 44  1  0
 14 45  1  0
 16 46  1  0
 17 47  1  0
 18 48  1  0
 19 49  1  0
 20 50  1  0
 22 51  1  0
 23 52  1  0
 25 53  1  0
 28 54  1  0
 29 55  1  0
M  END
>  <smiles>  (14) 
O=C(NCC(=O)N1CCCCC1/C=C/c1ccccc1)c1ccc2cc(F)ccc2n1

>  <score_type>  (14) 
oracle

>  <origin>  (14) 
autodockgpu

>  <m_score__min__energy>  (14) 
-9.1600000000000001

>  <m_primary>  (14) 
energy

>  <rmsd>  (14) 
2.539512900152275

>  <m_score__min__rmsd>  (14) 
2.539512900152275

>  <meeko>  (14) 
{"free_energy": -8.57, "intermolecular_energy": -10.66, "internal_energy": -1.82, "cluster_size": 23, "cluster_id": 1, "rank_in_cluster": 18}

>  <energy>  (14) 
-8.71

>  <cluster_rmsd>  (14) 
1.34

>  <cluster>  (14) 
1

$$$$

     RDKit          3D

 55 58  0  0  0  0  0  0  0  0999 V2000
  138.9570   71.2220  221.0460 O   0  0  0  0  0  0  0  0  0  0  0  0
  139.1740   71.7980  222.1290 C   0  0  0  0  0  0  0  0  0  0  0  0
  139.1410   73.2170  222.2130 N   0  0  0  0  0  0  0  0  0  0  0  0
  138.8620   74.0340  221.0750 C   0  0  0  0  0  0  0  0  0  0  0  0
  139.9930   74.1150  220.1200 C   0  0  0  0  0  0  0  0  0  0  0  0
  139.9090   73.6280  218.9620 O   0  0  0  0  0  0  0  0  0  0  0  0
  141.1830   74.7640  220.5540 N   0  0  0  0  0  0  0  0  0  0  0  0
  142.4110   74.0290  220.8520 C   0  0  0  0  0  0  0  0  0  0  0  0
  143.5480   74.5310  219.9680 C   0  0  0  0  0  0  0  0  0  0  0  0
  143.0400   75.7130  219.1710 C   0  0  0  0  0  0  0  0  0  0  0  0
  142.4810   76.7440  220.1180 C   0  0  0  0  0  0  0  0  0  0  0  0
  141.2110   76.1980  220.7150 C   0  0  2  0  0  0  0  0  0  0  0  0
  141.0500   76.5960  222.1400 C   0  0  0  0  0  0  0  0  0  0  0  0
  140.4270   77.6870  222.5030 C   0  0  0  0  0  0  0  0  0  0  0  0
  141.0850   78.9030  222.9600 C   0  0  0  0  0  0  0  0  0  0  0  0
  142.4550   79.0380  223.0080 C   0  0  0  0  0  0  0  0  0  0  0  0
  143.0780   80.1990  223.4450 C   0  0  0  0  0  0  0  0  0  0  0  0
  142.3130   81.2770  223.8560 C   0  0  0  0  0  0  0  0  0  0  0  0
  140.9330   81.1630  223.8160 C   0  0  0  0  0  0  0  0  0  0  0  0
  140.3380   79.9860  223.3720 C   0  0  0  0  0  0  0  0  0  0  0  0
  139.4710   71.0320  223.3530 C   0  0  0  0  0  0  0  0  0  0  0  0
  139.2200   69.6760  223.4020 C   0  0  0  0  0  0  0  0  0  0  0  0
  139.5020   68.9690  224.5530 C   0  0  0  0  0  0  0  0  0  0  0  0
  140.0310   69.6320  225.6400 C   0  0  0  0  0  0  0  0  0  0  0  0
  140.3270   68.9410  226.8210 C   0  0  0  0  0  0  0  0  0  0  0  0
  140.8590   69.5950  227.9190 C   0  0  0  0  0  0  0  0  0  0  0  0
  141.1550   68.9460  229.0760 F   0  0  0  0  0  0  0  0  0  0  0  0
  141.0920   70.9480  227.8170 C   0  0  0  0  0  0  0  0  0  0  0  0
  140.8140   71.6680  226.6700 C   0  0  0  0  0  0  0  0  0  0  0  0
  140.2830   70.9890  225.5910 C   0  0  0  0  0  0  0  0  0  0  0  0
  139.9850   71.6190  224.4370 N   0  0  0  0  0  0  0  0  0  0  0  0
  139.3330   73.6600  223.1600 H   0  0  0  0  0  0  0  0  0  0  0  0
  137.9908   73.6154  220.5498 H   0  0  0  0  0  0  0  0  0  0  0  0
  138.6733   75.0530  221.4438 H   0  0  0  0  0  0  0  0  0  0  0  0
  142.6778   74.1790  221.9086 H   0  0  0  0  0  0  0  0  0  0  0  0
  142.2474   72.9590  220.6563 H   0  0  0  0  0  0  0  0  0  0  0  0
  144.3974   74.8414  220.5942 H   0  0  0  0  0  0  0  0  0  0  0  0
  143.8842   73.7321  219.2908 H   0  0  0  0  0  0  0  0  0  0  0  0
  143.8681   76.1523  218.5955 H   0  0  0  0  0  0  0  0  0  0  0  0
  142.2527   75.3814  218.4781 H   0  0  0  0  0  0  0  0  0  0  0  0
  143.2092   76.9492  220.9165 H   0  0  0  0  0  0  0  0  0  0  0  0
  142.2747   77.6808  219.5797 H   0  0  0  0  0  0  0  0  0  0  0  0
  140.3552   76.6326  220.1776 H   0  0  0  0  0  0  0  0  0  0  0  0
  141.4725   75.9456  222.9201 H   0  0  0  0  0  0  0  0  0  0  0  0
  139.3278   77.6861  222.4601 H   0  0  0  0  0  0  0  0  0  0  0  0
  143.0804   78.1919  222.6872 H   0  0  0  0  0  0  0  0  0  0  0  0
  144.1760   80.2622  223.4646 H   0  0  0  0  0  0  0  0  0  0  0  0
  142.7905   82.2039  224.2067 H   0  0  0  0  0  0  0  0  0  0  0  0
  140.3045   82.0069  224.1367 H   0  0  0  0  0  0  0  0  0  0  0  0
  139.2404   79.9178  223.3491 H   0  0  0  0  0  0  0  0  0  0  0  0
  138.7968   69.1607  222.5271 H   0  0  0  0  0  0  0  0  0  0  0  0
  139.3068   67.8876  224.6028 H   0  0  0  0  0  0  0  0  0  0  0  0
  140.1335   67.8596  226.8775 H   0  0  0  0  0  0  0  0  0  0  0  0
  141.5164   71.4774  228.6828 H   0  0  0  0  0  0  0  0  0  0  0  0
  141.0099   72.7492  226.6184 H   0  0  0  0  0  0  0  0  0  0  0  0
  1  2  2  0
  2  3  1  0
  3  4  1  0
  4  5  1  0
  5  6  2  0
  5  7  1  0
  7  8  1  0
  8  9  1  0
  9 10  1  0
 10 11  1  0
 11 12  1  0
 12 13  1  0
 13 14  2  0
 14 15  1  0
 15 16  2  0
 16 17  1  0
 17 18  2  0
 18 19  1  0
 19 20  2  0
  2 21  1  0
 21 22  2  0
 22 23  1  0
 23 24  2  0
 24 25  1  0
 25 26  2  0
 26 27  1  0
 26 28  1  0
 28 29  2  0
 29 30  1  0
 30 31  2  0
 12  7  1  0
 20 15  1  0
 31 21  1  0
 30 24  1  0
  3 32  1  0
  4 33  1  0
  4 34  1  0
  8 35  1  0
  8 36  1  0
  9 37  1  0
  9 38  1  0
 10 39  1  0
 10 40  1  0
 11 41  1  0
 11 42  1  0
 12 43  1  6
 13 44  1  0
 14 45  1  0
 16 46  1  0
 17 47  1  0
 18 48  1  0
 19 49  1  0
 20 50  1  0
 22 51  1  0
 23 52  1  0
 25 53  1  0
 28 54  1  0
 29 55  1  0
M  END
>  <smiles>  (15) 
O=C(NCC(=O)N1CCCCC1/C=C/c1ccccc1)c1ccc2cc(F)ccc2n1

>  <score_type>  (15) 
oracle

>  <origin>  (15) 
autodockgpu

>  <m_score__min__energy>  (15) 
-9.1600000000000001

>  <m_primary>  (15) 
energy

>  <rmsd>  (15) 
2.199310500397765

>  <m_score__min__rmsd>  (15) 
2.199310500397765

>  <meeko>  (15) 
{"free_energy": -8.88, "intermolecular_energy": -10.97, "internal_energy": -1.86, "cluster_size": 23, "cluster_id": 1, "rank_in_cluster": 9}

>  <energy>  (15) 
-8.69

>  <cluster_rmsd>  (15) 
1.35

>  <cluster>  (15) 
1

$$$$

     RDKit          3D

 55 58  0  0  0  0  0  0  0  0999 V2000
  141.6880   72.1260  221.1300 O   0  0  0  0  0  0  0  0  0  0  0  0
  140.9180   72.9460  221.6650 C   0  0  0  0  0  0  0  0  0  0  0  0
  139.8480   72.5010  222.4890 N   0  0  0  0  0  0  0  0  0  0  0  0
  139.6120   71.1150  222.7370 C   0  0  0  0  0  0  0  0  0  0  0  0
  138.2870   70.8460  223.3480 C   0  0  0  0  0  0  0  0  0  0  0  0
  137.5130   71.7840  223.6750 O   0  0  0  0  0  0  0  0  0  0  0  0
  137.9160   69.4880  223.5550 N   0  0  0  0  0  0  0  0  0  0  0  0
  136.5380   69.0220  223.4090 C   0  0  0  0  0  0  0  0  0  0  0  0
  136.4650   67.9270  222.3500 C   0  0  0  0  0  0  0  0  0  0  0  0
  137.8750   67.6080  221.9020 C   0  0  0  0  0  0  0  0  0  0  0  0
  138.7090   67.2590  223.1080 C   0  0  0  0  0  0  0  0  0  0  0  0
  138.9130   68.5090  223.9210 C   0  0  2  0  0  0  0  0  0  0  0  0
  138.9000   68.2310  225.3830 C   0  0  0  0  0  0  0  0  0  0  0  0
  139.9360   68.4460  226.1520 C   0  0  0  0  0  0  0  0  0  0  0  0
  140.3310   69.7510  226.6620 C   0  0  0  0  0  0  0  0  0  0  0  0
  139.9730   70.2040  227.9130 C   0  0  0  0  0  0  0  0  0  0  0  0
  140.3510   71.4490  228.3960 C   0  0  0  0  0  0  0  0  0  0  0  0
  141.1190   72.2880  227.6060 C   0  0  0  0  0  0  0  0  0  0  0  0
  141.4920   71.8530  226.3440 C   0  0  0  0  0  0  0  0  0  0  0  0
  141.0960   70.5990  225.8890 C   0  0  0  0  0  0  0  0  0  0  0  0
  141.0880   74.3960  221.4620 C   0  0  0  0  0  0  0  0  0  0  0  0
  142.0380   74.8670  220.5790 C   0  0  0  0  0  0  0  0  0  0  0  0
  142.1890   76.2270  220.3960 C   0  0  0  0  0  0  0  0  0  0  0  0
  141.3850   77.0950  221.1030 C   0  0  0  0  0  0  0  0  0  0  0  0
  141.5150   78.4790  220.9390 C   0  0  0  0  0  0  0  0  0  0  0  0
  140.7140   79.3630  221.6420 C   0  0  0  0  0  0  0  0  0  0  0  0
  140.8220   80.7100  221.4990 F   0  0  0  0  0  0  0  0  0  0  0  0
  139.7810   78.8410  222.5100 C   0  0  0  0  0  0  0  0  0  0  0  0
  139.6190   77.4810  222.7010 C   0  0  0  0  0  0  0  0  0  0  0  0
  140.4340   76.6250  221.9860 C   0  0  0  0  0  0  0  0  0  0  0  0
  140.3380   75.2860  222.1180 N   0  0  0  0  0  0  0  0  0  0  0  0
  139.2180   73.2410  222.9210 H   0  0  0  0  0  0  0  0  0  0  0  0
  139.6721   70.5740  221.7811 H   0  0  0  0  0  0  0  0  0  0  0  0
  140.3758   70.7772  223.4529 H   0  0  0  0  0  0  0  0  0  0  0  0
  136.1853   68.6219  224.3710 H   0  0  0  0  0  0  0  0  0  0  0  0
  135.9034   69.8655  223.0994 H   0  0  0  0  0  0  0  0  0  0  0  0
  135.9971   67.0273  222.7762 H   0  0  0  0  0  0  0  0  0  0  0  0
  135.8618   68.2652  221.4946 H   0  0  0  0  0  0  0  0  0  0  0  0
  137.8567   66.7551  221.2076 H   0  0  0  0  0  0  0  0  0  0  0  0
  138.3082   68.4812  221.3922 H   0  0  0  0  0  0  0  0  0  0  0  0
  138.1884   66.5025  223.7136 H   0  0  0  0  0  0  0  0  0  0  0  0
  139.6802   66.8509  222.7912 H   0  0  0  0  0  0  0  0  0  0  0  0
  139.9102   68.9148  223.6954 H   0  0  0  0  0  0  0  0  0  0  0  0
  137.9817   67.8283  225.8353 H   0  0  0  0  0  0  0  0  0  0  0  0
  140.5524   67.5794  226.4332 H   0  0  0  0  0  0  0  0  0  0  0  0
  139.3626   69.5522  228.5553 H   0  0  0  0  0  0  0  0  0  0  0  0
  140.0418   71.7681  229.4023 H   0  0  0  0  0  0  0  0  0  0  0  0
  141.4265   73.2786  227.9723 H   0  0  0  0  0  0  0  0  0  0  0  0
  142.1035   72.5016  225.6995 H   0  0  0  0  0  0  0  0  0  0  0  0
  141.4021   70.2747  224.8835 H   0  0  0  0  0  0  0  0  0  0  0  0
  142.6727   74.1614  220.0229 H   0  0  0  0  0  0  0  0  0  0  0  0
  142.9424   76.6135  219.6939 H   0  0  0  0  0  0  0  0  0  0  0  0
  142.2672   78.8715  220.2389 H   0  0  0  0  0  0  0  0  0  0  0  0
  139.1389   79.5336  223.0740 H   0  0  0  0  0  0  0  0  0  0  0  0
  138.8643   77.0928  223.4008 H   0  0  0  0  0  0  0  0  0  0  0  0
  1  2  2  0
  2  3  1  0
  3  4  1  0
  4  5  1  0
  5  6  2  0
  5  7  1  0
  7  8  1  0
  8  9  1  0
  9 10  1  0
 10 11  1  0
 11 12  1  0
 12 13  1  0
 13 14  2  0
 14 15  1  0
 15 16  2  0
 16 17  1  0
 17 18  2  0
 18 19  1  0
 19 20  2  0
  2 21  1  0
 21 22  2  0
 22 23  1  0
 23 24  2  0
 24 25  1  0
 25 26  2  0
 26 27  1  0
 26 28  1  0
 28 29  2  0
 29 30  1  0
 30 31  2  0
 12  7  1  0
 20 15  1  0
 31 21  1  0
 30 24  1  0
  3 32  1  0
  4 33  1  0
  4 34  1  0
  8 35  1  0
  8 36  1  0
  9 37  1  0
  9 38  1  0
 10 39  1  0
 10 40  1  0
 11 41  1  0
 11 42  1  0
 12 43  1  6
 13 44  1  0
 14 45  1  0
 16 46  1  0
 17 47  1  0
 18 48  1  0
 19 49  1  0
 20 50  1  0
 22 51  1  0
 23 52  1  0
 25 53  1  0
 28 54  1  0
 29 55  1  0
M  END
>  <smiles>  (16) 
O=C(NCC(=O)N1CCCCC1/C=C/c1ccccc1)c1ccc2cc(F)ccc2n1

>  <score_type>  (16) 
oracle

>  <origin>  (16) 
autodockgpu

>  <m_score__min__energy>  (16) 
-9.1600000000000001

>  <m_primary>  (16) 
energy

>  <rmsd>  (16) 
8.596407097279076

>  <m_score__min__rmsd>  (16) 
8.596407097279076

>  <meeko>  (16) 
{"free_energy": -8.43, "intermolecular_energy": -10.52, "internal_energy": -2.44, "cluster_size": 5, "cluster_id": 4, "rank_in_cluster": 3}

>  <energy>  (16) 
-8.67

>  <cluster_rmsd>  (16) 
1.88

>  <cluster>  (16) 
1

$$$$

     RDKit          3D

 55 58  0  0  0  0  0  0  0  0999 V2000
  139.0050   70.7760  221.4780 O   0  0  0  0  0  0  0  0  0  0  0  0
  139.3780   71.2760  222.5560 C   0  0  0  0  0  0  0  0  0  0  0  0
  139.6600   72.6670  222.6480 N   0  0  0  0  0  0  0  0  0  0  0  0
  139.5320   73.5390  221.5250 C   0  0  0  0  0  0  0  0  0  0  0  0
  139.5830   74.9760  221.8900 C   0  0  0  0  0  0  0  0  0  0  0  0
  140.6470   75.5100  222.3020 O   0  0  0  0  0  0  0  0  0  0  0  0
  138.3880   75.7370  221.7600 N   0  0  0  0  0  0  0  0  0  0  0  0
  137.4530   75.5430  220.6520 C   0  0  0  0  0  0  0  0  0  0  0  0
  136.0750   75.1710  221.1890 C   0  0  0  0  0  0  0  0  0  0  0  0
  136.1190   75.2560  222.7000 C   0  0  0  0  0  0  0  0  0  0  0  0
  136.6000   76.6270  223.1040 C   0  0  0  0  0  0  0  0  0  0  0  0
  138.0560   76.7430  222.7410 C   0  0  2  0  0  0  0  0  0  0  0  0
  138.4040   78.1100  222.2680 C   0  0  0  0  0  0  0  0  0  0  0  0
  138.8140   79.0530  223.0750 C   0  0  0  0  0  0  0  0  0  0  0  0
  140.1920   79.5130  223.1780 C   0  0  0  0  0  0  0  0  0  0  0  0
  140.5240   80.8190  223.4660 C   0  0  0  0  0  0  0  0  0  0  0  0
  141.8390   81.2530  223.5630 C   0  0  0  0  0  0  0  0  0  0  0  0
  142.8750   80.3570  223.3660 C   0  0  0  0  0  0  0  0  0  0  0  0
  142.5650   79.0380  223.0760 C   0  0  0  0  0  0  0  0  0  0  0  0
  141.2360   78.6340  222.9860 C   0  0  0  0  0  0  0  0  0  0  0  0
  139.5380   70.4490  223.7650 C   0  0  0  0  0  0  0  0  0  0  0  0
  139.0950   69.1420  223.7760 C   0  0  0  0  0  0  0  0  0  0  0  0
  139.2500   68.3760  224.9140 C   0  0  0  0  0  0  0  0  0  0  0  0
  139.8460   68.9310  226.0250 C   0  0  0  0  0  0  0  0  0  0  0  0
  140.0170   68.1790  227.1930 C   0  0  0  0  0  0  0  0  0  0  0  0
  140.6140   68.7250  228.3170 C   0  0  0  0  0  0  0  0  0  0  0  0
  140.7900   68.0150  229.4610 F   0  0  0  0  0  0  0  0  0  0  0  0
  141.0380   70.0340  228.2530 C   0  0  0  0  0  0  0  0  0  0  0  0
  140.8900   70.8120  227.1190 C   0  0  0  0  0  0  0  0  0  0  0  0
  140.2890   70.2390  226.0150 C   0  0  0  0  0  0  0  0  0  0  0  0
  140.1080   70.9320  224.8730 N   0  0  0  0  0  0  0  0  0  0  0  0
  139.9760   73.0440  223.5910 H   0  0  0  0  0  0  0  0  0  0  0  0
  140.3523   73.3275  220.8233 H   0  0  0  0  0  0  0  0  0  0  0  0
  138.5451   73.3511  221.0770 H   0  0  0  0  0  0  0  0  0  0  0  0
  137.3782   76.4744  220.0716 H   0  0  0  0  0  0  0  0  0  0  0  0
  137.8205   74.7300  220.0086 H   0  0  0  0  0  0  0  0  0  0  0  0
  135.3215   75.8706  220.7982 H   0  0  0  0  0  0  0  0  0  0  0  0
  135.8056   74.1525  220.8728 H   0  0  0  0  0  0  0  0  0  0  0  0
  135.1120   75.0840  223.1080 H   0  0  0  0  0  0  0  0  0  0  0  0
  136.8052   74.4918  223.0940 H   0  0  0  0  0  0  0  0  0  0  0  0
  136.0214   77.3961  222.5713 H   0  0  0  0  0  0  0  0  0  0  0  0
  136.4666   76.7718  224.1862 H   0  0  0  0  0  0  0  0  0  0  0  0
  138.6581   76.5696  223.6451 H   0  0  0  0  0  0  0  0  0  0  0  0
  138.3126   78.3364  221.1954 H   0  0  0  0  0  0  0  0  0  0  0  0
  138.0652   79.5331  223.7221 H   0  0  0  0  0  0  0  0  0  0  0  0
  139.7147   81.5467  223.6254 H   0  0  0  0  0  0  0  0  0  0  0  0
  142.0568   82.3058  223.7957 H   0  0  0  0  0  0  0  0  0  0  0  0
  143.9225   80.6849  223.4381 H   0  0  0  0  0  0  0  0  0  0  0  0
  143.3719   78.3077  222.9164 H   0  0  0  0  0  0  0  0  0  0  0  0
  141.0124   77.5821  222.7548 H   0  0  0  0  0  0  0  0  0  0  0  0
  138.6203   68.7123  222.8816 H   0  0  0  0  0  0  0  0  0  0  0  0
  138.9011   67.3330  224.9334 H   0  0  0  0  0  0  0  0  0  0  0  0
  139.6709   67.1352  227.2186 H   0  0  0  0  0  0  0  0  0  0  0  0
  141.5135   70.4786  229.1397 H   0  0  0  0  0  0  0  0  0  0  0  0
  141.2400   71.8546  227.0969 H   0  0  0  0  0  0  0  0  0  0  0  0
  1  2  2  0
  2  3  1  0
  3  4  1  0
  4  5  1  0
  5  6  2  0
  5  7  1  0
  7  8  1  0
  8  9  1  0
  9 10  1  0
 10 11  1  0
 11 12  1  0
 12 13  1  0
 13 14  2  0
 14 15  1  0
 15 16  2  0
 16 17  1  0
 17 18  2  0
 18 19  1  0
 19 20  2  0
  2 21  1  0
 21 22  2  0
 22 23  1  0
 23 24  2  0
 24 25  1  0
 25 26  2  0
 26 27  1  0
 26 28  1  0
 28 29  2  0
 29 30  1  0
 30 31  2  0
 12  7  1  0
 20 15  1  0
 31 21  1  0
 30 24  1  0
  3 32  1  0
  4 33  1  0
  4 34  1  0
  8 35  1  0
  8 36  1  0
  9 37  1  0
  9 38  1  0
 10 39  1  0
 10 40  1  0
 11 41  1  0
 11 42  1  0
 12 43  1  1
 13 44  1  0
 14 45  1  0
 16 46  1  0
 17 47  1  0
 18 48  1  0
 19 49  1  0
 20 50  1  0
 22 51  1  0
 23 52  1  0
 25 53  1  0
 28 54  1  0
 29 55  1  0
M  END
>  <smiles>  (17) 
O=C(NCC(=O)N1CCCCC1/C=C/c1ccccc1)c1ccc2cc(F)ccc2n1

>  <score_type>  (17) 
oracle

>  <origin>  (17) 
autodockgpu

>  <m_score__min__energy>  (17) 
-9.1600000000000001

>  <m_primary>  (17) 
energy

>  <rmsd>  (17) 
3.0957986688617134

>  <m_score__min__rmsd>  (17) 
3.0957986688617134

>  <meeko>  (17) 
{"free_energy": -8.84, "intermolecular_energy": -10.93, "internal_energy": -1.85, "cluster_size": 7, "cluster_id": 2, "rank_in_cluster": 3}

>  <energy>  (17) 
-8.57

>  <cluster_rmsd>  (17) 
1.42

>  <cluster>  (17) 
1

$$$$

     RDKit          3D

 55 58  0  0  0  0  0  0  0  0999 V2000
  138.8290   71.0670  221.3550 O   0  0  0  0  0  0  0  0  0  0  0  0
  139.2660   71.5360  222.4230 C   0  0  0  0  0  0  0  0  0  0  0  0
  139.5710   72.9210  222.5320 N   0  0  0  0  0  0  0  0  0  0  0  0
  139.3940   73.8220  221.4390 C   0  0  0  0  0  0  0  0  0  0  0  0
  139.5300   75.2470  221.8260 C   0  0  0  0  0  0  0  0  0  0  0  0
  140.5890   75.6870  222.3450 O   0  0  0  0  0  0  0  0  0  0  0  0
  138.4200   76.1070  221.5910 N   0  0  0  0  0  0  0  0  0  0  0  0
  137.3660   75.7810  220.6330 C   0  0  0  0  0  0  0  0  0  0  0  0
  136.0140   75.7350  221.3380 C   0  0  0  0  0  0  0  0  0  0  0  0
  136.2150   76.1720  222.7740 C   0  0  0  0  0  0  0  0  0  0  0  0
  136.8850   77.5230  222.7890 C   0  0  0  0  0  0  0  0  0  0  0  0
  138.3020   77.3540  222.3110 C   0  0  2  0  0  0  0  0  0  0  0  0
  138.7540   78.5090  221.4880 C   0  0  0  0  0  0  0  0  0  0  0  0
  140.0160   78.7540  221.2490 C   0  0  0  0  0  0  0  0  0  0  0  0
  140.8980   79.4940  222.1390 C   0  0  0  0  0  0  0  0  0  0  0  0
  140.4620   80.5340  222.9300 C   0  0  0  0  0  0  0  0  0  0  0  0
  141.3070   81.2370  223.7780 C   0  0  0  0  0  0  0  0  0  0  0  0
  142.6470   80.8980  223.8480 C   0  0  0  0  0  0  0  0  0  0  0  0
  143.1090   79.8550  223.0610 C   0  0  0  0  0  0  0  0  0  0  0  0
  142.2360   79.1700  222.2220 C   0  0  0  0  0  0  0  0  0  0  0  0
  139.4800   70.6780  223.6010 C   0  0  0  0  0  0  0  0  0  0  0  0
  139.0950   69.3530  223.5750 C   0  0  0  0  0  0  0  0  0  0  0  0
  139.3000   68.5580  224.6840 C   0  0  0  0  0  0  0  0  0  0  0  0
  139.8880   69.1020  225.8050 C   0  0  0  0  0  0  0  0  0  0  0  0
  140.1090   68.3210  226.9450 C   0  0  0  0  0  0  0  0  0  0  0  0
  140.6990   68.8550  228.0780 C   0  0  0  0  0  0  0  0  0  0  0  0
  140.9230   68.1160  229.1950 F   0  0  0  0  0  0  0  0  0  0  0  0
  141.0650   70.1830  228.0520 C   0  0  0  0  0  0  0  0  0  0  0  0
  140.8650   70.9900  226.9470 C   0  0  0  0  0  0  0  0  0  0  0  0
  140.2740   70.4280  225.8330 C   0  0  0  0  0  0  0  0  0  0  0  0
  140.0450   71.1490  224.7160 N   0  0  0  0  0  0  0  0  0  0  0  0
  139.9420   73.2710  223.4660 H   0  0  0  0  0  0  0  0  0  0  0  0
  140.1499   73.5945  220.6730 H   0  0  0  0  0  0  0  0  0  0  0  0
  138.3693   73.6824  221.0642 H   0  0  0  0  0  0  0  0  0  0  0  0
  137.3399   76.5485  219.8454 H   0  0  0  0  0  0  0  0  0  0  0  0
  137.5746   74.7965  220.1888 H   0  0  0  0  0  0  0  0  0  0  0  0
  135.3093   76.4149  220.8369 H   0  0  0  0  0  0  0  0  0  0  0  0
  135.6023   74.7155  221.3048 H   0  0  0  0  0  0  0  0  0  0  0  0
  135.2399   76.2387  223.2787 H   0  0  0  0  0  0  0  0  0  0  0  0
  136.8453   75.4397  223.2997 H   0  0  0  0  0  0  0  0  0  0  0  0
  136.3471   78.2122  222.1214 H   0  0  0  0  0  0  0  0  0  0  0  0
  136.8760   77.9388  223.8073 H   0  0  0  0  0  0  0  0  0  0  0  0
  138.9663   77.3240  223.1872 H   0  0  0  0  0  0  0  0  0  0  0  0
  137.9958   79.1837  221.0638 H   0  0  0  0  0  0  0  0  0  0  0  0
  140.4411   78.3737  220.3084 H   0  0  0  0  0  0  0  0  0  0  0  0
  139.4005   80.8193  222.8880 H   0  0  0  0  0  0  0  0  0  0  0  0
  140.9130   82.0603  224.3919 H   0  0  0  0  0  0  0  0  0  0  0  0
  143.3307   81.4447  224.5141 H   0  0  0  0  0  0  0  0  0  0  0  0
  144.1701   79.5677  223.0999 H   0  0  0  0  0  0  0  0  0  0  0  0
  142.6245   78.3453  221.6064 H   0  0  0  0  0  0  0  0  0  0  0  0
  138.6263   68.9321  222.6732 H   0  0  0  0  0  0  0  0  0  0  0  0
  138.9970   67.5006  224.6732 H   0  0  0  0  0  0  0  0  0  0  0  0
  139.8083   67.2629  226.9409 H   0  0  0  0  0  0  0  0  0  0  0  0
  141.5351   70.6187  228.9459 H   0  0  0  0  0  0  0  0  0  0  0  0
  141.1676   72.0475  226.9553 H   0  0  0  0  0  0  0  0  0  0  0  0
  1  2  2  0
  2  3  1  0
  3  4  1  0
  4  5  1  0
  5  6  2  0
  5  7  1  0
  7  8  1  0
  8  9  1  0
  9 10  1  0
 10 11  1  0
 11 12  1  0
 12 13  1  0
 13 14  2  0
 14 15  1  0
 15 16  2  0
 16 17  1  0
 17 18  2  0
 18 19  1  0
 19 20  2  0
  2 21  1  0
 21 22  2  0
 22 23  1  0
 23 24  2  0
 24 25  1  0
 25 26  2  0
 26 27  1  0
 26 28  1  0
 28 29  2  0
 29 30  1  0
 30 31  2  0
 12  7  1  0
 20 15  1  0
 31 21  1  0
 30 24  1  0
  3 32  1  0
  4 33  1  0
  4 34  1  0
  8 35  1  0
  8 36  1  0
  9 37  1  0
  9 38  1  0
 10 39  1  0
 10 40  1  0
 11 41  1  0
 11 42  1  0
 12 43  1  1
 13 44  1  0
 14 45  1  0
 16 46  1  0
 17 47  1  0
 18 48  1  0
 19 49  1  0
 20 50  1  0
 22 51  1  0
 23 52  1  0
 25 53  1  0
 28 54  1  0
 29 55  1  0
M  END
>  <smiles>  (18) 
O=C(NCC(=O)N1CCCCC1/C=C/c1ccccc1)c1ccc2cc(F)ccc2n1

>  <score_type>  (18) 
oracle

>  <origin>  (18) 
autodockgpu

>  <m_score__min__energy>  (18) 
-9.1600000000000001

>  <m_primary>  (18) 
energy

>  <rmsd>  (18) 
2.9589517987458813

>  <m_score__min__rmsd>  (18) 
2.9589517987458813

>  <meeko>  (18) 
{"free_energy": -8.43, "intermolecular_energy": -10.52, "internal_energy": -1.87, "cluster_size": 7, "cluster_id": 2, "rank_in_cluster": 7}

>  <energy>  (18) 
-8.57

>  <cluster_rmsd>  (18) 
1.36

>  <cluster>  (18) 
1

$$$$

     RDKit          3D

 55 58  0  0  0  0  0  0  0  0999 V2000
  133.3930   70.0640  226.7830 O   0  0  0  0  0  0  0  0  0  0  0  0
  133.7990   71.1530  226.3350 C   0  0  0  0  0  0  0  0  0  0  0  0
  134.9220   71.2030  225.4640 N   0  0  0  0  0  0  0  0  0  0  0  0
  135.6240   70.0250  225.0700 C   0  0  0  0  0  0  0  0  0  0  0  0
  136.7380   70.2930  224.1280 C   0  0  0  0  0  0  0  0  0  0  0  0
  137.1940   71.4560  223.9670 O   0  0  0  0  0  0  0  0  0  0  0  0
  137.2790   69.1910  223.4090 N   0  0  0  0  0  0  0  0  0  0  0  0
  136.4360   68.2150  222.7210 C   0  0  0  0  0  0  0  0  0  0  0  0
  136.7810   68.1800  221.2360 C   0  0  0  0  0  0  0  0  0  0  0  0
  137.9740   69.0830  221.0070 C   0  0  0  0  0  0  0  0  0  0  0  0
  139.0960   68.6600  221.9210 C   0  0  0  0  0  0  0  0  0  0  0  0
  138.7090   69.0040  223.3340 C   0  0  2  0  0  0  0  0  0  0  0  0
  139.1810   67.9790  224.3050 C   0  0  0  0  0  0  0  0  0  0  0  0
  139.1670   68.1730  225.5980 C   0  0  0  0  0  0  0  0  0  0  0  0
  139.7080   69.3490  226.2650 C   0  0  0  0  0  0  0  0  0  0  0  0
  140.4890   70.2820  225.6180 C   0  0  0  0  0  0  0  0  0  0  0  0
  141.0020   71.4020  226.2570 C   0  0  0  0  0  0  0  0  0  0  0  0
  140.7340   71.6110  227.5990 C   0  0  0  0  0  0  0  0  0  0  0  0
  139.9500   70.6850  228.2700 C   0  0  0  0  0  0  0  0  0  0  0  0
  139.4500   69.5730  227.6010 C   0  0  0  0  0  0  0  0  0  0  0  0
  133.1330   72.4190  226.6910 C   0  0  0  0  0  0  0  0  0  0  0  0
  131.8900   72.4060  227.2890 C   0  0  0  0  0  0  0  0  0  0  0  0
  131.2750   73.5970  227.6190 C   0  0  0  0  0  0  0  0  0  0  0  0
  131.9160   74.7850  227.3420 C   0  0  0  0  0  0  0  0  0  0  0  0
  131.3180   76.0090  227.6640 C   0  0  0  0  0  0  0  0  0  0  0  0
  131.9510   77.2100  227.3930 C   0  0  0  0  0  0  0  0  0  0  0  0
  131.3900   78.4100  227.6970 F   0  0  0  0  0  0  0  0  0  0  0  0
  133.1910   77.1680  226.7960 C   0  0  0  0  0  0  0  0  0  0  0  0
  133.8180   75.9810  226.4610 C   0  0  0  0  0  0  0  0  0  0  0  0
  133.1610   74.8000  226.7440 C   0  0  0  0  0  0  0  0  0  0  0  0
  133.7050   73.6020  226.4490 N   0  0  0  0  0  0  0  0  0  0  0  0
  135.2280   72.1580  225.1090 H   0  0  0  0  0  0  0  0  0  0  0  0
  136.0359   69.5464  225.9707 H   0  0  0  0  0  0  0  0  0  0  0  0
  134.9049   69.3766  224.5480 H   0  0  0  0  0  0  0  0  0  0  0  0
  136.6025   67.2189  223.1569 H   0  0  0  0  0  0  0  0  0  0  0  0
  135.3811   68.5033  222.8391 H   0  0  0  0  0  0  0  0  0  0  0  0
  137.0292   67.1514  220.9354 H   0  0  0  0  0  0  0  0  0  0  0  0
  135.9238   68.5234  220.6382 H   0  0  0  0  0  0  0  0  0  0  0  0
  138.3015   69.0021  219.9600 H   0  0  0  0  0  0  0  0  0  0  0  0
  137.6957   70.1257  221.2201 H   0  0  0  0  0  0  0  0  0  0  0  0
  139.2585   67.5756  221.8333 H   0  0  0  0  0  0  0  0  0  0  0  0
  140.0258   69.1792  221.6454 H   0  0  0  0  0  0  0  0  0  0  0  0
  139.2058   69.9445  223.6144 H   0  0  0  0  0  0  0  0  0  0  0  0
  139.5566   67.0198  223.9192 H   0  0  0  0  0  0  0  0  0  0  0  0
  138.7143   67.3922  226.2268 H   0  0  0  0  0  0  0  0  0  0  0  0
  140.7149   70.1329  224.5518 H   0  0  0  0  0  0  0  0  0  0  0  0
  141.6195   72.1213  225.6990 H   0  0  0  0  0  0  0  0  0  0  0  0
  141.1342   72.4924  228.1215 H   0  0  0  0  0  0  0  0  0  0  0  0
  139.7225   70.8305  229.3363 H   0  0  0  0  0  0  0  0  0  0  0  0
  138.8307   68.8511  228.1536 H   0  0  0  0  0  0  0  0  0  0  0  0
  131.3904   71.4495  227.5023 H   0  0  0  0  0  0  0  0  0  0  0  0
  130.2846   73.5977  228.0976 H   0  0  0  0  0  0  0  0  0  0  0  0
  130.3269   76.0167  228.1411 H   0  0  0  0  0  0  0  0  0  0  0  0
  133.7037   78.1161  226.5766 H   0  0  0  0  0  0  0  0  0  0  0  0
  134.8092   75.9782  225.9840 H   0  0  0  0  0  0  0  0  0  0  0  0
  1  2  2  0
  2  3  1  0
  3  4  1  0
  4  5  1  0
  5  6  2  0
  5  7  1  0
  7  8  1  0
  8  9  1  0
  9 10  1  0
 10 11  1  0
 11 12  1  0
 12 13  1  0
 13 14  2  0
 14 15  1  0
 15 16  2  0
 16 17  1  0
 17 18  2  0
 18 19  1  0
 19 20  2  0
  2 21  1  0
 21 22  2  0
 22 23  1  0
 23 24  2  0
 24 25  1  0
 25 26  2  0
 26 27  1  0
 26 28  1  0
 28 29  2  0
 29 30  1  0
 30 31  2  0
 12  7  1  0
 20 15  1  0
 31 21  1  0
 30 24  1  0
  3 32  1  0
  4 33  1  0
  4 34  1  0
  8 35  1  0
  8 36  1  0
  9 37  1  0
  9 38  1  0
 10 39  1  0
 10 40  1  0
 11 41  1  0
 11 42  1  0
 12 43  1  1
 13 44  1  0
 14 45  1  0
 16 46  1  0
 17 47  1  0
 18 48  1  0
 19 49  1  0
 20 50  1  0
 22 51  1  0
 23 52  1  0
 25 53  1  0
 28 54  1  0
 29 55  1  0
M  END
>  <smiles>  (19) 
O=C(NCC(=O)N1CCCCC1/C=C/c1ccccc1)c1ccc2cc(F)ccc2n1

>  <score_type>  (19) 
oracle

>  <origin>  (19) 
autodockgpu

>  <m_score__min__energy>  (19) 
-9.1600000000000001

>  <m_primary>  (19) 
energy

>  <rmsd>  (19) 
8.906240047256569

>  <m_score__min__rmsd>  (19) 
8.906240047256569

>  <meeko>  (19) 
{"free_energy": -7.99, "intermolecular_energy": -10.08, "internal_energy": -2.3, "cluster_size": 4, "cluster_id": 6, "rank_in_cluster": 3}

>  <energy>  (19) 
-8.56

>  <cluster_rmsd>  (19) 
1.83

>  <cluster>  (19) 
1

$$$$

     RDKit          3D

 55 58  0  0  0  0  0  0  0  0999 V2000
  140.6260   71.7370  221.0610 O   0  0  0  0  0  0  0  0  0  0  0  0
  140.2320   72.2190  222.1400 C   0  0  0  0  0  0  0  0  0  0  0  0
  139.9080   73.6000  222.2390 N   0  0  0  0  0  0  0  0  0  0  0  0
  140.0190   74.4830  221.1220 C   0  0  0  0  0  0  0  0  0  0  0  0
  140.3000   75.8860  221.5100 C   0  0  0  0  0  0  0  0  0  0  0  0
  140.2590   76.2550  222.7140 O   0  0  0  0  0  0  0  0  0  0  0  0
  140.6210   76.8090  220.4750 N   0  0  0  0  0  0  0  0  0  0  0  0
  139.6520   77.2110  219.4570 C   0  0  0  0  0  0  0  0  0  0  0  0
  139.4520   78.7220  219.4920 C   0  0  0  0  0  0  0  0  0  0  0  0
  140.4290   79.3040  220.4920 C   0  0  0  0  0  0  0  0  0  0  0  0
  141.8250   78.8650  220.1310 C   0  0  0  0  0  0  0  0  0  0  0  0
  141.9410   77.3890  220.4020 C   0  0  2  0  0  0  0  0  0  0  0  0
  142.7880   76.7020  219.3890 C   0  0  0  0  0  0  0  0  0  0  0  0
  142.7610   75.4070  219.2060 C   0  0  0  0  0  0  0  0  0  0  0  0
  143.6440   74.4590  219.8690 C   0  0  0  0  0  0  0  0  0  0  0  0
  143.3640   73.1130  219.9580 C   0  0  0  0  0  0  0  0  0  0  0  0
  144.2090   72.2120  220.5910 C   0  0  0  0  0  0  0  0  0  0  0  0
  145.3870   72.6610  221.1650 C   0  0  0  0  0  0  0  0  0  0  0  0
  145.6890   74.0110  221.0870 C   0  0  0  0  0  0  0  0  0  0  0  0
  144.8210   74.8890  220.4450 C   0  0  0  0  0  0  0  0  0  0  0  0
  140.0910   71.3800  223.3430 C   0  0  0  0  0  0  0  0  0  0  0  0
  139.5480   70.1140  223.2480 C   0  0  0  0  0  0  0  0  0  0  0  0
  139.4200   69.3370  224.3810 C   0  0  0  0  0  0  0  0  0  0  0  0
  139.8360   69.8400  225.5950 C   0  0  0  0  0  0  0  0  0  0  0  0
  139.7180   69.0750  226.7610 C   0  0  0  0  0  0  0  0  0  0  0  0
  140.1330   69.5670  227.9870 C   0  0  0  0  0  0  0  0  0  0  0  0
  140.0290   68.8440  229.1320 F   0  0  0  0  0  0  0  0  0  0  0  0
  140.6680   70.8360  228.0270 C   0  0  0  0  0  0  0  0  0  0  0  0
  140.8030   71.6250  226.8990 C   0  0  0  0  0  0  0  0  0  0  0  0
  140.3790   71.1060  225.6910 C   0  0  0  0  0  0  0  0  0  0  0  0
  140.4760   71.8120  224.5470 N   0  0  0  0  0  0  0  0  0  0  0  0
  139.5770   73.9620  223.1830 H   0  0  0  0  0  0  0  0  0  0  0  0
  140.8363   74.1287  220.4766 H   0  0  0  0  0  0  0  0  0  0  0  0
  139.0490   74.4762  220.6033 H   0  0  0  0  0  0  0  0  0  0  0  0
  140.0234   76.9160  218.4645 H   0  0  0  0  0  0  0  0  0  0  0  0
  138.6908   76.7158  219.6592 H   0  0  0  0  0  0  0  0  0  0  0  0
  139.6421   79.1462  218.4951 H   0  0  0  0  0  0  0  0  0  0  0  0
  138.4193   78.9626  219.7846 H   0  0  0  0  0  0  0  0  0  0  0  0
  140.3704   80.4022  220.4678 H   0  0  0  0  0  0  0  0  0  0  0  0
  140.1792   78.9500  221.5031 H   0  0  0  0  0  0  0  0  0  0  0  0
  142.0136   79.0635  219.0656 H   0  0  0  0  0  0  0  0  0  0  0  0
  142.5633   79.4194  220.7290 H   0  0  0  0  0  0  0  0  0  0  0  0
  142.4454   77.2489  221.3694 H   0  0  0  0  0  0  0  0  0  0  0  0
  143.4645   77.3082  218.7687 H   0  0  0  0  0  0  0  0  0  0  0  0
  142.0181   75.0061  218.5008 H   0  0  0  0  0  0  0  0  0  0  0  0
  142.4328   72.7370  219.5091 H   0  0  0  0  0  0  0  0  0  0  0  0
  143.9442   71.1453  220.6367 H   0  0  0  0  0  0  0  0  0  0  0  0
  146.0678   71.9611  221.6716 H   0  0  0  0  0  0  0  0  0  0  0  0
  146.6193   74.3905  221.5347 H   0  0  0  0  0  0  0  0  0  0  0  0
  145.0811   75.9567  220.3955 H   0  0  0  0  0  0  0  0  0  0  0  0
  139.2187   69.7263  222.2727 H   0  0  0  0  0  0  0  0  0  0  0  0
  138.9903   68.3265  224.3161 H   0  0  0  0  0  0  0  0  0  0  0  0
  139.2877   68.0643  226.7024 H   0  0  0  0  0  0  0  0  0  0  0  0
  141.0013   71.2380  228.9952 H   0  0  0  0  0  0  0  0  0  0  0  0
  141.2347   72.6348  226.9619 H   0  0  0  0  0  0  0  0  0  0  0  0
  1  2  2  0
  2  3  1  0
  3  4  1  0
  4  5  1  0
  5  6  2  0
  5  7  1  0
  7  8  1  0
  8  9  1  0
  9 10  1  0
 10 11  1  0
 11 12  1  0
 12 13  1  0
 13 14  2  0
 14 15  1  0
 15 16  2  0
 16 17  1  0
 17 18  2  0
 18 19  1  0
 19 20  2  0
  2 21  1  0
 21 22  2  0
 22 23  1  0
 23 24  2  0
 24 25  1  0
 25 26  2  0
 26 27  1  0
 26 28  1  0
 28 29  2  0
 29 30  1  0
 30 31  2  0
 12  7  1  0
 20 15  1  0
 31 21  1  0
 30 24  1  0
  3 32  1  0
  4 33  1  0
  4 34  1  0
  8 35  1  0
  8 36  1  0
  9 37  1  0
  9 38  1  0
 10 39  1  0
 10 40  1  0
 11 41  1  0
 11 42  1  0
 12 43  1  1
 13 44  1  0
 14 45  1  0
 16 46  1  0
 17 47  1  0
 18 48  1  0
 19 49  1  0
 20 50  1  0
 22 51  1  0
 23 52  1  0
 25 53  1  0
 28 54  1  0
 29 55  1  0
M  END
>  <smiles>  (20) 
O=C(NCC(=O)N1CCCCC1/C=C/c1ccccc1)c1ccc2cc(F)ccc2n1

>  <score_type>  (20) 
oracle

>  <origin>  (20) 
autodockgpu

>  <m_score__min__energy>  (20) 
-9.1600000000000001

>  <m_primary>  (20) 
energy

>  <rmsd>  (20) 
2.023219484617951

>  <m_score__min__rmsd>  (20) 
2.023219484617951

>  <meeko>  (20) 
{"free_energy": -8.28, "intermolecular_energy": -10.36, "internal_energy": -2.32, "cluster_size": 9, "cluster_id": 3, "rank_in_cluster": 6}

>  <energy>  (20) 
-8.52

>  <cluster_rmsd>  (20) 
1.28

>  <cluster>  (20) 
1

$$$$

     RDKit          3D

 55 58  0  0  0  0  0  0  0  0999 V2000
  138.7350   71.2500  221.1920 O   0  0  0  0  0  0  0  0  0  0  0  0
  139.1040   71.7820  222.2560 C   0  0  0  0  0  0  0  0  0  0  0  0
  139.2410   73.1940  222.3490 N   0  0  0  0  0  0  0  0  0  0  0  0
  138.9660   74.0540  221.2420 C   0  0  0  0  0  0  0  0  0  0  0  0
  140.0770   74.1210  220.2620 C   0  0  0  0  0  0  0  0  0  0  0  0
  140.0130   73.5230  219.1560 O   0  0  0  0  0  0  0  0  0  0  0  0
  141.2240   74.8870  220.6110 N   0  0  0  0  0  0  0  0  0  0  0  0
  142.5420   74.2820  220.7980 C   0  0  0  0  0  0  0  0  0  0  0  0
  143.5460   74.9080  219.8350 C   0  0  0  0  0  0  0  0  0  0  0  0
  142.8550   76.0370  219.1010 C   0  0  0  0  0  0  0  0  0  0  0  0
  142.2710   76.9960  220.1070 C   0  0  0  0  0  0  0  0  0  0  0  0
  141.1170   76.3160  220.7940 C   0  0  2  0  0  0  0  0  0  0  0  0
  141.0320   76.6820  222.2330 C   0  0  0  0  0  0  0  0  0  0  0  0
  140.3720   77.7290  222.6570 C   0  0  0  0  0  0  0  0  0  0  0  0
  140.9750   79.0190  222.9610 C   0  0  0  0  0  0  0  0  0  0  0  0
  140.3420   80.2170  222.7090 C   0  0  0  0  0  0  0  0  0  0  0  0
  140.9210   81.4450  223.0000 C   0  0  0  0  0  0  0  0  0  0  0  0
  142.1830   81.4940  223.5650 C   0  0  0  0  0  0  0  0  0  0  0  0
  142.8380   80.3010  223.8270 C   0  0  0  0  0  0  0  0  0  0  0  0
  142.2310   79.0860  223.5240 C   0  0  0  0  0  0  0  0  0  0  0  0
  139.4100   70.9700  223.4470 C   0  0  0  0  0  0  0  0  0  0  0  0
  139.1660   69.6120  223.4440 C   0  0  0  0  0  0  0  0  0  0  0  0
  139.4570   68.8610  224.5640 C   0  0  0  0  0  0  0  0  0  0  0  0
  139.9860   69.4820  225.6750 C   0  0  0  0  0  0  0  0  0  0  0  0
  140.2900   68.7470  226.8260 C   0  0  0  0  0  0  0  0  0  0  0  0
  140.8230   69.3590  227.9480 C   0  0  0  0  0  0  0  0  0  0  0  0
  141.1260   68.6660  229.0760 F   0  0  0  0  0  0  0  0  0  0  0  0
  141.0470   70.7170  227.8990 C   0  0  0  0  0  0  0  0  0  0  0  0
  140.7610   71.4810  226.7820 C   0  0  0  0  0  0  0  0  0  0  0  0
  140.2300   70.8420  225.6790 C   0  0  0  0  0  0  0  0  0  0  0  0
  139.9240   71.5160  224.5530 N   0  0  0  0  0  0  0  0  0  0  0  0
  139.5600   73.5980  223.2800 H   0  0  0  0  0  0  0  0  0  0  0  0
  138.0676   73.6836  220.7267 H   0  0  0  0  0  0  0  0  0  0  0  0
  138.8243   75.0680  221.6441 H   0  0  0  0  0  0  0  0  0  0  0  0
  142.8763   74.4500  221.8324 H   0  0  0  0  0  0  0  0  0  0  0  0
  142.4750   73.2025  220.5977 H   0  0  0  0  0  0  0  0  0  0  0  0
  144.4064   75.3005  220.3969 H   0  0  0  0  0  0  0  0  0  0  0  0
  143.9079   74.1546  219.1199 H   0  0  0  0  0  0  0  0  0  0  0  0
  143.5836   76.5653  218.4685 H   0  0  0  0  0  0  0  0  0  0  0  0
  142.0526   75.6306  218.4678 H   0  0  0  0  0  0  0  0  0  0  0  0
  143.0364   77.2692  220.8482 H   0  0  0  0  0  0  0  0  0  0  0  0
  141.9260   77.9106  219.6026 H   0  0  0  0  0  0  0  0  0  0  0  0
  140.1803   76.6643  220.3343 H   0  0  0  0  0  0  0  0  0  0  0  0
  141.5446   76.0469  222.9704 H   0  0  0  0  0  0  0  0  0  0  0  0
  139.2852   77.6277  222.7934 H   0  0  0  0  0  0  0  0  0  0  0  0
  139.3382   80.1996  222.2595 H   0  0  0  0  0  0  0  0  0  0  0  0
  140.3778   82.3764  222.7819 H   0  0  0  0  0  0  0  0  0  0  0  0
  142.6561   82.4586  223.8011 H   0  0  0  0  0  0  0  0  0  0  0  0
  143.8419   80.3146  224.2764 H   0  0  0  0  0  0  0  0  0  0  0  0
  142.7696   78.1516  223.7403 H   0  0  0  0  0  0  0  0  0  0  0  0
  138.7408   69.1297  222.5514 H   0  0  0  0  0  0  0  0  0  0  0  0
  139.2687   67.7773  224.5703 H   0  0  0  0  0  0  0  0  0  0  0  0
  140.1022   67.6632  226.8399 H   0  0  0  0  0  0  0  0  0  0  0  0
  141.4705   71.2142  228.7841 H   0  0  0  0  0  0  0  0  0  0  0  0
  140.9507   72.5645  226.7726 H   0  0  0  0  0  0  0  0  0  0  0  0
  1  2  2  0
  2  3  1  0
  3  4  1  0
  4  5  1  0
  5  6  2  0
  5  7  1  0
  7  8  1  0
  8  9  1  0
  9 10  1  0
 10 11  1  0
 11 12  1  0
 12 13  1  0
 13 14  2  0
 14 15  1  0
 15 16  2  0
 16 17  1  0
 17 18  2  0
 18 19  1  0
 19 20  2  0
  2 21  1  0
 21 22  2  0
 22 23  1  0
 23 24  2  0
 24 25  1  0
 25 26  2  0
 26 27  1  0
 26 28  1  0
 28 29  2  0
 29 30  1  0
 30 31  2  0
 12  7  1  0
 20 15  1  0
 31 21  1  0
 30 24  1  0
  3 32  1  0
  4 33  1  0
  4 34  1  0
  8 35  1  0
  8 36  1  0
  9 37  1  0
  9 38  1  0
 10 39  1  0
 10 40  1  0
 11 41  1  0
 11 42  1  0
 12 43  1  6
 13 44  1  0
 14 45  1  0
 16 46  1  0
 17 47  1  0
 18 48  1  0
 19 49  1  0
 20 50  1  0
 22 51  1  0
 23 52  1  0
 25 53  1  0
 28 54  1  0
 29 55  1  0
M  END
>  <smiles>  (21) 
O=C(NCC(=O)N1CCCCC1/C=C/c1ccccc1)c1ccc2cc(F)ccc2n1

>  <score_type>  (21) 
oracle

>  <origin>  (21) 
autodockgpu

>  <m_score__min__energy>  (21) 
-9.1600000000000001

>  <m_primary>  (21) 
energy

>  <rmsd>  (21) 
2.1641351615297033

>  <m_score__min__rmsd>  (21) 
2.1641351615297033

>  <meeko>  (21) 
{"free_energy": -8.93, "intermolecular_energy": -11.02, "internal_energy": -1.84, "cluster_size": 23, "cluster_id": 1, "rank_in_cluster": 6}

>  <energy>  (21) 
-8.46

>  <cluster_rmsd>  (21) 
1.76

>  <cluster>  (21) 
1

$$$$

     RDKit          3D

 55 58  0  0  0  0  0  0  0  0999 V2000
  141.2640   72.1400  221.4810 O   0  0  0  0  0  0  0  0  0  0  0  0
  140.3310   72.2910  222.2930 C   0  0  0  0  0  0  0  0  0  0  0  0
  139.3770   73.3300  222.1120 N   0  0  0  0  0  0  0  0  0  0  0  0
  139.4430   74.2320  221.0080 C   0  0  0  0  0  0  0  0  0  0  0  0
  139.9330   75.5810  221.3810 C   0  0  0  0  0  0  0  0  0  0  0  0
  139.6300   76.1070  222.4840 O   0  0  0  0  0  0  0  0  0  0  0  0
  140.7610   76.2680  220.4490 N   0  0  0  0  0  0  0  0  0  0  0  0
  142.2180   76.1570  220.4670 C   0  0  0  0  0  0  0  0  0  0  0  0
  142.7180   75.6230  219.1280 C   0  0  0  0  0  0  0  0  0  0  0  0
  141.5340   75.5130  218.1920 C   0  0  0  0  0  0  0  0  0  0  0  0
  140.8390   76.8490  218.1140 C   0  0  0  0  0  0  0  0  0  0  0  0
  140.1710   77.1120  219.4370 C   0  0  2  0  0  0  0  0  0  0  0  0
  140.2310   78.5500  219.8150 C   0  0  0  0  0  0  0  0  0  0  0  0
  141.3420   79.1400  220.1720 C   0  0  0  0  0  0  0  0  0  0  0  0
  141.7110   79.4480  221.5460 C   0  0  0  0  0  0  0  0  0  0  0  0
  142.5370   80.4990  221.8810 C   0  0  0  0  0  0  0  0  0  0  0  0
  142.8860   80.7880  223.1930 C   0  0  0  0  0  0  0  0  0  0  0  0
  142.3990   80.0030  224.2230 C   0  0  0  0  0  0  0  0  0  0  0  0
  141.5660   78.9400  223.9100 C   0  0  0  0  0  0  0  0  0  0  0  0
  141.2350   78.6760  222.5850 C   0  0  0  0  0  0  0  0  0  0  0  0
  140.1870   71.4060  223.4620 C   0  0  0  0  0  0  0  0  0  0  0  0
  139.5670   70.1800  223.3340 C   0  0  0  0  0  0  0  0  0  0  0  0
  139.4370   69.3590  224.4350 C   0  0  0  0  0  0  0  0  0  0  0  0
  139.9310   69.7780  225.6510 C   0  0  0  0  0  0  0  0  0  0  0  0
  139.8140   68.9670  226.7860 C   0  0  0  0  0  0  0  0  0  0  0  0
  140.3060   69.3760  228.0140 C   0  0  0  0  0  0  0  0  0  0  0  0
  140.2040   68.6060  229.1280 F   0  0  0  0  0  0  0  0  0  0  0  0
  140.9170   70.6080  228.0880 C   0  0  0  0  0  0  0  0  0  0  0  0
  141.0540   71.4410  226.9920 C   0  0  0  0  0  0  0  0  0  0  0  0
  140.5520   71.0050  225.7810 C   0  0  0  0  0  0  0  0  0  0  0  0
  140.6460   71.7580  224.6670 N   0  0  0  0  0  0  0  0  0  0  0  0
  138.6000   73.4170  222.8340 H   0  0  0  0  0  0  0  0  0  0  0  0
  140.1225   73.8103  220.2527 H   0  0  0  0  0  0  0  0  0  0  0  0
  138.4193   74.3520  220.6238 H   0  0  0  0  0  0  0  0  0  0  0  0
  142.6565   77.1491  220.6501 H   0  0  0  0  0  0  0  0  0  0  0  0
  142.5171   75.4632  221.2665 H   0  0  0  0  0  0  0  0  0  0  0  0
  143.4633   76.3135  218.7064 H   0  0  0  0  0  0  0  0  0  0  0  0
  143.1888   74.6381  219.2632 H   0  0  0  0  0  0  0  0  0  0  0  0
  141.8824   75.2203  217.1905 H   0  0  0  0  0  0  0  0  0  0  0  0
  140.8337   74.7531  218.5690 H   0  0  0  0  0  0  0  0  0  0  0  0
  141.5749   77.6395  217.9052 H   0  0  0  0  0  0  0  0  0  0  0  0
  140.0916   76.8409  217.3069 H   0  0  0  0  0  0  0  0  0  0  0  0
  139.1031   76.8643  219.3461 H   0  0  0  0  0  0  0  0  0  0  0  0
  139.3032   79.1406  219.7932 H   0  0  0  0  0  0  0  0  0  0  0  0
  142.0479   79.4237  219.3775 H   0  0  0  0  0  0  0  0  0  0  0  0
  142.9357   81.1344  221.0764 H   0  0  0  0  0  0  0  0  0  0  0  0
  143.5478   81.6386  223.4132 H   0  0  0  0  0  0  0  0  0  0  0  0
  142.6671   80.2178  225.2680 H   0  0  0  0  0  0  0  0  0  0  0  0
  141.1653   78.3030  224.7123 H   0  0  0  0  0  0  0  0  0  0  0  0
  140.5740   77.8263  222.3592 H   0  0  0  0  0  0  0  0  0  0  0  0
  139.1775   69.8582  222.3569 H   0  0  0  0  0  0  0  0  0  0  0  0
  138.9440   68.3800  224.3430 H   0  0  0  0  0  0  0  0  0  0  0  0
  139.3222   67.9868  226.7008 H   0  0  0  0  0  0  0  0  0  0  0  0
  141.3123   70.9434  229.0582 H   0  0  0  0  0  0  0  0  0  0  0  0
  141.5473   72.4201  227.0820 H   0  0  0  0  0  0  0  0  0  0  0  0
  1  2  2  0
  2  3  1  0
  3  4  1  0
  4  5  1  0
  5  6  2  0
  5  7  1  0
  7  8  1  0
  8  9  1  0
  9 10  1  0
 10 11  1  0
 11 12  1  0
 12 13  1  0
 13 14  2  0
 14 15  1  0
 15 16  2  0
 16 17  1  0
 17 18  2  0
 18 19  1  0
 19 20  2  0
  2 21  1  0
 21 22  2  0
 22 23  1  0
 23 24  2  0
 24 25  1  0
 25 26  2  0
 26 27  1  0
 26 28  1  0
 28 29  2  0
 29 30  1  0
 30 31  2  0
 12  7  1  0
 20 15  1  0
 31 21  1  0
 30 24  1  0
  3 32  1  0
  4 33  1  0
  4 34  1  0
  8 35  1  0
  8 36  1  0
  9 37  1  0
  9 38  1  0
 10 39  1  0
 10 40  1  0
 11 41  1  0
 11 42  1  0
 12 43  1  6
 13 44  1  0
 14 45  1  0
 16 46  1  0
 17 47  1  0
 18 48  1  0
 19 49  1  0
 20 50  1  0
 22 51  1  0
 23 52  1  0
 25 53  1  0
 28 54  1  0
 29 55  1  0
M  END
>  <smiles>  (22) 
O=C(NCC(=O)N1CCCCC1/C=C/c1ccccc1)c1ccc2cc(F)ccc2n1

>  <score_type>  (22) 
oracle

>  <origin>  (22) 
autodockgpu

>  <m_score__min__energy>  (22) 
-9.1600000000000001

>  <m_primary>  (22) 
energy

>  <rmsd>  (22) 
1.92958031478811

>  <m_score__min__rmsd>  (22) 
1.92958031478811

>  <meeko>  (22) 
{"free_energy": -8.57, "intermolecular_energy": -10.66, "internal_energy": -1.75, "cluster_size": 23, "cluster_id": 1, "rank_in_cluster": 17}

>  <energy>  (22) 
-8.46

>  <cluster_rmsd>  (22) 
1.55

>  <cluster>  (22) 
1

$$$$

     RDKit          3D

 55 58  0  0  0  0  0  0  0  0999 V2000
  133.5530   70.0100  226.7970 O   0  0  0  0  0  0  0  0  0  0  0  0
  133.9220   71.1070  226.3360 C   0  0  0  0  0  0  0  0  0  0  0  0
  135.0300   71.1820  225.4480 N   0  0  0  0  0  0  0  0  0  0  0  0
  135.7590   70.0200  225.0510 C   0  0  0  0  0  0  0  0  0  0  0  0
  136.7620   70.2910  223.9930 C   0  0  0  0  0  0  0  0  0  0  0  0
  137.0940   71.4670  223.6900 O   0  0  0  0  0  0  0  0  0  0  0  0
  137.3410   69.1750  223.3270 N   0  0  0  0  0  0  0  0  0  0  0  0
  136.5340   68.1680  222.6400 C   0  0  0  0  0  0  0  0  0  0  0  0
  136.9320   68.0930  221.1690 C   0  0  0  0  0  0  0  0  0  0  0  0
  138.1230   69.0030  220.9550 C   0  0  0  0  0  0  0  0  0  0  0  0
  139.2160   68.6220  221.9210 C   0  0  0  0  0  0  0  0  0  0  0  0
  138.7750   69.0030  223.3090 C   0  0  2  0  0  0  0  0  0  0  0  0
  139.2230   68.0130  224.3260 C   0  0  0  0  0  0  0  0  0  0  0  0
  139.2180   68.2680  225.6090 C   0  0  0  0  0  0  0  0  0  0  0  0
  139.8040   69.4530  226.2200 C   0  0  0  0  0  0  0  0  0  0  0  0
  140.5350   70.3770  225.5070 C   0  0  0  0  0  0  0  0  0  0  0  0
  141.0920   71.5050  226.0930 C   0  0  0  0  0  0  0  0  0  0  0  0
  140.9200   71.7320  227.4480 C   0  0  0  0  0  0  0  0  0  0  0  0
  140.1880   70.8150  228.1860 C   0  0  0  0  0  0  0  0  0  0  0  0
  139.6420   69.6930  227.5680 C   0  0  0  0  0  0  0  0  0  0  0  0
  133.2280   72.3570  226.6940 C   0  0  0  0  0  0  0  0  0  0  0  0
  131.9770   72.3140  227.2760 C   0  0  0  0  0  0  0  0  0  0  0  0
  131.3350   73.4900  227.6070 C   0  0  0  0  0  0  0  0  0  0  0  0
  131.9560   74.6930  227.3490 C   0  0  0  0  0  0  0  0  0  0  0  0
  131.3300   75.9020  227.6740 C   0  0  0  0  0  0  0  0  0  0  0  0
  131.9430   77.1180  227.4210 C   0  0  0  0  0  0  0  0  0  0  0  0
  131.3550   78.3030  227.7270 F   0  0  0  0  0  0  0  0  0  0  0  0
  133.1910   77.1050  226.8400 C   0  0  0  0  0  0  0  0  0  0  0  0
  133.8450   75.9330  226.5040 C   0  0  0  0  0  0  0  0  0  0  0  0
  133.2080   74.7370  226.7680 C   0  0  0  0  0  0  0  0  0  0  0  0
  133.7790   73.5530  226.4690 N   0  0  0  0  0  0  0  0  0  0  0  0
  135.3050   72.1430  225.0840 H   0  0  0  0  0  0  0  0  0  0  0  0
  136.2805   69.6170  225.9317 H   0  0  0  0  0  0  0  0  0  0  0  0
  135.0329   69.3051  224.6367 H   0  0  0  0  0  0  0  0  0  0  0  0
  136.6965   67.1876  223.1115 H   0  0  0  0  0  0  0  0  0  0  0  0
  135.4722   68.4461  222.7124 H   0  0  0  0  0  0  0  0  0  0  0  0
  137.2017   67.0589  220.9083 H   0  0  0  0  0  0  0  0  0  0  0  0
  136.0930   68.4085  220.5315 H   0  0  0  0  0  0  0  0  0  0  0  0
  138.4889   68.8940  219.9234 H   0  0  0  0  0  0  0  0  0  0  0  0
  137.8257   70.0482  221.1259 H   0  0  0  0  0  0  0  0  0  0  0  0
  139.3942   67.5376  221.8720 H   0  0  0  0  0  0  0  0  0  0  0  0
  140.1487   69.1450  221.6630 H   0  0  0  0  0  0  0  0  0  0  0  0
  139.2511   69.9571  223.5791 H   0  0  0  0  0  0  0  0  0  0  0  0
  139.5724   67.0273  223.9851 H   0  0  0  0  0  0  0  0  0  0  0  0
  138.7370   67.5353  226.2736 H   0  0  0  0  0  0  0  0  0  0  0  0
  140.6834   70.2144  224.4293 H   0  0  0  0  0  0  0  0  0  0  0  0
  141.6682   72.2163  225.4831 H   0  0  0  0  0  0  0  0  0  0  0  0
  141.3549   72.6209  227.9284 H   0  0  0  0  0  0  0  0  0  0  0  0
  140.0379   70.9742  229.2640 H   0  0  0  0  0  0  0  0  0  0  0  0
  139.0650   68.9777  228.1725 H   0  0  0  0  0  0  0  0  0  0  0  0
  131.4937   71.3461  227.4752 H   0  0  0  0  0  0  0  0  0  0  0  0
  130.3383   73.4674  228.0718 H   0  0  0  0  0  0  0  0  0  0  0  0
  130.3331   75.8861  228.1388 H   0  0  0  0  0  0  0  0  0  0  0  0
  133.6880   78.0646  226.6347 H   0  0  0  0  0  0  0  0  0  0  0  0
  134.8424   75.9535  226.0405 H   0  0  0  0  0  0  0  0  0  0  0  0
  1  2  2  0
  2  3  1  0
  3  4  1  0
  4  5  1  0
  5  6  2  0
  5  7  1  0
  7  8  1  0
  8  9  1  0
  9 10  1  0
 10 11  1  0
 11 12  1  0
 12 13  1  0
 13 14  2  0
 14 15  1  0
 15 16  2  0
 16 17  1  0
 17 18  2  0
 18 19  1  0
 19 20  2  0
  2 21  1  0
 21 22  2  0
 22 23  1  0
 23 24  2  0
 24 25  1  0
 25 26  2  0
 26 27  1  0
 26 28  1  0
 28 29  2  0
 29 30  1  0
 30 31  2  0
 12  7  1  0
 20 15  1  0
 31 21  1  0
 30 24  1  0
  3 32  1  0
  4 33  1  0
  4 34  1  0
  8 35  1  0
  8 36  1  0
  9 37  1  0
  9 38  1  0
 10 39  1  0
 10 40  1  0
 11 41  1  0
 11 42  1  0
 12 43  1  1
 13 44  1  0
 14 45  1  0
 16 46  1  0
 17 47  1  0
 18 48  1  0
 19 49  1  0
 20 50  1  0
 22 51  1  0
 23 52  1  0
 25 53  1  0
 28 54  1  0
 29 55  1  0
M  END
>  <smiles>  (23) 
O=C(NCC(=O)N1CCCCC1/C=C/c1ccccc1)c1ccc2cc(F)ccc2n1

>  <score_type>  (23) 
oracle

>  <origin>  (23) 
autodockgpu

>  <m_score__min__energy>  (23) 
-9.1600000000000001

>  <m_primary>  (23) 
energy

>  <rmsd>  (23) 
8.854331773455371

>  <m_score__min__rmsd>  (23) 
8.854331773455371

>  <meeko>  (23) 
{"free_energy": -8.1, "intermolecular_energy": -10.19, "internal_energy": -2.26, "cluster_size": 4, "cluster_id": 6, "rank_in_cluster": 2}

>  <energy>  (23) 
-8.41

>  <cluster_rmsd>  (23) 
1.62

>  <cluster>  (23) 
1

$$$$

     RDKit          3D

 55 58  0  0  0  0  0  0  0  0999 V2000
  140.6760   71.5880  221.1200 O   0  0  0  0  0  0  0  0  0  0  0  0
  140.1720   72.0130  222.1770 C   0  0  0  0  0  0  0  0  0  0  0  0
  139.6750   73.3430  222.2570 N   0  0  0  0  0  0  0  0  0  0  0  0
  139.7300   74.2380  221.1450 C   0  0  0  0  0  0  0  0  0  0  0  0
  140.6330   75.3930  221.3660 C   0  0  0  0  0  0  0  0  0  0  0  0
  140.4890   76.1570  222.3570 O   0  0  0  0  0  0  0  0  0  0  0  0
  141.6720   75.6140  220.4200 N   0  0  0  0  0  0  0  0  0  0  0  0
  142.9480   74.9020  220.4780 C   0  0  0  0  0  0  0  0  0  0  0  0
  143.1760   74.1320  219.1810 C   0  0  0  0  0  0  0  0  0  0  0  0
  142.0550   74.4750  218.2240 C   0  0  0  0  0  0  0  0  0  0  0  0
  141.9870   75.9730  218.0600 C   0  0  0  0  0  0  0  0  0  0  0  0
  141.4910   76.5680  219.3510 C   0  0  2  0  0  0  0  0  0  0  0  0
  142.1510   77.8660  219.6540 C   0  0  0  0  0  0  0  0  0  0  0  0
  141.4890   78.9140  220.0730 C   0  0  0  0  0  0  0  0  0  0  0  0
  141.6700   79.5410  221.3740 C   0  0  0  0  0  0  0  0  0  0  0  0
  141.8520   78.8190  222.5340 C   0  0  0  0  0  0  0  0  0  0  0  0
  142.0250   79.4210  223.7720 C   0  0  0  0  0  0  0  0  0  0  0  0
  142.0150   80.8010  223.8730 C   0  0  0  0  0  0  0  0  0  0  0  0
  141.8330   81.5490  222.7200 C   0  0  0  0  0  0  0  0  0  0  0  0
  141.6640   80.9150  221.4930 C   0  0  0  0  0  0  0  0  0  0  0  0
  140.0760   71.1580  223.3730 C   0  0  0  0  0  0  0  0  0  0  0  0
  139.5110   69.9020  223.2860 C   0  0  0  0  0  0  0  0  0  0  0  0
  139.4260   69.1090  224.4120 C   0  0  0  0  0  0  0  0  0  0  0  0
  139.9070   69.5880  225.6120 C   0  0  0  0  0  0  0  0  0  0  0  0
  139.8350   68.8070  226.7710 C   0  0  0  0  0  0  0  0  0  0  0  0
  140.3150   69.2750  227.9820 C   0  0  0  0  0  0  0  0  0  0  0  0
  140.2550   68.5360  229.1200 F   0  0  0  0  0  0  0  0  0  0  0  0
  140.8690   70.5350  228.0150 C   0  0  0  0  0  0  0  0  0  0  0  0
  140.9620   71.3400  226.8940 C   0  0  0  0  0  0  0  0  0  0  0  0
  140.4730   70.8450  225.7000 C   0  0  0  0  0  0  0  0  0  0  0  0
  140.5250   71.5670  224.5630 N   0  0  0  0  0  0  0  0  0  0  0  0
  139.2550   73.6580  223.1820 H   0  0  0  0  0  0  0  0  0  0  0  0
  140.0848   73.6807  220.2655 H   0  0  0  0  0  0  0  0  0  0  0  0
  138.7164   74.6399  220.9998 H   0  0  0  0  0  0  0  0  0  0  0  0
  143.7633   75.6268  220.6193 H   0  0  0  0  0  0  0  0  0  0  0  0
  142.9280   74.1937  221.3194 H   0  0  0  0  0  0  0  0  0  0  0  0
  144.1422   74.4207  218.7415 H   0  0  0  0  0  0  0  0  0  0  0  0
  143.1889   73.0500  219.3788 H   0  0  0  0  0  0  0  0  0  0  0  0
  142.2476   74.0059  217.2478 H   0  0  0  0  0  0  0  0  0  0  0  0
  141.1001   74.1022  218.6229 H   0  0  0  0  0  0  0  0  0  0  0  0
  142.9874   76.3676  217.8287 H   0  0  0  0  0  0  0  0  0  0  0  0
  141.3060   76.2335  217.2364 H   0  0  0  0  0  0  0  0  0  0  0  0
  140.4179   76.7867  219.2477 H   0  0  0  0  0  0  0  0  0  0  0  0
  143.2398   77.9483  219.5205 H   0  0  0  0  0  0  0  0  0  0  0  0
  140.7428   79.3522  219.3939 H   0  0  0  0  0  0  0  0  0  0  0  0
  141.8604   77.7206  222.4758 H   0  0  0  0  0  0  0  0  0  0  0  0
  142.1696   78.8031  224.6705 H   0  0  0  0  0  0  0  0  0  0  0  0
  142.1486   81.2940  224.8472 H   0  0  0  0  0  0  0  0  0  0  0  0
  141.8221   82.6476  222.7754 H   0  0  0  0  0  0  0  0  0  0  0  0
  141.5213   81.5280  220.5909 H   0  0  0  0  0  0  0  0  0  0  0  0
  139.1296   69.5342  222.3220 H   0  0  0  0  0  0  0  0  0  0  0  0
  138.9793   68.1055  224.3529 H   0  0  0  0  0  0  0  0  0  0  0  0
  139.3888   67.8029  226.7187 H   0  0  0  0  0  0  0  0  0  0  0  0
  141.2534   70.9172  228.9721 H   0  0  0  0  0  0  0  0  0  0  0  0
  141.4110   72.3425  226.9511 H   0  0  0  0  0  0  0  0  0  0  0  0
  1  2  2  0
  2  3  1  0
  3  4  1  0
  4  5  1  0
  5  6  2  0
  5  7  1  0
  7  8  1  0
  8  9  1  0
  9 10  1  0
 10 11  1  0
 11 12  1  0
 12 13  1  0
 13 14  2  0
 14 15  1  0
 15 16  2  0
 16 17  1  0
 17 18  2  0
 18 19  1  0
 19 20  2  0
  2 21  1  0
 21 22  2  0
 22 23  1  0
 23 24  2  0
 24 25  1  0
 25 26  2  0
 26 27  1  0
 26 28  1  0
 28 29  2  0
 29 30  1  0
 30 31  2  0
 12  7  1  0
 20 15  1  0
 31 21  1  0
 30 24  1  0
  3 32  1  0
  4 33  1  0
  4 34  1  0
  8 35  1  0
  8 36  1  0
  9 37  1  0
  9 38  1  0
 10 39  1  0
 10 40  1  0
 11 41  1  0
 11 42  1  0
 12 43  1  6
 13 44  1  0
 14 45  1  0
 16 46  1  0
 17 47  1  0
 18 48  1  0
 19 49  1  0
 20 50  1  0
 22 51  1  0
 23 52  1  0
 25 53  1  0
 28 54  1  0
 29 55  1  0
M  END
>  <smiles>  (24) 
O=C(NCC(=O)N1CCCCC1/C=C/c1ccccc1)c1ccc2cc(F)ccc2n1

>  <score_type>  (24) 
oracle

>  <origin>  (24) 
autodockgpu

>  <m_score__min__energy>  (24) 
-9.1600000000000001

>  <m_primary>  (24) 
energy

>  <rmsd>  (24) 
2.09166073748523

>  <m_score__min__rmsd>  (24) 
2.09166073748523

>  <meeko>  (24) 
{"free_energy": -8.91, "intermolecular_energy": -10.99, "internal_energy": -1.78, "cluster_size": 23, "cluster_id": 1, "rank_in_cluster": 7}

>  <energy>  (24) 
-8.97

>  <cluster_rmsd>  (24) 
0.0

>  <cluster>  (24) 
2

$$$$

     RDKit          3D

 55 58  0  0  0  0  0  0  0  0999 V2000
  141.5130   72.4810  221.2180 O   0  0  0  0  0  0  0  0  0  0  0  0
  140.6850   73.2470  221.7460 C   0  0  0  0  0  0  0  0  0  0  0  0
  139.5990   72.7260  222.5030 N   0  0  0  0  0  0  0  0  0  0  0  0
  139.4120   71.3230  222.6880 C   0  0  0  0  0  0  0  0  0  0  0  0
  138.1680   70.9890  223.4230 C   0  0  0  0  0  0  0  0  0  0  0  0
  137.4100   71.8890  223.8710 O   0  0  0  0  0  0  0  0  0  0  0  0
  137.8570   69.6130  223.6100 N   0  0  0  0  0  0  0  0  0  0  0  0
  136.4890   69.1420  223.8190 C   0  0  0  0  0  0  0  0  0  0  0  0
  136.1090   68.1400  222.7330 C   0  0  0  0  0  0  0  0  0  0  0  0
  137.3330   67.8810  221.8810 C   0  0  0  0  0  0  0  0  0  0  0  0
  138.4690   67.4420  222.7690 C   0  0  0  0  0  0  0  0  0  0  0  0
  138.9060   68.6220  223.5950 C   0  0  2  0  0  0  0  0  0  0  0  0
  139.3030   68.2200  224.9720 C   0  0  0  0  0  0  0  0  0  0  0  0
  139.0010   68.9280  226.0290 C   0  0  0  0  0  0  0  0  0  0  0  0
  139.8000   70.0310  226.5430 C   0  0  0  0  0  0  0  0  0  0  0  0
  139.7910   70.4080  227.8680 C   0  0  0  0  0  0  0  0  0  0  0  0
  140.5550   71.4600  228.3530 C   0  0  0  0  0  0  0  0  0  0  0  0
  141.3660   72.1760  227.4900 C   0  0  0  0  0  0  0  0  0  0  0  0
  141.3920   71.8150  226.1520 C   0  0  0  0  0  0  0  0  0  0  0  0
  140.6140   70.7550  225.6970 C   0  0  0  0  0  0  0  0  0  0  0  0
  140.8010   74.7090  221.6050 C   0  0  0  0  0  0  0  0  0  0  0  0
  141.7710   75.2530  220.7890 C   0  0  0  0  0  0  0  0  0  0  0  0
  141.8720   76.6240  220.6640 C   0  0  0  0  0  0  0  0  0  0  0  0
  140.9980   77.4310  221.3610 C   0  0  0  0  0  0  0  0  0  0  0  0
  141.0760   78.8240  221.2550 C   0  0  0  0  0  0  0  0  0  0  0  0
  140.2040   79.6460  221.9490 C   0  0  0  0  0  0  0  0  0  0  0  0
  140.2610   81.0010  221.8620 F   0  0  0  0  0  0  0  0  0  0  0  0
  139.2550   79.0520  222.7500 C   0  0  0  0  0  0  0  0  0  0  0  0
  139.1430   77.6800  222.8840 C   0  0  0  0  0  0  0  0  0  0  0  0
  140.0270   76.8870  222.1790 C   0  0  0  0  0  0  0  0  0  0  0  0
  139.9830   75.5420  222.2560 N   0  0  0  0  0  0  0  0  0  0  0  0
  138.9190   73.4230  222.9330 H   0  0  0  0  0  0  0  0  0  0  0  0
  139.3730   70.8426  221.6992 H   0  0  0  0  0  0  0  0  0  0  0  0
  140.2556   70.9588  223.2928 H   0  0  0  0  0  0  0  0  0  0  0  0
  136.4176   68.6564  224.8034 H   0  0  0  0  0  0  0  0  0  0  0  0
  135.8017   69.9997  223.7746 H   0  0  0  0  0  0  0  0  0  0  0  0
  135.7708   67.2006  223.1946 H   0  0  0  0  0  0  0  0  0  0  0  0
  135.2926   68.5409  222.1143 H   0  0  0  0  0  0  0  0  0  0  0  0
  137.1114   67.0906  221.1487 H   0  0  0  0  0  0  0  0  0  0  0  0
  137.6142   68.8009  221.3475 H   0  0  0  0  0  0  0  0  0  0  0  0
  138.1321   66.6297  223.4298 H   0  0  0  0  0  0  0  0  0  0  0  0
  139.3074   67.0752  222.1586 H   0  0  0  0  0  0  0  0  0  0  0  0
  139.8026   69.0609  223.1329 H   0  0  0  0  0  0  0  0  0  0  0  0
  139.8738   67.2893  225.1059 H   0  0  0  0  0  0  0  0  0  0  0  0
  138.0772   68.6718  226.5684 H   0  0  0  0  0  0  0  0  0  0  0  0
  139.1521   69.8524  228.5702 H   0  0  0  0  0  0  0  0  0  0  0  0
  140.5161   71.7240  229.4201 H   0  0  0  0  0  0  0  0  0  0  0  0
  141.9768   73.0136  227.8580 H   0  0  0  0  0  0  0  0  0  0  0  0
  142.0300   72.3685  225.4473 H   0  0  0  0  0  0  0  0  0  0  0  0
  140.6491   70.4864  224.6309 H   0  0  0  0  0  0  0  0  0  0  0  0
  142.4618   74.5964  220.2397 H   0  0  0  0  0  0  0  0  0  0  0  0
  142.6415   77.0679  220.0153 H   0  0  0  0  0  0  0  0  0  0  0  0
  141.8438   79.2743  220.6088 H   0  0  0  0  0  0  0  0  0  0  0  0
  138.5571   79.6950  223.3063 H   0  0  0  0  0  0  0  0  0  0  0  0
  138.3738   77.2343  223.5319 H   0  0  0  0  0  0  0  0  0  0  0  0
  1  2  2  0
  2  3  1  0
  3  4  1  0
  4  5  1  0
  5  6  2  0
  5  7  1  0
  7  8  1  0
  8  9  1  0
  9 10  1  0
 10 11  1  0
 11 12  1  0
 12 13  1  0
 13 14  2  0
 14 15  1  0
 15 16  2  0
 16 17  1  0
 17 18  2  0
 18 19  1  0
 19 20  2  0
  2 21  1  0
 21 22  2  0
 22 23  1  0
 23 24  2  0
 24 25  1  0
 25 26  2  0
 26 27  1  0
 26 28  1  0
 28 29  2  0
 29 30  1  0
 30 31  2  0
 12  7  1  0
 20 15  1  0
 31 21  1  0
 30 24  1  0
  3 32  1  0
  4 33  1  0
  4 34  1  0
  8 35  1  0
  8 36  1  0
  9 37  1  0
  9 38  1  0
 10 39  1  0
 10 40  1  0
 11 41  1  0
 11 42  1  0
 12 43  1  6
 13 44  1  0
 14 45  1  0
 16 46  1  0
 17 47  1  0
 18 48  1  0
 19 49  1  0
 20 50  1  0
 22 51  1  0
 23 52  1  0
 25 53  1  0
 28 54  1  0
 29 55  1  0
M  END
>  <smiles>  (25) 
O=C(NCC(=O)N1CCCCC1/C=C/c1ccccc1)c1ccc2cc(F)ccc2n1

>  <score_type>  (25) 
oracle

>  <origin>  (25) 
autodockgpu

>  <m_score__min__energy>  (25) 
-9.1600000000000001

>  <m_primary>  (25) 
energy

>  <rmsd>  (25) 
8.618118639583383

>  <m_score__min__rmsd>  (25) 
8.618118639583383

>  <meeko>  (25) 
{"free_energy": -8.03, "intermolecular_energy": -10.12, "internal_energy": -2.49, "cluster_size": 5, "cluster_id": 4, "rank_in_cluster": 5}

>  <energy>  (25) 
-8.93

>  <cluster_rmsd>  (25) 
1.34

>  <cluster>  (25) 
2

$$$$

     RDKit          3D

 55 58  0  0  0  0  0  0  0  0999 V2000
  140.3040   71.7300  221.0140 O   0  0  0  0  0  0  0  0  0  0  0  0
  140.0460   72.2130  222.1330 C   0  0  0  0  0  0  0  0  0  0  0  0
  139.7860   73.6040  222.2770 N   0  0  0  0  0  0  0  0  0  0  0  0
  139.8080   74.4960  221.1630 C   0  0  0  0  0  0  0  0  0  0  0  0
  140.0900   75.9010  221.5420 C   0  0  0  0  0  0  0  0  0  0  0  0
  140.0770   76.2710  222.7460 O   0  0  0  0  0  0  0  0  0  0  0  0
  140.3770   76.8250  220.4980 N   0  0  0  0  0  0  0  0  0  0  0  0
  139.3840   77.2070  219.4960 C   0  0  0  0  0  0  0  0  0  0  0  0
  139.1590   78.7160  219.5300 C   0  0  0  0  0  0  0  0  0  0  0  0
  140.1440   79.3170  220.5100 C   0  0  0  0  0  0  0  0  0  0  0  0
  141.5410   78.8990  220.1260 C   0  0  0  0  0  0  0  0  0  0  0  0
  141.6860   77.4260  220.3990 C   0  0  2  0  0  0  0  0  0  0  0  0
  142.5260   76.7500  219.3740 C   0  0  0  0  0  0  0  0  0  0  0  0
  143.7100   76.2620  219.6420 C   0  0  0  0  0  0  0  0  0  0  0  0
  143.9630   74.8910  220.0630 C   0  0  0  0  0  0  0  0  0  0  0  0
  145.1930   74.4630  220.5120 C   0  0  0  0  0  0  0  0  0  0  0  0
  145.4310   73.1550  220.9120 C   0  0  0  0  0  0  0  0  0  0  0  0
  144.4060   72.2250  220.8660 C   0  0  0  0  0  0  0  0  0  0  0  0
  143.1600   72.6340  220.4180 C   0  0  0  0  0  0  0  0  0  0  0  0
  142.9540   73.9520  220.0240 C   0  0  0  0  0  0  0  0  0  0  0  0
  140.0030   71.3650  223.3380 C   0  0  0  0  0  0  0  0  0  0  0  0
  139.5030   70.0810  223.2660 C   0  0  0  0  0  0  0  0  0  0  0  0
  139.4670   69.2950  224.4000 C   0  0  0  0  0  0  0  0  0  0  0  0
  139.9320   69.8090  225.5910 C   0  0  0  0  0  0  0  0  0  0  0  0
  139.9080   69.0360  226.7580 C   0  0  0  0  0  0  0  0  0  0  0  0
  140.3730   69.5390  227.9610 C   0  0  0  0  0  0  0  0  0  0  0  0
  140.3600   68.8080  229.1060 F   0  0  0  0  0  0  0  0  0  0  0  0
  140.8630   70.8260  227.9780 C   0  0  0  0  0  0  0  0  0  0  0  0
  140.9050   71.6240  226.8490 C   0  0  0  0  0  0  0  0  0  0  0  0
  140.4330   71.0940  225.6640 C   0  0  0  0  0  0  0  0  0  0  0  0
  140.4400   71.8070  224.5200 N   0  0  0  0  0  0  0  0  0  0  0  0
  139.5710   73.9660  223.2540 H   0  0  0  0  0  0  0  0  0  0  0  0
  140.5868   74.1604  220.4624 H   0  0  0  0  0  0  0  0  0  0  0  0
  138.8059   74.4758  220.7098 H   0  0  0  0  0  0  0  0  0  0  0  0
  139.7430   76.9150  218.4981 H   0  0  0  0  0  0  0  0  0  0  0  0
  138.4350   76.6963  219.7164 H   0  0  0  0  0  0  0  0  0  0  0  0
  139.3238   79.1401  218.5285 H   0  0  0  0  0  0  0  0  0  0  0  0
  138.1279   78.9404  219.8405 H   0  0  0  0  0  0  0  0  0  0  0  0
  140.0674   80.4140  220.4829 H   0  0  0  0  0  0  0  0  0  0  0  0
  139.9178   78.9626  221.5265 H   0  0  0  0  0  0  0  0  0  0  0  0
  141.7078   79.0972  219.0570 H   0  0  0  0  0  0  0  0  0  0  0  0
  142.2803   79.4670  220.7099 H   0  0  0  0  0  0  0  0  0  0  0  0
  142.2100   77.2969  221.3575 H   0  0  0  0  0  0  0  0  0  0  0  0
  142.1360   76.6567  218.3497 H   0  0  0  0  0  0  0  0  0  0  0  0
  144.5749   76.9343  219.5424 H   0  0  0  0  0  0  0  0  0  0  0  0
  146.0201   75.1869  220.5553 H   0  0  0  0  0  0  0  0  0  0  0  0
  146.4300   72.8585  221.2642 H   0  0  0  0  0  0  0  0  0  0  0  0
  144.5771   71.1842  221.1783 H   0  0  0  0  0  0  0  0  0  0  0  0
  142.3303   71.9132  220.3738 H   0  0  0  0  0  0  0  0  0  0  0  0
  141.9569   74.2541  219.6710 H   0  0  0  0  0  0  0  0  0  0  0  0
  139.1344   69.6852  222.3082 H   0  0  0  0  0  0  0  0  0  0  0  0
  139.0715   68.2696  224.3535 H   0  0  0  0  0  0  0  0  0  0  0  0
  139.5125   68.0103  226.7183 H   0  0  0  0  0  0  0  0  0  0  0  0
  141.2362   71.2360  228.9281 H   0  0  0  0  0  0  0  0  0  0  0  0
  141.3020   72.6489  226.8935 H   0  0  0  0  0  0  0  0  0  0  0  0
  1  2  2  0
  2  3  1  0
  3  4  1  0
  4  5  1  0
  5  6  2  0
  5  7  1  0
  7  8  1  0
  8  9  1  0
  9 10  1  0
 10 11  1  0
 11 12  1  0
 12 13  1  0
 13 14  2  0
 14 15  1  0
 15 16  2  0
 16 17  1  0
 17 18  2  0
 18 19  1  0
 19 20  2  0
  2 21  1  0
 21 22  2  0
 22 23  1  0
 23 24  2  0
 24 25  1  0
 25 26  2  0
 26 27  1  0
 26 28  1  0
 28 29  2  0
 29 30  1  0
 30 31  2  0
 12  7  1  0
 20 15  1  0
 31 21  1  0
 30 24  1  0
  3 32  1  0
  4 33  1  0
  4 34  1  0
  8 35  1  0
  8 36  1  0
  9 37  1  0
  9 38  1  0
 10 39  1  0
 10 40  1  0
 11 41  1  0
 11 42  1  0
 12 43  1  1
 13 44  1  0
 14 45  1  0
 16 46  1  0
 17 47  1  0
 18 48  1  0
 19 49  1  0
 20 50  1  0
 22 51  1  0
 23 52  1  0
 25 53  1  0
 28 54  1  0
 29 55  1  0
M  END
>  <smiles>  (26) 
O=C(NCC(=O)N1CCCCC1/C=C/c1ccccc1)c1ccc2cc(F)ccc2n1

>  <score_type>  (26) 
oracle

>  <origin>  (26) 
autodockgpu

>  <m_score__min__energy>  (26) 
-9.1600000000000001

>  <m_primary>  (26) 
energy

>  <rmsd>  (26) 
1.9690994131486457

>  <m_score__min__rmsd>  (26) 
1.9690994131486457

>  <meeko>  (26) 
{"free_energy": -8.27, "intermolecular_energy": -10.35, "internal_energy": -2.39, "cluster_size": 9, "cluster_id": 3, "rank_in_cluster": 7}

>  <energy>  (26) 
-8.84

>  <cluster_rmsd>  (26) 
0.82

>  <cluster>  (26) 
2

$$$$

     RDKit          3D

 55 58  0  0  0  0  0  0  0  0999 V2000
  139.5120   70.8150  221.5120 O   0  0  0  0  0  0  0  0  0  0  0  0
  139.6480   71.5870  222.4810 C   0  0  0  0  0  0  0  0  0  0  0  0
  139.4580   72.9870  222.3200 N   0  0  0  0  0  0  0  0  0  0  0  0
  139.1090   73.5620  221.0610 C   0  0  0  0  0  0  0  0  0  0  0  0
  140.2770   73.7900  220.1770 C   0  0  0  0  0  0  0  0  0  0  0  0
  140.3950   73.1860  219.0780 O   0  0  0  0  0  0  0  0  0  0  0  0
  141.2660   74.7170  220.6090 N   0  0  0  0  0  0  0  0  0  0  0  0
  142.6560   74.3280  220.8420 C   0  0  0  0  0  0  0  0  0  0  0  0
  143.5850   75.1490  219.9520 C   0  0  0  0  0  0  0  0  0  0  0  0
  142.7500   76.1800  219.2230 C   0  0  0  0  0  0  0  0  0  0  0  0
  141.9720   76.9880  220.2300 C   0  0  0  0  0  0  0  0  0  0  0  0
  140.9160   76.1000  220.8340 C   0  0  2  0  0  0  0  0  0  0  0  0
  140.7080   76.3880  222.2790 C   0  0  0  0  0  0  0  0  0  0  0  0
  140.1170   77.4740  222.7050 C   0  0  0  0  0  0  0  0  0  0  0  0
  140.7950   78.7370  222.9650 C   0  0  0  0  0  0  0  0  0  0  0  0
  140.1490   79.9530  222.9260 C   0  0  0  0  0  0  0  0  0  0  0  0
  140.7980   81.1540  223.1750 C   0  0  0  0  0  0  0  0  0  0  0  0
  142.1500   81.1560  223.4740 C   0  0  0  0  0  0  0  0  0  0  0  0
  142.8200   79.9440  223.5180 C   0  0  0  0  0  0  0  0  0  0  0  0
  142.1400   78.7560  223.2650 C   0  0  0  0  0  0  0  0  0  0  0  0
  140.0080   71.0780  223.8160 C   0  0  0  0  0  0  0  0  0  0  0  0
  140.7070   71.8770  224.6980 C   0  0  0  0  0  0  0  0  0  0  0  0
  141.0400   71.3910  225.9460 C   0  0  0  0  0  0  0  0  0  0  0  0
  140.6670   70.1100  226.2930 C   0  0  0  0  0  0  0  0  0  0  0  0
  140.9910   69.5900  227.5510 C   0  0  0  0  0  0  0  0  0  0  0  0
  140.6220   68.3050  227.9120 C   0  0  0  0  0  0  0  0  0  0  0  0
  140.9250   67.7790  229.1270 F   0  0  0  0  0  0  0  0  0  0  0  0
  139.9250   67.5500  226.9950 C   0  0  0  0  0  0  0  0  0  0  0  0
  139.5850   68.0250  225.7410 C   0  0  0  0  0  0  0  0  0  0  0  0
  139.9680   69.3100  225.4110 C   0  0  0  0  0  0  0  0  0  0  0  0
  139.6750   69.8460  224.2090 N   0  0  0  0  0  0  0  0  0  0  0  0
  139.5860   73.6030  223.1780 H   0  0  0  0  0  0  0  0  0  0  0  0
  138.4106   72.8838  220.5489 H   0  0  0  0  0  0  0  0  0  0  0  0
  138.6579   74.5443  221.2651 H   0  0  0  0  0  0  0  0  0  0  0  0
  142.9118   74.5054  221.8970 H   0  0  0  0  0  0  0  0  0  0  0  0
  142.7770   73.2612  220.6026 H   0  0  0  0  0  0  0  0  0  0  0  0
  144.3435   75.6526  220.5693 H   0  0  0  0  0  0  0  0  0  0  0  0
  144.0972   74.4951  219.2308 H   0  0  0  0  0  0  0  0  0  0  0  0
  143.4086   76.8461  218.6463 H   0  0  0  0  0  0  0  0  0  0  0  0
  142.0543   75.6748  218.5370 H   0  0  0  0  0  0  0  0  0  0  0  0
  142.6482   77.3509  221.0181 H   0  0  0  0  0  0  0  0  0  0  0  0
  141.5039   77.8547  219.7404 H   0  0  0  0  0  0  0  0  0  0  0  0
  139.9560   76.3084  220.3391 H   0  0  0  0  0  0  0  0  0  0  0  0
  141.0661   75.6574  223.0193 H   0  0  0  0  0  0  0  0  0  0  0  0
  139.0318   77.4308  222.8793 H   0  0  0  0  0  0  0  0  0  0  0  0
  139.0753   79.9728  222.6878 H   0  0  0  0  0  0  0  0  0  0  0  0
  140.2403   82.1013  223.1350 H   0  0  0  0  0  0  0  0  0  0  0  0
  142.6804   82.0990  223.6722 H   0  0  0  0  0  0  0  0  0  0  0  0
  143.8941   79.9205  223.7539 H   0  0  0  0  0  0  0  0  0  0  0  0
  142.6919   77.8053  223.3057 H   0  0  0  0  0  0  0  0  0  0  0  0
  140.9976   72.8973  224.4073 H   0  0  0  0  0  0  0  0  0  0  0  0
  141.5972   72.0192  226.6565 H   0  0  0  0  0  0  0  0  0  0  0  0
  141.5487   70.2129  228.2658 H   0  0  0  0  0  0  0  0  0  0  0  0
  139.6266   66.5278  227.2709 H   0  0  0  0  0  0  0  0  0  0  0  0
  139.0271   67.3988  225.0292 H   0  0  0  0  0  0  0  0  0  0  0  0
  1  2  2  0
  2  3  1  0
  3  4  1  0
  4  5  1  0
  5  6  2  0
  5  7  1  0
  7  8  1  0
  8  9  1  0
  9 10  1  0
 10 11  1  0
 11 12  1  0
 12 13  1  0
 13 14  2  0
 14 15  1  0
 15 16  2  0
 16 17  1  0
 17 18  2  0
 18 19  1  0
 19 20  2  0
  2 21  1  0
 21 22  2  0
 22 23  1  0
 23 24  2  0
 24 25  1  0
 25 26  2  0
 26 27  1  0
 26 28  1  0
 28 29  2  0
 29 30  1  0
 30 31  2  0
 12  7  1  0
 20 15  1  0
 31 21  1  0
 30 24  1  0
  3 32  1  0
  4 33  1  0
  4 34  1  0
  8 35  1  0
  8 36  1  0
  9 37  1  0
  9 38  1  0
 10 39  1  0
 10 40  1  0
 11 41  1  0
 11 42  1  0
 12 43  1  6
 13 44  1  0
 14 45  1  0
 16 46  1  0
 17 47  1  0
 18 48  1  0
 19 49  1  0
 20 50  1  0
 22 51  1  0
 23 52  1  0
 25 53  1  0
 28 54  1  0
 29 55  1  0
M  END
>  <smiles>  (27) 
O=C(NCC(=O)N1CCCCC1/C=C/c1ccccc1)c1ccc2cc(F)ccc2n1

>  <score_type>  (27) 
oracle

>  <origin>  (27) 
autodockgpu

>  <m_score__min__energy>  (27) 
-9.1600000000000001

>  <m_primary>  (27) 
energy

>  <rmsd>  (27) 
3.113425912145974

>  <m_score__min__rmsd>  (27) 
3.113425912145974

>  <meeko>  (27) 
{"free_energy": -9.06, "intermolecular_energy": -11.14, "internal_energy": -1.63, "cluster_size": 23, "cluster_id": 1, "rank_in_cluster": 3}

>  <energy>  (27) 
-8.66

>  <cluster_rmsd>  (27) 
1.44

>  <cluster>  (27) 
2

$$$$

     RDKit          3D

 55 58  0  0  0  0  0  0  0  0999 V2000
  141.7510   72.0000  221.1350 O   0  0  0  0  0  0  0  0  0  0  0  0
  141.0750   72.8820  221.6980 C   0  0  0  0  0  0  0  0  0  0  0  0
  140.1030   72.5330  222.6760 N   0  0  0  0  0  0  0  0  0  0  0  0
  139.8620   71.1760  223.0500 C   0  0  0  0  0  0  0  0  0  0  0  0
  138.4370   70.8960  223.3520 C   0  0  0  0  0  0  0  0  0  0  0  0
  137.5940   71.8250  223.4570 O   0  0  0  0  0  0  0  0  0  0  0  0
  138.0500   69.5370  223.5210 N   0  0  0  0  0  0  0  0  0  0  0  0
  136.6600   69.1000  223.4120 C   0  0  0  0  0  0  0  0  0  0  0  0
  136.5260   68.0480  222.3150 C   0  0  0  0  0  0  0  0  0  0  0  0
  137.9120   67.7250  221.8000 C   0  0  0  0  0  0  0  0  0  0  0  0
  138.7860   67.3150  222.9580 C   0  0  0  0  0  0  0  0  0  0  0  0
  139.0430   68.5290  223.8100 C   0  0  2  0  0  0  0  0  0  0  0  0
  139.0820   68.1930  225.2590 C   0  0  0  0  0  0  0  0  0  0  0  0
  140.1220   68.4380  226.0130 C   0  0  0  0  0  0  0  0  0  0  0  0
  140.4720   69.7500  226.5390 C   0  0  0  0  0  0  0  0  0  0  0  0
  141.2760   70.6390  225.8590 C   0  0  0  0  0  0  0  0  0  0  0  0
  141.6070   71.8880  226.3640 C   0  0  0  0  0  0  0  0  0  0  0  0
  141.1230   72.2800  227.6010 C   0  0  0  0  0  0  0  0  0  0  0  0
  140.3120   71.4020  228.3040 C   0  0  0  0  0  0  0  0  0  0  0  0
  139.9990   70.1560  227.7690 C   0  0  0  0  0  0  0  0  0  0  0  0
  141.2570   74.3070  221.3710 C   0  0  0  0  0  0  0  0  0  0  0  0
  142.0940   74.6820  220.3400 C   0  0  0  0  0  0  0  0  0  0  0  0
  142.2580   76.0200  220.0420 C   0  0  0  0  0  0  0  0  0  0  0  0
  141.5810   76.9640  220.7840 C   0  0  0  0  0  0  0  0  0  0  0  0
  141.7280   78.3280  220.5060 C   0  0  0  0  0  0  0  0  0  0  0  0
  141.0540   79.2860  221.2440 C   0  0  0  0  0  0  0  0  0  0  0  0
  141.1800   80.6150  220.9920 F   0  0  0  0  0  0  0  0  0  0  0  0
  140.2310   78.8590  222.2620 C   0  0  0  0  0  0  0  0  0  0  0  0
  140.0570   77.5220  222.5700 C   0  0  0  0  0  0  0  0  0  0  0  0
  140.7440   76.5900  221.8170 C   0  0  0  0  0  0  0  0  0  0  0  0
  140.6280   75.2670  222.0550 N   0  0  0  0  0  0  0  0  0  0  0  0
  139.5520   73.3230  223.1260 H   0  0  0  0  0  0  0  0  0  0  0  0
  140.1784   70.5241  222.2224 H   0  0  0  0  0  0  0  0  0  0  0  0
  140.4342   70.9845  223.9697 H   0  0  0  0  0  0  0  0  0  0  0  0
  136.3379   68.6686  224.3712 H   0  0  0  0  0  0  0  0  0  0  0  0
  136.0291   69.9652  223.1603 H   0  0  0  0  0  0  0  0  0  0  0  0
  136.0596   67.1398  222.7246 H   0  0  0  0  0  0  0  0  0  0  0  0
  135.8954   68.4283  221.4979 H   0  0  0  0  0  0  0  0  0  0  0  0
  137.8523   66.9009  221.0739 H   0  0  0  0  0  0  0  0  0  0  0  0
  138.3402   68.6110  221.3083 H   0  0  0  0  0  0  0  0  0  0  0  0
  138.2761   66.5437  223.5539 H   0  0  0  0  0  0  0  0  0  0  0  0
  139.7368   66.9039  222.5879 H   0  0  0  0  0  0  0  0  0  0  0  0
  140.0374   68.9285  223.5618 H   0  0  0  0  0  0  0  0  0  0  0  0
  138.2000   67.7192  225.7146 H   0  0  0  0  0  0  0  0  0  0  0  0
  140.7789   67.5933  226.2679 H   0  0  0  0  0  0  0  0  0  0  0  0
  141.6716   70.3462  224.8752 H   0  0  0  0  0  0  0  0  0  0  0  0
  142.2517   72.5647  225.7839 H   0  0  0  0  0  0  0  0  0  0  0  0
  141.3764   73.2664  228.0168 H   0  0  0  0  0  0  0  0  0  0  0  0
  139.9146   71.6914  229.2881 H   0  0  0  0  0  0  0  0  0  0  0  0
  139.3551   69.4747  228.3445 H   0  0  0  0  0  0  0  0  0  0  0  0
  142.6288   73.9174  219.7575 H   0  0  0  0  0  0  0  0  0  0  0  0
  142.9218   76.3294  219.2213 H   0  0  0  0  0  0  0  0  0  0  0  0
  142.3906   78.6442  219.6869 H   0  0  0  0  0  0  0  0  0  0  0  0
  139.6900   79.6117  222.8542 H   0  0  0  0  0  0  0  0  0  0  0  0
  139.3922   77.2106  223.3892 H   0  0  0  0  0  0  0  0  0  0  0  0
  1  2  2  0
  2  3  1  0
  3  4  1  0
  4  5  1  0
  5  6  2  0
  5  7  1  0
  7  8  1  0
  8  9  1  0
  9 10  1  0
 10 11  1  0
 11 12  1  0
 12 13  1  0
 13 14  2  0
 14 15  1  0
 15 16  2  0
 16 17  1  0
 17 18  2  0
 18 19  1  0
 19 20  2  0
  2 21  1  0
 21 22  2  0
 22 23  1  0
 23 24  2  0
 24 25  1  0
 25 26  2  0
 26 27  1  0
 26 28  1  0
 28 29  2  0
 29 30  1  0
 30 31  2  0
 12  7  1  0
 20 15  1  0
 31 21  1  0
 30 24  1  0
  3 32  1  0
  4 33  1  0
  4 34  1  0
  8 35  1  0
  8 36  1  0
  9 37  1  0
  9 38  1  0
 10 39  1  0
 10 40  1  0
 11 41  1  0
 11 42  1  0
 12 43  1  6
 13 44  1  0
 14 45  1  0
 16 46  1  0
 17 47  1  0
 18 48  1  0
 19 49  1  0
 20 50  1  0
 22 51  1  0
 23 52  1  0
 25 53  1  0
 28 54  1  0
 29 55  1  0
M  END
>  <smiles>  (28) 
O=C(NCC(=O)N1CCCCC1/C=C/c1ccccc1)c1ccc2cc(F)ccc2n1

>  <score_type>  (28) 
oracle

>  <origin>  (28) 
autodockgpu

>  <m_score__min__energy>  (28) 
-9.1600000000000001

>  <m_primary>  (28) 
energy

>  <rmsd>  (28) 
8.595475188438234

>  <m_score__min__rmsd>  (28) 
8.595475188438234

>  <meeko>  (28) 
{"free_energy": -8.54, "intermolecular_energy": -10.63, "internal_energy": -2.31, "cluster_size": 5, "cluster_id": 4, "rank_in_cluster": 2}

>  <energy>  (28) 
-8.55

>  <cluster_rmsd>  (28) 
1.91

>  <cluster>  (28) 
2

$$$$

     RDKit          3D

 55 58  0  0  0  0  0  0  0  0999 V2000
  138.8860   71.2110  221.1200 O   0  0  0  0  0  0  0  0  0  0  0  0
  139.1800   71.7730  222.1920 C   0  0  0  0  0  0  0  0  0  0  0  0
  139.2320   73.1920  222.2730 N   0  0  0  0  0  0  0  0  0  0  0  0
  138.9540   74.0230  221.1460 C   0  0  0  0  0  0  0  0  0  0  0  0
  140.0820   74.1060  220.1860 C   0  0  0  0  0  0  0  0  0  0  0  0
  140.0320   73.5330  219.0660 O   0  0  0  0  0  0  0  0  0  0  0  0
  141.2280   74.8560  220.5720 N   0  0  0  0  0  0  0  0  0  0  0  0
  142.5400   74.2400  220.7590 C   0  0  0  0  0  0  0  0  0  0  0  0
  143.5600   74.8870  219.8270 C   0  0  0  0  0  0  0  0  0  0  0  0
  142.8830   76.0410  219.1160 C   0  0  0  0  0  0  0  0  0  0  0  0
  142.2900   76.9730  220.1420 C   0  0  0  0  0  0  0  0  0  0  0  0
  141.1240   76.2790  220.7930 C   0  0  2  0  0  0  0  0  0  0  0  0
  141.0220   76.6050  222.2420 C   0  0  0  0  0  0  0  0  0  0  0  0
  140.3940   77.6640  222.6840 C   0  0  0  0  0  0  0  0  0  0  0  0
  141.0400   78.9180  223.0430 C   0  0  0  0  0  0  0  0  0  0  0  0
  140.3400   80.0170  223.4930 C   0  0  0  0  0  0  0  0  0  0  0  0
  140.9600   81.2110  223.8340 C   0  0  0  0  0  0  0  0  0  0  0  0
  142.3350   81.3280  223.7260 C   0  0  0  0  0  0  0  0  0  0  0  0
  143.0590   80.2350  223.2760 C   0  0  0  0  0  0  0  0  0  0  0  0
  142.4080   79.0520  222.9420 C   0  0  0  0  0  0  0  0  0  0  0  0
  139.4820   70.9930  223.4050 C   0  0  0  0  0  0  0  0  0  0  0  0
  139.2330   69.6350  223.4370 C   0  0  0  0  0  0  0  0  0  0  0  0
  139.5200   68.9130  224.5780 C   0  0  0  0  0  0  0  0  0  0  0  0
  140.0520   69.5630  225.6710 C   0  0  0  0  0  0  0  0  0  0  0  0
  140.3530   68.8570  226.8420 C   0  0  0  0  0  0  0  0  0  0  0  0
  140.8870   69.4970  227.9470 C   0  0  0  0  0  0  0  0  0  0  0  0
  141.1870   68.8330  229.0940 F   0  0  0  0  0  0  0  0  0  0  0  0
  141.1170   70.8520  227.8630 C   0  0  0  0  0  0  0  0  0  0  0  0
  140.8340   71.5870  226.7260 C   0  0  0  0  0  0  0  0  0  0  0  0
  140.3010   70.9200  225.6400 C   0  0  0  0  0  0  0  0  0  0  0  0
  139.9980   71.5660  224.4950 N   0  0  0  0  0  0  0  0  0  0  0  0
  139.4880   73.6230  223.2110 H   0  0  0  0  0  0  0  0  0  0  0  0
  138.0773   73.6167  220.6203 H   0  0  0  0  0  0  0  0  0  0  0  0
  138.7746   75.0393  221.5268 H   0  0  0  0  0  0  0  0  0  0  0  0
  142.8613   74.3776  221.8020 H   0  0  0  0  0  0  0  0  0  0  0  0
  142.4704   73.1669  220.5276 H   0  0  0  0  0  0  0  0  0  0  0  0
  144.4150   75.2588  220.4107 H   0  0  0  0  0  0  0  0  0  0  0  0
  143.9278   74.1521  219.0958 H   0  0  0  0  0  0  0  0  0  0  0  0
  143.6221   76.5840  218.5087 H   0  0  0  0  0  0  0  0  0  0  0  0
  142.0875   75.6570  218.4605 H   0  0  0  0  0  0  0  0  0  0  0  0
  143.0466   77.2204  220.9011 H   0  0  0  0  0  0  0  0  0  0  0  0
  141.9561   77.9039  219.6603 H   0  0  0  0  0  0  0  0  0  0  0  0
  140.1951   76.6436  220.3303 H   0  0  0  0  0  0  0  0  0  0  0  0
  141.4935   75.9284  222.9700 H   0  0  0  0  0  0  0  0  0  0  0  0
  139.3010   77.6025  222.7920 H   0  0  0  0  0  0  0  0  0  0  0  0
  139.2463   79.9448  223.5855 H   0  0  0  0  0  0  0  0  0  0  0  0
  140.3603   82.0620  224.1891 H   0  0  0  0  0  0  0  0  0  0  0  0
  142.8419   82.2675  223.9914 H   0  0  0  0  0  0  0  0  0  0  0  0
  144.1529   80.3034  223.1826 H   0  0  0  0  0  0  0  0  0  0  0  0
  143.0029   78.1977  222.5866 H   0  0  0  0  0  0  0  0  0  0  0  0
  138.8077   69.1307  222.5568 H   0  0  0  0  0  0  0  0  0  0  0  0
  139.3263   67.8308  224.6146 H   0  0  0  0  0  0  0  0  0  0  0  0
  140.1617   67.7746  226.8846 H   0  0  0  0  0  0  0  0  0  0  0  0
  141.5427   71.3705  228.7347 H   0  0  0  0  0  0  0  0  0  0  0  0
  141.0274   72.6692  226.6877 H   0  0  0  0  0  0  0  0  0  0  0  0
  1  2  2  0
  2  3  1  0
  3  4  1  0
  4  5  1  0
  5  6  2  0
  5  7  1  0
  7  8  1  0
  8  9  1  0
  9 10  1  0
 10 11  1  0
 11 12  1  0
 12 13  1  0
 13 14  2  0
 14 15  1  0
 15 16  2  0
 16 17  1  0
 17 18  2  0
 18 19  1  0
 19 20  2  0
  2 21  1  0
 21 22  2  0
 22 23  1  0
 23 24  2  0
 24 25  1  0
 25 26  2  0
 26 27  1  0
 26 28  1  0
 28 29  2  0
 29 30  1  0
 30 31  2  0
 12  7  1  0
 20 15  1  0
 31 21  1  0
 30 24  1  0
  3 32  1  0
  4 33  1  0
  4 34  1  0
  8 35  1  0
  8 36  1  0
  9 37  1  0
  9 38  1  0
 10 39  1  0
 10 40  1  0
 11 41  1  0
 11 42  1  0
 12 43  1  6
 13 44  1  0
 14 45  1  0
 16 46  1  0
 17 47  1  0
 18 48  1  0
 19 49  1  0
 20 50  1  0
 22 51  1  0
 23 52  1  0
 25 53  1  0
 28 54  1  0
 29 55  1  0
M  END
>  <smiles>  (29) 
O=C(NCC(=O)N1CCCCC1/C=C/c1ccccc1)c1ccc2cc(F)ccc2n1

>  <score_type>  (29) 
oracle

>  <origin>  (29) 
autodockgpu

>  <m_score__min__energy>  (29) 
-9.1600000000000001

>  <m_primary>  (29) 
energy

>  <rmsd>  (29) 
2.174709667180453

>  <m_score__min__rmsd>  (29) 
2.174709667180453

>  <meeko>  (29) 
{"free_energy": -8.95, "intermolecular_energy": -11.03, "internal_energy": -1.86, "cluster_size": 23, "cluster_id": 1, "rank_in_cluster": 5}

>  <energy>  (29) 
-8.45

>  <cluster_rmsd>  (29) 
1.21

>  <cluster>  (29) 
2

$$$$

     RDKit          3D

 55 58  0  0  0  0  0  0  0  0999 V2000
  141.1370   72.0600  221.3190 O   0  0  0  0  0  0  0  0  0  0  0  0
  140.4360   72.4110  222.2870 C   0  0  0  0  0  0  0  0  0  0  0  0
  139.8100   73.6880  222.3020 N   0  0  0  0  0  0  0  0  0  0  0  0
  139.9560   74.6120  221.2230 C   0  0  0  0  0  0  0  0  0  0  0  0
  139.5060   75.9840  221.5620 C   0  0  0  0  0  0  0  0  0  0  0  0
  138.6440   76.1890  222.4570 O   0  0  0  0  0  0  0  0  0  0  0  0
  140.0820   77.0680  220.8420 N   0  0  0  0  0  0  0  0  0  0  0  0
  141.5080   77.3810  220.9070 C   0  0  0  0  0  0  0  0  0  0  0  0
  142.1210   77.3230  219.5120 C   0  0  0  0  0  0  0  0  0  0  0  0
  141.0060   77.0840  218.5160 C   0  0  0  0  0  0  0  0  0  0  0  0
  139.9500   78.1450  218.6930 C   0  0  0  0  0  0  0  0  0  0  0  0
  139.2550   77.9060  220.0070 C   0  0  2  0  0  0  0  0  0  0  0  0
  138.8980   79.1800  220.6870 C   0  0  0  0  0  0  0  0  0  0  0  0
  139.0670   79.3670  221.9710 C   0  0  0  0  0  0  0  0  0  0  0  0
  140.3180   79.7830  222.5880 C   0  0  0  0  0  0  0  0  0  0  0  0
  140.9980   80.9190  222.2070 C   0  0  0  0  0  0  0  0  0  0  0  0
  142.1910   81.3120  222.7990 C   0  0  0  0  0  0  0  0  0  0  0  0
  142.7390   80.5470  223.8150 C   0  0  0  0  0  0  0  0  0  0  0  0
  142.0720   79.4000  224.2140 C   0  0  0  0  0  0  0  0  0  0  0  0
  140.8780   79.0330  223.6010 C   0  0  0  0  0  0  0  0  0  0  0  0
  140.2330   71.5200  223.4430 C   0  0  0  0  0  0  0  0  0  0  0  0
  139.5870   70.3100  223.2830 C   0  0  0  0  0  0  0  0  0  0  0  0
  139.4020   69.4830  224.3730 C   0  0  0  0  0  0  0  0  0  0  0  0
  139.8660   69.8810  225.6080 C   0  0  0  0  0  0  0  0  0  0  0  0
  139.6930   69.0640  226.7310 C   0  0  0  0  0  0  0  0  0  0  0  0
  140.1540   69.4510  227.9780 C   0  0  0  0  0  0  0  0  0  0  0  0
  139.9980   68.6750  229.0820 F   0  0  0  0  0  0  0  0  0  0  0  0
  140.7920   70.6670  228.0830 C   0  0  0  0  0  0  0  0  0  0  0  0
  140.9840   71.5050  226.9990 C   0  0  0  0  0  0  0  0  0  0  0  0
  140.5120   71.0910  225.7690 C   0  0  0  0  0  0  0  0  0  0  0  0
  140.6600   71.8500  224.6650 N   0  0  0  0  0  0  0  0  0  0  0  0
  139.2220   73.9390  223.1520 H   0  0  0  0  0  0  0  0  0  0  0  0
  141.0180   74.6528  220.9393 H   0  0  0  0  0  0  0  0  0  0  0  0
  139.3209   74.2545  220.3991 H   0  0  0  0  0  0  0  0  0  0  0  0
  141.6402   78.3916  221.3208 H   0  0  0  0  0  0  0  0  0  0  0  0
  142.0094   76.6441  221.5517 H   0  0  0  0  0  0  0  0  0  0  0  0
  142.6244   78.2747  219.2864 H   0  0  0  0  0  0  0  0  0  0  0  0
  142.8619   76.5119  219.4555 H   0  0  0  0  0  0  0  0  0  0  0  0
  141.4089   77.1324  217.4936 H   0  0  0  0  0  0  0  0  0  0  0  0
  140.5649   76.0906  218.6852 H   0  0  0  0  0  0  0  0  0  0  0  0
  140.4192   79.1399  218.6960 H   0  0  0  0  0  0  0  0  0  0  0  0
  139.2249   78.0994  217.8671 H   0  0  0  0  0  0  0  0  0  0  0  0
  138.3052   77.3865  219.8123 H   0  0  0  0  0  0  0  0  0  0  0  0
  138.4747   79.9982  220.0859 H   0  0  0  0  0  0  0  0  0  0  0  0
  138.2030   79.1979  222.6305 H   0  0  0  0  0  0  0  0  0  0  0  0
  140.5790   81.5397  221.4013 H   0  0  0  0  0  0  0  0  0  0  0  0
  142.6990   82.2277  222.4621 H   0  0  0  0  0  0  0  0  0  0  0  0
  143.6834   80.8435  224.2948 H   0  0  0  0  0  0  0  0  0  0  0  0
  142.4883   78.7767  225.0191 H   0  0  0  0  0  0  0  0  0  0  0  0
  140.3659   78.1182  223.9340 H   0  0  0  0  0  0  0  0  0  0  0  0
  139.2213   70.0062  222.2911 H   0  0  0  0  0  0  0  0  0  0  0  0
  138.8896   68.5166  224.2568 H   0  0  0  0  0  0  0  0  0  0  0  0
  139.1813   68.0965  226.6210 H   0  0  0  0  0  0  0  0  0  0  0  0
  141.1639   70.9847  229.0683 H   0  0  0  0  0  0  0  0  0  0  0  0
  141.4969   72.4714  227.1134 H   0  0  0  0  0  0  0  0  0  0  0  0
  1  2  2  0
  2  3  1  0
  3  4  1  0
  4  5  1  0
  5  6  2  0
  5  7  1  0
  7  8  1  0
  8  9  1  0
  9 10  1  0
 10 11  1  0
 11 12  1  0
 12 13  1  0
 13 14  2  0
 14 15  1  0
 15 16  2  0
 16 17  1  0
 17 18  2  0
 18 19  1  0
 19 20  2  0
  2 21  1  0
 21 22  2  0
 22 23  1  0
 23 24  2  0
 24 25  1  0
 25 26  2  0
 26 27  1  0
 26 28  1  0
 28 29  2  0
 29 30  1  0
 30 31  2  0
 12  7  1  0
 20 15  1  0
 31 21  1  0
 30 24  1  0
  3 32  1  0
  4 33  1  0
  4 34  1  0
  8 35  1  0
  8 36  1  0
  9 37  1  0
  9 38  1  0
 10 39  1  0
 10 40  1  0
 11 41  1  0
 11 42  1  0
 12 43  1  6
 13 44  1  0
 14 45  1  0
 16 46  1  0
 17 47  1  0
 18 48  1  0
 19 49  1  0
 20 50  1  0
 22 51  1  0
 23 52  1  0
 25 53  1  0
 28 54  1  0
 29 55  1  0
M  END
>  <smiles>  (30) 
O=C(NCC(=O)N1CCCCC1/C=C/c1ccccc1)c1ccc2cc(F)ccc2n1

>  <score_type>  (30) 
oracle

>  <origin>  (30) 
autodockgpu

>  <m_score__min__energy>  (30) 
-9.1600000000000001

>  <m_primary>  (30) 
energy

>  <rmsd>  (30) 
2.2756053348481378

>  <m_score__min__rmsd>  (30) 
2.2756053348481378

>  <meeko>  (30) 
{"free_energy": -8.46, "intermolecular_energy": -10.55, "internal_energy": -2.02, "cluster_size": 23, "cluster_id": 1, "rank_in_cluster": 21}

>  <energy>  (30) 
-8.43

>  <cluster_rmsd>  (30) 
0.77

>  <cluster>  (30) 
2

$$$$

     RDKit          3D

 55 58  0  0  0  0  0  0  0  0999 V2000
  136.8850   75.8770  221.3510 O   0  0  0  0  0  0  0  0  0  0  0  0
  137.9610   75.9220  221.9770 C   0  0  0  0  0  0  0  0  0  0  0  0
  138.6470   74.7260  222.3230 N   0  0  0  0  0  0  0  0  0  0  0  0
  138.1410   73.4370  221.9740 C   0  0  0  0  0  0  0  0  0  0  0  0
  138.8630   72.3240  222.6350 C   0  0  0  0  0  0  0  0  0  0  0  0
  140.1180   72.3330  222.7500 O   0  0  0  0  0  0  0  0  0  0  0  0
  138.0930   71.2390  223.1400 N   0  0  0  0  0  0  0  0  0  0  0  0
  136.8220   71.4380  223.8340 C   0  0  0  0  0  0  0  0  0  0  0  0
  135.7050   70.6980  223.1040 C   0  0  0  0  0  0  0  0  0  0  0  0
  136.3260   69.9030  221.9750 C   0  0  0  0  0  0  0  0  0  0  0  0
  137.4070   69.0130  222.5350 C   0  0  0  0  0  0  0  0  0  0  0  0
  138.5550   69.8810  222.9750 C   0  0  2  0  0  0  0  0  0  0  0  0
  139.2010   69.3650  224.2120 C   0  0  0  0  0  0  0  0  0  0  0  0
  140.3310   69.8390  224.6680 C   0  0  0  0  0  0  0  0  0  0  0  0
  140.4880   70.5140  225.9480 C   0  0  0  0  0  0  0  0  0  0  0  0
  139.9000   70.0620  227.1090 C   0  0  0  0  0  0  0  0  0  0  0  0
  140.0530   70.7080  228.3280 C   0  0  0  0  0  0  0  0  0  0  0  0
  140.8210   71.8570  228.4050 C   0  0  0  0  0  0  0  0  0  0  0  0
  141.4220   72.3310  227.2490 C   0  0  0  0  0  0  0  0  0  0  0  0
  141.2500   71.6590  226.0430 C   0  0  0  0  0  0  0  0  0  0  0  0
  138.5550   77.2100  222.3790 C   0  0  0  0  0  0  0  0  0  0  0  0
  137.7690   78.3410  222.4620 C   0  0  0  0  0  0  0  0  0  0  0  0
  138.3360   79.5420  222.8390 C   0  0  0  0  0  0  0  0  0  0  0  0
  139.6830   79.5920  223.1260 C   0  0  0  0  0  0  0  0  0  0  0  0
  140.2850   80.7950  223.5110 C   0  0  0  0  0  0  0  0  0  0  0  0
  141.6370   80.8590  223.8020 C   0  0  0  0  0  0  0  0  0  0  0  0
  142.2440   82.0160  224.1780 F   0  0  0  0  0  0  0  0  0  0  0  0
  142.3760   79.7010  223.7040 C   0  0  0  0  0  0  0  0  0  0  0  0
  141.8210   78.4920  223.3280 C   0  0  0  0  0  0  0  0  0  0  0  0
  140.4700   78.4600  223.0430 C   0  0  0  0  0  0  0  0  0  0  0  0
  139.8540   77.3200  222.6690 N   0  0  0  0  0  0  0  0  0  0  0  0
  139.5620   74.8190  222.8580 H   0  0  0  0  0  0  0  0  0  0  0  0
  137.0815   73.3874  222.2654 H   0  0  0  0  0  0  0  0  0  0  0  0
  138.2793   73.3159  220.8895 H   0  0  0  0  0  0  0  0  0  0  0  0
  136.9037   71.0520  224.8608 H   0  0  0  0  0  0  0  0  0  0  0  0
  136.5879   72.5126  223.8558 H   0  0  0  0  0  0  0  0  0  0  0  0
  135.1913   70.0184  223.7999 H   0  0  0  0  0  0  0  0  0  0  0  0
  134.9704   71.4138  222.7065 H   0  0  0  0  0  0  0  0  0  0  0  0
  135.5546   69.2859  221.4912 H   0  0  0  0  0  0  0  0  0  0  0  0
  136.7587   70.5895  221.2324 H   0  0  0  0  0  0  0  0  0  0  0  0
  137.0161   68.4496  223.3951 H   0  0  0  0  0  0  0  0  0  0  0  0
  137.7442   68.2994  221.7688 H   0  0  0  0  0  0  0  0  0  0  0  0
  139.3299   69.8607  222.1945 H   0  0  0  0  0  0  0  0  0  0  0  0
  138.7081   68.5520  224.7652 H   0  0  0  0  0  0  0  0  0  0  0  0
  141.2262   69.7192  224.0400 H   0  0  0  0  0  0  0  0  0  0  0  0
  139.2839   69.1517  227.0683 H   0  0  0  0  0  0  0  0  0  0  0  0
  139.5657   70.3083  229.2295 H   0  0  0  0  0  0  0  0  0  0  0  0
  140.9516   72.3826  229.3625 H   0  0  0  0  0  0  0  0  0  0  0  0
  142.0373   73.2421  227.2855 H   0  0  0  0  0  0  0  0  0  0  0  0
  141.7364   72.0529  225.1384 H   0  0  0  0  0  0  0  0  0  0  0  0
  136.6954   78.2860  222.2288 H   0  0  0  0  0  0  0  0  0  0  0  0
  137.7189   80.4498  222.9096 H   0  0  0  0  0  0  0  0  0  0  0  0
  139.6731   81.7062  223.5838 H   0  0  0  0  0  0  0  0  0  0  0  0
  143.4510   79.7396  223.9341 H   0  0  0  0  0  0  0  0  0  0  0  0
  142.4367   77.5831  223.2580 H   0  0  0  0  0  0  0  0  0  0  0  0
  1  2  2  0
  2  3  1  0
  3  4  1  0
  4  5  1  0
  5  6  2  0
  5  7  1  0
  7  8  1  0
  8  9  1  0
  9 10  1  0
 10 11  1  0
 11 12  1  0
 12 13  1  0
 13 14  2  0
 14 15  1  0
 15 16  2  0
 16 17  1  0
 17 18  2  0
 18 19  1  0
 19 20  2  0
  2 21  1  0
 21 22  2  0
 22 23  1  0
 23 24  2  0
 24 25  1  0
 25 26  2  0
 26 27  1  0
 26 28  1  0
 28 29  2  0
 29 30  1  0
 30 31  2  0
 12  7  1  0
 20 15  1  0
 31 21  1  0
 30 24  1  0
  3 32  1  0
  4 33  1  0
  4 34  1  0
  8 35  1  0
  8 36  1  0
  9 37  1  0
  9 38  1  0
 10 39  1  0
 10 40  1  0
 11 41  1  0
 11 42  1  0
 12 43  1  6
 13 44  1  0
 14 45  1  0
 16 46  1  0
 17 47  1  0
 18 48  1  0
 19 49  1  0
 20 50  1  0
 22 51  1  0
 23 52  1  0
 25 53  1  0
 28 54  1  0
 29 55  1  0
M  END
>  <smiles>  (31) 
O=C(NCC(=O)N1CCCCC1/C=C/c1ccccc1)c1ccc2cc(F)ccc2n1

>  <score_type>  (31) 
oracle

>  <origin>  (31) 
autodockgpu

>  <m_score__min__energy>  (31) 
-9.1600000000000001

>  <m_primary>  (31) 
energy

>  <rmsd>  (31) 
8.630779668616139

>  <m_score__min__rmsd>  (31) 
8.630779668616139

>  <meeko>  (31) 
{"free_energy": -8.2, "intermolecular_energy": -10.29, "internal_energy": -2.01, "cluster_size": 2, "cluster_id": 5, "rank_in_cluster": 2}

>  <energy>  (31) 
-8.62

>  <cluster_rmsd>  (31) 
0.0

>  <cluster>  (31) 
3

$$$$

     RDKit          3D

 55 58  0  0  0  0  0  0  0  0999 V2000
  140.3230   71.8220  221.0550 O   0  0  0  0  0  0  0  0  0  0  0  0
  139.9540   72.2470  222.1670 C   0  0  0  0  0  0  0  0  0  0  0  0
  139.5280   73.5950  222.3200 N   0  0  0  0  0  0  0  0  0  0  0  0
  139.5060   74.5090  221.2240 C   0  0  0  0  0  0  0  0  0  0  0  0
  140.7960   75.2100  221.0180 C   0  0  0  0  0  0  0  0  0  0  0  0
  141.8500   74.8250  221.5900 O   0  0  0  0  0  0  0  0  0  0  0  0
  140.8080   76.3390  220.1520 N   0  0  0  0  0  0  0  0  0  0  0  0
  139.5960   76.8460  219.5110 C   0  0  0  0  0  0  0  0  0  0  0  0
  139.3640   78.3010  219.9080 C   0  0  0  0  0  0  0  0  0  0  0  0
  140.5470   78.7590  220.7330 C   0  0  0  0  0  0  0  0  0  0  0  0
  141.8160   78.5160  219.9550 C   0  0  0  0  0  0  0  0  0  0  0  0
  142.0450   77.0310  219.8760 C   0  0  2  0  0  0  0  0  0  0  0  0
  142.6220   76.6260  218.5650 C   0  0  0  0  0  0  0  0  0  0  0  0
  143.6260   75.7950  218.4630 C   0  0  0  0  0  0  0  0  0  0  0  0
  143.7830   74.5840  219.2550 C   0  0  0  0  0  0  0  0  0  0  0  0
  142.9950   73.4680  219.0790 C   0  0  0  0  0  0  0  0  0  0  0  0
  143.1470   72.3150  219.8370 C   0  0  0  0  0  0  0  0  0  0  0  0
  144.1230   72.2620  220.8180 C   0  0  0  0  0  0  0  0  0  0  0  0
  144.9270   73.3730  221.0140 C   0  0  0  0  0  0  0  0  0  0  0  0
  144.7490   74.5130  220.2360 C   0  0  0  0  0  0  0  0  0  0  0  0
  139.9460   71.3720  223.3530 C   0  0  0  0  0  0  0  0  0  0  0  0
  139.4890   70.0740  223.2550 C   0  0  0  0  0  0  0  0  0  0  0  0
  139.4870   69.2630  224.3720 C   0  0  0  0  0  0  0  0  0  0  0  0
  139.9410   69.7660  225.5720 C   0  0  0  0  0  0  0  0  0  0  0  0
  139.9490   68.9680  226.7220 C   0  0  0  0  0  0  0  0  0  0  0  0
  140.4030   69.4610  227.9340 C   0  0  0  0  0  0  0  0  0  0  0  0
  140.4210   68.7050  229.0630 F   0  0  0  0  0  0  0  0  0  0  0  0
  140.8490   70.7630  227.9770 C   0  0  0  0  0  0  0  0  0  0  0  0
  140.8570   71.5860  226.8650 C   0  0  0  0  0  0  0  0  0  0  0  0
  140.3980   71.0650  225.6710 C   0  0  0  0  0  0  0  0  0  0  0  0
  140.3740   71.8030  224.5430 N   0  0  0  0  0  0  0  0  0  0  0  0
  139.2230   73.9080  223.2900 H   0  0  0  0  0  0  0  0  0  0  0  0
  139.2624   73.9502  220.3084 H   0  0  0  0  0  0  0  0  0  0  0  0
  138.7521   75.2760  221.4549 H   0  0  0  0  0  0  0  0  0  0  0  0
  139.7070   76.7799  218.4186 H   0  0  0  0  0  0  0  0  0  0  0  0
  138.7362   76.2419  219.8364 H   0  0  0  0  0  0  0  0  0  0  0  0
  139.2755   78.9239  219.0057 H   0  0  0  0  0  0  0  0  0  0  0  0
  138.4354   78.3931  220.4905 H   0  0  0  0  0  0  0  0  0  0  0  0
  140.4494   79.8325  220.9523 H   0  0  0  0  0  0  0  0  0  0  0  0
  140.5789   78.1972  221.6782 H   0  0  0  0  0  0  0  0  0  0  0  0
  141.7161   78.9313  218.9413 H   0  0  0  0  0  0  0  0  0  0  0  0
  142.6659   79.0044  220.4542 H   0  0  0  0  0  0  0  0  0  0  0  0
  142.7873   76.7494  220.6374 H   0  0  0  0  0  0  0  0  0  0  0  0
  142.1861   77.0427  217.6450 H   0  0  0  0  0  0  0  0  0  0  0  0
  144.4084   76.0277  217.7256 H   0  0  0  0  0  0  0  0  0  0  0  0
  142.2129   73.4914  218.3058 H   0  0  0  0  0  0  0  0  0  0  0  0
  142.4949   71.4471  219.6592 H   0  0  0  0  0  0  0  0  0  0  0  0
  144.2570   71.3569  221.4286 H   0  0  0  0  0  0  0  0  0  0  0  0
  145.7089   73.3540  221.7874 H   0  0  0  0  0  0  0  0  0  0  0  0
  145.3986   75.3837  220.4090 H   0  0  0  0  0  0  0  0  0  0  0  0
  139.1277   69.6870  222.2908 H   0  0  0  0  0  0  0  0  0  0  0  0
  139.1267   68.2258  224.3050 H   0  0  0  0  0  0  0  0  0  0  0  0
  139.5882   67.9306  226.6620 H   0  0  0  0  0  0  0  0  0  0  0  0
  141.2136   71.1649  228.9339 H   0  0  0  0  0  0  0  0  0  0  0  0
  141.2177   72.6232  226.9297 H   0  0  0  0  0  0  0  0  0  0  0  0
  1  2  2  0
  2  3  1  0
  3  4  1  0
  4  5  1  0
  5  6  2  0
  5  7  1  0
  7  8  1  0
  8  9  1  0
  9 10  1  0
 10 11  1  0
 11 12  1  0
 12 13  1  0
 13 14  2  0
 14 15  1  0
 15 16  2  0
 16 17  1  0
 17 18  2  0
 18 19  1  0
 19 20  2  0
  2 21  1  0
 21 22  2  0
 22 23  1  0
 23 24  2  0
 24 25  1  0
 25 26  2  0
 26 27  1  0
 26 28  1  0
 28 29  2  0
 29 30  1  0
 30 31  2  0
 12  7  1  0
 20 15  1  0
 31 21  1  0
 30 24  1  0
  3 32  1  0
  4 33  1  0
  4 34  1  0
  8 35  1  0
  8 36  1  0
  9 37  1  0
  9 38  1  0
 10 39  1  0
 10 40  1  0
 11 41  1  0
 11 42  1  0
 12 43  1  1
 13 44  1  0
 14 45  1  0
 16 46  1  0
 17 47  1  0
 18 48  1  0
 19 49  1  0
 20 50  1  0
 22 51  1  0
 23 52  1  0
 25 53  1  0
 28 54  1  0
 29 55  1  0
M  END
>  <smiles>  (32) 
O=C(NCC(=O)N1CCCCC1/C=C/c1ccccc1)c1ccc2cc(F)ccc2n1

>  <score_type>  (32) 
oracle

>  <origin>  (32) 
autodockgpu

>  <m_score__min__energy>  (32) 
-9.1600000000000001

>  <m_primary>  (32) 
energy

>  <rmsd>  (32) 
1.856018564134281

>  <m_score__min__rmsd>  (32) 
1.856018564134281

>  <meeko>  (32) 
{"free_energy": -7.65, "intermolecular_energy": -9.74, "internal_energy": -2.31, "cluster_size": 9, "cluster_id": 3, "rank_in_cluster": 9}

>  <energy>  (32) 
-8.46

>  <cluster_rmsd>  (32) 
0.21

>  <cluster>  (32) 
3

$$$$

     RDKit          3D

 55 58  0  0  0  0  0  0  0  0999 V2000
  141.2020   72.1780  221.4480 O   0  0  0  0  0  0  0  0  0  0  0  0
  140.3780   72.4180  222.3510 C   0  0  0  0  0  0  0  0  0  0  0  0
  139.5660   73.5840  222.2970 N   0  0  0  0  0  0  0  0  0  0  0  0
  139.6560   74.5180  221.2210 C   0  0  0  0  0  0  0  0  0  0  0  0
  139.3930   75.9170  221.6360 C   0  0  0  0  0  0  0  0  0  0  0  0
  138.6360   76.1820  222.6070 O   0  0  0  0  0  0  0  0  0  0  0  0
  140.0240   76.9580  220.8990 N   0  0  0  0  0  0  0  0  0  0  0  0
  139.2700   77.9130  220.0890 C   0  0  0  0  0  0  0  0  0  0  0  0
  139.5390   79.3350  220.5710 C   0  0  0  0  0  0  0  0  0  0  0  0
  140.6020   79.2750  221.6470 C   0  0  0  0  0  0  0  0  0  0  0  0
  141.8120   78.5570  221.1060 C   0  0  0  0  0  0  0  0  0  0  0  0
  141.4600   77.1030  220.9320 C   0  0  2  0  0  0  0  0  0  0  0  0
  142.1010   76.5170  219.7230 C   0  0  0  0  0  0  0  0  0  0  0  0
  143.3670   76.1900  219.6840 C   0  0  0  0  0  0  0  0  0  0  0  0
  143.8830   74.8510  219.9320 C   0  0  0  0  0  0  0  0  0  0  0  0
  145.1170   74.6190  220.4980 C   0  0  0  0  0  0  0  0  0  0  0  0
  145.6050   73.3410  220.7330 C   0  0  0  0  0  0  0  0  0  0  0  0
  144.8390   72.2390  220.3920 C   0  0  0  0  0  0  0  0  0  0  0  0
  143.5940   72.4490  219.8220 C   0  0  0  0  0  0  0  0  0  0  0  0
  143.1330   73.7430  219.6000 C   0  0  0  0  0  0  0  0  0  0  0  0
  140.2200   71.5090  223.5000 C   0  0  0  0  0  0  0  0  0  0  0  0
  139.6050   70.2840  223.3360 C   0  0  0  0  0  0  0  0  0  0  0  0
  139.4620   69.4390  224.4180 C   0  0  0  0  0  0  0  0  0  0  0  0
  139.9360   69.8350  225.6500 C   0  0  0  0  0  0  0  0  0  0  0  0
  139.8050   69.0000  226.7660 C   0  0  0  0  0  0  0  0  0  0  0  0
  140.2770   69.3850  228.0090 C   0  0  0  0  0  0  0  0  0  0  0  0
  140.1620   68.5920  229.1060 F   0  0  0  0  0  0  0  0  0  0  0  0
  140.8830   70.6170  228.1180 C   0  0  0  0  0  0  0  0  0  0  0  0
  141.0340   71.4730  227.0420 C   0  0  0  0  0  0  0  0  0  0  0  0
  140.5510   71.0600  225.8150 C   0  0  0  0  0  0  0  0  0  0  0  0
  140.6590   71.8370  224.7180 N   0  0  0  0  0  0  0  0  0  0  0  0
  138.8790   73.7430  223.0940 H   0  0  0  0  0  0  0  0  0  0  0  0
  140.6691   74.4644  220.7958 H   0  0  0  0  0  0  0  0  0  0  0  0
  138.8837   74.2450  220.4868 H   0  0  0  0  0  0  0  0  0  0  0  0
  139.5778   77.8209  219.0370 H   0  0  0  0  0  0  0  0  0  0  0  0
  138.1956   77.6973  220.1844 H   0  0  0  0  0  0  0  0  0  0  0  0
  139.8925   79.9522  219.7319 H   0  0  0  0  0  0  0  0  0  0  0  0
  138.6171   79.7819  220.9713 H   0  0  0  0  0  0  0  0  0  0  0  0
  140.8824   80.2961  221.9451 H   0  0  0  0  0  0  0  0  0  0  0  0
  140.2123   78.7359  222.5231 H   0  0  0  0  0  0  0  0  0  0  0  0
  142.0981   78.9892  220.1358 H   0  0  0  0  0  0  0  0  0  0  0  0
  142.6576   78.6618  221.8017 H   0  0  0  0  0  0  0  0  0  0  0  0
  141.8544   76.5403  221.7910 H   0  0  0  0  0  0  0  0  0  0  0  0
  141.4854   76.3523  218.8264 H   0  0  0  0  0  0  0  0  0  0  0  0
  144.0927   76.9820  219.4473 H   0  0  0  0  0  0  0  0  0  0  0  0
  145.7411   75.4814  220.7750 H   0  0  0  0  0  0  0  0  0  0  0  0
  146.5968   73.2041  221.1886 H   0  0  0  0  0  0  0  0  0  0  0  0
  145.2110   71.2192  220.5698 H   0  0  0  0  0  0  0  0  0  0  0  0
  142.9671   71.5891  219.5437 H   0  0  0  0  0  0  0  0  0  0  0  0
  142.1412   73.8860  219.1463 H   0  0  0  0  0  0  0  0  0  0  0  0
  139.2303   69.9824  222.3467 H   0  0  0  0  0  0  0  0  0  0  0  0
  138.9749   68.4600  224.2982 H   0  0  0  0  0  0  0  0  0  0  0  0
  139.3181   68.0201  226.6531 H   0  0  0  0  0  0  0  0  0  0  0  0
  141.2624   70.9331  229.1009 H   0  0  0  0  0  0  0  0  0  0  0  0
  141.5230   72.4513  227.1594 H   0  0  0  0  0  0  0  0  0  0  0  0
  1  2  2  0
  2  3  1  0
  3  4  1  0
  4  5  1  0
  5  6  2  0
  5  7  1  0
  7  8  1  0
  8  9  1  0
  9 10  1  0
 10 11  1  0
 11 12  1  0
 12 13  1  0
 13 14  2  0
 14 15  1  0
 15 16  2  0
 16 17  1  0
 17 18  2  0
 18 19  1  0
 19 20  2  0
  2 21  1  0
 21 22  2  0
 22 23  1  0
 23 24  2  0
 24 25  1  0
 25 26  2  0
 26 27  1  0
 26 28  1  0
 28 29  2  0
 29 30  1  0
 30 31  2  0
 12  7  1  0
 20 15  1  0
 31 21  1  0
 30 24  1  0
  3 32  1  0
  4 33  1  0
  4 34  1  0
  8 35  1  0
  8 36  1  0
  9 37  1  0
  9 38  1  0
 10 39  1  0
 10 40  1  0
 11 41  1  0
 11 42  1  0
 12 43  1  1
 13 44  1  0
 14 45  1  0
 16 46  1  0
 17 47  1  0
 18 48  1  0
 19 49  1  0
 20 50  1  0
 22 51  1  0
 23 52  1  0
 25 53  1  0
 28 54  1  0
 29 55  1  0
M  END
>  <smiles>  (33) 
O=C(NCC(=O)N1CCCCC1/C=C/c1ccccc1)c1ccc2cc(F)ccc2n1

>  <score_type>  (33) 
oracle

>  <origin>  (33) 
autodockgpu

>  <m_score__min__energy>  (33) 
-9.1600000000000001

>  <m_primary>  (33) 
energy

>  <rmsd>  (33) 
2.376562962172265

>  <m_score__min__rmsd>  (33) 
2.376562962172265

>  <meeko>  (33) 
{"free_energy": -8.62, "intermolecular_energy": -10.7, "internal_energy": -2.03, "cluster_size": 9, "cluster_id": 3, "rank_in_cluster": 1}

>  <energy>  (33) 
-8.37

>  <cluster_rmsd>  (33) 
0.33

>  <cluster>  (33) 
3

$$$$

     RDKit          3D

 55 58  0  0  0  0  0  0  0  0999 V2000
  133.7570   70.0890  226.5590 O   0  0  0  0  0  0  0  0  0  0  0  0
  134.0110   71.2240  226.1120 C   0  0  0  0  0  0  0  0  0  0  0  0
  134.9980   71.3990  225.1030 N   0  0  0  0  0  0  0  0  0  0  0  0
  135.7320   70.2980  224.5660 C   0  0  0  0  0  0  0  0  0  0  0  0
  136.6200   70.6780  223.4410 C   0  0  0  0  0  0  0  0  0  0  0  0
  136.3210   71.6180  222.6580 O   0  0  0  0  0  0  0  0  0  0  0  0
  137.8280   69.9450  223.2730 N   0  0  0  0  0  0  0  0  0  0  0  0
  137.9440   68.5340  223.6360 C   0  0  0  0  0  0  0  0  0  0  0  0
  138.3470   67.7110  222.4160 C   0  0  0  0  0  0  0  0  0  0  0  0
  138.6130   68.6650  221.2710 C   0  0  0  0  0  0  0  0  0  0  0  0
  139.6360   69.6840  221.7050 C   0  0  0  0  0  0  0  0  0  0  0  0
  138.9990   70.5890  222.7250 C   0  0  2  0  0  0  0  0  0  0  0  0
  139.9580   70.9880  223.7900 C   0  0  0  0  0  0  0  0  0  0  0  0
  139.6180   71.0730  225.0500 C   0  0  0  0  0  0  0  0  0  0  0  0
  140.0940   70.1800  226.0970 C   0  0  0  0  0  0  0  0  0  0  0  0
  140.1020   68.8090  225.9650 C   0  0  0  0  0  0  0  0  0  0  0  0
  140.5570   67.9620  226.9650 C   0  0  0  0  0  0  0  0  0  0  0  0
  141.0260   68.4930  228.1550 C   0  0  0  0  0  0  0  0  0  0  0  0
  141.0270   69.8700  228.3110 C   0  0  0  0  0  0  0  0  0  0  0  0
  140.5650   70.6920  227.2880 C   0  0  0  0  0  0  0  0  0  0  0  0
  133.3020   72.4160  226.6100 C   0  0  0  0  0  0  0  0  0  0  0  0
  132.0860   72.2840  227.2500 C   0  0  0  0  0  0  0  0  0  0  0  0
  131.4310   73.4070  227.7130 C   0  0  0  0  0  0  0  0  0  0  0  0
  132.0020   74.6470  227.5260 C   0  0  0  0  0  0  0  0  0  0  0  0
  131.3610   75.8040  227.9840 C   0  0  0  0  0  0  0  0  0  0  0  0
  131.9250   77.0560  227.8030 C   0  0  0  0  0  0  0  0  0  0  0  0
  131.3210   78.1920  228.2390 F   0  0  0  0  0  0  0  0  0  0  0  0
  133.1390   77.1320  227.1580 C   0  0  0  0  0  0  0  0  0  0  0  0
  133.8070   76.0140  226.6900 C   0  0  0  0  0  0  0  0  0  0  0  0
  133.2190   74.7800  226.8850 C   0  0  0  0  0  0  0  0  0  0  0  0
  133.8060   73.6440  226.4580 N   0  0  0  0  0  0  0  0  0  0  0  0
  135.1770   72.3880  224.7550 H   0  0  0  0  0  0  0  0  0  0  0  0
  136.3492   69.8658  225.3674 H   0  0  0  0  0  0  0  0  0  0  0  0
  134.9988   69.5781  224.1735 H   0  0  0  0  0  0  0  0  0  0  0  0
  138.7078   68.4213  224.4195 H   0  0  0  0  0  0  0  0  0  0  0  0
  136.9722   68.1763  224.0070 H   0  0  0  0  0  0  0  0  0  0  0  0
  139.2566   67.1342  222.6395 H   0  0  0  0  0  0  0  0  0  0  0  0
  137.5436   67.0091  222.1479 H   0  0  0  0  0  0  0  0  0  0  0  0
  138.9960   68.1041  220.4057 H   0  0  0  0  0  0  0  0  0  0  0  0
  137.6797   69.1741  220.9885 H   0  0  0  0  0  0  0  0  0  0  0  0
  140.5031   69.1741  222.1502 H   0  0  0  0  0  0  0  0  0  0  0  0
  139.9776   70.2703  220.8392 H   0  0  0  0  0  0  0  0  0  0  0  0
  138.6917   71.5199  222.2260 H   0  0  0  0  0  0  0  0  0  0  0  0
  140.9949   71.2209  223.5062 H   0  0  0  0  0  0  0  0  0  0  0  0
  138.9236   71.8756  225.3392 H   0  0  0  0  0  0  0  0  0  0  0  0
  139.7323   68.3674  225.0278 H   0  0  0  0  0  0  0  0  0  0  0  0
  140.5453   66.8726  226.8133 H   0  0  0  0  0  0  0  0  0  0  0  0
  141.3898   67.8361  228.9588 H   0  0  0  0  0  0  0  0  0  0  0  0
  141.3945   70.3149  229.2475 H   0  0  0  0  0  0  0  0  0  0  0  0
  140.5757   71.7823  227.4333 H   0  0  0  0  0  0  0  0  0  0  0  0
  131.6410   71.2879  227.3903 H   0  0  0  0  0  0  0  0  0  0  0  0
  130.4626   73.3131  228.2263 H   0  0  0  0  0  0  0  0  0  0  0  0
  130.3918   75.7173  228.4969 H   0  0  0  0  0  0  0  0  0  0  0  0
  133.5964   78.1212  227.0087 H   0  0  0  0  0  0  0  0  0  0  0  0
  134.7765   76.1056  226.1784 H   0  0  0  0  0  0  0  0  0  0  0  0
  1  2  2  0
  2  3  1  0
  3  4  1  0
  4  5  1  0
  5  6  2  0
  5  7  1  0
  7  8  1  0
  8  9  1  0
  9 10  1  0
 10 11  1  0
 11 12  1  0
 12 13  1  0
 13 14  2  0
 14 15  1  0
 15 16  2  0
 16 17  1  0
 17 18  2  0
 18 19  1  0
 19 20  2  0
  2 21  1  0
 21 22  2  0
 22 23  1  0
 23 24  2  0
 24 25  1  0
 25 26  2  0
 26 27  1  0
 26 28  1  0
 28 29  2  0
 29 30  1  0
 30 31  2  0
 12  7  1  0
 20 15  1  0
 31 21  1  0
 30 24  1  0
  3 32  1  0
  4 33  1  0
  4 34  1  0
  8 35  1  0
  8 36  1  0
  9 37  1  0
  9 38  1  0
 10 39  1  0
 10 40  1  0
 11 41  1  0
 11 42  1  0
 12 43  1  6
 13 44  1  0
 14 45  1  0
 16 46  1  0
 17 47  1  0
 18 48  1  0
 19 49  1  0
 20 50  1  0
 22 51  1  0
 23 52  1  0
 25 53  1  0
 28 54  1  0
 29 55  1  0
M  END
>  <smiles>  (34) 
O=C(NCC(=O)N1CCCCC1/C=C/c1ccccc1)c1ccc2cc(F)ccc2n1

>  <score_type>  (34) 
oracle

>  <origin>  (34) 
autodockgpu

>  <m_score__min__energy>  (34) 
-9.1600000000000001

>  <m_primary>  (34) 
energy

>  <rmsd>  (34) 
8.541443292655156

>  <m_score__min__rmsd>  (34) 
8.541443292655156

>  <meeko>  (34) 
{"free_energy": -8.22, "intermolecular_energy": -10.31, "internal_energy": -2.09, "cluster_size": 4, "cluster_id": 6, "rank_in_cluster": 1}

>  <energy>  (34) 
-8.29

>  <cluster_rmsd>  (34) 
0.56

>  <cluster>  (34) 
3

$$$$

     RDKit          3D

 55 58  0  0  0  0  0  0  0  0999 V2000
  140.2460   70.7910  221.5570 O   0  0  0  0  0  0  0  0  0  0  0  0
  139.9250   71.5120  222.5220 C   0  0  0  0  0  0  0  0  0  0  0  0
  139.3540   72.7960  222.3060 N   0  0  0  0  0  0  0  0  0  0  0  0
  139.1270   73.3110  220.9940 C   0  0  0  0  0  0  0  0  0  0  0  0
  140.1190   74.3350  220.5860 C   0  0  0  0  0  0  0  0  0  0  0  0
  141.2140   74.0120  220.0540 O   0  0  0  0  0  0  0  0  0  0  0  0
  139.7940   75.7010  220.8140 N   0  0  0  0  0  0  0  0  0  0  0  0
  138.6070   76.3310  220.2390 C   0  0  0  0  0  0  0  0  0  0  0  0
  137.7160   76.8810  221.3480 C   0  0  0  0  0  0  0  0  0  0  0  0
  138.4360   76.6970  222.6670 C   0  0  0  0  0  0  0  0  0  0  0  0
  139.7980   77.3390  222.5790 C   0  0  0  0  0  0  0  0  0  0  0  0
  140.6460   76.5230  221.6410 C   0  0  2  0  0  0  0  0  0  0  0  0
  141.5500   77.3760  220.8240 C   0  0  0  0  0  0  0  0  0  0  0  0
  141.3950   78.6710  220.7190 C   0  0  0  0  0  0  0  0  0  0  0  0
  141.6860   79.6270  221.7780 C   0  0  0  0  0  0  0  0  0  0  0  0
  142.6460   79.4070  222.7410 C   0  0  0  0  0  0  0  0  0  0  0  0
  142.9190   80.3210  223.7490 C   0  0  0  0  0  0  0  0  0  0  0  0
  142.2120   81.5090  223.8100 C   0  0  0  0  0  0  0  0  0  0  0  0
  141.2410   81.7520  222.8510 C   0  0  0  0  0  0  0  0  0  0  0  0
  140.9910   80.8150  221.8530 C   0  0  0  0  0  0  0  0  0  0  0  0
  140.1250   71.0600  223.9100 C   0  0  0  0  0  0  0  0  0  0  0  0
  140.7050   71.9020  224.8380 C   0  0  0  0  0  0  0  0  0  0  0  0
  140.8880   71.4690  226.1360 C   0  0  0  0  0  0  0  0  0  0  0  0
  140.4880   70.1970  226.4850 C   0  0  0  0  0  0  0  0  0  0  0  0
  140.6610   69.7300  227.7930 C   0  0  0  0  0  0  0  0  0  0  0  0
  140.2640   68.4540  228.1570 C   0  0  0  0  0  0  0  0  0  0  0  0
  140.4220   67.9790  229.4200 F   0  0  0  0  0  0  0  0  0  0  0  0
  139.6910   67.6550  227.1940 C   0  0  0  0  0  0  0  0  0  0  0  0
  139.5010   68.0770  225.8900 C   0  0  0  0  0  0  0  0  0  0  0  0
  139.9080   69.3540  225.5570 C   0  0  0  0  0  0  0  0  0  0  0  0
  139.7590   69.8390  224.3080 N   0  0  0  0  0  0  0  0  0  0  0  0
  139.0990   73.3720  223.1630 H   0  0  0  0  0  0  0  0  0  0  0  0
  139.1723   72.4765  220.2787 H   0  0  0  0  0  0  0  0  0  0  0  0
  138.1406   73.7977  221.0012 H   0  0  0  0  0  0  0  0  0  0  0  0
  138.9161   77.1546  219.5786 H   0  0  0  0  0  0  0  0  0  0  0  0
  138.0443   75.5809  219.6639 H   0  0  0  0  0  0  0  0  0  0  0  0
  137.5228   77.9500  221.1750 H   0  0  0  0  0  0  0  0  0  0  0  0
  136.7538   76.3481  221.3623 H   0  0  0  0  0  0  0  0  0  0  0  0
  137.8564   77.1715  223.4725 H   0  0  0  0  0  0  0  0  0  0  0  0
  138.5451   75.6240  222.8834 H   0  0  0  0  0  0  0  0  0  0  0  0
  139.7012   78.3653  222.1952 H   0  0  0  0  0  0  0  0  0  0  0  0
  140.2639   77.3770  223.5748 H   0  0  0  0  0  0  0  0  0  0  0  0
  141.2989   75.8691  222.2377 H   0  0  0  0  0  0  0  0  0  0  0  0
  142.3826   76.8988  220.2863 H   0  0  0  0  0  0  0  0  0  0  0  0
  141.0184   79.0651  219.7636 H   0  0  0  0  0  0  0  0  0  0  0  0
  143.2195   78.4688  222.7098 H   0  0  0  0  0  0  0  0  0  0  0  0
  143.6950   80.1018  224.4972 H   0  0  0  0  0  0  0  0  0  0  0  0
  142.4161   82.2444  224.6021 H   0  0  0  0  0  0  0  0  0  0  0  0
  140.6658   82.6892  222.8790 H   0  0  0  0  0  0  0  0  0  0  0  0
  140.2161   81.0286  221.1020 H   0  0  0  0  0  0  0  0  0  0  0  0
  141.0201   72.9141  224.5441 H   0  0  0  0  0  0  0  0  0  0  0  0
  141.3480   72.1319  226.8836 H   0  0  0  0  0  0  0  0  0  0  0  0
  141.1204   70.3881  228.5453 H   0  0  0  0  0  0  0  0  0  0  0  0
  139.3711   66.6400  227.4722 H   0  0  0  0  0  0  0  0  0  0  0  0
  139.0400   67.4157  225.1416 H   0  0  0  0  0  0  0  0  0  0  0  0
  1  2  2  0
  2  3  1  0
  3  4  1  0
  4  5  1  0
  5  6  2  0
  5  7  1  0
  7  8  1  0
  8  9  1  0
  9 10  1  0
 10 11  1  0
 11 12  1  0
 12 13  1  0
 13 14  2  0
 14 15  1  0
 15 16  2  0
 16 17  1  0
 17 18  2  0
 18 19  1  0
 19 20  2  0
  2 21  1  0
 21 22  2  0
 22 23  1  0
 23 24  2  0
 24 25  1  0
 25 26  2  0
 26 27  1  0
 26 28  1  0
 28 29  2  0
 29 30  1  0
 30 31  2  0
 12  7  1  0
 20 15  1  0
 31 21  1  0
 30 24  1  0
  3 32  1  0
  4 33  1  0
  4 34  1  0
  8 35  1  0
  8 36  1  0
  9 37  1  0
  9 38  1  0
 10 39  1  0
 10 40  1  0
 11 41  1  0
 11 42  1  0
 12 43  1  1
 13 44  1  0
 14 45  1  0
 16 46  1  0
 17 47  1  0
 18 48  1  0
 19 49  1  0
 20 50  1  0
 22 51  1  0
 23 52  1  0
 25 53  1  0
 28 54  1  0
 29 55  1  0
M  END
>  <smiles>  (35) 
O=C(NCC(=O)N1CCCCC1/C=C/c1ccccc1)c1ccc2cc(F)ccc2n1

>  <score_type>  (35) 
oracle

>  <origin>  (35) 
autodockgpu

>  <m_score__min__energy>  (35) 
-9.1600000000000001

>  <m_primary>  (35) 
energy

>  <rmsd>  (35) 
3.2073434091340665

>  <m_score__min__rmsd>  (35) 
3.2073434091340665

>  <meeko>  (35) 
{"free_energy": -8.67, "intermolecular_energy": -10.75, "internal_energy": -1.49, "cluster_size": 23, "cluster_id": 1, "rank_in_cluster": 16}

>  <energy>  (35) 
-8.29

>  <cluster_rmsd>  (35) 
0.72

>  <cluster>  (35) 
3

$$$$

     RDKit          3D

 55 58  0  0  0  0  0  0  0  0999 V2000
  140.9330   71.8360  221.1050 O   0  0  0  0  0  0  0  0  0  0  0  0
  140.4010   72.2830  222.1390 C   0  0  0  0  0  0  0  0  0  0  0  0
  139.9570   73.6320  222.1970 N   0  0  0  0  0  0  0  0  0  0  0  0
  140.1000   74.5230  221.0900 C   0  0  0  0  0  0  0  0  0  0  0  0
  140.4380   75.9090  221.4930 C   0  0  0  0  0  0  0  0  0  0  0  0
  140.3980   76.2700  222.6990 O   0  0  0  0  0  0  0  0  0  0  0  0
  140.8110   76.8250  220.4700 N   0  0  0  0  0  0  0  0  0  0  0  0
  142.2020   77.2060  220.2290 C   0  0  0  0  0  0  0  0  0  0  0  0
  142.5990   76.8590  218.7980 C   0  0  0  0  0  0  0  0  0  0  0  0
  141.3690   76.3530  218.0760 C   0  0  0  0  0  0  0  0  0  0  0  0
  140.2710   77.3800  218.1900 C   0  0  0  0  0  0  0  0  0  0  0  0
  139.8040   77.4160  219.6210 C   0  0  2  0  0  0  0  0  0  0  0  0
  139.4550   78.7950  220.0580 C   0  0  0  0  0  0  0  0  0  0  0  0
  139.3990   79.1440  221.3170 C   0  0  0  0  0  0  0  0  0  0  0  0
  140.5550   79.4970  222.1290 C   0  0  0  0  0  0  0  0  0  0  0  0
  140.7220   79.0560  223.4230 C   0  0  0  0  0  0  0  0  0  0  0  0
  141.8260   79.3950  224.1940 C   0  0  0  0  0  0  0  0  0  0  0  0
  142.8110   80.2110  223.6630 C   0  0  0  0  0  0  0  0  0  0  0  0
  142.6630   80.6670  222.3620 C   0  0  0  0  0  0  0  0  0  0  0  0
  141.5450   80.3080  221.6160 C   0  0  0  0  0  0  0  0  0  0  0  0
  140.2150   71.4340  223.3290 C   0  0  0  0  0  0  0  0  0  0  0  0
  139.5910   70.2080  223.2170 C   0  0  0  0  0  0  0  0  0  0  0  0
  139.4220   69.4200  224.3370 C   0  0  0  0  0  0  0  0  0  0  0  0
  139.8800   69.8730  225.5560 C   0  0  0  0  0  0  0  0  0  0  0  0
  139.7220   69.0970  226.7100 C   0  0  0  0  0  0  0  0  0  0  0  0
  140.1770   69.5410  227.9400 C   0  0  0  0  0  0  0  0  0  0  0  0
  140.0360   68.8050  229.0730 F   0  0  0  0  0  0  0  0  0  0  0  0
  140.7930   70.7710  227.9970 C   0  0  0  0  0  0  0  0  0  0  0  0
  140.9700   71.5690  226.8810 C   0  0  0  0  0  0  0  0  0  0  0  0
  140.5040   71.1000  225.6690 C   0  0  0  0  0  0  0  0  0  0  0  0
  140.6370   71.8190  224.5360 N   0  0  0  0  0  0  0  0  0  0  0  0
  139.5100   73.9650  223.1030 H   0  0  0  0  0  0  0  0  0  0  0  0
  140.9006   74.1439  220.4378 H   0  0  0  0  0  0  0  0  0  0  0  0
  139.1289   74.5611  220.5747 H   0  0  0  0  0  0  0  0  0  0  0  0
  142.3152   78.2889  220.3857 H   0  0  0  0  0  0  0  0  0  0  0  0
  142.8520   76.6574  220.9265 H   0  0  0  0  0  0  0  0  0  0  0  0
  142.9861   77.7553  218.2911 H   0  0  0  0  0  0  0  0  0  0  0  0
  143.3840   76.0884  218.7975 H   0  0  0  0  0  0  0  0  0  0  0  0
  141.6076   76.1854  217.0154 H   0  0  0  0  0  0  0  0  0  0  0  0
  141.0383   75.4060  218.5275 H   0  0  0  0  0  0  0  0  0  0  0  0
  140.6550   78.3689  217.8991 H   0  0  0  0  0  0  0  0  0  0  0  0
  139.4352   77.1166  217.5251 H   0  0  0  0  0  0  0  0  0  0  0  0
  138.8793   76.8259  219.7031 H   0  0  0  0  0  0  0  0  0  0  0  0
  139.2351   79.5518  219.2906 H   0  0  0  0  0  0  0  0  0  0  0  0
  138.4093   79.1729  221.7962 H   0  0  0  0  0  0  0  0  0  0  0  0
  139.9493   78.4089  223.8637 H   0  0  0  0  0  0  0  0  0  0  0  0
  141.9179   79.0168  225.2228 H   0  0  0  0  0  0  0  0  0  0  0  0
  143.6913   80.4911  224.2602 H   0  0  0  0  0  0  0  0  0  0  0  0
  143.4327   81.3153  221.9179 H   0  0  0  0  0  0  0  0  0  0  0  0
  141.4479   80.6823  220.5862 H   0  0  0  0  0  0  0  0  0  0  0  0
  139.2296   69.8602  222.2380 H   0  0  0  0  0  0  0  0  0  0  0  0
  138.9271   68.4408  224.2582 H   0  0  0  0  0  0  0  0  0  0  0  0
  139.2276   68.1170  226.6385 H   0  0  0  0  0  0  0  0  0  0  0  0
  141.1590   71.1337  228.9688 H   0  0  0  0  0  0  0  0  0  0  0  0
  141.4669   72.5474  226.9569 H   0  0  0  0  0  0  0  0  0  0  0  0
  1  2  2  0
  2  3  1  0
  3  4  1  0
  4  5  1  0
  5  6  2  0
  5  7  1  0
  7  8  1  0
  8  9  1  0
  9 10  1  0
 10 11  1  0
 11 12  1  0
 12 13  1  0
 13 14  2  0
 14 15  1  0
 15 16  2  0
 16 17  1  0
 17 18  2  0
 18 19  1  0
 19 20  2  0
  2 21  1  0
 21 22  2  0
 22 23  1  0
 23 24  2  0
 24 25  1  0
 25 26  2  0
 26 27  1  0
 26 28  1  0
 28 29  2  0
 29 30  1  0
 30 31  2  0
 12  7  1  0
 20 15  1  0
 31 21  1  0
 30 24  1  0
  3 32  1  0
  4 33  1  0
  4 34  1  0
  8 35  1  0
  8 36  1  0
  9 37  1  0
  9 38  1  0
 10 39  1  0
 10 40  1  0
 11 41  1  0
 11 42  1  0
 12 43  1  6
 13 44  1  0
 14 45  1  0
 16 46  1  0
 17 47  1  0
 18 48  1  0
 19 49  1  0
 20 50  1  0
 22 51  1  0
 23 52  1  0
 25 53  1  0
 28 54  1  0
 29 55  1  0
M  END
>  <smiles>  (36) 
O=C(NCC(=O)N1CCCCC1/C=C/c1ccccc1)c1ccc2cc(F)ccc2n1

>  <score_type>  (36) 
oracle

>  <origin>  (36) 
autodockgpu

>  <m_score__min__energy>  (36) 
-9.1600000000000001

>  <m_primary>  (36) 
energy

>  <rmsd>  (36) 
2.1032089342396336

>  <m_score__min__rmsd>  (36) 
2.1032089342396336

>  <meeko>  (36) 
{"free_energy": -8.46, "intermolecular_energy": -10.54, "internal_energy": -2.09, "cluster_size": 23, "cluster_id": 1, "rank_in_cluster": 22}

>  <energy>  (36) 
-8.28

>  <cluster_rmsd>  (36) 
0.69

>  <cluster>  (36) 
3

$$$$

     RDKit          3D

 55 58  0  0  0  0  0  0  0  0999 V2000
  141.2090   72.6050  221.7510 O   0  0  0  0  0  0  0  0  0  0  0  0
  140.1740   72.5600  222.4440 C   0  0  0  0  0  0  0  0  0  0  0  0
  139.0830   73.4300  222.1700 N   0  0  0  0  0  0  0  0  0  0  0  0
  139.1240   74.3810  221.1050 C   0  0  0  0  0  0  0  0  0  0  0  0
  140.1510   75.4330  221.2970 C   0  0  0  0  0  0  0  0  0  0  0  0
  140.8520   75.4820  222.3420 O   0  0  0  0  0  0  0  0  0  0  0  0
  140.3210   76.3920  220.2590 N   0  0  0  0  0  0  0  0  0  0  0  0
  139.3480   76.5600  219.1820 C   0  0  0  0  0  0  0  0  0  0  0  0
  138.8210   77.9920  219.1700 C   0  0  0  0  0  0  0  0  0  0  0  0
  139.5900   78.7850  220.2070 C   0  0  0  0  0  0  0  0  0  0  0  0
  141.0660   78.6570  219.9310 C   0  0  0  0  0  0  0  0  0  0  0  0
  141.4860   77.2450  220.2420 C   0  0  2  0  0  0  0  0  0  0  0  0
  142.5180   76.7500  219.2920 C   0  0  0  0  0  0  0  0  0  0  0  0
  143.6810   76.2970  219.6860 C   0  0  0  0  0  0  0  0  0  0  0  0
  143.9780   74.8970  219.9490 C   0  0  0  0  0  0  0  0  0  0  0  0
  143.1310   73.8720  219.5850 C   0  0  0  0  0  0  0  0  0  0  0  0
  143.4190   72.5380  219.8370 C   0  0  0  0  0  0  0  0  0  0  0  0
  144.5960   72.1980  220.4810 C   0  0  0  0  0  0  0  0  0  0  0  0
  145.4620   73.2120  220.8570 C   0  0  0  0  0  0  0  0  0  0  0  0
  145.1460   74.5400  220.5890 C   0  0  0  0  0  0  0  0  0  0  0  0
  140.0480   71.6110  223.5630 C   0  0  0  0  0  0  0  0  0  0  0  0
  139.3720   70.4200  223.3910 C   0  0  0  0  0  0  0  0  0  0  0  0
  139.2590   69.5380  224.4460 C   0  0  0  0  0  0  0  0  0  0  0  0
  139.8240   69.8630  225.6610 C   0  0  0  0  0  0  0  0  0  0  0  0
  139.7250   68.9880  226.7490 C   0  0  0  0  0  0  0  0  0  0  0  0
  140.2880   69.3020  227.9740 C   0  0  0  0  0  0  0  0  0  0  0  0
  140.2050   68.4700  229.0450 F   0  0  0  0  0  0  0  0  0  0  0  0
  140.9520   70.5030  228.0930 C   0  0  0  0  0  0  0  0  0  0  0  0
  141.0730   71.3960  227.0430 C   0  0  0  0  0  0  0  0  0  0  0  0
  140.5000   71.0540  225.8340 C   0  0  0  0  0  0  0  0  0  0  0  0
  140.5740   71.8700  224.7630 N   0  0  0  0  0  0  0  0  0  0  0  0
  138.2230   73.3530  222.7910 H   0  0  0  0  0  0  0  0  0  0  0  0
  139.3421   73.8470  220.1684 H   0  0  0  0  0  0  0  0  0  0  0  0
  138.1453   74.8824  221.0782 H   0  0  0  0  0  0  0  0  0  0  0  0
  139.8310   76.3420  218.2181 H   0  0  0  0  0  0  0  0  0  0  0  0
  138.5080   75.8686  219.3446 H   0  0  0  0  0  0  0  0  0  0  0  0
  138.9705   78.4360  218.1748 H   0  0  0  0  0  0  0  0  0  0  0  0
  137.7456   78.0044  219.4011 H   0  0  0  0  0  0  0  0  0  0  0  0
  139.2958   79.8436  220.1538 H   0  0  0  0  0  0  0  0  0  0  0  0
  139.3658   78.3968  221.2115 H   0  0  0  0  0  0  0  0  0  0  0  0
  141.2669   78.8800  218.8727 H   0  0  0  0  0  0  0  0  0  0  0  0
  141.6304   79.3657  220.5549 H   0  0  0  0  0  0  0  0  0  0  0  0
  141.9540   77.2279  221.2373 H   0  0  0  0  0  0  0  0  0  0  0  0
  142.2948   76.7653  218.2150 H   0  0  0  0  0  0  0  0  0  0  0  0
  144.4918   77.0266  219.8285 H   0  0  0  0  0  0  0  0  0  0  0  0
  142.1892   74.1215  219.0744 H   0  0  0  0  0  0  0  0  0  0  0  0
  142.7139   71.7531  219.5258 H   0  0  0  0  0  0  0  0  0  0  0  0
  144.8386   71.1456  220.6898 H   0  0  0  0  0  0  0  0  0  0  0  0
  146.4036   72.9659  221.3697 H   0  0  0  0  0  0  0  0  0  0  0  0
  145.8486   75.3285  220.8967 H   0  0  0  0  0  0  0  0  0  0  0  0
  138.9249   70.1749  222.4163 H   0  0  0  0  0  0  0  0  0  0  0  0
  138.7237   68.5854  224.3191 H   0  0  0  0  0  0  0  0  0  0  0  0
  139.1905   68.0342  226.6285 H   0  0  0  0  0  0  0  0  0  0  0  0
  141.4042   70.7626  229.0616 H   0  0  0  0  0  0  0  0  0  0  0  0
  141.6089   72.3486  227.1674 H   0  0  0  0  0  0  0  0  0  0  0  0
  1  2  2  0
  2  3  1  0
  3  4  1  0
  4  5  1  0
  5  6  2  0
  5  7  1  0
  7  8  1  0
  8  9  1  0
  9 10  1  0
 10 11  1  0
 11 12  1  0
 12 13  1  0
 13 14  2  0
 14 15  1  0
 15 16  2  0
 16 17  1  0
 17 18  2  0
 18 19  1  0
 19 20  2  0
  2 21  1  0
 21 22  2  0
 22 23  1  0
 23 24  2  0
 24 25  1  0
 25 26  2  0
 26 27  1  0
 26 28  1  0
 28 29  2  0
 29 30  1  0
 30 31  2  0
 12  7  1  0
 20 15  1  0
 31 21  1  0
 30 24  1  0
  3 32  1  0
  4 33  1  0
  4 34  1  0
  8 35  1  0
  8 36  1  0
  9 37  1  0
  9 38  1  0
 10 39  1  0
 10 40  1  0
 11 41  1  0
 11 42  1  0
 12 43  1  1
 13 44  1  0
 14 45  1  0
 16 46  1  0
 17 47  1  0
 18 48  1  0
 19 49  1  0
 20 50  1  0
 22 51  1  0
 23 52  1  0
 25 53  1  0
 28 54  1  0
 29 55  1  0
M  END
>  <smiles>  (37) 
O=C(NCC(=O)N1CCCCC1/C=C/c1ccccc1)c1ccc2cc(F)ccc2n1

>  <score_type>  (37) 
oracle

>  <origin>  (37) 
autodockgpu

>  <m_score__min__energy>  (37) 
-9.1600000000000001

>  <m_primary>  (37) 
energy

>  <rmsd>  (37) 
1.751078215067561

>  <m_score__min__rmsd>  (37) 
1.751078215067561

>  <meeko>  (37) 
{"free_energy": -8.29, "intermolecular_energy": -10.38, "internal_energy": -1.92, "cluster_size": 9, "cluster_id": 3, "rank_in_cluster": 5}

>  <energy>  (37) 
-8.27

>  <cluster_rmsd>  (37) 
0.59

>  <cluster>  (37) 
3

$$$$

     RDKit          3D

 55 58  0  0  0  0  0  0  0  0999 V2000
  140.9820   73.0280  222.1610 O   0  0  0  0  0  0  0  0  0  0  0  0
  139.9420   72.6410  222.7280 C   0  0  0  0  0  0  0  0  0  0  0  0
  138.6790   73.1930  222.3760 N   0  0  0  0  0  0  0  0  0  0  0  0
  138.5490   74.2000  221.3730 C   0  0  0  0  0  0  0  0  0  0  0  0
  138.2980   75.5520  221.9290 C   0  0  0  0  0  0  0  0  0  0  0  0
  137.2530   75.8090  222.5820 O   0  0  0  0  0  0  0  0  0  0  0  0
  139.2800   76.5560  221.7000 N   0  0  0  0  0  0  0  0  0  0  0  0
  140.7010   76.3370  221.9660 C   0  0  0  0  0  0  0  0  0  0  0  0
  141.5100   76.5450  220.6890 C   0  0  0  0  0  0  0  0  0  0  0  0
  140.5690   77.0340  219.6080 C   0  0  0  0  0  0  0  0  0  0  0  0
  139.8490   78.2640  220.1010 C   0  0  0  0  0  0  0  0  0  0  0  0
  138.8910   77.8480  221.1860 C   0  0  2  0  0  0  0  0  0  0  0  0
  138.8000   78.8670  222.2670 C   0  0  0  0  0  0  0  0  0  0  0  0
  139.4150   80.0190  222.2050 C   0  0  0  0  0  0  0  0  0  0  0  0
  140.7400   80.2800  222.7490 C   0  0  0  0  0  0  0  0  0  0  0  0
  140.9820   81.2530  223.6940 C   0  0  0  0  0  0  0  0  0  0  0  0
  142.2470   81.4990  224.2100 C   0  0  0  0  0  0  0  0  0  0  0  0
  143.3250   80.7500  223.7720 C   0  0  0  0  0  0  0  0  0  0  0  0
  143.1060   79.7660  222.8210 C   0  0  0  0  0  0  0  0  0  0  0  0
  141.8250   79.5440  222.3230 C   0  0  0  0  0  0  0  0  0  0  0  0
  139.9850   71.6050  223.7750 C   0  0  0  0  0  0  0  0  0  0  0  0
  139.5320   70.3290  223.5100 C   0  0  0  0  0  0  0  0  0  0  0  0
  139.5770   69.3670  224.4980 C   0  0  0  0  0  0  0  0  0  0  0  0
  140.0740   69.6980  225.7400 C   0  0  0  0  0  0  0  0  0  0  0  0
  140.1310   68.7440  226.7630 C   0  0  0  0  0  0  0  0  0  0  0  0
  140.6280   69.0630  228.0150 C   0  0  0  0  0  0  0  0  0  0  0  0
  140.6940   68.1540  229.0220 F   0  0  0  0  0  0  0  0  0  0  0  0
  141.0680   70.3500  228.2270 C   0  0  0  0  0  0  0  0  0  0  0  0
  141.0290   71.3240  227.2450 C   0  0  0  0  0  0  0  0  0  0  0  0
  140.5270   70.9750  226.0070 C   0  0  0  0  0  0  0  0  0  0  0  0
  140.4560   71.8660  224.9980 N   0  0  0  0  0  0  0  0  0  0  0  0
  137.8220   72.8290  222.8900 H   0  0  0  0  0  0  0  0  0  0  0  0
  139.4790   74.2307  220.7863 H   0  0  0  0  0  0  0  0  0  0  0  0
  137.6783   73.9346  220.7554 H   0  0  0  0  0  0  0  0  0  0  0  0
  141.0417   77.0483  222.7328 H   0  0  0  0  0  0  0  0  0  0  0  0
  140.8468   75.3063  222.3215 H   0  0  0  0  0  0  0  0  0  0  0  0
  142.2969   77.2933  220.8643 H   0  0  0  0  0  0  0  0  0  0  0  0
  141.9847   75.6015  220.3817 H   0  0  0  0  0  0  0  0  0  0  0  0
  141.1438   77.2813  218.7033 H   0  0  0  0  0  0  0  0  0  0  0  0
  139.8383   76.2474  219.3687 H   0  0  0  0  0  0  0  0  0  0  0  0
  140.5763   78.9846  220.5032 H   0  0  0  0  0  0  0  0  0  0  0  0
  139.3016   78.7398  219.2740 H   0  0  0  0  0  0  0  0  0  0  0  0
  137.8825   77.7691  220.7539 H   0  0  0  0  0  0  0  0  0  0  0  0
  138.1903   78.6416  223.1544 H   0  0  0  0  0  0  0  0  0  0  0  0
  138.8945   80.8500  221.7065 H   0  0  0  0  0  0  0  0  0  0  0  0
  140.1382   81.8598  224.0544 H   0  0  0  0  0  0  0  0  0  0  0  0
  142.3920   82.2864  224.9643 H   0  0  0  0  0  0  0  0  0  0  0  0
  144.3342   80.9318  224.1702 H   0  0  0  0  0  0  0  0  0  0  0  0
  143.9478   79.1579  222.4582 H   0  0  0  0  0  0  0  0  0  0  0  0
  141.6743   78.7586  221.5678 H   0  0  0  0  0  0  0  0  0  0  0  0
  139.1363   70.0795  222.5144 H   0  0  0  0  0  0  0  0  0  0  0  0
  139.2198   68.3463  224.2964 H   0  0  0  0  0  0  0  0  0  0  0  0
  139.7742   67.7219  226.5683 H   0  0  0  0  0  0  0  0  0  0  0  0
  141.4668   70.6149  229.2174 H   0  0  0  0  0  0  0  0  0  0  0  0
  141.3869   72.3448  227.4444 H   0  0  0  0  0  0  0  0  0  0  0  0
  1  2  2  0
  2  3  1  0
  3  4  1  0
  4  5  1  0
  5  6  2  0
  5  7  1  0
  7  8  1  0
  8  9  1  0
  9 10  1  0
 10 11  1  0
 11 12  1  0
 12 13  1  0
 13 14  2  0
 14 15  1  0
 15 16  2  0
 16 17  1  0
 17 18  2  0
 18 19  1  0
 19 20  2  0
  2 21  1  0
 21 22  2  0
 22 23  1  0
 23 24  2  0
 24 25  1  0
 25 26  2  0
 26 27  1  0
 26 28  1  0
 28 29  2  0
 29 30  1  0
 30 31  2  0
 12  7  1  0
 20 15  1  0
 31 21  1  0
 30 24  1  0
  3 32  1  0
  4 33  1  0
  4 34  1  0
  8 35  1  0
  8 36  1  0
  9 37  1  0
  9 38  1  0
 10 39  1  0
 10 40  1  0
 11 41  1  0
 11 42  1  0
 12 43  1  6
 13 44  1  0
 14 45  1  0
 16 46  1  0
 17 47  1  0
 18 48  1  0
 19 49  1  0
 20 50  1  0
 22 51  1  0
 23 52  1  0
 25 53  1  0
 28 54  1  0
 29 55  1  0
M  END
>  <smiles>  (38) 
O=C(NCC(=O)N1CCCCC1/C=C/c1ccccc1)c1ccc2cc(F)ccc2n1

>  <score_type>  (38) 
oracle

>  <origin>  (38) 
autodockgpu

>  <m_score__min__energy>  (38) 
-9.1600000000000001

>  <m_primary>  (38) 
energy

>  <rmsd>  (38) 
2.387071416042777

>  <m_score__min__rmsd>  (38) 
2.387071416042777

>  <meeko>  (38) 
{"free_energy": -8.93, "intermolecular_energy": -11.02, "internal_energy": -1.74, "cluster_size": 7, "cluster_id": 2, "rank_in_cluster": 2}

>  <energy>  (38) 
-8.2

>  <cluster_rmsd>  (38) 
0.67

>  <cluster>  (38) 
3

$$$$

     RDKit          3D

 55 58  0  0  0  0  0  0  0  0999 V2000
  141.4210   72.5350  221.7010 O   0  0  0  0  0  0  0  0  0  0  0  0
  140.4590   72.6410  222.4860 C   0  0  0  0  0  0  0  0  0  0  0  0
  139.5300   73.7090  222.3490 N   0  0  0  0  0  0  0  0  0  0  0  0
  139.6560   74.6930  221.3230 C   0  0  0  0  0  0  0  0  0  0  0  0
  140.7920   75.6220  221.5360 C   0  0  0  0  0  0  0  0  0  0  0  0
  140.9760   76.1890  222.6460 O   0  0  0  0  0  0  0  0  0  0  0  0
  141.6730   75.8560  220.4440 N   0  0  0  0  0  0  0  0  0  0  0  0
  143.0040   75.2550  220.3690 C   0  0  0  0  0  0  0  0  0  0  0  0
  143.1270   74.4130  219.1030 C   0  0  0  0  0  0  0  0  0  0  0  0
  141.8630   74.5930  218.2910 C   0  0  0  0  0  0  0  0  0  0  0  0
  141.6390   76.0640  218.0460 C   0  0  0  0  0  0  0  0  0  0  0  0
  141.2680   76.7110  219.3530 C   0  0  2  0  0  0  0  0  0  0  0  0
  141.8420   78.0770  219.4810 C   0  0  0  0  0  0  0  0  0  0  0  0
  141.2350   79.0410  220.1230 C   0  0  0  0  0  0  0  0  0  0  0  0
  141.4990   79.4090  221.5070 C   0  0  0  0  0  0  0  0  0  0  0  0
  142.5800   80.1750  221.8840 C   0  0  0  0  0  0  0  0  0  0  0  0
  142.8280   80.5230  223.2040 C   0  0  0  0  0  0  0  0  0  0  0  0
  141.9690   80.0940  224.2010 C   0  0  0  0  0  0  0  0  0  0  0  0
  140.8740   79.3220  223.8450 C   0  0  0  0  0  0  0  0  0  0  0  0
  140.6530   78.9900  222.5120 C   0  0  0  0  0  0  0  0  0  0  0  0
  140.2540   71.6710  223.5750 C   0  0  0  0  0  0  0  0  0  0  0  0
  139.5940   70.4830  223.3320 C   0  0  0  0  0  0  0  0  0  0  0  0
  139.4070   69.5810  224.3600 C   0  0  0  0  0  0  0  0  0  0  0  0
  139.8830   69.8830  225.6170 C   0  0  0  0  0  0  0  0  0  0  0  0
  139.7080   68.9880  226.6790 C   0  0  0  0  0  0  0  0  0  0  0  0
  140.1820   69.2780  227.9470 C   0  0  0  0  0  0  0  0  0  0  0  0
  140.0240   68.4250  228.9930 F   0  0  0  0  0  0  0  0  0  0  0  0
  140.8330   70.4760  228.1360 C   0  0  0  0  0  0  0  0  0  0  0  0
  141.0280   71.3890  227.1150 C   0  0  0  0  0  0  0  0  0  0  0  0
  140.5430   71.0710  225.8610 C   0  0  0  0  0  0  0  0  0  0  0  0
  140.6930   71.9070  224.8150 N   0  0  0  0  0  0  0  0  0  0  0  0
  138.7270   73.7550  223.0450 H   0  0  0  0  0  0  0  0  0  0  0  0
  139.8017   74.1782  220.3619 H   0  0  0  0  0  0  0  0  0  0  0  0
  138.7360   75.2959  221.3357 H   0  0  0  0  0  0  0  0  0  0  0  0
  143.7626   76.0514  220.3517 H   0  0  0  0  0  0  0  0  0  0  0  0
  143.1586   74.6106  221.2470 H   0  0  0  0  0  0  0  0  0  0  0  0
  143.9965   74.7461  218.5173 H   0  0  0  0  0  0  0  0  0  0  0  0
  143.2637   73.3530  219.3634 H   0  0  0  0  0  0  0  0  0  0  0  0
  141.9661   74.0708  217.3284 H   0  0  0  0  0  0  0  0  0  0  0  0
  141.0069   74.1743  218.8404 H   0  0  0  0  0  0  0  0  0  0  0  0
  142.5600   76.5200  217.6538 H   0  0  0  0  0  0  0  0  0  0  0  0
  140.8332   76.2068  217.3109 H   0  0  0  0  0  0  0  0  0  0  0  0
  140.1755   76.8349  219.3853 H   0  0  0  0  0  0  0  0  0  0  0  0
  142.8172   78.2850  219.0165 H   0  0  0  0  0  0  0  0  0  0  0  0
  140.4705   79.6149  219.5788 H   0  0  0  0  0  0  0  0  0  0  0  0
  143.2751   80.5251  221.1067 H   0  0  0  0  0  0  0  0  0  0  0  0
  143.7043   81.1377  223.4573 H   0  0  0  0  0  0  0  0  0  0  0  0
  142.1512   80.3598  225.2527 H   0  0  0  0  0  0  0  0  0  0  0  0
  140.1768   78.9704  224.6197 H   0  0  0  0  0  0  0  0  0  0  0  0
  139.7783   78.3756  222.2524 H   0  0  0  0  0  0  0  0  0  0  0  0
  139.2186   70.2562  222.3232 H   0  0  0  0  0  0  0  0  0  0  0  0
  138.8834   68.6310  224.1774 H   0  0  0  0  0  0  0  0  0  0  0  0
  139.1843   68.0369  226.5028 H   0  0  0  0  0  0  0  0  0  0  0  0
  141.2136   70.7172  229.1395 H   0  0  0  0  0  0  0  0  0  0  0  0
  141.5529   72.3386  227.2960 H   0  0  0  0  0  0  0  0  0  0  0  0
  1  2  2  0
  2  3  1  0
  3  4  1  0
  4  5  1  0
  5  6  2  0
  5  7  1  0
  7  8  1  0
  8  9  1  0
  9 10  1  0
 10 11  1  0
 11 12  1  0
 12 13  1  0
 13 14  2  0
 14 15  1  0
 15 16  2  0
 16 17  1  0
 17 18  2  0
 18 19  1  0
 19 20  2  0
  2 21  1  0
 21 22  2  0
 22 23  1  0
 23 24  2  0
 24 25  1  0
 25 26  2  0
 26 27  1  0
 26 28  1  0
 28 29  2  0
 29 30  1  0
 30 31  2  0
 12  7  1  0
 20 15  1  0
 31 21  1  0
 30 24  1  0
  3 32  1  0
  4 33  1  0
  4 34  1  0
  8 35  1  0
  8 36  1  0
  9 37  1  0
  9 38  1  0
 10 39  1  0
 10 40  1  0
 11 41  1  0
 11 42  1  0
 12 43  1  6
 13 44  1  0
 14 45  1  0
 16 46  1  0
 17 47  1  0
 18 48  1  0
 19 49  1  0
 20 50  1  0
 22 51  1  0
 23 52  1  0
 25 53  1  0
 28 54  1  0
 29 55  1  0
M  END
>  <smiles>  (39) 
O=C(NCC(=O)N1CCCCC1/C=C/c1ccccc1)c1ccc2cc(F)ccc2n1

>  <score_type>  (39) 
oracle

>  <origin>  (39) 
autodockgpu

>  <m_score__min__energy>  (39) 
-9.1600000000000001

>  <m_primary>  (39) 
energy

>  <rmsd>  (39) 
2.185100563334867

>  <m_score__min__rmsd>  (39) 
2.185100563334867

>  <meeko>  (39) 
{"free_energy": -8.71, "intermolecular_energy": -10.79, "internal_energy": -1.81, "cluster_size": 23, "cluster_id": 1, "rank_in_cluster": 14}

>  <energy>  (39) 
-7.65

>  <cluster_rmsd>  (39) 
0.85

>  <cluster>  (39) 
3

$$$$

     RDKit          3D

 55 58  0  0  0  0  0  0  0  0999 V2000
  141.7190   72.1280  221.2470 O   0  0  0  0  0  0  0  0  0  0  0  0
  140.9710   72.9790  221.7650 C   0  0  0  0  0  0  0  0  0  0  0  0
  139.9320   72.5830  222.6530 N   0  0  0  0  0  0  0  0  0  0  0  0
  139.7040   71.2140  222.9850 C   0  0  0  0  0  0  0  0  0  0  0  0
  138.2980   70.9270  223.3570 C   0  0  0  0  0  0  0  0  0  0  0  0
  137.4590   71.8530  223.5120 O   0  0  0  0  0  0  0  0  0  0  0  0
  137.9230   69.5660  223.5350 N   0  0  0  0  0  0  0  0  0  0  0  0
  136.5420   69.1080  223.3860 C   0  0  0  0  0  0  0  0  0  0  0  0
  136.4600   68.0380  222.3020 C   0  0  0  0  0  0  0  0  0  0  0  0
  137.8670   67.7250  221.8390 C   0  0  0  0  0  0  0  0  0  0  0  0
  138.7060   67.3450  223.0330 C   0  0  0  0  0  0  0  0  0  0  0  0
  138.9180   68.5760  223.8730 C   0  0  2  0  0  0  0  0  0  0  0  0
  138.9120   68.2640  225.3280 C   0  0  0  0  0  0  0  0  0  0  0  0
  139.9440   68.4830  226.1010 C   0  0  0  0  0  0  0  0  0  0  0  0
  140.3260   69.7890  226.6190 C   0  0  0  0  0  0  0  0  0  0  0  0
  139.9580   70.2350  227.8700 C   0  0  0  0  0  0  0  0  0  0  0  0
  140.3250   71.4810  228.3590 C   0  0  0  0  0  0  0  0  0  0  0  0
  141.0910   72.3280  227.5770 C   0  0  0  0  0  0  0  0  0  0  0  0
  141.4730   71.9010  226.3160 C   0  0  0  0  0  0  0  0  0  0  0  0
  141.0890   70.6460  225.8540 C   0  0  0  0  0  0  0  0  0  0  0  0
  141.1340   74.4150  221.4770 C   0  0  0  0  0  0  0  0  0  0  0  0
  142.0240   74.8310  220.5080 C   0  0  0  0  0  0  0  0  0  0  0  0
  142.1700   76.1790  220.2450 C   0  0  0  0  0  0  0  0  0  0  0  0
  141.4220   77.0900  220.9600 C   0  0  0  0  0  0  0  0  0  0  0  0
  141.5480   78.4620  220.7160 C   0  0  0  0  0  0  0  0  0  0  0  0
  140.8030   79.3880  221.4260 C   0  0  0  0  0  0  0  0  0  0  0  0
  140.9080   80.7250  221.2070 F   0  0  0  0  0  0  0  0  0  0  0  0
  139.9290   78.9200  222.3810 C   0  0  0  0  0  0  0  0  0  0  0  0
  139.7730   77.5720  222.6540 C   0  0  0  0  0  0  0  0  0  0  0  0
  140.5310   76.6740  221.9290 C   0  0  0  0  0  0  0  0  0  0  0  0
  140.4370   75.3440  222.1360 N   0  0  0  0  0  0  0  0  0  0  0  0
  139.3210   73.3480  223.0680 H   0  0  0  0  0  0  0  0  0  0  0  0
  139.9682   70.5951  222.1149 H   0  0  0  0  0  0  0  0  0  0  0  0
  140.3265   70.9835  223.8621 H   0  0  0  0  0  0  0  0  0  0  0  0
  136.1932   68.6868  224.3404 H   0  0  0  0  0  0  0  0  0  0  0  0
  135.9083   69.9604  223.0999 H   0  0  0  0  0  0  0  0  0  0  0  0
  135.9915   67.1301  222.7096 H   0  0  0  0  0  0  0  0  0  0  0  0
  135.8534   68.3979  221.4579 H   0  0  0  0  0  0  0  0  0  0  0  0
  137.8424   66.8887  221.1249 H   0  0  0  0  0  0  0  0  0  0  0  0
  138.3006   68.6083  221.3473 H   0  0  0  0  0  0  0  0  0  0  0  0
  138.1857   66.5767  223.6238 H   0  0  0  0  0  0  0  0  0  0  0  0
  139.6741   66.9404  222.7026 H   0  0  0  0  0  0  0  0  0  0  0  0
  139.9150   68.9845  223.6511 H   0  0  0  0  0  0  0  0  0  0  0  0
  138.0028   67.8317  225.7713 H   0  0  0  0  0  0  0  0  0  0  0  0
  140.5670   67.6202  226.3792 H   0  0  0  0  0  0  0  0  0  0  0  0
  139.3487   69.5768  228.5068 H   0  0  0  0  0  0  0  0  0  0  0  0
  140.0081   71.7943  229.3647 H   0  0  0  0  0  0  0  0  0  0  0  0
  141.3900   73.3191  227.9490 H   0  0  0  0  0  0  0  0  0  0  0  0
  142.0826   72.5569  225.6770 H   0  0  0  0  0  0  0  0  0  0  0  0
  141.4033   70.3280  224.8490 H   0  0  0  0  0  0  0  0  0  0  0  0
  142.6149   74.0919  219.9472 H   0  0  0  0  0  0  0  0  0  0  0  0
  142.8753   76.5219  219.4736 H   0  0  0  0  0  0  0  0  0  0  0  0
  142.2518   78.8112  219.9461 H   0  0  0  0  0  0  0  0  0  0  0  0
  139.3305   79.6465  222.9501 H   0  0  0  0  0  0  0  0  0  0  0  0
  139.0674   77.2270  223.4242 H   0  0  0  0  0  0  0  0  0  0  0  0
  1  2  2  0
  2  3  1  0
  3  4  1  0
  4  5  1  0
  5  6  2  0
  5  7  1  0
  7  8  1  0
  8  9  1  0
  9 10  1  0
 10 11  1  0
 11 12  1  0
 12 13  1  0
 13 14  2  0
 14 15  1  0
 15 16  2  0
 16 17  1  0
 17 18  2  0
 18 19  1  0
 19 20  2  0
  2 21  1  0
 21 22  2  0
 22 23  1  0
 23 24  2  0
 24 25  1  0
 25 26  2  0
 26 27  1  0
 26 28  1  0
 28 29  2  0
 29 30  1  0
 30 31  2  0
 12  7  1  0
 20 15  1  0
 31 21  1  0
 30 24  1  0
  3 32  1  0
  4 33  1  0
  4 34  1  0
  8 35  1  0
  8 36  1  0
  9 37  1  0
  9 38  1  0
 10 39  1  0
 10 40  1  0
 11 41  1  0
 11 42  1  0
 12 43  1  6
 13 44  1  0
 14 45  1  0
 16 46  1  0
 17 47  1  0
 18 48  1  0
 19 49  1  0
 20 50  1  0
 22 51  1  0
 23 52  1  0
 25 53  1  0
 28 54  1  0
 29 55  1  0
M  END
>  <smiles>  (40) 
O=C(NCC(=O)N1CCCCC1/C=C/c1ccccc1)c1ccc2cc(F)ccc2n1

>  <score_type>  (40) 
oracle

>  <origin>  (40) 
autodockgpu

>  <m_score__min__energy>  (40) 
-9.1600000000000001

>  <m_primary>  (40) 
energy

>  <rmsd>  (40) 
8.598823167742445

>  <m_score__min__rmsd>  (40) 
8.598823167742445

>  <meeko>  (40) 
{"free_energy": -8.56, "intermolecular_energy": -10.65, "internal_energy": -2.37, "cluster_size": 5, "cluster_id": 4, "rank_in_cluster": 1}

>  <energy>  (40) 
-8.56

>  <cluster_rmsd>  (40) 
0.0

>  <cluster>  (40) 
4

$$$$

     RDKit          3D

 55 58  0  0  0  0  0  0  0  0999 V2000
  139.6560   71.2910  220.8870 O   0  0  0  0  0  0  0  0  0  0  0  0
  139.5530   71.8420  221.9990 C   0  0  0  0  0  0  0  0  0  0  0  0
  139.3110   73.2400  222.0930 N   0  0  0  0  0  0  0  0  0  0  0  0
  139.1780   74.0630  220.9330 C   0  0  0  0  0  0  0  0  0  0  0  0
  140.4210   74.1480  220.1290 C   0  0  0  0  0  0  0  0  0  0  0  0
  140.6170   73.3910  219.1420 O   0  0  0  0  0  0  0  0  0  0  0  0
  141.3930   75.1160  220.5100 N   0  0  0  0  0  0  0  0  0  0  0  0
  142.8130   74.7930  220.6320 C   0  0  0  0  0  0  0  0  0  0  0  0
  143.6330   75.6760  219.6970 C   0  0  0  0  0  0  0  0  0  0  0  0
  142.6970   76.6780  219.0530 C   0  0  0  0  0  0  0  0  0  0  0  0
  141.9560   77.4250  220.1320 C   0  0  0  0  0  0  0  0  0  0  0  0
  140.9930   76.4750  220.7910 C   0  0  2  0  0  0  0  0  0  0  0  0
  140.8780   76.7240  222.2530 C   0  0  0  0  0  0  0  0  0  0  0  0
  140.2780   77.7770  222.7450 C   0  0  0  0  0  0  0  0  0  0  0  0
  140.9310   79.0490  223.0190 C   0  0  0  0  0  0  0  0  0  0  0  0
  140.3420   80.2650  222.7520 C   0  0  0  0  0  0  0  0  0  0  0  0
  140.9680   81.4750  223.0150 C   0  0  0  0  0  0  0  0  0  0  0  0
  142.2380   81.4860  223.5660 C   0  0  0  0  0  0  0  0  0  0  0  0
  142.8510   80.2740  223.8430 C   0  0  0  0  0  0  0  0  0  0  0  0
  142.1960   79.0780  223.5680 C   0  0  0  0  0  0  0  0  0  0  0  0
  139.6770   71.0690  223.2480 C   0  0  0  0  0  0  0  0  0  0  0  0
  139.2180   69.7690  223.3090 C   0  0  0  0  0  0  0  0  0  0  0  0
  139.3400   69.0540  224.4830 C   0  0  0  0  0  0  0  0  0  0  0  0
  139.9190   69.6530  225.5810 C   0  0  0  0  0  0  0  0  0  0  0  0
  140.0560   68.9540  226.7850 C   0  0  0  0  0  0  0  0  0  0  0  0
  140.6360   69.5430  227.8950 C   0  0  0  0  0  0  0  0  0  0  0  0
  140.7800   68.8840  229.0740 F   0  0  0  0  0  0  0  0  0  0  0  0
  141.0780   70.8420  227.7810 C   0  0  0  0  0  0  0  0  0  0  0  0
  140.9630   71.5700  226.6100 C   0  0  0  0  0  0  0  0  0  0  0  0
  140.3790   70.9540  225.5210 C   0  0  0  0  0  0  0  0  0  0  0  0
  140.2300   71.5960  224.3440 N   0  0  0  0  0  0  0  0  0  0  0  0
  139.2310   73.6630  223.0660 H   0  0  0  0  0  0  0  0  0  0  0  0
  138.3802   73.6477  220.2997 H   0  0  0  0  0  0  0  0  0  0  0  0
  138.9441   75.0803  221.2801 H   0  0  0  0  0  0  0  0  0  0  0  0
  143.1369   74.9622  221.6695 H   0  0  0  0  0  0  0  0  0  0  0  0
  142.9674   73.7386  220.3593 H   0  0  0  0  0  0  0  0  0  0  0  0
  144.4089   76.2054  220.2695 H   0  0  0  0  0  0  0  0  0  0  0  0
  144.1227   75.0626  218.9263 H   0  0  0  0  0  0  0  0  0  0  0  0
  143.2783   77.3879  218.4463 H   0  0  0  0  0  0  0  0  0  0  0  0
  141.9791   76.1521  218.4065 H   0  0  0  0  0  0  0  0  0  0  0  0
  142.6697   77.8068  220.8769 H   0  0  0  0  0  0  0  0  0  0  0  0
  141.4103   78.2752  219.6969 H   0  0  0  0  0  0  0  0  0  0  0  0
  139.9900   76.6449  220.3725 H   0  0  0  0  0  0  0  0  0  0  0  0
  141.3154   75.9928  222.9487 H   0  0  0  0  0  0  0  0  0  0  0  0
  139.2038   77.6957  222.9675 H   0  0  0  0  0  0  0  0  0  0  0  0
  139.3338   80.2774  222.3122 H   0  0  0  0  0  0  0  0  0  0  0  0
  140.4571   82.4220  222.7866 H   0  0  0  0  0  0  0  0  0  0  0  0
  142.7496   82.4361  223.7794 H   0  0  0  0  0  0  0  0  0  0  0  0
  143.8594   80.2579  224.2821 H   0  0  0  0  0  0  0  0  0  0  0  0
  142.7016   78.1278  223.7949 H   0  0  0  0  0  0  0  0  0  0  0  0
  138.7566   69.3044  222.4251 H   0  0  0  0  0  0  0  0  0  0  0  0
  138.9788   68.0167  224.5419 H   0  0  0  0  0  0  0  0  0  0  0  0
  139.6959   67.9167  226.8507 H   0  0  0  0  0  0  0  0  0  0  0  0
  141.5414   71.3205  228.6564 H   0  0  0  0  0  0  0  0  0  0  0  0
  141.3254   72.6068  226.5486 H   0  0  0  0  0  0  0  0  0  0  0  0
  1  2  2  0
  2  3  1  0
  3  4  1  0
  4  5  1  0
  5  6  2  0
  5  7  1  0
  7  8  1  0
  8  9  1  0
  9 10  1  0
 10 11  1  0
 11 12  1  0
 12 13  1  0
 13 14  2  0
 14 15  1  0
 15 16  2  0
 16 17  1  0
 17 18  2  0
 18 19  1  0
 19 20  2  0
  2 21  1  0
 21 22  2  0
 22 23  1  0
 23 24  2  0
 24 25  1  0
 25 26  2  0
 26 27  1  0
 26 28  1  0
 28 29  2  0
 29 30  1  0
 30 31  2  0
 12  7  1  0
 20 15  1  0
 31 21  1  0
 30 24  1  0
  3 32  1  0
  4 33  1  0
  4 34  1  0
  8 35  1  0
  8 36  1  0
  9 37  1  0
  9 38  1  0
 10 39  1  0
 10 40  1  0
 11 41  1  0
 11 42  1  0
 12 43  1  6
 13 44  1  0
 14 45  1  0
 16 46  1  0
 17 47  1  0
 18 48  1  0
 19 49  1  0
 20 50  1  0
 22 51  1  0
 23 52  1  0
 25 53  1  0
 28 54  1  0
 29 55  1  0
M  END
>  <smiles>  (41) 
O=C(NCC(=O)N1CCCCC1/C=C/c1ccccc1)c1ccc2cc(F)ccc2n1

>  <score_type>  (41) 
oracle

>  <origin>  (41) 
autodockgpu

>  <m_score__min__energy>  (41) 
-9.1600000000000001

>  <m_primary>  (41) 
energy

>  <rmsd>  (41) 
2.1837878385994367

>  <m_score__min__rmsd>  (41) 
2.1837878385994367

>  <meeko>  (41) 
{"free_energy": -8.98, "intermolecular_energy": -11.07, "internal_energy": -1.74, "cluster_size": 23, "cluster_id": 1, "rank_in_cluster": 4}

>  <energy>  (41) 
-8.54

>  <cluster_rmsd>  (41) 
0.21

>  <cluster>  (41) 
4

$$$$

     RDKit          3D

 55 58  0  0  0  0  0  0  0  0999 V2000
  140.4370   71.8770  221.0690 O   0  0  0  0  0  0  0  0  0  0  0  0
  140.0990   72.3090  222.1880 C   0  0  0  0  0  0  0  0  0  0  0  0
  139.7350   73.6730  222.3560 N   0  0  0  0  0  0  0  0  0  0  0  0
  139.7410   74.5960  221.2670 C   0  0  0  0  0  0  0  0  0  0  0  0
  139.5980   76.0090  221.6950 C   0  0  0  0  0  0  0  0  0  0  0  0
  139.0120   76.3130  222.7670 O   0  0  0  0  0  0  0  0  0  0  0  0
  140.1450   77.0160  220.8520 N   0  0  0  0  0  0  0  0  0  0  0  0
  139.3140   77.8410  219.9760 C   0  0  0  0  0  0  0  0  0  0  0  0
  139.4950   79.3160  220.3200 C   0  0  0  0  0  0  0  0  0  0  0  0
  140.5780   79.4260  221.3730 C   0  0  0  0  0  0  0  0  0  0  0  0
  141.8240   78.7410  220.8720 C   0  0  0  0  0  0  0  0  0  0  0  0
  141.5680   77.2580  220.8380 C   0  0  2  0  0  0  0  0  0  0  0  0
  142.2270   76.6070  219.6730 C   0  0  0  0  0  0  0  0  0  0  0  0
  143.4650   76.1870  219.7060 C   0  0  0  0  0  0  0  0  0  0  0  0
  143.8730   74.8430  220.0920 C   0  0  0  0  0  0  0  0  0  0  0  0
  145.1400   74.5480  220.5440 C   0  0  0  0  0  0  0  0  0  0  0  0
  145.5250   73.2660  220.9110 C   0  0  0  0  0  0  0  0  0  0  0  0
  144.6170   72.2250  220.8250 C   0  0  0  0  0  0  0  0  0  0  0  0
  143.3360   72.4980  220.3720 C   0  0  0  0  0  0  0  0  0  0  0  0
  142.9810   73.7950  220.0130 C   0  0  0  0  0  0  0  0  0  0  0  0
  140.0650   71.4260  223.3670 C   0  0  0  0  0  0  0  0  0  0  0  0
  139.5830   70.1370  223.2570 C   0  0  0  0  0  0  0  0  0  0  0  0
  139.5570   69.3180  224.3670 C   0  0  0  0  0  0  0  0  0  0  0  0
  140.0120   69.8030  225.5740 C   0  0  0  0  0  0  0  0  0  0  0  0
  139.9960   68.9970  226.7180 C   0  0  0  0  0  0  0  0  0  0  0  0
  140.4510   69.4710  227.9360 C   0  0  0  0  0  0  0  0  0  0  0  0
  140.4460   68.7070  229.0600 F   0  0  0  0  0  0  0  0  0  0  0  0
  140.9220   70.7640  227.9920 C   0  0  0  0  0  0  0  0  0  0  0  0
  140.9550   71.5950  226.8870 C   0  0  0  0  0  0  0  0  0  0  0  0
  140.4940   71.0920  225.6860 C   0  0  0  0  0  0  0  0  0  0  0  0
  140.4930   71.8390  224.5630 N   0  0  0  0  0  0  0  0  0  0  0  0
  139.4550   73.9910  223.3320 H   0  0  0  0  0  0  0  0  0  0  0  0
  140.6921   74.4900  220.7246 H   0  0  0  0  0  0  0  0  0  0  0  0
  138.8739   74.3581  220.6333 H   0  0  0  0  0  0  0  0  0  0  0  0
  139.6089   77.6724  218.9298 H   0  0  0  0  0  0  0  0  0  0  0  0
  138.2584   77.5652  220.1159 H   0  0  0  0  0  0  0  0  0  0  0  0
  139.7922   79.8746  219.4202 H   0  0  0  0  0  0  0  0  0  0  0  0
  138.5519   79.7366  220.6990 H   0  0  0  0  0  0  0  0  0  0  0  0
  140.7943   80.4864  221.5696 H   0  0  0  0  0  0  0  0  0  0  0  0
  140.2402   78.9468  222.3037 H   0  0  0  0  0  0  0  0  0  0  0  0
  142.0645   79.1001  219.8604 H   0  0  0  0  0  0  0  0  0  0  0  0
  142.6718   78.9637  221.5366 H   0  0  0  0  0  0  0  0  0  0  0  0
  142.0138   76.8036  221.7351 H   0  0  0  0  0  0  0  0  0  0  0  0
  141.6492   76.4737  218.7465 H   0  0  0  0  0  0  0  0  0  0  0  0
  144.2540   76.8990  219.4222 H   0  0  0  0  0  0  0  0  0  0  0  0
  145.8768   75.3615  220.6172 H   0  0  0  0  0  0  0  0  0  0  0  0
  146.5480   73.0780  221.2689 H   0  0  0  0  0  0  0  0  0  0  0  0
  144.9060   71.2027  221.1101 H   0  0  0  0  0  0  0  0  0  0  0  0
  142.5971   71.6867  220.2959 H   0  0  0  0  0  0  0  0  0  0  0  0
  141.9589   73.9894  219.6559 H   0  0  0  0  0  0  0  0  0  0  0  0
  139.2208   69.7642  222.2876 H   0  0  0  0  0  0  0  0  0  0  0  0
  139.1771   68.2886  224.2894 H   0  0  0  0  0  0  0  0  0  0  0  0
  139.6147   67.9676  226.6477 H   0  0  0  0  0  0  0  0  0  0  0  0
  141.2867   71.1515  228.9547 H   0  0  0  0  0  0  0  0  0  0  0  0
  141.3363   72.6240  226.9622 H   0  0  0  0  0  0  0  0  0  0  0  0
  1  2  2  0
  2  3  1  0
  3  4  1  0
  4  5  1  0
  5  6  2  0
  5  7  1  0
  7  8  1  0
  8  9  1  0
  9 10  1  0
 10 11  1  0
 11 12  1  0
 12 13  1  0
 13 14  2  0
 14 15  1  0
 15 16  2  0
 16 17  1  0
 17 18  2  0
 18 19  1  0
 19 20  2  0
  2 21  1  0
 21 22  2  0
 22 23  1  0
 23 24  2  0
 24 25  1  0
 25 26  2  0
 26 27  1  0
 26 28  1  0
 28 29  2  0
 29 30  1  0
 30 31  2  0
 12  7  1  0
 20 15  1  0
 31 21  1  0
 30 24  1  0
  3 32  1  0
  4 33  1  0
  4 34  1  0
  8 35  1  0
  8 36  1  0
  9 37  1  0
  9 38  1  0
 10 39  1  0
 10 40  1  0
 11 41  1  0
 11 42  1  0
 12 43  1  1
 13 44  1  0
 14 45  1  0
 16 46  1  0
 17 47  1  0
 18 48  1  0
 19 49  1  0
 20 50  1  0
 22 51  1  0
 23 52  1  0
 25 53  1  0
 28 54  1  0
 29 55  1  0
M  END
>  <smiles>  (42) 
O=C(NCC(=O)N1CCCCC1/C=C/c1ccccc1)c1ccc2cc(F)ccc2n1

>  <score_type>  (42) 
oracle

>  <origin>  (42) 
autodockgpu

>  <m_score__min__energy>  (42) 
-9.1600000000000001

>  <m_primary>  (42) 
energy

>  <rmsd>  (42) 
2.2874974345577908

>  <m_score__min__rmsd>  (42) 
2.2874974345577908

>  <meeko>  (42) 
{"free_energy": -8.37, "intermolecular_energy": -10.45, "internal_energy": -2.29, "cluster_size": 9, "cluster_id": 3, "rank_in_cluster": 3}

>  <energy>  (42) 
-8.43

>  <cluster_rmsd>  (42) 
0.15

>  <cluster>  (42) 
4

$$$$

     RDKit          3D

 55 58  0  0  0  0  0  0  0  0999 V2000
  140.1540   70.7560  221.4840 O   0  0  0  0  0  0  0  0  0  0  0  0
  139.7520   71.4310  222.4510 C   0  0  0  0  0  0  0  0  0  0  0  0
  139.0110   72.6260  222.2400 N   0  0  0  0  0  0  0  0  0  0  0  0
  138.6980   73.0990  220.9300 C   0  0  0  0  0  0  0  0  0  0  0  0
  139.0540   74.5230  220.7200 C   0  0  0  0  0  0  0  0  0  0  0  0
  138.1920   75.3680  220.3600 O   0  0  0  0  0  0  0  0  0  0  0  0
  140.4060   74.9090  220.9390 N   0  0  0  0  0  0  0  0  0  0  0  0
  141.4730   73.9340  221.1550 C   0  0  0  0  0  0  0  0  0  0  0  0
  142.5560   74.0980  220.0930 C   0  0  0  0  0  0  0  0  0  0  0  0
  142.2100   75.3080  219.2510 C   0  0  0  0  0  0  0  0  0  0  0  0
  142.0310   76.5030  220.1530 C   0  0  0  0  0  0  0  0  0  0  0  0
  140.7700   76.3060  220.9520 C   0  0  2  0  0  0  0  0  0  0  0  0
  140.9040   76.8270  222.3400 C   0  0  0  0  0  0  0  0  0  0  0  0
  140.2760   77.8960  222.7570 C   0  0  0  0  0  0  0  0  0  0  0  0
  140.9120   79.1790  223.0210 C   0  0  0  0  0  0  0  0  0  0  0  0
  140.4940   80.3550  222.4370 C   0  0  0  0  0  0  0  0  0  0  0  0
  141.1020   81.5760  222.6920 C   0  0  0  0  0  0  0  0  0  0  0  0
  142.1760   81.6400  223.5630 C   0  0  0  0  0  0  0  0  0  0  0  0
  142.6140   80.4690  224.1620 C   0  0  0  0  0  0  0  0  0  0  0  0
  141.9820   79.2610  223.8860 C   0  0  0  0  0  0  0  0  0  0  0  0
  140.0300   71.0170  223.8380 C   0  0  0  0  0  0  0  0  0  0  0  0
  140.6750   71.8770  224.7030 C   0  0  0  0  0  0  0  0  0  0  0  0
  140.9310   71.4790  226.0000 C   0  0  0  0  0  0  0  0  0  0  0  0
  140.5380   70.2230  226.4100 C   0  0  0  0  0  0  0  0  0  0  0  0
  140.7840   69.7910  227.7190 C   0  0  0  0  0  0  0  0  0  0  0  0
  140.3950   68.5330  228.1440 C   0  0  0  0  0  0  0  0  0  0  0  0
  140.6230   68.0920  229.4090 F   0  0  0  0  0  0  0  0  0  0  0  0
  139.7550   67.7140  227.2410 C   0  0  0  0  0  0  0  0  0  0  0  0
  139.4920   68.1000  225.9390 C   0  0  0  0  0  0  0  0  0  0  0  0
  139.8930   69.3620  225.5440 C   0  0  0  0  0  0  0  0  0  0  0  0
  139.6740   69.8120  224.2930 N   0  0  0  0  0  0  0  0  0  0  0  0
  138.6910   73.1660  223.0990 H   0  0  0  0  0  0  0  0  0  0  0  0
  139.2486   72.4899  220.1980 H   0  0  0  0  0  0  0  0  0  0  0  0
  137.6085   73.0136  220.8044 H   0  0  0  0  0  0  0  0  0  0  0  0
  141.9132   74.0910  222.1508 H   0  0  0  0  0  0  0  0  0  0  0  0
  141.0529   72.9196  221.0872 H   0  0  0  0  0  0  0  0  0  0  0  0
  143.5327   74.2472  220.5765 H   0  0  0  0  0  0  0  0  0  0  0  0
  142.6109   73.1982  219.4626 H   0  0  0  0  0  0  0  0  0  0  0  0
  143.0233   75.5043  218.5368 H   0  0  0  0  0  0  0  0  0  0  0  0
  141.2786   75.1195  218.6970 H   0  0  0  0  0  0  0  0  0  0  0  0
  142.8922   76.5891  220.8320 H   0  0  0  0  0  0  0  0  0  0  0  0
  141.9612   77.4232  219.5544 H   0  0  0  0  0  0  0  0  0  0  0  0
  139.9630   76.8877  220.4826 H   0  0  0  0  0  0  0  0  0  0  0  0
  141.5579   76.2911  223.0438 H   0  0  0  0  0  0  0  0  0  0  0  0
  139.1907   77.8204  222.9198 H   0  0  0  0  0  0  0  0  0  0  0  0
  139.6435   80.3246  221.7401 H   0  0  0  0  0  0  0  0  0  0  0  0
  140.7319   82.4896  222.2038 H   0  0  0  0  0  0  0  0  0  0  0  0
  142.6711   82.5991  223.7752 H   0  0  0  0  0  0  0  0  0  0  0  0
  143.4650   80.4953  224.8585 H   0  0  0  0  0  0  0  0  0  0  0  0
  142.3468   78.3443  224.3723 H   0  0  0  0  0  0  0  0  0  0  0  0
  140.9840   72.8756  224.3606 H   0  0  0  0  0  0  0  0  0  0  0  0
  141.4431   72.1569  226.6987 H   0  0  0  0  0  0  0  0  0  0  0  0
  141.2959   70.4641  228.4224 H   0  0  0  0  0  0  0  0  0  0  0  0
  139.4401   66.7121  227.5682 H   0  0  0  0  0  0  0  0  0  0  0  0
  138.9794   67.4232  225.2396 H   0  0  0  0  0  0  0  0  0  0  0  0
  1  2  2  0
  2  3  1  0
  3  4  1  0
  4  5  1  0
  5  6  2  0
  5  7  1  0
  7  8  1  0
  8  9  1  0
  9 10  1  0
 10 11  1  0
 11 12  1  0
 12 13  1  0
 13 14  2  0
 14 15  1  0
 15 16  2  0
 16 17  1  0
 17 18  2  0
 18 19  1  0
 19 20  2  0
  2 21  1  0
 21 22  2  0
 22 23  1  0
 23 24  2  0
 24 25  1  0
 25 26  2  0
 26 27  1  0
 26 28  1  0
 28 29  2  0
 29 30  1  0
 30 31  2  0
 12  7  1  0
 20 15  1  0
 31 21  1  0
 30 24  1  0
  3 32  1  0
  4 33  1  0
  4 34  1  0
  8 35  1  0
  8 36  1  0
  9 37  1  0
  9 38  1  0
 10 39  1  0
 10 40  1  0
 11 41  1  0
 11 42  1  0
 12 43  1  6
 13 44  1  0
 14 45  1  0
 16 46  1  0
 17 47  1  0
 18 48  1  0
 19 49  1  0
 20 50  1  0
 22 51  1  0
 23 52  1  0
 25 53  1  0
 28 54  1  0
 29 55  1  0
M  END
>  <smiles>  (43) 
O=C(NCC(=O)N1CCCCC1/C=C/c1ccccc1)c1ccc2cc(F)ccc2n1

>  <score_type>  (43) 
oracle

>  <origin>  (43) 
autodockgpu

>  <m_score__min__energy>  (43) 
-9.1600000000000001

>  <m_primary>  (43) 
energy

>  <rmsd>  (43) 
2.971804388111458

>  <m_score__min__rmsd>  (43) 
2.971804388111458

>  <meeko>  (43) 
{"free_energy": -8.87, "intermolecular_energy": -10.96, "internal_energy": -1.51, "cluster_size": 23, "cluster_id": 1, "rank_in_cluster": 10}

>  <energy>  (43) 
-8.33

>  <cluster_rmsd>  (43) 
0.32

>  <cluster>  (43) 
4

$$$$

     RDKit          3D

 55 58  0  0  0  0  0  0  0  0999 V2000
  140.6950   72.4710  221.6040 O   0  0  0  0  0  0  0  0  0  0  0  0
  139.7830   72.3820  222.4480 C   0  0  0  0  0  0  0  0  0  0  0  0
  138.6170   73.1890  222.3400 N   0  0  0  0  0  0  0  0  0  0  0  0
  138.4430   74.1240  221.2750 C   0  0  0  0  0  0  0  0  0  0  0  0
  138.9350   75.4840  221.6030 C   0  0  0  0  0  0  0  0  0  0  0  0
  138.3100   76.2340  222.3990 O   0  0  0  0  0  0  0  0  0  0  0  0
  140.1420   75.9190  220.9870 N   0  0  0  0  0  0  0  0  0  0  0  0
  141.4530   75.7050  221.5960 C   0  0  0  0  0  0  0  0  0  0  0  0
  142.3400   74.8930  220.6570 C   0  0  0  0  0  0  0  0  0  0  0  0
  141.5930   74.6970  219.3550 C   0  0  0  0  0  0  0  0  0  0  0  0
  141.1770   76.0430  218.8170 C   0  0  0  0  0  0  0  0  0  0  0  0
  140.1040   76.5990  219.7140 C   0  0  2  0  0  0  0  0  0  0  0  0
  140.2210   78.0740  219.8730 C   0  0  0  0  0  0  0  0  0  0  0  0
  139.8880   78.6940  220.9760 C   0  0  0  0  0  0  0  0  0  0  0  0
  140.8350   79.2140  221.9510 C   0  0  0  0  0  0  0  0  0  0  0  0
  141.6770   80.2720  221.6860 C   0  0  0  0  0  0  0  0  0  0  0  0
  142.5780   80.7650  222.6190 C   0  0  0  0  0  0  0  0  0  0  0  0
  142.6550   80.1850  223.8740 C   0  0  0  0  0  0  0  0  0  0  0  0
  141.8180   79.1190  224.1630 C   0  0  0  0  0  0  0  0  0  0  0  0
  140.9250   78.6480  223.2060 C   0  0  0  0  0  0  0  0  0  0  0  0
  139.8810   71.4430  223.5790 C   0  0  0  0  0  0  0  0  0  0  0  0
  139.4690   70.1340  223.4340 C   0  0  0  0  0  0  0  0  0  0  0  0
  139.5650   69.2630  224.5000 C   0  0  0  0  0  0  0  0  0  0  0  0
  140.0710   69.7170  225.6990 C   0  0  0  0  0  0  0  0  0  0  0  0
  140.1800   68.8570  226.7980 C   0  0  0  0  0  0  0  0  0  0  0  0
  140.6860   69.3010  228.0080 C   0  0  0  0  0  0  0  0  0  0  0  0
  140.8020   68.4850  229.0880 F   0  0  0  0  0  0  0  0  0  0  0  0
  141.0830   70.6160  228.1000 C   0  0  0  0  0  0  0  0  0  0  0  0
  140.9930   71.4990  227.0390 C   0  0  0  0  0  0  0  0  0  0  0  0
  140.4830   71.0270  225.8460 C   0  0  0  0  0  0  0  0  0  0  0  0
  140.3620   71.8250  224.7650 N   0  0  0  0  0  0  0  0  0  0  0  0
  137.8680   73.0750  223.0860 H   0  0  0  0  0  0  0  0  0  0  0  0
  138.9914   73.7570  220.3949 H   0  0  0  0  0  0  0  0  0  0  0  0
  137.3625   74.2050  221.0855 H   0  0  0  0  0  0  0  0  0  0  0  0
  141.9262   76.6783  221.7927 H   0  0  0  0  0  0  0  0  0  0  0  0
  141.3265   75.1533  222.5392 H   0  0  0  0  0  0  0  0  0  0  0  0
  143.2790   75.4347  220.4700 H   0  0  0  0  0  0  0  0  0  0  0  0
  142.5807   73.9190  221.1081 H   0  0  0  0  0  0  0  0  0  0  0  0
  142.2474   74.1956  218.6268 H   0  0  0  0  0  0  0  0  0  0  0  0
  140.7019   74.0761  219.5290 H   0  0  0  0  0  0  0  0  0  0  0  0
  142.0418   76.7227  218.8060 H   0  0  0  0  0  0  0  0  0  0  0  0
  140.7967   75.9397  217.7900 H   0  0  0  0  0  0  0  0  0  0  0  0
  139.1257   76.4187  219.2444 H   0  0  0  0  0  0  0  0  0  0  0  0
  140.6029   78.6671  219.0290 H   0  0  0  0  0  0  0  0  0  0  0  0
  138.8161   78.8320  221.1809 H   0  0  0  0  0  0  0  0  0  0  0  0
  141.6331   80.7453  220.6940 H   0  0  0  0  0  0  0  0  0  0  0  0
  143.2290   81.6138  222.3625 H   0  0  0  0  0  0  0  0  0  0  0  0
  143.3648   80.5620  224.6250 H   0  0  0  0  0  0  0  0  0  0  0  0
  141.8599   78.6431  225.1538 H   0  0  0  0  0  0  0  0  0  0  0  0
  140.2716   77.7995  223.4572 H   0  0  0  0  0  0  0  0  0  0  0  0
  139.0653   69.7860  222.4718 H   0  0  0  0  0  0  0  0  0  0  0  0
  139.2411   68.2171  224.3939 H   0  0  0  0  0  0  0  0  0  0  0  0
  139.8580   67.8099  226.6987 H   0  0  0  0  0  0  0  0  0  0  0  0
  141.4882   70.9793  229.0560 H   0  0  0  0  0  0  0  0  0  0  0  0
  141.3177   72.5449  227.1426 H   0  0  0  0  0  0  0  0  0  0  0  0
  1  2  2  0
  2  3  1  0
  3  4  1  0
  4  5  1  0
  5  6  2  0
  5  7  1  0
  7  8  1  0
  8  9  1  0
  9 10  1  0
 10 11  1  0
 11 12  1  0
 12 13  1  0
 13 14  2  0
 14 15  1  0
 15 16  2  0
 16 17  1  0
 17 18  2  0
 18 19  1  0
 19 20  2  0
  2 21  1  0
 21 22  2  0
 22 23  1  0
 23 24  2  0
 24 25  1  0
 25 26  2  0
 26 27  1  0
 26 28  1  0
 28 29  2  0
 29 30  1  0
 30 31  2  0
 12  7  1  0
 20 15  1  0
 31 21  1  0
 30 24  1  0
  3 32  1  0
  4 33  1  0
  4 34  1  0
  8 35  1  0
  8 36  1  0
  9 37  1  0
  9 38  1  0
 10 39  1  0
 10 40  1  0
 11 41  1  0
 11 42  1  0
 12 43  1  6
 13 44  1  0
 14 45  1  0
 16 46  1  0
 17 47  1  0
 18 48  1  0
 19 49  1  0
 20 50  1  0
 22 51  1  0
 23 52  1  0
 25 53  1  0
 28 54  1  0
 29 55  1  0
M  END
>  <smiles>  (44) 
O=C(NCC(=O)N1CCCCC1/C=C/c1ccccc1)c1ccc2cc(F)ccc2n1

>  <score_type>  (44) 
oracle

>  <origin>  (44) 
autodockgpu

>  <m_score__min__energy>  (44) 
-9.1600000000000001

>  <m_primary>  (44) 
energy

>  <rmsd>  (44) 
2.038720675647854

>  <m_score__min__rmsd>  (44) 
2.038720675647854

>  <meeko>  (44) 
{"free_energy": -8.41, "intermolecular_energy": -10.5, "internal_energy": -1.96, "cluster_size": 23, "cluster_id": 1, "rank_in_cluster": 23}

>  <energy>  (44) 
-8.03

>  <cluster_rmsd>  (44) 
0.54

>  <cluster>  (44) 
4

$$$$

     RDKit          3D

 55 58  0  0  0  0  0  0  0  0999 V2000
  141.4660   72.2430  221.5820 O   0  0  0  0  0  0  0  0  0  0  0  0
  140.5870   72.4800  222.4320 C   0  0  0  0  0  0  0  0  0  0  0  0
  139.7790   73.6460  222.3300 N   0  0  0  0  0  0  0  0  0  0  0  0
  139.9380   74.5840  221.2650 C   0  0  0  0  0  0  0  0  0  0  0  0
  139.4160   75.9330  221.5900 C   0  0  0  0  0  0  0  0  0  0  0  0
  138.4540   76.0900  222.3870 O   0  0  0  0  0  0  0  0  0  0  0  0
  140.0390   77.0520  220.9700 N   0  0  0  0  0  0  0  0  0  0  0  0
  139.2750   78.0910  220.2810 C   0  0  0  0  0  0  0  0  0  0  0  0
  139.5470   79.4500  220.9180 C   0  0  0  0  0  0  0  0  0  0  0  0
  140.6200   79.2710  221.9710 C   0  0  0  0  0  0  0  0  0  0  0  0
  141.8260   78.6220  221.3410 C   0  0  0  0  0  0  0  0  0  0  0  0
  141.4750   77.1970  221.0060 C   0  0  2  0  0  0  0  0  0  0  0  0
  142.1050   76.7530  219.7330 C   0  0  0  0  0  0  0  0  0  0  0  0
  143.3500   76.3580  219.6610 C   0  0  0  0  0  0  0  0  0  0  0  0
  143.7960   74.9870  219.8680 C   0  0  0  0  0  0  0  0  0  0  0  0
  144.9410   74.6710  220.5650 C   0  0  0  0  0  0  0  0  0  0  0  0
  145.3620   73.3630  220.7600 C   0  0  0  0  0  0  0  0  0  0  0  0
  144.6180   72.3170  220.2410 C   0  0  0  0  0  0  0  0  0  0  0  0
  143.4620   72.6110  219.5360 C   0  0  0  0  0  0  0  0  0  0  0  0
  143.0670   73.9340  219.3590 C   0  0  0  0  0  0  0  0  0  0  0  0
  140.3550   71.5660  223.5650 C   0  0  0  0  0  0  0  0  0  0  0  0
  139.6980   70.3690  223.3680 C   0  0  0  0  0  0  0  0  0  0  0  0
  139.4870   69.5200  224.4360 C   0  0  0  0  0  0  0  0  0  0  0  0
  139.9360   69.8850  225.6870 C   0  0  0  0  0  0  0  0  0  0  0  0
  139.7360   69.0450  226.7890 C   0  0  0  0  0  0  0  0  0  0  0  0
  140.1830   69.3990  228.0500 C   0  0  0  0  0  0  0  0  0  0  0  0
  140.0000   68.6010  229.1340 F   0  0  0  0  0  0  0  0  0  0  0  0
  140.8330   70.6040  228.1920 C   0  0  0  0  0  0  0  0  0  0  0  0
  141.0520   71.4640  227.1300 C   0  0  0  0  0  0  0  0  0  0  0  0
  140.5940   71.0830  225.8840 C   0  0  0  0  0  0  0  0  0  0  0  0
  140.7680   71.8650  224.8000 N   0  0  0  0  0  0  0  0  0  0  0  0
  139.0430   73.8020  223.0820 H   0  0  0  0  0  0  0  0  0  0  0  0
  141.0098   74.6707  221.0330 H   0  0  0  0  0  0  0  0  0  0  0  0
  139.3583   74.2074  220.4094 H   0  0  0  0  0  0  0  0  0  0  0  0
  139.5719   78.1194  219.2222 H   0  0  0  0  0  0  0  0  0  0  0  0
  138.2019   77.8631  220.3625 H   0  0  0  0  0  0  0  0  0  0  0  0
  139.8923   80.1587  220.1509 H   0  0  0  0  0  0  0  0  0  0  0  0
  138.6283   79.8471  221.3745 H   0  0  0  0  0  0  0  0  0  0  0  0
  140.9016   80.2523  222.3805 H   0  0  0  0  0  0  0  0  0  0  0  0
  140.2392   78.6351  222.7838 H   0  0  0  0  0  0  0  0  0  0  0  0
  142.1026   79.1624  220.4237 H   0  0  0  0  0  0  0  0  0  0  0  0
  142.6777   78.6490  222.0367 H   0  0  0  0  0  0  0  0  0  0  0  0
  141.8791   76.5423  221.7922 H   0  0  0  0  0  0  0  0  0  0  0  0
  141.4990   76.7571  218.8150 H   0  0  0  0  0  0  0  0  0  0  0  0
  144.1138   77.1145  219.4277 H   0  0  0  0  0  0  0  0  0  0  0  0
  145.5463   75.4883  220.9841 H   0  0  0  0  0  0  0  0  0  0  0  0
  146.2834   73.1581  221.3248 H   0  0  0  0  0  0  0  0  0  0  0  0
  144.9379   71.2745  220.3853 H   0  0  0  0  0  0  0  0  0  0  0  0
  142.8545   71.7964  219.1148 H   0  0  0  0  0  0  0  0  0  0  0  0
  142.1458   74.1452  218.7962 H   0  0  0  0  0  0  0  0  0  0  0  0
  139.3437   70.0922  222.3641 H   0  0  0  0  0  0  0  0  0  0  0  0
  138.9660   68.5623  224.2901 H   0  0  0  0  0  0  0  0  0  0  0  0
  139.2143   68.0866  226.6501 H   0  0  0  0  0  0  0  0  0  0  0  0
  141.1929   70.8952  229.1898 H   0  0  0  0  0  0  0  0  0  0  0  0
  141.5746   72.4212  227.2738 H   0  0  0  0  0  0  0  0  0  0  0  0
  1  2  2  0
  2  3  1  0
  3  4  1  0
  4  5  1  0
  5  6  2  0
  5  7  1  0
  7  8  1  0
  8  9  1  0
  9 10  1  0
 10 11  1  0
 11 12  1  0
 12 13  1  0
 13 14  2  0
 14 15  1  0
 15 16  2  0
 16 17  1  0
 17 18  2  0
 18 19  1  0
 19 20  2  0
  2 21  1  0
 21 22  2  0
 22 23  1  0
 23 24  2  0
 24 25  1  0
 25 26  2  0
 26 27  1  0
 26 28  1  0
 28 29  2  0
 29 30  1  0
 30 31  2  0
 12  7  1  0
 20 15  1  0
 31 21  1  0
 30 24  1  0
  3 32  1  0
  4 33  1  0
  4 34  1  0
  8 35  1  0
  8 36  1  0
  9 37  1  0
  9 38  1  0
 10 39  1  0
 10 40  1  0
 11 41  1  0
 11 42  1  0
 12 43  1  1
 13 44  1  0
 14 45  1  0
 16 46  1  0
 17 47  1  0
 18 48  1  0
 19 49  1  0
 20 50  1  0
 22 51  1  0
 23 52  1  0
 25 53  1  0
 28 54  1  0
 29 55  1  0
M  END
>  <smiles>  (45) 
O=C(NCC(=O)N1CCCCC1/C=C/c1ccccc1)c1ccc2cc(F)ccc2n1

>  <score_type>  (45) 
oracle

>  <origin>  (45) 
autodockgpu

>  <m_score__min__energy>  (45) 
-9.1600000000000001

>  <m_primary>  (45) 
energy

>  <rmsd>  (45) 
2.55410543010394

>  <m_score__min__rmsd>  (45) 
2.55410543010394

>  <meeko>  (45) 
{"free_energy": -8.46, "intermolecular_energy": -10.55, "internal_energy": -2.11, "cluster_size": 9, "cluster_id": 3, "rank_in_cluster": 2}

>  <energy>  (45) 
-8.39

>  <cluster_rmsd>  (45) 
0.0

>  <cluster>  (45) 
5

$$$$

     RDKit          3D

 55 58  0  0  0  0  0  0  0  0999 V2000
  139.5650   70.8290  221.2400 O   0  0  0  0  0  0  0  0  0  0  0  0
  139.6290   71.3600  222.3650 C   0  0  0  0  0  0  0  0  0  0  0  0
  139.6610   72.7750  222.4950 N   0  0  0  0  0  0  0  0  0  0  0  0
  139.6230   73.6390  221.3590 C   0  0  0  0  0  0  0  0  0  0  0  0
  140.4180   74.8780  221.5370 C   0  0  0  0  0  0  0  0  0  0  0  0
  140.1120   75.7350  222.4080 O   0  0  0  0  0  0  0  0  0  0  0  0
  141.5440   75.0720  220.6880 N   0  0  0  0  0  0  0  0  0  0  0  0
  142.7830   74.3130  220.8460 C   0  0  0  0  0  0  0  0  0  0  0  0
  143.0970   73.5500  219.5630 C   0  0  0  0  0  0  0  0  0  0  0  0
  142.0760   73.9470  218.5170 C   0  0  0  0  0  0  0  0  0  0  0  0
  142.0770   75.4470  218.3710 C   0  0  0  0  0  0  0  0  0  0  0  0
  141.4920   76.0450  219.6220 C   0  0  2  0  0  0  0  0  0  0  0  0
  142.1690   77.3140  220.0020 C   0  0  0  0  0  0  0  0  0  0  0  0
  141.5160   78.3570  220.4470 C   0  0  0  0  0  0  0  0  0  0  0  0
  141.7540   78.9930  221.7350 C   0  0  0  0  0  0  0  0  0  0  0  0
  141.4660   78.3820  222.9360 C   0  0  0  0  0  0  0  0  0  0  0  0
  141.6950   78.9930  224.1610 C   0  0  0  0  0  0  0  0  0  0  0  0
  142.2310   80.2690  224.2040 C   0  0  0  0  0  0  0  0  0  0  0  0
  142.5280   80.9030  223.0080 C   0  0  0  0  0  0  0  0  0  0  0  0
  142.2870   80.2630  221.7960 C   0  0  0  0  0  0  0  0  0  0  0  0
  139.6740   70.5440  223.5910 C   0  0  0  0  0  0  0  0  0  0  0  0
  139.1860   69.2530  223.5850 C   0  0  0  0  0  0  0  0  0  0  0  0
  139.2330   68.4970  224.7390 C   0  0  0  0  0  0  0  0  0  0  0  0
  139.7680   69.0470  225.8840 C   0  0  0  0  0  0  0  0  0  0  0  0
  139.8290   68.3050  227.0690 C   0  0  0  0  0  0  0  0  0  0  0  0
  140.3640   68.8450  228.2260 C   0  0  0  0  0  0  0  0  0  0  0  0
  140.4340   68.1450  229.3880 F   0  0  0  0  0  0  0  0  0  0  0  0
  140.8380   70.1370  228.1790 C   0  0  0  0  0  0  0  0  0  0  0  0
  140.7980   70.9050  227.0290 C   0  0  0  0  0  0  0  0  0  0  0  0
  140.2570   70.3390  225.8910 C   0  0  0  0  0  0  0  0  0  0  0  0
  140.1810   71.0220  224.7310 N   0  0  0  0  0  0  0  0  0  0  0  0
  139.7170   73.1790  223.4780 H   0  0  0  0  0  0  0  0  0  0  0  0
  140.0191   73.0918  220.4909 H   0  0  0  0  0  0  0  0  0  0  0  0
  138.5754   73.9422  221.2154 H   0  0  0  0  0  0  0  0  0  0  0  0
  143.6081   75.0055  221.0687 H   0  0  0  0  0  0  0  0  0  0  0  0
  142.6634   73.5959  221.6715 H   0  0  0  0  0  0  0  0  0  0  0  0
  144.1078   73.8077  219.2139 H   0  0  0  0  0  0  0  0  0  0  0  0
  143.0546   72.4659  219.7445 H   0  0  0  0  0  0  0  0  0  0  0  0
  142.3357   73.4830  217.5540 H   0  0  0  0  0  0  0  0  0  0  0  0
  141.0770   73.6055  218.8259 H   0  0  0  0  0  0  0  0  0  0  0  0
  143.1075   75.8065  218.2338 H   0  0  0  0  0  0  0  0  0  0  0  0
  141.4804   75.7425  217.4954 H   0  0  0  0  0  0  0  0  0  0  0  0
  140.4410   76.3055  219.4281 H   0  0  0  0  0  0  0  0  0  0  0  0
  143.2628   77.3782  219.9050 H   0  0  0  0  0  0  0  0  0  0  0  0
  140.7325   78.7831  219.8031 H   0  0  0  0  0  0  0  0  0  0  0  0
  141.0373   77.3691  222.9234 H   0  0  0  0  0  0  0  0  0  0  0  0
  141.4514   78.4652  225.0948 H   0  0  0  0  0  0  0  0  0  0  0  0
  142.4170   80.7684  225.1663 H   0  0  0  0  0  0  0  0  0  0  0  0
  142.9560   81.9163  223.0167 H   0  0  0  0  0  0  0  0  0  0  0  0
  142.5289   80.7859  220.8590 H   0  0  0  0  0  0  0  0  0  0  0  0
  138.7611   68.8279  222.6637 H   0  0  0  0  0  0  0  0  0  0  0  0
  138.8476   67.4667  224.7447 H   0  0  0  0  0  0  0  0  0  0  0  0
  139.4450   67.2743  227.0813 H   0  0  0  0  0  0  0  0  0  0  0  0
  141.2656   70.5760  229.0925 H   0  0  0  0  0  0  0  0  0  0  0  0
  141.1851   71.9346  227.0211 H   0  0  0  0  0  0  0  0  0  0  0  0
  1  2  2  0
  2  3  1  0
  3  4  1  0
  4  5  1  0
  5  6  2  0
  5  7  1  0
  7  8  1  0
  8  9  1  0
  9 10  1  0
 10 11  1  0
 11 12  1  0
 12 13  1  0
 13 14  2  0
 14 15  1  0
 15 16  2  0
 16 17  1  0
 17 18  2  0
 18 19  1  0
 19 20  2  0
  2 21  1  0
 21 22  2  0
 22 23  1  0
 23 24  2  0
 24 25  1  0
 25 26  2  0
 26 27  1  0
 26 28  1  0
 28 29  2  0
 29 30  1  0
 30 31  2  0
 12  7  1  0
 20 15  1  0
 31 21  1  0
 30 24  1  0
  3 32  1  0
  4 33  1  0
  4 34  1  0
  8 35  1  0
  8 36  1  0
  9 37  1  0
  9 38  1  0
 10 39  1  0
 10 40  1  0
 11 41  1  0
 11 42  1  0
 12 43  1  6
 13 44  1  0
 14 45  1  0
 16 46  1  0
 17 47  1  0
 18 48  1  0
 19 49  1  0
 20 50  1  0
 22 51  1  0
 23 52  1  0
 25 53  1  0
 28 54  1  0
 29 55  1  0
M  END
>  <smiles>  (46) 
O=C(NCC(=O)N1CCCCC1/C=C/c1ccccc1)c1ccc2cc(F)ccc2n1

>  <score_type>  (46) 
oracle

>  <origin>  (46) 
autodockgpu

>  <m_score__min__energy>  (46) 
-9.1600000000000001

>  <m_primary>  (46) 
energy

>  <rmsd>  (46) 
2.124266913838433

>  <m_score__min__rmsd>  (46) 
2.124266913838433

>  <meeko>  (46) 
{"free_energy": -8.82, "intermolecular_energy": -10.9, "internal_energy": -1.86, "cluster_size": 23, "cluster_id": 1, "rank_in_cluster": 12}

>  <energy>  (46) 
-8.2

>  <cluster_rmsd>  (46) 
1.46

>  <cluster>  (46) 
5

$$$$

     RDKit          3D

 55 58  0  0  0  0  0  0  0  0999 V2000
  139.1440   72.9930  222.6720 O   0  0  0  0  0  0  0  0  0  0  0  0
  139.9920   72.0810  222.7270 C   0  0  0  0  0  0  0  0  0  0  0  0
  140.9800   71.9510  221.7120 N   0  0  0  0  0  0  0  0  0  0  0  0
  141.0440   72.8460  220.6020 C   0  0  0  0  0  0  0  0  0  0  0  0
  141.3820   74.2370  220.9890 C   0  0  0  0  0  0  0  0  0  0  0  0
  140.7710   74.8260  221.9200 O   0  0  0  0  0  0  0  0  0  0  0  0
  142.4230   74.8910  220.2720 N   0  0  0  0  0  0  0  0  0  0  0  0
  143.8340   74.5720  220.4760 C   0  0  0  0  0  0  0  0  0  0  0  0
  144.4620   74.1140  219.1630 C   0  0  0  0  0  0  0  0  0  0  0  0
  143.4300   74.2720  218.0660 C   0  0  0  0  0  0  0  0  0  0  0  0
  142.9310   75.6940  218.0600 C   0  0  0  0  0  0  0  0  0  0  0  0
  142.1060   75.9120  219.3000 C   0  0  2  0  0  0  0  0  0  0  0  0
  142.2890   77.2790  219.8580 C   0  0  0  0  0  0  0  0  0  0  0  0
  141.3900   77.8620  220.6090 C   0  0  0  0  0  0  0  0  0  0  0  0
  141.6920   78.7120  221.7520 C   0  0  0  0  0  0  0  0  0  0  0  0
  141.4920   78.3110  223.0550 C   0  0  0  0  0  0  0  0  0  0  0  0
  141.7810   79.1250  224.1410 C   0  0  0  0  0  0  0  0  0  0  0  0
  142.2910   80.3950  223.9330 C   0  0  0  0  0  0  0  0  0  0  0  0
  142.5000   80.8190  222.6300 C   0  0  0  0  0  0  0  0  0  0  0  0
  142.2010   79.9790  221.5620 C   0  0  0  0  0  0  0  0  0  0  0  0
  139.9980   71.1120  223.8370 C   0  0  0  0  0  0  0  0  0  0  0  0
  139.4870   69.8430  223.6540 C   0  0  0  0  0  0  0  0  0  0  0  0
  139.4980   68.9430  224.7010 C   0  0  0  0  0  0  0  0  0  0  0  0
  140.0190   69.3290  225.9170 C   0  0  0  0  0  0  0  0  0  0  0  0
  140.0430   68.4390  226.9970 C   0  0  0  0  0  0  0  0  0  0  0  0
  140.5650   68.8130  228.2230 C   0  0  0  0  0  0  0  0  0  0  0  0
  140.5990   67.9660  229.2850 F   0  0  0  0  0  0  0  0  0  0  0  0
  141.0620   70.0900  228.3520 C   0  0  0  0  0  0  0  0  0  0  0  0
  141.0580   71.0020  227.3120 C   0  0  0  0  0  0  0  0  0  0  0  0
  140.5300   70.5990  226.1000 C   0  0  0  0  0  0  0  0  0  0  0  0
  140.4900   71.4280  225.0380 N   0  0  0  0  0  0  0  0  0  0  0  0
  141.6800   71.1550  221.8050 H   0  0  0  0  0  0  0  0  0  0  0  0
  141.8116   72.4816  219.9035 H   0  0  0  0  0  0  0  0  0  0  0  0
  140.0442   72.8690  220.1439 H   0  0  0  0  0  0  0  0  0  0  0  0
  144.3608   75.4669  220.8388 H   0  0  0  0  0  0  0  0  0  0  0  0
  143.9173   73.7632  221.2169 H   0  0  0  0  0  0  0  0  0  0  0  0
  145.3440   74.7311  218.9366 H   0  0  0  0  0  0  0  0  0  0  0  0
  144.7789   73.0634  219.2388 H   0  0  0  0  0  0  0  0  0  0  0  0
  143.8874   74.0380  217.0934 H   0  0  0  0  0  0  0  0  0  0  0  0
  142.5899   73.5850  218.2456 H   0  0  0  0  0  0  0  0  0  0  0  0
  143.7848   76.3875  218.0549 H   0  0  0  0  0  0  0  0  0  0  0  0
  142.3215   75.8774  217.1629 H   0  0  0  0  0  0  0  0  0  0  0  0
  141.0421   75.8315  219.0324 H   0  0  0  0  0  0  0  0  0  0  0  0
  143.2181   77.8218  219.6299 H   0  0  0  0  0  0  0  0  0  0  0  0
  140.3313   77.6984  220.3592 H   0  0  0  0  0  0  0  0  0  0  0  0
  141.0871   77.3054  223.2418 H   0  0  0  0  0  0  0  0  0  0  0  0
  141.6053   78.7621  225.1644 H   0  0  0  0  0  0  0  0  0  0  0  0
  142.5252   81.0530  224.7828 H   0  0  0  0  0  0  0  0  0  0  0  0
  142.9041   81.8242  222.4395 H   0  0  0  0  0  0  0  0  0  0  0  0
  142.3758   80.3361  220.5364 H   0  0  0  0  0  0  0  0  0  0  0  0
  139.0727   69.5499  222.6781 H   0  0  0  0  0  0  0  0  0  0  0  0
  139.0951   67.9284  224.5659 H   0  0  0  0  0  0  0  0  0  0  0  0
  139.6396   67.4237  226.8690 H   0  0  0  0  0  0  0  0  0  0  0  0
  141.4795   70.3980  229.3220 H   0  0  0  0  0  0  0  0  0  0  0  0
  141.4624   72.0162  227.4454 H   0  0  0  0  0  0  0  0  0  0  0  0
  1  2  2  0
  2  3  1  0
  3  4  1  0
  4  5  1  0
  5  6  2  0
  5  7  1  0
  7  8  1  0
  8  9  1  0
  9 10  1  0
 10 11  1  0
 11 12  1  0
 12 13  1  0
 13 14  2  0
 14 15  1  0
 15 16  2  0
 16 17  1  0
 17 18  2  0
 18 19  1  0
 19 20  2  0
  2 21  1  0
 21 22  2  0
 22 23  1  0
 23 24  2  0
 24 25  1  0
 25 26  2  0
 26 27  1  0
 26 28  1  0
 28 29  2  0
 29 30  1  0
 30 31  2  0
 12  7  1  0
 20 15  1  0
 31 21  1  0
 30 24  1  0
  3 32  1  0
  4 33  1  0
  4 34  1  0
  8 35  1  0
  8 36  1  0
  9 37  1  0
  9 38  1  0
 10 39  1  0
 10 40  1  0
 11 41  1  0
 11 42  1  0
 12 43  1  6
 13 44  1  0
 14 45  1  0
 16 46  1  0
 17 47  1  0
 18 48  1  0
 19 49  1  0
 20 50  1  0
 22 51  1  0
 23 52  1  0
 25 53  1  0
 28 54  1  0
 29 55  1  0
M  END
>  <smiles>  (47) 
O=C(NCC(=O)N1CCCCC1/C=C/c1ccccc1)c1ccc2cc(F)ccc2n1

>  <score_type>  (47) 
oracle

>  <origin>  (47) 
autodockgpu

>  <m_score__min__energy>  (47) 
-9.1600000000000001

>  <m_primary>  (47) 
energy

>  <rmsd>  (47) 
2.7056426064859136

>  <m_score__min__rmsd>  (47) 
2.7056426064859136

>  <meeko>  (47) 
{"free_energy": -9.16, "intermolecular_energy": -11.25, "internal_energy": -1.34, "cluster_size": 23, "cluster_id": 1, "rank_in_cluster": 1}

>  <energy>  (47) 
-8.22

>  <cluster_rmsd>  (47) 
0.0

>  <cluster>  (47) 
6

$$$$

     RDKit          3D

 55 58  0  0  0  0  0  0  0  0999 V2000
  138.9330   70.5090  221.4930 O   0  0  0  0  0  0  0  0  0  0  0  0
  139.2040   71.0370  222.5880 C   0  0  0  0  0  0  0  0  0  0  0  0
  139.3130   72.4510  222.7010 N   0  0  0  0  0  0  0  0  0  0  0  0
  139.1200   73.3150  221.5810 C   0  0  0  0  0  0  0  0  0  0  0  0
  139.8770   74.5850  221.6830 C   0  0  0  0  0  0  0  0  0  0  0  0
  141.1020   74.5970  221.9750 O   0  0  0  0  0  0  0  0  0  0  0  0
  139.1740   75.7990  221.4400 N   0  0  0  0  0  0  0  0  0  0  0  0
  137.9140   75.8380  220.7010 C   0  0  0  0  0  0  0  0  0  0  0  0
  136.8160   76.4440  221.5710 C   0  0  0  0  0  0  0  0  0  0  0  0
  137.4460   76.9160  222.8640 C   0  0  0  0  0  0  0  0  0  0  0  0
  138.5830   77.8530  222.5460 C   0  0  0  0  0  0  0  0  0  0  0  0
  139.6980   77.0520  221.9290 C   0  0  2  0  0  0  0  0  0  0  0  0
  140.4010   77.8100  220.8590 C   0  0  0  0  0  0  0  0  0  0  0  0
  141.5570   78.3920  221.0480 C   0  0  0  0  0  0  0  0  0  0  0  0
  141.7860   79.4970  221.9680 C   0  0  0  0  0  0  0  0  0  0  0  0
  141.1830   80.7270  221.8230 C   0  0  0  0  0  0  0  0  0  0  0  0
  141.4040   81.7780  222.7020 C   0  0  0  0  0  0  0  0  0  0  0  0
  142.2630   81.6090  223.7740 C   0  0  0  0  0  0  0  0  0  0  0  0
  142.8820   80.3800  223.9390 C   0  0  0  0  0  0  0  0  0  0  0  0
  142.6390   79.3450  223.0410 C   0  0  0  0  0  0  0  0  0  0  0  0
  139.4210   70.2210  223.7960 C   0  0  0  0  0  0  0  0  0  0  0  0
  139.0040   68.9060  223.8290 C   0  0  0  0  0  0  0  0  0  0  0  0
  139.2120   68.1500  224.9650 C   0  0  0  0  0  0  0  0  0  0  0  0
  139.8330   68.7240  226.0530 C   0  0  0  0  0  0  0  0  0  0  0  0
  140.0570   67.9820  227.2190 C   0  0  0  0  0  0  0  0  0  0  0  0
  140.6810   68.5470  228.3190 C   0  0  0  0  0  0  0  0  0  0  0  0
  140.9090   67.8470  229.4600 F   0  0  0  0  0  0  0  0  0  0  0  0
  141.0770   69.8620  228.2330 C   0  0  0  0  0  0  0  0  0  0  0  0
  140.8760   70.6310  227.1010 C   0  0  0  0  0  0  0  0  0  0  0  0
  140.2500   70.0400  226.0210 C   0  0  0  0  0  0  0  0  0  0  0  0
  140.0170   70.7220  224.8810 N   0  0  0  0  0  0  0  0  0  0  0  0
  139.5470   72.8520  223.6580 H   0  0  0  0  0  0  0  0  0  0  0  0
  139.4450   72.7868  220.6725 H   0  0  0  0  0  0  0  0  0  0  0  0
  138.0514   73.5743  221.5499 H   0  0  0  0  0  0  0  0  0  0  0  0
  138.0413   76.4505  219.7963 H   0  0  0  0  0  0  0  0  0  0  0  0
  137.6281   74.8133  220.4212 H   0  0  0  0  0  0  0  0  0  0  0  0
  136.3541   77.2950  221.0491 H   0  0  0  0  0  0  0  0  0  0  0  0
  136.0374   75.6950  221.7780 H   0  0  0  0  0  0  0  0  0  0  0  0
  136.6935   77.4423  223.4697 H   0  0  0  0  0  0  0  0  0  0  0  0
  137.8254   76.0514  223.4284 H   0  0  0  0  0  0  0  0  0  0  0  0
  138.2430   78.6235  221.8384 H   0  0  0  0  0  0  0  0  0  0  0  0
  138.9346   78.3470  223.4638 H   0  0  0  0  0  0  0  0  0  0  0  0
  140.4518   76.8447  222.7028 H   0  0  0  0  0  0  0  0  0  0  0  0
  139.9291   77.8840  219.8681 H   0  0  0  0  0  0  0  0  0  0  0  0
  142.4168   78.0204  220.4712 H   0  0  0  0  0  0  0  0  0  0  0  0
  140.4985   80.8825  220.9761 H   0  0  0  0  0  0  0  0  0  0  0  0
  140.8980   82.7424  222.5472 H   0  0  0  0  0  0  0  0  0  0  0  0
  142.4503   82.4320  224.4795 H   0  0  0  0  0  0  0  0  0  0  0  0
  143.5686   80.2219  224.7837 H   0  0  0  0  0  0  0  0  0  0  0  0
  143.1416   78.3781  223.1913 H   0  0  0  0  0  0  0  0  0  0  0  0
  138.5078   68.4620  222.9534 H   0  0  0  0  0  0  0  0  0  0  0  0
  138.8854   67.1002  225.0014 H   0  0  0  0  0  0  0  0  0  0  0  0
  139.7318   66.9321  227.2623 H   0  0  0  0  0  0  0  0  0  0  0  0
  141.5740   70.3207  229.1005 H   0  0  0  0  0  0  0  0  0  0  0  0
  141.2044   71.6801  227.0621 H   0  0  0  0  0  0  0  0  0  0  0  0
  1  2  2  0
  2  3  1  0
  3  4  1  0
  4  5  1  0
  5  6  2  0
  5  7  1  0
  7  8  1  0
  8  9  1  0
  9 10  1  0
 10 11  1  0
 11 12  1  0
 12 13  1  0
 13 14  2  0
 14 15  1  0
 15 16  2  0
 16 17  1  0
 17 18  2  0
 18 19  1  0
 19 20  2  0
  2 21  1  0
 21 22  2  0
 22 23  1  0
 23 24  2  0
 24 25  1  0
 25 26  2  0
 26 27  1  0
 26 28  1  0
 28 29  2  0
 29 30  1  0
 30 31  2  0
 12  7  1  0
 20 15  1  0
 31 21  1  0
 30 24  1  0
  3 32  1  0
  4 33  1  0
  4 34  1  0
  8 35  1  0
  8 36  1  0
  9 37  1  0
  9 38  1  0
 10 39  1  0
 10 40  1  0
 11 41  1  0
 11 42  1  0
 12 43  1  1
 13 44  1  0
 14 45  1  0
 16 46  1  0
 17 47  1  0
 18 48  1  0
 19 49  1  0
 20 50  1  0
 22 51  1  0
 23 52  1  0
 25 53  1  0
 28 54  1  0
 29 55  1  0
M  END
>  <smiles>  (48) 
O=C(NCC(=O)N1CCCCC1/C=C/c1ccccc1)c1ccc2cc(F)ccc2n1

>  <score_type>  (48) 
oracle

>  <origin>  (48) 
autodockgpu

>  <m_score__min__energy>  (48) 
-9.1600000000000001

>  <m_primary>  (48) 
energy

>  <rmsd>  (48) 
2.554413307564857

>  <m_score__min__rmsd>  (48) 
2.554413307564857

>  <meeko>  (48) 
{"free_energy": -8.97, "intermolecular_energy": -11.06, "internal_energy": -1.74, "cluster_size": 7, "cluster_id": 2, "rank_in_cluster": 1}

>  <energy>  (48) 
-8.1

>  <cluster_rmsd>  (48) 
0.95

>  <cluster>  (48) 
6

$$$$

     RDKit          3D

 55 58  0  0  0  0  0  0  0  0999 V2000
  141.2790   72.5290  221.8320 O   0  0  0  0  0  0  0  0  0  0  0  0
  140.2650   72.4620  222.5520 C   0  0  0  0  0  0  0  0  0  0  0  0
  139.1540   73.3190  222.3170 N   0  0  0  0  0  0  0  0  0  0  0  0
  139.1520   74.2800  221.2610 C   0  0  0  0  0  0  0  0  0  0  0  0
  139.9530   75.4900  221.5670 C   0  0  0  0  0  0  0  0  0  0  0  0
  139.9100   76.0350  222.7010 O   0  0  0  0  0  0  0  0  0  0  0  0
  140.7770   76.0190  220.5340 N   0  0  0  0  0  0  0  0  0  0  0  0
  142.2140   75.7580  220.4670 C   0  0  0  0  0  0  0  0  0  0  0  0
  142.5620   75.0820  219.1450 C   0  0  0  0  0  0  0  0  0  0  0  0
  141.3090   75.0300  218.2970 C   0  0  0  0  0  0  0  0  0  0  0  0
  140.7460   76.4220  218.1610 C   0  0  0  0  0  0  0  0  0  0  0  0
  140.2030   76.8460  219.4990 C   0  0  2  0  0  0  0  0  0  0  0  0
  140.4320   78.2930  219.7600 C   0  0  0  0  0  0  0  0  0  0  0  0
  141.5770   78.7610  220.1850 C   0  0  0  0  0  0  0  0  0  0  0  0
  141.8230   79.2420  221.5370 C   0  0  0  0  0  0  0  0  0  0  0  0
  142.3400   80.4910  221.8030 C   0  0  0  0  0  0  0  0  0  0  0  0
  142.5730   80.9460  223.0930 C   0  0  0  0  0  0  0  0  0  0  0  0
  142.2830   80.1300  224.1730 C   0  0  0  0  0  0  0  0  0  0  0  0
  141.7620   78.8690  223.9290 C   0  0  0  0  0  0  0  0  0  0  0  0
  141.5400   78.4430  222.6230 C   0  0  0  0  0  0  0  0  0  0  0  0
  140.1820   71.5010  223.6660 C   0  0  0  0  0  0  0  0  0  0  0  0
  139.6230   70.2550  223.4680 C   0  0  0  0  0  0  0  0  0  0  0  0
  139.5510   69.3610  224.5170 C   0  0  0  0  0  0  0  0  0  0  0  0
  140.0380   69.7310  225.7520 C   0  0  0  0  0  0  0  0  0  0  0  0
  139.9780   68.8470  226.8360 C   0  0  0  0  0  0  0  0  0  0  0  0
  140.4650   69.2050  228.0810 C   0  0  0  0  0  0  0  0  0  0  0  0
  140.4180   68.3640  229.1470 F   0  0  0  0  0  0  0  0  0  0  0  0
  141.0130   70.4600  228.2260 C   0  0  0  0  0  0  0  0  0  0  0  0
  141.0920   71.3640  227.1820 C   0  0  0  0  0  0  0  0  0  0  0  0
  140.5980   70.9780  225.9520 C   0  0  0  0  0  0  0  0  0  0  0  0
  140.6380   71.8010  224.8850 N   0  0  0  0  0  0  0  0  0  0  0  0
  138.3130   73.2230  222.9610 H   0  0  0  0  0  0  0  0  0  0  0  0
  139.5651   73.8071  220.3579 H   0  0  0  0  0  0  0  0  0  0  0  0
  138.1110   74.6059  221.1192 H   0  0  0  0  0  0  0  0  0  0  0  0
  142.7607   76.7094  220.5443 H   0  0  0  0  0  0  0  0  0  0  0  0
  142.4988   75.0946  221.2969 H   0  0  0  0  0  0  0  0  0  0  0  0
  143.3402   75.6597  218.6247 H   0  0  0  0  0  0  0  0  0  0  0  0
  142.9412   74.0654  219.3260 H   0  0  0  0  0  0  0  0  0  0  0  0
  141.5548   74.6333  217.3009 H   0  0  0  0  0  0  0  0  0  0  0  0
  140.5656   74.3751  218.7749 H   0  0  0  0  0  0  0  0  0  0  0  0
  141.5399   77.1149  217.8454 H   0  0  0  0  0  0  0  0  0  0  0  0
  139.9457   76.4346  217.4064 H   0  0  0  0  0  0  0  0  0  0  0  0
  139.1121   76.7050  219.4952 H   0  0  0  0  0  0  0  0  0  0  0  0
  139.6048   78.9976  219.5885 H   0  0  0  0  0  0  0  0  0  0  0  0
  142.4129   78.7935  219.4707 H   0  0  0  0  0  0  0  0  0  0  0  0
  142.5777   81.1545  220.9584 H   0  0  0  0  0  0  0  0  0  0  0  0
  142.9868   81.9519  223.2569 H   0  0  0  0  0  0  0  0  0  0  0  0
  142.4621   80.4747  225.2021 H   0  0  0  0  0  0  0  0  0  0  0  0
  141.5231   78.2025  224.7709 H   0  0  0  0  0  0  0  0  0  0  0  0
  141.1261   77.4382  222.4527 H   0  0  0  0  0  0  0  0  0  0  0  0
  139.2360   69.9751  222.4771 H   0  0  0  0  0  0  0  0  0  0  0  0
  139.1098   68.3643  224.3690 H   0  0  0  0  0  0  0  0  0  0  0  0
  139.5357   67.8497  226.6956 H   0  0  0  0  0  0  0  0  0  0  0  0
  141.4034   70.7553  229.2111 H   0  0  0  0  0  0  0  0  0  0  0  0
  141.5350   72.3603  227.3274 H   0  0  0  0  0  0  0  0  0  0  0  0
  1  2  2  0
  2  3  1  0
  3  4  1  0
  4  5  1  0
  5  6  2  0
  5  7  1  0
  7  8  1  0
  8  9  1  0
  9 10  1  0
 10 11  1  0
 11 12  1  0
 12 13  1  0
 13 14  2  0
 14 15  1  0
 15 16  2  0
 16 17  1  0
 17 18  2  0
 18 19  1  0
 19 20  2  0
  2 21  1  0
 21 22  2  0
 22 23  1  0
 23 24  2  0
 24 25  1  0
 25 26  2  0
 26 27  1  0
 26 28  1  0
 28 29  2  0
 29 30  1  0
 30 31  2  0
 12  7  1  0
 20 15  1  0
 31 21  1  0
 30 24  1  0
  3 32  1  0
  4 33  1  0
  4 34  1  0
  8 35  1  0
  8 36  1  0
  9 37  1  0
  9 38  1  0
 10 39  1  0
 10 40  1  0
 11 41  1  0
 11 42  1  0
 12 43  1  6
 13 44  1  0
 14 45  1  0
 16 46  1  0
 17 47  1  0
 18 48  1  0
 19 49  1  0
 20 50  1  0
 22 51  1  0
 23 52  1  0
 25 53  1  0
 28 54  1  0
 29 55  1  0
M  END
>  <smiles>  (49) 
O=C(NCC(=O)N1CCCCC1/C=C/c1ccccc1)c1ccc2cc(F)ccc2n1

>  <score_type>  (49) 
oracle

>  <origin>  (49) 
autodockgpu

>  <m_score__min__energy>  (49) 
-9.1600000000000001

>  <m_primary>  (49) 
energy

>  <rmsd>  (49) 
1.9057933692540325

>  <m_score__min__rmsd>  (49) 
1.9057933692540325

>  <meeko>  (49) 
{"free_energy": -8.75, "intermolecular_energy": -10.83, "internal_energy": -1.72, "cluster_size": 23, "cluster_id": 1, "rank_in_cluster": 13}

>  <energy>  (49) 
-7.99

>  <cluster_rmsd>  (49) 
0.98

>  <cluster>  (49) 
6

$$$$

     RDKit          3D

 55 58  0  0  0  0  0  0  0  0999 V2000
  140.4300   72.4550  221.5060 O   0  0  0  0  0  0  0  0  0  0  0  0
  139.5670   72.3660  222.4010 C   0  0  0  0  0  0  0  0  0  0  0  0
  138.3800   73.1470  222.3390 N   0  0  0  0  0  0  0  0  0  0  0  0
  138.1270   74.0540  221.2660 C   0  0  0  0  0  0  0  0  0  0  0  0
  137.9050   75.4490  221.7160 C   0  0  0  0  0  0  0  0  0  0  0  0
  136.7750   75.8370  222.1140 O   0  0  0  0  0  0  0  0  0  0  0  0
  139.0130   76.3410  221.6860 N   0  0  0  0  0  0  0  0  0  0  0  0
  140.2950   76.0180  222.3100 C   0  0  0  0  0  0  0  0  0  0  0  0
  141.4080   76.0510  221.2680 C   0  0  0  0  0  0  0  0  0  0  0  0
  140.8160   76.5350  219.9610 C   0  0  0  0  0  0  0  0  0  0  0  0
  140.1320   77.8590  220.1890 C   0  0  0  0  0  0  0  0  0  0  0  0
  138.9000   77.6180  221.0210 C   0  0  2  0  0  0  0  0  0  0  0  0
  138.6570   78.7220  221.9870 C   0  0  0  0  0  0  0  0  0  0  0  0
  139.3140   78.8340  223.1120 C   0  0  0  0  0  0  0  0  0  0  0  0
  140.5900   79.5200  223.2600 C   0  0  0  0  0  0  0  0  0  0  0  0
  141.7950   78.9340  222.9420 C   0  0  0  0  0  0  0  0  0  0  0  0
  143.0090   79.5920  223.0840 C   0  0  0  0  0  0  0  0  0  0  0  0
  143.0350   80.8900  223.5650 C   0  0  0  0  0  0  0  0  0  0  0  0
  141.8350   81.5000  223.8920 C   0  0  0  0  0  0  0  0  0  0  0  0
  140.6340   80.8130  223.7380 C   0  0  0  0  0  0  0  0  0  0  0  0
  139.7470   71.4570  223.5460 C   0  0  0  0  0  0  0  0  0  0  0  0
  139.4010   70.1250  223.4360 C   0  0  0  0  0  0  0  0  0  0  0  0
  139.5740   69.2820  224.5150 C   0  0  0  0  0  0  0  0  0  0  0  0
  140.0900   69.7850  225.6890 C   0  0  0  0  0  0  0  0  0  0  0  0
  140.2760   68.9540  226.8000 C   0  0  0  0  0  0  0  0  0  0  0  0
  140.7950   69.4470  227.9860 C   0  0  0  0  0  0  0  0  0  0  0  0
  140.9840   68.6600  229.0760 F   0  0  0  0  0  0  0  0  0  0  0  0
  141.1250   70.7830  228.0420 C   0  0  0  0  0  0  0  0  0  0  0  0
  140.9570   71.6390  226.9680 C   0  0  0  0  0  0  0  0  0  0  0  0
  140.4370   71.1170  225.8000 C   0  0  0  0  0  0  0  0  0  0  0  0
  140.2430   71.8860  224.7090 N   0  0  0  0  0  0  0  0  0  0  0  0
  137.6760   73.0350  223.1280 H   0  0  0  0  0  0  0  0  0  0  0  0
  138.9916   74.0401  220.5861 H   0  0  0  0  0  0  0  0  0  0  0  0
  137.2034   73.7214  220.7698 H   0  0  0  0  0  0  0  0  0  0  0  0
  140.5121   76.7545  223.0977 H   0  0  0  0  0  0  0  0  0  0  0  0
  140.2394   75.0095  222.7457 H   0  0  0  0  0  0  0  0  0  0  0  0
  142.2033   76.7376  221.5938 H   0  0  0  0  0  0  0  0  0  0  0  0
  141.8408   75.0477  221.1414 H   0  0  0  0  0  0  0  0  0  0  0  0
  141.6169   76.6576  219.2170 H   0  0  0  0  0  0  0  0  0  0  0  0
  140.0862   75.8001  219.5903 H   0  0  0  0  0  0  0  0  0  0  0  0
  140.8115   78.5421  220.7198 H   0  0  0  0  0  0  0  0  0  0  0  0
  139.8560   78.3136  219.2261 H   0  0  0  0  0  0  0  0  0  0  0  0
  138.0248   77.5962  220.3550 H   0  0  0  0  0  0  0  0  0  0  0  0
  137.8930   79.4756  221.7452 H   0  0  0  0  0  0  0  0  0  0  0  0
  138.8716   78.3779  224.0099 H   0  0  0  0  0  0  0  0  0  0  0  0
  141.7955   77.9025  222.5599 H   0  0  0  0  0  0  0  0  0  0  0  0
  143.9469   79.0840  222.8153 H   0  0  0  0  0  0  0  0  0  0  0  0
  143.9883   81.4255  223.6850 H   0  0  0  0  0  0  0  0  0  0  0  0
  141.8311   82.5312  224.2748 H   0  0  0  0  0  0  0  0  0  0  0  0
  139.6929   81.3159  224.0053 H   0  0  0  0  0  0  0  0  0  0  0  0
  138.9892   69.7373  222.4925 H   0  0  0  0  0  0  0  0  0  0  0  0
  139.3025   68.2188  224.4382 H   0  0  0  0  0  0  0  0  0  0  0  0
  140.0051   67.8902  226.7300 H   0  0  0  0  0  0  0  0  0  0  0  0
  141.5388   71.1857  228.9783 H   0  0  0  0  0  0  0  0  0  0  0  0
  141.2292   72.7022  227.0422 H   0  0  0  0  0  0  0  0  0  0  0  0
  1  2  2  0
  2  3  1  0
  3  4  1  0
  4  5  1  0
  5  6  2  0
  5  7  1  0
  7  8  1  0
  8  9  1  0
  9 10  1  0
 10 11  1  0
 11 12  1  0
 12 13  1  0
 13 14  2  0
 14 15  1  0
 15 16  2  0
 16 17  1  0
 17 18  2  0
 18 19  1  0
 19 20  2  0
  2 21  1  0
 21 22  2  0
 22 23  1  0
 23 24  2  0
 24 25  1  0
 25 26  2  0
 26 27  1  0
 26 28  1  0
 28 29  2  0
 29 30  1  0
 30 31  2  0
 12  7  1  0
 20 15  1  0
 31 21  1  0
 30 24  1  0
  3 32  1  0
  4 33  1  0
  4 34  1  0
  8 35  1  0
  8 36  1  0
  9 37  1  0
  9 38  1  0
 10 39  1  0
 10 40  1  0
 11 41  1  0
 11 42  1  0
 12 43  1  6
 13 44  1  0
 14 45  1  0
 16 46  1  0
 17 47  1  0
 18 48  1  0
 19 49  1  0
 20 50  1  0
 22 51  1  0
 23 52  1  0
 25 53  1  0
 28 54  1  0
 29 55  1  0
M  END
>  <smiles>  (50) 
O=C(NCC(=O)N1CCCCC1/C=C/c1ccccc1)c1ccc2cc(F)ccc2n1

>  <score_type>  (50) 
oracle

>  <origin>  (50) 
autodockgpu

>  <m_score__min__energy>  (50) 
-9.1600000000000001

>  <m_primary>  (50) 
energy

>  <rmsd>  (50) 
2.35465061747426

>  <m_score__min__rmsd>  (50) 
2.35465061747426

>  <meeko>  (50) 
{"free_energy": -8.66, "intermolecular_energy": -10.74, "internal_energy": -1.78, "cluster_size": 7, "cluster_id": 2, "rank_in_cluster": 4}

>  <energy>  (50) 
-7.71

>  <cluster_rmsd>  (50) 
1.62

>  <cluster>  (50) 
6

$$$$

     RDKit          3D

 55 58  0  0  0  0  0  0  0  0999 V2000
  135.5860   71.5930  222.5650 O   0  0  0  0  0  0  0  0  0  0  0  0
  136.0960   72.6650  223.0370 C   0  0  0  0  0  0  0  0  0  0  0  0
  137.3770   73.1320  222.6310 N   0  0  0  0  0  0  0  0  0  0  0  0
  138.1080   72.3530  221.6500 C   0  0  0  0  0  0  0  0  0  0  0  0
  139.1200   71.5030  222.3660 C   0  0  0  0  0  0  0  0  0  0  0  0
  140.2120   72.0070  222.7900 O   0  0  0  0  0  0  0  0  0  0  0  0
  138.8230   70.1240  222.5540 N   0  0  0  0  0  0  0  0  0  0  0  0
  139.3080   69.0800  221.6730 C   0  0  0  0  0  0  0  0  0  0  0  0
  138.2660   68.1020  221.2460 C   0  0  0  0  0  0  0  0  0  0  0  0
  137.3080   67.7300  222.3470 C   0  0  0  0  0  0  0  0  0  0  0  0
  136.8460   68.9230  223.1420 C   0  0  0  0  0  0  0  0  0  0  0  0
  138.0000   69.7400  223.6730 C   0  0  1  0  0  0  0  0  0  0  0  0
  138.7670   68.8390  224.5960 C   0  0  0  0  0  0  0  0  0  0  0  0
  139.9750   69.1710  224.9710 C   0  0  0  0  0  0  0  0  0  0  0  0
  140.2860   70.1000  226.0480 C   0  0  0  0  0  0  0  0  0  0  0  0
  141.1210   71.2040  225.8340 C   0  0  0  0  0  0  0  0  0  0  0  0
  141.4260   72.0920  226.8360 C   0  0  0  0  0  0  0  0  0  0  0  0
  140.9160   71.9260  228.0980 C   0  0  0  0  0  0  0  0  0  0  0  0
  140.0950   70.8530  228.3460 C   0  0  0  0  0  0  0  0  0  0  0  0
  139.7970   69.9710  227.3300 C   0  0  0  0  0  0  0  0  0  0  0  0
  135.3420   73.4490  224.0340 C   0  0  0  0  0  0  0  0  0  0  0  0
  135.5780   74.8080  224.1420 C   0  0  0  0  0  0  0  0  0  0  0  0
  134.9010   75.5800  225.0540 C   0  0  0  0  0  0  0  0  0  0  0  0
  133.9690   74.9930  225.8790 C   0  0  0  0  0  0  0  0  0  0  0  0
  133.3020   75.7740  226.7840 C   0  0  0  0  0  0  0  0  0  0  0  0
  132.3600   75.1820  227.6200 C   0  0  0  0  0  0  0  0  0  0  0  0
  131.6870   75.9530  228.5270 F   0  0  0  0  0  0  0  0  0  0  0  0
  132.1530   73.8430  227.4870 C   0  0  0  0  0  0  0  0  0  0  0  0
  132.8220   73.0490  226.5760 C   0  0  0  0  0  0  0  0  0  0  0  0
  133.7700   73.6370  225.7350 C   0  0  0  0  0  0  0  0  0  0  0  0
  134.4390   72.8940  224.8380 N   0  0  0  0  0  0  0  0  0  0  0  0
  137.7730   74.0150  223.0330 H   0  0  0  0  0  0  0  0  0  0  0  0
  137.4104   71.7090  221.0945 H   0  0  0  0  0  0  0  0  0  0  0  0
  138.6162   73.0241  220.9419 H   0  0  0  0  0  0  0  0  0  0  0  0
  139.7237   69.5553  220.7723 H   0  0  0  0  0  0  0  0  0  0  0  0
  140.0581   68.5116  222.2424 H   0  0  0  0  0  0  0  0  0  0  0  0
  137.6916   68.5436  220.4184 H   0  0  0  0  0  0  0  0  0  0  0  0
  138.7881   67.1818  220.9451 H   0  0  0  0  0  0  0  0  0  0  0  0
  136.4289   67.2434  221.8993 H   0  0  0  0  0  0  0  0  0  0  0  0
  137.8385   67.0563  223.0360 H   0  0  0  0  0  0  0  0  0  0  0  0
  136.2286   69.5624  222.4939 H   0  0  0  0  0  0  0  0  0  0  0  0
  136.2723   68.5513  224.0038 H   0  0  0  0  0  0  0  0  0  0  0  0
  137.6708   70.6454  224.2039 H   0  0  0  0  0  0  0  0  0  0  0  0
  138.3149   67.9030  224.9557 H   0  0  0  0  0  0  0  0  0  0  0  0
  140.8188   68.7145  224.4328 H   0  0  0  0  0  0  0  0  0  0  0  0
  141.5457   71.3647  224.8321 H   0  0  0  0  0  0  0  0  0  0  0  0
  142.0865   72.9457  226.6240 H   0  0  0  0  0  0  0  0  0  0  0  0
  141.1602   72.6401  228.8983 H   0  0  0  0  0  0  0  0  0  0  0  0
  139.6771   70.6984  229.3517 H   0  0  0  0  0  0  0  0  0  0  0  0
  139.1354   69.1211  227.5535 H   0  0  0  0  0  0  0  0  0  0  0  0
  136.3229   75.2796  223.4842 H   0  0  0  0  0  0  0  0  0  0  0  0
  135.1022   76.6592  225.1245 H   0  0  0  0  0  0  0  0  0  0  0  0
  133.5074   76.8527  226.8494 H   0  0  0  0  0  0  0  0  0  0  0  0
  131.4100   73.3658  228.1430 H   0  0  0  0  0  0  0  0  0  0  0  0
  132.6117   71.9711  226.5137 H   0  0  0  0  0  0  0  0  0  0  0  0
  1  2  2  0
  2  3  1  0
  3  4  1  0
  4  5  1  0
  5  6  2  0
  5  7  1  0
  7  8  1  0
  8  9  1  0
  9 10  1  0
 10 11  1  0
 11 12  1  0
 12 13  1  0
 13 14  2  0
 14 15  1  0
 15 16  2  0
 16 17  1  0
 17 18  2  0
 18 19  1  0
 19 20  2  0
  2 21  1  0
 21 22  2  0
 22 23  1  0
 23 24  2  0
 24 25  1  0
 25 26  2  0
 26 27  1  0
 26 28  1  0
 28 29  2  0
 29 30  1  0
 30 31  2  0
 12  7  1  0
 20 15  1  0
 31 21  1  0
 30 24  1  0
  3 32  1  0
  4 33  1  0
  4 34  1  0
  8 35  1  0
  8 36  1  0
  9 37  1  0
  9 38  1  0
 10 39  1  0
 10 40  1  0
 11 41  1  0
 11 42  1  0
 12 43  1  1
 13 44  1  0
 14 45  1  0
 16 46  1  0
 17 47  1  0
 18 48  1  0
 19 49  1  0
 20 50  1  0
 22 51  1  0
 23 52  1  0
 25 53  1  0
 28 54  1  0
 29 55  1  0
M  END
>  <smiles>  (51) 
O=C(NCC(=O)N1CCCCC1/C=C/c1ccccc1)c1ccc2cc(F)ccc2n1

>  <score_type>  (51) 
oracle

>  <origin>  (51) 
autodockgpu

>  <m_score__min__energy>  (51) 
-9.1899999999999995

>  <m_primary>  (51) 
energy

>  <rmsd>  (51) 
7.736650724091373

>  <m_score__min__rmsd>  (51) 
7.736650724091373

>  <meeko>  (51) 
{"free_energy": -7.73, "intermolecular_energy": -9.82, "internal_energy": -1.98, "cluster_size": 1, "cluster_id": 6, "rank_in_cluster": 1}

>  <energy>  (51) 
-9.19

>  <cluster_rmsd>  (51) 
0.0

>  <cluster>  (51) 
1

$$$$

     RDKit          3D

 55 58  0  0  0  0  0  0  0  0999 V2000
  137.0920   76.2410  221.8850 O   0  0  0  0  0  0  0  0  0  0  0  0
  138.3170   76.2230  222.2500 C   0  0  0  0  0  0  0  0  0  0  0  0
  139.0740   75.0190  222.2830 N   0  0  0  0  0  0  0  0  0  0  0  0
  138.4180   73.7890  221.8860 C   0  0  0  0  0  0  0  0  0  0  0  0
  139.2220   72.6260  222.3960 C   0  0  0  0  0  0  0  0  0  0  0  0
  140.4420   72.7750  222.7370 O   0  0  0  0  0  0  0  0  0  0  0  0
  138.5830   71.3570  222.4840 N   0  0  0  0  0  0  0  0  0  0  0  0
  138.3140   70.5220  221.3290 C   0  0  0  0  0  0  0  0  0  0  0  0
  136.9280   69.9730  221.2770 C   0  0  0  0  0  0  0  0  0  0  0  0
  136.4070   69.5360  222.6210 C   0  0  0  0  0  0  0  0  0  0  0  0
  136.7120   70.5300  223.7120 C   0  0  0  0  0  0  0  0  0  0  0  0
  138.1810   70.8730  223.7800 C   0  0  1  0  0  0  0  0  0  0  0  0
  138.9000   69.5970  224.1030 C   0  0  0  0  0  0  0  0  0  0  0  0
  140.0380   69.6380  224.7470 C   0  0  0  0  0  0  0  0  0  0  0  0
  140.2720   70.3790  225.9780 C   0  0  0  0  0  0  0  0  0  0  0  0
  141.0570   71.5380  225.9880 C   0  0  0  0  0  0  0  0  0  0  0  0
  141.2890   72.2520  227.1380 C   0  0  0  0  0  0  0  0  0  0  0  0
  140.7510   71.8480  228.3330 C   0  0  0  0  0  0  0  0  0  0  0  0
  139.9760   70.7150  228.3620 C   0  0  0  0  0  0  0  0  0  0  0  0
  139.7520   70.0100  227.1990 C   0  0  0  0  0  0  0  0  0  0  0  0
  138.9730   77.4820  222.6520 C   0  0  0  0  0  0  0  0  0  0  0  0
  138.1900   78.5680  223.0020 C   0  0  0  0  0  0  0  0  0  0  0  0
  138.7530   79.7600  223.3830 C   0  0  0  0  0  0  0  0  0  0  0  0
  140.1230   79.8820  223.4180 C   0  0  0  0  0  0  0  0  0  0  0  0
  140.6720   81.0770  223.7980 C   0  0  0  0  0  0  0  0  0  0  0  0
  142.0580   81.2020  223.8340 C   0  0  0  0  0  0  0  0  0  0  0  0
  142.6160   82.3910  224.2140 F   0  0  0  0  0  0  0  0  0  0  0  0
  142.7960   80.1140  223.4830 C   0  0  0  0  0  0  0  0  0  0  0  0
  142.2510   78.9060  223.0980 C   0  0  0  0  0  0  0  0  0  0  0  0
  140.8600   78.7740  223.0600 C   0  0  0  0  0  0  0  0  0  0  0  0
  140.2960   77.6120  222.6890 N   0  0  0  0  0  0  0  0  0  0  0  0
  140.0770   75.0300  222.5860 H   0  0  0  0  0  0  0  0  0  0  0  0
  137.4054   73.7549  222.3144 H   0  0  0  0  0  0  0  0  0  0  0  0
  138.3447   73.7411  220.7895 H   0  0  0  0  0  0  0  0  0  0  0  0
  138.4804   71.1233  220.4231 H   0  0  0  0  0  0  0  0  0  0  0  0
  138.9920   69.6587  221.4000 H   0  0  0  0  0  0  0  0  0  0  0  0
  136.2594   70.7511  220.8800 H   0  0  0  0  0  0  0  0  0  0  0  0
  136.9559   69.0811  220.6338 H   0  0  0  0  0  0  0  0  0  0  0  0
  135.3162   69.4117  222.5526 H   0  0  0  0  0  0  0  0  0  0  0  0
  136.9074   68.5916  222.8813 H   0  0  0  0  0  0  0  0  0  0  0  0
  136.1421   71.4512  223.5208 H   0  0  0  0  0  0  0  0  0  0  0  0
  136.4280   70.0740  224.6719 H   0  0  0  0  0  0  0  0  0  0  0  0
  138.4030   71.6414  224.5352 H   0  0  0  0  0  0  0  0  0  0  0  0
  138.4720   68.6302  223.7995 H   0  0  0  0  0  0  0  0  0  0  0  0
  140.8812   69.0700  224.3269 H   0  0  0  0  0  0  0  0  0  0  0  0
  141.5021   71.8879  225.0449 H   0  0  0  0  0  0  0  0  0  0  0  0
  141.9128   73.1573  227.1002 H   0  0  0  0  0  0  0  0  0  0  0  0
  140.9372   72.4219  229.2527 H   0  0  0  0  0  0  0  0  0  0  0  0
  139.5356   70.3713  229.3096 H   0  0  0  0  0  0  0  0  0  0  0  0
  139.1261   69.1068  227.2484 H   0  0  0  0  0  0  0  0  0  0  0  0
  137.0944   78.4738  222.9742 H   0  0  0  0  0  0  0  0  0  0  0  0
  138.1137   80.6117  223.6584 H   0  0  0  0  0  0  0  0  0  0  0  0
  140.0276   81.9258  224.0708 H   0  0  0  0  0  0  0  0  0  0  0  0
  143.8922   80.2026  223.5076 H   0  0  0  0  0  0  0  0  0  0  0  0
  142.9005   78.0610  222.8256 H   0  0  0  0  0  0  0  0  0  0  0  0
  1  2  2  0
  2  3  1  0
  3  4  1  0
  4  5  1  0
  5  6  2  0
  5  7  1  0
  7  8  1  0
  8  9  1  0
  9 10  1  0
 10 11  1  0
 11 12  1  0
 12 13  1  0
 13 14  2  0
 14 15  1  0
 15 16  2  0
 16 17  1  0
 17 18  2  0
 18 19  1  0
 19 20  2  0
  2 21  1  0
 21 22  2  0
 22 23  1  0
 23 24  2  0
 24 25  1  0
 25 26  2  0
 26 27  1  0
 26 28  1  0
 28 29  2  0
 29 30  1  0
 30 31  2  0
 12  7  1  0
 20 15  1  0
 31 21  1  0
 30 24  1  0
  3 32  1  0
  4 33  1  0
  4 34  1  0
  8 35  1  0
  8 36  1  0
  9 37  1  0
  9 38  1  0
 10 39  1  0
 10 40  1  0
 11 41  1  0
 11 42  1  0
 12 43  1  1
 13 44  1  0
 14 45  1  0
 16 46  1  0
 17 47  1  0
 18 48  1  0
 19 49  1  0
 20 50  1  0
 22 51  1  0
 23 52  1  0
 25 53  1  0
 28 54  1  0
 29 55  1  0
M  END
>  <smiles>  (52) 
O=C(NCC(=O)N1CCCCC1/C=C/c1ccccc1)c1ccc2cc(F)ccc2n1

>  <score_type>  (52) 
oracle

>  <origin>  (52) 
autodockgpu

>  <m_score__min__energy>  (52) 
-9.1899999999999995

>  <m_primary>  (52) 
energy

>  <rmsd>  (52) 
8.53766539989839

>  <m_score__min__rmsd>  (52) 
8.53766539989839

>  <meeko>  (52) 
{"free_energy": -8.55, "intermolecular_energy": -10.64, "internal_energy": -2.23, "cluster_size": 22, "cluster_id": 4, "rank_in_cluster": 5}

>  <energy>  (52) 
-9.14

>  <cluster_rmsd>  (52) 
0.52

>  <cluster>  (52) 
1

$$$$

     RDKit          3D

 55 58  0  0  0  0  0  0  0  0999 V2000
  137.2670   76.0810  221.9230 O   0  0  0  0  0  0  0  0  0  0  0  0
  138.5030   76.1090  222.2440 C   0  0  0  0  0  0  0  0  0  0  0  0
  139.3130   74.9400  222.2260 N   0  0  0  0  0  0  0  0  0  0  0  0
  138.6970   73.6890  221.8270 C   0  0  0  0  0  0  0  0  0  0  0  0
  139.5410   72.5530  222.3310 C   0  0  0  0  0  0  0  0  0  0  0  0
  140.7070   72.7640  222.8030 O   0  0  0  0  0  0  0  0  0  0  0  0
  139.0020   71.2370  222.2630 N   0  0  0  0  0  0  0  0  0  0  0  0
  138.9690   70.4550  221.0420 C   0  0  0  0  0  0  0  0  0  0  0  0
  137.6540   69.8090  220.7620 C   0  0  0  0  0  0  0  0  0  0  0  0
  136.9860   69.2550  221.9920 C   0  0  0  0  0  0  0  0  0  0  0  0
  137.0500   70.2010  223.1630 C   0  0  0  0  0  0  0  0  0  0  0  0
  138.4610   70.6480  223.4620 C   0  0  1  0  0  0  0  0  0  0  0  0
  139.2290   69.4110  223.8240 C   0  0  0  0  0  0  0  0  0  0  0  0
  139.4390   69.1230  225.0830 C   0  0  0  0  0  0  0  0  0  0  0  0
  140.0040   70.0380  226.0630 C   0  0  0  0  0  0  0  0  0  0  0  0
  140.8510   71.0840  225.6750 C   0  0  0  0  0  0  0  0  0  0  0  0
  141.3930   71.9590  226.5840 C   0  0  0  0  0  0  0  0  0  0  0  0
  141.1200   71.8370  227.9230 C   0  0  0  0  0  0  0  0  0  0  0  0
  140.2940   70.8220  228.3410 C   0  0  0  0  0  0  0  0  0  0  0  0
  139.7570   69.9520  227.4160 C   0  0  0  0  0  0  0  0  0  0  0  0
  139.1180   77.3880  222.6480 C   0  0  0  0  0  0  0  0  0  0  0  0
  138.3010   78.4520  222.9860 C   0  0  0  0  0  0  0  0  0  0  0  0
  138.8250   79.6620  223.3690 C   0  0  0  0  0  0  0  0  0  0  0  0
  140.1910   79.8230  223.4170 C   0  0  0  0  0  0  0  0  0  0  0  0
  140.7010   81.0350  223.7990 C   0  0  0  0  0  0  0  0  0  0  0  0
  142.0820   81.2010  223.8470 C   0  0  0  0  0  0  0  0  0  0  0  0
  142.6020   82.4070  224.2290 F   0  0  0  0  0  0  0  0  0  0  0  0
  142.8550   80.1340  223.5080 C   0  0  0  0  0  0  0  0  0  0  0  0
  142.3490   78.9090  223.1220 C   0  0  0  0  0  0  0  0  0  0  0  0
  140.9630   78.7360  223.0700 C   0  0  0  0  0  0  0  0  0  0  0  0
  140.4370   77.5580  222.6980 N   0  0  0  0  0  0  0  0  0  0  0  0
  140.3250   74.9900  222.4930 H   0  0  0  0  0  0  0  0  0  0  0  0
  137.6875   73.6196  222.2583 H   0  0  0  0  0  0  0  0  0  0  0  0
  138.6218   73.6417  220.7306 H   0  0  0  0  0  0  0  0  0  0  0  0
  139.2122   71.1201  220.2003 H   0  0  0  0  0  0  0  0  0  0  0  0
  139.6987   69.6417  221.1691 H   0  0  0  0  0  0  0  0  0  0  0  0
  136.9868   70.5579  220.3102 H   0  0  0  0  0  0  0  0  0  0  0  0
  137.8456   68.9618  220.0871 H   0  0  0  0  0  0  0  0  0  0  0  0
  135.9299   69.0541  221.7589 H   0  0  0  0  0  0  0  0  0  0  0  0
  137.5210   68.3369  222.2763 H   0  0  0  0  0  0  0  0  0  0  0  0
  136.4389   71.0870  222.9358 H   0  0  0  0  0  0  0  0  0  0  0  0
  136.6713   69.6678  224.0475 H   0  0  0  0  0  0  0  0  0  0  0  0
  138.5098   71.3843  224.2778 H   0  0  0  0  0  0  0  0  0  0  0  0
  139.6139   68.7490  223.0343 H   0  0  0  0  0  0  0  0  0  0  0  0
  139.1681   68.1136  225.4261 H   0  0  0  0  0  0  0  0  0  0  0  0
  141.0895   71.2084  224.6084 H   0  0  0  0  0  0  0  0  0  0  0  0
  142.0533   72.7665  226.2348 H   0  0  0  0  0  0  0  0  0  0  0  0
  141.5549   72.5396  228.6491 H   0  0  0  0  0  0  0  0  0  0  0  0
  140.0619   70.7038  229.4097 H   0  0  0  0  0  0  0  0  0  0  0  0
  139.0979   69.1484  227.7763 H   0  0  0  0  0  0  0  0  0  0  0  0
  137.2089   78.3261  222.9471 H   0  0  0  0  0  0  0  0  0  0  0  0
  138.1586   80.4957  223.6352 H   0  0  0  0  0  0  0  0  0  0  0  0
  140.0294   81.8649  224.0639 H   0  0  0  0  0  0  0  0  0  0  0  0
  143.9478   80.2546  223.5436 H   0  0  0  0  0  0  0  0  0  0  0  0
  143.0256   78.0824  222.8596 H   0  0  0  0  0  0  0  0  0  0  0  0
  1  2  2  0
  2  3  1  0
  3  4  1  0
  4  5  1  0
  5  6  2  0
  5  7  1  0
  7  8  1  0
  8  9  1  0
  9 10  1  0
 10 11  1  0
 11 12  1  0
 12 13  1  0
 13 14  2  0
 14 15  1  0
 15 16  2  0
 16 17  1  0
 17 18  2  0
 18 19  1  0
 19 20  2  0
  2 21  1  0
 21 22  2  0
 22 23  1  0
 23 24  2  0
 24 25  1  0
 25 26  2  0
 26 27  1  0
 26 28  1  0
 28 29  2  0
 29 30  1  0
 30 31  2  0
 12  7  1  0
 20 15  1  0
 31 21  1  0
 30 24  1  0
  3 32  1  0
  4 33  1  0
  4 34  1  0
  8 35  1  0
  8 36  1  0
  9 37  1  0
  9 38  1  0
 10 39  1  0
 10 40  1  0
 11 41  1  0
 11 42  1  0
 12 43  1  1
 13 44  1  0
 14 45  1  0
 16 46  1  0
 17 47  1  0
 18 48  1  0
 19 49  1  0
 20 50  1  0
 22 51  1  0
 23 52  1  0
 25 53  1  0
 28 54  1  0
 29 55  1  0
M  END
>  <smiles>  (53) 
O=C(NCC(=O)N1CCCCC1/C=C/c1ccccc1)c1ccc2cc(F)ccc2n1

>  <score_type>  (53) 
oracle

>  <origin>  (53) 
autodockgpu

>  <m_score__min__energy>  (53) 
-9.1899999999999995

>  <m_primary>  (53) 
energy

>  <rmsd>  (53) 
8.450171312071205

>  <m_score__min__rmsd>  (53) 
8.450171312071205

>  <meeko>  (53) 
{"free_energy": -8.5, "intermolecular_energy": -10.58, "internal_energy": -2.23, "cluster_size": 22, "cluster_id": 4, "rank_in_cluster": 10}

>  <energy>  (53) 
-9.01

>  <cluster_rmsd>  (53) 
0.83

>  <cluster>  (53) 
1

$$$$

     RDKit          3D

 55 58  0  0  0  0  0  0  0  0999 V2000
  137.1160   75.9390  222.1390 O   0  0  0  0  0  0  0  0  0  0  0  0
  138.3820   76.0040  222.3050 C   0  0  0  0  0  0  0  0  0  0  0  0
  139.2150   74.8570  222.1940 N   0  0  0  0  0  0  0  0  0  0  0  0
  138.5900   73.5860  221.8810 C   0  0  0  0  0  0  0  0  0  0  0  0
  139.4580   72.4780  222.4080 C   0  0  0  0  0  0  0  0  0  0  0  0
  140.6340   72.7180  222.8380 O   0  0  0  0  0  0  0  0  0  0  0  0
  138.9280   71.1570  222.4110 N   0  0  0  0  0  0  0  0  0  0  0  0
  139.0100   70.2670  221.2690 C   0  0  0  0  0  0  0  0  0  0  0  0
  137.7270   69.5860  220.9280 C   0  0  0  0  0  0  0  0  0  0  0  0
  136.9470   69.1400  222.1370 C   0  0  0  0  0  0  0  0  0  0  0  0
  136.9010   70.1900  223.2170 C   0  0  0  0  0  0  0  0  0  0  0  0
  138.2780   70.6740  223.6030 C   0  0  1  0  0  0  0  0  0  0  0  0
  139.0100   69.4830  224.1470 C   0  0  0  0  0  0  0  0  0  0  0  0
  140.1660   69.6450  224.7380 C   0  0  0  0  0  0  0  0  0  0  0  0
  140.3710   70.3850  225.9740 C   0  0  0  0  0  0  0  0  0  0  0  0
  141.1450   71.5520  226.0010 C   0  0  0  0  0  0  0  0  0  0  0  0
  141.3500   72.2650  227.1560 C   0  0  0  0  0  0  0  0  0  0  0  0
  140.7960   71.8530  228.3410 C   0  0  0  0  0  0  0  0  0  0  0  0
  140.0310   70.7120  228.3540 C   0  0  0  0  0  0  0  0  0  0  0  0
  139.8340   70.0080  227.1860 C   0  0  0  0  0  0  0  0  0  0  0  0
  139.0050   77.3030  222.6230 C   0  0  0  0  0  0  0  0  0  0  0  0
  138.1980   78.4110  222.8060 C   0  0  0  0  0  0  0  0  0  0  0  0
  138.7310   79.6410  223.1030 C   0  0  0  0  0  0  0  0  0  0  0  0
  140.0950   79.7780  223.2220 C   0  0  0  0  0  0  0  0  0  0  0  0
  140.6130   81.0100  223.5180 C   0  0  0  0  0  0  0  0  0  0  0  0
  141.9930   81.1500  223.6380 C   0  0  0  0  0  0  0  0  0  0  0  0
  142.5210   82.3760  223.9340 F   0  0  0  0  0  0  0  0  0  0  0  0
  142.7560   80.0390  223.4510 C   0  0  0  0  0  0  0  0  0  0  0  0
  142.2410   78.7930  223.1530 C   0  0  0  0  0  0  0  0  0  0  0  0
  140.8570   78.6460  223.0300 C   0  0  0  0  0  0  0  0  0  0  0  0
  140.3230   77.4480  222.7400 N   0  0  0  0  0  0  0  0  0  0  0  0
  140.2500   74.9360  222.3340 H   0  0  0  0  0  0  0  0  0  0  0  0
  137.5979   73.5353  222.3535 H   0  0  0  0  0  0  0  0  0  0  0  0
  138.4735   73.4844  220.7919 H   0  0  0  0  0  0  0  0  0  0  0  0
  139.3305   70.8550  220.3963 H   0  0  0  0  0  0  0  0  0  0  0  0
  139.7252   69.4755  221.5372 H   0  0  0  0  0  0  0  0  0  0  0  0
  137.1045   70.2845  220.3495 H   0  0  0  0  0  0  0  0  0  0  0  0
  137.9813   68.6827  220.3541 H   0  0  0  0  0  0  0  0  0  0  0  0
  135.9174   68.9088  221.8263 H   0  0  0  0  0  0  0  0  0  0  0  0
  137.4535   68.2565  222.5528 H   0  0  0  0  0  0  0  0  0  0  0  0
  136.3139   71.0462  222.8534 H   0  0  0  0  0  0  0  0  0  0  0  0
  136.4409   69.7374  224.1077 H   0  0  0  0  0  0  0  0  0  0  0  0
  138.2501   71.4816  224.3493 H   0  0  0  0  0  0  0  0  0  0  0  0
  138.5763   68.4768  224.0494 H   0  0  0  0  0  0  0  0  0  0  0  0
  141.0481   69.1880  224.2656 H   0  0  0  0  0  0  0  0  0  0  0  0
  141.6033   71.9086  225.0668 H   0  0  0  0  0  0  0  0  0  0  0  0
  141.9652   73.1765  227.1308 H   0  0  0  0  0  0  0  0  0  0  0  0
  140.9614   72.4263  229.2651 H   0  0  0  0  0  0  0  0  0  0  0  0
  139.5776   70.3618  229.2930 H   0  0  0  0  0  0  0  0  0  0  0  0
  139.2165   69.0985  227.2228 H   0  0  0  0  0  0  0  0  0  0  0  0
  137.1072   78.3048  222.7117 H   0  0  0  0  0  0  0  0  0  0  0  0
  138.0724   80.5106  223.2448 H   0  0  0  0  0  0  0  0  0  0  0  0
  139.9493   81.8759  223.6589 H   0  0  0  0  0  0  0  0  0  0  0  0
  143.8476   80.1394  223.5427 H   0  0  0  0  0  0  0  0  0  0  0  0
  142.9093   77.9303  223.0147 H   0  0  0  0  0  0  0  0  0  0  0  0
  1  2  2  0
  2  3  1  0
  3  4  1  0
  4  5  1  0
  5  6  2  0
  5  7  1  0
  7  8  1  0
  8  9  1  0
  9 10  1  0
 10 11  1  0
 11 12  1  0
 12 13  1  0
 13 14  2  0
 14 15  1  0
 15 16  2  0
 16 17  1  0
 17 18  2  0
 18 19  1  0
 19 20  2  0
  2 21  1  0
 21 22  2  0
 22 23  1  0
 23 24  2  0
 24 25  1  0
 25 26  2  0
 26 27  1  0
 26 28  1  0
 28 29  2  0
 29 30  1  0
 30 31  2  0
 12  7  1  0
 20 15  1  0
 31 21  1  0
 30 24  1  0
  3 32  1  0
  4 33  1  0
  4 34  1  0
  8 35  1  0
  8 36  1  0
  9 37  1  0
  9 38  1  0
 10 39  1  0
 10 40  1  0
 11 41  1  0
 11 42  1  0
 12 43  1  1
 13 44  1  0
 14 45  1  0
 16 46  1  0
 17 47  1  0
 18 48  1  0
 19 49  1  0
 20 50  1  0
 22 51  1  0
 23 52  1  0
 25 53  1  0
 28 54  1  0
 29 55  1  0
M  END
>  <smiles>  (54) 
O=C(NCC(=O)N1CCCCC1/C=C/c1ccccc1)c1ccc2cc(F)ccc2n1

>  <score_type>  (54) 
oracle

>  <origin>  (54) 
autodockgpu

>  <m_score__min__energy>  (54) 
-9.1899999999999995

>  <m_primary>  (54) 
energy

>  <rmsd>  (54) 
8.481374842369155

>  <m_score__min__rmsd>  (54) 
8.481374842369155

>  <meeko>  (54) 
{"free_energy": -8.43, "intermolecular_energy": -10.51, "internal_energy": -2.25, "cluster_size": 22, "cluster_id": 4, "rank_in_cluster": 17}

>  <energy>  (54) 
-8.92

>  <cluster_rmsd>  (54) 
0.74

>  <cluster>  (54) 
1

$$$$

     RDKit          3D

 55 58  0  0  0  0  0  0  0  0999 V2000
  141.3860   72.4950  221.9020 O   0  0  0  0  0  0  0  0  0  0  0  0
  140.3080   72.4940  222.5880 C   0  0  0  0  0  0  0  0  0  0  0  0
  139.2140   73.3470  222.2720 N   0  0  0  0  0  0  0  0  0  0  0  0
  139.3470   74.2330  221.1320 C   0  0  0  0  0  0  0  0  0  0  0  0
  139.2090   75.6530  221.6070 C   0  0  0  0  0  0  0  0  0  0  0  0
  138.0930   76.0910  222.0420 O   0  0  0  0  0  0  0  0  0  0  0  0
  140.3590   76.4910  221.5530 N   0  0  0  0  0  0  0  0  0  0  0  0
  141.0750   76.9310  222.7340 C   0  0  0  0  0  0  0  0  0  0  0  0
  141.3860   78.3900  222.7560 C   0  0  0  0  0  0  0  0  0  0  0  0
  141.8020   78.9340  221.4150 C   0  0  0  0  0  0  0  0  0  0  0  0
  140.9310   78.4340  220.2910 C   0  0  0  0  0  0  0  0  0  0  0  0
  140.8380   76.9270  220.2660 C   0  0  1  0  0  0  0  0  0  0  0  0
  142.2300   76.4200  220.0320 C   0  0  0  0  0  0  0  0  0  0  0  0
  142.4120   75.2020  219.5900 C   0  0  0  0  0  0  0  0  0  0  0  0
  143.5070   74.3280  219.9870 C   0  0  0  0  0  0  0  0  0  0  0  0
  144.7170   74.8500  220.4590 C   0  0  0  0  0  0  0  0  0  0  0  0
  145.7610   74.0430  220.8390 C   0  0  0  0  0  0  0  0  0  0  0  0
  145.6520   72.6780  220.7690 C   0  0  0  0  0  0  0  0  0  0  0  0
  144.4800   72.1290  220.3100 C   0  0  0  0  0  0  0  0  0  0  0  0
  143.4400   72.9520  219.9330 C   0  0  0  0  0  0  0  0  0  0  0  0
  140.1860   71.5870  223.7460 C   0  0  0  0  0  0  0  0  0  0  0  0
  139.5270   70.3810  223.5890 C   0  0  0  0  0  0  0  0  0  0  0  0
  139.3880   69.5030  224.6360 C   0  0  0  0  0  0  0  0  0  0  0  0
  139.9130   69.8260  225.8660 C   0  0  0  0  0  0  0  0  0  0  0  0
  139.7660   68.9430  226.9010 C   0  0  0  0  0  0  0  0  0  0  0  0
  140.2950   69.2690  228.1470 C   0  0  0  0  0  0  0  0  0  0  0  0
  140.1550   68.3920  229.1870 F   0  0  0  0  0  0  0  0  0  0  0  0
  140.9360   70.4630  228.2640 C   0  0  0  0  0  0  0  0  0  0  0  0
  141.0880   71.3600  227.2250 C   0  0  0  0  0  0  0  0  0  0  0  0
  140.5590   71.0390  225.9720 C   0  0  0  0  0  0  0  0  0  0  0  0
  140.6880   71.8890  224.9400 N   0  0  0  0  0  0  0  0  0  0  0  0
  138.3410   73.3280  222.8510 H   0  0  0  0  0  0  0  0  0  0  0  0
  140.3339   74.0924  220.6670 H   0  0  0  0  0  0  0  0  0  0  0  0
  138.5670   74.0085  220.3895 H   0  0  0  0  0  0  0  0  0  0  0  0
  140.4613   76.6963  223.6162 H   0  0  0  0  0  0  0  0  0  0  0  0
  142.0402   76.4034  222.7317 H   0  0  0  0  0  0  0  0  0  0  0  0
  140.4890   78.9326  223.0891 H   0  0  0  0  0  0  0  0  0  0  0  0
  142.2355   78.5302  223.4406 H   0  0  0  0  0  0  0  0  0  0  0  0
  141.7414   80.0319  221.4460 H   0  0  0  0  0  0  0  0  0  0  0  0
  142.8283   78.5896  221.2196 H   0  0  0  0  0  0  0  0  0  0  0  0
  139.9199   78.8490  220.4154 H   0  0  0  0  0  0  0  0  0  0  0  0
  141.3845   78.7593  219.3431 H   0  0  0  0  0  0  0  0  0  0  0  0
  140.1572   76.5569  219.4852 H   0  0  0  0  0  0  0  0  0  0  0  0
  143.0949   77.0698  220.2313 H   0  0  0  0  0  0  0  0  0  0  0  0
  141.6840   74.8092  218.8649 H   0  0  0  0  0  0  0  0  0  0  0  0
  144.8353   75.9415  220.5277 H   0  0  0  0  0  0  0  0  0  0  0  0
  146.6946   74.4964  221.2034 H   0  0  0  0  0  0  0  0  0  0  0  0
  146.4892   72.0336  221.0753 H   0  0  0  0  0  0  0  0  0  0  0  0
  144.3713   71.0364  220.2433 H   0  0  0  0  0  0  0  0  0  0  0  0
  142.5107   72.4877  219.5712 H   0  0  0  0  0  0  0  0  0  0  0  0
  139.1062   70.1201  222.6067 H   0  0  0  0  0  0  0  0  0  0  0  0
  138.8607   68.5484  224.4921 H   0  0  0  0  0  0  0  0  0  0  0  0
  139.2378   67.9899  226.7509 H   0  0  0  0  0  0  0  0  0  0  0  0
  141.3582   70.7299  229.2441 H   0  0  0  0  0  0  0  0  0  0  0  0
  141.6169   72.3118  227.3812 H   0  0  0  0  0  0  0  0  0  0  0  0
  1  2  2  0
  2  3  1  0
  3  4  1  0
  4  5  1  0
  5  6  2  0
  5  7  1  0
  7  8  1  0
  8  9  1  0
  9 10  1  0
 10 11  1  0
 11 12  1  0
 12 13  1  0
 13 14  2  0
 14 15  1  0
 15 16  2  0
 16 17  1  0
 17 18  2  0
 18 19  1  0
 19 20  2  0
  2 21  1  0
 21 22  2  0
 22 23  1  0
 23 24  2  0
 24 25  1  0
 25 26  2  0
 26 27  1  0
 26 28  1  0
 28 29  2  0
 29 30  1  0
 30 31  2  0
 12  7  1  0
 20 15  1  0
 31 21  1  0
 30 24  1  0
  3 32  1  0
  4 33  1  0
  4 34  1  0
  8 35  1  0
  8 36  1  0
  9 37  1  0
  9 38  1  0
 10 39  1  0
 10 40  1  0
 11 41  1  0
 11 42  1  0
 12 43  1  6
 13 44  1  0
 14 45  1  0
 16 46  1  0
 17 47  1  0
 18 48  1  0
 19 49  1  0
 20 50  1  0
 22 51  1  0
 23 52  1  0
 25 53  1  0
 28 54  1  0
 29 55  1  0
M  END
>  <smiles>  (55) 
O=C(NCC(=O)N1CCCCC1/C=C/c1ccccc1)c1ccc2cc(F)ccc2n1

>  <score_type>  (55) 
oracle

>  <origin>  (55) 
autodockgpu

>  <m_score__min__energy>  (55) 
-9.1899999999999995

>  <m_primary>  (55) 
energy

>  <rmsd>  (55) 
2.7272684555493703

>  <m_score__min__rmsd>  (55) 
2.7272684555493703

>  <meeko>  (55) 
{"free_energy": -9.07, "intermolecular_energy": -11.16, "internal_energy": -1.94, "cluster_size": 6, "cluster_id": 2, "rank_in_cluster": 1}

>  <energy>  (55) 
-8.91

>  <cluster_rmsd>  (55) 
0.85

>  <cluster>  (55) 
1

$$$$

     RDKit          3D

 55 58  0  0  0  0  0  0  0  0999 V2000
  141.1660   72.3830  221.6400 O   0  0  0  0  0  0  0  0  0  0  0  0
  140.1580   72.4030  222.4250 C   0  0  0  0  0  0  0  0  0  0  0  0
  139.0480   73.2650  222.2030 N   0  0  0  0  0  0  0  0  0  0  0  0
  139.0820   74.1370  221.0450 C   0  0  0  0  0  0  0  0  0  0  0  0
  140.1800   75.1460  221.2330 C   0  0  0  0  0  0  0  0  0  0  0  0
  140.3500   75.7260  222.3560 O   0  0  0  0  0  0  0  0  0  0  0  0
  141.0220   75.4350  220.1210 N   0  0  0  0  0  0  0  0  0  0  0  0
  140.7670   74.9370  218.7840 C   0  0  0  0  0  0  0  0  0  0  0  0
  141.9600   74.3430  218.1120 C   0  0  0  0  0  0  0  0  0  0  0  0
  143.2330   75.1060  218.3690 C   0  0  0  0  0  0  0  0  0  0  0  0
  143.3870   75.5070  219.8130 C   0  0  0  0  0  0  0  0  0  0  0  0
  142.1840   76.2610  220.3290 C   0  0  1  0  0  0  0  0  0  0  0  0
  142.0840   77.5130  219.5100 C   0  0  0  0  0  0  0  0  0  0  0  0
  141.4910   78.5680  220.0060 C   0  0  0  0  0  0  0  0  0  0  0  0
  141.7300   79.1080  221.3360 C   0  0  0  0  0  0  0  0  0  0  0  0
  142.2660   80.3890  221.5140 C   0  0  0  0  0  0  0  0  0  0  0  0
  142.4970   80.9160  222.7600 C   0  0  0  0  0  0  0  0  0  0  0  0
  142.2080   80.1960  223.8910 C   0  0  0  0  0  0  0  0  0  0  0  0
  141.6820   78.9340  223.7560 C   0  0  0  0  0  0  0  0  0  0  0  0
  141.4540   78.4190  222.4980 C   0  0  0  0  0  0  0  0  0  0  0  0
  140.1360   71.5110  223.6000 C   0  0  0  0  0  0  0  0  0  0  0  0
  139.5970   70.2430  223.4730 C   0  0  0  0  0  0  0  0  0  0  0  0
  139.5540   69.3760  224.5360 C   0  0  0  0  0  0  0  0  0  0  0  0
  140.0550   69.7720  225.7540 C   0  0  0  0  0  0  0  0  0  0  0  0
  140.0050   68.8980  226.8070 C   0  0  0  0  0  0  0  0  0  0  0  0
  140.5110   69.2980  228.0410 C   0  0  0  0  0  0  0  0  0  0  0  0
  140.4670   68.4320  229.0980 F   0  0  0  0  0  0  0  0  0  0  0  0
  141.0340   70.5520  228.1290 C   0  0  0  0  0  0  0  0  0  0  0  0
  141.0870   71.4390  227.0730 C   0  0  0  0  0  0  0  0  0  0  0  0
  140.5800   71.0440  225.8320 C   0  0  0  0  0  0  0  0  0  0  0  0
  140.6170   71.8830  224.7830 N   0  0  0  0  0  0  0  0  0  0  0  0
  138.2330   73.2630  222.8610 H   0  0  0  0  0  0  0  0  0  0  0  0
  139.2764   73.5428  220.1399 H   0  0  0  0  0  0  0  0  0  0  0  0
  138.1158   74.6510  220.9347 H   0  0  0  0  0  0  0  0  0  0  0  0
  139.9868   74.1642  218.8472 H   0  0  0  0  0  0  0  0  0  0  0  0
  140.4627   75.8031  218.1779 H   0  0  0  0  0  0  0  0  0  0  0  0
  142.0902   73.3140  218.4783 H   0  0  0  0  0  0  0  0  0  0  0  0
  141.7735   74.3781  217.0285 H   0  0  0  0  0  0  0  0  0  0  0  0
  144.0866   74.4724  218.0864 H   0  0  0  0  0  0  0  0  0  0  0  0
  143.1957   76.0276  217.7696 H   0  0  0  0  0  0  0  0  0  0  0  0
  143.5229   74.5996  220.4197 H   0  0  0  0  0  0  0  0  0  0  0  0
  144.2592   76.1732  219.8865 H   0  0  0  0  0  0  0  0  0  0  0  0
  142.2636   76.5070  221.3982 H   0  0  0  0  0  0  0  0  0  0  0  0
  142.5079   77.5441  218.4954 H   0  0  0  0  0  0  0  0  0  0  0  0
  140.7572   79.0855  219.3706 H   0  0  0  0  0  0  0  0  0  0  0  0
  142.5098   80.9923  220.6271 H   0  0  0  0  0  0  0  0  0  0  0  0
  142.9188   81.9277  222.8526 H   0  0  0  0  0  0  0  0  0  0  0  0
  142.3940   80.6213  224.8883 H   0  0  0  0  0  0  0  0  0  0  0  0
  141.4437   78.3368  224.6485 H   0  0  0  0  0  0  0  0  0  0  0  0
  141.0304   77.4071  222.4169 H   0  0  0  0  0  0  0  0  0  0  0  0
  139.1948   69.9234  222.5003 H   0  0  0  0  0  0  0  0  0  0  0  0
  139.1220   68.3717  224.4147 H   0  0  0  0  0  0  0  0  0  0  0  0
  139.5716   67.8950  226.6799 H   0  0  0  0  0  0  0  0  0  0  0  0
  141.4381   70.8773  229.0990 H   0  0  0  0  0  0  0  0  0  0  0  0
  141.5214   72.4408  227.2060 H   0  0  0  0  0  0  0  0  0  0  0  0
  1  2  2  0
  2  3  1  0
  3  4  1  0
  4  5  1  0
  5  6  2  0
  5  7  1  0
  7  8  1  0
  8  9  1  0
  9 10  1  0
 10 11  1  0
 11 12  1  0
 12 13  1  0
 13 14  2  0
 14 15  1  0
 15 16  2  0
 16 17  1  0
 17 18  2  0
 18 19  1  0
 19 20  2  0
  2 21  1  0
 21 22  2  0
 22 23  1  0
 23 24  2  0
 24 25  1  0
 25 26  2  0
 26 27  1  0
 26 28  1  0
 28 29  2  0
 29 30  1  0
 30 31  2  0
 12  7  1  0
 20 15  1  0
 31 21  1  0
 30 24  1  0
  3 32  1  0
  4 33  1  0
  4 34  1  0
  8 35  1  0
  8 36  1  0
  9 37  1  0
  9 38  1  0
 10 39  1  0
 10 40  1  0
 11 41  1  0
 11 42  1  0
 12 43  1  1
 13 44  1  0
 14 45  1  0
 16 46  1  0
 17 47  1  0
 18 48  1  0
 19 49  1  0
 20 50  1  0
 22 51  1  0
 23 52  1  0
 25 53  1  0
 28 54  1  0
 29 55  1  0
M  END
>  <smiles>  (56) 
O=C(NCC(=O)N1CCCCC1/C=C/c1ccccc1)c1ccc2cc(F)ccc2n1

>  <score_type>  (56) 
oracle

>  <origin>  (56) 
autodockgpu

>  <m_score__min__energy>  (56) 
-9.1899999999999995

>  <m_primary>  (56) 
energy

>  <rmsd>  (56) 
1.7763110252484495

>  <m_score__min__rmsd>  (56) 
1.7763110252484495

>  <meeko>  (56) 
{"free_energy": -9.19, "intermolecular_energy": -11.27, "internal_energy": -1.71, "cluster_size": 17, "cluster_id": 1, "rank_in_cluster": 1}

>  <energy>  (56) 
-8.9

>  <cluster_rmsd>  (56) 
0.67

>  <cluster>  (56) 
1

$$$$

     RDKit          3D

 55 58  0  0  0  0  0  0  0  0999 V2000
  141.0280   72.0970  221.3710 O   0  0  0  0  0  0  0  0  0  0  0  0
  140.2200   72.3860  222.3180 C   0  0  0  0  0  0  0  0  0  0  0  0
  139.3680   73.5240  222.2600 N   0  0  0  0  0  0  0  0  0  0  0  0
  139.4350   74.3660  221.0820 C   0  0  0  0  0  0  0  0  0  0  0  0
  140.6380   75.2610  221.1950 C   0  0  0  0  0  0  0  0  0  0  0  0
  141.1490   75.5260  222.3330 O   0  0  0  0  0  0  0  0  0  0  0  0
  141.1850   75.8020  219.9970 N   0  0  0  0  0  0  0  0  0  0  0  0
  140.8460   75.3080  218.6770 C   0  0  0  0  0  0  0  0  0  0  0  0
  142.0210   75.0710  217.7890 C   0  0  0  0  0  0  0  0  0  0  0  0
  143.0880   76.1270  217.9140 C   0  0  0  0  0  0  0  0  0  0  0  0
  143.3730   76.4970  219.3460 C   0  0  0  0  0  0  0  0  0  0  0  0
  142.1220   76.8920  220.0950 C   0  0  1  0  0  0  0  0  0  0  0  0
  141.5790   78.1070  219.4030 C   0  0  0  0  0  0  0  0  0  0  0  0
  141.6380   79.2720  219.9940 C   0  0  0  0  0  0  0  0  0  0  0  0
  141.7970   79.4700  221.4280 C   0  0  0  0  0  0  0  0  0  0  0  0
  141.1110   78.6720  222.3510 C   0  0  0  0  0  0  0  0  0  0  0  0
  141.2480   78.8430  223.7060 C   0  0  0  0  0  0  0  0  0  0  0  0
  142.0740   79.8150  224.2100 C   0  0  0  0  0  0  0  0  0  0  0  0
  142.7630   80.6180  223.3350 C   0  0  0  0  0  0  0  0  0  0  0  0
  142.6160   80.4340  221.9770 C   0  0  0  0  0  0  0  0  0  0  0  0
  140.1620   71.5200  223.5110 C   0  0  0  0  0  0  0  0  0  0  0  0
  139.5880   70.2660  223.4070 C   0  0  0  0  0  0  0  0  0  0  0  0
  139.5110   69.4240  224.4880 C   0  0  0  0  0  0  0  0  0  0  0  0
  140.0140   69.8320  225.7020 C   0  0  0  0  0  0  0  0  0  0  0  0
  139.9290   68.9830  226.7730 C   0  0  0  0  0  0  0  0  0  0  0  0
  140.4370   69.3950  228.0020 C   0  0  0  0  0  0  0  0  0  0  0  0
  140.3590   68.5540  229.0770 F   0  0  0  0  0  0  0  0  0  0  0  0
  140.9950   70.6340  228.0680 C   0  0  0  0  0  0  0  0  0  0  0  0
  141.0830   71.4960  226.9930 C   0  0  0  0  0  0  0  0  0  0  0  0
  140.5750   71.0890  225.7570 C   0  0  0  0  0  0  0  0  0  0  0  0
  140.6440   71.9030  224.6910 N   0  0  0  0  0  0  0  0  0  0  0  0
  138.7150   73.7400  223.0500 H   0  0  0  0  0  0  0  0  0  0  0  0
  139.5242   73.7382  220.1832 H   0  0  0  0  0  0  0  0  0  0  0  0
  138.5219   74.9745  221.0046 H   0  0  0  0  0  0  0  0  0  0  0  0
  140.3051   74.3573  218.7935 H   0  0  0  0  0  0  0  0  0  0  0  0
  140.2396   76.0890  218.1949 H   0  0  0  0  0  0  0  0  0  0  0  0
  142.4624   74.0971  218.0472 H   0  0  0  0  0  0  0  0  0  0  0  0
  141.6554   75.1000  216.7520 H   0  0  0  0  0  0  0  0  0  0  0  0
  144.0140   75.7477  217.4573 H   0  0  0  0  0  0  0  0  0  0  0  0
  142.7236   77.0304  217.4031 H   0  0  0  0  0  0  0  0  0  0  0  0
  143.8297   75.6328  219.8507 H   0  0  0  0  0  0  0  0  0  0  0  0
  144.0508   77.3634  219.3416 H   0  0  0  0  0  0  0  0  0  0  0  0
  142.3128   77.1074  221.1567 H   0  0  0  0  0  0  0  0  0  0  0  0
  141.1326   78.0183  218.4016 H   0  0  0  0  0  0  0  0  0  0  0  0
  141.5619   80.1686  219.3613 H   0  0  0  0  0  0  0  0  0  0  0  0
  140.4410   77.8830  221.9787 H   0  0  0  0  0  0  0  0  0  0  0  0
  140.6890   78.1932  224.3954 H   0  0  0  0  0  0  0  0  0  0  0  0
  142.1826   79.9489  225.2964 H   0  0  0  0  0  0  0  0  0  0  0  0
  143.4299   81.4053  223.7164 H   0  0  0  0  0  0  0  0  0  0  0  0
  143.1803   81.0890  221.2970 H   0  0  0  0  0  0  0  0  0  0  0  0
  139.1849   69.9367  222.4379 H   0  0  0  0  0  0  0  0  0  0  0  0
  139.0506   68.4303  224.3847 H   0  0  0  0  0  0  0  0  0  0  0  0
  139.4665   67.9909  226.6640 H   0  0  0  0  0  0  0  0  0  0  0  0
  141.3998   70.9687  229.0345 H   0  0  0  0  0  0  0  0  0  0  0  0
  141.5457   72.4873  227.1080 H   0  0  0  0  0  0  0  0  0  0  0  0
  1  2  2  0
  2  3  1  0
  3  4  1  0
  4  5  1  0
  5  6  2  0
  5  7  1  0
  7  8  1  0
  8  9  1  0
  9 10  1  0
 10 11  1  0
 11 12  1  0
 12 13  1  0
 13 14  2  0
 14 15  1  0
 15 16  2  0
 16 17  1  0
 17 18  2  0
 18 19  1  0
 19 20  2  0
  2 21  1  0
 21 22  2  0
 22 23  1  0
 23 24  2  0
 24 25  1  0
 25 26  2  0
 26 27  1  0
 26 28  1  0
 28 29  2  0
 29 30  1  0
 30 31  2  0
 12  7  1  0
 20 15  1  0
 31 21  1  0
 30 24  1  0
  3 32  1  0
  4 33  1  0
  4 34  1  0
  8 35  1  0
  8 36  1  0
  9 37  1  0
  9 38  1  0
 10 39  1  0
 10 40  1  0
 11 41  1  0
 11 42  1  0
 12 43  1  1
 13 44  1  0
 14 45  1  0
 16 46  1  0
 17 47  1  0
 18 48  1  0
 19 49  1  0
 20 50  1  0
 22 51  1  0
 23 52  1  0
 25 53  1  0
 28 54  1  0
 29 55  1  0
M  END
>  <smiles>  (57) 
O=C(NCC(=O)N1CCCCC1/C=C/c1ccccc1)c1ccc2cc(F)ccc2n1

>  <score_type>  (57) 
oracle

>  <origin>  (57) 
autodockgpu

>  <m_score__min__energy>  (57) 
-9.1899999999999995

>  <m_primary>  (57) 
energy

>  <rmsd>  (57) 
1.6656181591420147

>  <m_score__min__rmsd>  (57) 
1.6656181591420147

>  <meeko>  (57) 
{"free_energy": -9.14, "intermolecular_energy": -11.23, "internal_energy": -1.69, "cluster_size": 17, "cluster_id": 1, "rank_in_cluster": 2}

>  <energy>  (57) 
-8.9

>  <cluster_rmsd>  (57) 
0.87

>  <cluster>  (57) 
1

$$$$

     RDKit          3D

 55 58  0  0  0  0  0  0  0  0999 V2000
  140.3680   70.7670  221.0840 O   0  0  0  0  0  0  0  0  0  0  0  0
  140.3010   71.5000  222.1290 C   0  0  0  0  0  0  0  0  0  0  0  0
  140.4310   72.9150  222.0660 N   0  0  0  0  0  0  0  0  0  0  0  0
  140.6430   73.5230  220.7660 C   0  0  0  0  0  0  0  0  0  0  0  0
  140.9780   74.9750  220.9620 C   0  0  0  0  0  0  0  0  0  0  0  0
  140.9780   75.4950  222.1270 O   0  0  0  0  0  0  0  0  0  0  0  0
  141.2930   75.7500  219.8100 N   0  0  0  0  0  0  0  0  0  0  0  0
  140.7130   75.5030  218.5040 C   0  0  0  0  0  0  0  0  0  0  0  0
  141.7010   75.4780  217.3870 C   0  0  0  0  0  0  0  0  0  0  0  0
  142.7740   76.5280  217.5140 C   0  0  0  0  0  0  0  0  0  0  0  0
  143.3220   76.6300  218.9130 C   0  0  0  0  0  0  0  0  0  0  0  0
  142.2340   76.8340  219.9410 C   0  0  1  0  0  0  0  0  0  0  0  0
  141.5730   78.1380  219.6060 C   0  0  0  0  0  0  0  0  0  0  0  0
  140.8960   78.7780  220.5250 C   0  0  0  0  0  0  0  0  0  0  0  0
  141.4510   79.2650  221.7790 C   0  0  0  0  0  0  0  0  0  0  0  0
  141.2890   78.5480  222.9710 C   0  0  0  0  0  0  0  0  0  0  0  0
  141.8050   78.9900  224.1640 C   0  0  0  0  0  0  0  0  0  0  0  0
  142.5070   80.1660  224.2300 C   0  0  0  0  0  0  0  0  0  0  0  0
  142.6850   80.8980  223.0820 C   0  0  0  0  0  0  0  0  0  0  0  0
  142.1620   80.4400  221.8920 C   0  0  0  0  0  0  0  0  0  0  0  0
  140.0840   70.8690  223.4450 C   0  0  0  0  0  0  0  0  0  0  0  0
  139.4360   69.6480  223.5080 C   0  0  0  0  0  0  0  0  0  0  0  0
  139.2110   69.0210  224.7080 C   0  0  0  0  0  0  0  0  0  0  0  0
  139.6370   69.6150  225.8740 C   0  0  0  0  0  0  0  0  0  0  0  0
  139.4050   68.9800  227.0640 C   0  0  0  0  0  0  0  0  0  0  0  0
  139.8350   69.5800  228.2450 C   0  0  0  0  0  0  0  0  0  0  0  0
  139.6100   68.9520  229.4380 F   0  0  0  0  0  0  0  0  0  0  0  0
  140.4690   70.7800  228.1440 C   0  0  0  0  0  0  0  0  0  0  0  0
  140.7060   71.4270  226.9480 C   0  0  0  0  0  0  0  0  0  0  0  0
  140.2770   70.8300  225.7600 C   0  0  0  0  0  0  0  0  0  0  0  0
  140.4910   71.4330  224.5790 N   0  0  0  0  0  0  0  0  0  0  0  0
  140.3720   73.4940  222.9360 H   0  0  0  0  0  0  0  0  0  0  0  0
  141.4739   73.0175  220.2520 H   0  0  0  0  0  0  0  0  0  0  0  0
  139.7335   73.4274  220.1547 H   0  0  0  0  0  0  0  0  0  0  0  0
  140.2015   74.5296  218.5330 H   0  0  0  0  0  0  0  0  0  0  0  0
  140.0292   76.3402  218.3002 H   0  0  0  0  0  0  0  0  0  0  0  0
  142.1816   74.4887  217.3686 H   0  0  0  0  0  0  0  0  0  0  0  0
  141.1483   75.6889  216.4596 H   0  0  0  0  0  0  0  0  0  0  0  0
  143.5978   76.2743  216.8306 H   0  0  0  0  0  0  0  0  0  0  0  0
  142.3218   77.4985  217.2618 H   0  0  0  0  0  0  0  0  0  0  0  0
  143.8629   75.7019  219.1497 H   0  0  0  0  0  0  0  0  0  0  0  0
  143.9888   77.5040  218.9505 H   0  0  0  0  0  0  0  0  0  0  0  0
  142.6205   76.8523  220.9707 H   0  0  0  0  0  0  0  0  0  0  0  0
  141.6570   78.5549  218.5915 H   0  0  0  0  0  0  0  0  0  0  0  0
  139.8281   78.9615  220.3355 H   0  0  0  0  0  0  0  0  0  0  0  0
  140.7306   77.6005  222.9508 H   0  0  0  0  0  0  0  0  0  0  0  0
  141.6537   78.3945  225.0764 H   0  0  0  0  0  0  0  0  0  0  0  0
  142.9207   80.5172  225.1868 H   0  0  0  0  0  0  0  0  0  0  0  0
  143.2425   81.8458  223.1120 H   0  0  0  0  0  0  0  0  0  0  0  0
  142.3202   81.0433  220.9859 H   0  0  0  0  0  0  0  0  0  0  0  0
  139.0944   69.1704  222.5778 H   0  0  0  0  0  0  0  0  0  0  0  0
  138.6938   68.0506  224.7375 H   0  0  0  0  0  0  0  0  0  0  0  0
  138.8866   68.0101  227.0873 H   0  0  0  0  0  0  0  0  0  0  0  0
  140.8130   71.2630  229.0705 H   0  0  0  0  0  0  0  0  0  0  0  0
  141.2243   72.3971  226.9305 H   0  0  0  0  0  0  0  0  0  0  0  0
  1  2  2  0
  2  3  1  0
  3  4  1  0
  4  5  1  0
  5  6  2  0
  5  7  1  0
  7  8  1  0
  8  9  1  0
  9 10  1  0
 10 11  1  0
 11 12  1  0
 12 13  1  0
 13 14  2  0
 14 15  1  0
 15 16  2  0
 16 17  1  0
 17 18  2  0
 18 19  1  0
 19 20  2  0
  2 21  1  0
 21 22  2  0
 22 23  1  0
 23 24  2  0
 24 25  1  0
 25 26  2  0
 26 27  1  0
 26 28  1  0
 28 29  2  0
 29 30  1  0
 30 31  2  0
 12  7  1  0
 20 15  1  0
 31 21  1  0
 30 24  1  0
  3 32  1  0
  4 33  1  0
  4 34  1  0
  8 35  1  0
  8 36  1  0
  9 37  1  0
  9 38  1  0
 10 39  1  0
 10 40  1  0
 11 41  1  0
 11 42  1  0
 12 43  1  1
 13 44  1  0
 14 45  1  0
 16 46  1  0
 17 47  1  0
 18 48  1  0
 19 49  1  0
 20 50  1  0
 22 51  1  0
 23 52  1  0
 25 53  1  0
 28 54  1  0
 29 55  1  0
M  END
>  <smiles>  (58) 
O=C(NCC(=O)N1CCCCC1/C=C/c1ccccc1)c1ccc2cc(F)ccc2n1

>  <score_type>  (58) 
oracle

>  <origin>  (58) 
autodockgpu

>  <m_score__min__energy>  (58) 
-9.1899999999999995

>  <m_primary>  (58) 
energy

>  <rmsd>  (58) 
1.6974140617429827

>  <m_score__min__rmsd>  (58) 
1.6974140617429827

>  <meeko>  (58) 
{"free_energy": -8.24, "intermolecular_energy": -10.33, "internal_energy": -2.22, "cluster_size": 17, "cluster_id": 1, "rank_in_cluster": 14}

>  <energy>  (58) 
-8.85

>  <cluster_rmsd>  (58) 
0.73

>  <cluster>  (58) 
1

$$$$

     RDKit          3D

 55 58  0  0  0  0  0  0  0  0999 V2000
  137.1300   76.1770  221.8460 O   0  0  0  0  0  0  0  0  0  0  0  0
  138.3460   76.1660  222.2380 C   0  0  0  0  0  0  0  0  0  0  0  0
  139.1040   74.9640  222.3050 N   0  0  0  0  0  0  0  0  0  0  0  0
  138.4580   73.7270  221.9110 C   0  0  0  0  0  0  0  0  0  0  0  0
  139.2790   72.5720  222.4130 C   0  0  0  0  0  0  0  0  0  0  0  0
  140.5040   72.7320  222.7320 O   0  0  0  0  0  0  0  0  0  0  0  0
  138.6500   71.3000  222.5210 N   0  0  0  0  0  0  0  0  0  0  0  0
  138.1760   70.5500  221.3750 C   0  0  0  0  0  0  0  0  0  0  0  0
  136.7950   70.0050  221.5250 C   0  0  0  0  0  0  0  0  0  0  0  0
  136.5090   69.4730  222.9050 C   0  0  0  0  0  0  0  0  0  0  0  0
  137.0090   70.3860  223.9930 C   0  0  0  0  0  0  0  0  0  0  0  0
  138.4720   70.7250  223.8310 C   0  0  1  0  0  0  0  0  0  0  0  0
  139.2210   69.4290  223.9330 C   0  0  0  0  0  0  0  0  0  0  0  0
  139.8560   69.1320  225.0380 C   0  0  0  0  0  0  0  0  0  0  0  0
  140.2460   70.0950  226.0580 C   0  0  0  0  0  0  0  0  0  0  0  0
  139.7770   69.9880  227.3730 C   0  0  0  0  0  0  0  0  0  0  0  0
  140.1340   70.8850  228.3500 C   0  0  0  0  0  0  0  0  0  0  0  0
  140.9740   71.9320  228.0660 C   0  0  0  0  0  0  0  0  0  0  0  0
  141.4530   72.0690  226.7860 C   0  0  0  0  0  0  0  0  0  0  0  0
  141.0870   71.1600  225.8170 C   0  0  0  0  0  0  0  0  0  0  0  0
  138.9910   77.4320  222.6350 C   0  0  0  0  0  0  0  0  0  0  0  0
  138.2000   78.5230  222.9450 C   0  0  0  0  0  0  0  0  0  0  0  0
  138.7530   79.7220  223.3210 C   0  0  0  0  0  0  0  0  0  0  0  0
  140.1220   79.8440  223.3910 C   0  0  0  0  0  0  0  0  0  0  0  0
  140.6610   81.0460  223.7650 C   0  0  0  0  0  0  0  0  0  0  0  0
  142.0460   81.1720  223.8360 C   0  0  0  0  0  0  0  0  0  0  0  0
  142.5940   82.3670  224.2100 F   0  0  0  0  0  0  0  0  0  0  0  0
  142.7920   80.0780  223.5240 C   0  0  0  0  0  0  0  0  0  0  0  0
  142.2570   78.8630  223.1450 C   0  0  0  0  0  0  0  0  0  0  0  0
  140.8680   78.7310  223.0720 C   0  0  0  0  0  0  0  0  0  0  0  0
  140.3130   77.5630  222.7060 N   0  0  0  0  0  0  0  0  0  0  0  0
  140.1000   74.9810  222.6290 H   0  0  0  0  0  0  0  0  0  0  0  0
  137.4493   73.6811  222.3473 H   0  0  0  0  0  0  0  0  0  0  0  0
  138.3764   73.6799  220.8150 H   0  0  0  0  0  0  0  0  0  0  0  0
  138.1905   71.2146  220.4986 H   0  0  0  0  0  0  0  0  0  0  0  0
  138.8458   69.6842  221.2668 H   0  0  0  0  0  0  0  0  0  0  0  0
  136.0770   70.8089  221.3054 H   0  0  0  0  0  0  0  0  0  0  0  0
  136.7008   69.1613  220.8255 H   0  0  0  0  0  0  0  0  0  0  0  0
  135.4214   69.3531  223.0179 H   0  0  0  0  0  0  0  0  0  0  0  0
  137.0360   68.5129  223.0076 H   0  0  0  0  0  0  0  0  0  0  0  0
  136.4253   71.3180  223.9684 H   0  0  0  0  0  0  0  0  0  0  0  0
  136.8898   69.8619  224.9527 H   0  0  0  0  0  0  0  0  0  0  0  0
  138.8295   71.4375  224.5890 H   0  0  0  0  0  0  0  0  0  0  0  0
  139.2363   68.7315  223.0826 H   0  0  0  0  0  0  0  0  0  0  0  0
  140.1143   68.0765  225.2089 H   0  0  0  0  0  0  0  0  0  0  0  0
  139.1013   69.1594  227.6318 H   0  0  0  0  0  0  0  0  0  0  0  0
  139.7424   70.7627  229.3706 H   0  0  0  0  0  0  0  0  0  0  0  0
  141.2589   72.6493  228.8498 H   0  0  0  0  0  0  0  0  0  0  0  0
  142.1266   72.9016  226.5351 H   0  0  0  0  0  0  0  0  0  0  0  0
  141.4860   71.2910  224.8003 H   0  0  0  0  0  0  0  0  0  0  0  0
  137.1055   78.4283  222.8892 H   0  0  0  0  0  0  0  0  0  0  0  0
  138.1070   80.5784  223.5644 H   0  0  0  0  0  0  0  0  0  0  0  0
  140.0097   81.8992  224.0057 H   0  0  0  0  0  0  0  0  0  0  0  0
  143.8871   80.1668  223.5769 H   0  0  0  0  0  0  0  0  0  0  0  0
  142.9131   78.0134  222.9046 H   0  0  0  0  0  0  0  0  0  0  0  0
  1  2  2  0
  2  3  1  0
  3  4  1  0
  4  5  1  0
  5  6  2  0
  5  7  1  0
  7  8  1  0
  8  9  1  0
  9 10  1  0
 10 11  1  0
 11 12  1  0
 12 13  1  0
 13 14  2  0
 14 15  1  0
 15 16  2  0
 16 17  1  0
 17 18  2  0
 18 19  1  0
 19 20  2  0
  2 21  1  0
 21 22  2  0
 22 23  1  0
 23 24  2  0
 24 25  1  0
 25 26  2  0
 26 27  1  0
 26 28  1  0
 28 29  2  0
 29 30  1  0
 30 31  2  0
 12  7  1  0
 20 15  1  0
 31 21  1  0
 30 24  1  0
  3 32  1  0
  4 33  1  0
  4 34  1  0
  8 35  1  0
  8 36  1  0
  9 37  1  0
  9 38  1  0
 10 39  1  0
 10 40  1  0
 11 41  1  0
 11 42  1  0
 12 43  1  1
 13 44  1  0
 14 45  1  0
 16 46  1  0
 17 47  1  0
 18 48  1  0
 19 49  1  0
 20 50  1  0
 22 51  1  0
 23 52  1  0
 25 53  1  0
 28 54  1  0
 29 55  1  0
M  END
>  <smiles>  (59) 
O=C(NCC(=O)N1CCCCC1/C=C/c1ccccc1)c1ccc2cc(F)ccc2n1

>  <score_type>  (59) 
oracle

>  <origin>  (59) 
autodockgpu

>  <m_score__min__energy>  (59) 
-9.1899999999999995

>  <m_primary>  (59) 
energy

>  <rmsd>  (59) 
8.546769110096461

>  <m_score__min__rmsd>  (59) 
8.546769110096461

>  <meeko>  (59) 
{"free_energy": -8.58, "intermolecular_energy": -10.66, "internal_energy": -2.24, "cluster_size": 22, "cluster_id": 4, "rank_in_cluster": 3}

>  <energy>  (59) 
-8.68

>  <cluster_rmsd>  (59) 
0.82

>  <cluster>  (59) 
1

$$$$

     RDKit          3D

 55 58  0  0  0  0  0  0  0  0999 V2000
  137.1910   76.0310  222.0260 O   0  0  0  0  0  0  0  0  0  0  0  0
  138.4400   76.0690  222.2940 C   0  0  0  0  0  0  0  0  0  0  0  0
  139.2600   74.9080  222.2270 N   0  0  0  0  0  0  0  0  0  0  0  0
  138.6390   73.6560  221.8400 C   0  0  0  0  0  0  0  0  0  0  0  0
  139.5020   72.5210  222.3160 C   0  0  0  0  0  0  0  0  0  0  0  0
  140.7140   72.7220  222.6580 O   0  0  0  0  0  0  0  0  0  0  0  0
  138.9260   71.2210  222.3740 N   0  0  0  0  0  0  0  0  0  0  0  0
  138.7850   70.3640  221.2120 C   0  0  0  0  0  0  0  0  0  0  0  0
  137.4370   69.7410  221.0690 C   0  0  0  0  0  0  0  0  0  0  0  0
  136.8460   69.2870  222.3780 C   0  0  0  0  0  0  0  0  0  0  0  0
  137.0190   70.3040  223.4760 C   0  0  0  0  0  0  0  0  0  0  0  0
  138.4590   70.7260  223.6440 C   0  0  1  0  0  0  0  0  0  0  0  0
  139.2200   69.4930  224.0320 C   0  0  0  0  0  0  0  0  0  0  0  0
  139.5390   69.2940  225.2850 C   0  0  0  0  0  0  0  0  0  0  0  0
  140.1790   70.2760  226.1470 C   0  0  0  0  0  0  0  0  0  0  0  0
  139.9630   70.2770  227.5310 C   0  0  0  0  0  0  0  0  0  0  0  0
  140.5580   71.1950  228.3610 C   0  0  0  0  0  0  0  0  0  0  0  0
  141.3960   72.1570  227.8560 C   0  0  0  0  0  0  0  0  0  0  0  0
  141.6300   72.1880  226.5030 C   0  0  0  0  0  0  0  0  0  0  0  0
  141.0260   71.2590  225.6830 C   0  0  0  0  0  0  0  0  0  0  0  0
  139.0590   77.3490  222.6870 C   0  0  0  0  0  0  0  0  0  0  0  0
  138.2450   78.4140  223.0290 C   0  0  0  0  0  0  0  0  0  0  0  0
  138.7730   79.6260  223.4010 C   0  0  0  0  0  0  0  0  0  0  0  0
  140.1390   79.7870  223.4360 C   0  0  0  0  0  0  0  0  0  0  0  0
  140.6530   81.0000  223.8080 C   0  0  0  0  0  0  0  0  0  0  0  0
  142.0350   81.1660  223.8430 C   0  0  0  0  0  0  0  0  0  0  0  0
  142.5580   82.3730  224.2140 F   0  0  0  0  0  0  0  0  0  0  0  0
  142.8040   80.0970  223.5000 C   0  0  0  0  0  0  0  0  0  0  0  0
  142.2940   78.8710  223.1230 C   0  0  0  0  0  0  0  0  0  0  0  0
  140.9080   78.6990  223.0860 C   0  0  0  0  0  0  0  0  0  0  0  0
  140.3780   77.5190  222.7230 N   0  0  0  0  0  0  0  0  0  0  0  0
  140.2810   74.9650  222.4520 H   0  0  0  0  0  0  0  0  0  0  0  0
  137.6421   73.5802  222.2987 H   0  0  0  0  0  0  0  0  0  0  0  0
  138.5340   73.6129  220.7459 H   0  0  0  0  0  0  0  0  0  0  0  0
  138.9832   70.9666  220.3133 H   0  0  0  0  0  0  0  0  0  0  0  0
  139.5014   69.5392  221.3400 H   0  0  0  0  0  0  0  0  0  0  0  0
  136.7579   70.4790  220.6171 H   0  0  0  0  0  0  0  0  0  0  0  0
  137.5575   68.8469  220.4396 H   0  0  0  0  0  0  0  0  0  0  0  0
  135.7710   69.1033  222.2343 H   0  0  0  0  0  0  0  0  0  0  0  0
  137.3766   68.3733  222.6838 H   0  0  0  0  0  0  0  0  0  0  0  0
  136.4161   71.1917  223.2343 H   0  0  0  0  0  0  0  0  0  0  0  0
  136.6917   69.8408  224.4185 H   0  0  0  0  0  0  0  0  0  0  0  0
  138.5856   71.5109  224.4042 H   0  0  0  0  0  0  0  0  0  0  0  0
  139.5088   68.7587  223.2656 H   0  0  0  0  0  0  0  0  0  0  0  0
  139.3059   68.3107  225.7194 H   0  0  0  0  0  0  0  0  0  0  0  0
  139.2958   69.5186  227.9666 H   0  0  0  0  0  0  0  0  0  0  0  0
  140.3607   71.1588  229.4425 H   0  0  0  0  0  0  0  0  0  0  0  0
  141.8721   72.8906  228.5232 H   0  0  0  0  0  0  0  0  0  0  0  0
  142.2968   72.9512  226.0754 H   0  0  0  0  0  0  0  0  0  0  0  0
  141.2306   71.3047  224.6032 H   0  0  0  0  0  0  0  0  0  0  0  0
  137.1526   78.2875  223.0025 H   0  0  0  0  0  0  0  0  0  0  0  0
  138.1092   80.4613  223.6688 H   0  0  0  0  0  0  0  0  0  0  0  0
  139.9841   81.8313  224.0753 H   0  0  0  0  0  0  0  0  0  0  0  0
  143.8972   80.2170  223.5246 H   0  0  0  0  0  0  0  0  0  0  0  0
  142.9675   78.0433  222.8562 H   0  0  0  0  0  0  0  0  0  0  0  0
  1  2  2  0
  2  3  1  0
  3  4  1  0
  4  5  1  0
  5  6  2  0
  5  7  1  0
  7  8  1  0
  8  9  1  0
  9 10  1  0
 10 11  1  0
 11 12  1  0
 12 13  1  0
 13 14  2  0
 14 15  1  0
 15 16  2  0
 16 17  1  0
 17 18  2  0
 18 19  1  0
 19 20  2  0
  2 21  1  0
 21 22  2  0
 22 23  1  0
 23 24  2  0
 24 25  1  0
 25 26  2  0
 26 27  1  0
 26 28  1  0
 28 29  2  0
 29 30  1  0
 30 31  2  0
 12  7  1  0
 20 15  1  0
 31 21  1  0
 30 24  1  0
  3 32  1  0
  4 33  1  0
  4 34  1  0
  8 35  1  0
  8 36  1  0
  9 37  1  0
  9 38  1  0
 10 39  1  0
 10 40  1  0
 11 41  1  0
 11 42  1  0
 12 43  1  1
 13 44  1  0
 14 45  1  0
 16 46  1  0
 17 47  1  0
 18 48  1  0
 19 49  1  0
 20 50  1  0
 22 51  1  0
 23 52  1  0
 25 53  1  0
 28 54  1  0
 29 55  1  0
M  END
>  <smiles>  (60) 
O=C(NCC(=O)N1CCCCC1/C=C/c1ccccc1)c1ccc2cc(F)ccc2n1

>  <score_type>  (60) 
oracle

>  <origin>  (60) 
autodockgpu

>  <m_score__min__energy>  (60) 
-9.1899999999999995

>  <m_primary>  (60) 
energy

>  <rmsd>  (60) 
8.467192410926913

>  <m_score__min__rmsd>  (60) 
8.467192410926913

>  <meeko>  (60) 
{"free_energy": -8.45, "intermolecular_energy": -10.54, "internal_energy": -2.24, "cluster_size": 22, "cluster_id": 4, "rank_in_cluster": 14}

>  <energy>  (60) 
-8.6

>  <cluster_rmsd>  (60) 
1.55

>  <cluster>  (60) 
1

$$$$

     RDKit          3D

 55 58  0  0  0  0  0  0  0  0999 V2000
  138.8390   71.0790  221.5330 O   0  0  0  0  0  0  0  0  0  0  0  0
  139.2910   71.5970  222.6100 C   0  0  0  0  0  0  0  0  0  0  0  0
  139.5800   72.9860  222.7130 N   0  0  0  0  0  0  0  0  0  0  0  0
  139.3460   73.8200  221.5500 C   0  0  0  0  0  0  0  0  0  0  0  0
  139.6290   75.2500  221.9160 C   0  0  0  0  0  0  0  0  0  0  0  0
  140.7890   75.6070  222.3090 O   0  0  0  0  0  0  0  0  0  0  0  0
  138.5650   76.1900  221.8120 N   0  0  0  0  0  0  0  0  0  0  0  0
  137.1710   75.8030  221.7170 C   0  0  0  0  0  0  0  0  0  0  0  0
  136.4110   76.5040  220.6410 C   0  0  0  0  0  0  0  0  0  0  0  0
  136.7670   77.9610  220.5090 C   0  0  0  0  0  0  0  0  0  0  0  0
  138.2520   78.2030  220.5690 C   0  0  0  0  0  0  0  0  0  0  0  0
  138.8820   77.5960  221.8000 C   0  0  1  0  0  0  0  0  0  0  0  0
  138.2540   78.2790  222.9790 C   0  0  0  0  0  0  0  0  0  0  0  0
  138.7880   79.3750  223.4550 C   0  0  0  0  0  0  0  0  0  0  0  0
  140.1650   79.7930  223.2350 C   0  0  0  0  0  0  0  0  0  0  0  0
  141.2390   79.0070  223.6690 C   0  0  0  0  0  0  0  0  0  0  0  0
  142.5450   79.3840  223.4700 C   0  0  0  0  0  0  0  0  0  0  0  0
  142.8450   80.5590  222.8300 C   0  0  0  0  0  0  0  0  0  0  0  0
  141.8170   81.3560  222.3910 C   0  0  0  0  0  0  0  0  0  0  0  0
  140.5120   80.9650  222.5970 C   0  0  0  0  0  0  0  0  0  0  0  0
  139.5240   70.7380  223.7860 C   0  0  0  0  0  0  0  0  0  0  0  0
  139.1290   69.4120  223.7420 C   0  0  0  0  0  0  0  0  0  0  0  0
  139.3240   68.5730  224.8100 C   0  0  0  0  0  0  0  0  0  0  0  0
  139.9240   69.0560  225.9500 C   0  0  0  0  0  0  0  0  0  0  0  0
  140.1120   68.2080  227.0090 C   0  0  0  0  0  0  0  0  0  0  0  0
  140.7190   68.6950  228.1640 C   0  0  0  0  0  0  0  0  0  0  0  0
  140.9120   67.8570  229.2260 F   0  0  0  0  0  0  0  0  0  0  0  0
  141.0940   70.0030  228.1720 C   0  0  0  0  0  0  0  0  0  0  0  0
  140.9080   70.8640  227.1090 C   0  0  0  0  0  0  0  0  0  0  0  0
  140.2990   70.3810  225.9480 C   0  0  0  0  0  0  0  0  0  0  0  0
  140.1020   71.1920  224.8950 N   0  0  0  0  0  0  0  0  0  0  0  0
  139.9490   73.3870  223.6070 H   0  0  0  0  0  0  0  0  0  0  0  0
  140.0120   73.5089  220.7317 H   0  0  0  0  0  0  0  0  0  0  0  0
  138.3016   73.7178  221.2202 H   0  0  0  0  0  0  0  0  0  0  0  0
  137.1263   74.7214  221.5217 H   0  0  0  0  0  0  0  0  0  0  0  0
  136.7001   76.0851  222.6702 H   0  0  0  0  0  0  0  0  0  0  0  0
  136.6222   76.0054  219.6835 H   0  0  0  0  0  0  0  0  0  0  0  0
  135.3457   76.4533  220.9103 H   0  0  0  0  0  0  0  0  0  0  0  0
  136.3888   78.3299  219.5442 H   0  0  0  0  0  0  0  0  0  0  0  0
  136.3086   78.4935  221.3554 H   0  0  0  0  0  0  0  0  0  0  0  0
  138.7191   77.7595  219.6773 H   0  0  0  0  0  0  0  0  0  0  0  0
  138.4146   79.2902  220.6089 H   0  0  0  0  0  0  0  0  0  0  0  0
  139.9749   77.7185  221.8217 H   0  0  0  0  0  0  0  0  0  0  0  0
  137.3481   77.8602  223.4416 H   0  0  0  0  0  0  0  0  0  0  0  0
  138.1489   80.0288  224.0667 H   0  0  0  0  0  0  0  0  0  0  0  0
  141.0308   78.0583  224.1853 H   0  0  0  0  0  0  0  0  0  0  0  0
  143.3588   78.7363  223.8279 H   0  0  0  0  0  0  0  0  0  0  0  0
  143.8916   80.8579  222.6710 H   0  0  0  0  0  0  0  0  0  0  0  0
  142.0345   82.3036  221.8765 H   0  0  0  0  0  0  0  0  0  0  0  0
  139.7067   81.6207  222.2343 H   0  0  0  0  0  0  0  0  0  0  0  0
  138.6489   69.0229  222.8320 H   0  0  0  0  0  0  0  0  0  0  0  0
  139.0031   67.5223  224.7552 H   0  0  0  0  0  0  0  0  0  0  0  0
  139.7885   67.1584  226.9482 H   0  0  0  0  0  0  0  0  0  0  0  0
  141.5740   70.3979  229.0796 H   0  0  0  0  0  0  0  0  0  0  0  0
  141.2338   71.9126  227.1749 H   0  0  0  0  0  0  0  0  0  0  0  0
  1  2  2  0
  2  3  1  0
  3  4  1  0
  4  5  1  0
  5  6  2  0
  5  7  1  0
  7  8  1  0
  8  9  1  0
  9 10  1  0
 10 11  1  0
 11 12  1  0
 12 13  1  0
 13 14  2  0
 14 15  1  0
 15 16  2  0
 16 17  1  0
 17 18  2  0
 18 19  1  0
 19 20  2  0
  2 21  1  0
 21 22  2  0
 22 23  1  0
 23 24  2  0
 24 25  1  0
 25 26  2  0
 26 27  1  0
 26 28  1  0
 28 29  2  0
 29 30  1  0
 30 31  2  0
 12  7  1  0
 20 15  1  0
 31 21  1  0
 30 24  1  0
  3 32  1  0
  4 33  1  0
  4 34  1  0
  8 35  1  0
  8 36  1  0
  9 37  1  0
  9 38  1  0
 10 39  1  0
 10 40  1  0
 11 41  1  0
 11 42  1  0
 12 43  1  6
 13 44  1  0
 14 45  1  0
 16 46  1  0
 17 47  1  0
 18 48  1  0
 19 49  1  0
 20 50  1  0
 22 51  1  0
 23 52  1  0
 25 53  1  0
 28 54  1  0
 29 55  1  0
M  END
>  <smiles>  (61) 
O=C(NCC(=O)N1CCCCC1/C=C/c1ccccc1)c1ccc2cc(F)ccc2n1

>  <score_type>  (61) 
oracle

>  <origin>  (61) 
autodockgpu

>  <m_score__min__energy>  (61) 
-9.1899999999999995

>  <m_primary>  (61) 
energy

>  <rmsd>  (61) 
2.4450066361367466

>  <m_score__min__rmsd>  (61) 
2.4450066361367466

>  <meeko>  (61) 
{"free_energy": -8.42, "intermolecular_energy": -10.51, "internal_energy": -1.88, "cluster_size": 3, "cluster_id": 3, "rank_in_cluster": 3}

>  <energy>  (61) 
-8.55

>  <cluster_rmsd>  (61) 
0.84

>  <cluster>  (61) 
1

$$$$

     RDKit          3D

 55 58  0  0  0  0  0  0  0  0999 V2000
  140.4180   71.7840  221.0960 O   0  0  0  0  0  0  0  0  0  0  0  0
  140.0300   72.2670  222.2130 C   0  0  0  0  0  0  0  0  0  0  0  0
  139.5710   73.6080  222.3350 N   0  0  0  0  0  0  0  0  0  0  0  0
  139.5520   74.4330  221.1420 C   0  0  0  0  0  0  0  0  0  0  0  0
  139.3040   75.8600  221.5460 C   0  0  0  0  0  0  0  0  0  0  0  0
  138.1360   76.2520  221.8740 O   0  0  0  0  0  0  0  0  0  0  0  0
  140.4110   76.7560  221.5480 N   0  0  0  0  0  0  0  0  0  0  0  0
  141.0790   77.1870  222.7610 C   0  0  0  0  0  0  0  0  0  0  0  0
  141.3140   78.6580  222.8420 C   0  0  0  0  0  0  0  0  0  0  0  0
  141.7300   79.2710  221.5310 C   0  0  0  0  0  0  0  0  0  0  0  0
  140.9100   78.7700  220.3700 C   0  0  0  0  0  0  0  0  0  0  0  0
  140.8940   77.2620  220.2890 C   0  0  1  0  0  0  0  0  0  0  0  0
  142.3150   76.8350  220.0690 C   0  0  0  0  0  0  0  0  0  0  0  0
  142.5670   75.6800  219.5070 C   0  0  0  0  0  0  0  0  0  0  0  0
  143.4180   74.6460  220.0750 C   0  0  0  0  0  0  0  0  0  0  0  0
  144.7430   74.9150  220.4370 C   0  0  0  0  0  0  0  0  0  0  0  0
  145.5620   73.9530  220.9760 C   0  0  0  0  0  0  0  0  0  0  0  0
  145.1030   72.6770  221.1800 C   0  0  0  0  0  0  0  0  0  0  0  0
  143.8080   72.3750  220.8360 C   0  0  0  0  0  0  0  0  0  0  0  0
  142.9980   73.3520  220.2980 C   0  0  0  0  0  0  0  0  0  0  0  0
  140.0540   71.4170  223.4190 C   0  0  0  0  0  0  0  0  0  0  0  0
  139.5760   70.1210  223.3400 C   0  0  0  0  0  0  0  0  0  0  0  0
  139.5780   69.2910  224.4330 C   0  0  0  0  0  0  0  0  0  0  0  0
  140.0650   69.7550  225.6340 C   0  0  0  0  0  0  0  0  0  0  0  0
  140.0600   68.9170  226.7170 C   0  0  0  0  0  0  0  0  0  0  0  0
  140.5510   69.3850  227.9340 C   0  0  0  0  0  0  0  0  0  0  0  0
  140.5520   68.5560  229.0210 F   0  0  0  0  0  0  0  0  0  0  0  0
  141.0130   70.6640  227.9750 C   0  0  0  0  0  0  0  0  0  0  0  0
  141.0210   71.5140  226.8870 C   0  0  0  0  0  0  0  0  0  0  0  0
  140.5290   71.0520  225.6640 C   0  0  0  0  0  0  0  0  0  0  0  0
  140.5210   71.8530  224.5860 N   0  0  0  0  0  0  0  0  0  0  0  0
  139.2570   73.9810  223.2620 H   0  0  0  0  0  0  0  0  0  0  0  0
  140.5198   74.3577  220.6246 H   0  0  0  0  0  0  0  0  0  0  0  0
  138.7562   74.0921  220.4634 H   0  0  0  0  0  0  0  0  0  0  0  0
  140.4597   76.8891  223.6199 H   0  0  0  0  0  0  0  0  0  0  0  0
  142.0696   76.7088  222.7624 H   0  0  0  0  0  0  0  0  0  0  0  0
  140.3834   79.1419  223.1733 H   0  0  0  0  0  0  0  0  0  0  0  0
  142.1403   78.8159  223.5507 H   0  0  0  0  0  0  0  0  0  0  0  0
  141.6129   80.3626  221.5998 H   0  0  0  0  0  0  0  0  0  0  0  0
  142.7763   78.9856  221.3472 H   0  0  0  0  0  0  0  0  0  0  0  0
  139.8767   79.1292  220.4854 H   0  0  0  0  0  0  0  0  0  0  0  0
  141.3668   79.1522  219.4452 H   0  0  0  0  0  0  0  0  0  0  0  0
  140.2495   76.8867  219.4804 H   0  0  0  0  0  0  0  0  0  0  0  0
  143.1424   77.4902  220.3789 H   0  0  0  0  0  0  0  0  0  0  0  0
  142.1002   75.4760  218.5321 H   0  0  0  0  0  0  0  0  0  0  0  0
  145.1411   75.9291  220.2850 H   0  0  0  0  0  0  0  0  0  0  0  0
  146.5970   74.2089  221.2469 H   0  0  0  0  0  0  0  0  0  0  0  0
  145.7608   71.9083  221.6118 H   0  0  0  0  0  0  0  0  0  0  0  0
  143.4188   71.3576  220.9892 H   0  0  0  0  0  0  0  0  0  0  0  0
  141.9641   73.0857  220.0332 H   0  0  0  0  0  0  0  0  0  0  0  0
  139.1863   69.7482  222.3813 H   0  0  0  0  0  0  0  0  0  0  0  0
  139.1937   68.2637  224.3500 H   0  0  0  0  0  0  0  0  0  0  0  0
  139.6745   67.8907  226.6275 H   0  0  0  0  0  0  0  0  0  0  0  0
  141.4031   71.0432  228.9311 H   0  0  0  0  0  0  0  0  0  0  0  0
  141.4088   72.5390  226.9818 H   0  0  0  0  0  0  0  0  0  0  0  0
  1  2  2  0
  2  3  1  0
  3  4  1  0
  4  5  1  0
  5  6  2  0
  5  7  1  0
  7  8  1  0
  8  9  1  0
  9 10  1  0
 10 11  1  0
 11 12  1  0
 12 13  1  0
 13 14  2  0
 14 15  1  0
 15 16  2  0
 16 17  1  0
 17 18  2  0
 18 19  1  0
 19 20  2  0
  2 21  1  0
 21 22  2  0
 22 23  1  0
 23 24  2  0
 24 25  1  0
 25 26  2  0
 26 27  1  0
 26 28  1  0
 28 29  2  0
 29 30  1  0
 30 31  2  0
 12  7  1  0
 20 15  1  0
 31 21  1  0
 30 24  1  0
  3 32  1  0
  4 33  1  0
  4 34  1  0
  8 35  1  0
  8 36  1  0
  9 37  1  0
  9 38  1  0
 10 39  1  0
 10 40  1  0
 11 41  1  0
 11 42  1  0
 12 43  1  6
 13 44  1  0
 14 45  1  0
 16 46  1  0
 17 47  1  0
 18 48  1  0
 19 49  1  0
 20 50  1  0
 22 51  1  0
 23 52  1  0
 25 53  1  0
 28 54  1  0
 29 55  1  0
M  END
>  <smiles>  (62) 
O=C(NCC(=O)N1CCCCC1/C=C/c1ccccc1)c1ccc2cc(F)ccc2n1

>  <score_type>  (62) 
oracle

>  <origin>  (62) 
autodockgpu

>  <m_score__min__energy>  (62) 
-9.1899999999999995

>  <m_primary>  (62) 
energy

>  <rmsd>  (62) 
2.7604340976228623

>  <m_score__min__rmsd>  (62) 
2.7604340976228623

>  <meeko>  (62) 
{"free_energy": -8.88, "intermolecular_energy": -10.97, "internal_energy": -2.09, "cluster_size": 6, "cluster_id": 2, "rank_in_cluster": 4}

>  <energy>  (62) 
-8.48

>  <cluster_rmsd>  (62) 
1.23

>  <cluster>  (62) 
1

$$$$

     RDKit          3D

 55 58  0  0  0  0  0  0  0  0999 V2000
  140.8070   71.4940  221.1640 O   0  0  0  0  0  0  0  0  0  0  0  0
  140.3420   72.0440  222.2190 C   0  0  0  0  0  0  0  0  0  0  0  0
  139.9480   73.4110  222.2450 N   0  0  0  0  0  0  0  0  0  0  0  0
  140.0870   74.1840  221.0260 C   0  0  0  0  0  0  0  0  0  0  0  0
  140.8720   75.4290  221.3310 C   0  0  0  0  0  0  0  0  0  0  0  0
  140.6330   76.1100  222.3830 O   0  0  0  0  0  0  0  0  0  0  0  0
  141.8850   75.8240  220.4120 N   0  0  0  0  0  0  0  0  0  0  0  0
  142.1940   77.2100  220.1200 C   0  0  0  0  0  0  0  0  0  0  0  0
  142.3120   77.5190  218.6650 C   0  0  0  0  0  0  0  0  0  0  0  0
  143.0110   76.4420  217.8790 C   0  0  0  0  0  0  0  0  0  0  0  0
  142.5460   75.0580  218.2510 C   0  0  0  0  0  0  0  0  0  0  0  0
  142.6420   74.8010  219.7360 C   0  0  1  0  0  0  0  0  0  0  0  0
  144.0950   74.9120  220.0920 C   0  0  0  0  0  0  0  0  0  0  0  0
  144.6890   73.9260  220.7130 C   0  0  0  0  0  0  0  0  0  0  0  0
  144.7200   72.5470  220.2460 C   0  0  0  0  0  0  0  0  0  0  0  0
  145.8490   72.0260  219.6020 C   0  0  0  0  0  0  0  0  0  0  0  0
  145.8980   70.7290  219.1540 C   0  0  0  0  0  0  0  0  0  0  0  0
  144.8290   69.8870  219.3240 C   0  0  0  0  0  0  0  0  0  0  0  0
  143.7030   70.3640  219.9510 C   0  0  0  0  0  0  0  0  0  0  0  0
  143.6690   71.6690  220.3960 C   0  0  0  0  0  0  0  0  0  0  0  0
  140.2050   71.2460  223.4530 C   0  0  0  0  0  0  0  0  0  0  0  0
  139.5670   70.0200  223.3950 C   0  0  0  0  0  0  0  0  0  0  0  0
  139.4150   69.2410  224.5150 C   0  0  0  0  0  0  0  0  0  0  0  0
  139.9070   69.6850  225.7210 C   0  0  0  0  0  0  0  0  0  0  0  0
  139.7490   68.8980  226.8300 C   0  0  0  0  0  0  0  0  0  0  0  0
  140.2450   69.3460  228.0520 C   0  0  0  0  0  0  0  0  0  0  0  0
  140.0930   68.5680  229.1650 F   0  0  0  0  0  0  0  0  0  0  0  0
  140.8670   70.5570  228.0710 C   0  0  0  0  0  0  0  0  0  0  0  0
  141.0300   71.3550  226.9570 C   0  0  0  0  0  0  0  0  0  0  0  0
  140.5340   70.9120  225.7290 C   0  0  0  0  0  0  0  0  0  0  0  0
  140.6750   71.6640  224.6250 N   0  0  0  0  0  0  0  0  0  0  0  0
  139.5690   73.8380  223.1230 H   0  0  0  0  0  0  0  0  0  0  0  0
  140.6175   73.5883  220.2686 H   0  0  0  0  0  0  0  0  0  0  0  0
  139.0936   74.4533  220.6379 H   0  0  0  0  0  0  0  0  0  0  0  0
  141.3950   77.8374  220.5418 H   0  0  0  0  0  0  0  0  0  0  0  0
  143.1784   77.4143  220.5664 H   0  0  0  0  0  0  0  0  0  0  0  0
  141.3004   77.6500  218.2534 H   0  0  0  0  0  0  0  0  0  0  0  0
  142.9192   78.4318  218.5755 H   0  0  0  0  0  0  0  0  0  0  0  0
  142.8150   76.6036  216.8087 H   0  0  0  0  0  0  0  0  0  0  0  0
  144.0848   76.5055  218.1092 H   0  0  0  0  0  0  0  0  0  0  0  0
  141.4977   74.9412  217.9388 H   0  0  0  0  0  0  0  0  0  0  0  0
  143.1999   74.3350  217.7414 H   0  0  0  0  0  0  0  0  0  0  0  0
  142.2493   73.8142  220.0224 H   0  0  0  0  0  0  0  0  0  0  0  0
  144.6591   75.8197  219.8316 H   0  0  0  0  0  0  0  0  0  0  0  0
  145.2032   74.1554  221.6580 H   0  0  0  0  0  0  0  0  0  0  0  0
  146.7235   72.6758  219.4503 H   0  0  0  0  0  0  0  0  0  0  0  0
  146.8054   70.3610  218.6528 H   0  0  0  0  0  0  0  0  0  0  0  0
  144.8721   68.8482  218.9648 H   0  0  0  0  0  0  0  0  0  0  0  0
  142.8324   69.7077  220.0974 H   0  0  0  0  0  0  0  0  0  0  0  0
  142.7568   72.0268  220.8958 H   0  0  0  0  0  0  0  0  0  0  0  0
  139.1736   69.6621  222.4321 H   0  0  0  0  0  0  0  0  0  0  0  0
  138.9038   68.2692  224.4490 H   0  0  0  0  0  0  0  0  0  0  0  0
  139.2381   67.9266  226.7571 H   0  0  0  0  0  0  0  0  0  0  0  0
  141.2629   70.9207  229.0307 H   0  0  0  0  0  0  0  0  0  0  0  0
  141.5427   72.3251  227.0351 H   0  0  0  0  0  0  0  0  0  0  0  0
  1  2  2  0
  2  3  1  0
  3  4  1  0
  4  5  1  0
  5  6  2  0
  5  7  1  0
  7  8  1  0
  8  9  1  0
  9 10  1  0
 10 11  1  0
 11 12  1  0
 12 13  1  0
 13 14  2  0
 14 15  1  0
 15 16  2  0
 16 17  1  0
 17 18  2  0
 18 19  1  0
 19 20  2  0
  2 21  1  0
 21 22  2  0
 22 23  1  0
 23 24  2  0
 24 25  1  0
 25 26  2  0
 26 27  1  0
 26 28  1  0
 28 29  2  0
 29 30  1  0
 30 31  2  0
 12  7  1  0
 20 15  1  0
 31 21  1  0
 30 24  1  0
  3 32  1  0
  4 33  1  0
  4 34  1  0
  8 35  1  0
  8 36  1  0
  9 37  1  0
  9 38  1  0
 10 39  1  0
 10 40  1  0
 11 41  1  0
 11 42  1  0
 12 43  1  6
 13 44  1  0
 14 45  1  0
 16 46  1  0
 17 47  1  0
 18 48  1  0
 19 49  1  0
 20 50  1  0
 22 51  1  0
 23 52  1  0
 25 53  1  0
 28 54  1  0
 29 55  1  0
M  END
>  <smiles>  (63) 
O=C(NCC(=O)N1CCCCC1/C=C/c1ccccc1)c1ccc2cc(F)ccc2n1

>  <score_type>  (63) 
oracle

>  <origin>  (63) 
autodockgpu

>  <m_score__min__energy>  (63) 
-9.1899999999999995

>  <m_primary>  (63) 
energy

>  <rmsd>  (63) 
2.2524983677449035

>  <m_score__min__rmsd>  (63) 
2.2524983677449035

>  <meeko>  (63) 
{"free_energy": -8.48, "intermolecular_energy": -10.57, "internal_energy": -2.15, "cluster_size": 6, "cluster_id": 2, "rank_in_cluster": 6}

>  <energy>  (63) 
-8.34

>  <cluster_rmsd>  (63) 
1.38

>  <cluster>  (63) 
1

$$$$

     RDKit          3D

 55 58  0  0  0  0  0  0  0  0999 V2000
  139.0360   70.6660  221.4340 O   0  0  0  0  0  0  0  0  0  0  0  0
  139.1050   71.4890  222.4090 C   0  0  0  0  0  0  0  0  0  0  0  0
  138.7190   72.8510  222.2730 N   0  0  0  0  0  0  0  0  0  0  0  0
  138.2330   73.2970  220.9810 C   0  0  0  0  0  0  0  0  0  0  0  0
  139.3910   73.3520  220.0240 C   0  0  0  0  0  0  0  0  0  0  0  0
  139.6840   72.3470  219.2950 O   0  0  0  0  0  0  0  0  0  0  0  0
  140.1470   74.5560  219.9560 N   0  0  0  0  0  0  0  0  0  0  0  0
  140.3050   75.3260  218.7380 C   0  0  0  0  0  0  0  0  0  0  0  0
  141.7090   75.7390  218.4500 C   0  0  0  0  0  0  0  0  0  0  0  0
  142.4720   76.1640  219.6770 C   0  0  0  0  0  0  0  0  0  0  0  0
  142.2540   75.2370  220.8450 C   0  0  0  0  0  0  0  0  0  0  0  0
  140.7890   75.0380  221.1530 C   0  0  1  0  0  0  0  0  0  0  0  0
  140.2470   76.3860  221.5260 C   0  0  0  0  0  0  0  0  0  0  0  0
  140.6540   76.9680  222.6240 C   0  0  0  0  0  0  0  0  0  0  0  0
  141.3020   78.2700  222.6850 C   0  0  0  0  0  0  0  0  0  0  0  0
  141.4910   79.0400  221.5300 C   0  0  0  0  0  0  0  0  0  0  0  0
  142.0980   80.2710  221.5660 C   0  0  0  0  0  0  0  0  0  0  0  0
  142.5480   80.7960  222.7510 C   0  0  0  0  0  0  0  0  0  0  0  0
  142.3810   80.0690  223.9040 C   0  0  0  0  0  0  0  0  0  0  0  0
  141.7680   78.8360  223.8520 C   0  0  0  0  0  0  0  0  0  0  0  0
  139.6010   71.0220  223.7180 C   0  0  0  0  0  0  0  0  0  0  0  0
  140.3800   71.8700  224.4850 C   0  0  0  0  0  0  0  0  0  0  0  0
  140.8640   71.4820  225.7090 C   0  0  0  0  0  0  0  0  0  0  0  0
  140.5710   70.2250  226.1870 C   0  0  0  0  0  0  0  0  0  0  0  0
  141.0610   69.8500  227.4090 C   0  0  0  0  0  0  0  0  0  0  0  0
  140.7650   68.5790  227.8930 C   0  0  0  0  0  0  0  0  0  0  0  0
  141.2490   68.1950  229.1140 F   0  0  0  0  0  0  0  0  0  0  0  0
  139.9960   67.7720  227.1130 C   0  0  0  0  0  0  0  0  0  0  0  0
  139.4980   68.1430  225.8790 C   0  0  0  0  0  0  0  0  0  0  0  0
  139.7920   69.4170  225.3870 C   0  0  0  0  0  0  0  0  0  0  0  0
  139.3240   69.8090  224.1900 N   0  0  0  0  0  0  0  0  0  0  0  0
  138.7850   73.5060  223.0870 H   0  0  0  0  0  0  0  0  0  0  0  0
  137.4763   72.5919  220.6065 H   0  0  0  0  0  0  0  0  0  0  0  0
  137.7768   74.2935  221.0755 H   0  0  0  0  0  0  0  0  0  0  0  0
  139.9458   74.7161  217.8960 H   0  0  0  0  0  0  0  0  0  0  0  0
  139.7262   76.2515  218.8735 H   0  0  0  0  0  0  0  0  0  0  0  0
  142.2347   74.8895  217.9896 H   0  0  0  0  0  0  0  0  0  0  0  0
  141.6599   76.6104  217.7805 H   0  0  0  0  0  0  0  0  0  0  0  0
  143.5452   76.1810  219.4362 H   0  0  0  0  0  0  0  0  0  0  0  0
  142.1059   77.1594  219.9688 H   0  0  0  0  0  0  0  0  0  0  0  0
  142.7019   74.2602  220.6098 H   0  0  0  0  0  0  0  0  0  0  0  0
  142.7248   75.6925  221.7286 H   0  0  0  0  0  0  0  0  0  0  0  0
  140.6199   74.3173  221.9666 H   0  0  0  0  0  0  0  0  0  0  0  0
  139.5099   76.8831  220.8783 H   0  0  0  0  0  0  0  0  0  0  0  0
  140.4948   76.4338  223.5723 H   0  0  0  0  0  0  0  0  0  0  0  0
  141.1422   78.6460  220.5640 H   0  0  0  0  0  0  0  0  0  0  0  0
  142.2249   80.8425  220.6347 H   0  0  0  0  0  0  0  0  0  0  0  0
  143.0342   81.7824  222.7771 H   0  0  0  0  0  0  0  0  0  0  0  0
  142.7352   80.4694  224.8654 H   0  0  0  0  0  0  0  0  0  0  0  0
  141.6443   78.2747  224.7899 H   0  0  0  0  0  0  0  0  0  0  0  0
  140.6161   72.8753  224.1060 H   0  0  0  0  0  0  0  0  0  0  0  0
  141.4818   72.1707  226.3040 H   0  0  0  0  0  0  0  0  0  0  0  0
  141.6791   70.5424  227.9993 H   0  0  0  0  0  0  0  0  0  0  0  0
  139.7569   66.7655  227.4867 H   0  0  0  0  0  0  0  0  0  0  0  0
  138.8800   67.4466  225.2933 H   0  0  0  0  0  0  0  0  0  0  0  0
  1  2  2  0
  2  3  1  0
  3  4  1  0
  4  5  1  0
  5  6  2  0
  5  7  1  0
  7  8  1  0
  8  9  1  0
  9 10  1  0
 10 11  1  0
 11 12  1  0
 12 13  1  0
 13 14  2  0
 14 15  1  0
 15 16  2  0
 16 17  1  0
 17 18  2  0
 18 19  1  0
 19 20  2  0
  2 21  1  0
 21 22  2  0
 22 23  1  0
 23 24  2  0
 24 25  1  0
 25 26  2  0
 26 27  1  0
 26 28  1  0
 28 29  2  0
 29 30  1  0
 30 31  2  0
 12  7  1  0
 20 15  1  0
 31 21  1  0
 30 24  1  0
  3 32  1  0
  4 33  1  0
  4 34  1  0
  8 35  1  0
  8 36  1  0
  9 37  1  0
  9 38  1  0
 10 39  1  0
 10 40  1  0
 11 41  1  0
 11 42  1  0
 12 43  1  1
 13 44  1  0
 14 45  1  0
 16 46  1  0
 17 47  1  0
 18 48  1  0
 19 49  1  0
 20 50  1  0
 22 51  1  0
 23 52  1  0
 25 53  1  0
 28 54  1  0
 29 55  1  0
M  END
>  <smiles>  (64) 
O=C(NCC(=O)N1CCCCC1/C=C/c1ccccc1)c1ccc2cc(F)ccc2n1

>  <score_type>  (64) 
oracle

>  <origin>  (64) 
autodockgpu

>  <m_score__min__energy>  (64) 
-9.1899999999999995

>  <m_primary>  (64) 
energy

>  <rmsd>  (64) 
2.7685756624142734

>  <m_score__min__rmsd>  (64) 
2.7685756624142734

>  <meeko>  (64) 
{"free_energy": -8.48, "intermolecular_energy": -10.56, "internal_energy": -1.67, "cluster_size": 17, "cluster_id": 1, "rank_in_cluster": 12}

>  <energy>  (64) 
-8.24

>  <cluster_rmsd>  (64) 
0.97

>  <cluster>  (64) 
1

$$$$

     RDKit          3D

 55 58  0  0  0  0  0  0  0  0999 V2000
  137.2880   76.4100  221.8060 O   0  0  0  0  0  0  0  0  0  0  0  0
  138.5330   76.3830  222.0950 C   0  0  0  0  0  0  0  0  0  0  0  0
  139.3030   75.1910  221.9960 N   0  0  0  0  0  0  0  0  0  0  0  0
  138.6360   73.9830  221.5500 C   0  0  0  0  0  0  0  0  0  0  0  0
  139.4620   72.7960  221.9610 C   0  0  0  0  0  0  0  0  0  0  0  0
  140.7310   72.8860  222.0590 O   0  0  0  0  0  0  0  0  0  0  0  0
  138.7870   71.5720  222.2340 N   0  0  0  0  0  0  0  0  0  0  0  0
  138.1650   70.7630  221.2040 C   0  0  0  0  0  0  0  0  0  0  0  0
  136.7820   70.3090  221.5320 C   0  0  0  0  0  0  0  0  0  0  0  0
  136.6120   69.9020  222.9720 C   0  0  0  0  0  0  0  0  0  0  0  0
  137.2620   70.8680  223.9280 C   0  0  0  0  0  0  0  0  0  0  0  0
  138.7150   71.1110  223.5970 C   0  0  1  0  0  0  0  0  0  0  0  0
  139.4090   69.7880  223.7340 C   0  0  0  0  0  0  0  0  0  0  0  0
  139.7690   69.3630  224.9180 C   0  0  0  0  0  0  0  0  0  0  0  0
  140.2120   70.2180  226.0090 C   0  0  0  0  0  0  0  0  0  0  0  0
  139.7970   69.9850  227.3260 C   0  0  0  0  0  0  0  0  0  0  0  0
  140.2040   70.7800  228.3700 C   0  0  0  0  0  0  0  0  0  0  0  0
  141.0420   71.8440  228.1550 C   0  0  0  0  0  0  0  0  0  0  0  0
  141.4690   72.1040  226.8750 C   0  0  0  0  0  0  0  0  0  0  0  0
  141.0530   71.2970  225.8390 C   0  0  0  0  0  0  0  0  0  0  0  0
  139.1990   77.6190  222.5470 C   0  0  0  0  0  0  0  0  0  0  0  0
  138.4250   78.6930  222.9490 C   0  0  0  0  0  0  0  0  0  0  0  0
  138.9980   79.8650  223.3780 C   0  0  0  0  0  0  0  0  0  0  0  0
  140.3690   79.9760  223.4100 C   0  0  0  0  0  0  0  0  0  0  0  0
  140.9280   81.1500  223.8390 C   0  0  0  0  0  0  0  0  0  0  0  0
  142.3150   81.2660  223.8700 C   0  0  0  0  0  0  0  0  0  0  0  0
  142.8830   82.4340  224.2980 F   0  0  0  0  0  0  0  0  0  0  0  0
  143.0440   80.1900  223.4680 C   0  0  0  0  0  0  0  0  0  0  0  0
  142.4880   79.0030  223.0340 C   0  0  0  0  0  0  0  0  0  0  0  0
  141.0970   78.8810  222.9990 C   0  0  0  0  0  0  0  0  0  0  0  0
  140.5230   77.7400  222.5810 N   0  0  0  0  0  0  0  0  0  0  0  0
  140.3220   75.1950  222.2390 H   0  0  0  0  0  0  0  0  0  0  0  0
  137.6397   73.9183  222.0118 H   0  0  0  0  0  0  0  0  0  0  0  0
  138.5227   73.9998  220.4560 H   0  0  0  0  0  0  0  0  0  0  0  0
  138.1226   71.3562  220.2786 H   0  0  0  0  0  0  0  0  0  0  0  0
  138.7787   69.8558  221.1022 H   0  0  0  0  0  0  0  0  0  0  0  0
  136.0847   71.1323  221.3177 H   0  0  0  0  0  0  0  0  0  0  0  0
  136.5775   69.4202  220.9170 H   0  0  0  0  0  0  0  0  0  0  0  0
  135.5369   69.8513  223.1991 H   0  0  0  0  0  0  0  0  0  0  0  0
  137.1008   68.9252  223.1019 H   0  0  0  0  0  0  0  0  0  0  0  0
  136.7238   71.8263  223.8831 H   0  0  0  0  0  0  0  0  0  0  0  0
  137.2151   70.4279  224.9350 H   0  0  0  0  0  0  0  0  0  0  0  0
  139.1807   71.8594  224.2551 H   0  0  0  0  0  0  0  0  0  0  0  0
  139.6145   69.1775  222.8423 H   0  0  0  0  0  0  0  0  0  0  0  0
  139.7342   68.2791  225.1023 H   0  0  0  0  0  0  0  0  0  0  0  0
  139.1243   69.1392  227.5310 H   0  0  0  0  0  0  0  0  0  0  0  0
  139.8538   70.5606  229.3894 H   0  0  0  0  0  0  0  0  0  0  0  0
  141.3668   72.4785  228.9928 H   0  0  0  0  0  0  0  0  0  0  0  0
  142.1402   72.9530  226.6785 H   0  0  0  0  0  0  0  0  0  0  0  0
  141.4102   71.5253  224.8240 H   0  0  0  0  0  0  0  0  0  0  0  0
  137.3287   78.6064  222.9245 H   0  0  0  0  0  0  0  0  0  0  0  0
  138.3660   80.7082  223.6935 H   0  0  0  0  0  0  0  0  0  0  0  0
  140.2906   81.9891  224.1545 H   0  0  0  0  0  0  0  0  0  0  0  0
  144.1408   80.2704  223.4900 H   0  0  0  0  0  0  0  0  0  0  0  0
  143.1303   78.1667  222.7208 H   0  0  0  0  0  0  0  0  0  0  0  0
  1  2  2  0
  2  3  1  0
  3  4  1  0
  4  5  1  0
  5  6  2  0
  5  7  1  0
  7  8  1  0
  8  9  1  0
  9 10  1  0
 10 11  1  0
 11 12  1  0
 12 13  1  0
 13 14  2  0
 14 15  1  0
 15 16  2  0
 16 17  1  0
 17 18  2  0
 18 19  1  0
 19 20  2  0
  2 21  1  0
 21 22  2  0
 22 23  1  0
 23 24  2  0
 24 25  1  0
 25 26  2  0
 26 27  1  0
 26 28  1  0
 28 29  2  0
 29 30  1  0
 30 31  2  0
 12  7  1  0
 20 15  1  0
 31 21  1  0
 30 24  1  0
  3 32  1  0
  4 33  1  0
  4 34  1  0
  8 35  1  0
  8 36  1  0
  9 37  1  0
  9 38  1  0
 10 39  1  0
 10 40  1  0
 11 41  1  0
 11 42  1  0
 12 43  1  1
 13 44  1  0
 14 45  1  0
 16 46  1  0
 17 47  1  0
 18 48  1  0
 19 49  1  0
 20 50  1  0
 22 51  1  0
 23 52  1  0
 25 53  1  0
 28 54  1  0
 29 55  1  0
M  END
>  <smiles>  (65) 
O=C(NCC(=O)N1CCCCC1/C=C/c1ccccc1)c1ccc2cc(F)ccc2n1

>  <score_type>  (65) 
oracle

>  <origin>  (65) 
autodockgpu

>  <m_score__min__energy>  (65) 
-9.1899999999999995

>  <m_primary>  (65) 
energy

>  <rmsd>  (65) 
8.510778036317731

>  <m_score__min__rmsd>  (65) 
8.510778036317731

>  <meeko>  (65) 
{"free_energy": -8.42, "intermolecular_energy": -10.51, "internal_energy": -2.1, "cluster_size": 22, "cluster_id": 4, "rank_in_cluster": 18}

>  <energy>  (65) 
-8.21

>  <cluster_rmsd>  (65) 
1.66

>  <cluster>  (65) 
1

$$$$

     RDKit          3D

 55 58  0  0  0  0  0  0  0  0999 V2000
  138.1800   70.7740  221.8060 O   0  0  0  0  0  0  0  0  0  0  0  0
  138.8570   71.2900  222.7600 C   0  0  0  0  0  0  0  0  0  0  0  0
  139.3040   72.6400  222.7210 N   0  0  0  0  0  0  0  0  0  0  0  0
  138.9710   73.4360  221.5560 C   0  0  0  0  0  0  0  0  0  0  0  0
  139.3960   74.8560  221.8040 C   0  0  0  0  0  0  0  0  0  0  0  0
  140.5390   75.1170  222.3070 O   0  0  0  0  0  0  0  0  0  0  0  0
  138.4870   75.8970  221.4620 N   0  0  0  0  0  0  0  0  0  0  0  0
  137.0790   75.6660  221.2030 C   0  0  0  0  0  0  0  0  0  0  0  0
  136.5650   76.3290  219.9690 C   0  0  0  0  0  0  0  0  0  0  0  0
  137.1220   77.7120  219.7560 C   0  0  0  0  0  0  0  0  0  0  0  0
  138.6060   77.7850  220.0070 C   0  0  0  0  0  0  0  0  0  0  0  0
  138.9830   77.2460  221.3670 C   0  0  1  0  0  0  0  0  0  0  0  0
  138.3000   78.1220  222.3750 C   0  0  0  0  0  0  0  0  0  0  0  0
  138.7220   79.3460  222.5630 C   0  0  0  0  0  0  0  0  0  0  0  0
  140.1060   79.7190  222.8170 C   0  0  0  0  0  0  0  0  0  0  0  0
  140.8770   79.0400  223.7690 C   0  0  0  0  0  0  0  0  0  0  0  0
  142.1840   79.3750  224.0230 C   0  0  0  0  0  0  0  0  0  0  0  0
  142.7880   80.4020  223.3430 C   0  0  0  0  0  0  0  0  0  0  0  0
  142.0630   81.0920  222.4030 C   0  0  0  0  0  0  0  0  0  0  0  0
  140.7520   80.7430  222.1590 C   0  0  0  0  0  0  0  0  0  0  0  0
  139.1900   70.4680  223.9400 C   0  0  0  0  0  0  0  0  0  0  0  0
  138.8680   69.1230  223.9370 C   0  0  0  0  0  0  0  0  0  0  0  0
  139.1570   68.3170  225.0100 C   0  0  0  0  0  0  0  0  0  0  0  0
  139.7800   68.8560  226.1120 C   0  0  0  0  0  0  0  0  0  0  0  0
  140.0620   68.0420  227.1760 C   0  0  0  0  0  0  0  0  0  0  0  0
  140.6910   68.5840  228.2930 C   0  0  0  0  0  0  0  0  0  0  0  0
  140.9780   67.7800  229.3610 F   0  0  0  0  0  0  0  0  0  0  0  0
  140.9930   69.9110  228.2610 C   0  0  0  0  0  0  0  0  0  0  0  0
  140.7120   70.7380  227.1930 C   0  0  0  0  0  0  0  0  0  0  0  0
  140.0800   70.2000  226.0690 C   0  0  0  0  0  0  0  0  0  0  0  0
  139.7910   70.9770  225.0120 N   0  0  0  0  0  0  0  0  0  0  0  0
  139.8580   73.0390  223.5160 H   0  0  0  0  0  0  0  0  0  0  0  0
  139.4977   73.0407  220.6749 H   0  0  0  0  0  0  0  0  0  0  0  0
  137.8871   73.3962  221.3727 H   0  0  0  0  0  0  0  0  0  0  0  0
  136.9203   74.5821  221.1033 H   0  0  0  0  0  0  0  0  0  0  0  0
  136.5273   76.1028  222.0485 H   0  0  0  0  0  0  0  0  0  0  0  0
  136.8335   75.7077  219.1019 H   0  0  0  0  0  0  0  0  0  0  0  0
  135.4761   76.4322  220.0857 H   0  0  0  0  0  0  0  0  0  0  0  0
  136.9253   78.0146  218.7169 H   0  0  0  0  0  0  0  0  0  0  0  0
  136.6295   78.3834  220.4748 H   0  0  0  0  0  0  0  0  0  0  0  0
  139.1248   77.1959  219.2364 H   0  0  0  0  0  0  0  0  0  0  0  0
  138.9027   78.8436  219.9697 H   0  0  0  0  0  0  0  0  0  0  0  0
  140.0701   77.2416  221.5351 H   0  0  0  0  0  0  0  0  0  0  0  0
  137.4476   77.7368  222.9539 H   0  0  0  0  0  0  0  0  0  0  0  0
  137.9756   80.1532  222.5264 H   0  0  0  0  0  0  0  0  0  0  0  0
  140.4207   78.2119  224.3311 H   0  0  0  0  0  0  0  0  0  0  0  0
  142.7526   78.8142  224.7794 H   0  0  0  0  0  0  0  0  0  0  0  0
  143.8355   80.6683  223.5474 H   0  0  0  0  0  0  0  0  0  0  0  0
  142.5266   81.9201  221.8468 H   0  0  0  0  0  0  0  0  0  0  0  0
  140.1931   81.3107  221.4005 H   0  0  0  0  0  0  0  0  0  0  0  0
  138.3701   68.6902  223.0568 H   0  0  0  0  0  0  0  0  0  0  0  0
  138.8928   67.2494  224.9889 H   0  0  0  0  0  0  0  0  0  0  0  0
  139.7953   66.9752  227.1485 H   0  0  0  0  0  0  0  0  0  0  0  0
  141.4904   70.3498  229.1385 H   0  0  0  0  0  0  0  0  0  0  0  0
  140.9813   71.8040  227.2259 H   0  0  0  0  0  0  0  0  0  0  0  0
  1  2  2  0
  2  3  1  0
  3  4  1  0
  4  5  1  0
  5  6  2  0
  5  7  1  0
  7  8  1  0
  8  9  1  0
  9 10  1  0
 10 11  1  0
 11 12  1  0
 12 13  1  0
 13 14  2  0
 14 15  1  0
 15 16  2  0
 16 17  1  0
 17 18  2  0
 18 19  1  0
 19 20  2  0
  2 21  1  0
 21 22  2  0
 22 23  1  0
 23 24  2  0
 24 25  1  0
 25 26  2  0
 26 27  1  0
 26 28  1  0
 28 29  2  0
 29 30  1  0
 30 31  2  0
 12  7  1  0
 20 15  1  0
 31 21  1  0
 30 24  1  0
  3 32  1  0
  4 33  1  0
  4 34  1  0
  8 35  1  0
  8 36  1  0
  9 37  1  0
  9 38  1  0
 10 39  1  0
 10 40  1  0
 11 41  1  0
 11 42  1  0
 12 43  1  1
 13 44  1  0
 14 45  1  0
 16 46  1  0
 17 47  1  0
 18 48  1  0
 19 49  1  0
 20 50  1  0
 22 51  1  0
 23 52  1  0
 25 53  1  0
 28 54  1  0
 29 55  1  0
M  END
>  <smiles>  (66) 
O=C(NCC(=O)N1CCCCC1/C=C/c1ccccc1)c1ccc2cc(F)ccc2n1

>  <score_type>  (66) 
oracle

>  <origin>  (66) 
autodockgpu

>  <m_score__min__energy>  (66) 
-9.1899999999999995

>  <m_primary>  (66) 
energy

>  <rmsd>  (66) 
2.162437846082416

>  <m_score__min__rmsd>  (66) 
2.162437846082416

>  <meeko>  (66) 
{"free_energy": -8.21, "intermolecular_energy": -10.29, "internal_energy": -1.93, "cluster_size": 17, "cluster_id": 1, "rank_in_cluster": 16}

>  <energy>  (66) 
-8.21

>  <cluster_rmsd>  (66) 
1.98

>  <cluster>  (66) 
1

$$$$

     RDKit          3D

 55 58  0  0  0  0  0  0  0  0999 V2000
  139.9380   70.9760  221.1130 O   0  0  0  0  0  0  0  0  0  0  0  0
  139.8160   71.6210  222.2090 C   0  0  0  0  0  0  0  0  0  0  0  0
  139.6990   73.0390  222.2390 N   0  0  0  0  0  0  0  0  0  0  0  0
  139.7200   73.7520  220.9760 C   0  0  0  0  0  0  0  0  0  0  0  0
  140.3820   75.0850  221.1860 C   0  0  0  0  0  0  0  0  0  0  0  0
  140.4050   75.6290  222.3390 O   0  0  0  0  0  0  0  0  0  0  0  0
  140.9780   75.7210  220.0600 N   0  0  0  0  0  0  0  0  0  0  0  0
  140.7980   75.2550  218.6990 C   0  0  0  0  0  0  0  0  0  0  0  0
  142.0610   75.1580  217.9110 C   0  0  0  0  0  0  0  0  0  0  0  0
  143.0140   76.2960  218.1640 C   0  0  0  0  0  0  0  0  0  0  0  0
  143.1420   76.6300  219.6280 C   0  0  0  0  0  0  0  0  0  0  0  0
  141.8020   76.8830  220.2770 C   0  0  1  0  0  0  0  0  0  0  0  0
  141.2120   78.0740  219.5810 C   0  0  0  0  0  0  0  0  0  0  0  0
  141.3110   79.2590  220.1250 C   0  0  0  0  0  0  0  0  0  0  0  0
  141.6390   79.5090  221.5210 C   0  0  0  0  0  0  0  0  0  0  0  0
  142.5630   80.4970  221.8830 C   0  0  0  0  0  0  0  0  0  0  0  0
  142.8860   80.7490  223.1940 C   0  0  0  0  0  0  0  0  0  0  0  0
  142.3070   80.0290  224.2080 C   0  0  0  0  0  0  0  0  0  0  0  0
  141.3970   79.0510  223.8910 C   0  0  0  0  0  0  0  0  0  0  0  0
  141.0830   78.8110  222.5710 C   0  0  0  0  0  0  0  0  0  0  0  0
  139.7960   70.8840  223.4870 C   0  0  0  0  0  0  0  0  0  0  0  0
  139.2410   69.6170  223.5250 C   0  0  0  0  0  0  0  0  0  0  0  0
  139.1990   68.8910  224.6900 C   0  0  0  0  0  0  0  0  0  0  0  0
  139.7190   69.4310  225.8440 C   0  0  0  0  0  0  0  0  0  0  0  0
  139.6700   68.6970  226.9980 C   0  0  0  0  0  0  0  0  0  0  0  0
  140.1950   69.2420  228.1670 C   0  0  0  0  0  0  0  0  0  0  0  0
  140.1520   68.5160  229.3250 F   0  0  0  0  0  0  0  0  0  0  0  0
  140.7330   70.4890  228.0920 C   0  0  0  0  0  0  0  0  0  0  0  0
  140.7860   71.2360  226.9320 C   0  0  0  0  0  0  0  0  0  0  0  0
  140.2610   70.6950  225.7560 C   0  0  0  0  0  0  0  0  0  0  0  0
  140.2950   71.3950  224.6100 N   0  0  0  0  0  0  0  0  0  0  0  0
  139.6010   73.5450  223.1510 H   0  0  0  0  0  0  0  0  0  0  0  0
  140.2853   73.1711  220.2324 H   0  0  0  0  0  0  0  0  0  0  0  0
  138.6927   73.8972  220.6105 H   0  0  0  0  0  0  0  0  0  0  0  0
  140.3368   74.2570  218.7348 H   0  0  0  0  0  0  0  0  0  0  0  0
  140.1669   75.9998  218.1920 H   0  0  0  0  0  0  0  0  0  0  0  0
  142.5648   74.2164  218.1747 H   0  0  0  0  0  0  0  0  0  0  0  0
  141.7834   75.1980  216.8474 H   0  0  0  0  0  0  0  0  0  0  0  0
  144.0057   76.0174  217.7782 H   0  0  0  0  0  0  0  0  0  0  0  0
  142.6149   77.1847  217.6531 H   0  0  0  0  0  0  0  0  0  0  0  0
  143.6306   75.7888  220.1414 H   0  0  0  0  0  0  0  0  0  0  0  0
  143.7364   77.5517  219.7124 H   0  0  0  0  0  0  0  0  0  0  0  0
  141.8826   77.0695  221.3581 H   0  0  0  0  0  0  0  0  0  0  0  0
  140.6979   77.9508  218.6164 H   0  0  0  0  0  0  0  0  0  0  0  0
  141.1332   80.1319  219.4797 H   0  0  0  0  0  0  0  0  0  0  0  0
  143.0455   81.0902  221.0922 H   0  0  0  0  0  0  0  0  0  0  0  0
  143.6163   81.5361  223.4332 H   0  0  0  0  0  0  0  0  0  0  0  0
  142.5674   80.2318  225.2573 H   0  0  0  0  0  0  0  0  0  0  0  0
  140.9204   78.4612  224.6879 H   0  0  0  0  0  0  0  0  0  0  0  0
  140.3511   78.0219  222.3438 H   0  0  0  0  0  0  0  0  0  0  0  0
  138.8252   69.1827  222.6038 H   0  0  0  0  0  0  0  0  0  0  0  0
  138.7531   67.8855  224.7006 H   0  0  0  0  0  0  0  0  0  0  0  0
  139.2228   67.6920  227.0021 H   0  0  0  0  0  0  0  0  0  0  0  0
  141.1506   70.9284  229.0099 H   0  0  0  0  0  0  0  0  0  0  0  0
  141.2342   72.2405  226.9339 H   0  0  0  0  0  0  0  0  0  0  0  0
  1  2  2  0
  2  3  1  0
  3  4  1  0
  4  5  1  0
  5  6  2  0
  5  7  1  0
  7  8  1  0
  8  9  1  0
  9 10  1  0
 10 11  1  0
 11 12  1  0
 12 13  1  0
 13 14  2  0
 14 15  1  0
 15 16  2  0
 16 17  1  0
 17 18  2  0
 18 19  1  0
 19 20  2  0
  2 21  1  0
 21 22  2  0
 22 23  1  0
 23 24  2  0
 24 25  1  0
 25 26  2  0
 26 27  1  0
 26 28  1  0
 28 29  2  0
 29 30  1  0
 30 31  2  0
 12  7  1  0
 20 15  1  0
 31 21  1  0
 30 24  1  0
  3 32  1  0
  4 33  1  0
  4 34  1  0
  8 35  1  0
  8 36  1  0
  9 37  1  0
  9 38  1  0
 10 39  1  0
 10 40  1  0
 11 41  1  0
 11 42  1  0
 12 43  1  1
 13 44  1  0
 14 45  1  0
 16 46  1  0
 17 47  1  0
 18 48  1  0
 19 49  1  0
 20 50  1  0
 22 51  1  0
 23 52  1  0
 25 53  1  0
 28 54  1  0
 29 55  1  0
M  END
>  <smiles>  (67) 
O=C(NCC(=O)N1CCCCC1/C=C/c1ccccc1)c1ccc2cc(F)ccc2n1

>  <score_type>  (67) 
oracle

>  <origin>  (67) 
autodockgpu

>  <m_score__min__energy>  (67) 
-9.1899999999999995

>  <m_primary>  (67) 
energy

>  <rmsd>  (67) 
1.534513424056288

>  <m_score__min__rmsd>  (67) 
1.534513424056288

>  <meeko>  (67) 
{"free_energy": -8.85, "intermolecular_energy": -10.94, "internal_energy": -2.01, "cluster_size": 17, "cluster_id": 1, "rank_in_cluster": 8}

>  <energy>  (67) 
-8.16

>  <cluster_rmsd>  (67) 
1.26

>  <cluster>  (67) 
1

$$$$

     RDKit          3D

 55 58  0  0  0  0  0  0  0  0999 V2000
  137.0320   76.3200  221.7500 O   0  0  0  0  0  0  0  0  0  0  0  0
  138.2240   76.2760  222.2090 C   0  0  0  0  0  0  0  0  0  0  0  0
  138.9360   75.0510  222.3410 N   0  0  0  0  0  0  0  0  0  0  0  0
  138.2700   73.8280  221.9360 C   0  0  0  0  0  0  0  0  0  0  0  0
  139.1120   72.6570  222.3600 C   0  0  0  0  0  0  0  0  0  0  0  0
  140.3640   72.7920  222.5600 O   0  0  0  0  0  0  0  0  0  0  0  0
  138.4690   71.3980  222.5290 N   0  0  0  0  0  0  0  0  0  0  0  0
  137.9120   70.6380  221.4270 C   0  0  0  0  0  0  0  0  0  0  0  0
  136.5350   70.1190  221.6740 C   0  0  0  0  0  0  0  0  0  0  0  0
  136.3280   69.6150  223.0780 C   0  0  0  0  0  0  0  0  0  0  0  0
  136.9110   70.5370  224.1170 C   0  0  0  0  0  0  0  0  0  0  0  0
  138.3660   70.8470  223.8560 C   0  0  1  0  0  0  0  0  0  0  0  0
  139.0980   69.5400  223.9340 C   0  0  0  0  0  0  0  0  0  0  0  0
  140.0440   69.3780  224.8240 C   0  0  0  0  0  0  0  0  0  0  0  0
  140.2390   70.2220  225.9940 C   0  0  0  0  0  0  0  0  0  0  0  0
  140.9970   71.3980  225.9220 C   0  0  0  0  0  0  0  0  0  0  0  0
  141.1920   72.2080  227.0130 C   0  0  0  0  0  0  0  0  0  0  0  0
  140.6440   71.8880  228.2290 C   0  0  0  0  0  0  0  0  0  0  0  0
  139.8950   70.7420  228.3390 C   0  0  0  0  0  0  0  0  0  0  0  0
  139.7070   69.9400  227.2340 C   0  0  0  0  0  0  0  0  0  0  0  0
  138.8900   77.5280  222.6170 C   0  0  0  0  0  0  0  0  0  0  0  0
  138.1180   78.6360  222.9150 C   0  0  0  0  0  0  0  0  0  0  0  0
  138.6910   79.8230  223.2990 C   0  0  0  0  0  0  0  0  0  0  0  0
  140.0600   79.9160  223.3910 C   0  0  0  0  0  0  0  0  0  0  0  0
  140.6190   81.1050  223.7740 C   0  0  0  0  0  0  0  0  0  0  0  0
  142.0050   81.2020  223.8670 C   0  0  0  0  0  0  0  0  0  0  0  0
  142.5730   82.3850  224.2500 F   0  0  0  0  0  0  0  0  0  0  0  0
  142.7330   80.0920  223.5660 C   0  0  0  0  0  0  0  0  0  0  0  0
  142.1770   78.8890  223.1790 C   0  0  0  0  0  0  0  0  0  0  0  0
  140.7870   78.7860  223.0830 C   0  0  0  0  0  0  0  0  0  0  0  0
  140.2140   77.6310  222.7080 N   0  0  0  0  0  0  0  0  0  0  0  0
  139.9120   75.0420  222.7190 H   0  0  0  0  0  0  0  0  0  0  0  0
  137.2827   73.7674  222.4172 H   0  0  0  0  0  0  0  0  0  0  0  0
  138.1369   73.8179  220.8441 H   0  0  0  0  0  0  0  0  0  0  0  0
  137.8813   71.2885  220.5405 H   0  0  0  0  0  0  0  0  0  0  0  0
  138.5601   69.7598  221.2901 H   0  0  0  0  0  0  0  0  0  0  0  0
  135.8174   70.9312  221.4859 H   0  0  0  0  0  0  0  0  0  0  0  0
  136.3838   69.2651  220.9972 H   0  0  0  0  0  0  0  0  0  0  0  0
  135.2478   69.5162  223.2611 H   0  0  0  0  0  0  0  0  0  0  0  0
  136.8445   68.6476  223.1640 H   0  0  0  0  0  0  0  0  0  0  0  0
  136.3424   71.4787  224.1134 H   0  0  0  0  0  0  0  0  0  0  0  0
  136.8440   70.0313  225.0916 H   0  0  0  0  0  0  0  0  0  0  0  0
  138.7839   71.5653  224.5767 H   0  0  0  0  0  0  0  0  0  0  0  0
  138.8408   68.7211  223.2461 H   0  0  0  0  0  0  0  0  0  0  0  0
  140.7436   68.5420  224.6770 H   0  0  0  0  0  0  0  0  0  0  0  0
  141.4503   71.6813  224.9606 H   0  0  0  0  0  0  0  0  0  0  0  0
  141.7939   73.1231  226.9110 H   0  0  0  0  0  0  0  0  0  0  0  0
  140.8018   72.5386  229.1018 H   0  0  0  0  0  0  0  0  0  0  0  0
  139.4471   70.4654  229.3049 H   0  0  0  0  0  0  0  0  0  0  0  0
  139.1017   69.0286  227.3473 H   0  0  0  0  0  0  0  0  0  0  0  0
  137.0227   78.5648  222.8429 H   0  0  0  0  0  0  0  0  0  0  0  0
  138.0597   80.6933  223.5314 H   0  0  0  0  0  0  0  0  0  0  0  0
  139.9824   81.9718  224.0051 H   0  0  0  0  0  0  0  0  0  0  0  0
  143.8289   80.1573  223.6351 H   0  0  0  0  0  0  0  0  0  0  0  0
  142.8183   78.0252  222.9499 H   0  0  0  0  0  0  0  0  0  0  0  0
  1  2  2  0
  2  3  1  0
  3  4  1  0
  4  5  1  0
  5  6  2  0
  5  7  1  0
  7  8  1  0
  8  9  1  0
  9 10  1  0
 10 11  1  0
 11 12  1  0
 12 13  1  0
 13 14  2  0
 14 15  1  0
 15 16  2  0
 16 17  1  0
 17 18  2  0
 18 19  1  0
 19 20  2  0
  2 21  1  0
 21 22  2  0
 22 23  1  0
 23 24  2  0
 24 25  1  0
 25 26  2  0
 26 27  1  0
 26 28  1  0
 28 29  2  0
 29 30  1  0
 30 31  2  0
 12  7  1  0
 20 15  1  0
 31 21  1  0
 30 24  1  0
  3 32  1  0
  4 33  1  0
  4 34  1  0
  8 35  1  0
  8 36  1  0
  9 37  1  0
  9 38  1  0
 10 39  1  0
 10 40  1  0
 11 41  1  0
 11 42  1  0
 12 43  1  1
 13 44  1  0
 14 45  1  0
 16 46  1  0
 17 47  1  0
 18 48  1  0
 19 49  1  0
 20 50  1  0
 22 51  1  0
 23 52  1  0
 25 53  1  0
 28 54  1  0
 29 55  1  0
M  END
>  <smiles>  (68) 
O=C(NCC(=O)N1CCCCC1/C=C/c1ccccc1)c1ccc2cc(F)ccc2n1

>  <score_type>  (68) 
oracle

>  <origin>  (68) 
autodockgpu

>  <m_score__min__energy>  (68) 
-9.1899999999999995

>  <m_primary>  (68) 
energy

>  <rmsd>  (68) 
8.581424465570462

>  <m_score__min__rmsd>  (68) 
8.581424465570462

>  <meeko>  (68) 
{"free_energy": -8.47, "intermolecular_energy": -10.56, "internal_energy": -2.22, "cluster_size": 22, "cluster_id": 4, "rank_in_cluster": 13}

>  <energy>  (68) 
-9.07

>  <cluster_rmsd>  (68) 
0.0

>  <cluster>  (68) 
2

$$$$

     RDKit          3D

 55 58  0  0  0  0  0  0  0  0999 V2000
  141.6800   73.5460  221.0040 O   0  0  0  0  0  0  0  0  0  0  0  0
  140.8700   74.3410  221.5930 C   0  0  0  0  0  0  0  0  0  0  0  0
  139.7340   73.8660  222.3060 N   0  0  0  0  0  0  0  0  0  0  0  0
  139.5090   72.4340  222.3540 C   0  0  0  0  0  0  0  0  0  0  0  0
  138.0290   72.1800  222.4050 C   0  0  0  0  0  0  0  0  0  0  0  0
  137.1970   73.1060  222.1290 O   0  0  0  0  0  0  0  0  0  0  0  0
  137.5850   70.8770  222.7720 N   0  0  0  0  0  0  0  0  0  0  0  0
  136.8850   69.9930  221.8610 C   0  0  0  0  0  0  0  0  0  0  0  0
  135.6650   69.3580  222.4390 C   0  0  0  0  0  0  0  0  0  0  0  0
  135.8340   68.9320  223.8740 C   0  0  0  0  0  0  0  0  0  0  0  0
  136.5270   69.9750  224.7110 C   0  0  0  0  0  0  0  0  0  0  0  0
  137.8430   70.4100  224.1100 C   0  0  1  0  0  0  0  0  0  0  0  0
  138.7160   69.1910  224.0750 C   0  0  0  0  0  0  0  0  0  0  0  0
  139.5390   68.9520  225.0640 C   0  0  0  0  0  0  0  0  0  0  0  0
  139.9780   69.9410  226.0380 C   0  0  0  0  0  0  0  0  0  0  0  0
  139.6000   69.8520  227.3830 C   0  0  0  0  0  0  0  0  0  0  0  0
  140.0040   70.7740  228.3170 C   0  0  0  0  0  0  0  0  0  0  0  0
  140.8030   71.8290  227.9590 C   0  0  0  0  0  0  0  0  0  0  0  0
  141.1930   71.9500  226.6470 C   0  0  0  0  0  0  0  0  0  0  0  0
  140.7800   71.0160  225.7220 C   0  0  0  0  0  0  0  0  0  0  0  0
  141.1110   75.7950  221.5360 C   0  0  0  0  0  0  0  0  0  0  0  0
  141.6380   76.3460  220.3810 C   0  0  0  0  0  0  0  0  0  0  0  0
  141.8790   77.6940  220.2790 C   0  0  0  0  0  0  0  0  0  0  0  0
  141.5940   78.5160  221.3450 C   0  0  0  0  0  0  0  0  0  0  0  0
  141.8400   79.8570  221.2310 C   0  0  0  0  0  0  0  0  0  0  0  0
  141.5520   80.6910  222.3080 C   0  0  0  0  0  0  0  0  0  0  0  0
  141.7940   82.0320  222.2040 F   0  0  0  0  0  0  0  0  0  0  0  0
  141.0360   80.1140  223.4270 C   0  0  0  0  0  0  0  0  0  0  0  0
  140.7840   78.7620  223.5500 C   0  0  0  0  0  0  0  0  0  0  0  0
  141.0710   77.9210  222.4730 C   0  0  0  0  0  0  0  0  0  0  0  0
  140.8400   76.6000  222.5590 N   0  0  0  0  0  0  0  0  0  0  0  0
  139.0860   74.5370  222.7800 H   0  0  0  0  0  0  0  0  0  0  0  0
  139.9348   71.9622  221.4562 H   0  0  0  0  0  0  0  0  0  0  0  0
  139.9931   72.0084  223.2453 H   0  0  0  0  0  0  0  0  0  0  0  0
  136.5846   70.5758  220.9778 H   0  0  0  0  0  0  0  0  0  0  0  0
  137.5804   69.1762  221.6174 H   0  0  0  0  0  0  0  0  0  0  0  0
  134.8372   70.0804  222.3851 H   0  0  0  0  0  0  0  0  0  0  0  0
  135.4634   68.4495  221.8525 H   0  0  0  0  0  0  0  0  0  0  0  0
  134.8398   68.7393  224.3035 H   0  0  0  0  0  0  0  0  0  0  0  0
  136.4616   68.0287  223.8812 H   0  0  0  0  0  0  0  0  0  0  0  0
  135.8701   70.8530  224.7975 H   0  0  0  0  0  0  0  0  0  0  0  0
  136.7366   69.5319  225.6957 H   0  0  0  0  0  0  0  0  0  0  0  0
  138.3275   71.2137  224.6838 H   0  0  0  0  0  0  0  0  0  0  0  0
  138.6647   68.5000  223.2207 H   0  0  0  0  0  0  0  0  0  0  0  0
  139.9278   67.9282  225.1670 H   0  0  0  0  0  0  0  0  0  0  0  0
  138.9590   69.0169  227.7018 H   0  0  0  0  0  0  0  0  0  0  0  0
  139.6831   70.6649  229.3635 H   0  0  0  0  0  0  0  0  0  0  0  0
  141.1262   72.5658  228.7091 H   0  0  0  0  0  0  0  0  0  0  0  0
  141.8325   72.7893  226.3363 H   0  0  0  0  0  0  0  0  0  0  0  0
  141.1071   71.1345  224.6785 H   0  0  0  0  0  0  0  0  0  0  0  0
  141.8684   75.6911  219.5277 H   0  0  0  0  0  0  0  0  0  0  0  0
  142.2968   78.1136  219.3520 H   0  0  0  0  0  0  0  0  0  0  0  0
  142.2593   80.2703  220.3018 H   0  0  0  0  0  0  0  0  0  0  0  0
  140.8059   80.7632  224.2847 H   0  0  0  0  0  0  0  0  0  0  0  0
  140.3640   78.3541  224.4813 H   0  0  0  0  0  0  0  0  0  0  0  0
  1  2  2  0
  2  3  1  0
  3  4  1  0
  4  5  1  0
  5  6  2  0
  5  7  1  0
  7  8  1  0
  8  9  1  0
  9 10  1  0
 10 11  1  0
 11 12  1  0
 12 13  1  0
 13 14  2  0
 14 15  1  0
 15 16  2  0
 16 17  1  0
 17 18  2  0
 18 19  1  0
 19 20  2  0
  2 21  1  0
 21 22  2  0
 22 23  1  0
 23 24  2  0
 24 25  1  0
 25 26  2  0
 26 27  1  0
 26 28  1  0
 28 29  2  0
 29 30  1  0
 30 31  2  0
 12  7  1  0
 20 15  1  0
 31 21  1  0
 30 24  1  0
  3 32  1  0
  4 33  1  0
  4 34  1  0
  8 35  1  0
  8 36  1  0
  9 37  1  0
  9 38  1  0
 10 39  1  0
 10 40  1  0
 11 41  1  0
 11 42  1  0
 12 43  1  1
 13 44  1  0
 14 45  1  0
 16 46  1  0
 17 47  1  0
 18 48  1  0
 19 49  1  0
 20 50  1  0
 22 51  1  0
 23 52  1  0
 25 53  1  0
 28 54  1  0
 29 55  1  0
M  END
>  <smiles>  (69) 
O=C(NCC(=O)N1CCCCC1/C=C/c1ccccc1)c1ccc2cc(F)ccc2n1

>  <score_type>  (69) 
oracle

>  <origin>  (69) 
autodockgpu

>  <m_score__min__energy>  (69) 
-9.1899999999999995

>  <m_primary>  (69) 
energy

>  <rmsd>  (69) 
8.620474640740884

>  <m_score__min__rmsd>  (69) 
8.620474640740884

>  <meeko>  (69) 
{"free_energy": -8.42, "intermolecular_energy": -10.51, "internal_energy": -2.04, "cluster_size": 22, "cluster_id": 4, "rank_in_cluster": 19}

>  <energy>  (69) 
-9.02

>  <cluster_rmsd>  (69) 
0.26

>  <cluster>  (69) 
2

$$$$

     RDKit          3D

 55 58  0  0  0  0  0  0  0  0999 V2000
  138.3490   76.0670  220.4520 O   0  0  0  0  0  0  0  0  0  0  0  0
  138.9220   76.0520  221.5940 C   0  0  0  0  0  0  0  0  0  0  0  0
  139.0730   74.8520  222.3440 N   0  0  0  0  0  0  0  0  0  0  0  0
  138.5550   73.6230  221.7760 C   0  0  0  0  0  0  0  0  0  0  0  0
  139.3440   72.4670  222.3240 C   0  0  0  0  0  0  0  0  0  0  0  0
  140.5450   72.6270  222.7220 O   0  0  0  0  0  0  0  0  0  0  0  0
  138.7120   71.1930  222.3830 N   0  0  0  0  0  0  0  0  0  0  0  0
  138.8330   70.1980  221.3350 C   0  0  0  0  0  0  0  0  0  0  0  0
  137.5380   69.5820  220.9220 C   0  0  0  0  0  0  0  0  0  0  0  0
  136.6110   69.3060  222.0770 C   0  0  0  0  0  0  0  0  0  0  0  0
  136.5460   70.4510  223.0530 C   0  0  0  0  0  0  0  0  0  0  0  0
  137.9130   70.8700  223.5380 C   0  0  1  0  0  0  0  0  0  0  0  0
  138.4910   69.6850  224.2540 C   0  0  0  0  0  0  0  0  0  0  0  0
  139.7290   69.7200  224.6750 C   0  0  0  0  0  0  0  0  0  0  0  0
  140.1770   70.4010  225.8810 C   0  0  0  0  0  0  0  0  0  0  0  0
  140.9730   71.5510  225.8120 C   0  0  0  0  0  0  0  0  0  0  0  0
  141.4060   72.2070  226.9370 C   0  0  0  0  0  0  0  0  0  0  0  0
  141.0690   71.7520  228.1870 C   0  0  0  0  0  0  0  0  0  0  0  0
  140.2900   70.6260  228.2940 C   0  0  0  0  0  0  0  0  0  0  0  0
  139.8630   69.9790  227.1550 C   0  0  0  0  0  0  0  0  0  0  0  0
  139.4440   77.3100  222.1610 C   0  0  0  0  0  0  0  0  0  0  0  0
  138.5560   78.2430  222.6640 C   0  0  0  0  0  0  0  0  0  0  0  0
  138.9930   79.4280  223.2020 C   0  0  0  0  0  0  0  0  0  0  0  0
  140.3420   79.6960  223.2430 C   0  0  0  0  0  0  0  0  0  0  0  0
  140.7650   80.8820  223.7810 C   0  0  0  0  0  0  0  0  0  0  0  0
  142.1290   81.1560  223.8220 C   0  0  0  0  0  0  0  0  0  0  0  0
  142.5620   82.3360  224.3580 F   0  0  0  0  0  0  0  0  0  0  0  0
  142.9740   80.2150  223.3180 C   0  0  0  0  0  0  0  0  0  0  0  0
  142.5560   79.0170  222.7740 C   0  0  0  0  0  0  0  0  0  0  0  0
  141.1880   78.7370  222.7290 C   0  0  0  0  0  0  0  0  0  0  0  0
  140.7460   77.5810  222.2060 N   0  0  0  0  0  0  0  0  0  0  0  0
  139.5460   74.8650  223.2780 H   0  0  0  0  0  0  0  0  0  0  0  0
  137.4949   73.5086  222.0464 H   0  0  0  0  0  0  0  0  0  0  0  0
  138.6441   73.6507  220.6800 H   0  0  0  0  0  0  0  0  0  0  0  0
  139.2827   70.6786  220.4536 H   0  0  0  0  0  0  0  0  0  0  0  0
  139.4534   69.3856  221.7414 H   0  0  0  0  0  0  0  0  0  0  0  0
  137.0326   70.2670  220.2254 H   0  0  0  0  0  0  0  0  0  0  0  0
  137.7732   68.6137  220.4561 H   0  0  0  0  0  0  0  0  0  0  0  0
  135.6010   69.1218  221.6820 H   0  0  0  0  0  0  0  0  0  0  0  0
  137.0014   68.4302  222.6160 H   0  0  0  0  0  0  0  0  0  0  0  0
  136.0675   71.3097  222.5593 H   0  0  0  0  0  0  0  0  0  0  0  0
  135.9677   70.1156  223.9265 H   0  0  0  0  0  0  0  0  0  0  0  0
  137.8775   71.7430  224.2063 H   0  0  0  0  0  0  0  0  0  0  0  0
  137.8755   68.7894  224.4244 H   0  0  0  0  0  0  0  0  0  0  0  0
  140.4869   69.1965  224.0737 H   0  0  0  0  0  0  0  0  0  0  0  0
  141.2604   71.9411  224.8245 H   0  0  0  0  0  0  0  0  0  0  0  0
  142.0299   73.1072  226.8356 H   0  0  0  0  0  0  0  0  0  0  0  0
  141.4166   72.2798  229.0873 H   0  0  0  0  0  0  0  0  0  0  0  0
  140.0080   70.2421  229.2855 H   0  0  0  0  0  0  0  0  0  0  0  0
  139.2397   69.0797  227.2682 H   0  0  0  0  0  0  0  0  0  0  0  0
  137.4770   78.0313  222.6324 H   0  0  0  0  0  0  0  0  0  0  0  0
  138.2706   80.1574  223.5971 H   0  0  0  0  0  0  0  0  0  0  0  0
  140.0378   81.6073  224.1749 H   0  0  0  0  0  0  0  0  0  0  0  0
  144.0541   80.4216  223.3459 H   0  0  0  0  0  0  0  0  0  0  0  0
  143.2878   78.2950  222.3825 H   0  0  0  0  0  0  0  0  0  0  0  0
  1  2  2  0
  2  3  1  0
  3  4  1  0
  4  5  1  0
  5  6  2  0
  5  7  1  0
  7  8  1  0
  8  9  1  0
  9 10  1  0
 10 11  1  0
 11 12  1  0
 12 13  1  0
 13 14  2  0
 14 15  1  0
 15 16  2  0
 16 17  1  0
 17 18  2  0
 18 19  1  0
 19 20  2  0
  2 21  1  0
 21 22  2  0
 22 23  1  0
 23 24  2  0
 24 25  1  0
 25 26  2  0
 26 27  1  0
 26 28  1  0
 28 29  2  0
 29 30  1  0
 30 31  2  0
 12  7  1  0
 20 15  1  0
 31 21  1  0
 30 24  1  0
  3 32  1  0
  4 33  1  0
  4 34  1  0
  8 35  1  0
  8 36  1  0
  9 37  1  0
  9 38  1  0
 10 39  1  0
 10 40  1  0
 11 41  1  0
 11 42  1  0
 12 43  1  1
 13 44  1  0
 14 45  1  0
 16 46  1  0
 17 47  1  0
 18 48  1  0
 19 49  1  0
 20 50  1  0
 22 51  1  0
 23 52  1  0
 25 53  1  0
 28 54  1  0
 29 55  1  0
M  END
>  <smiles>  (70) 
O=C(NCC(=O)N1CCCCC1/C=C/c1ccccc1)c1ccc2cc(F)ccc2n1

>  <score_type>  (70) 
oracle

>  <origin>  (70) 
autodockgpu

>  <m_score__min__energy>  (70) 
-9.1899999999999995

>  <m_primary>  (70) 
energy

>  <rmsd>  (70) 
8.450566304517219

>  <m_score__min__rmsd>  (70) 
8.450566304517219

>  <meeko>  (70) 
{"free_energy": -8.96, "intermolecular_energy": -11.05, "internal_energy": -1.78, "cluster_size": 22, "cluster_id": 4, "rank_in_cluster": 1}

>  <energy>  (70) 
-8.95

>  <cluster_rmsd>  (70) 
0.45

>  <cluster>  (70) 
2

$$$$

     RDKit          3D

 55 58  0  0  0  0  0  0  0  0999 V2000
  137.0740   76.1060  222.0460 O   0  0  0  0  0  0  0  0  0  0  0  0
  138.3320   76.1280  222.2680 C   0  0  0  0  0  0  0  0  0  0  0  0
  139.1360   74.9580  222.1640 N   0  0  0  0  0  0  0  0  0  0  0  0
  138.4870   73.7160  221.7920 C   0  0  0  0  0  0  0  0  0  0  0  0
  139.3020   72.5690  222.3190 C   0  0  0  0  0  0  0  0  0  0  0  0
  140.5310   72.7260  222.6240 O   0  0  0  0  0  0  0  0  0  0  0  0
  138.6630   71.3050  222.4660 N   0  0  0  0  0  0  0  0  0  0  0  0
  138.1420   70.5450  221.3470 C   0  0  0  0  0  0  0  0  0  0  0  0
  136.7620   70.0180  221.5530 C   0  0  0  0  0  0  0  0  0  0  0  0
  136.5180   69.5080  222.9490 C   0  0  0  0  0  0  0  0  0  0  0  0
  137.0650   70.4300  224.0070 C   0  0  0  0  0  0  0  0  0  0  0  0
  138.5250   70.7500  223.7890 C   0  0  1  0  0  0  0  0  0  0  0  0
  139.2630   69.4470  223.8840 C   0  0  0  0  0  0  0  0  0  0  0  0
  139.8970   69.1390  224.9860 C   0  0  0  0  0  0  0  0  0  0  0  0
  140.2570   70.0860  226.0310 C   0  0  0  0  0  0  0  0  0  0  0  0
  139.7550   69.9550  227.3320 C   0  0  0  0  0  0  0  0  0  0  0  0
  140.0830   70.8370  228.3320 C   0  0  0  0  0  0  0  0  0  0  0  0
  140.9250   71.8920  228.0870 C   0  0  0  0  0  0  0  0  0  0  0  0
  141.4350   72.0530  226.8230 C   0  0  0  0  0  0  0  0  0  0  0  0
  141.0980   71.1590  225.8300 C   0  0  0  0  0  0  0  0  0  0  0  0
  138.9800   77.3990  222.6460 C   0  0  0  0  0  0  0  0  0  0  0  0
  138.1910   78.4970  222.9340 C   0  0  0  0  0  0  0  0  0  0  0  0
  138.7460   79.7010  223.2910 C   0  0  0  0  0  0  0  0  0  0  0  0
  140.1150   79.8210  223.3640 C   0  0  0  0  0  0  0  0  0  0  0  0
  140.6550   81.0270  223.7190 C   0  0  0  0  0  0  0  0  0  0  0  0
  142.0400   81.1510  223.7920 C   0  0  0  0  0  0  0  0  0  0  0  0
  142.5900   82.3510  224.1480 F   0  0  0  0  0  0  0  0  0  0  0  0
  142.7850   80.0490  223.5020 C   0  0  0  0  0  0  0  0  0  0  0  0
  142.2470   78.8300  223.1420 C   0  0  0  0  0  0  0  0  0  0  0  0
  140.8580   78.7000  223.0670 C   0  0  0  0  0  0  0  0  0  0  0  0
  140.3020   77.5280  222.7190 N   0  0  0  0  0  0  0  0  0  0  0  0
  140.1650   75.0020  222.3510 H   0  0  0  0  0  0  0  0  0  0  0  0
  137.4767   73.6821  222.2257 H   0  0  0  0  0  0  0  0  0  0  0  0
  138.4087   73.6478  220.6969 H   0  0  0  0  0  0  0  0  0  0  0  0
  138.1330   71.1976  220.4615 H   0  0  0  0  0  0  0  0  0  0  0  0
  138.7986   69.6707  221.2267 H   0  0  0  0  0  0  0  0  0  0  0  0
  136.0456   70.8270  221.3473 H   0  0  0  0  0  0  0  0  0  0  0  0
  136.6347   69.1657  220.8693 H   0  0  0  0  0  0  0  0  0  0  0  0
  135.4337   69.4019  223.1007 H   0  0  0  0  0  0  0  0  0  0  0  0
  137.0380   68.5436  223.0467 H   0  0  0  0  0  0  0  0  0  0  0  0
  136.4908   71.3681  223.9900 H   0  0  0  0  0  0  0  0  0  0  0  0
  136.9733   69.9206  224.9776 H   0  0  0  0  0  0  0  0  0  0  0  0
  138.9169   71.4689  224.5235 H   0  0  0  0  0  0  0  0  0  0  0  0
  139.2709   68.7534  223.0303 H   0  0  0  0  0  0  0  0  0  0  0  0
  140.1790   68.0861  225.1339 H   0  0  0  0  0  0  0  0  0  0  0  0
  139.0768   69.1194  227.5598 H   0  0  0  0  0  0  0  0  0  0  0  0
  139.6662   70.6961  229.3402 H   0  0  0  0  0  0  0  0  0  0  0  0
  141.1869   72.5968  228.8899 H   0  0  0  0  0  0  0  0  0  0  0  0
  142.1105   72.8929  226.6033 H   0  0  0  0  0  0  0  0  0  0  0  0
  141.5217   71.3095  224.8261 H   0  0  0  0  0  0  0  0  0  0  0  0
  137.0965   78.4042  222.8760 H   0  0  0  0  0  0  0  0  0  0  0  0
  138.1013   80.5631  223.5170 H   0  0  0  0  0  0  0  0  0  0  0  0
  140.0049   81.8855  223.9433 H   0  0  0  0  0  0  0  0  0  0  0  0
  143.8802   80.1352  223.5579 H   0  0  0  0  0  0  0  0  0  0  0  0
  142.9013   77.9747  222.9178 H   0  0  0  0  0  0  0  0  0  0  0  0
  1  2  2  0
  2  3  1  0
  3  4  1  0
  4  5  1  0
  5  6  2  0
  5  7  1  0
  7  8  1  0
  8  9  1  0
  9 10  1  0
 10 11  1  0
 11 12  1  0
 12 13  1  0
 13 14  2  0
 14 15  1  0
 15 16  2  0
 16 17  1  0
 17 18  2  0
 18 19  1  0
 19 20  2  0
  2 21  1  0
 21 22  2  0
 22 23  1  0
 23 24  2  0
 24 25  1  0
 25 26  2  0
 26 27  1  0
 26 28  1  0
 28 29  2  0
 29 30  1  0
 30 31  2  0
 12  7  1  0
 20 15  1  0
 31 21  1  0
 30 24  1  0
  3 32  1  0
  4 33  1  0
  4 34  1  0
  8 35  1  0
  8 36  1  0
  9 37  1  0
  9 38  1  0
 10 39  1  0
 10 40  1  0
 11 41  1  0
 11 42  1  0
 12 43  1  1
 13 44  1  0
 14 45  1  0
 16 46  1  0
 17 47  1  0
 18 48  1  0
 19 49  1  0
 20 50  1  0
 22 51  1  0
 23 52  1  0
 25 53  1  0
 28 54  1  0
 29 55  1  0
M  END
>  <smiles>  (71) 
O=C(NCC(=O)N1CCCCC1/C=C/c1ccccc1)c1ccc2cc(F)ccc2n1

>  <score_type>  (71) 
oracle

>  <origin>  (71) 
autodockgpu

>  <m_score__min__energy>  (71) 
-9.1899999999999995

>  <m_primary>  (71) 
energy

>  <rmsd>  (71) 
8.528176316059545

>  <m_score__min__rmsd>  (71) 
8.528176316059545

>  <meeko>  (71) 
{"free_energy": -8.56, "intermolecular_energy": -10.65, "internal_energy": -2.23, "cluster_size": 22, "cluster_id": 4, "rank_in_cluster": 4}

>  <energy>  (71) 
-8.88

>  <cluster_rmsd>  (71) 
0.52

>  <cluster>  (71) 
2

$$$$

     RDKit          3D

 55 58  0  0  0  0  0  0  0  0999 V2000
  137.2470   75.9740  222.2150 O   0  0  0  0  0  0  0  0  0  0  0  0
  138.5200   76.0690  222.2810 C   0  0  0  0  0  0  0  0  0  0  0  0
  139.3740   74.9730  221.9780 N   0  0  0  0  0  0  0  0  0  0  0  0
  138.7610   73.7200  221.5830 C   0  0  0  0  0  0  0  0  0  0  0  0
  139.4390   72.5980  222.3180 C   0  0  0  0  0  0  0  0  0  0  0  0
  140.5950   72.7580  222.8310 O   0  0  0  0  0  0  0  0  0  0  0  0
  138.7530   71.3540  222.4210 N   0  0  0  0  0  0  0  0  0  0  0  0
  138.2770   70.6130  221.2700 C   0  0  0  0  0  0  0  0  0  0  0  0
  136.8710   70.1290  221.3900 C   0  0  0  0  0  0  0  0  0  0  0  0
  136.5270   69.6240  222.7670 C   0  0  0  0  0  0  0  0  0  0  0  0
  137.0380   70.5270  223.8590 C   0  0  0  0  0  0  0  0  0  0  0  0
  138.5170   70.8010  223.7310 C   0  0  1  0  0  0  0  0  0  0  0  0
  139.2070   69.4760  223.8660 C   0  0  0  0  0  0  0  0  0  0  0  0
  139.7270   69.1290  225.0150 C   0  0  0  0  0  0  0  0  0  0  0  0
  140.1550   70.0590  226.0500 C   0  0  0  0  0  0  0  0  0  0  0  0
  141.0390   71.1060  225.7630 C   0  0  0  0  0  0  0  0  0  0  0  0
  141.4540   71.9940  226.7250 C   0  0  0  0  0  0  0  0  0  0  0  0
  141.0090   71.8850  228.0180 C   0  0  0  0  0  0  0  0  0  0  0  0
  140.1410   70.8700  228.3360 C   0  0  0  0  0  0  0  0  0  0  0  0
  139.7330   69.9860  227.3600 C   0  0  0  0  0  0  0  0  0  0  0  0
  139.1300   77.3500  222.6850 C   0  0  0  0  0  0  0  0  0  0  0  0
  138.3100   78.4030  223.0500 C   0  0  0  0  0  0  0  0  0  0  0  0
  138.8300   79.6140  223.4340 C   0  0  0  0  0  0  0  0  0  0  0  0
  140.1950   79.7880  223.4560 C   0  0  0  0  0  0  0  0  0  0  0  0
  140.7010   81.0010  223.8390 C   0  0  0  0  0  0  0  0  0  0  0  0
  142.0820   81.1800  223.8610 C   0  0  0  0  0  0  0  0  0  0  0  0
  142.5970   82.3870  224.2430 F   0  0  0  0  0  0  0  0  0  0  0  0
  142.8580   80.1240  223.4950 C   0  0  0  0  0  0  0  0  0  0  0  0
  142.3550   78.8980  223.1070 C   0  0  0  0  0  0  0  0  0  0  0  0
  140.9710   78.7120  223.0830 C   0  0  0  0  0  0  0  0  0  0  0  0
  140.4480   77.5320  222.7090 N   0  0  0  0  0  0  0  0  0  0  0  0
  140.4140   75.0770  222.0400 H   0  0  0  0  0  0  0  0  0  0  0  0
  137.6909   73.7354  221.8371 H   0  0  0  0  0  0  0  0  0  0  0  0
  138.8692   73.5760  220.4978 H   0  0  0  0  0  0  0  0  0  0  0  0
  138.3420   71.2673  220.3881 H   0  0  0  0  0  0  0  0  0  0  0  0
  138.9119   69.7186  221.1866 H   0  0  0  0  0  0  0  0  0  0  0  0
  136.1940   70.9605  221.1444 H   0  0  0  0  0  0  0  0  0  0  0  0
  136.7589   69.2825  220.6966 H   0  0  0  0  0  0  0  0  0  0  0  0
  135.4327   69.5518  222.8527 H   0  0  0  0  0  0  0  0  0  0  0  0
  137.0091   68.6433  222.8925 H   0  0  0  0  0  0  0  0  0  0  0  0
  136.4957   71.4828  223.8103 H   0  0  0  0  0  0  0  0  0  0  0  0
  136.8719   70.0193  224.8206 H   0  0  0  0  0  0  0  0  0  0  0  0
  138.8854   71.5060  224.4907 H   0  0  0  0  0  0  0  0  0  0  0  0
  139.2755   68.7987  223.0020 H   0  0  0  0  0  0  0  0  0  0  0  0
  139.8501   68.0542  225.2141 H   0  0  0  0  0  0  0  0  0  0  0  0
  141.4129   71.2210  224.7349 H   0  0  0  0  0  0  0  0  0  0  0  0
  142.1508   72.8014  226.4557 H   0  0  0  0  0  0  0  0  0  0  0  0
  141.3418   72.5983  228.7865 H   0  0  0  0  0  0  0  0  0  0  0  0
  139.7721   70.7624  229.3667 H   0  0  0  0  0  0  0  0  0  0  0  0
  139.0361   69.1825  227.6407 H   0  0  0  0  0  0  0  0  0  0  0  0
  137.2186   78.2669  223.0321 H   0  0  0  0  0  0  0  0  0  0  0  0
  138.1612   80.4385  223.7218 H   0  0  0  0  0  0  0  0  0  0  0  0
  140.0270   81.8219  224.1251 H   0  0  0  0  0  0  0  0  0  0  0  0
  143.9501   80.2546  223.5090 H   0  0  0  0  0  0  0  0  0  0  0  0
  143.0336   78.0808  222.8213 H   0  0  0  0  0  0  0  0  0  0  0  0
  1  2  2  0
  2  3  1  0
  3  4  1  0
  4  5  1  0
  5  6  2  0
  5  7  1  0
  7  8  1  0
  8  9  1  0
  9 10  1  0
 10 11  1  0
 11 12  1  0
 12 13  1  0
 13 14  2  0
 14 15  1  0
 15 16  2  0
 16 17  1  0
 17 18  2  0
 18 19  1  0
 19 20  2  0
  2 21  1  0
 21 22  2  0
 22 23  1  0
 23 24  2  0
 24 25  1  0
 25 26  2  0
 26 27  1  0
 26 28  1  0
 28 29  2  0
 29 30  1  0
 30 31  2  0
 12  7  1  0
 20 15  1  0
 31 21  1  0
 30 24  1  0
  3 32  1  0
  4 33  1  0
  4 34  1  0
  8 35  1  0
  8 36  1  0
  9 37  1  0
  9 38  1  0
 10 39  1  0
 10 40  1  0
 11 41  1  0
 11 42  1  0
 12 43  1  1
 13 44  1  0
 14 45  1  0
 16 46  1  0
 17 47  1  0
 18 48  1  0
 19 49  1  0
 20 50  1  0
 22 51  1  0
 23 52  1  0
 25 53  1  0
 28 54  1  0
 29 55  1  0
M  END
>  <smiles>  (72) 
O=C(NCC(=O)N1CCCCC1/C=C/c1ccccc1)c1ccc2cc(F)ccc2n1

>  <score_type>  (72) 
oracle

>  <origin>  (72) 
autodockgpu

>  <m_score__min__energy>  (72) 
-9.1899999999999995

>  <m_primary>  (72) 
energy

>  <rmsd>  (72) 
8.476478560245315

>  <m_score__min__rmsd>  (72) 
8.476478560245315

>  <meeko>  (72) 
{"free_energy": -8.69, "intermolecular_energy": -10.77, "internal_energy": -2.1, "cluster_size": 22, "cluster_id": 4, "rank_in_cluster": 2}

>  <energy>  (72) 
-8.67

>  <cluster_rmsd>  (72) 
0.67

>  <cluster>  (72) 
2

$$$$

     RDKit          3D

 55 58  0  0  0  0  0  0  0  0999 V2000
  138.0690   70.7910  221.8910 O   0  0  0  0  0  0  0  0  0  0  0  0
  138.8210   71.2910  222.7960 C   0  0  0  0  0  0  0  0  0  0  0  0
  139.3220   72.6190  222.7100 N   0  0  0  0  0  0  0  0  0  0  0  0
  138.9550   73.4120  221.5520 C   0  0  0  0  0  0  0  0  0  0  0  0
  139.4850   74.8070  221.7350 C   0  0  0  0  0  0  0  0  0  0  0  0
  140.7100   75.0070  222.0270 O   0  0  0  0  0  0  0  0  0  0  0  0
  138.5790   75.8940  221.5740 N   0  0  0  0  0  0  0  0  0  0  0  0
  137.1570   75.7150  221.3530 C   0  0  0  0  0  0  0  0  0  0  0  0
  136.6000   76.5390  220.2410 C   0  0  0  0  0  0  0  0  0  0  0  0
  137.1700   77.9320  220.1850 C   0  0  0  0  0  0  0  0  0  0  0  0
  138.6650   77.9540  220.3740 C   0  0  0  0  0  0  0  0  0  0  0  0
  139.0940   77.2380  221.6330 C   0  0  1  0  0  0  0  0  0  0  0  0
  138.4710   77.9830  222.7770 C   0  0  0  0  0  0  0  0  0  0  0  0
  138.8350   79.2140  223.0260 C   0  0  0  0  0  0  0  0  0  0  0  0
  140.2140   79.6710  223.1190 C   0  0  0  0  0  0  0  0  0  0  0  0
  141.2670   78.7660  223.2990 C   0  0  0  0  0  0  0  0  0  0  0  0
  142.5750   79.1770  223.3900 C   0  0  0  0  0  0  0  0  0  0  0  0
  142.8980   80.5070  223.3050 C   0  0  0  0  0  0  0  0  0  0  0  0
  141.8920   81.4240  223.1300 C   0  0  0  0  0  0  0  0  0  0  0  0
  140.5840   80.9970  223.0400 C   0  0  0  0  0  0  0  0  0  0  0  0
  139.1860   70.4730  223.9680 C   0  0  0  0  0  0  0  0  0  0  0  0
  138.8900   69.1210  223.9660 C   0  0  0  0  0  0  0  0  0  0  0  0
  139.2100   68.3180  225.0330 C   0  0  0  0  0  0  0  0  0  0  0  0
  139.8380   68.8660  226.1280 C   0  0  0  0  0  0  0  0  0  0  0  0
  140.1500   68.0540  227.1860 C   0  0  0  0  0  0  0  0  0  0  0  0
  140.7840   68.6070  228.2950 C   0  0  0  0  0  0  0  0  0  0  0  0
  141.1020   67.8040  229.3560 F   0  0  0  0  0  0  0  0  0  0  0  0
  141.0600   69.9390  228.2630 C   0  0  0  0  0  0  0  0  0  0  0  0
  140.7480   70.7630  227.2010 C   0  0  0  0  0  0  0  0  0  0  0  0
  140.1110   70.2150  226.0850 C   0  0  0  0  0  0  0  0  0  0  0  0
  139.7920   70.9900  225.0340 N   0  0  0  0  0  0  0  0  0  0  0  0
  139.9360   73.0060  223.4650 H   0  0  0  0  0  0  0  0  0  0  0  0
  139.3905   72.9666  220.6454 H   0  0  0  0  0  0  0  0  0  0  0  0
  137.8603   73.4379  221.4473 H   0  0  0  0  0  0  0  0  0  0  0  0
  136.9751   74.6552  221.1210 H   0  0  0  0  0  0  0  0  0  0  0  0
  136.6514   76.0441  222.2728 H   0  0  0  0  0  0  0  0  0  0  0  0
  136.8197   76.0339  219.2889 H   0  0  0  0  0  0  0  0  0  0  0  0
  135.5191   76.6375  220.4198 H   0  0  0  0  0  0  0  0  0  0  0  0
  136.9322   78.3709  219.2048 H   0  0  0  0  0  0  0  0  0  0  0  0
  136.7215   78.5090  221.0072 H   0  0  0  0  0  0  0  0  0  0  0  0
  139.1381   77.4645  219.5099 H   0  0  0  0  0  0  0  0  0  0  0  0
  138.9779   79.0050  220.4612 H   0  0  0  0  0  0  0  0  0  0  0  0
  140.1872   77.1993  221.7489 H   0  0  0  0  0  0  0  0  0  0  0  0
  137.7104   77.4950  223.4042 H   0  0  0  0  0  0  0  0  0  0  0  0
  138.0403   79.9595  223.1763 H   0  0  0  0  0  0  0  0  0  0  0  0
  141.0400   77.6920  223.3698 H   0  0  0  0  0  0  0  0  0  0  0  0
  143.3712   78.4315  223.5325 H   0  0  0  0  0  0  0  0  0  0  0  0
  143.9460   80.8335  223.3759 H   0  0  0  0  0  0  0  0  0  0  0  0
  142.1284   82.4961  223.0618 H   0  0  0  0  0  0  0  0  0  0  0  0
  139.7965   81.7517  222.8981 H   0  0  0  0  0  0  0  0  0  0  0  0
  138.3881   68.6807  223.0918 H   0  0  0  0  0  0  0  0  0  0  0  0
  138.9664   67.2455  225.0126 H   0  0  0  0  0  0  0  0  0  0  0  0
  139.9035   66.9823  227.1597 H   0  0  0  0  0  0  0  0  0  0  0  0
  141.5612   70.3851  229.1347 H   0  0  0  0  0  0  0  0  0  0  0  0
  140.9969   71.8340  227.2327 H   0  0  0  0  0  0  0  0  0  0  0  0
  1  2  2  0
  2  3  1  0
  3  4  1  0
  4  5  1  0
  5  6  2  0
  5  7  1  0
  7  8  1  0
  8  9  1  0
  9 10  1  0
 10 11  1  0
 11 12  1  0
 12 13  1  0
 13 14  2  0
 14 15  1  0
 15 16  2  0
 16 17  1  0
 17 18  2  0
 18 19  1  0
 19 20  2  0
  2 21  1  0
 21 22  2  0
 22 23  1  0
 23 24  2  0
 24 25  1  0
 25 26  2  0
 26 27  1  0
 26 28  1  0
 28 29  2  0
 29 30  1  0
 30 31  2  0
 12  7  1  0
 20 15  1  0
 31 21  1  0
 30 24  1  0
  3 32  1  0
  4 33  1  0
  4 34  1  0
  8 35  1  0
  8 36  1  0
  9 37  1  0
  9 38  1  0
 10 39  1  0
 10 40  1  0
 11 41  1  0
 11 42  1  0
 12 43  1  1
 13 44  1  0
 14 45  1  0
 16 46  1  0
 17 47  1  0
 18 48  1  0
 19 49  1  0
 20 50  1  0
 22 51  1  0
 23 52  1  0
 25 53  1  0
 28 54  1  0
 29 55  1  0
M  END
>  <smiles>  (73) 
O=C(NCC(=O)N1CCCCC1/C=C/c1ccccc1)c1ccc2cc(F)ccc2n1

>  <score_type>  (73) 
oracle

>  <origin>  (73) 
autodockgpu

>  <m_score__min__energy>  (73) 
-9.1899999999999995

>  <m_primary>  (73) 
energy

>  <rmsd>  (73) 
2.238284260441781

>  <m_score__min__rmsd>  (73) 
2.238284260441781

>  <meeko>  (73) 
{"free_energy": -8.58, "intermolecular_energy": -10.67, "internal_energy": -1.82, "cluster_size": 3, "cluster_id": 3, "rank_in_cluster": 2}

>  <energy>  (73) 
-8.48

>  <cluster_rmsd>  (73) 
1.37

>  <cluster>  (73) 
2

$$$$

     RDKit          3D

 55 58  0  0  0  0  0  0  0  0999 V2000
  137.1350   76.2060  221.9190 O   0  0  0  0  0  0  0  0  0  0  0  0
  138.3530   76.1940  222.3030 C   0  0  0  0  0  0  0  0  0  0  0  0
  139.1130   74.9930  222.3610 N   0  0  0  0  0  0  0  0  0  0  0  0
  138.4650   73.7570  221.9660 C   0  0  0  0  0  0  0  0  0  0  0  0
  139.3030   72.6010  222.4380 C   0  0  0  0  0  0  0  0  0  0  0  0
  140.5250   72.7690  222.7600 O   0  0  0  0  0  0  0  0  0  0  0  0
  138.6910   71.3170  222.5120 N   0  0  0  0  0  0  0  0  0  0  0  0
  138.3300   70.5420  221.3410 C   0  0  0  0  0  0  0  0  0  0  0  0
  136.9520   69.9710  221.3850 C   0  0  0  0  0  0  0  0  0  0  0  0
  136.5610   69.4520  222.7430 C   0  0  0  0  0  0  0  0  0  0  0  0
  136.9500   70.3910  223.8560 C   0  0  0  0  0  0  0  0  0  0  0  0
  138.4150   70.7570  223.8110 C   0  0  1  0  0  0  0  0  0  0  0  0
  139.1770   69.4780  223.9960 C   0  0  0  0  0  0  0  0  0  0  0  0
  140.2100   69.4480  224.7990 C   0  0  0  0  0  0  0  0  0  0  0  0
  140.3580   70.2670  225.9940 C   0  0  0  0  0  0  0  0  0  0  0  0
  141.0650   71.4750  225.9620 C   0  0  0  0  0  0  0  0  0  0  0  0
  141.2160   72.2620  227.0770 C   0  0  0  0  0  0  0  0  0  0  0  0
  140.6710   71.8860  228.2780 C   0  0  0  0  0  0  0  0  0  0  0  0
  139.9710   70.7060  228.3480 C   0  0  0  0  0  0  0  0  0  0  0  0
  139.8280   69.9280  227.2200 C   0  0  0  0  0  0  0  0  0  0  0  0
  139.0000   77.4590  222.7020 C   0  0  0  0  0  0  0  0  0  0  0  0
  138.2100   78.5320  223.0730 C   0  0  0  0  0  0  0  0  0  0  0  0
  138.7650   79.7300  223.4520 C   0  0  0  0  0  0  0  0  0  0  0  0
  140.1330   79.8680  223.4650 C   0  0  0  0  0  0  0  0  0  0  0  0
  140.6740   81.0680  223.8440 C   0  0  0  0  0  0  0  0  0  0  0  0
  142.0590   81.2100  223.8570 C   0  0  0  0  0  0  0  0  0  0  0  0
  142.6080   82.4040  224.2350 F   0  0  0  0  0  0  0  0  0  0  0  0
  142.8040   80.1340  223.4860 C   0  0  0  0  0  0  0  0  0  0  0  0
  142.2670   78.9210  223.1020 C   0  0  0  0  0  0  0  0  0  0  0  0
  140.8780   78.7720  223.0870 C   0  0  0  0  0  0  0  0  0  0  0  0
  140.3220   77.6060  222.7180 N   0  0  0  0  0  0  0  0  0  0  0  0
  140.1100   75.0090  222.6800 H   0  0  0  0  0  0  0  0  0  0  0  0
  137.4658   73.7006  222.4226 H   0  0  0  0  0  0  0  0  0  0  0  0
  138.3604   73.7218  220.8716 H   0  0  0  0  0  0  0  0  0  0  0  0
  138.4046   71.1950  220.4590 H   0  0  0  0  0  0  0  0  0  0  0  0
  139.0238   69.6893  221.3007 H   0  0  0  0  0  0  0  0  0  0  0  0
  136.2397   70.7572  221.0942 H   0  0  0  0  0  0  0  0  0  0  0  0
  136.9336   69.1156  220.6937 H   0  0  0  0  0  0  0  0  0  0  0  0
  135.4703   69.3112  222.7658 H   0  0  0  0  0  0  0  0  0  0  0  0
  137.0957   68.5043  222.9043 H   0  0  0  0  0  0  0  0  0  0  0  0
  136.3527   71.3105  223.7681 H   0  0  0  0  0  0  0  0  0  0  0  0
  136.7601   69.8786  224.8107 H   0  0  0  0  0  0  0  0  0  0  0  0
  138.6945   71.4873  224.5847 H   0  0  0  0  0  0  0  0  0  0  0  0
  138.8687   68.5690  223.4588 H   0  0  0  0  0  0  0  0  0  0  0  0
  141.0265   68.7531  224.5532 H   0  0  0  0  0  0  0  0  0  0  0  0
  141.5139   71.8042  225.0132 H   0  0  0  0  0  0  0  0  0  0  0  0
  141.7799   73.2038  227.0062 H   0  0  0  0  0  0  0  0  0  0  0  0
  140.7923   72.5183  229.1699 H   0  0  0  0  0  0  0  0  0  0  0  0
  139.5263   70.3836  229.3011 H   0  0  0  0  0  0  0  0  0  0  0  0
  139.2620   68.9884  227.3022 H   0  0  0  0  0  0  0  0  0  0  0  0
  137.1154   78.4238  223.0644 H   0  0  0  0  0  0  0  0  0  0  0  0
  138.1201   80.5723  223.7428 H   0  0  0  0  0  0  0  0  0  0  0  0
  140.0240   81.9068  224.1337 H   0  0  0  0  0  0  0  0  0  0  0  0
  143.8992   80.2362  223.4922 H   0  0  0  0  0  0  0  0  0  0  0  0
  142.9221   78.0860  222.8128 H   0  0  0  0  0  0  0  0  0  0  0  0
  1  2  2  0
  2  3  1  0
  3  4  1  0
  4  5  1  0
  5  6  2  0
  5  7  1  0
  7  8  1  0
  8  9  1  0
  9 10  1  0
 10 11  1  0
 11 12  1  0
 12 13  1  0
 13 14  2  0
 14 15  1  0
 15 16  2  0
 16 17  1  0
 17 18  2  0
 18 19  1  0
 19 20  2  0
  2 21  1  0
 21 22  2  0
 22 23  1  0
 23 24  2  0
 24 25  1  0
 25 26  2  0
 26 27  1  0
 26 28  1  0
 28 29  2  0
 29 30  1  0
 30 31  2  0
 12  7  1  0
 20 15  1  0
 31 21  1  0
 30 24  1  0
  3 32  1  0
  4 33  1  0
  4 34  1  0
  8 35  1  0
  8 36  1  0
  9 37  1  0
  9 38  1  0
 10 39  1  0
 10 40  1  0
 11 41  1  0
 11 42  1  0
 12 43  1  1
 13 44  1  0
 14 45  1  0
 16 46  1  0
 17 47  1  0
 18 48  1  0
 19 49  1  0
 20 50  1  0
 22 51  1  0
 23 52  1  0
 25 53  1  0
 28 54  1  0
 29 55  1  0
M  END
>  <smiles>  (74) 
O=C(NCC(=O)N1CCCCC1/C=C/c1ccccc1)c1ccc2cc(F)ccc2n1

>  <score_type>  (74) 
oracle

>  <origin>  (74) 
autodockgpu

>  <m_score__min__energy>  (74) 
-9.1899999999999995

>  <m_primary>  (74) 
energy

>  <rmsd>  (74) 
8.544906568150417

>  <m_score__min__rmsd>  (74) 
8.544906568150417

>  <meeko>  (74) 
{"free_energy": -8.48, "intermolecular_energy": -10.56, "internal_energy": -2.26, "cluster_size": 22, "cluster_id": 4, "rank_in_cluster": 11}

>  <energy>  (74) 
-9.0

>  <cluster_rmsd>  (74) 
0.0

>  <cluster>  (74) 
3

$$$$

     RDKit          3D

 55 58  0  0  0  0  0  0  0  0999 V2000
  139.3910   70.6780  221.2810 O   0  0  0  0  0  0  0  0  0  0  0  0
  139.1030   71.3800  222.3090 C   0  0  0  0  0  0  0  0  0  0  0  0
  138.3210   72.5650  222.2160 N   0  0  0  0  0  0  0  0  0  0  0  0
  137.8450   72.9670  220.9070 C   0  0  0  0  0  0  0  0  0  0  0  0
  138.0640   74.4460  220.7470 C   0  0  0  0  0  0  0  0  0  0  0  0
  137.0980   75.2680  220.8800 O   0  0  0  0  0  0  0  0  0  0  0  0
  139.3800   74.8990  220.4420 N   0  0  0  0  0  0  0  0  0  0  0  0
  139.8440   75.1340  219.0890 C   0  0  0  0  0  0  0  0  0  0  0  0
  141.1790   74.5400  218.7870 C   0  0  0  0  0  0  0  0  0  0  0  0
  142.1620   74.6680  219.9200 C   0  0  0  0  0  0  0  0  0  0  0  0
  141.5510   74.3380  221.2570 C   0  0  0  0  0  0  0  0  0  0  0  0
  140.2980   75.1360  221.5270 C   0  0  1  0  0  0  0  0  0  0  0  0
  140.7100   76.5780  221.5500 C   0  0  0  0  0  0  0  0  0  0  0  0
  140.8610   77.1930  222.6960 C   0  0  0  0  0  0  0  0  0  0  0  0
  141.3250   78.5640  222.8500 C   0  0  0  0  0  0  0  0  0  0  0  0
  141.3080   79.4600  221.7740 C   0  0  0  0  0  0  0  0  0  0  0  0
  141.7410   80.7570  221.8990 C   0  0  0  0  0  0  0  0  0  0  0  0
  142.2100   81.2260  223.0990 C   0  0  0  0  0  0  0  0  0  0  0  0
  142.2420   80.3760  224.1770 C   0  0  0  0  0  0  0  0  0  0  0  0
  141.8040   79.0770  224.0360 C   0  0  0  0  0  0  0  0  0  0  0  0
  139.5930   70.9600  223.6360 C   0  0  0  0  0  0  0  0  0  0  0  0
  140.3230   71.8530  224.3990 C   0  0  0  0  0  0  0  0  0  0  0  0
  140.8000   71.5090  225.6390 C   0  0  0  0  0  0  0  0  0  0  0  0
  140.5490   70.2500  226.1360 C   0  0  0  0  0  0  0  0  0  0  0  0
  141.0320   69.9190  227.3740 C   0  0  0  0  0  0  0  0  0  0  0  0
  140.7800   68.6460  227.8780 C   0  0  0  0  0  0  0  0  0  0  0  0
  141.2560   68.3060  229.1140 F   0  0  0  0  0  0  0  0  0  0  0  0
  140.0580   67.7940  227.1000 C   0  0  0  0  0  0  0  0  0  0  0  0
  139.5690   68.1200  225.8510 C   0  0  0  0  0  0  0  0  0  0  0  0
  139.8190   69.3960  225.3390 C   0  0  0  0  0  0  0  0  0  0  0  0
  139.3580   69.7460  224.1270 N   0  0  0  0  0  0  0  0  0  0  0  0
  138.0980   73.1240  223.0740 H   0  0  0  0  0  0  0  0  0  0  0  0
  138.4010   72.4242  220.1283 H   0  0  0  0  0  0  0  0  0  0  0  0
  136.7743   72.7343  220.8101 H   0  0  0  0  0  0  0  0  0  0  0  0
  139.1094   74.7029  218.3929 H   0  0  0  0  0  0  0  0  0  0  0  0
  139.9505   76.2231  218.9767 H   0  0  0  0  0  0  0  0  0  0  0  0
  141.0425   73.4717  218.5632 H   0  0  0  0  0  0  0  0  0  0  0  0
  141.5948   75.0946  217.9329 H   0  0  0  0  0  0  0  0  0  0  0  0
  143.0017   73.9813  219.7372 H   0  0  0  0  0  0  0  0  0  0  0  0
  142.4952   75.7157  219.9554 H   0  0  0  0  0  0  0  0  0  0  0  0
  141.2995   73.2673  221.2764 H   0  0  0  0  0  0  0  0  0  0  0  0
  142.2860   74.5922  222.0349 H   0  0  0  0  0  0  0  0  0  0  0  0
  139.8144   74.8583  222.4752 H   0  0  0  0  0  0  0  0  0  0  0  0
  140.8847   77.1171  220.6072 H   0  0  0  0  0  0  0  0  0  0  0  0
  140.6191   76.6317  223.6106 H   0  0  0  0  0  0  0  0  0  0  0  0
  140.9362   79.1140  220.7983 H   0  0  0  0  0  0  0  0  0  0  0  0
  141.7113   81.4270  221.0271 H   0  0  0  0  0  0  0  0  0  0  0  0
  142.5549   82.2660  223.1966 H   0  0  0  0  0  0  0  0  0  0  0  0
  142.6157   80.7305  225.1490 H   0  0  0  0  0  0  0  0  0  0  0  0
  141.8385   78.4161  224.9146 H   0  0  0  0  0  0  0  0  0  0  0  0
  140.5254   72.8595  224.0040 H   0  0  0  0  0  0  0  0  0  0  0  0
  141.3783   72.2336  226.2311 H   0  0  0  0  0  0  0  0  0  0  0  0
  141.6102   70.6477  227.9611 H   0  0  0  0  0  0  0  0  0  0  0  0
  139.8520   66.7861  227.4895 H   0  0  0  0  0  0  0  0  0  0  0  0
  138.9918   67.3872  225.2681 H   0  0  0  0  0  0  0  0  0  0  0  0
  1  2  2  0
  2  3  1  0
  3  4  1  0
  4  5  1  0
  5  6  2  0
  5  7  1  0
  7  8  1  0
  8  9  1  0
  9 10  1  0
 10 11  1  0
 11 12  1  0
 12 13  1  0
 13 14  2  0
 14 15  1  0
 15 16  2  0
 16 17  1  0
 17 18  2  0
 18 19  1  0
 19 20  2  0
  2 21  1  0
 21 22  2  0
 22 23  1  0
 23 24  2  0
 24 25  1  0
 25 26  2  0
 26 27  1  0
 26 28  1  0
 28 29  2  0
 29 30  1  0
 30 31  2  0
 12  7  1  0
 20 15  1  0
 31 21  1  0
 30 24  1  0
  3 32  1  0
  4 33  1  0
  4 34  1  0
  8 35  1  0
  8 36  1  0
  9 37  1  0
  9 38  1  0
 10 39  1  0
 10 40  1  0
 11 41  1  0
 11 42  1  0
 12 43  1  1
 13 44  1  0
 14 45  1  0
 16 46  1  0
 17 47  1  0
 18 48  1  0
 19 49  1  0
 20 50  1  0
 22 51  1  0
 23 52  1  0
 25 53  1  0
 28 54  1  0
 29 55  1  0
M  END
>  <smiles>  (75) 
O=C(NCC(=O)N1CCCCC1/C=C/c1ccccc1)c1ccc2cc(F)ccc2n1

>  <score_type>  (75) 
oracle

>  <origin>  (75) 
autodockgpu

>  <m_score__min__energy>  (75) 
-9.1899999999999995

>  <m_primary>  (75) 
energy

>  <rmsd>  (75) 
2.8699543826722294

>  <m_score__min__rmsd>  (75) 
2.8699543826722294

>  <meeko>  (75) 
{"free_energy": -8.34, "intermolecular_energy": -10.43, "internal_energy": -1.65, "cluster_size": 17, "cluster_id": 1, "rank_in_cluster": 13}

>  <energy>  (75) 
-8.58

>  <cluster_rmsd>  (75) 
1.15

>  <cluster>  (75) 
3

$$$$

     RDKit          3D

 55 58  0  0  0  0  0  0  0  0999 V2000
  140.5020   70.9220  221.7220 O   0  0  0  0  0  0  0  0  0  0  0  0
  140.2130   71.6500  222.7310 C   0  0  0  0  0  0  0  0  0  0  0  0
  139.8090   73.0070  222.5900 N   0  0  0  0  0  0  0  0  0  0  0  0
  139.7300   73.5590  221.2520 C   0  0  0  0  0  0  0  0  0  0  0  0
  140.2650   74.9630  221.2770 C   0  0  0  0  0  0  0  0  0  0  0  0
  140.1870   75.6730  222.3330 O   0  0  0  0  0  0  0  0  0  0  0  0
  140.8580   75.4750  220.0870 N   0  0  0  0  0  0  0  0  0  0  0  0
  140.5300   74.9840  218.7630 C   0  0  0  0  0  0  0  0  0  0  0  0
  141.7150   74.6980  217.9040 C   0  0  0  0  0  0  0  0  0  0  0  0
  142.8160   75.7160  218.0440 C   0  0  0  0  0  0  0  0  0  0  0  0
  143.0830   76.0860  219.4800 C   0  0  0  0  0  0  0  0  0  0  0  0
  141.8320   76.5310  220.1990 C   0  0  1  0  0  0  0  0  0  0  0  0
  141.3480   77.7600  219.4870 C   0  0  0  0  0  0  0  0  0  0  0  0
  140.8620   78.7610  220.1750 C   0  0  0  0  0  0  0  0  0  0  0  0
  141.3520   79.1910  221.4760 C   0  0  0  0  0  0  0  0  0  0  0  0
  142.1090   80.3610  221.6150 C   0  0  0  0  0  0  0  0  0  0  0  0
  142.5800   80.7840  222.8330 C   0  0  0  0  0  0  0  0  0  0  0  0
  142.3220   80.0660  223.9730 C   0  0  0  0  0  0  0  0  0  0  0  0
  141.5840   78.9120  223.8750 C   0  0  0  0  0  0  0  0  0  0  0  0
  141.1170   78.5000  222.6460 C   0  0  0  0  0  0  0  0  0  0  0  0
  140.2980   71.0750  224.0880 C   0  0  0  0  0  0  0  0  0  0  0  0
  140.7540   71.8660  225.1270 C   0  0  0  0  0  0  0  0  0  0  0  0
  140.8500   71.3780  226.4070 C   0  0  0  0  0  0  0  0  0  0  0  0
  140.4880   70.0760  226.6640 C   0  0  0  0  0  0  0  0  0  0  0  0
  140.5900   69.6000  227.9430 C   0  0  0  0  0  0  0  0  0  0  0  0
  140.2240   68.2830  228.2050 C   0  0  0  0  0  0  0  0  0  0  0  0
  140.3210   67.7990  229.4810 F   0  0  0  0  0  0  0  0  0  0  0  0
  139.7800   67.5340  227.1590 C   0  0  0  0  0  0  0  0  0  0  0  0
  139.6750   68.0060  225.8660 C   0  0  0  0  0  0  0  0  0  0  0  0
  140.0410   69.3270  225.5970 C   0  0  0  0  0  0  0  0  0  0  0  0
  139.9510   69.8180  224.3490 N   0  0  0  0  0  0  0  0  0  0  0  0
  139.5770   73.5820  223.4340 H   0  0  0  0  0  0  0  0  0  0  0  0
  140.3301   72.9465  220.5630 H   0  0  0  0  0  0  0  0  0  0  0  0
  138.6847   73.5626  220.9095 H   0  0  0  0  0  0  0  0  0  0  0  0
  139.9522   74.0545  218.8735 H   0  0  0  0  0  0  0  0  0  0  0  0
  139.9631   75.7826  218.2622 H   0  0  0  0  0  0  0  0  0  0  0  0
  142.1155   73.7113  218.1799 H   0  0  0  0  0  0  0  0  0  0  0  0
  141.3736   74.7312  216.8589 H   0  0  0  0  0  0  0  0  0  0  0  0
  143.7374   75.3005  217.6099 H   0  0  0  0  0  0  0  0  0  0  0  0
  142.4958   76.6279  217.5187 H   0  0  0  0  0  0  0  0  0  0  0  0
  143.4971   75.2096  220.0000 H   0  0  0  0  0  0  0  0  0  0  0  0
  143.7913   76.9276  219.4846 H   0  0  0  0  0  0  0  0  0  0  0  0
  142.0079   76.7468  221.2632 H   0  0  0  0  0  0  0  0  0  0  0  0
  141.4017   77.8191  218.3899 H   0  0  0  0  0  0  0  0  0  0  0  0
  140.0208   79.3188  219.7377 H   0  0  0  0  0  0  0  0  0  0  0  0
  142.3332   80.9599  220.7200 H   0  0  0  0  0  0  0  0  0  0  0  0
  143.1712   81.7095  222.8956 H   0  0  0  0  0  0  0  0  0  0  0  0
  142.6994   80.4083  224.9479 H   0  0  0  0  0  0  0  0  0  0  0  0
  141.3663   78.3183  224.7751 H   0  0  0  0  0  0  0  0  0  0  0  0
  140.5269   77.5731  222.5955 H   0  0  0  0  0  0  0  0  0  0  0  0
  141.0456   72.9070  224.9239 H   0  0  0  0  0  0  0  0  0  0  0  0
  141.2135   72.0232  227.2204 H   0  0  0  0  0  0  0  0  0  0  0  0
  140.9560   70.2489  228.7523 H   0  0  0  0  0  0  0  0  0  0  0  0
  139.4878   66.4918  227.3553 H   0  0  0  0  0  0  0  0  0  0  0  0
  139.3090   67.3524  225.0605 H   0  0  0  0  0  0  0  0  0  0  0  0
  1  2  2  0
  2  3  1  0
  3  4  1  0
  4  5  1  0
  5  6  2  0
  5  7  1  0
  7  8  1  0
  8  9  1  0
  9 10  1  0
 10 11  1  0
 11 12  1  0
 12 13  1  0
 13 14  2  0
 14 15  1  0
 15 16  2  0
 16 17  1  0
 17 18  2  0
 18 19  1  0
 19 20  2  0
  2 21  1  0
 21 22  2  0
 22 23  1  0
 23 24  2  0
 24 25  1  0
 25 26  2  0
 26 27  1  0
 26 28  1  0
 28 29  2  0
 29 30  1  0
 30 31  2  0
 12  7  1  0
 20 15  1  0
 31 21  1  0
 30 24  1  0
  3 32  1  0
  4 33  1  0
  4 34  1  0
  8 35  1  0
  8 36  1  0
  9 37  1  0
  9 38  1  0
 10 39  1  0
 10 40  1  0
 11 41  1  0
 11 42  1  0
 12 43  1  1
 13 44  1  0
 14 45  1  0
 16 46  1  0
 17 47  1  0
 18 48  1  0
 19 49  1  0
 20 50  1  0
 22 51  1  0
 23 52  1  0
 25 53  1  0
 28 54  1  0
 29 55  1  0
M  END
>  <smiles>  (76) 
O=C(NCC(=O)N1CCCCC1/C=C/c1ccccc1)c1ccc2cc(F)ccc2n1

>  <score_type>  (76) 
oracle

>  <origin>  (76) 
autodockgpu

>  <m_score__min__energy>  (76) 
-9.1899999999999995

>  <m_primary>  (76) 
energy

>  <rmsd>  (76) 
2.712471970058156

>  <m_score__min__rmsd>  (76) 
2.712471970058156

>  <meeko>  (76) 
{"free_energy": -8.9, "intermolecular_energy": -10.99, "internal_energy": -1.83, "cluster_size": 17, "cluster_id": 1, "rank_in_cluster": 7}

>  <energy>  (76) 
-8.42

>  <cluster_rmsd>  (76) 
1.05

>  <cluster>  (76) 
3

$$$$

     RDKit          3D

 55 58  0  0  0  0  0  0  0  0999 V2000
  137.0850   75.9860  222.2370 O   0  0  0  0  0  0  0  0  0  0  0  0
  138.3580   76.0570  222.3370 C   0  0  0  0  0  0  0  0  0  0  0  0
  139.1930   74.9240  222.1310 N   0  0  0  0  0  0  0  0  0  0  0  0
  138.5620   73.6620  221.7970 C   0  0  0  0  0  0  0  0  0  0  0  0
  139.5510   72.5530  222.0220 C   0  0  0  0  0  0  0  0  0  0  0  0
  140.8020   72.7950  222.0780 O   0  0  0  0  0  0  0  0  0  0  0  0
  139.0500   71.2280  222.1670 N   0  0  0  0  0  0  0  0  0  0  0  0
  139.2300   70.1970  221.1640 C   0  0  0  0  0  0  0  0  0  0  0  0
  137.9880   69.4390  220.8340 C   0  0  0  0  0  0  0  0  0  0  0  0
  137.1350   69.1350  222.0360 C   0  0  0  0  0  0  0  0  0  0  0  0
  136.9920   70.3170  222.9590 C   0  0  0  0  0  0  0  0  0  0  0  0
  138.3280   70.8900  223.3680 C   0  0  1  0  0  0  0  0  0  0  0  0
  139.0440   69.8040  224.1150 C   0  0  0  0  0  0  0  0  0  0  0  0
  140.2260   70.0370  224.6250 C   0  0  0  0  0  0  0  0  0  0  0  0
  140.4660   70.6550  225.9210 C   0  0  0  0  0  0  0  0  0  0  0  0
  141.2340   71.8210  226.0370 C   0  0  0  0  0  0  0  0  0  0  0  0
  141.4700   72.4190  227.2500 C   0  0  0  0  0  0  0  0  0  0  0  0
  140.9560   71.8890  228.4060 C   0  0  0  0  0  0  0  0  0  0  0  0
  140.1990   70.7450  228.3300 C   0  0  0  0  0  0  0  0  0  0  0  0
  139.9690   70.1570  227.1060 C   0  0  0  0  0  0  0  0  0  0  0  0
  138.9870   77.3470  222.6770 C   0  0  0  0  0  0  0  0  0  0  0  0
  138.1830   78.4480  222.9120 C   0  0  0  0  0  0  0  0  0  0  0  0
  138.7220   79.6700  223.2320 C   0  0  0  0  0  0  0  0  0  0  0  0
  140.0880   79.8050  223.3210 C   0  0  0  0  0  0  0  0  0  0  0  0
  140.6120   81.0290  223.6400 C   0  0  0  0  0  0  0  0  0  0  0  0
  141.9940   81.1690  223.7290 C   0  0  0  0  0  0  0  0  0  0  0  0
  142.5280   82.3870  224.0480 F   0  0  0  0  0  0  0  0  0  0  0  0
  142.7540   80.0650  223.4910 C   0  0  0  0  0  0  0  0  0  0  0  0
  142.2330   78.8280  223.1690 C   0  0  0  0  0  0  0  0  0  0  0  0
  140.8470   78.6810  223.0770 C   0  0  0  0  0  0  0  0  0  0  0  0
  140.3070   77.4920  222.7650 N   0  0  0  0  0  0  0  0  0  0  0  0
  140.2330   75.0080  222.2180 H   0  0  0  0  0  0  0  0  0  0  0  0
  137.6812   73.5078  222.4376 H   0  0  0  0  0  0  0  0  0  0  0  0
  138.2421   73.6704  220.7446 H   0  0  0  0  0  0  0  0  0  0  0  0
  139.5984   70.6726  220.2431 H   0  0  0  0  0  0  0  0  0  0  0  0
  139.9411   69.4700  221.5832 H   0  0  0  0  0  0  0  0  0  0  0  0
  137.3933   70.0355  220.1265 H   0  0  0  0  0  0  0  0  0  0  0  0
  138.3005   68.4751  220.4059 H   0  0  0  0  0  0  0  0  0  0  0  0
  136.1347   68.8343  221.6911 H   0  0  0  0  0  0  0  0  0  0  0  0
  137.6288   68.3299  222.5999 H   0  0  0  0  0  0  0  0  0  0  0  0
  136.4141   71.0992  222.4451 H   0  0  0  0  0  0  0  0  0  0  0  0
  136.4806   69.9726  223.8699 H   0  0  0  0  0  0  0  0  0  0  0  0
  138.2313   71.7888  223.9948 H   0  0  0  0  0  0  0  0  0  0  0  0
  138.5769   68.8152  224.2336 H   0  0  0  0  0  0  0  0  0  0  0  0
  141.1038   69.7442  224.0303 H   0  0  0  0  0  0  0  0  0  0  0  0
  141.6608   72.2710  225.1285 H   0  0  0  0  0  0  0  0  0  0  0  0
  142.0786   73.3342  227.2954 H   0  0  0  0  0  0  0  0  0  0  0  0
  141.1464   72.3711  229.3762 H   0  0  0  0  0  0  0  0  0  0  0  0
  139.7780   70.3002  229.2437 H   0  0  0  0  0  0  0  0  0  0  0  0
  139.3574   69.2433  227.0725 H   0  0  0  0  0  0  0  0  0  0  0  0
  137.0904   78.3426  222.8412 H   0  0  0  0  0  0  0  0  0  0  0  0
  138.0665   80.5340  223.4157 H   0  0  0  0  0  0  0  0  0  0  0  0
  139.9508   81.8888  223.8232 H   0  0  0  0  0  0  0  0  0  0  0  0
  143.8474   80.1645  223.5593 H   0  0  0  0  0  0  0  0  0  0  0  0
  142.8989   77.9714  222.9877 H   0  0  0  0  0  0  0  0  0  0  0  0
  1  2  2  0
  2  3  1  0
  3  4  1  0
  4  5  1  0
  5  6  2  0
  5  7  1  0
  7  8  1  0
  8  9  1  0
  9 10  1  0
 10 11  1  0
 11 12  1  0
 12 13  1  0
 13 14  2  0
 14 15  1  0
 15 16  2  0
 16 17  1  0
 17 18  2  0
 18 19  1  0
 19 20  2  0
  2 21  1  0
 21 22  2  0
 22 23  1  0
 23 24  2  0
 24 25  1  0
 25 26  2  0
 26 27  1  0
 26 28  1  0
 28 29  2  0
 29 30  1  0
 30 31  2  0
 12  7  1  0
 20 15  1  0
 31 21  1  0
 30 24  1  0
  3 32  1  0
  4 33  1  0
  4 34  1  0
  8 35  1  0
  8 36  1  0
  9 37  1  0
  9 38  1  0
 10 39  1  0
 10 40  1  0
 11 41  1  0
 11 42  1  0
 12 43  1  1
 13 44  1  0
 14 45  1  0
 16 46  1  0
 17 47  1  0
 18 48  1  0
 19 49  1  0
 20 50  1  0
 22 51  1  0
 23 52  1  0
 25 53  1  0
 28 54  1  0
 29 55  1  0
M  END
>  <smiles>  (77) 
O=C(NCC(=O)N1CCCCC1/C=C/c1ccccc1)c1ccc2cc(F)ccc2n1

>  <score_type>  (77) 
oracle

>  <origin>  (77) 
autodockgpu

>  <m_score__min__energy>  (77) 
-9.1899999999999995

>  <m_primary>  (77) 
energy

>  <rmsd>  (77) 
8.43080602249828

>  <m_score__min__rmsd>  (77) 
8.43080602249828

>  <meeko>  (77) 
{"free_energy": -8.27, "intermolecular_energy": -10.36, "internal_energy": -2.22, "cluster_size": 22, "cluster_id": 4, "rank_in_cluster": 21}

>  <energy>  (77) 
-8.96

>  <cluster_rmsd>  (77) 
0.0

>  <cluster>  (77) 
4

$$$$

     RDKit          3D

 55 58  0  0  0  0  0  0  0  0999 V2000
  139.7460   71.0800  221.0650 O   0  0  0  0  0  0  0  0  0  0  0  0
  139.7040   71.6990  222.1830 C   0  0  0  0  0  0  0  0  0  0  0  0
  139.6210   73.1170  222.2550 N   0  0  0  0  0  0  0  0  0  0  0  0
  139.5840   73.8630  221.0120 C   0  0  0  0  0  0  0  0  0  0  0  0
  140.4390   75.0900  221.1590 C   0  0  0  0  0  0  0  0  0  0  0  0
  140.6300   75.6200  222.3040 O   0  0  0  0  0  0  0  0  0  0  0  0
  141.0260   75.6420  219.9850 N   0  0  0  0  0  0  0  0  0  0  0  0
  140.4340   75.5140  218.6680 C   0  0  0  0  0  0  0  0  0  0  0  0
  141.3910   75.0930  217.6030 C   0  0  0  0  0  0  0  0  0  0  0  0
  142.7460   75.7370  217.7270 C   0  0  0  0  0  0  0  0  0  0  0  0
  143.2570   75.7450  219.1440 C   0  0  0  0  0  0  0  0  0  0  0  0
  142.2680   76.3620  220.1060 C   0  0  1  0  0  0  0  0  0  0  0  0
  142.0860   77.7860  219.6710 C   0  0  0  0  0  0  0  0  0  0  0  0
  141.3290   78.5880  220.3750 C   0  0  0  0  0  0  0  0  0  0  0  0
  141.6720   79.1180  221.6870 C   0  0  0  0  0  0  0  0  0  0  0  0
  142.2740   80.3740  221.8260 C   0  0  0  0  0  0  0  0  0  0  0  0
  142.6050   80.8920  223.0540 C   0  0  0  0  0  0  0  0  0  0  0  0
  142.3540   80.1860  224.2030 C   0  0  0  0  0  0  0  0  0  0  0  0
  141.7660   78.9490  224.1050 C   0  0  0  0  0  0  0  0  0  0  0  0
  141.4380   78.4430  222.8660 C   0  0  0  0  0  0  0  0  0  0  0  0
  139.7430   70.9280  223.4400 C   0  0  0  0  0  0  0  0  0  0  0  0
  139.2210   69.6470  223.4620 C   0  0  0  0  0  0  0  0  0  0  0  0
  139.2340   68.8900  224.6070 C   0  0  0  0  0  0  0  0  0  0  0  0
  139.7760   69.4130  225.7580 C   0  0  0  0  0  0  0  0  0  0  0  0
  139.7820   68.6480  226.8930 C   0  0  0  0  0  0  0  0  0  0  0  0
  140.3290   69.1750  228.0600 C   0  0  0  0  0  0  0  0  0  0  0  0
  140.3410   68.4190  229.1990 F   0  0  0  0  0  0  0  0  0  0  0  0
  140.8340   70.4380  228.0020 C   0  0  0  0  0  0  0  0  0  0  0  0
  140.8310   71.2160  226.8610 C   0  0  0  0  0  0  0  0  0  0  0  0
  140.2830   70.6920  225.6880 C   0  0  0  0  0  0  0  0  0  0  0  0
  140.2630   71.4220  224.5600 N   0  0  0  0  0  0  0  0  0  0  0  0
  139.5880   73.6010  223.1830 H   0  0  0  0  0  0  0  0  0  0  0  0
  139.9715   73.2380  220.1939 H   0  0  0  0  0  0  0  0  0  0  0  0
  138.5486   74.1540  220.7810 H   0  0  0  0  0  0  0  0  0  0  0  0
  139.6292   74.7662  218.7232 H   0  0  0  0  0  0  0  0  0  0  0  0
  140.0702   76.5135  218.3876 H   0  0  0  0  0  0  0  0  0  0  0  0
  141.5173   74.0017  217.6595 H   0  0  0  0  0  0  0  0  0  0  0  0
  140.9664   75.4136  216.6402 H   0  0  0  0  0  0  0  0  0  0  0  0
  143.4584   75.1821  217.0989 H   0  0  0  0  0  0  0  0  0  0  0  0
  142.6480   76.7835  217.4027 H   0  0  0  0  0  0  0  0  0  0  0  0
  143.4538   74.7084  219.4551 H   0  0  0  0  0  0  0  0  0  0  0  0
  144.1740   76.3521  219.1680 H   0  0  0  0  0  0  0  0  0  0  0  0
  142.6083   76.3193  221.1512 H   0  0  0  0  0  0  0  0  0  0  0  0
  142.5870   78.1545  218.7637 H   0  0  0  0  0  0  0  0  0  0  0  0
  140.3614   78.8839  219.9435 H   0  0  0  0  0  0  0  0  0  0  0  0
  142.4887   80.9647  220.9232 H   0  0  0  0  0  0  0  0  0  0  0  0
  143.0765   81.8838  223.1169 H   0  0  0  0  0  0  0  0  0  0  0  0
  142.6191   80.6034  225.1856 H   0  0  0  0  0  0  0  0  0  0  0  0
  141.5575   78.3638  225.0128 H   0  0  0  0  0  0  0  0  0  0  0  0
  140.9658   77.4508  222.8151 H   0  0  0  0  0  0  0  0  0  0  0  0
  138.7866   69.2265  222.5431 H   0  0  0  0  0  0  0  0  0  0  0  0
  138.8143   67.8732  224.6041 H   0  0  0  0  0  0  0  0  0  0  0  0
  139.3609   67.6318  226.8834 H   0  0  0  0  0  0  0  0  0  0  0  0
  141.2700   70.8638  228.9178 H   0  0  0  0  0  0  0  0  0  0  0  0
  141.2532   72.2316  226.8757 H   0  0  0  0  0  0  0  0  0  0  0  0
  1  2  2  0
  2  3  1  0
  3  4  1  0
  4  5  1  0
  5  6  2  0
  5  7  1  0
  7  8  1  0
  8  9  1  0
  9 10  1  0
 10 11  1  0
 11 12  1  0
 12 13  1  0
 13 14  2  0
 14 15  1  0
 15 16  2  0
 16 17  1  0
 17 18  2  0
 18 19  1  0
 19 20  2  0
  2 21  1  0
 21 22  2  0
 22 23  1  0
 23 24  2  0
 24 25  1  0
 25 26  2  0
 26 27  1  0
 26 28  1  0
 28 29  2  0
 29 30  1  0
 30 31  2  0
 12  7  1  0
 20 15  1  0
 31 21  1  0
 30 24  1  0
  3 32  1  0
  4 33  1  0
  4 34  1  0
  8 35  1  0
  8 36  1  0
  9 37  1  0
  9 38  1  0
 10 39  1  0
 10 40  1  0
 11 41  1  0
 11 42  1  0
 12 43  1  1
 13 44  1  0
 14 45  1  0
 16 46  1  0
 17 47  1  0
 18 48  1  0
 19 49  1  0
 20 50  1  0
 22 51  1  0
 23 52  1  0
 25 53  1  0
 28 54  1  0
 29 55  1  0
M  END
>  <smiles>  (78) 
O=C(NCC(=O)N1CCCCC1/C=C/c1ccccc1)c1ccc2cc(F)ccc2n1

>  <score_type>  (78) 
oracle

>  <origin>  (78) 
autodockgpu

>  <m_score__min__energy>  (78) 
-9.1899999999999995

>  <m_primary>  (78) 
energy

>  <rmsd>  (78) 
1.4773374283639316

>  <m_score__min__rmsd>  (78) 
1.4773374283639316

>  <meeko>  (78) 
{"free_energy": -8.9, "intermolecular_energy": -10.99, "internal_energy": -1.99, "cluster_size": 17, "cluster_id": 1, "rank_in_cluster": 6}

>  <energy>  (78) 
-8.69

>  <cluster_rmsd>  (78) 
0.67

>  <cluster>  (78) 
4

$$$$

     RDKit          3D

 55 58  0  0  0  0  0  0  0  0999 V2000
  137.9630   75.4490  222.1380 O   0  0  0  0  0  0  0  0  0  0  0  0
  139.2050   75.7400  222.0610 C   0  0  0  0  0  0  0  0  0  0  0  0
  140.1630   74.8190  221.5520 N   0  0  0  0  0  0  0  0  0  0  0  0
  139.6940   73.5200  221.1120 C   0  0  0  0  0  0  0  0  0  0  0  0
  139.7600   72.5650  222.2710 C   0  0  0  0  0  0  0  0  0  0  0  0
  140.6840   72.6610  223.1450 O   0  0  0  0  0  0  0  0  0  0  0  0
  138.7630   71.5530  222.3620 N   0  0  0  0  0  0  0  0  0  0  0  0
  138.2710   70.8190  221.2130 C   0  0  0  0  0  0  0  0  0  0  0  0
  136.7840   70.7170  221.1410 C   0  0  0  0  0  0  0  0  0  0  0  0
  136.1340   70.4840  222.4790 C   0  0  0  0  0  0  0  0  0  0  0  0
  136.7100   71.3570  223.5630 C   0  0  0  0  0  0  0  0  0  0  0  0
  138.2130   71.2380  223.6570 C   0  0  1  0  0  0  0  0  0  0  0  0
  138.5040   69.8100  224.0100 C   0  0  0  0  0  0  0  0  0  0  0  0
  139.5730   69.5170  224.7050 C   0  0  0  0  0  0  0  0  0  0  0  0
  140.0050   70.2230  225.9030 C   0  0  0  0  0  0  0  0  0  0  0  0
  139.6400   69.7770  227.1790 C   0  0  0  0  0  0  0  0  0  0  0  0
  140.0370   70.4270  228.3210 C   0  0  0  0  0  0  0  0  0  0  0  0
  140.8180   71.5530  228.2490 C   0  0  0  0  0  0  0  0  0  0  0  0
  141.1950   72.0210  227.0150 C   0  0  0  0  0  0  0  0  0  0  0  0
  140.7880   71.3570  225.8780 C   0  0  0  0  0  0  0  0  0  0  0  0
  139.6690   77.0660  222.5120 C   0  0  0  0  0  0  0  0  0  0  0  0
  138.7440   77.9760  222.9920 C   0  0  0  0  0  0  0  0  0  0  0  0
  139.1270   79.2220  223.4240 C   0  0  0  0  0  0  0  0  0  0  0  0
  140.4560   79.5760  223.3790 C   0  0  0  0  0  0  0  0  0  0  0  0
  140.8240   80.8210  223.8110 C   0  0  0  0  0  0  0  0  0  0  0  0
  142.1680   81.1820  223.7660 C   0  0  0  0  0  0  0  0  0  0  0  0
  142.5460   82.4230  224.1970 F   0  0  0  0  0  0  0  0  0  0  0  0
  143.0490   80.2620  223.2890 C   0  0  0  0  0  0  0  0  0  0  0  0
  142.6860   79.0040  222.8500 C   0  0  0  0  0  0  0  0  0  0  0  0
  141.3380   78.6360  222.8930 C   0  0  0  0  0  0  0  0  0  0  0  0
  140.9510   77.4200  222.4730 N   0  0  0  0  0  0  0  0  0  0  0  0
  141.1760   75.0810  221.4990 H   0  0  0  0  0  0  0  0  0  0  0  0
  138.6555   73.6018  220.7586 H   0  0  0  0  0  0  0  0  0  0  0  0
  140.3244   73.1535  220.2884 H   0  0  0  0  0  0  0  0  0  0  0  0
  138.6262   71.3248  220.3030 H   0  0  0  0  0  0  0  0  0  0  0  0
  138.6533   69.7919  221.3077 H   0  0  0  0  0  0  0  0  0  0  0  0
  136.3904   71.6543  220.7209 H   0  0  0  0  0  0  0  0  0  0  0  0
  136.5488   69.8469  220.5104 H   0  0  0  0  0  0  0  0  0  0  0  0
  135.0584   70.6965  222.3899 H   0  0  0  0  0  0  0  0  0  0  0  0
  136.3188   69.4370  222.7612 H   0  0  0  0  0  0  0  0  0  0  0  0
  136.4508   72.4043  223.3488 H   0  0  0  0  0  0  0  0  0  0  0  0
  136.2856   71.0262  224.5224 H   0  0  0  0  0  0  0  0  0  0  0  0
  138.6469   71.9157  224.4070 H   0  0  0  0  0  0  0  0  0  0  0  0
  137.8208   69.0113  223.6856 H   0  0  0  0  0  0  0  0  0  0  0  0
  140.1909   68.6754  224.3589 H   0  0  0  0  0  0  0  0  0  0  0  0
  139.0148   68.8765  227.2693 H   0  0  0  0  0  0  0  0  0  0  0  0
  139.7261   70.0416  229.3032 H   0  0  0  0  0  0  0  0  0  0  0  0
  141.1366   72.0720  229.1651 H   0  0  0  0  0  0  0  0  0  0  0  0
  141.8197   72.9227  226.9339 H   0  0  0  0  0  0  0  0  0  0  0  0
  141.1040   71.7520  224.9012 H   0  0  0  0  0  0  0  0  0  0  0  0
  137.6809   77.6959  223.0283 H   0  0  0  0  0  0  0  0  0  0  0  0
  138.3770   79.9318  223.8032 H   0  0  0  0  0  0  0  0  0  0  0  0
  140.0691   81.5265  224.1884 H   0  0  0  0  0  0  0  0  0  0  0  0
  144.1136   80.5363  223.2507 H   0  0  0  0  0  0  0  0  0  0  0  0
  143.4451   78.3030  222.4727 H   0  0  0  0  0  0  0  0  0  0  0  0
  1  2  2  0
  2  3  1  0
  3  4  1  0
  4  5  1  0
  5  6  2  0
  5  7  1  0
  7  8  1  0
  8  9  1  0
  9 10  1  0
 10 11  1  0
 11 12  1  0
 12 13  1  0
 13 14  2  0
 14 15  1  0
 15 16  2  0
 16 17  1  0
 17 18  2  0
 18 19  1  0
 19 20  2  0
  2 21  1  0
 21 22  2  0
 22 23  1  0
 23 24  2  0
 24 25  1  0
 25 26  2  0
 26 27  1  0
 26 28  1  0
 28 29  2  0
 29 30  1  0
 30 31  2  0
 12  7  1  0
 20 15  1  0
 31 21  1  0
 30 24  1  0
  3 32  1  0
  4 33  1  0
  4 34  1  0
  8 35  1  0
  8 36  1  0
  9 37  1  0
  9 38  1  0
 10 39  1  0
 10 40  1  0
 11 41  1  0
 11 42  1  0
 12 43  1  1
 13 44  1  0
 14 45  1  0
 16 46  1  0
 17 47  1  0
 18 48  1  0
 19 49  1  0
 20 50  1  0
 22 51  1  0
 23 52  1  0
 25 53  1  0
 28 54  1  0
 29 55  1  0
M  END
>  <smiles>  (79) 
O=C(NCC(=O)N1CCCCC1/C=C/c1ccccc1)c1ccc2cc(F)ccc2n1

>  <score_type>  (79) 
oracle

>  <origin>  (79) 
autodockgpu

>  <m_score__min__energy>  (79) 
-9.1899999999999995

>  <m_primary>  (79) 
energy

>  <rmsd>  (79) 
8.304711372511177

>  <m_score__min__rmsd>  (79) 
8.304711372511177

>  <meeko>  (79) 
{"free_energy": -8.47, "intermolecular_energy": -10.56, "internal_energy": -2.0, "cluster_size": 22, "cluster_id": 4, "rank_in_cluster": 12}

>  <energy>  (79) 
-8.58

>  <cluster_rmsd>  (79) 
0.62

>  <cluster>  (79) 
4

$$$$

     RDKit          3D

 55 58  0  0  0  0  0  0  0  0999 V2000
  140.0300   70.6560  221.1840 O   0  0  0  0  0  0  0  0  0  0  0  0
  139.8690   71.3460  222.2480 C   0  0  0  0  0  0  0  0  0  0  0  0
  139.7450   72.7630  222.2140 N   0  0  0  0  0  0  0  0  0  0  0  0
  139.8040   73.4220  220.9240 C   0  0  0  0  0  0  0  0  0  0  0  0
  140.3480   74.8110  221.1150 C   0  0  0  0  0  0  0  0  0  0  0  0
  140.3660   75.3510  222.2710 O   0  0  0  0  0  0  0  0  0  0  0  0
  140.8390   75.5010  219.9710 N   0  0  0  0  0  0  0  0  0  0  0  0
  140.0560   75.6990  218.7670 C   0  0  0  0  0  0  0  0  0  0  0  0
  140.7800   75.3760  217.5040 C   0  0  0  0  0  0  0  0  0  0  0  0
  142.2200   75.8170  217.5090 C   0  0  0  0  0  0  0  0  0  0  0  0
  142.9200   75.4940  218.8040 C   0  0  0  0  0  0  0  0  0  0  0  0
  142.1790   76.0300  220.0050 C   0  0  1  0  0  0  0  0  0  0  0  0
  142.1500   77.5230  219.8550 C   0  0  0  0  0  0  0  0  0  0  0  0
  141.3220   78.2330  220.5770 C   0  0  0  0  0  0  0  0  0  0  0  0
  141.6730   78.9190  221.8120 C   0  0  0  0  0  0  0  0  0  0  0  0
  142.2450   80.1970  221.7940 C   0  0  0  0  0  0  0  0  0  0  0  0
  142.5820   80.8610  222.9480 C   0  0  0  0  0  0  0  0  0  0  0  0
  142.3680   80.2860  224.1750 C   0  0  0  0  0  0  0  0  0  0  0  0
  141.8090   79.0330  224.2320 C   0  0  0  0  0  0  0  0  0  0  0  0
  141.4750   78.3800  223.0650 C   0  0  0  0  0  0  0  0  0  0  0  0
  139.8110   70.6630  223.5540 C   0  0  0  0  0  0  0  0  0  0  0  0
  139.2040   69.4230  223.6390 C   0  0  0  0  0  0  0  0  0  0  0  0
  139.1250   68.7470  224.8310 C   0  0  0  0  0  0  0  0  0  0  0  0
  139.6600   69.3110  225.9670 C   0  0  0  0  0  0  0  0  0  0  0  0
  139.5730   68.6270  227.1490 C   0  0  0  0  0  0  0  0  0  0  0  0
  140.1130   69.1970  228.3000 C   0  0  0  0  0  0  0  0  0  0  0  0
  140.0330   68.5220  229.4860 F   0  0  0  0  0  0  0  0  0  0  0  0
  140.7020   70.4180  228.1780 C   0  0  0  0  0  0  0  0  0  0  0  0
  140.7930   71.1140  226.9900 C   0  0  0  0  0  0  0  0  0  0  0  0
  140.2530   70.5470  225.8320 C   0  0  0  0  0  0  0  0  0  0  0  0
  140.3230   71.1980  224.6590 N   0  0  0  0  0  0  0  0  0  0  0  0
  139.6140   73.3060  223.1000 H   0  0  0  0  0  0  0  0  0  0  0  0
  140.4632   72.8561  220.2493 H   0  0  0  0  0  0  0  0  0  0  0  0
  138.7976   73.4717  220.4828 H   0  0  0  0  0  0  0  0  0  0  0  0
  139.1643   75.0576  218.8266 H   0  0  0  0  0  0  0  0  0  0  0  0
  139.8100   76.7703  218.7239 H   0  0  0  0  0  0  0  0  0  0  0  0
  140.7497   74.2867  217.3538 H   0  0  0  0  0  0  0  0  0  0  0  0
  140.2765   75.9224  216.6929 H   0  0  0  0  0  0  0  0  0  0  0  0
  142.7468   75.3095  216.6875 H   0  0  0  0  0  0  0  0  0  0  0  0
  142.2344   76.9100  217.3858 H   0  0  0  0  0  0  0  0  0  0  0  0
  143.0029   74.4012  218.8983 H   0  0  0  0  0  0  0  0  0  0  0  0
  143.9107   75.9714  218.7792 H   0  0  0  0  0  0  0  0  0  0  0  0
  142.6534   75.7478  220.9565 H   0  0  0  0  0  0  0  0  0  0  0  0
  142.8230   78.0187  219.1400 H   0  0  0  0  0  0  0  0  0  0  0  0
  140.2834   78.3180  220.2248 H   0  0  0  0  0  0  0  0  0  0  0  0
  142.4302   80.6843  220.8254 H   0  0  0  0  0  0  0  0  0  0  0  0
  143.0283   81.8646  222.8878 H   0  0  0  0  0  0  0  0  0  0  0  0
  142.6396   80.8197  225.0977 H   0  0  0  0  0  0  0  0  0  0  0  0
  141.6285   78.5524  225.2049 H   0  0  0  0  0  0  0  0  0  0  0  0
  141.0277   77.3777  223.1374 H   0  0  0  0  0  0  0  0  0  0  0  0
  138.7759   68.9694  222.7329 H   0  0  0  0  0  0  0  0  0  0  0  0
  138.6378   67.7619  224.8781 H   0  0  0  0  0  0  0  0  0  0  0  0
  139.0843   67.6424  227.1898 H   0  0  0  0  0  0  0  0  0  0  0  0
  141.1312   70.8775  229.0806 H   0  0  0  0  0  0  0  0  0  0  0  0
  141.2823   72.0986  226.9548 H   0  0  0  0  0  0  0  0  0  0  0  0
  1  2  2  0
  2  3  1  0
  3  4  1  0
  4  5  1  0
  5  6  2  0
  5  7  1  0
  7  8  1  0
  8  9  1  0
  9 10  1  0
 10 11  1  0
 11 12  1  0
 12 13  1  0
 13 14  2  0
 14 15  1  0
 15 16  2  0
 16 17  1  0
 17 18  2  0
 18 19  1  0
 19 20  2  0
  2 21  1  0
 21 22  2  0
 22 23  1  0
 23 24  2  0
 24 25  1  0
 25 26  2  0
 26 27  1  0
 26 28  1  0
 28 29  2  0
 29 30  1  0
 30 31  2  0
 12  7  1  0
 20 15  1  0
 31 21  1  0
 30 24  1  0
  3 32  1  0
  4 33  1  0
  4 34  1  0
  8 35  1  0
  8 36  1  0
  9 37  1  0
  9 38  1  0
 10 39  1  0
 10 40  1  0
 11 41  1  0
 11 42  1  0
 12 43  1  1
 13 44  1  0
 14 45  1  0
 16 46  1  0
 17 47  1  0
 18 48  1  0
 19 49  1  0
 20 50  1  0
 22 51  1  0
 23 52  1  0
 25 53  1  0
 28 54  1  0
 29 55  1  0
M  END
>  <smiles>  (80) 
O=C(NCC(=O)N1CCCCC1/C=C/c1ccccc1)c1ccc2cc(F)ccc2n1

>  <score_type>  (80) 
oracle

>  <origin>  (80) 
autodockgpu

>  <m_score__min__energy>  (80) 
-9.1899999999999995

>  <m_primary>  (80) 
energy

>  <rmsd>  (80) 
1.4384860213226571

>  <m_score__min__rmsd>  (80) 
1.4384860213226571

>  <meeko>  (80) 
{"free_energy": -8.68, "intermolecular_energy": -10.77, "internal_energy": -2.01, "cluster_size": 17, "cluster_id": 1, "rank_in_cluster": 9}

>  <energy>  (80) 
-8.56

>  <cluster_rmsd>  (80) 
0.66

>  <cluster>  (80) 
4

$$$$

     RDKit          3D

 55 58  0  0  0  0  0  0  0  0999 V2000
  138.1870   71.9630  222.2840 O   0  0  0  0  0  0  0  0  0  0  0  0
  139.3320   71.9130  222.8490 C   0  0  0  0  0  0  0  0  0  0  0  0
  140.4250   72.7110  222.4080 N   0  0  0  0  0  0  0  0  0  0  0  0
  140.2090   73.6000  221.2830 C   0  0  0  0  0  0  0  0  0  0  0  0
  141.5440   74.0760  220.7810 C   0  0  0  0  0  0  0  0  0  0  0  0
  142.6270   73.5690  221.2250 O   0  0  0  0  0  0  0  0  0  0  0  0
  141.5610   75.1060  219.7980 N   0  0  0  0  0  0  0  0  0  0  0  0
  141.3540   74.8570  218.3850 C   0  0  0  0  0  0  0  0  0  0  0  0
  142.3480   75.5220  217.4930 C   0  0  0  0  0  0  0  0  0  0  0  0
  142.7110   76.9150  217.9350 C   0  0  0  0  0  0  0  0  0  0  0  0
  142.9510   77.0070  219.4200 C   0  0  0  0  0  0  0  0  0  0  0  0
  141.7940   76.4630  220.2220 C   0  0  1  0  0  0  0  0  0  0  0  0
  140.6080   77.3200  219.8910 C   0  0  0  0  0  0  0  0  0  0  0  0
  140.1670   78.1850  220.7680 C   0  0  0  0  0  0  0  0  0  0  0  0
  140.9840   78.8260  221.7880 C   0  0  0  0  0  0  0  0  0  0  0  0
  141.7920   79.9290  221.4830 C   0  0  0  0  0  0  0  0  0  0  0  0
  142.5700   80.5480  222.4300 C   0  0  0  0  0  0  0  0  0  0  0  0
  142.5820   80.1010  223.7270 C   0  0  0  0  0  0  0  0  0  0  0  0
  141.8030   79.0220  224.0640 C   0  0  0  0  0  0  0  0  0  0  0  0
  141.0270   78.4110  223.1020 C   0  0  0  0  0  0  0  0  0  0  0  0
  139.5380   71.0040  223.9930 C   0  0  0  0  0  0  0  0  0  0  0  0
  139.0980   69.6960  223.9020 C   0  0  0  0  0  0  0  0  0  0  0  0
  139.2670   68.8120  224.9390 C   0  0  0  0  0  0  0  0  0  0  0  0
  139.8850   69.2320  226.0930 C   0  0  0  0  0  0  0  0  0  0  0  0
  140.0460   68.3410  227.1200 C   0  0  0  0  0  0  0  0  0  0  0  0
  140.6710   68.7650  228.2900 C   0  0  0  0  0  0  0  0  0  0  0  0
  140.8380   67.8830  229.3210 F   0  0  0  0  0  0  0  0  0  0  0  0
  141.0910   70.0580  228.3440 C   0  0  0  0  0  0  0  0  0  0  0  0
  140.9320   70.9630  227.3140 C   0  0  0  0  0  0  0  0  0  0  0  0
  140.3060   70.5440  226.1370 C   0  0  0  0  0  0  0  0  0  0  0  0
  140.1340   71.3990  225.1150 N   0  0  0  0  0  0  0  0  0  0  0  0
  141.3540   72.6520  222.8880 H   0  0  0  0  0  0  0  0  0  0  0  0
  139.6828   73.0612  220.4812 H   0  0  0  0  0  0  0  0  0  0  0  0
  139.5985   74.4596  221.5966 H   0  0  0  0  0  0  0  0  0  0  0  0
  141.4098   73.7717  218.2145 H   0  0  0  0  0  0  0  0  0  0  0  0
  140.3705   75.2793  218.1312 H   0  0  0  0  0  0  0  0  0  0  0  0
  143.2634   74.9122  217.4754 H   0  0  0  0  0  0  0  0  0  0  0  0
  141.8857   75.6072  216.4985 H   0  0  0  0  0  0  0  0  0  0  0  0
  143.6271   77.2238  217.4101 H   0  0  0  0  0  0  0  0  0  0  0  0
  141.8636   77.5732  217.6927 H   0  0  0  0  0  0  0  0  0  0  0  0
  143.8551   76.4318  219.6685 H   0  0  0  0  0  0  0  0  0  0  0  0
  143.0680   78.0702  219.6767 H   0  0  0  0  0  0  0  0  0  0  0  0
  141.9862   76.4736  221.3050 H   0  0  0  0  0  0  0  0  0  0  0  0
  140.1110   77.2215  218.9146 H   0  0  0  0  0  0  0  0  0  0  0  0
  139.0994   78.4474  220.7318 H   0  0  0  0  0  0  0  0  0  0  0  0
  141.8035   80.3115  220.4517 H   0  0  0  0  0  0  0  0  0  0  0  0
  143.1900   81.4111  222.1458 H   0  0  0  0  0  0  0  0  0  0  0  0
  143.2054   80.5989  224.4843 H   0  0  0  0  0  0  0  0  0  0  0  0
  141.7979   78.6463  225.0978 H   0  0  0  0  0  0  0  0  0  0  0  0
  140.4111   77.5489  223.3978 H   0  0  0  0  0  0  0  0  0  0  0  0
  138.6027   69.3570  222.9802 H   0  0  0  0  0  0  0  0  0  0  0  0
  138.9105   67.7754  224.8471 H   0  0  0  0  0  0  0  0  0  0  0  0
  139.6871   67.3058  227.0224 H   0  0  0  0  0  0  0  0  0  0  0  0
  141.5869   70.4027  229.2634 H   0  0  0  0  0  0  0  0  0  0  0  0
  141.2922   71.9971  227.4180 H   0  0  0  0  0  0  0  0  0  0  0  0
  1  2  2  0
  2  3  1  0
  3  4  1  0
  4  5  1  0
  5  6  2  0
  5  7  1  0
  7  8  1  0
  8  9  1  0
  9 10  1  0
 10 11  1  0
 11 12  1  0
 12 13  1  0
 13 14  2  0
 14 15  1  0
 15 16  2  0
 16 17  1  0
 17 18  2  0
 18 19  1  0
 19 20  2  0
  2 21  1  0
 21 22  2  0
 22 23  1  0
 23 24  2  0
 24 25  1  0
 25 26  2  0
 26 27  1  0
 26 28  1  0
 28 29  2  0
 29 30  1  0
 30 31  2  0
 12  7  1  0
 20 15  1  0
 31 21  1  0
 30 24  1  0
  3 32  1  0
  4 33  1  0
  4 34  1  0
  8 35  1  0
  8 36  1  0
  9 37  1  0
  9 38  1  0
 10 39  1  0
 10 40  1  0
 11 41  1  0
 11 42  1  0
 12 43  1  1
 13 44  1  0
 14 45  1  0
 16 46  1  0
 17 47  1  0
 18 48  1  0
 19 49  1  0
 20 50  1  0
 22 51  1  0
 23 52  1  0
 25 53  1  0
 28 54  1  0
 29 55  1  0
M  END
>  <smiles>  (81) 
O=C(NCC(=O)N1CCCCC1/C=C/c1ccccc1)c1ccc2cc(F)ccc2n1

>  <score_type>  (81) 
oracle

>  <origin>  (81) 
autodockgpu

>  <m_score__min__energy>  (81) 
-9.1899999999999995

>  <m_primary>  (81) 
energy

>  <rmsd>  (81) 
1.7781249438437374

>  <m_score__min__rmsd>  (81) 
1.7781249438437374

>  <meeko>  (81) 
{"free_energy": -8.16, "intermolecular_energy": -10.24, "internal_energy": -2.06, "cluster_size": 17, "cluster_id": 1, "rank_in_cluster": 17}

>  <energy>  (81) 
-8.55

>  <cluster_rmsd>  (81) 
0.57

>  <cluster>  (81) 
4

$$$$

     RDKit          3D

 55 58  0  0  0  0  0  0  0  0999 V2000
  139.8930   71.0980  221.0470 O   0  0  0  0  0  0  0  0  0  0  0  0
  139.7910   71.7200  222.1580 C   0  0  0  0  0  0  0  0  0  0  0  0
  139.6640   73.1360  222.2190 N   0  0  0  0  0  0  0  0  0  0  0  0
  139.6520   73.8740  220.9700 C   0  0  0  0  0  0  0  0  0  0  0  0
  140.2570   75.2300  221.2050 C   0  0  0  0  0  0  0  0  0  0  0  0
  140.2310   75.7650  222.3630 O   0  0  0  0  0  0  0  0  0  0  0  0
  140.8560   75.8960  220.0990 N   0  0  0  0  0  0  0  0  0  0  0  0
  140.6110   75.5220  218.7200 C   0  0  0  0  0  0  0  0  0  0  0  0
  141.8440   75.4020  217.8880 C   0  0  0  0  0  0  0  0  0  0  0  0
  142.8660   76.4690  218.1760 C   0  0  0  0  0  0  0  0  0  0  0  0
  143.0550   76.7090  219.6510 C   0  0  0  0  0  0  0  0  0  0  0  0
  141.7500   76.9970  220.3560 C   0  0  1  0  0  0  0  0  0  0  0  0
  141.2090   78.2570  219.7480 C   0  0  0  0  0  0  0  0  0  0  0  0
  141.8000   79.3990  219.9890 C   0  0  0  0  0  0  0  0  0  0  0  0
  141.9040   80.0220  221.3010 C   0  0  0  0  0  0  0  0  0  0  0  0
  141.4430   81.3260  221.5230 C   0  0  0  0  0  0  0  0  0  0  0  0
  141.5310   81.9300  222.7520 C   0  0  0  0  0  0  0  0  0  0  0  0
  142.0810   81.2690  223.8210 C   0  0  0  0  0  0  0  0  0  0  0  0
  142.5450   79.9890  223.6400 C   0  0  0  0  0  0  0  0  0  0  0  0
  142.4490   79.3950  222.4000 C   0  0  0  0  0  0  0  0  0  0  0  0
  139.8040   70.9570  223.4210 C   0  0  0  0  0  0  0  0  0  0  0  0
  139.2630   69.6840  223.4450 C   0  0  0  0  0  0  0  0  0  0  0  0
  139.2520   68.9350  224.5950 C   0  0  0  0  0  0  0  0  0  0  0  0
  139.7890   69.4570  225.7490 C   0  0  0  0  0  0  0  0  0  0  0  0
  139.7710   68.7000  226.8890 C   0  0  0  0  0  0  0  0  0  0  0  0
  140.3120   69.2270  228.0590 C   0  0  0  0  0  0  0  0  0  0  0  0
  140.3000   68.4780  229.2020 F   0  0  0  0  0  0  0  0  0  0  0  0
  140.8350   70.4820  227.9980 C   0  0  0  0  0  0  0  0  0  0  0  0
  140.8570   71.2520  226.8530 C   0  0  0  0  0  0  0  0  0  0  0  0
  140.3150   70.7280  225.6760 C   0  0  0  0  0  0  0  0  0  0  0  0
  140.3190   71.4510  224.5440 N   0  0  0  0  0  0  0  0  0  0  0  0
  139.5810   73.6230  223.1420 H   0  0  0  0  0  0  0  0  0  0  0  0
  140.2400   73.3323  220.2144 H   0  0  0  0  0  0  0  0  0  0  0  0
  138.6186   73.9824  220.6089 H   0  0  0  0  0  0  0  0  0  0  0  0
  140.0948   74.5507  218.7130 H   0  0  0  0  0  0  0  0  0  0  0  0
  140.0092   76.3291  218.2768 H   0  0  0  0  0  0  0  0  0  0  0  0
  142.3009   74.4203  218.0815 H   0  0  0  0  0  0  0  0  0  0  0  0
  141.5395   75.5193  216.8375 H   0  0  0  0  0  0  0  0  0  0  0  0
  143.8290   76.1600  217.7434 H   0  0  0  0  0  0  0  0  0  0  0  0
  142.5024   77.4067  217.7304 H   0  0  0  0  0  0  0  0  0  0  0  0
  143.5096   75.8136  220.0999 H   0  0  0  0  0  0  0  0  0  0  0  0
  143.7031   77.5900  219.7687 H   0  0  0  0  0  0  0  0  0  0  0  0
  141.8713   77.1155  221.4429 H   0  0  0  0  0  0  0  0  0  0  0  0
  140.3192   78.2210  219.1023 H   0  0  0  0  0  0  0  0  0  0  0  0
  142.2520   79.9280  219.1370 H   0  0  0  0  0  0  0  0  0  0  0  0
  140.9966   81.8831  220.6861 H   0  0  0  0  0  0  0  0  0  0  0  0
  141.1562   82.9560  222.8816 H   0  0  0  0  0  0  0  0  0  0  0  0
  142.1491   81.7553  224.8053 H   0  0  0  0  0  0  0  0  0  0  0  0
  142.9917   79.4398  224.4819 H   0  0  0  0  0  0  0  0  0  0  0  0
  142.8266   78.3686  222.2819 H   0  0  0  0  0  0  0  0  0  0  0  0
  138.8330   69.2637  222.5239 H   0  0  0  0  0  0  0  0  0  0  0  0
  138.8170   67.9247  224.5940 H   0  0  0  0  0  0  0  0  0  0  0  0
  139.3355   67.6899  226.8812 H   0  0  0  0  0  0  0  0  0  0  0  0
  141.2659   70.9080  228.9161 H   0  0  0  0  0  0  0  0  0  0  0  0
  141.2938   72.2614  226.8664 H   0  0  0  0  0  0  0  0  0  0  0  0
  1  2  2  0
  2  3  1  0
  3  4  1  0
  4  5  1  0
  5  6  2  0
  5  7  1  0
  7  8  1  0
  8  9  1  0
  9 10  1  0
 10 11  1  0
 11 12  1  0
 12 13  1  0
 13 14  2  0
 14 15  1  0
 15 16  2  0
 16 17  1  0
 17 18  2  0
 18 19  1  0
 19 20  2  0
  2 21  1  0
 21 22  2  0
 22 23  1  0
 23 24  2  0
 24 25  1  0
 25 26  2  0
 26 27  1  0
 26 28  1  0
 28 29  2  0
 29 30  1  0
 30 31  2  0
 12  7  1  0
 20 15  1  0
 31 21  1  0
 30 24  1  0
  3 32  1  0
  4 33  1  0
  4 34  1  0
  8 35  1  0
  8 36  1  0
  9 37  1  0
  9 38  1  0
 10 39  1  0
 10 40  1  0
 11 41  1  0
 11 42  1  0
 12 43  1  1
 13 44  1  0
 14 45  1  0
 16 46  1  0
 17 47  1  0
 18 48  1  0
 19 49  1  0
 20 50  1  0
 22 51  1  0
 23 52  1  0
 25 53  1  0
 28 54  1  0
 29 55  1  0
M  END
>  <smiles>  (82) 
O=C(NCC(=O)N1CCCCC1/C=C/c1ccccc1)c1ccc2cc(F)ccc2n1

>  <score_type>  (82) 
oracle

>  <origin>  (82) 
autodockgpu

>  <m_score__min__energy>  (82) 
-9.1899999999999995

>  <m_primary>  (82) 
energy

>  <rmsd>  (82) 
1.4803287579386792

>  <m_score__min__rmsd>  (82) 
1.4803287579386792

>  <meeko>  (82) 
{"free_energy": -8.91, "intermolecular_energy": -11.0, "internal_energy": -1.91, "cluster_size": 17, "cluster_id": 1, "rank_in_cluster": 5}

>  <energy>  (82) 
-8.55

>  <cluster_rmsd>  (82) 
0.47

>  <cluster>  (82) 
4

$$$$

     RDKit          3D

 55 58  0  0  0  0  0  0  0  0999 V2000
  140.9910   72.0990  221.3790 O   0  0  0  0  0  0  0  0  0  0  0  0
  140.1790   72.3770  222.3250 C   0  0  0  0  0  0  0  0  0  0  0  0
  139.3030   73.4970  222.2620 N   0  0  0  0  0  0  0  0  0  0  0  0
  139.3510   74.3330  221.0780 C   0  0  0  0  0  0  0  0  0  0  0  0
  139.1990   75.7690  221.4960 C   0  0  0  0  0  0  0  0  0  0  0  0
  138.0580   76.2360  221.8250 O   0  0  0  0  0  0  0  0  0  0  0  0
  140.3630   76.5890  221.5100 N   0  0  0  0  0  0  0  0  0  0  0  0
  141.0770   76.9310  222.7250 C   0  0  0  0  0  0  0  0  0  0  0  0
  141.4120   78.3790  222.8530 C   0  0  0  0  0  0  0  0  0  0  0  0
  141.8480   79.0090  221.5570 C   0  0  0  0  0  0  0  0  0  0  0  0
  140.9790   78.6060  220.3950 C   0  0  0  0  0  0  0  0  0  0  0  0
  140.8600   77.1060  220.2610 C   0  0  1  0  0  0  0  0  0  0  0  0
  142.2460   76.5930  220.0020 C   0  0  0  0  0  0  0  0  0  0  0  0
  142.4160   75.3630  219.5900 C   0  0  0  0  0  0  0  0  0  0  0  0
  143.4870   74.4800  220.0290 C   0  0  0  0  0  0  0  0  0  0  0  0
  144.7190   74.9900  220.4550 C   0  0  0  0  0  0  0  0  0  0  0  0
  145.7410   74.1750  220.8730 C   0  0  0  0  0  0  0  0  0  0  0  0
  145.5880   72.8120  220.8890 C   0  0  0  0  0  0  0  0  0  0  0  0
  144.3930   72.2740  220.4770 C   0  0  0  0  0  0  0  0  0  0  0  0
  143.3760   73.1060  220.0610 C   0  0  0  0  0  0  0  0  0  0  0  0
  140.1410   71.5180  223.5240 C   0  0  0  0  0  0  0  0  0  0  0  0
  139.5820   70.2560  223.4310 C   0  0  0  0  0  0  0  0  0  0  0  0
  139.5230   69.4190  224.5180 C   0  0  0  0  0  0  0  0  0  0  0  0
  140.0310   69.8400  225.7250 C   0  0  0  0  0  0  0  0  0  0  0  0
  139.9650   68.9970  226.8010 C   0  0  0  0  0  0  0  0  0  0  0  0
  140.4770   69.4220  228.0240 C   0  0  0  0  0  0  0  0  0  0  0  0
  140.4180   68.5860  229.1050 F   0  0  0  0  0  0  0  0  0  0  0  0
  141.0200   70.6680  228.0790 C   0  0  0  0  0  0  0  0  0  0  0  0
  141.0890   71.5250  226.9990 C   0  0  0  0  0  0  0  0  0  0  0  0
  140.5770   71.1050  225.7690 C   0  0  0  0  0  0  0  0  0  0  0  0
  140.6270   71.9140  224.6970 N   0  0  0  0  0  0  0  0  0  0  0  0
  138.6470   73.7030  223.0510 H   0  0  0  0  0  0  0  0  0  0  0  0
  140.3155   74.1962  220.5671 H   0  0  0  0  0  0  0  0  0  0  0  0
  138.5394   74.0550  220.3895 H   0  0  0  0  0  0  0  0  0  0  0  0
  140.4523   76.6447  223.5839 H   0  0  0  0  0  0  0  0  0  0  0  0
  142.0331   76.3881  222.6921 H   0  0  0  0  0  0  0  0  0  0  0  0
  140.5214   78.9120  223.2174 H   0  0  0  0  0  0  0  0  0  0  0  0
  142.2579   78.4559  223.5520 H   0  0  0  0  0  0  0  0  0  0  0  0
  141.8059   80.1028  221.6655 H   0  0  0  0  0  0  0  0  0  0  0  0
  142.8697   78.6609  221.3449 H   0  0  0  0  0  0  0  0  0  0  0  0
  139.9741   79.0289  220.5414 H   0  0  0  0  0  0  0  0  0  0  0  0
  141.4465   78.9898  219.4762 H   0  0  0  0  0  0  0  0  0  0  0  0
  140.1800   76.8039  219.4508 H   0  0  0  0  0  0  0  0  0  0  0  0
  143.1156   77.2484  220.1579 H   0  0  0  0  0  0  0  0  0  0  0  0
  141.6968   74.9668  218.8580 H   0  0  0  0  0  0  0  0  0  0  0  0
  144.8730   76.0792  220.4547 H   0  0  0  0  0  0  0  0  0  0  0  0
  146.6930   74.6196  221.1987 H   0  0  0  0  0  0  0  0  0  0  0  0
  146.4081   72.1609  221.2260 H   0  0  0  0  0  0  0  0  0  0  0  0
  144.2484   71.1836  220.4791 H   0  0  0  0  0  0  0  0  0  0  0  0
  142.4280   72.6510  219.7382 H   0  0  0  0  0  0  0  0  0  0  0  0
  139.1765   69.9161  222.4666 H   0  0  0  0  0  0  0  0  0  0  0  0
  139.0730   68.4196  224.4243 H   0  0  0  0  0  0  0  0  0  0  0  0
  139.5142   67.9986  226.7011 H   0  0  0  0  0  0  0  0  0  0  0  0
  141.4281   71.0129  229.0405 H   0  0  0  0  0  0  0  0  0  0  0  0
  141.5400   72.5227  227.1052 H   0  0  0  0  0  0  0  0  0  0  0  0
  1  2  2  0
  2  3  1  0
  3  4  1  0
  4  5  1  0
  5  6  2  0
  5  7  1  0
  7  8  1  0
  8  9  1  0
  9 10  1  0
 10 11  1  0
 11 12  1  0
 12 13  1  0
 13 14  2  0
 14 15  1  0
 15 16  2  0
 16 17  1  0
 17 18  2  0
 18 19  1  0
 19 20  2  0
  2 21  1  0
 21 22  2  0
 22 23  1  0
 23 24  2  0
 24 25  1  0
 25 26  2  0
 26 27  1  0
 26 28  1  0
 28 29  2  0
 29 30  1  0
 30 31  2  0
 12  7  1  0
 20 15  1  0
 31 21  1  0
 30 24  1  0
  3 32  1  0
  4 33  1  0
  4 34  1  0
  8 35  1  0
  8 36  1  0
  9 37  1  0
  9 38  1  0
 10 39  1  0
 10 40  1  0
 11 41  1  0
 11 42  1  0
 12 43  1  6
 13 44  1  0
 14 45  1  0
 16 46  1  0
 17 47  1  0
 18 48  1  0
 19 49  1  0
 20 50  1  0
 22 51  1  0
 23 52  1  0
 25 53  1  0
 28 54  1  0
 29 55  1  0
M  END
>  <smiles>  (83) 
O=C(NCC(=O)N1CCCCC1/C=C/c1ccccc1)c1ccc2cc(F)ccc2n1

>  <score_type>  (83) 
oracle

>  <origin>  (83) 
autodockgpu

>  <m_score__min__energy>  (83) 
-9.1899999999999995

>  <m_primary>  (83) 
energy

>  <rmsd>  (83) 
2.726416226054491

>  <m_score__min__rmsd>  (83) 
2.726416226054491

>  <meeko>  (83) 
{"free_energy": -9.02, "intermolecular_energy": -11.11, "internal_energy": -1.97, "cluster_size": 6, "cluster_id": 2, "rank_in_cluster": 2}

>  <energy>  (83) 
-8.55

>  <cluster_rmsd>  (83) 
0.72

>  <cluster>  (83) 
4

$$$$

     RDKit          3D

 55 58  0  0  0  0  0  0  0  0999 V2000
  139.6300   71.3730  221.4910 O   0  0  0  0  0  0  0  0  0  0  0  0
  139.0280   71.6610  222.5810 C   0  0  0  0  0  0  0  0  0  0  0  0
  137.8660   72.4820  222.6050 N   0  0  0  0  0  0  0  0  0  0  0  0
  137.3670   72.9950  221.3430 C   0  0  0  0  0  0  0  0  0  0  0  0
  137.5560   74.4860  221.3200 C   0  0  0  0  0  0  0  0  0  0  0  0
  136.6000   75.2700  221.6360 O   0  0  0  0  0  0  0  0  0  0  0  0
  138.8290   74.9930  220.9350 N   0  0  0  0  0  0  0  0  0  0  0  0
  139.2070   75.2230  219.5550 C   0  0  0  0  0  0  0  0  0  0  0  0
  140.5500   74.6870  219.1890 C   0  0  0  0  0  0  0  0  0  0  0  0
  141.5860   74.8830  220.2630 C   0  0  0  0  0  0  0  0  0  0  0  0
  141.0660   74.5520  221.6380 C   0  0  0  0  0  0  0  0  0  0  0  0
  139.7930   75.2950  221.9630 C   0  0  1  0  0  0  0  0  0  0  0  0
  140.1360   76.7550  221.9390 C   0  0  0  0  0  0  0  0  0  0  0  0
  141.0780   77.2140  222.7230 C   0  0  0  0  0  0  0  0  0  0  0  0
  141.2960   78.6210  223.0260 C   0  0  0  0  0  0  0  0  0  0  0  0
  142.5850   79.1670  223.0480 C   0  0  0  0  0  0  0  0  0  0  0  0
  142.8120   80.4910  223.3310 C   0  0  0  0  0  0  0  0  0  0  0  0
  141.7680   81.3370  223.6050 C   0  0  0  0  0  0  0  0  0  0  0  0
  140.4890   80.8380  223.5930 C   0  0  0  0  0  0  0  0  0  0  0  0
  140.2770   79.5060  223.3070 C   0  0  0  0  0  0  0  0  0  0  0  0
  139.5460   71.1330  223.8570 C   0  0  0  0  0  0  0  0  0  0  0  0
  140.4510   71.8870  224.5810 C   0  0  0  0  0  0  0  0  0  0  0  0
  140.9610   71.4390  225.7740 C   0  0  0  0  0  0  0  0  0  0  0  0
  140.5670   70.2150  226.2630 C   0  0  0  0  0  0  0  0  0  0  0  0
  141.0840   69.7790  227.4530 C   0  0  0  0  0  0  0  0  0  0  0  0
  140.6860   68.5400  227.9480 C   0  0  0  0  0  0  0  0  0  0  0  0
  141.1960   68.0960  229.1370 F   0  0  0  0  0  0  0  0  0  0  0  0
  139.7940   67.8250  227.2100 C   0  0  0  0  0  0  0  0  0  0  0  0
  139.2690   68.2570  226.0090 C   0  0  0  0  0  0  0  0  0  0  0  0
  139.6640   69.5000  225.5060 C   0  0  0  0  0  0  0  0  0  0  0  0
  139.1730   69.9500  224.3400 N   0  0  0  0  0  0  0  0  0  0  0  0
  137.3900   72.7030  223.5110 H   0  0  0  0  0  0  0  0  0  0  0  0
  137.9242   72.5385  220.5117 H   0  0  0  0  0  0  0  0  0  0  0  0
  136.2999   72.7509  221.2350 H   0  0  0  0  0  0  0  0  0  0  0  0
  138.4571   74.7444  218.9080 H   0  0  0  0  0  0  0  0  0  0  0  0
  139.2553   76.3135  219.4192 H   0  0  0  0  0  0  0  0  0  0  0  0
  140.4530   73.6093  218.9910 H   0  0  0  0  0  0  0  0  0  0  0  0
  140.8912   75.2439  218.3039 H   0  0  0  0  0  0  0  0  0  0  0  0
  142.4460   74.2325  220.0457 H   0  0  0  0  0  0  0  0  0  0  0  0
  141.8701   75.9457  220.2615 H   0  0  0  0  0  0  0  0  0  0  0  0
  140.8681   73.4712  221.6907 H   0  0  0  0  0  0  0  0  0  0  0  0
  141.8295   74.8566  222.3689 H   0  0  0  0  0  0  0  0  0  0  0  0
  139.3755   75.0138  222.9411 H   0  0  0  0  0  0  0  0  0  0  0  0
  139.5977   77.4375  221.2648 H   0  0  0  0  0  0  0  0  0  0  0  0
  141.7553   76.4822  223.1875 H   0  0  0  0  0  0  0  0  0  0  0  0
  143.4434   78.5141  222.8316 H   0  0  0  0  0  0  0  0  0  0  0  0
  143.8419   80.8773  223.3380 H   0  0  0  0  0  0  0  0  0  0  0  0
  141.9523   82.3977  223.8306 H   0  0  0  0  0  0  0  0  0  0  0  0
  139.6367   81.4984  223.8107 H   0  0  0  0  0  0  0  0  0  0  0  0
  139.2430   79.1307  223.3028 H   0  0  0  0  0  0  0  0  0  0  0  0
  140.7688   72.8660  224.1930 H   0  0  0  0  0  0  0  0  0  0  0  0
  141.6797   72.0544  226.3351 H   0  0  0  0  0  0  0  0  0  0  0  0
  141.8029   70.3980  228.0098 H   0  0  0  0  0  0  0  0  0  0  0  0
  139.4725   66.8453  227.5931 H   0  0  0  0  0  0  0  0  0  0  0  0
  138.5511   67.6331  225.4563 H   0  0  0  0  0  0  0  0  0  0  0  0
  1  2  2  0
  2  3  1  0
  3  4  1  0
  4  5  1  0
  5  6  2  0
  5  7  1  0
  7  8  1  0
  8  9  1  0
  9 10  1  0
 10 11  1  0
 11 12  1  0
 12 13  1  0
 13 14  2  0
 14 15  1  0
 15 16  2  0
 16 17  1  0
 17 18  2  0
 18 19  1  0
 19 20  2  0
  2 21  1  0
 21 22  2  0
 22 23  1  0
 23 24  2  0
 24 25  1  0
 25 26  2  0
 26 27  1  0
 26 28  1  0
 28 29  2  0
 29 30  1  0
 30 31  2  0
 12  7  1  0
 20 15  1  0
 31 21  1  0
 30 24  1  0
  3 32  1  0
  4 33  1  0
  4 34  1  0
  8 35  1  0
  8 36  1  0
  9 37  1  0
  9 38  1  0
 10 39  1  0
 10 40  1  0
 11 41  1  0
 11 42  1  0
 12 43  1  1
 13 44  1  0
 14 45  1  0
 16 46  1  0
 17 47  1  0
 18 48  1  0
 19 49  1  0
 20 50  1  0
 22 51  1  0
 23 52  1  0
 25 53  1  0
 28 54  1  0
 29 55  1  0
M  END
>  <smiles>  (84) 
O=C(NCC(=O)N1CCCCC1/C=C/c1ccccc1)c1ccc2cc(F)ccc2n1

>  <score_type>  (84) 
oracle

>  <origin>  (84) 
autodockgpu

>  <m_score__min__energy>  (84) 
-9.1899999999999995

>  <m_primary>  (84) 
energy

>  <rmsd>  (84) 
2.974258708095652

>  <m_score__min__rmsd>  (84) 
2.974258708095652

>  <meeko>  (84) 
{"free_energy": -8.6, "intermolecular_energy": -10.69, "internal_energy": -1.77, "cluster_size": 17, "cluster_id": 1, "rank_in_cluster": 10}

>  <energy>  (84) 
-8.52

>  <cluster_rmsd>  (84) 
0.51

>  <cluster>  (84) 
4

$$$$

     RDKit          3D

 55 58  0  0  0  0  0  0  0  0999 V2000
  140.0300   70.6540  221.1500 O   0  0  0  0  0  0  0  0  0  0  0  0
  139.9430   71.3590  222.2120 C   0  0  0  0  0  0  0  0  0  0  0  0
  139.9170   72.7810  222.1720 N   0  0  0  0  0  0  0  0  0  0  0  0
  139.9900   73.4280  220.8760 C   0  0  0  0  0  0  0  0  0  0  0  0
  140.5210   74.8220  221.0620 C   0  0  0  0  0  0  0  0  0  0  0  0
  140.5770   75.3500  222.2220 O   0  0  0  0  0  0  0  0  0  0  0  0
  140.9560   75.5320  219.9070 N   0  0  0  0  0  0  0  0  0  0  0  0
  140.1990   75.5750  218.6710 C   0  0  0  0  0  0  0  0  0  0  0  0
  141.0090   75.3110  217.4470 C   0  0  0  0  0  0  0  0  0  0  0  0
  142.3720   75.9490  217.4810 C   0  0  0  0  0  0  0  0  0  0  0  0
  143.0610   75.7740  218.8100 C   0  0  0  0  0  0  0  0  0  0  0  0
  142.2070   76.2440  219.9640 C   0  0  1  0  0  0  0  0  0  0  0  0
  141.9780   77.7120  219.7510 C   0  0  0  0  0  0  0  0  0  0  0  0
  141.1790   78.3670  220.5530 C   0  0  0  0  0  0  0  0  0  0  0  0
  141.5910   79.0220  221.7860 C   0  0  0  0  0  0  0  0  0  0  0  0
  141.4060   78.4080  223.0300 C   0  0  0  0  0  0  0  0  0  0  0  0
  141.7890   79.0090  224.2040 C   0  0  0  0  0  0  0  0  0  0  0  0
  142.3740   80.2490  224.1980 C   0  0  0  0  0  0  0  0  0  0  0  0
  142.5710   80.8830  222.9960 C   0  0  0  0  0  0  0  0  0  0  0  0
  142.1820   80.2670  221.8260 C   0  0  0  0  0  0  0  0  0  0  0  0
  139.8690   70.6880  223.5240 C   0  0  0  0  0  0  0  0  0  0  0  0
  139.2740   69.4420  223.6110 C   0  0  0  0  0  0  0  0  0  0  0  0
  139.1820   68.7770  224.8090 C   0  0  0  0  0  0  0  0  0  0  0  0
  139.6890   69.3590  225.9470 C   0  0  0  0  0  0  0  0  0  0  0  0
  139.5890   68.6860  227.1350 C   0  0  0  0  0  0  0  0  0  0  0  0
  140.1020   69.2730  228.2890 C   0  0  0  0  0  0  0  0  0  0  0  0
  140.0080   68.6090  229.4800 F   0  0  0  0  0  0  0  0  0  0  0  0
  140.6800   70.4990  228.1660 C   0  0  0  0  0  0  0  0  0  0  0  0
  140.7840   71.1840  226.9720 C   0  0  0  0  0  0  0  0  0  0  0  0
  140.2710   70.6000  225.8110 C   0  0  0  0  0  0  0  0  0  0  0  0
  140.3560   71.2400  224.6330 N   0  0  0  0  0  0  0  0  0  0  0  0
  139.8450   73.3360  223.0570 H   0  0  0  0  0  0  0  0  0  0  0  0
  140.6631   72.8605  220.2165 H   0  0  0  0  0  0  0  0  0  0  0  0
  138.9900   73.4659  220.4194 H   0  0  0  0  0  0  0  0  0  0  0  0
  139.4032   74.8177  218.7277 H   0  0  0  0  0  0  0  0  0  0  0  0
  139.8081   76.5988  218.5759 H   0  0  0  0  0  0  0  0  0  0  0  0
  141.1360   74.2235  217.3411 H   0  0  0  0  0  0  0  0  0  0  0  0
  140.4661   75.7517  216.5979 H   0  0  0  0  0  0  0  0  0  0  0  0
  142.9948   75.4913  216.6983 H   0  0  0  0  0  0  0  0  0  0  0  0
  142.2389   77.0281  217.3143 H   0  0  0  0  0  0  0  0  0  0  0  0
  143.2913   74.7077  218.9515 H   0  0  0  0  0  0  0  0  0  0  0  0
  143.9762   76.3842  218.7979 H   0  0  0  0  0  0  0  0  0  0  0  0
  142.6782   76.0654  220.9418 H   0  0  0  0  0  0  0  0  0  0  0  0
  142.4802   78.2349  218.9237 H   0  0  0  0  0  0  0  0  0  0  0  0
  140.1164   78.4274  220.2750 H   0  0  0  0  0  0  0  0  0  0  0  0
  140.9392   77.4127  223.0686 H   0  0  0  0  0  0  0  0  0  0  0  0
  141.6246   78.4898  225.1597 H   0  0  0  0  0  0  0  0  0  0  0  0
  142.6802   80.7277  225.1398 H   0  0  0  0  0  0  0  0  0  0  0  0
  143.0375   81.8788  222.9670 H   0  0  0  0  0  0  0  0  0  0  0  0
  142.3516   80.7953  220.8762 H   0  0  0  0  0  0  0  0  0  0  0  0
  138.8665   68.9747  222.7024 H   0  0  0  0  0  0  0  0  0  0  0  0
  138.7064   67.7863  224.8579 H   0  0  0  0  0  0  0  0  0  0  0  0
  139.1106   67.6964  227.1774 H   0  0  0  0  0  0  0  0  0  0  0  0
  141.0883   70.9719  229.0713 H   0  0  0  0  0  0  0  0  0  0  0  0
  141.2630   72.1736  226.9352 H   0  0  0  0  0  0  0  0  0  0  0  0
  1  2  2  0
  2  3  1  0
  3  4  1  0
  4  5  1  0
  5  6  2  0
  5  7  1  0
  7  8  1  0
  8  9  1  0
  9 10  1  0
 10 11  1  0
 11 12  1  0
 12 13  1  0
 13 14  2  0
 14 15  1  0
 15 16  2  0
 16 17  1  0
 17 18  2  0
 18 19  1  0
 19 20  2  0
  2 21  1  0
 21 22  2  0
 22 23  1  0
 23 24  2  0
 24 25  1  0
 25 26  2  0
 26 27  1  0
 26 28  1  0
 28 29  2  0
 29 30  1  0
 30 31  2  0
 12  7  1  0
 20 15  1  0
 31 21  1  0
 30 24  1  0
  3 32  1  0
  4 33  1  0
  4 34  1  0
  8 35  1  0
  8 36  1  0
  9 37  1  0
  9 38  1  0
 10 39  1  0
 10 40  1  0
 11 41  1  0
 11 42  1  0
 12 43  1  1
 13 44  1  0
 14 45  1  0
 16 46  1  0
 17 47  1  0
 18 48  1  0
 19 49  1  0
 20 50  1  0
 22 51  1  0
 23 52  1  0
 25 53  1  0
 28 54  1  0
 29 55  1  0
M  END
>  <smiles>  (85) 
O=C(NCC(=O)N1CCCCC1/C=C/c1ccccc1)c1ccc2cc(F)ccc2n1

>  <score_type>  (85) 
oracle

>  <origin>  (85) 
autodockgpu

>  <m_score__min__energy>  (85) 
-9.1899999999999995

>  <m_primary>  (85) 
energy

>  <rmsd>  (85) 
1.4652775809777228

>  <m_score__min__rmsd>  (85) 
1.4652775809777228

>  <meeko>  (85) 
{"free_energy": -8.55, "intermolecular_energy": -10.63, "internal_energy": -2.09, "cluster_size": 17, "cluster_id": 1, "rank_in_cluster": 11}

>  <energy>  (85) 
-8.5

>  <cluster_rmsd>  (85) 
0.54

>  <cluster>  (85) 
4

$$$$

     RDKit          3D

 55 58  0  0  0  0  0  0  0  0999 V2000
  141.4900   73.3880  221.0280 O   0  0  0  0  0  0  0  0  0  0  0  0
  140.6930   74.2180  221.5850 C   0  0  0  0  0  0  0  0  0  0  0  0
  139.5230   73.7930  222.2720 N   0  0  0  0  0  0  0  0  0  0  0  0
  139.2450   72.3710  222.3320 C   0  0  0  0  0  0  0  0  0  0  0  0
  137.7830   72.1760  222.6200 C   0  0  0  0  0  0  0  0  0  0  0  0
  136.9710   73.1590  222.5680 O   0  0  0  0  0  0  0  0  0  0  0  0
  137.3340   70.8660  222.9510 N   0  0  0  0  0  0  0  0  0  0  0  0
  136.5760   70.0330  222.0380 C   0  0  0  0  0  0  0  0  0  0  0  0
  135.3730   69.3930  222.6460 C   0  0  0  0  0  0  0  0  0  0  0  0
  135.6030   68.9020  224.0510 C   0  0  0  0  0  0  0  0  0  0  0  0
  136.3530   69.8970  224.8980 C   0  0  0  0  0  0  0  0  0  0  0  0
  137.6460   70.3370  224.2540 C   0  0  1  0  0  0  0  0  0  0  0  0
  138.4950   69.1070  224.1250 C   0  0  0  0  0  0  0  0  0  0  0  0
  139.5700   68.9790  224.8600 C   0  0  0  0  0  0  0  0  0  0  0  0
  139.9590   69.8870  225.9290 C   0  0  0  0  0  0  0  0  0  0  0  0
  140.7220   71.0310  225.6660 C   0  0  0  0  0  0  0  0  0  0  0  0
  141.0990   71.9010  226.6600 C   0  0  0  0  0  0  0  0  0  0  0  0
  140.7360   71.6750  227.9630 C   0  0  0  0  0  0  0  0  0  0  0  0
  139.9880   70.5620  228.2590 C   0  0  0  0  0  0  0  0  0  0  0  0
  139.6160   69.6990  227.2510 C   0  0  0  0  0  0  0  0  0  0  0  0
  140.9880   75.6620  221.5170 C   0  0  0  0  0  0  0  0  0  0  0  0
  141.5510   76.1820  220.3650 C   0  0  0  0  0  0  0  0  0  0  0  0
  141.8430   77.5190  220.2530 C   0  0  0  0  0  0  0  0  0  0  0  0
  141.5710   78.3620  221.3060 C   0  0  0  0  0  0  0  0  0  0  0  0
  141.8680   79.6920  221.1820 C   0  0  0  0  0  0  0  0  0  0  0  0
  141.5940   80.5470  222.2460 C   0  0  0  0  0  0  0  0  0  0  0  0
  141.8860   81.8780  222.1320 F   0  0  0  0  0  0  0  0  0  0  0  0
  141.0400   80.0010  223.3630 C   0  0  0  0  0  0  0  0  0  0  0  0
  140.7390   78.6610  223.4960 C   0  0  0  0  0  0  0  0  0  0  0  0
  141.0110   77.7980  222.4310 C   0  0  0  0  0  0  0  0  0  0  0  0
  140.7300   76.4880  222.5280 N   0  0  0  0  0  0  0  0  0  0  0  0
  138.8860   74.4930  222.7200 H   0  0  0  0  0  0  0  0  0  0  0  0
  139.4978   71.9038  221.3688 H   0  0  0  0  0  0  0  0  0  0  0  0
  139.8480   71.9051  223.1253 H   0  0  0  0  0  0  0  0  0  0  0  0
  136.2451   70.6579  221.1954 H   0  0  0  0  0  0  0  0  0  0  0  0
  137.2445   69.2164  221.7277 H   0  0  0  0  0  0  0  0  0  0  0  0
  134.5569   70.1304  222.6634 H   0  0  0  0  0  0  0  0  0  0  0  0
  135.1265   68.5148  222.0312 H   0  0  0  0  0  0  0  0  0  0  0  0
  134.6273   68.7055  224.5195 H   0  0  0  0  0  0  0  0  0  0  0  0
  136.2148   67.9900  223.9888 H   0  0  0  0  0  0  0  0  0  0  0  0
  135.7164   70.7805  225.0533 H   0  0  0  0  0  0  0  0  0  0  0  0
  136.6009   69.4083  225.8518 H   0  0  0  0  0  0  0  0  0  0  0  0
  138.1708   71.1074  224.8380 H   0  0  0  0  0  0  0  0  0  0  0  0
  138.2147   68.3152  223.4148 H   0  0  0  0  0  0  0  0  0  0  0  0
  140.2283   68.1219  224.6548 H   0  0  0  0  0  0  0  0  0  0  0  0
  141.0293   71.2398  224.6306 H   0  0  0  0  0  0  0  0  0  0  0  0
  141.6984   72.7883  226.4081 H   0  0  0  0  0  0  0  0  0  0  0  0
  141.0387   72.3732  228.7573 H   0  0  0  0  0  0  0  0  0  0  0  0
  139.6867   70.3599  229.2975 H   0  0  0  0  0  0  0  0  0  0  0  0
  139.0153   68.8159  227.5144 H   0  0  0  0  0  0  0  0  0  0  0  0
  141.7691   75.5105  219.5215 H   0  0  0  0  0  0  0  0  0  0  0  0
  142.2908   77.9131  219.3288 H   0  0  0  0  0  0  0  0  0  0  0  0
  142.3165   80.0798  220.2555 H   0  0  0  0  0  0  0  0  0  0  0  0
  140.8192   80.6675  224.2098 H   0  0  0  0  0  0  0  0  0  0  0  0
  140.2921   78.2782  224.4254 H   0  0  0  0  0  0  0  0  0  0  0  0
  1  2  2  0
  2  3  1  0
  3  4  1  0
  4  5  1  0
  5  6  2  0
  5  7  1  0
  7  8  1  0
  8  9  1  0
  9 10  1  0
 10 11  1  0
 11 12  1  0
 12 13  1  0
 13 14  2  0
 14 15  1  0
 15 16  2  0
 16 17  1  0
 17 18  2  0
 18 19  1  0
 19 20  2  0
  2 21  1  0
 21 22  2  0
 22 23  1  0
 23 24  2  0
 24 25  1  0
 25 26  2  0
 26 27  1  0
 26 28  1  0
 28 29  2  0
 29 30  1  0
 30 31  2  0
 12  7  1  0
 20 15  1  0
 31 21  1  0
 30 24  1  0
  3 32  1  0
  4 33  1  0
  4 34  1  0
  8 35  1  0
  8 36  1  0
  9 37  1  0
  9 38  1  0
 10 39  1  0
 10 40  1  0
 11 41  1  0
 11 42  1  0
 12 43  1  1
 13 44  1  0
 14 45  1  0
 16 46  1  0
 17 47  1  0
 18 48  1  0
 19 49  1  0
 20 50  1  0
 22 51  1  0
 23 52  1  0
 25 53  1  0
 28 54  1  0
 29 55  1  0
M  END
>  <smiles>  (86) 
O=C(NCC(=O)N1CCCCC1/C=C/c1ccccc1)c1ccc2cc(F)ccc2n1

>  <score_type>  (86) 
oracle

>  <origin>  (86) 
autodockgpu

>  <m_score__min__energy>  (86) 
-9.1899999999999995

>  <m_primary>  (86) 
energy

>  <rmsd>  (86) 
8.633857980751898

>  <m_score__min__rmsd>  (86) 
8.633857980751898

>  <meeko>  (86) 
{"free_energy": -8.34, "intermolecular_energy": -10.43, "internal_energy": -2.19, "cluster_size": 22, "cluster_id": 4, "rank_in_cluster": 20}

>  <energy>  (86) 
-8.5

>  <cluster_rmsd>  (86) 
0.57

>  <cluster>  (86) 
4

$$$$

     RDKit          3D

 55 58  0  0  0  0  0  0  0  0999 V2000
  137.9070   75.2290  220.3720 O   0  0  0  0  0  0  0  0  0  0  0  0
  138.6440   75.3910  221.4030 C   0  0  0  0  0  0  0  0  0  0  0  0
  138.9780   74.3110  222.2670 N   0  0  0  0  0  0  0  0  0  0  0  0
  138.4560   72.9960  221.9490 C   0  0  0  0  0  0  0  0  0  0  0  0
  139.1990   71.9720  222.7600 C   0  0  0  0  0  0  0  0  0  0  0  0
  140.2280   72.2990  223.4390 O   0  0  0  0  0  0  0  0  0  0  0  0
  138.7210   70.6310  222.7450 N   0  0  0  0  0  0  0  0  0  0  0  0
  138.9420   69.7230  221.6370 C   0  0  0  0  0  0  0  0  0  0  0  0
  137.7220   68.9850  221.1970 C   0  0  0  0  0  0  0  0  0  0  0  0
  136.8510   68.5330  222.3390 C   0  0  0  0  0  0  0  0  0  0  0  0
  136.6660   69.6010  223.3850 C   0  0  0  0  0  0  0  0  0  0  0  0
  137.9820   70.1480  223.8840 C   0  0  1  0  0  0  0  0  0  0  0  0
  138.7050   68.9970  224.5210 C   0  0  0  0  0  0  0  0  0  0  0  0
  139.9030   69.1760  225.0150 C   0  0  0  0  0  0  0  0  0  0  0  0
  140.2250   70.0830  226.1070 C   0  0  0  0  0  0  0  0  0  0  0  0
  141.0840   71.1720  225.9160 C   0  0  0  0  0  0  0  0  0  0  0  0
  141.4000   72.0390  226.9320 C   0  0  0  0  0  0  0  0  0  0  0  0
  140.8780   71.8650  228.1890 C   0  0  0  0  0  0  0  0  0  0  0  0
  140.0320   70.8070  228.4150 C   0  0  0  0  0  0  0  0  0  0  0  0
  139.7240   69.9460  227.3840 C   0  0  0  0  0  0  0  0  0  0  0  0
  139.1690   76.7340  221.7150 C   0  0  0  0  0  0  0  0  0  0  0  0
  138.5600   77.8430  221.1540 C   0  0  0  0  0  0  0  0  0  0  0  0
  139.0110   79.1130  221.4150 C   0  0  0  0  0  0  0  0  0  0  0  0
  140.0910   79.2910  222.2490 C   0  0  0  0  0  0  0  0  0  0  0  0
  140.5310   80.5620  222.5000 C   0  0  0  0  0  0  0  0  0  0  0  0
  141.6240   80.7440  223.3430 C   0  0  0  0  0  0  0  0  0  0  0  0
  142.0710   82.0110  223.6010 F   0  0  0  0  0  0  0  0  0  0  0  0
  142.1980   79.6320  223.8770 C   0  0  0  0  0  0  0  0  0  0  0  0
  141.7600   78.3460  223.6290 C   0  0  0  0  0  0  0  0  0  0  0  0
  140.6640   78.1570  222.7830 C   0  0  0  0  0  0  0  0  0  0  0  0
  140.2120   76.9190  222.5200 N   0  0  0  0  0  0  0  0  0  0  0  0
  139.5840   74.4700  223.1060 H   0  0  0  0  0  0  0  0  0  0  0  0
  137.3842   72.9545  222.1932 H   0  0  0  0  0  0  0  0  0  0  0  0
  138.5871   72.7907  220.8763 H   0  0  0  0  0  0  0  0  0  0  0  0
  139.3190   70.3058  220.7836 H   0  0  0  0  0  0  0  0  0  0  0  0
  139.6595   68.9663  221.9872 H   0  0  0  0  0  0  0  0  0  0  0  0
  137.1298   69.6465  220.5477 H   0  0  0  0  0  0  0  0  0  0  0  0
  138.0621   68.0808  220.6709 H   0  0  0  0  0  0  0  0  0  0  0  0
  135.8639   68.2554  221.9407 H   0  0  0  0  0  0  0  0  0  0  0  0
  137.3496   67.6786  222.8201 H   0  0  0  0  0  0  0  0  0  0  0  0
  136.0825   70.4255  222.9494 H   0  0  0  0  0  0  0  0  0  0  0  0
  136.1438   69.1476  224.2404 H   0  0  0  0  0  0  0  0  0  0  0  0
  137.8548   70.9693  224.6046 H   0  0  0  0  0  0  0  0  0  0  0  0
  138.2292   68.0066  224.5722 H   0  0  0  0  0  0  0  0  0  0  0  0
  140.7280   68.5984  224.5725 H   0  0  0  0  0  0  0  0  0  0  0  0
  141.5196   71.3381  224.9197 H   0  0  0  0  0  0  0  0  0  0  0  0
  142.0788   72.8822  226.7365 H   0  0  0  0  0  0  0  0  0  0  0  0
  141.1328   72.5610  229.0018 H   0  0  0  0  0  0  0  0  0  0  0  0
  139.6020   70.6475  229.4148 H   0  0  0  0  0  0  0  0  0  0  0  0
  139.0437   69.1066  227.5905 H   0  0  0  0  0  0  0  0  0  0  0  0
  137.6974   77.7040  220.4857 H   0  0  0  0  0  0  0  0  0  0  0  0
  138.5127   79.9821  220.9607 H   0  0  0  0  0  0  0  0  0  0  0  0
  140.0287   81.4271  222.0426 H   0  0  0  0  0  0  0  0  0  0  0  0
  143.0615   79.7651  224.5454 H   0  0  0  0  0  0  0  0  0  0  0  0
  142.2656   77.4846  224.0898 H   0  0  0  0  0  0  0  0  0  0  0  0
  1  2  2  0
  2  3  1  0
  3  4  1  0
  4  5  1  0
  5  6  2  0
  5  7  1  0
  7  8  1  0
  8  9  1  0
  9 10  1  0
 10 11  1  0
 11 12  1  0
 12 13  1  0
 13 14  2  0
 14 15  1  0
 15 16  2  0
 16 17  1  0
 17 18  2  0
 18 19  1  0
 19 20  2  0
  2 21  1  0
 21 22  2  0
 22 23  1  0
 23 24  2  0
 24 25  1  0
 25 26  2  0
 26 27  1  0
 26 28  1  0
 28 29  2  0
 29 30  1  0
 30 31  2  0
 12  7  1  0
 20 15  1  0
 31 21  1  0
 30 24  1  0
  3 32  1  0
  4 33  1  0
  4 34  1  0
  8 35  1  0
  8 36  1  0
  9 37  1  0
  9 38  1  0
 10 39  1  0
 10 40  1  0
 11 41  1  0
 11 42  1  0
 12 43  1  1
 13 44  1  0
 14 45  1  0
 16 46  1  0
 17 47  1  0
 18 48  1  0
 19 49  1  0
 20 50  1  0
 22 51  1  0
 23 52  1  0
 25 53  1  0
 28 54  1  0
 29 55  1  0
M  END
>  <smiles>  (87) 
O=C(NCC(=O)N1CCCCC1/C=C/c1ccccc1)c1ccc2cc(F)ccc2n1

>  <score_type>  (87) 
oracle

>  <origin>  (87) 
autodockgpu

>  <m_score__min__energy>  (87) 
-9.1899999999999995

>  <m_primary>  (87) 
energy

>  <rmsd>  (87) 
8.470900188880881

>  <m_score__min__rmsd>  (87) 
8.470900188880881

>  <meeko>  (87) 
{"free_energy": -8.27, "intermolecular_energy": -10.36, "internal_energy": -2.22, "cluster_size": 22, "cluster_id": 4, "rank_in_cluster": 22}

>  <energy>  (87) 
-8.48

>  <cluster_rmsd>  (87) 
0.6

>  <cluster>  (87) 
4

$$$$

     RDKit          3D

 55 58  0  0  0  0  0  0  0  0999 V2000
  140.9810   72.0690  221.1910 O   0  0  0  0  0  0  0  0  0  0  0  0
  140.3950   72.4950  222.2440 C   0  0  0  0  0  0  0  0  0  0  0  0
  139.8810   73.8180  222.3360 N   0  0  0  0  0  0  0  0  0  0  0  0
  140.0370   74.6920  221.1890 C   0  0  0  0  0  0  0  0  0  0  0  0
  139.7910   76.1090  221.6240 C   0  0  0  0  0  0  0  0  0  0  0  0
  138.7450   76.4170  222.2860 O   0  0  0  0  0  0  0  0  0  0  0  0
  140.7590   77.0940  221.2750 N   0  0  0  0  0  0  0  0  0  0  0  0
  141.3780   77.9750  222.2460 C   0  0  0  0  0  0  0  0  0  0  0  0
  141.4030   79.4120  221.8420 C   0  0  0  0  0  0  0  0  0  0  0  0
  141.7060   79.6180  220.3820 C   0  0  0  0  0  0  0  0  0  0  0  0
  140.9470   78.6680  219.4920 C   0  0  0  0  0  0  0  0  0  0  0  0
  141.1440   77.2260  219.8930 C   0  0  1  0  0  0  0  0  0  0  0  0
  142.6080   76.9380  219.7340 C   0  0  0  0  0  0  0  0  0  0  0  0
  142.9930   75.8540  219.1100 C   0  0  0  0  0  0  0  0  0  0  0  0
  143.6700   74.7290  219.7380 C   0  0  0  0  0  0  0  0  0  0  0  0
  143.1670   73.4270  219.6280 C   0  0  0  0  0  0  0  0  0  0  0  0
  143.7910   72.3530  220.2120 C   0  0  0  0  0  0  0  0  0  0  0  0
  144.9460   72.5200  220.9330 C   0  0  0  0  0  0  0  0  0  0  0  0
  145.4690   73.7830  221.0630 C   0  0  0  0  0  0  0  0  0  0  0  0
  144.8310   74.8520  220.4700 C   0  0  0  0  0  0  0  0  0  0  0  0
  140.2440   71.5960  223.4030 C   0  0  0  0  0  0  0  0  0  0  0  0
  139.6350   70.3660  223.2280 C   0  0  0  0  0  0  0  0  0  0  0  0
  139.4710   69.4940  224.2750 C   0  0  0  0  0  0  0  0  0  0  0  0
  139.9190   69.8480  225.5270 C   0  0  0  0  0  0  0  0  0  0  0  0
  139.7490   68.9700  226.5640 C   0  0  0  0  0  0  0  0  0  0  0  0
  140.2010   69.3260  227.8310 C   0  0  0  0  0  0  0  0  0  0  0  0
  140.0360   68.4560  228.8730 F   0  0  0  0  0  0  0  0  0  0  0  0
  140.7950   70.5430  227.9670 C   0  0  0  0  0  0  0  0  0  0  0  0
  140.9700   71.4340  226.9270 C   0  0  0  0  0  0  0  0  0  0  0  0
  140.5180   71.0820  225.6530 C   0  0  0  0  0  0  0  0  0  0  0  0
  140.6720   71.9260  224.6190 N   0  0  0  0  0  0  0  0  0  0  0  0
  139.4050   74.1440  223.2100 H   0  0  0  0  0  0  0  0  0  0  0  0
  141.0578   74.5996  220.7897 H   0  0  0  0  0  0  0  0  0  0  0  0
  139.3188   74.4115  220.4045 H   0  0  0  0  0  0  0  0  0  0  0  0
  140.8210   77.8922  223.1909 H   0  0  0  0  0  0  0  0  0  0  0  0
  142.4264   77.6551  222.3390 H   0  0  0  0  0  0  0  0  0  0  0  0
  140.4186   79.8523  222.0592 H   0  0  0  0  0  0  0  0  0  0  0  0
  142.2100   79.8953  222.4122 H   0  0  0  0  0  0  0  0  0  0  0  0
  141.4360   80.6486  220.1083 H   0  0  0  0  0  0  0  0  0  0  0  0
  142.7791   79.4265  220.2346 H   0  0  0  0  0  0  0  0  0  0  0  0
  139.8752   78.9082  219.5508 H   0  0  0  0  0  0  0  0  0  0  0  0
  141.3301   78.7878  218.4678 H   0  0  0  0  0  0  0  0  0  0  0  0
  140.5461   76.5311  219.2850 H   0  0  0  0  0  0  0  0  0  0  0  0
  143.3551   77.6356  220.1405 H   0  0  0  0  0  0  0  0  0  0  0  0
  142.7899   75.7882  218.0309 H   0  0  0  0  0  0  0  0  0  0  0  0
  142.2427   73.2596  219.0556 H   0  0  0  0  0  0  0  0  0  0  0  0
  143.3601   71.3471  220.1006 H   0  0  0  0  0  0  0  0  0  0  0  0
  145.4445   71.6572  221.3989 H   0  0  0  0  0  0  0  0  0  0  0  0
  146.3933   73.9414  221.6380 H   0  0  0  0  0  0  0  0  0  0  0  0
  145.2710   75.8533  220.5872 H   0  0  0  0  0  0  0  0  0  0  0  0
  139.2746   70.0810  222.2285 H   0  0  0  0  0  0  0  0  0  0  0  0
  138.9854   68.5201  224.1147 H   0  0  0  0  0  0  0  0  0  0  0  0
  139.2623   67.9976  226.3979 H   0  0  0  0  0  0  0  0  0  0  0  0
  141.1569   70.8338  228.9642 H   0  0  0  0  0  0  0  0  0  0  0  0
  141.4573   72.4051  227.0988 H   0  0  0  0  0  0  0  0  0  0  0  0
  1  2  2  0
  2  3  1  0
  3  4  1  0
  4  5  1  0
  5  6  2  0
  5  7  1  0
  7  8  1  0
  8  9  1  0
  9 10  1  0
 10 11  1  0
 11 12  1  0
 12 13  1  0
 13 14  2  0
 14 15  1  0
 15 16  2  0
 16 17  1  0
 17 18  2  0
 18 19  1  0
 19 20  2  0
  2 21  1  0
 21 22  2  0
 22 23  1  0
 23 24  2  0
 24 25  1  0
 25 26  2  0
 26 27  1  0
 26 28  1  0
 28 29  2  0
 29 30  1  0
 30 31  2  0
 12  7  1  0
 20 15  1  0
 31 21  1  0
 30 24  1  0
  3 32  1  0
  4 33  1  0
  4 34  1  0
  8 35  1  0
  8 36  1  0
  9 37  1  0
  9 38  1  0
 10 39  1  0
 10 40  1  0
 11 41  1  0
 11 42  1  0
 12 43  1  6
 13 44  1  0
 14 45  1  0
 16 46  1  0
 17 47  1  0
 18 48  1  0
 19 49  1  0
 20 50  1  0
 22 51  1  0
 23 52  1  0
 25 53  1  0
 28 54  1  0
 29 55  1  0
M  END
>  <smiles>  (88) 
O=C(NCC(=O)N1CCCCC1/C=C/c1ccccc1)c1ccc2cc(F)ccc2n1

>  <score_type>  (88) 
oracle

>  <origin>  (88) 
autodockgpu

>  <m_score__min__energy>  (88) 
-9.1899999999999995

>  <m_primary>  (88) 
energy

>  <rmsd>  (88) 
2.744957683593714

>  <m_score__min__rmsd>  (88) 
2.744957683593714

>  <meeko>  (88) 
{"free_energy": -8.67, "intermolecular_energy": -10.75, "internal_energy": -2.15, "cluster_size": 6, "cluster_id": 2, "rank_in_cluster": 5}

>  <energy>  (88) 
-8.47

>  <cluster_rmsd>  (88) 
0.79

>  <cluster>  (88) 
4

$$$$

     RDKit          3D

 55 58  0  0  0  0  0  0  0  0999 V2000
  139.9410   71.3680  221.0860 O   0  0  0  0  0  0  0  0  0  0  0  0
  139.8270   71.9700  222.2080 C   0  0  0  0  0  0  0  0  0  0  0  0
  139.6810   73.3830  222.2920 N   0  0  0  0  0  0  0  0  0  0  0  0
  139.6640   74.1420  221.0570 C   0  0  0  0  0  0  0  0  0  0  0  0
  140.6010   75.3090  221.1940 C   0  0  0  0  0  0  0  0  0  0  0  0
  140.9200   75.7590  222.3440 O   0  0  0  0  0  0  0  0  0  0  0  0
  141.1200   75.8950  220.0040 N   0  0  0  0  0  0  0  0  0  0  0  0
  140.6050   75.5930  218.6830 C   0  0  0  0  0  0  0  0  0  0  0  0
  141.6570   75.2950  217.6680 C   0  0  0  0  0  0  0  0  0  0  0  0
  142.8710   76.1790  217.7860 C   0  0  0  0  0  0  0  0  0  0  0  0
  143.3230   76.3550  219.2120 C   0  0  0  0  0  0  0  0  0  0  0  0
  142.2080   76.8330  220.1120 C   0  0  1  0  0  0  0  0  0  0  0  0
  141.7890   78.1750  219.5920 C   0  0  0  0  0  0  0  0  0  0  0  0
  141.0120   78.9390  220.3160 C   0  0  0  0  0  0  0  0  0  0  0  0
  141.4220   79.6310  221.5290 C   0  0  0  0  0  0  0  0  0  0  0  0
  141.7630   78.9220  222.6880 C   0  0  0  0  0  0  0  0  0  0  0  0
  142.1520   79.5560  223.8420 C   0  0  0  0  0  0  0  0  0  0  0  0
  142.2220   80.9240  223.9010 C   0  0  0  0  0  0  0  0  0  0  0  0
  141.8940   81.6530  222.7840 C   0  0  0  0  0  0  0  0  0  0  0  0
  141.5050   81.0030  221.6320 C   0  0  0  0  0  0  0  0  0  0  0  0
  139.8460   71.1860  223.4570 C   0  0  0  0  0  0  0  0  0  0  0  0
  139.3280   69.9030  223.4550 C   0  0  0  0  0  0  0  0  0  0  0  0
  139.3240   69.1330  224.5920 C   0  0  0  0  0  0  0  0  0  0  0  0
  139.8440   69.6450  225.7590 C   0  0  0  0  0  0  0  0  0  0  0  0
  139.8330   68.8680  226.8850 C   0  0  0  0  0  0  0  0  0  0  0  0
  140.3580   69.3840  228.0670 C   0  0  0  0  0  0  0  0  0  0  0  0
  140.3530   68.6150  229.1970 F   0  0  0  0  0  0  0  0  0  0  0  0
  140.8600   70.6490  228.0310 C   0  0  0  0  0  0  0  0  0  0  0  0
  140.8740   71.4390  226.9000 C   0  0  0  0  0  0  0  0  0  0  0  0
  140.3480   70.9270  225.7110 C   0  0  0  0  0  0  0  0  0  0  0  0
  140.3460   71.6690  224.5910 N   0  0  0  0  0  0  0  0  0  0  0  0
  139.5900   73.8530  223.2240 H   0  0  0  0  0  0  0  0  0  0  0  0
  139.9904   73.5013  220.2246 H   0  0  0  0  0  0  0  0  0  0  0  0
  138.6449   74.5023  220.8533 H   0  0  0  0  0  0  0  0  0  0  0  0
  139.9448   74.7168  218.7625 H   0  0  0  0  0  0  0  0  0  0  0  0
  140.0786   76.4944  218.3362 H   0  0  0  0  0  0  0  0  0  0  0  0
  141.9742   74.2490  217.7916 H   0  0  0  0  0  0  0  0  0  0  0  0
  141.2148   75.4817  216.6782 H   0  0  0  0  0  0  0  0  0  0  0  0
  143.6922   75.7286  217.2092 H   0  0  0  0  0  0  0  0  0  0  0  0
  142.5993   77.1717  217.3977 H   0  0  0  0  0  0  0  0  0  0  0  0
  143.6917   75.3892  219.5880 H   0  0  0  0  0  0  0  0  0  0  0  0
  144.1146   77.1188  219.2223 H   0  0  0  0  0  0  0  0  0  0  0  0
  142.5151   76.9078  221.1656 H   0  0  0  0  0  0  0  0  0  0  0  0
  142.1338   78.5164  218.6048 H   0  0  0  0  0  0  0  0  0  0  0  0
  139.9715   79.0680  219.9832 H   0  0  0  0  0  0  0  0  0  0  0  0
  141.7177   77.8230  222.6731 H   0  0  0  0  0  0  0  0  0  0  0  0
  142.4104   78.9596  224.7294 H   0  0  0  0  0  0  0  0  0  0  0  0
  142.5354   81.4289  224.8267 H   0  0  0  0  0  0  0  0  0  0  0  0
  141.9415   82.7517  222.8085 H   0  0  0  0  0  0  0  0  0  0  0  0
  141.2481   81.6096  220.7511 H   0  0  0  0  0  0  0  0  0  0  0  0
  138.9110   69.4916  222.5240 H   0  0  0  0  0  0  0  0  0  0  0  0
  138.9084   68.1148  224.5703 H   0  0  0  0  0  0  0  0  0  0  0  0
  139.4156   67.8507  226.8570 H   0  0  0  0  0  0  0  0  0  0  0  0
  141.2793   71.0659  228.9586 H   0  0  0  0  0  0  0  0  0  0  0  0
  141.2925   72.4557  226.9337 H   0  0  0  0  0  0  0  0  0  0  0  0
  1  2  2  0
  2  3  1  0
  3  4  1  0
  4  5  1  0
  5  6  2  0
  5  7  1  0
  7  8  1  0
  8  9  1  0
  9 10  1  0
 10 11  1  0
 11 12  1  0
 12 13  1  0
 13 14  2  0
 14 15  1  0
 15 16  2  0
 16 17  1  0
 17 18  2  0
 18 19  1  0
 19 20  2  0
  2 21  1  0
 21 22  2  0
 22 23  1  0
 23 24  2  0
 24 25  1  0
 25 26  2  0
 26 27  1  0
 26 28  1  0
 28 29  2  0
 29 30  1  0
 30 31  2  0
 12  7  1  0
 20 15  1  0
 31 21  1  0
 30 24  1  0
  3 32  1  0
  4 33  1  0
  4 34  1  0
  8 35  1  0
  8 36  1  0
  9 37  1  0
  9 38  1  0
 10 39  1  0
 10 40  1  0
 11 41  1  0
 11 42  1  0
 12 43  1  1
 13 44  1  0
 14 45  1  0
 16 46  1  0
 17 47  1  0
 18 48  1  0
 19 49  1  0
 20 50  1  0
 22 51  1  0
 23 52  1  0
 25 53  1  0
 28 54  1  0
 29 55  1  0
M  END
>  <smiles>  (89) 
O=C(NCC(=O)N1CCCCC1/C=C/c1ccccc1)c1ccc2cc(F)ccc2n1

>  <score_type>  (89) 
oracle

>  <origin>  (89) 
autodockgpu

>  <m_score__min__energy>  (89) 
-9.1899999999999995

>  <m_primary>  (89) 
energy

>  <rmsd>  (89) 
1.532406818067082

>  <m_score__min__rmsd>  (89) 
1.532406818067082

>  <meeko>  (89) 
{"free_energy": -8.92, "intermolecular_energy": -11.01, "internal_energy": -1.92, "cluster_size": 17, "cluster_id": 1, "rank_in_cluster": 4}

>  <energy>  (89) 
-8.47

>  <cluster_rmsd>  (89) 
0.65

>  <cluster>  (89) 
4

$$$$

     RDKit          3D

 55 58  0  0  0  0  0  0  0  0999 V2000
  141.0650   72.9670  222.3300 O   0  0  0  0  0  0  0  0  0  0  0  0
  139.9630   72.5590  222.8310 C   0  0  0  0  0  0  0  0  0  0  0  0
  138.7040   73.0200  222.3550 N   0  0  0  0  0  0  0  0  0  0  0  0
  138.6950   73.9800  221.2690 C   0  0  0  0  0  0  0  0  0  0  0  0
  139.1730   75.3060  221.7920 C   0  0  0  0  0  0  0  0  0  0  0  0
  140.4170   75.5270  221.9710 O   0  0  0  0  0  0  0  0  0  0  0  0
  138.1980   76.3020  222.0830 N   0  0  0  0  0  0  0  0  0  0  0  0
  137.2330   76.1770  223.1570 C   0  0  0  0  0  0  0  0  0  0  0  0
  135.8310   76.5050  222.7640 C   0  0  0  0  0  0  0  0  0  0  0  0
  135.7310   77.6870  221.8360 C   0  0  0  0  0  0  0  0  0  0  0  0
  136.7610   77.6510  220.7380 C   0  0  0  0  0  0  0  0  0  0  0  0
  138.1650   77.4940  221.2730 C   0  0  1  0  0  0  0  0  0  0  0  0
  138.4330   78.7030  222.1190 C   0  0  0  0  0  0  0  0  0  0  0  0
  139.2530   78.6150  223.1360 C   0  0  0  0  0  0  0  0  0  0  0  0
  140.5150   79.3310  223.2500 C   0  0  0  0  0  0  0  0  0  0  0  0
  141.7270   78.7250  222.8950 C   0  0  0  0  0  0  0  0  0  0  0  0
  142.9280   79.3830  222.9950 C   0  0  0  0  0  0  0  0  0  0  0  0
  142.9820   80.6750  223.4540 C   0  0  0  0  0  0  0  0  0  0  0  0
  141.8140   81.3010  223.8130 C   0  0  0  0  0  0  0  0  0  0  0  0
  140.6160   80.6280  223.7060 C   0  0  0  0  0  0  0  0  0  0  0  0
  139.9860   71.5820  223.9360 C   0  0  0  0  0  0  0  0  0  0  0  0
  139.4390   70.3270  223.7370 C   0  0  0  0  0  0  0  0  0  0  0  0
  139.4370   69.3830  224.7340 C   0  0  0  0  0  0  0  0  0  0  0  0
  139.9890   69.6880  225.9570 C   0  0  0  0  0  0  0  0  0  0  0  0
  139.9790   68.7380  226.9430 C   0  0  0  0  0  0  0  0  0  0  0  0
  140.5370   69.0450  228.1810 C   0  0  0  0  0  0  0  0  0  0  0  0
  140.5340   68.1020  229.1720 F   0  0  0  0  0  0  0  0  0  0  0  0
  141.0660   70.2880  228.3410 C   0  0  0  0  0  0  0  0  0  0  0  0
  141.0790   71.2520  227.3520 C   0  0  0  0  0  0  0  0  0  0  0  0
  140.5210   70.9500  226.1070 C   0  0  0  0  0  0  0  0  0  0  0  0
  140.5160   71.8640  225.1230 N   0  0  0  0  0  0  0  0  0  0  0  0
  137.8140   72.6700  222.7820 H   0  0  0  0  0  0  0  0  0  0  0  0
  139.3636   73.6363  220.4660 H   0  0  0  0  0  0  0  0  0  0  0  0
  137.6759   74.0814  220.8676 H   0  0  0  0  0  0  0  0  0  0  0  0
  137.2550   75.1392  223.5209 H   0  0  0  0  0  0  0  0  0  0  0  0
  137.5230   76.9064  223.9277 H   0  0  0  0  0  0  0  0  0  0  0  0
  135.3958   75.6289  222.2609 H   0  0  0  0  0  0  0  0  0  0  0  0
  135.2888   76.7678  223.6843 H   0  0  0  0  0  0  0  0  0  0  0  0
  134.7301   77.6929  221.3798 H   0  0  0  0  0  0  0  0  0  0  0  0
  135.9112   78.5940  222.4317 H   0  0  0  0  0  0  0  0  0  0  0  0
  136.5392   76.8035  220.0728 H   0  0  0  0  0  0  0  0  0  0  0  0
  136.7116   78.6087  220.1992 H   0  0  0  0  0  0  0  0  0  0  0  0
  138.9173   77.4080  220.4751 H   0  0  0  0  0  0  0  0  0  0  0  0
  137.9427   79.6597  221.8861 H   0  0  0  0  0  0  0  0  0  0  0  0
  138.9671   77.9511  223.9652 H   0  0  0  0  0  0  0  0  0  0  0  0
  141.7163   77.6893  222.5245 H   0  0  0  0  0  0  0  0  0  0  0  0
  143.8562   78.8693  222.7042 H   0  0  0  0  0  0  0  0  0  0  0  0
  143.9451   81.2005  223.5330 H   0  0  0  0  0  0  0  0  0  0  0  0
  141.8343   82.3361  224.1848 H   0  0  0  0  0  0  0  0  0  0  0  0
  139.6943   81.1520  223.9991 H   0  0  0  0  0  0  0  0  0  0  0  0
  138.9968   70.0805  222.7604 H   0  0  0  0  0  0  0  0  0  0  0  0
  138.9975   68.3904  224.5564 H   0  0  0  0  0  0  0  0  0  0  0  0
  139.5369   67.7475  226.7598 H   0  0  0  0  0  0  0  0  0  0  0  0
  141.5095   70.5402  229.3155 H   0  0  0  0  0  0  0  0  0  0  0  0
  141.5213   72.2412  227.5413 H   0  0  0  0  0  0  0  0  0  0  0  0
  1  2  2  0
  2  3  1  0
  3  4  1  0
  4  5  1  0
  5  6  2  0
  5  7  1  0
  7  8  1  0
  8  9  1  0
  9 10  1  0
 10 11  1  0
 11 12  1  0
 12 13  1  0
 13 14  2  0
 14 15  1  0
 15 16  2  0
 16 17  1  0
 17 18  2  0
 18 19  1  0
 19 20  2  0
  2 21  1  0
 21 22  2  0
 22 23  1  0
 23 24  2  0
 24 25  1  0
 25 26  2  0
 26 27  1  0
 26 28  1  0
 28 29  2  0
 29 30  1  0
 30 31  2  0
 12  7  1  0
 20 15  1  0
 31 21  1  0
 30 24  1  0
  3 32  1  0
  4 33  1  0
  4 34  1  0
  8 35  1  0
  8 36  1  0
  9 37  1  0
  9 38  1  0
 10 39  1  0
 10 40  1  0
 11 41  1  0
 11 42  1  0
 12 43  1  6
 13 44  1  0
 14 45  1  0
 16 46  1  0
 17 47  1  0
 18 48  1  0
 19 49  1  0
 20 50  1  0
 22 51  1  0
 23 52  1  0
 25 53  1  0
 28 54  1  0
 29 55  1  0
M  END
>  <smiles>  (90) 
O=C(NCC(=O)N1CCCCC1/C=C/c1ccccc1)c1ccc2cc(F)ccc2n1

>  <score_type>  (90) 
oracle

>  <origin>  (90) 
autodockgpu

>  <m_score__min__energy>  (90) 
-9.1899999999999995

>  <m_primary>  (90) 
energy

>  <rmsd>  (90) 
3.2051962117560904

>  <m_score__min__rmsd>  (90) 
3.2051962117560904

>  <meeko>  (90) 
{"free_energy": -9.0, "intermolecular_energy": -11.09, "internal_energy": -1.43, "cluster_size": 3, "cluster_id": 3, "rank_in_cluster": 1}

>  <energy>  (90) 
-8.45

>  <cluster_rmsd>  (90) 
0.6

>  <cluster>  (90) 
4

$$$$

     RDKit          3D

 55 58  0  0  0  0  0  0  0  0999 V2000
  141.3710   72.0790  221.5070 O   0  0  0  0  0  0  0  0  0  0  0  0
  140.4760   72.3740  222.3700 C   0  0  0  0  0  0  0  0  0  0  0  0
  139.6300   73.5080  222.2200 N   0  0  0  0  0  0  0  0  0  0  0  0
  139.8060   74.3400  221.0450 C   0  0  0  0  0  0  0  0  0  0  0  0
  139.4720   75.7610  221.4050 C   0  0  0  0  0  0  0  0  0  0  0  0
  138.2760   76.0980  221.6900 O   0  0  0  0  0  0  0  0  0  0  0  0
  140.5290   76.7140  221.4160 N   0  0  0  0  0  0  0  0  0  0  0  0
  141.0820   77.2720  222.6350 C   0  0  0  0  0  0  0  0  0  0  0  0
  141.2370   78.7560  222.6160 C   0  0  0  0  0  0  0  0  0  0  0  0
  141.7200   79.2900  221.2930 C   0  0  0  0  0  0  0  0  0  0  0  0
  141.0150   78.6590  220.1210 C   0  0  0  0  0  0  0  0  0  0  0  0
  141.0810   77.1500  220.1580 C   0  0  1  0  0  0  0  0  0  0  0  0
  142.5340   76.7870  220.0750 C   0  0  0  0  0  0  0  0  0  0  0  0
  142.9250   75.8600  219.2380 C   0  0  0  0  0  0  0  0  0  0  0  0
  143.7660   74.7250  219.5870 C   0  0  0  0  0  0  0  0  0  0  0  0
  144.8520   74.8690  220.4600 C   0  0  0  0  0  0  0  0  0  0  0  0
  145.6570   73.8110  220.8020 C   0  0  0  0  0  0  0  0  0  0  0  0
  145.4230   72.5590  220.2940 C   0  0  0  0  0  0  0  0  0  0  0  0
  144.3670   72.3800  219.4340 C   0  0  0  0  0  0  0  0  0  0  0  0
  143.5670   73.4510  219.1000 C   0  0  0  0  0  0  0  0  0  0  0  0
  140.3070   71.5190  223.5610 C   0  0  0  0  0  0  0  0  0  0  0  0
  139.6690   70.2990  223.4290 C   0  0  0  0  0  0  0  0  0  0  0  0
  139.4890   69.4680  224.5070 C   0  0  0  0  0  0  0  0  0  0  0  0
  139.9490   69.8540  225.7450 C   0  0  0  0  0  0  0  0  0  0  0  0
  139.7610   69.0170  226.8110 C   0  0  0  0  0  0  0  0  0  0  0  0
  140.2250   69.4060  228.0650 C   0  0  0  0  0  0  0  0  0  0  0  0
  140.0440   68.5770  229.1360 F   0  0  0  0  0  0  0  0  0  0  0  0
  140.8470   70.6130  228.1570 C   0  0  0  0  0  0  0  0  0  0  0  0
  141.0400   71.4630  227.0860 C   0  0  0  0  0  0  0  0  0  0  0  0
  140.5760   71.0780  225.8260 C   0  0  0  0  0  0  0  0  0  0  0  0
  140.7460   71.8820  224.7630 N   0  0  0  0  0  0  0  0  0  0  0  0
  138.9040   73.7290  222.9410 H   0  0  0  0  0  0  0  0  0  0  0  0
  140.8496   74.2806  220.7025 H   0  0  0  0  0  0  0  0  0  0  0  0
  139.1442   73.9928  220.2379 H   0  0  0  0  0  0  0  0  0  0  0  0
  140.4158   77.0059  223.4689 H   0  0  0  0  0  0  0  0  0  0  0  0
  142.0925   76.8512  222.7440 H   0  0  0  0  0  0  0  0  0  0  0  0
  140.2612   79.2114  222.8406 H   0  0  0  0  0  0  0  0  0  0  0  0
  141.9983   79.0127  223.3673 H   0  0  0  0  0  0  0  0  0  0  0  0
  141.5451   80.3757  221.2664 H   0  0  0  0  0  0  0  0  0  0  0  0
  142.7898   79.0490  221.2072 H   0  0  0  0  0  0  0  0  0  0  0  0
  139.9592   78.9675  220.1351 H   0  0  0  0  0  0  0  0  0  0  0  0
  141.5193   78.9959  219.2033 H   0  0  0  0  0  0  0  0  0  0  0  0
  140.5198   76.6798  219.3370 H   0  0  0  0  0  0  0  0  0  0  0  0
  143.2682   77.2980  220.7152 H   0  0  0  0  0  0  0  0  0  0  0  0
  142.5931   75.9452  218.1927 H   0  0  0  0  0  0  0  0  0  0  0  0
  145.0664   75.8608  220.8847 H   0  0  0  0  0  0  0  0  0  0  0  0
  146.4994   73.9693  221.4914 H   0  0  0  0  0  0  0  0  0  0  0  0
  146.0695   71.7130  220.5703 H   0  0  0  0  0  0  0  0  0  0  0  0
  144.1607   71.3848  219.0133 H   0  0  0  0  0  0  0  0  0  0  0  0
  142.7274   73.2807  218.4101 H   0  0  0  0  0  0  0  0  0  0  0  0
  139.2985   69.9884  222.4409 H   0  0  0  0  0  0  0  0  0  0  0  0
  138.9807   68.5006  224.3819 H   0  0  0  0  0  0  0  0  0  0  0  0
  139.2510   68.0513  226.6794 H   0  0  0  0  0  0  0  0  0  0  0  0
  141.2179   70.9302  229.1428 H   0  0  0  0  0  0  0  0  0  0  0  0
  141.5508   72.4275  227.2229 H   0  0  0  0  0  0  0  0  0  0  0  0
  1  2  2  0
  2  3  1  0
  3  4  1  0
  4  5  1  0
  5  6  2  0
  5  7  1  0
  7  8  1  0
  8  9  1  0
  9 10  1  0
 10 11  1  0
 11 12  1  0
 12 13  1  0
 13 14  2  0
 14 15  1  0
 15 16  2  0
 16 17  1  0
 17 18  2  0
 18 19  1  0
 19 20  2  0
  2 21  1  0
 21 22  2  0
 22 23  1  0
 23 24  2  0
 24 25  1  0
 25 26  2  0
 26 27  1  0
 26 28  1  0
 28 29  2  0
 29 30  1  0
 30 31  2  0
 12  7  1  0
 20 15  1  0
 31 21  1  0
 30 24  1  0
  3 32  1  0
  4 33  1  0
  4 34  1  0
  8 35  1  0
  8 36  1  0
  9 37  1  0
  9 38  1  0
 10 39  1  0
 10 40  1  0
 11 41  1  0
 11 42  1  0
 12 43  1  6
 13 44  1  0
 14 45  1  0
 16 46  1  0
 17 47  1  0
 18 48  1  0
 19 49  1  0
 20 50  1  0
 22 51  1  0
 23 52  1  0
 25 53  1  0
 28 54  1  0
 29 55  1  0
M  END
>  <smiles>  (91) 
O=C(NCC(=O)N1CCCCC1/C=C/c1ccccc1)c1ccc2cc(F)ccc2n1

>  <score_type>  (91) 
oracle

>  <origin>  (91) 
autodockgpu

>  <m_score__min__energy>  (91) 
-9.1899999999999995

>  <m_primary>  (91) 
energy

>  <rmsd>  (91) 
2.756277816744641

>  <m_score__min__rmsd>  (91) 
2.756277816744641

>  <meeko>  (91) 
{"free_energy": -8.95, "intermolecular_energy": -11.03, "internal_energy": -1.88, "cluster_size": 6, "cluster_id": 2, "rank_in_cluster": 3}

>  <energy>  (91) 
-8.45

>  <cluster_rmsd>  (91) 
0.69

>  <cluster>  (91) 
4

$$$$

     RDKit          3D

 55 58  0  0  0  0  0  0  0  0999 V2000
  137.1090   76.1770  221.6610 O   0  0  0  0  0  0  0  0  0  0  0  0
  138.3000   76.1530  222.1230 C   0  0  0  0  0  0  0  0  0  0  0  0
  139.0320   74.9400  222.2550 N   0  0  0  0  0  0  0  0  0  0  0  0
  138.3880   73.7070  221.8470 C   0  0  0  0  0  0  0  0  0  0  0  0
  139.1410   72.5490  222.4390 C   0  0  0  0  0  0  0  0  0  0  0  0
  140.3580   72.6770  222.7980 O   0  0  0  0  0  0  0  0  0  0  0  0
  138.4560   71.3090  222.5860 N   0  0  0  0  0  0  0  0  0  0  0  0
  137.9520   70.5440  221.4630 C   0  0  0  0  0  0  0  0  0  0  0  0
  136.5480   70.0650  221.6270 C   0  0  0  0  0  0  0  0  0  0  0  0
  136.2370   69.5910  223.0220 C   0  0  0  0  0  0  0  0  0  0  0  0
  136.7740   70.5170  224.0820 C   0  0  0  0  0  0  0  0  0  0  0  0
  138.2510   70.7850  223.9130 C   0  0  1  0  0  0  0  0  0  0  0  0
  138.9420   69.4620  224.0600 C   0  0  0  0  0  0  0  0  0  0  0  0
  139.9750   69.3540  224.8560 C   0  0  0  0  0  0  0  0  0  0  0  0
  140.2370   70.2160  225.9990 C   0  0  0  0  0  0  0  0  0  0  0  0
  141.0460   71.3530  225.8800 C   0  0  0  0  0  0  0  0  0  0  0  0
  141.3060   72.1780  226.9460 C   0  0  0  0  0  0  0  0  0  0  0  0
  140.7740   71.9140  228.1820 C   0  0  0  0  0  0  0  0  0  0  0  0
  139.9760   70.8070  228.3380 C   0  0  0  0  0  0  0  0  0  0  0  0
  139.7240   69.9880  227.2580 C   0  0  0  0  0  0  0  0  0  0  0  0
  138.9440   77.4150  222.5350 C   0  0  0  0  0  0  0  0  0  0  0  0
  138.1570   78.5290  222.7670 C   0  0  0  0  0  0  0  0  0  0  0  0
  138.7090   79.7250  223.1520 C   0  0  0  0  0  0  0  0  0  0  0  0
  140.0730   79.8220  223.3120 C   0  0  0  0  0  0  0  0  0  0  0  0
  140.6100   81.0210  223.6960 C   0  0  0  0  0  0  0  0  0  0  0  0
  141.9900   81.1210  223.8580 C   0  0  0  0  0  0  0  0  0  0  0  0
  142.5360   82.3140  224.2420 F   0  0  0  0  0  0  0  0  0  0  0  0
  142.7320   80.0060  223.6210 C   0  0  0  0  0  0  0  0  0  0  0  0
  142.1980   78.7930  223.2340 C   0  0  0  0  0  0  0  0  0  0  0  0
  140.8140   78.6870  223.0700 C   0  0  0  0  0  0  0  0  0  0  0  0
  140.2610   77.5220  222.6930 N   0  0  0  0  0  0  0  0  0  0  0  0
  140.0070   74.9460  222.6370 H   0  0  0  0  0  0  0  0  0  0  0  0
  137.3489   73.6956  222.2077 H   0  0  0  0  0  0  0  0  0  0  0  0
  138.3873   73.6308  220.7496 H   0  0  0  0  0  0  0  0  0  0  0  0
  137.9969   71.1788  220.5658 H   0  0  0  0  0  0  0  0  0  0  0  0
  138.5837   69.6470  221.3839 H   0  0  0  0  0  0  0  0  0  0  0  0
  135.8663   70.8921  221.3797 H   0  0  0  0  0  0  0  0  0  0  0  0
  136.4180   69.2039  220.9549 H   0  0  0  0  0  0  0  0  0  0  0  0
  135.1450   69.5216  223.1352 H   0  0  0  0  0  0  0  0  0  0  0  0
  136.7220   68.6130  223.1573 H   0  0  0  0  0  0  0  0  0  0  0  0
  136.2321   71.4725  224.0248 H   0  0  0  0  0  0  0  0  0  0  0  0
  136.6292   70.0315  225.0584 H   0  0  0  0  0  0  0  0  0  0  0  0
  138.6389   71.5052  224.6485 H   0  0  0  0  0  0  0  0  0  0  0  0
  138.5818   68.5858  223.5009 H   0  0  0  0  0  0  0  0  0  0  0  0
  140.6986   68.5527  224.6457 H   0  0  0  0  0  0  0  0  0  0  0  0
  141.4871   71.5926  224.9012 H   0  0  0  0  0  0  0  0  0  0  0  0
  141.9480   73.0604  226.8072 H   0  0  0  0  0  0  0  0  0  0  0  0
  140.9828   72.5775  229.0341 H   0  0  0  0  0  0  0  0  0  0  0  0
  139.5397   70.5748  229.3207 H   0  0  0  0  0  0  0  0  0  0  0  0
  139.0811   69.1082  227.4085 H   0  0  0  0  0  0  0  0  0  0  0  0
  137.0669   78.4545  222.6403 H   0  0  0  0  0  0  0  0  0  0  0  0
  138.0665   80.5996  223.3314 H   0  0  0  0  0  0  0  0  0  0  0  0
  139.9621   81.8919  223.8739 H   0  0  0  0  0  0  0  0  0  0  0  0
  143.8228   80.0748  223.7451 H   0  0  0  0  0  0  0  0  0  0  0  0
  142.8504   77.9251  223.0578 H   0  0  0  0  0  0  0  0  0  0  0  0
  1  2  2  0
  2  3  1  0
  3  4  1  0
  4  5  1  0
  5  6  2  0
  5  7  1  0
  7  8  1  0
  8  9  1  0
  9 10  1  0
 10 11  1  0
 11 12  1  0
 12 13  1  0
 13 14  2  0
 14 15  1  0
 15 16  2  0
 16 17  1  0
 17 18  2  0
 18 19  1  0
 19 20  2  0
  2 21  1  0
 21 22  2  0
 22 23  1  0
 23 24  2  0
 24 25  1  0
 25 26  2  0
 26 27  1  0
 26 28  1  0
 28 29  2  0
 29 30  1  0
 30 31  2  0
 12  7  1  0
 20 15  1  0
 31 21  1  0
 30 24  1  0
  3 32  1  0
  4 33  1  0
  4 34  1  0
  8 35  1  0
  8 36  1  0
  9 37  1  0
  9 38  1  0
 10 39  1  0
 10 40  1  0
 11 41  1  0
 11 42  1  0
 12 43  1  1
 13 44  1  0
 14 45  1  0
 16 46  1  0
 17 47  1  0
 18 48  1  0
 19 49  1  0
 20 50  1  0
 22 51  1  0
 23 52  1  0
 25 53  1  0
 28 54  1  0
 29 55  1  0
M  END
>  <smiles>  (92) 
O=C(NCC(=O)N1CCCCC1/C=C/c1ccccc1)c1ccc2cc(F)ccc2n1

>  <score_type>  (92) 
oracle

>  <origin>  (92) 
autodockgpu

>  <m_score__min__energy>  (92) 
-9.1899999999999995

>  <m_primary>  (92) 
energy

>  <rmsd>  (92) 
8.550315836598122

>  <m_score__min__rmsd>  (92) 
8.550315836598122

>  <meeko>  (92) 
{"free_energy": -8.45, "intermolecular_energy": -10.54, "internal_energy": -2.26, "cluster_size": 22, "cluster_id": 4, "rank_in_cluster": 16}

>  <energy>  (92) 
-8.45

>  <cluster_rmsd>  (92) 
0.61

>  <cluster>  (92) 
4

$$$$

     RDKit          3D

 55 58  0  0  0  0  0  0  0  0999 V2000
  137.1690   76.2670  221.5430 O   0  0  0  0  0  0  0  0  0  0  0  0
  138.3150   76.2290  222.1060 C   0  0  0  0  0  0  0  0  0  0  0  0
  138.9940   75.0030  222.3510 N   0  0  0  0  0  0  0  0  0  0  0  0
  138.3470   73.7720  221.9400 C   0  0  0  0  0  0  0  0  0  0  0  0
  139.2570   72.6190  222.2600 C   0  0  0  0  0  0  0  0  0  0  0  0
  140.5000   72.8080  222.4770 O   0  0  0  0  0  0  0  0  0  0  0  0
  138.6910   71.3130  222.3110 N   0  0  0  0  0  0  0  0  0  0  0  0
  138.4140   70.5220  221.1280 C   0  0  0  0  0  0  0  0  0  0  0  0
  137.0580   69.9000  221.1090 C   0  0  0  0  0  0  0  0  0  0  0  0
  136.6240   69.3700  222.4500 C   0  0  0  0  0  0  0  0  0  0  0  0
  136.9260   70.3250  223.5760 C   0  0  0  0  0  0  0  0  0  0  0  0
  138.3760   70.7460  223.5970 C   0  0  1  0  0  0  0  0  0  0  0  0
  139.1760   69.4970  223.8230 C   0  0  0  0  0  0  0  0  0  0  0  0
  139.5390   69.1680  225.0360 C   0  0  0  0  0  0  0  0  0  0  0  0
  140.0660   70.0960  226.0270 C   0  0  0  0  0  0  0  0  0  0  0  0
  139.7140   69.9900  227.3780 C   0  0  0  0  0  0  0  0  0  0  0  0
  140.2010   70.8540  228.3280 C   0  0  0  0  0  0  0  0  0  0  0  0
  141.0600   71.8650  227.9810 C   0  0  0  0  0  0  0  0  0  0  0  0
  141.4270   72.0010  226.6640 C   0  0  0  0  0  0  0  0  0  0  0  0
  140.9300   71.1250  225.7220 C   0  0  0  0  0  0  0  0  0  0  0  0
  138.9620   77.4890  222.5190 C   0  0  0  0  0  0  0  0  0  0  0  0
  138.1770   78.6040  222.7550 C   0  0  0  0  0  0  0  0  0  0  0  0
  138.7320   79.7990  223.1420 C   0  0  0  0  0  0  0  0  0  0  0  0
  140.0960   79.8930  223.2970 C   0  0  0  0  0  0  0  0  0  0  0  0
  140.6360   81.0910  223.6820 C   0  0  0  0  0  0  0  0  0  0  0  0
  142.0160   81.1890  223.8390 C   0  0  0  0  0  0  0  0  0  0  0  0
  142.5660   82.3800  224.2240 F   0  0  0  0  0  0  0  0  0  0  0  0
  142.7570   80.0730  223.5980 C   0  0  0  0  0  0  0  0  0  0  0  0
  142.2190   78.8620  223.2100 C   0  0  0  0  0  0  0  0  0  0  0  0
  140.8350   78.7580  223.0500 C   0  0  0  0  0  0  0  0  0  0  0  0
  140.2790   77.5940  222.6720 N   0  0  0  0  0  0  0  0  0  0  0  0
  139.9330   74.9990  222.8140 H   0  0  0  0  0  0  0  0  0  0  0  0
  137.3966   73.6547  222.4813 H   0  0  0  0  0  0  0  0  0  0  0  0
  138.1420   73.7990  220.8596 H   0  0  0  0  0  0  0  0  0  0  0  0
  138.5058   71.1751  220.2476 H   0  0  0  0  0  0  0  0  0  0  0  0
  139.1398   69.6954  221.1247 H   0  0  0  0  0  0  0  0  0  0  0  0
  136.3312   70.6582  220.7820 H   0  0  0  0  0  0  0  0  0  0  0  0
  137.1035   69.0432  220.4206 H   0  0  0  0  0  0  0  0  0  0  0  0
  135.5393   69.1889  222.4230 H   0  0  0  0  0  0  0  0  0  0  0  0
  137.1855   68.4433  222.6395 H   0  0  0  0  0  0  0  0  0  0  0  0
  136.2991   71.2211  223.4576 H   0  0  0  0  0  0  0  0  0  0  0  0
  136.7121   69.8074  224.5228 H   0  0  0  0  0  0  0  0  0  0  0  0
  138.5916   71.4885  224.3794 H   0  0  0  0  0  0  0  0  0  0  0  0
  139.4564   68.8598  222.9713 H   0  0  0  0  0  0  0  0  0  0  0  0
  139.4388   68.1125  225.3291 H   0  0  0  0  0  0  0  0  0  0  0  0
  139.0260   69.1898  227.6882 H   0  0  0  0  0  0  0  0  0  0  0  0
  139.8987   70.7337  229.3788 H   0  0  0  0  0  0  0  0  0  0  0  0
  141.4486   72.5554  228.7441 H   0  0  0  0  0  0  0  0  0  0  0  0
  142.1143   72.8051  226.3623 H   0  0  0  0  0  0  0  0  0  0  0  0
  141.2389   71.2543  224.6742 H   0  0  0  0  0  0  0  0  0  0  0  0
  137.0865   78.5316  222.6301 H   0  0  0  0  0  0  0  0  0  0  0  0
  138.0914   80.6739  223.3266 H   0  0  0  0  0  0  0  0  0  0  0  0
  139.9897   81.9622  223.8644 H   0  0  0  0  0  0  0  0  0  0  0  0
  143.8482   80.1397  223.7194 H   0  0  0  0  0  0  0  0  0  0  0  0
  142.8694   77.9934  223.0298 H   0  0  0  0  0  0  0  0  0  0  0  0
  1  2  2  0
  2  3  1  0
  3  4  1  0
  4  5  1  0
  5  6  2  0
  5  7  1  0
  7  8  1  0
  8  9  1  0
  9 10  1  0
 10 11  1  0
 11 12  1  0
 12 13  1  0
 13 14  2  0
 14 15  1  0
 15 16  2  0
 16 17  1  0
 17 18  2  0
 18 19  1  0
 19 20  2  0
  2 21  1  0
 21 22  2  0
 22 23  1  0
 23 24  2  0
 24 25  1  0
 25 26  2  0
 26 27  1  0
 26 28  1  0
 28 29  2  0
 29 30  1  0
 30 31  2  0
 12  7  1  0
 20 15  1  0
 31 21  1  0
 30 24  1  0
  3 32  1  0
  4 33  1  0
  4 34  1  0
  8 35  1  0
  8 36  1  0
  9 37  1  0
  9 38  1  0
 10 39  1  0
 10 40  1  0
 11 41  1  0
 11 42  1  0
 12 43  1  1
 13 44  1  0
 14 45  1  0
 16 46  1  0
 17 47  1  0
 18 48  1  0
 19 49  1  0
 20 50  1  0
 22 51  1  0
 23 52  1  0
 25 53  1  0
 28 54  1  0
 29 55  1  0
M  END
>  <smiles>  (93) 
O=C(NCC(=O)N1CCCCC1/C=C/c1ccccc1)c1ccc2cc(F)ccc2n1

>  <score_type>  (93) 
oracle

>  <origin>  (93) 
autodockgpu

>  <m_score__min__energy>  (93) 
-9.1899999999999995

>  <m_primary>  (93) 
energy

>  <rmsd>  (93) 
8.515257715226596

>  <m_score__min__rmsd>  (93) 
8.515257715226596

>  <meeko>  (93) 
{"free_energy": -8.5, "intermolecular_energy": -10.59, "internal_energy": -2.17, "cluster_size": 22, "cluster_id": 4, "rank_in_cluster": 9}

>  <energy>  (93) 
-8.43

>  <cluster_rmsd>  (93) 
0.57

>  <cluster>  (93) 
4

$$$$

     RDKit          3D

 55 58  0  0  0  0  0  0  0  0999 V2000
  137.1410   76.0960  221.9200 O   0  0  0  0  0  0  0  0  0  0  0  0
  138.3650   76.1060  222.2880 C   0  0  0  0  0  0  0  0  0  0  0  0
  139.1460   74.9170  222.3380 N   0  0  0  0  0  0  0  0  0  0  0  0
  138.5130   73.6690  221.9560 C   0  0  0  0  0  0  0  0  0  0  0  0
  139.3850   72.5290  222.4040 C   0  0  0  0  0  0  0  0  0  0  0  0
  140.5970   72.7290  222.7450 O   0  0  0  0  0  0  0  0  0  0  0  0
  138.8160   71.2240  222.4340 N   0  0  0  0  0  0  0  0  0  0  0  0
  138.8630   70.3130  221.3080 C   0  0  0  0  0  0  0  0  0  0  0  0
  137.5580   69.6640  220.9880 C   0  0  0  0  0  0  0  0  0  0  0  0
  136.7750   69.2620  222.2100 C   0  0  0  0  0  0  0  0  0  0  0  0
  136.7680   70.3320  223.2710 C   0  0  0  0  0  0  0  0  0  0  0  0
  138.1620   70.7830  223.6390 C   0  0  1  0  0  0  0  0  0  0  0  0
  138.8620   69.5800  224.1990 C   0  0  0  0  0  0  0  0  0  0  0  0
  140.0520   69.7090  224.7270 C   0  0  0  0  0  0  0  0  0  0  0  0
  140.3450   70.4440  225.9490 C   0  0  0  0  0  0  0  0  0  0  0  0
  139.8460   70.0200  227.1870 C   0  0  0  0  0  0  0  0  0  0  0  0
  140.1110   70.6990  228.3510 C   0  0  0  0  0  0  0  0  0  0  0  0
  140.8840   71.8330  228.3400 C   0  0  0  0  0  0  0  0  0  0  0  0
  141.3890   72.2790  227.1440 C   0  0  0  0  0  0  0  0  0  0  0  0
  141.1150   71.5860  225.9840 C   0  0  0  0  0  0  0  0  0  0  0  0
  138.9970   77.3820  222.6740 C   0  0  0  0  0  0  0  0  0  0  0  0
  138.1930   78.4680  222.9730 C   0  0  0  0  0  0  0  0  0  0  0  0
  138.7330   79.6760  223.3380 C   0  0  0  0  0  0  0  0  0  0  0  0
  140.1000   79.8140  223.4080 C   0  0  0  0  0  0  0  0  0  0  0  0
  140.6250   81.0250  223.7720 C   0  0  0  0  0  0  0  0  0  0  0  0
  142.0090   81.1660  223.8430 C   0  0  0  0  0  0  0  0  0  0  0  0
  142.5430   82.3710  224.2070 F   0  0  0  0  0  0  0  0  0  0  0  0
  142.7680   80.0780  223.5420 C   0  0  0  0  0  0  0  0  0  0  0  0
  142.2460   78.8540  223.1740 C   0  0  0  0  0  0  0  0  0  0  0  0
  140.8580   78.7050  223.1000 C   0  0  0  0  0  0  0  0  0  0  0  0
  140.3170   77.5280  222.7450 N   0  0  0  0  0  0  0  0  0  0  0  0
  140.1470   74.9510  222.6420 H   0  0  0  0  0  0  0  0  0  0  0  0
  137.5268   73.5918  222.4370 H   0  0  0  0  0  0  0  0  0  0  0  0
  138.3821   73.6340  220.8644 H   0  0  0  0  0  0  0  0  0  0  0  0
  139.1938   70.8762  220.4229 H   0  0  0  0  0  0  0  0  0  0  0  0
  139.5567   69.5055  221.5850 H   0  0  0  0  0  0  0  0  0  0  0  0
  136.9516   70.3703  220.4020 H   0  0  0  0  0  0  0  0  0  0  0  0
  137.7813   68.7440  220.4280 H   0  0  0  0  0  0  0  0  0  0  0  0
  135.7368   69.0554  221.9111 H   0  0  0  0  0  0  0  0  0  0  0  0
  137.2586   68.3714  222.6378 H   0  0  0  0  0  0  0  0  0  0  0  0
  136.2033   71.1983  222.8961 H   0  0  0  0  0  0  0  0  0  0  0  0
  136.3020   69.9087  224.1730 H   0  0  0  0  0  0  0  0  0  0  0  0
  138.1642   71.6046  224.3704 H   0  0  0  0  0  0  0  0  0  0  0  0
  138.3766   68.5934  224.1658 H   0  0  0  0  0  0  0  0  0  0  0  0
  140.8938   69.2262  224.2091 H   0  0  0  0  0  0  0  0  0  0  0  0
  139.2223   69.1148  227.2283 H   0  0  0  0  0  0  0  0  0  0  0  0
  139.6994   70.3301  229.3020 H   0  0  0  0  0  0  0  0  0  0  0  0
  141.0952   72.3752  229.2735 H   0  0  0  0  0  0  0  0  0  0  0  0
  142.0102   73.1862  227.1112 H   0  0  0  0  0  0  0  0  0  0  0  0
  141.5321   71.9639  225.0389 H   0  0  0  0  0  0  0  0  0  0  0  0
  137.0996   78.3610  222.9171 H   0  0  0  0  0  0  0  0  0  0  0  0
  138.0775   80.5276  223.5728 H   0  0  0  0  0  0  0  0  0  0  0  0
  139.9643   81.8732  224.0047 H   0  0  0  0  0  0  0  0  0  0  0  0
  143.8620   80.1794  223.5949 H   0  0  0  0  0  0  0  0  0  0  0  0
  142.9117   78.0094  222.9427 H   0  0  0  0  0  0  0  0  0  0  0  0
  1  2  2  0
  2  3  1  0
  3  4  1  0
  4  5  1  0
  5  6  2  0
  5  7  1  0
  7  8  1  0
  8  9  1  0
  9 10  1  0
 10 11  1  0
 11 12  1  0
 12 13  1  0
 13 14  2  0
 14 15  1  0
 15 16  2  0
 16 17  1  0
 17 18  2  0
 18 19  1  0
 19 20  2  0
  2 21  1  0
 21 22  2  0
 22 23  1  0
 23 24  2  0
 24 25  1  0
 25 26  2  0
 26 27  1  0
 26 28  1  0
 28 29  2  0
 29 30  1  0
 30 31  2  0
 12  7  1  0
 20 15  1  0
 31 21  1  0
 30 24  1  0
  3 32  1  0
  4 33  1  0
  4 34  1  0
  8 35  1  0
  8 36  1  0
  9 37  1  0
  9 38  1  0
 10 39  1  0
 10 40  1  0
 11 41  1  0
 11 42  1  0
 12 43  1  1
 13 44  1  0
 14 45  1  0
 16 46  1  0
 17 47  1  0
 18 48  1  0
 19 49  1  0
 20 50  1  0
 22 51  1  0
 23 52  1  0
 25 53  1  0
 28 54  1  0
 29 55  1  0
M  END
>  <smiles>  (94) 
O=C(NCC(=O)N1CCCCC1/C=C/c1ccccc1)c1ccc2cc(F)ccc2n1

>  <score_type>  (94) 
oracle

>  <origin>  (94) 
autodockgpu

>  <m_score__min__energy>  (94) 
-9.1899999999999995

>  <m_primary>  (94) 
energy

>  <rmsd>  (94) 
8.480173221251711

>  <m_score__min__rmsd>  (94) 
8.480173221251711

>  <meeko>  (94) 
{"free_energy": -8.52, "intermolecular_energy": -10.61, "internal_energy": -2.26, "cluster_size": 22, "cluster_id": 4, "rank_in_cluster": 8}

>  <energy>  (94) 
-8.42

>  <cluster_rmsd>  (94) 
0.65

>  <cluster>  (94) 
4

$$$$

     RDKit          3D

 55 58  0  0  0  0  0  0  0  0999 V2000
  133.9910   69.6650  226.5830 O   0  0  0  0  0  0  0  0  0  0  0  0
  134.2320   70.7440  225.9410 C   0  0  0  0  0  0  0  0  0  0  0  0
  135.1120   70.7730  224.8230 N   0  0  0  0  0  0  0  0  0  0  0  0
  135.7410   69.5320  224.4170 C   0  0  0  0  0  0  0  0  0  0  0  0
  137.2220   69.6410  224.6550 C   0  0  0  0  0  0  0  0  0  0  0  0
  137.7950   68.9240  225.5400 O   0  0  0  0  0  0  0  0  0  0  0  0
  137.9600   70.5670  223.8650 N   0  0  0  0  0  0  0  0  0  0  0  0
  137.3560   71.7140  223.2170 C   0  0  0  0  0  0  0  0  0  0  0  0
  137.7470   71.8880  221.7880 C   0  0  0  0  0  0  0  0  0  0  0  0
  139.2000   71.5910  221.5240 C   0  0  0  0  0  0  0  0  0  0  0  0
  139.6710   70.3390  222.2170 C   0  0  0  0  0  0  0  0  0  0  0  0
  139.3760   70.3590  223.6990 C   0  0  1  0  0  0  0  0  0  0  0  0
  140.1410   71.5180  224.2670 C   0  0  0  0  0  0  0  0  0  0  0  0
  140.8520   71.3560  225.3540 C   0  0  0  0  0  0  0  0  0  0  0  0
  140.6700   70.2770  226.3140 C   0  0  0  0  0  0  0  0  0  0  0  0
  141.1800   68.9960  226.0700 C   0  0  0  0  0  0  0  0  0  0  0  0
  141.0200   67.9650  226.9630 C   0  0  0  0  0  0  0  0  0  0  0  0
  140.3450   68.1580  228.1410 C   0  0  0  0  0  0  0  0  0  0  0  0
  139.8300   69.4020  228.4150 C   0  0  0  0  0  0  0  0  0  0  0  0
  140.0000   70.4260  227.5090 C   0  0  0  0  0  0  0  0  0  0  0  0
  133.5840   72.0000  226.3640 C   0  0  0  0  0  0  0  0  0  0  0  0
  132.3960   71.9410  227.0690 C   0  0  0  0  0  0  0  0  0  0  0  0
  131.7560   73.0820  227.4850 C   0  0  0  0  0  0  0  0  0  0  0  0
  132.3040   74.3100  227.1970 C   0  0  0  0  0  0  0  0  0  0  0  0
  131.6550   75.4400  227.6160 C   0  0  0  0  0  0  0  0  0  0  0  0
  132.2080   76.6840  227.3240 C   0  0  0  0  0  0  0  0  0  0  0  0
  131.5680   77.8190  227.7400 F   0  0  0  0  0  0  0  0  0  0  0  0
  133.3770   76.7040  226.6290 C   0  0  0  0  0  0  0  0  0  0  0  0
  134.0380   75.5690  226.2020 C   0  0  0  0  0  0  0  0  0  0  0  0
  133.4880   74.3180  226.4920 C   0  0  0  0  0  0  0  0  0  0  0  0
  134.1040   73.1940  226.0900 N   0  0  0  0  0  0  0  0  0  0  0  0
  135.2930   71.6700  224.3130 H   0  0  0  0  0  0  0  0  0  0  0  0
  135.3316   68.6991  225.0076 H   0  0  0  0  0  0  0  0  0  0  0  0
  135.5458   69.3444  223.3508 H   0  0  0  0  0  0  0  0  0  0  0  0
  136.2629   71.6001  223.2637 H   0  0  0  0  0  0  0  0  0  0  0  0
  137.7162   72.6045  223.7529 H   0  0  0  0  0  0  0  0  0  0  0  0
  137.1356   71.2100  221.1744 H   0  0  0  0  0  0  0  0  0  0  0  0
  137.5803   72.9449  221.5325 H   0  0  0  0  0  0  0  0  0  0  0  0
  139.3433   71.4689  220.4402 H   0  0  0  0  0  0  0  0  0  0  0  0
  139.7889   72.4319  221.9191 H   0  0  0  0  0  0  0  0  0  0  0  0
  139.1635   69.4731  221.7668 H   0  0  0  0  0  0  0  0  0  0  0  0
  140.7619   70.2747  222.0916 H   0  0  0  0  0  0  0  0  0  0  0  0
  139.6633   69.4242  224.2027 H   0  0  0  0  0  0  0  0  0  0  0  0
  140.1045   72.4997  223.7720 H   0  0  0  0  0  0  0  0  0  0  0  0
  141.6460   72.0897  225.5571 H   0  0  0  0  0  0  0  0  0  0  0  0
  141.7260   68.8096  225.1335 H   0  0  0  0  0  0  0  0  0  0  0  0
  141.4376   66.9742  226.7310 H   0  0  0  0  0  0  0  0  0  0  0  0
  140.2180   67.3306  228.8547 H   0  0  0  0  0  0  0  0  0  0  0  0
  139.2844   69.5796  229.3535 H   0  0  0  0  0  0  0  0  0  0  0  0
  139.5794   71.4130  227.7520 H   0  0  0  0  0  0  0  0  0  0  0  0
  131.9550   70.9604  227.3011 H   0  0  0  0  0  0  0  0  0  0  0  0
  130.8115   73.0145  228.0448 H   0  0  0  0  0  0  0  0  0  0  0  0
  130.7106   75.3664  228.1751 H   0  0  0  0  0  0  0  0  0  0  0  0
  133.8222   77.6818  226.3931 H   0  0  0  0  0  0  0  0  0  0  0  0
  134.9819   75.6487  225.6428 H   0  0  0  0  0  0  0  0  0  0  0  0
  1  2  2  0
  2  3  1  0
  3  4  1  0
  4  5  1  0
  5  6  2  0
  5  7  1  0
  7  8  1  0
  8  9  1  0
  9 10  1  0
 10 11  1  0
 11 12  1  0
 12 13  1  0
 13 14  2  0
 14 15  1  0
 15 16  2  0
 16 17  1  0
 17 18  2  0
 18 19  1  0
 19 20  2  0
  2 21  1  0
 21 22  2  0
 22 23  1  0
 23 24  2  0
 24 25  1  0
 25 26  2  0
 26 27  1  0
 26 28  1  0
 28 29  2  0
 29 30  1  0
 30 31  2  0
 12  7  1  0
 20 15  1  0
 31 21  1  0
 30 24  1  0
  3 32  1  0
  4 33  1  0
  4 34  1  0
  8 35  1  0
  8 36  1  0
  9 37  1  0
  9 38  1  0
 10 39  1  0
 10 40  1  0
 11 41  1  0
 11 42  1  0
 12 43  1  1
 13 44  1  0
 14 45  1  0
 16 46  1  0
 17 47  1  0
 18 48  1  0
 19 49  1  0
 20 50  1  0
 22 51  1  0
 23 52  1  0
 25 53  1  0
 28 54  1  0
 29 55  1  0
M  END
>  <smiles>  (95) 
O=C(NCC(=O)N1CCCCC1/C=C/c1ccccc1)c1ccc2cc(F)ccc2n1

>  <score_type>  (95) 
oracle

>  <origin>  (95) 
autodockgpu

>  <m_score__min__energy>  (95) 
-9.1899999999999995

>  <m_primary>  (95) 
energy

>  <rmsd>  (95) 
8.030872329926027

>  <m_score__min__rmsd>  (95) 
8.030872329926027

>  <meeko>  (95) 
{"free_energy": -8.54, "intermolecular_energy": -10.62, "internal_energy": -1.98, "cluster_size": 1, "cluster_id": 5, "rank_in_cluster": 1}

>  <energy>  (95) 
-8.42

>  <cluster_rmsd>  (95) 
1.56

>  <cluster>  (95) 
4

$$$$

     RDKit          3D

 55 58  0  0  0  0  0  0  0  0999 V2000
  140.4780   70.9210  221.7170 O   0  0  0  0  0  0  0  0  0  0  0  0
  140.1980   71.6510  222.7270 C   0  0  0  0  0  0  0  0  0  0  0  0
  139.7980   73.0090  222.5870 N   0  0  0  0  0  0  0  0  0  0  0  0
  139.7120   73.5600  221.2480 C   0  0  0  0  0  0  0  0  0  0  0  0
  140.2620   74.9580  221.2650 C   0  0  0  0  0  0  0  0  0  0  0  0
  140.0800   75.7200  222.2720 O   0  0  0  0  0  0  0  0  0  0  0  0
  140.9910   75.4050  220.1260 N   0  0  0  0  0  0  0  0  0  0  0  0
  140.7350   74.9240  218.7830 C   0  0  0  0  0  0  0  0  0  0  0  0
  141.9600   74.5330  218.0270 C   0  0  0  0  0  0  0  0  0  0  0  0
  143.1240   75.4610  218.2520 C   0  0  0  0  0  0  0  0  0  0  0  0
  143.3000   75.8290  219.7020 C   0  0  0  0  0  0  0  0  0  0  0  0
  142.0340   76.3820  220.3110 C   0  0  1  0  0  0  0  0  0  0  0  0
  141.7110   77.6350  219.5530 C   0  0  0  0  0  0  0  0  0  0  0  0
  141.1380   78.6370  220.1680 C   0  0  0  0  0  0  0  0  0  0  0  0
  141.5300   79.1450  221.4750 C   0  0  0  0  0  0  0  0  0  0  0  0
  142.1650   80.3860  221.6100 C   0  0  0  0  0  0  0  0  0  0  0  0
  142.5430   80.8820  222.8330 C   0  0  0  0  0  0  0  0  0  0  0  0
  142.3070   80.1700  223.9810 C   0  0  0  0  0  0  0  0  0  0  0  0
  141.6870   78.9480  223.8880 C   0  0  0  0  0  0  0  0  0  0  0  0
  141.3130   78.4630  222.6530 C   0  0  0  0  0  0  0  0  0  0  0  0
  140.2890   71.0780  224.0840 C   0  0  0  0  0  0  0  0  0  0  0  0
  140.7550   71.8680  225.1190 C   0  0  0  0  0  0  0  0  0  0  0  0
  140.8580   71.3820  226.3990 C   0  0  0  0  0  0  0  0  0  0  0  0
  140.4910   70.0810  226.6600 C   0  0  0  0  0  0  0  0  0  0  0  0
  140.6000   69.6080  227.9400 C   0  0  0  0  0  0  0  0  0  0  0  0
  140.2300   68.2920  228.2060 C   0  0  0  0  0  0  0  0  0  0  0  0
  140.3330   67.8100  229.4820 F   0  0  0  0  0  0  0  0  0  0  0  0
  139.7760   67.5440  227.1640 C   0  0  0  0  0  0  0  0  0  0  0  0
  139.6640   68.0140  225.8710 C   0  0  0  0  0  0  0  0  0  0  0  0
  140.0340   69.3330  225.5970 C   0  0  0  0  0  0  0  0  0  0  0  0
  139.9380   69.8230  224.3500 N   0  0  0  0  0  0  0  0  0  0  0  0
  139.5730   73.5870  223.4310 H   0  0  0  0  0  0  0  0  0  0  0  0
  140.2989   72.9400  220.5544 H   0  0  0  0  0  0  0  0  0  0  0  0
  138.6635   73.5742  220.9157 H   0  0  0  0  0  0  0  0  0  0  0  0
  140.0772   74.0450  218.8514 H   0  0  0  0  0  0  0  0  0  0  0  0
  140.2775   75.7585  218.2314 H   0  0  0  0  0  0  0  0  0  0  0  0
  142.2553   73.5210  218.3411 H   0  0  0  0  0  0  0  0  0  0  0  0
  141.7097   74.5801  216.9569 H   0  0  0  0  0  0  0  0  0  0  0  0
  144.0416   74.9668  217.9001 H   0  0  0  0  0  0  0  0  0  0  0  0
  142.9232   76.3881  217.6951 H   0  0  0  0  0  0  0  0  0  0  0  0
  143.5981   74.9300  220.2614 H   0  0  0  0  0  0  0  0  0  0  0  0
  144.0706   76.6119  219.7591 H   0  0  0  0  0  0  0  0  0  0  0  0
  142.1382   76.5980  221.3845 H   0  0  0  0  0  0  0  0  0  0  0  0
  141.9552   77.7111  218.4832 H   0  0  0  0  0  0  0  0  0  0  0  0
  140.2976   79.1327  219.6601 H   0  0  0  0  0  0  0  0  0  0  0  0
  142.3672   80.9819  220.7078 H   0  0  0  0  0  0  0  0  0  0  0  0
  143.0406   81.8612  222.8927 H   0  0  0  0  0  0  0  0  0  0  0  0
  142.6092   80.5708  224.9598 H   0  0  0  0  0  0  0  0  0  0  0  0
  141.4896   78.3586  224.7955 H   0  0  0  0  0  0  0  0  0  0  0  0
  140.8165   77.4826  222.6052 H   0  0  0  0  0  0  0  0  0  0  0  0
  141.0493   72.9076  224.9124 H   0  0  0  0  0  0  0  0  0  0  0  0
  141.2305   72.0265  227.2089 H   0  0  0  0  0  0  0  0  0  0  0  0
  140.9739   70.2570  228.7456 H   0  0  0  0  0  0  0  0  0  0  0  0
  139.4808   66.5034  227.3638 H   0  0  0  0  0  0  0  0  0  0  0  0
  139.2895   67.3606  225.0693 H   0  0  0  0  0  0  0  0  0  0  0  0
  1  2  2  0
  2  3  1  0
  3  4  1  0
  4  5  1  0
  5  6  2  0
  5  7  1  0
  7  8  1  0
  8  9  1  0
  9 10  1  0
 10 11  1  0
 11 12  1  0
 12 13  1  0
 13 14  2  0
 14 15  1  0
 15 16  2  0
 16 17  1  0
 17 18  2  0
 18 19  1  0
 19 20  2  0
  2 21  1  0
 21 22  2  0
 22 23  1  0
 23 24  2  0
 24 25  1  0
 25 26  2  0
 26 27  1  0
 26 28  1  0
 28 29  2  0
 29 30  1  0
 30 31  2  0
 12  7  1  0
 20 15  1  0
 31 21  1  0
 30 24  1  0
  3 32  1  0
  4 33  1  0
  4 34  1  0
  8 35  1  0
  8 36  1  0
  9 37  1  0
  9 38  1  0
 10 39  1  0
 10 40  1  0
 11 41  1  0
 11 42  1  0
 12 43  1  1
 13 44  1  0
 14 45  1  0
 16 46  1  0
 17 47  1  0
 18 48  1  0
 19 49  1  0
 20 50  1  0
 22 51  1  0
 23 52  1  0
 25 53  1  0
 28 54  1  0
 29 55  1  0
M  END
>  <smiles>  (96) 
O=C(NCC(=O)N1CCCCC1/C=C/c1ccccc1)c1ccc2cc(F)ccc2n1

>  <score_type>  (96) 
oracle

>  <origin>  (96) 
autodockgpu

>  <m_score__min__energy>  (96) 
-9.1899999999999995

>  <m_primary>  (96) 
energy

>  <rmsd>  (96) 
2.784569809763151

>  <m_score__min__rmsd>  (96) 
2.784569809763151

>  <meeko>  (96) 
{"free_energy": -9.01, "intermolecular_energy": -11.1, "internal_energy": -1.78, "cluster_size": 17, "cluster_id": 1, "rank_in_cluster": 3}

>  <energy>  (96) 
-8.34

>  <cluster_rmsd>  (96) 
1.62

>  <cluster>  (96) 
4

$$$$

     RDKit          3D

 55 58  0  0  0  0  0  0  0  0999 V2000
  141.0920   71.9450  221.3520 O   0  0  0  0  0  0  0  0  0  0  0  0
  140.3710   72.3570  222.3240 C   0  0  0  0  0  0  0  0  0  0  0  0
  139.7240   73.6240  222.2970 N   0  0  0  0  0  0  0  0  0  0  0  0
  139.9010   74.4550  221.1220 C   0  0  0  0  0  0  0  0  0  0  0  0
  139.8230   75.8980  221.5360 C   0  0  0  0  0  0  0  0  0  0  0  0
  139.2780   76.2330  222.6390 O   0  0  0  0  0  0  0  0  0  0  0  0
  140.3750   76.8760  220.6600 N   0  0  0  0  0  0  0  0  0  0  0  0
  139.6190   77.5020  219.5930 C   0  0  0  0  0  0  0  0  0  0  0  0
  140.3270   77.5420  218.2810 C   0  0  0  0  0  0  0  0  0  0  0  0
  141.7960   77.8510  218.4030 C   0  0  0  0  0  0  0  0  0  0  0  0
  142.4590   77.0850  219.5170 C   0  0  0  0  0  0  0  0  0  0  0  0
  141.7500   77.2670  220.8390 C   0  0  1  0  0  0  0  0  0  0  0  0
  141.8350   78.7290  221.1670 C   0  0  0  0  0  0  0  0  0  0  0  0
  141.5720   79.1370  222.3820 C   0  0  0  0  0  0  0  0  0  0  0  0
  140.3810   79.8800  222.7700 C   0  0  0  0  0  0  0  0  0  0  0  0
  139.5840   79.4620  223.8430 C   0  0  0  0  0  0  0  0  0  0  0  0
  138.4580   80.1490  224.2250 C   0  0  0  0  0  0  0  0  0  0  0  0
  138.0690   81.2830  223.5590 C   0  0  0  0  0  0  0  0  0  0  0  0
  138.8260   81.7220  222.5000 C   0  0  0  0  0  0  0  0  0  0  0  0
  139.9540   81.0230  222.1290 C   0  0  0  0  0  0  0  0  0  0  0  0
  140.1990   71.5010  223.5130 C   0  0  0  0  0  0  0  0  0  0  0  0
  139.5500   70.2860  223.3810 C   0  0  0  0  0  0  0  0  0  0  0  0
  139.3660   69.4540  224.4570 C   0  0  0  0  0  0  0  0  0  0  0  0
  139.8340   69.8330  225.6940 C   0  0  0  0  0  0  0  0  0  0  0  0
  139.6430   68.9950  226.7590 C   0  0  0  0  0  0  0  0  0  0  0  0
  140.1150   69.3770  228.0120 C   0  0  0  0  0  0  0  0  0  0  0  0
  139.9300   68.5470  229.0820 F   0  0  0  0  0  0  0  0  0  0  0  0
  140.7480   70.5790  228.1050 C   0  0  0  0  0  0  0  0  0  0  0  0
  140.9440   71.4300  227.0360 C   0  0  0  0  0  0  0  0  0  0  0  0
  140.4720   71.0520  225.7760 C   0  0  0  0  0  0  0  0  0  0  0  0
  140.6460   71.8560  224.7140 N   0  0  0  0  0  0  0  0  0  0  0  0
  139.1380   73.9380  223.1050 H   0  0  0  0  0  0  0  0  0  0  0  0
  140.8830   74.2522  220.6697 H   0  0  0  0  0  0  0  0  0  0  0  0
  139.1153   74.2337  220.3846 H   0  0  0  0  0  0  0  0  0  0  0  0
  138.6810   76.9427  219.4614 H   0  0  0  0  0  0  0  0  0  0  0  0
  139.4549   78.5471  219.8944 H   0  0  0  0  0  0  0  0  0  0  0  0
  140.2162   76.5614  217.7950 H   0  0  0  0  0  0  0  0  0  0  0  0
  139.8727   78.3520  217.6915 H   0  0  0  0  0  0  0  0  0  0  0  0
  142.2902   77.5923  217.4549 H   0  0  0  0  0  0  0  0  0  0  0  0
  141.8928   78.9225  218.6322 H   0  0  0  0  0  0  0  0  0  0  0  0
  142.4589   76.0155  219.2598 H   0  0  0  0  0  0  0  0  0  0  0  0
  143.4829   77.4713  219.6282 H   0  0  0  0  0  0  0  0  0  0  0  0
  142.1931   76.6649  221.6460 H   0  0  0  0  0  0  0  0  0  0  0  0
  142.1171   79.4542  220.3895 H   0  0  0  0  0  0  0  0  0  0  0  0
  142.3043   78.9015  223.1683 H   0  0  0  0  0  0  0  0  0  0  0  0
  139.8688   78.5553  224.3969 H   0  0  0  0  0  0  0  0  0  0  0  0
  137.8613   79.7857  225.0747 H   0  0  0  0  0  0  0  0  0  0  0  0
  137.1667   81.8314  223.8674 H   0  0  0  0  0  0  0  0  0  0  0  0
  138.5327   82.6284  221.9501 H   0  0  0  0  0  0  0  0  0  0  0  0
  140.5434   81.3960  221.2784 H   0  0  0  0  0  0  0  0  0  0  0  0
  139.1738   69.9807  222.3934 H   0  0  0  0  0  0  0  0  0  0  0  0
  138.8483   68.4916  224.3313 H   0  0  0  0  0  0  0  0  0  0  0  0
  139.1243   68.0340  226.6271 H   0  0  0  0  0  0  0  0  0  0  0  0
  141.1255   70.8902  229.0902 H   0  0  0  0  0  0  0  0  0  0  0  0
  141.4632   72.3900  227.1736 H   0  0  0  0  0  0  0  0  0  0  0  0
  1  2  2  0
  2  3  1  0
  3  4  1  0
  4  5  1  0
  5  6  2  0
  5  7  1  0
  7  8  1  0
  8  9  1  0
  9 10  1  0
 10 11  1  0
 11 12  1  0
 12 13  1  0
 13 14  2  0
 14 15  1  0
 15 16  2  0
 16 17  1  0
 17 18  2  0
 18 19  1  0
 19 20  2  0
  2 21  1  0
 21 22  2  0
 22 23  1  0
 23 24  2  0
 24 25  1  0
 25 26  2  0
 26 27  1  0
 26 28  1  0
 28 29  2  0
 29 30  1  0
 30 31  2  0
 12  7  1  0
 20 15  1  0
 31 21  1  0
 30 24  1  0
  3 32  1  0
  4 33  1  0
  4 34  1  0
  8 35  1  0
  8 36  1  0
  9 37  1  0
  9 38  1  0
 10 39  1  0
 10 40  1  0
 11 41  1  0
 11 42  1  0
 12 43  1  1
 13 44  1  0
 14 45  1  0
 16 46  1  0
 17 47  1  0
 18 48  1  0
 19 49  1  0
 20 50  1  0
 22 51  1  0
 23 52  1  0
 25 53  1  0
 28 54  1  0
 29 55  1  0
M  END
>  <smiles>  (97) 
O=C(NCC(=O)N1CCCCC1/C=C/c1ccccc1)c1ccc2cc(F)ccc2n1

>  <score_type>  (97) 
oracle

>  <origin>  (97) 
autodockgpu

>  <m_score__min__energy>  (97) 
-9.1899999999999995

>  <m_primary>  (97) 
energy

>  <rmsd>  (97) 
1.7994778391326807

>  <m_score__min__rmsd>  (97) 
1.7994778391326807

>  <meeko>  (97) 
{"free_energy": -8.21, "intermolecular_energy": -10.3, "internal_energy": -2.06, "cluster_size": 17, "cluster_id": 1, "rank_in_cluster": 15}

>  <energy>  (97) 
-8.27

>  <cluster_rmsd>  (97) 
0.64

>  <cluster>  (97) 
4

$$$$

     RDKit          3D

 55 58  0  0  0  0  0  0  0  0999 V2000
  137.7760   75.4630  222.3980 O   0  0  0  0  0  0  0  0  0  0  0  0
  139.0030   75.7670  222.2090 C   0  0  0  0  0  0  0  0  0  0  0  0
  139.9180   74.8610  221.6040 N   0  0  0  0  0  0  0  0  0  0  0  0
  139.4220   73.5610  221.1970 C   0  0  0  0  0  0  0  0  0  0  0  0
  139.7510   72.5610  222.2700 C   0  0  0  0  0  0  0  0  0  0  0  0
  140.6980   72.7780  223.0960 O   0  0  0  0  0  0  0  0  0  0  0  0
  138.9770   71.3680  222.3330 N   0  0  0  0  0  0  0  0  0  0  0  0
  139.0900   70.2960  221.3630 C   0  0  0  0  0  0  0  0  0  0  0  0
  137.7820   69.7940  220.8480 C   0  0  0  0  0  0  0  0  0  0  0  0
  136.7180   69.6980  221.9100 C   0  0  0  0  0  0  0  0  0  0  0  0
  136.6840   70.9080  222.8060 C   0  0  0  0  0  0  0  0  0  0  0  0
  138.0340   71.2120  223.4120 C   0  0  1  0  0  0  0  0  0  0  0  0
  138.3980   70.0240  224.2520 C   0  0  0  0  0  0  0  0  0  0  0  0
  139.6230   69.8910  224.6920 C   0  0  0  0  0  0  0  0  0  0  0  0
  140.1340   70.4820  225.9200 C   0  0  0  0  0  0  0  0  0  0  0  0
  139.8600   69.9100  227.1690 C   0  0  0  0  0  0  0  0  0  0  0  0
  140.3330   70.4520  228.3380 C   0  0  0  0  0  0  0  0  0  0  0  0
  141.1010   71.5880  228.3240 C   0  0  0  0  0  0  0  0  0  0  0  0
  141.3890   72.1780  227.1180 C   0  0  0  0  0  0  0  0  0  0  0  0
  140.9080   71.6220  225.9520 C   0  0  0  0  0  0  0  0  0  0  0  0
  139.4950   77.0930  222.6280 C   0  0  0  0  0  0  0  0  0  0  0  0
  138.5830   78.0560  223.0240 C   0  0  0  0  0  0  0  0  0  0  0  0
  138.9910   79.3040  223.4230 C   0  0  0  0  0  0  0  0  0  0  0  0
  140.3330   79.6080  223.4290 C   0  0  0  0  0  0  0  0  0  0  0  0
  140.7270   80.8570  223.8280 C   0  0  0  0  0  0  0  0  0  0  0  0
  142.0840   81.1680  223.8340 C   0  0  0  0  0  0  0  0  0  0  0  0
  142.4880   82.4120  224.2320 F   0  0  0  0  0  0  0  0  0  0  0  0
  142.9520   80.1970  223.4380 C   0  0  0  0  0  0  0  0  0  0  0  0
  142.5630   78.9350  223.0340 C   0  0  0  0  0  0  0  0  0  0  0  0
  141.2020   78.6180  223.0250 C   0  0  0  0  0  0  0  0  0  0  0  0
  140.7890   77.4000  222.6380 N   0  0  0  0  0  0  0  0  0  0  0  0
  140.9190   75.1340  221.4590 H   0  0  0  0  0  0  0  0  0  0  0  0
  138.3320   73.6082  221.0569 H   0  0  0  0  0  0  0  0  0  0  0  0
  139.8921   73.2610  220.2488 H   0  0  0  0  0  0  0  0  0  0  0  0
  139.6780   70.6642  220.5094 H   0  0  0  0  0  0  0  0  0  0  0  0
  139.5700   69.4521  221.8802 H   0  0  0  0  0  0  0  0  0  0  0  0
  137.4302   70.4794  220.0629 H   0  0  0  0  0  0  0  0  0  0  0  0
  137.9523   68.7766  220.4660 H   0  0  0  0  0  0  0  0  0  0  0  0
  135.7388   69.5951  221.4195 H   0  0  0  0  0  0  0  0  0  0  0  0
  136.9509   68.8250  222.5374 H   0  0  0  0  0  0  0  0  0  0  0  0
  136.3581   71.7766  222.2149 H   0  0  0  0  0  0  0  0  0  0  0  0
  135.9858   70.6969  223.6294 H   0  0  0  0  0  0  0  0  0  0  0  0
  138.0306   72.1275  224.0218 H   0  0  0  0  0  0  0  0  0  0  0  0
  137.6380   69.2675  224.4972 H   0  0  0  0  0  0  0  0  0  0  0  0
  140.3180   69.2880  224.0893 H   0  0  0  0  0  0  0  0  0  0  0  0
  139.2466   68.9980  227.2144 H   0  0  0  0  0  0  0  0  0  0  0  0
  140.0932   69.9696  229.2971 H   0  0  0  0  0  0  0  0  0  0  0  0
  141.4797   72.0191  229.2625 H   0  0  0  0  0  0  0  0  0  0  0  0
  142.0014   73.0911  227.0825 H   0  0  0  0  0  0  0  0  0  0  0  0
  141.1543   72.1129  224.9989 H   0  0  0  0  0  0  0  0  0  0  0  0
  137.5095   77.8161  223.0188 H   0  0  0  0  0  0  0  0  0  0  0  0
  138.2510   80.0555  223.7356 H   0  0  0  0  0  0  0  0  0  0  0  0
  139.9821   81.6041  224.1394 H   0  0  0  0  0  0  0  0  0  0  0  0
  144.0267   80.4314  223.4399 H   0  0  0  0  0  0  0  0  0  0  0  0
  143.3122   78.1915  222.7244 H   0  0  0  0  0  0  0  0  0  0  0  0
  1  2  2  0
  2  3  1  0
  3  4  1  0
  4  5  1  0
  5  6  2  0
  5  7  1  0
  7  8  1  0
  8  9  1  0
  9 10  1  0
 10 11  1  0
 11 12  1  0
 12 13  1  0
 13 14  2  0
 14 15  1  0
 15 16  2  0
 16 17  1  0
 17 18  2  0
 18 19  1  0
 19 20  2  0
  2 21  1  0
 21 22  2  0
 22 23  1  0
 23 24  2  0
 24 25  1  0
 25 26  2  0
 26 27  1  0
 26 28  1  0
 28 29  2  0
 29 30  1  0
 30 31  2  0
 12  7  1  0
 20 15  1  0
 31 21  1  0
 30 24  1  0
  3 32  1  0
  4 33  1  0
  4 34  1  0
  8 35  1  0
  8 36  1  0
  9 37  1  0
  9 38  1  0
 10 39  1  0
 10 40  1  0
 11 41  1  0
 11 42  1  0
 12 43  1  1
 13 44  1  0
 14 45  1  0
 16 46  1  0
 17 47  1  0
 18 48  1  0
 19 49  1  0
 20 50  1  0
 22 51  1  0
 23 52  1  0
 25 53  1  0
 28 54  1  0
 29 55  1  0
M  END
>  <smiles>  (98) 
O=C(NCC(=O)N1CCCCC1/C=C/c1ccccc1)c1ccc2cc(F)ccc2n1

>  <score_type>  (98) 
oracle

>  <origin>  (98) 
autodockgpu

>  <m_score__min__energy>  (98) 
-9.1899999999999995

>  <m_primary>  (98) 
energy

>  <rmsd>  (98) 
8.30223816321794

>  <m_score__min__rmsd>  (98) 
8.30223816321794

>  <meeko>  (98) 
{"free_energy": -8.45, "intermolecular_energy": -10.54, "internal_energy": -1.93, "cluster_size": 22, "cluster_id": 4, "rank_in_cluster": 15}

>  <energy>  (98) 
-8.27

>  <cluster_rmsd>  (98) 
0.83

>  <cluster>  (98) 
4

$$$$

     RDKit          3D

 55 58  0  0  0  0  0  0  0  0999 V2000
  137.0050   76.0730  222.2890 O   0  0  0  0  0  0  0  0  0  0  0  0
  138.2810   76.1480  222.3170 C   0  0  0  0  0  0  0  0  0  0  0  0
  139.1080   75.0360  221.9930 N   0  0  0  0  0  0  0  0  0  0  0  0
  138.4630   73.7920  221.6220 C   0  0  0  0  0  0  0  0  0  0  0  0
  139.1870   72.6550  222.2880 C   0  0  0  0  0  0  0  0  0  0  0  0
  140.4120   72.7700  222.6250 O   0  0  0  0  0  0  0  0  0  0  0  0
  138.4660   71.4520  222.5300 N   0  0  0  0  0  0  0  0  0  0  0  0
  137.8480   70.6720  221.4750 C   0  0  0  0  0  0  0  0  0  0  0  0
  136.4430   70.2590  221.7590 C   0  0  0  0  0  0  0  0  0  0  0  0
  136.2180   69.8450  223.1900 C   0  0  0  0  0  0  0  0  0  0  0  0
  136.8710   70.7810  224.1730 C   0  0  0  0  0  0  0  0  0  0  0  0
  138.3400   70.9810  223.8860 C   0  0  1  0  0  0  0  0  0  0  0  0
  138.9870   69.6350  224.0290 C   0  0  0  0  0  0  0  0  0  0  0  0
  140.0140   69.4890  224.8260 C   0  0  0  0  0  0  0  0  0  0  0  0
  140.2660   70.2920  226.0140 C   0  0  0  0  0  0  0  0  0  0  0  0
  141.0580   71.4460  225.9540 C   0  0  0  0  0  0  0  0  0  0  0  0
  141.3070   72.2170  227.0630 C   0  0  0  0  0  0  0  0  0  0  0  0
  140.7810   71.8790  228.2840 C   0  0  0  0  0  0  0  0  0  0  0  0
  140.0000   70.7530  228.3810 C   0  0  0  0  0  0  0  0  0  0  0  0
  139.7590   69.9900  227.2590 C   0  0  0  0  0  0  0  0  0  0  0  0
  138.9240   77.4200  222.6950 C   0  0  0  0  0  0  0  0  0  0  0  0
  138.1310   78.5080  223.0160 C   0  0  0  0  0  0  0  0  0  0  0  0
  138.6820   79.7120  223.3750 C   0  0  0  0  0  0  0  0  0  0  0  0
  140.0510   79.8450  223.4180 C   0  0  0  0  0  0  0  0  0  0  0  0
  140.5880   81.0520  223.7760 C   0  0  0  0  0  0  0  0  0  0  0  0
  141.9730   81.1890  223.8190 C   0  0  0  0  0  0  0  0  0  0  0  0
  142.5190   82.3900  224.1770 F   0  0  0  0  0  0  0  0  0  0  0  0
  142.7220   80.0990  223.4980 C   0  0  0  0  0  0  0  0  0  0  0  0
  142.1880   78.8790  223.1350 C   0  0  0  0  0  0  0  0  0  0  0  0
  140.7990   78.7360  223.0890 C   0  0  0  0  0  0  0  0  0  0  0  0
  140.2460   77.5620  222.7400 N   0  0  0  0  0  0  0  0  0  0  0  0
  140.1510   75.1230  222.0230 H   0  0  0  0  0  0  0  0  0  0  0  0
  137.4138   73.8065  221.9521 H   0  0  0  0  0  0  0  0  0  0  0  0
  138.4929   73.6661  220.5296 H   0  0  0  0  0  0  0  0  0  0  0  0
  137.8506   71.2744  220.5546 H   0  0  0  0  0  0  0  0  0  0  0  0
  138.4355   69.7467  221.3822 H   0  0  0  0  0  0  0  0  0  0  0  0
  135.7783   71.1057  221.5325 H   0  0  0  0  0  0  0  0  0  0  0  0
  136.2291   69.3822  221.1301 H   0  0  0  0  0  0  0  0  0  0  0  0
  135.1357   69.8275  223.3857 H   0  0  0  0  0  0  0  0  0  0  0  0
  136.6706   68.8515  223.3246 H   0  0  0  0  0  0  0  0  0  0  0  0
  136.3648   71.7563  224.1224 H   0  0  0  0  0  0  0  0  0  0  0  0
  136.7819   70.3332  225.1738 H   0  0  0  0  0  0  0  0  0  0  0  0
  138.8099   71.7082  224.5645 H   0  0  0  0  0  0  0  0  0  0  0  0
  138.5990   68.7736  223.4655 H   0  0  0  0  0  0  0  0  0  0  0  0
  140.7412   68.7010  224.5804 H   0  0  0  0  0  0  0  0  0  0  0  0
  141.4939   71.7438  224.9889 H   0  0  0  0  0  0  0  0  0  0  0  0
  141.9351   73.1154  226.9711 H   0  0  0  0  0  0  0  0  0  0  0  0
  140.9812   72.4990  229.1703 H   0  0  0  0  0  0  0  0  0  0  0  0
  139.5688   70.4617  229.3501 H   0  0  0  0  0  0  0  0  0  0  0  0
  139.1296   69.0939  227.3627 H   0  0  0  0  0  0  0  0  0  0  0  0
  137.0363   78.4052  222.9826 H   0  0  0  0  0  0  0  0  0  0  0  0
  138.0343   80.5647  223.6266 H   0  0  0  0  0  0  0  0  0  0  0  0
  139.9351   81.9012  224.0260 H   0  0  0  0  0  0  0  0  0  0  0  0
  143.8173   80.1959  223.5297 H   0  0  0  0  0  0  0  0  0  0  0  0
  142.8455   78.0330  222.8859 H   0  0  0  0  0  0  0  0  0  0  0  0
  1  2  2  0
  2  3  1  0
  3  4  1  0
  4  5  1  0
  5  6  2  0
  5  7  1  0
  7  8  1  0
  8  9  1  0
  9 10  1  0
 10 11  1  0
 11 12  1  0
 12 13  1  0
 13 14  2  0
 14 15  1  0
 15 16  2  0
 16 17  1  0
 17 18  2  0
 18 19  1  0
 19 20  2  0
  2 21  1  0
 21 22  2  0
 22 23  1  0
 23 24  2  0
 24 25  1  0
 25 26  2  0
 26 27  1  0
 26 28  1  0
 28 29  2  0
 29 30  1  0
 30 31  2  0
 12  7  1  0
 20 15  1  0
 31 21  1  0
 30 24  1  0
  3 32  1  0
  4 33  1  0
  4 34  1  0
  8 35  1  0
  8 36  1  0
  9 37  1  0
  9 38  1  0
 10 39  1  0
 10 40  1  0
 11 41  1  0
 11 42  1  0
 12 43  1  1
 13 44  1  0
 14 45  1  0
 16 46  1  0
 17 47  1  0
 18 48  1  0
 19 49  1  0
 20 50  1  0
 22 51  1  0
 23 52  1  0
 25 53  1  0
 28 54  1  0
 29 55  1  0
M  END
>  <smiles>  (99) 
O=C(NCC(=O)N1CCCCC1/C=C/c1ccccc1)c1ccc2cc(F)ccc2n1

>  <score_type>  (99) 
oracle

>  <origin>  (99) 
autodockgpu

>  <m_score__min__energy>  (99) 
-9.1899999999999995

>  <m_primary>  (99) 
energy

>  <rmsd>  (99) 
8.534313643867916

>  <m_score__min__rmsd>  (99) 
8.534313643867916

>  <meeko>  (99) 
{"free_energy": -8.55, "intermolecular_energy": -10.63, "internal_energy": -2.14, "cluster_size": 22, "cluster_id": 4, "rank_in_cluster": 7}

>  <energy>  (99) 
-8.54

>  <cluster_rmsd>  (99) 
0.0

>  <cluster>  (99) 
5

$$$$

     RDKit          3D

 55 58  0  0  0  0  0  0  0  0999 V2000
  137.2080   76.1760  221.6880 O   0  0  0  0  0  0  0  0  0  0  0  0
  138.4010   76.1660  222.1450 C   0  0  0  0  0  0  0  0  0  0  0  0
  139.1550   74.9640  222.2550 N   0  0  0  0  0  0  0  0  0  0  0  0
  138.5310   73.7270  221.8290 C   0  0  0  0  0  0  0  0  0  0  0  0
  139.3330   72.5730  222.3630 C   0  0  0  0  0  0  0  0  0  0  0  0
  140.5400   72.7370  222.7420 O   0  0  0  0  0  0  0  0  0  0  0  0
  138.7070   71.2960  222.4300 N   0  0  0  0  0  0  0  0  0  0  0  0
  138.6180   70.3960  221.2970 C   0  0  0  0  0  0  0  0  0  0  0  0
  137.2620   69.8130  221.0810 C   0  0  0  0  0  0  0  0  0  0  0  0
  136.5620   69.4360  222.3590 C   0  0  0  0  0  0  0  0  0  0  0  0
  136.6930   70.4930  223.4250 C   0  0  0  0  0  0  0  0  0  0  0  0
  138.1320   70.8730  223.6810 C   0  0  1  0  0  0  0  0  0  0  0  0
  138.8170   69.6320  224.1730 C   0  0  0  0  0  0  0  0  0  0  0  0
  140.0000   69.7190  224.7250 C   0  0  0  0  0  0  0  0  0  0  0  0
  140.2980   70.4620  225.9410 C   0  0  0  0  0  0  0  0  0  0  0  0
  139.7970   70.0530  227.1830 C   0  0  0  0  0  0  0  0  0  0  0  0
  140.0670   70.7400  228.3400 C   0  0  0  0  0  0  0  0  0  0  0  0
  140.8480   71.8670  228.3200 C   0  0  0  0  0  0  0  0  0  0  0  0
  141.3560   72.3000  227.1200 C   0  0  0  0  0  0  0  0  0  0  0  0
  141.0770   71.5990  225.9660 C   0  0  0  0  0  0  0  0  0  0  0  0
  139.0240   77.4330  222.5740 C   0  0  0  0  0  0  0  0  0  0  0  0
  138.2130   78.4940  222.9340 C   0  0  0  0  0  0  0  0  0  0  0  0
  138.7450   79.6930  223.3410 C   0  0  0  0  0  0  0  0  0  0  0  0
  140.1110   79.8450  223.3930 C   0  0  0  0  0  0  0  0  0  0  0  0
  140.6290   81.0450  223.7990 C   0  0  0  0  0  0  0  0  0  0  0  0
  142.0110   81.2010  223.8510 C   0  0  0  0  0  0  0  0  0  0  0  0
  142.5380   82.3960  224.2570 F   0  0  0  0  0  0  0  0  0  0  0  0
  142.7780   80.1360  223.4900 C   0  0  0  0  0  0  0  0  0  0  0  0
  142.2640   78.9230  223.0790 C   0  0  0  0  0  0  0  0  0  0  0  0
  140.8770   78.7600  223.0240 C   0  0  0  0  0  0  0  0  0  0  0  0
  140.3440   77.5930  222.6280 N   0  0  0  0  0  0  0  0  0  0  0  0
  140.1310   74.9830  222.6330 H   0  0  0  0  0  0  0  0  0  0  0  0
  137.5042   73.6766  222.2204 H   0  0  0  0  0  0  0  0  0  0  0  0
  138.4976   73.6833  220.7304 H   0  0  0  0  0  0  0  0  0  0  0  0
  138.9018   70.9527  220.3917 H   0  0  0  0  0  0  0  0  0  0  0  0
  139.2926   69.5537  221.5101 H   0  0  0  0  0  0  0  0  0  0  0  0
  136.6448   70.5533  220.5508 H   0  0  0  0  0  0  0  0  0  0  0  0
  137.3951   68.8889  220.4993 H   0  0  0  0  0  0  0  0  0  0  0  0
  135.4941   69.2830  222.1439 H   0  0  0  0  0  0  0  0  0  0  0  0
  137.0347   68.5186  222.7396 H   0  0  0  0  0  0  0  0  0  0  0  0
  136.1421   71.3894  223.1041 H   0  0  0  0  0  0  0  0  0  0  0  0
  136.2820   70.0820  224.3589 H   0  0  0  0  0  0  0  0  0  0  0  0
  138.2325   71.6853  224.4159 H   0  0  0  0  0  0  0  0  0  0  0  0
  138.3265   68.6528  224.0700 H   0  0  0  0  0  0  0  0  0  0  0  0
  140.8311   69.1916  224.2339 H   0  0  0  0  0  0  0  0  0  0  0  0
  139.1671   69.1526  227.2329 H   0  0  0  0  0  0  0  0  0  0  0  0
  139.6523   70.3826  229.2941 H   0  0  0  0  0  0  0  0  0  0  0  0
  141.0638   72.4147  229.2492 H   0  0  0  0  0  0  0  0  0  0  0  0
  141.9832   73.2028  227.0795 H   0  0  0  0  0  0  0  0  0  0  0  0
  141.4971   71.9654  225.0177 H   0  0  0  0  0  0  0  0  0  0  0  0
  137.1202   78.3751  222.8935 H   0  0  0  0  0  0  0  0  0  0  0  0
  138.0836   80.5254  223.6232 H   0  0  0  0  0  0  0  0  0  0  0  0
  139.9628   81.8740  224.0801 H   0  0  0  0  0  0  0  0  0  0  0  0
  143.8715   80.2488  223.5281 H   0  0  0  0  0  0  0  0  0  0  0  0
  142.9352   78.0976  222.7992 H   0  0  0  0  0  0  0  0  0  0  0  0
  1  2  2  0
  2  3  1  0
  3  4  1  0
  4  5  1  0
  5  6  2  0
  5  7  1  0
  7  8  1  0
  8  9  1  0
  9 10  1  0
 10 11  1  0
 11 12  1  0
 12 13  1  0
 13 14  2  0
 14 15  1  0
 15 16  2  0
 16 17  1  0
 17 18  2  0
 18 19  1  0
 19 20  2  0
  2 21  1  0
 21 22  2  0
 22 23  1  0
 23 24  2  0
 24 25  1  0
 25 26  2  0
 26 27  1  0
 26 28  1  0
 28 29  2  0
 29 30  1  0
 30 31  2  0
 12  7  1  0
 20 15  1  0
 31 21  1  0
 30 24  1  0
  3 32  1  0
  4 33  1  0
  4 34  1  0
  8 35  1  0
  8 36  1  0
  9 37  1  0
  9 38  1  0
 10 39  1  0
 10 40  1  0
 11 41  1  0
 11 42  1  0
 12 43  1  1
 13 44  1  0
 14 45  1  0
 16 46  1  0
 17 47  1  0
 18 48  1  0
 19 49  1  0
 20 50  1  0
 22 51  1  0
 23 52  1  0
 25 53  1  0
 28 54  1  0
 29 55  1  0
M  END
>  <smiles>  (100) 
O=C(NCC(=O)N1CCCCC1/C=C/c1ccccc1)c1ccc2cc(F)ccc2n1

>  <score_type>  (100) 
oracle

>  <origin>  (100) 
autodockgpu

>  <m_score__min__energy>  (100) 
-9.1899999999999995

>  <m_primary>  (100) 
energy

>  <rmsd>  (100) 
8.497185768320247

>  <m_score__min__rmsd>  (100) 
8.497185768320247

>  <meeko>  (100) 
{"free_energy": -8.55, "intermolecular_energy": -10.64, "internal_energy": -2.22, "cluster_size": 22, "cluster_id": 4, "rank_in_cluster": 6}

>  <energy>  (100) 
-7.73

>  <cluster_rmsd>  (100) 
0.0

>  <cluster>  (100) 
6

$$$$
